#------------------------------------------------------------------------------
#$Date: 2020-10-04 05:56:34 +0300 (Sun, 04 Oct 2020) $
#$Revision: 257024 $
#$URL: file:///home/coder/svn-repositories/cod/cif/4/51/74/4517437.cif $
#------------------------------------------------------------------------------
#
# This file is available in the Crystallography Open Database (COD),
# http://www.crystallography.net/
#
# All data on this site have been placed in the public domain by the
# contributors.
#
data_4517437
loop_
_publ_author_name
'Kim, Alexia N.'
'Ngamnithiporn, Aurapat'
'Welin, Eric R.'
'Daiger, Martin T.'
'Gr\"unanger, Christian U.'
'Bartberger, Michael D.'
'Virgil, Scott C.'
'Stoltz, Brian M.'
_publ_section_title
;
 Iridium-Catalyzed Enantioselective and Diastereoselective Hydrogenation
 of 1,3-Disubstituted Isoquinolines
;
_journal_name_full               'ACS Catalysis'
_journal_page_first              3241
_journal_page_last               3248
_journal_paper_doi               10.1021/acscatal.0c00211
_journal_year                    2020
_chemical_absolute_configuration ad
_chemical_formula_moiety         'C14 H15 N O S'
_chemical_formula_sum            'C14 H15 N O S'
_chemical_formula_weight         245.33
_space_group_crystal_system      monoclinic
_space_group_IT_number           4
_space_group_name_Hall           'P 2yb'
_space_group_name_H-M_alt        'P 1 21 1'
_atom_sites_solution_hydrogens   difmap
_audit_creation_date             2019-08-29
_audit_creation_method
;
Olex2 1.2
(compiled 2018.05.29 svn.r3508 for OlexSys, GUI svn.r5506),
 SHELXL-2018/3, and manual edit
;
_cell_angle_alpha                90
_cell_angle_beta                 96.337(8)
_cell_angle_gamma                90
_cell_formula_units_Z            2
_cell_length_a                   8.3309(19)
_cell_length_b                   6.6556(18)
_cell_length_c                   10.916(3)
_cell_measurement_reflns_used    9954
_cell_measurement_temperature    100
_cell_measurement_theta_max      35.61
_cell_measurement_theta_min      2.46
_cell_volume                     601.6(3)
_computing_cell_refinement       'SAINT V8.38A (Bruker-AXS, 2016)'
_computing_data_collection
'BIS 2018.9.0.2/05-Oct-2018 & APEX3_2018.7-2 (Bruker-AXS, 2018)'
_computing_data_reduction        'SAINT V8.38A (Bruker-AXS, 2016)'
_computing_molecular_graphics    'DIAMOND 3 (Crystal Impact, 1999)'
_computing_publication_material  'Olex2 (Dolomanov et al., 2009)'
_computing_structure_refinement  'SHELXL-2018/3 (Sheldrick, 2015)'
_computing_structure_solution    'SHELXT-2014/5 (Sheldrick, 2013)'
_diffrn_ambient_temperature      100
_diffrn_detector                 'CMOS Area Detector'
_diffrn_detector_area_resol_mean 10.24
_diffrn_detector_type            'Bruker PHOTON 100'
_diffrn_measured_fraction_theta_full 0.995
_diffrn_measured_fraction_theta_max 0.971
_diffrn_measurement_device       '\k-geometry diffractometer'
_diffrn_measurement_device_type  'Bruker D8 Kappa'
_diffrn_measurement_method       '\w and \f scans'
_diffrn_radiation_monochromator  'Triumph focusing graphite'
_diffrn_radiation_type           MoK\a
_diffrn_radiation_wavelength     0.71073
_diffrn_reflns_av_R_equivalents  0.0337
_diffrn_reflns_av_unetI/netI     0.0317
_diffrn_reflns_Laue_measured_fraction_full 0.995
_diffrn_reflns_Laue_measured_fraction_max 0.971
_diffrn_reflns_limit_h_max       13
_diffrn_reflns_limit_h_min       -13
_diffrn_reflns_limit_k_max       10
_diffrn_reflns_limit_k_min       -10
_diffrn_reflns_limit_l_max       17
_diffrn_reflns_limit_l_min       -17
_diffrn_reflns_number            25734
_diffrn_reflns_point_group_measured_fraction_full 0.996
_diffrn_reflns_point_group_measured_fraction_max 0.942
_diffrn_reflns_theta_full        25.242
_diffrn_reflns_theta_max         35.613
_diffrn_reflns_theta_min         1.877
_diffrn_source                   'sealed tube'
_diffrn_source_current           30
_diffrn_source_power             1.5
_diffrn_source_target            Mo
_diffrn_source_type              'XRD C-TECH Long Fine Focus'
_diffrn_source_voltage           50
_diffrn_standards_number         0
_exptl_absorpt_coefficient_mu    0.251
_exptl_absorpt_correction_T_max  1.0000
_exptl_absorpt_correction_T_min  0.9299
_exptl_absorpt_correction_type   multi-scan
_exptl_absorpt_process_details
;
SADABS-2016/2 (Bruker,2016/2) was used for absorption correction. 
wR2(int) was 0.0498 before and 0.0444 after correction. 
The Ratio of minimum to maximum transmission is 0.9299. 
The \l/2 correction factor is Not present.
;
_exptl_crystal_colour            colourless
_exptl_crystal_colour_primary    colourless
_exptl_crystal_density_diffrn    1.354
_exptl_crystal_description       block
_exptl_crystal_F_000             260
_exptl_crystal_size_max          0.38
_exptl_crystal_size_mid          0.17
_exptl_crystal_size_min          0.08
_refine_diff_density_max         0.457
_refine_diff_density_min         -0.227
_refine_diff_density_rms         0.056
_refine_ls_abs_structure_details
;
 Flack x determined using 1924 quotients [(I+)-(I-)]/[(I+)+(I-)]
 (Parsons, Flack and Wagner, Acta Cryst. B69 (2013) 249-259).
;
_refine_ls_abs_structure_Flack   0.04(2)
_refine_ls_extinction_method     none
_refine_ls_goodness_of_fit_ref   1.058
_refine_ls_hydrogen_treatment    refxyz
_refine_ls_matrix_type           full
_refine_ls_number_parameters     209
_refine_ls_number_reflns         5228
_refine_ls_number_restraints     1
_refine_ls_restrained_S_all      1.058
_refine_ls_R_factor_all          0.0484
_refine_ls_R_factor_gt           0.0383
_refine_ls_shift/su_max          0.000
_refine_ls_shift/su_mean         0.000
_refine_ls_structure_factor_coef Fsqd
_refine_ls_weighting_details
'w=1/[\s^2^(Fo^2^)+(0.0523P)^2^+0.0977P] where P=(Fo^2^+2Fc^2^)/3'
_refine_ls_weighting_scheme      calc
_refine_ls_wR_factor_gt          0.0909
_refine_ls_wR_factor_ref         0.0960
_reflns_Friedel_coverage         0.815
_reflns_Friedel_fraction_full    0.997
_reflns_Friedel_fraction_max     0.908
_reflns_number_gt                4632
_reflns_number_total             5228
_reflns_threshold_expression     'I > 2\s(I)'
_cod_data_source_file            cs0c00211_si_002.cif
_cod_data_source_block           d19110
_cod_depositor_comments          'Adding full bibliography for 4517437.cif.'
_cod_database_code               4517437
_shelx_shelxl_version_number     2018/3
_shelx_space_group_comment
;
The symmetry employed for this shelxl refinement is uniquely defined
by the following loop, which should always be used as a source of
symmetry information in preference to the above space-group names.
They are only intended as comments.
;
_shelx_estimated_absorpt_t_max   0.980
_shelx_estimated_absorpt_t_min   0.911
_refine_ls_abs_structure_hooft   0.03(2)
_olex2_refinement_description
;
1. Fixed Uiso
 At 1.2 times of:
  All C(H) groups, All C(H,H) groups, All C(H,H,H,H) groups, All N(H) groups
 At 1.5 times of:
  All O(H) groups
2. Shared sites
{H12, H12A}
{H14, H14A}
3. Uiso/Uaniso restraints and constraints
Uanis(C13) = Uanis(S1)
Uanis(S1A) = Uanis(C13A)
4. Others
 Sof(S1A)=Sof(C13A)=Sof(H13A)=Sof(H12A)=Sof(H14A)=1-FVAR(1)
 Sof(S1)=Sof(C13)=Sof(H13)=Sof(H12)=Sof(H14)=FVAR(1)
;
_shelx_res_file
;
TITL d19110 in P2(1)
    d19110.res
    created by SHELXL-2018/3 at 12:13:47 on 29-Aug-2019
CELL 0.71073 8.3309 6.6556 10.9162 90 96.3373 90
ZERR 2 0.0019 0.0018 0.0025 0 0.0081 0
LATT -1
SYMM -X,0.5+Y,-Z
SFAC C H N O S
UNIT 28 30 2 2 2
EQIV $1 1-X,0.5+Y,-Z
EADP C13 S1
EADP S1A C13A
EXYZ H12 H12A
EXYZ H14 H14A

L.S. 25
PLAN  20
SIZE 0.08 0.17 0.38
TEMP -173.15
HTAB O1 N1_$1
BOND $H
list 4
wpdb -2
conf
fmap -2
acta
REM <olex2.extras>
REM <HklSrc "%.\\d19110.hkl">
REM </olex2.extras>

WGHT    0.052300    0.097700
FVAR       0.64387   0.60528
PART 1
S1    5   -0.017821    0.101120    0.085539    21.00000    0.01457    0.02199 =
         0.02036   -0.00445   -0.00071   -0.00756
PART 0
PART 2
S1A   5   -0.128348    0.268819    0.153514   -21.00000    0.01210    0.02464 =
         0.02234   -0.00494   -0.00149   -0.00920
PART 0
O1    4    0.467310    0.905256    0.022385    11.00000    0.02051    0.03019 =
         0.02513    0.01514    0.00601    0.00139
H1    2    0.512917    0.970081   -0.040678    11.00000   -1.50000
N1    3    0.381897    0.601323    0.164621    11.00000    0.01326    0.01131 =
         0.01309    0.00141    0.00078   -0.00151
H1A   2    0.300600    0.667545    0.121765    11.00000   -1.20000
C1    1    0.315201    0.475023    0.257607    11.00000    0.01087    0.01263 =
         0.01213   -0.00003    0.00134   -0.00109
H1B   2    0.277460    0.562441    0.326570    11.00000   -1.20000
C2    1    0.453615    0.343599    0.313174    11.00000    0.01294    0.01350 =
         0.01685    0.00394   -0.00069   -0.00200
H2A   2    0.422146    0.253502    0.377952    11.00000   -1.20000
H2B   2    0.493234    0.255236    0.249096    11.00000   -1.20000
C3    1    0.591037    0.474433    0.368695    11.00000    0.01006    0.01819 =
         0.01225    0.00009    0.00141    0.00055
C4    1    0.695830    0.404271    0.468580    11.00000    0.01568    0.02743 =
         0.01437    0.00118    0.00021    0.00447
H4    2    0.673702    0.282144    0.500540    11.00000   -1.20000
C5    1    0.817318    0.526331    0.525194    11.00000    0.01270    0.04366 =
         0.01427   -0.00568    0.00021    0.00349
H5    2    0.881965    0.482399    0.595381    11.00000   -1.20000
C6    1    0.836128    0.719047    0.481888    11.00000    0.01481    0.04164 =
         0.01671   -0.01230    0.00233   -0.00945
H6    2    0.904575    0.801331    0.517681    11.00000   -1.20000
C7    1    0.733006    0.791060    0.383023    11.00000    0.01910    0.02549 =
         0.01926   -0.00748    0.00542   -0.00936
H7    2    0.739033    0.931049    0.353233    11.00000   -1.20000
C8    1    0.609155    0.669669    0.325538    11.00000    0.01247    0.01730 =
         0.01259   -0.00306    0.00352   -0.00206
C9    1    0.493938    0.756072    0.221547    11.00000    0.01498    0.00941 =
         0.01608   -0.00046    0.00451   -0.00165
H9    2    0.429383    0.867158    0.251042    11.00000   -1.20000
C10   1    0.583732    0.843152    0.119760    11.00000    0.01709    0.01662 =
         0.01914    0.00300    0.00533   -0.00349
H10A  2    0.649341    0.952604    0.152422    11.00000   -1.20000
H10B  2    0.659791    0.740211    0.091261    11.00000   -1.20000
C11   1    0.169535    0.361679    0.202215    11.00000    0.01240    0.01382 =
         0.01141    0.00054   -0.00023   -0.00205
C12   1    0.170828    0.187583    0.131102    11.00000    0.01502    0.01411 =
         0.01469   -0.00160    0.00102   -0.00272
PART 1
C13   1   -0.103726    0.299388    0.161899    21.00000    0.01457    0.02199 =
         0.02036   -0.00445   -0.00071   -0.00756
H13   2   -0.212866    0.279963    0.147894    21.00000   -1.20000
PART 0
PART 2
C13A  1    0.018386    0.117334    0.097580   -21.00000    0.01210    0.02464 =
         0.02234   -0.00494   -0.00149   -0.00920
H13A  2   -0.044909   -0.003693    0.055367   -21.00000   -1.20000
PART 0
C14   1    0.011663    0.421586    0.218893    11.00000    0.01528    0.01972 =
         0.01863   -0.00130    0.00449   -0.00048
PART 1
H12   2    0.260858    0.120746    0.106072    21.00000   -1.20000
PART 0
PART 2
H12A  2    0.260858    0.120746    0.106072   -21.00000   -1.20000
H14A  2   -0.015487    0.530507    0.260411   -21.00000   -1.20000
PART 0
PART 1
H14   2   -0.015487    0.530507    0.260411    21.00000   -1.20000
HKLF 4




REM  d19110 in P2(1)
REM wR2 = 0.096012, GooF = S = 1.05799, Restrained GooF = 1.05788 for all data
REM R1 = 0.038293 for 4632 Fo > 4sig(Fo) and 0.048370 for all 5228 data
REM 209 parameters refined using 1 restraints

END

WGHT      0.0524      0.0970

REM Highest difference peak  0.457,  deepest hole -0.227,  1-sigma level  0.056
Q1    1  -0.0593  0.3502  0.1967  11.00000  0.05    0.46
Q2    1   0.0921  0.3979  0.2249  11.00000  0.05    0.38
Q3    1   0.7669  0.7455  0.4382  11.00000  0.05    0.35
Q4    1  -0.0583  0.2105  0.1212  11.00000  0.05    0.33
Q5    1   0.0926  0.1480  0.1149  11.00000  0.05    0.33
Q6    1   0.3420  0.6653  0.2212  11.00000  0.05    0.32
Q7    1   0.5922  0.5902  0.3599  11.00000  0.05    0.32
Q8    1   0.5040  0.9421  0.0764  11.00000  0.05    0.31
Q9    1   0.3796  0.3864  0.2949  11.00000  0.05    0.31
Q10   1   0.2341  0.4195  0.2309  11.00000  0.05    0.29
Q11   1   0.6464  0.4307  0.4161  11.00000  0.05    0.28
Q12   1   0.7558  0.4823  0.5052  11.00000  0.05    0.28
Q13   1   0.5368  0.4144  0.3400  11.00000  0.05    0.27
Q14   1   0.5400  0.7317  0.2774  11.00000  0.05    0.25
Q15   1   0.4948  0.8052  0.0075  11.00000  0.05    0.25
Q16   1   0.1965  0.2811  0.1621  11.00000  0.05    0.24
Q17   1   0.3554  0.5333  0.2181  11.00000  0.05    0.24
Q18   1   0.5463  0.7870  0.1727  11.00000  0.05    0.23
Q19   1   0.8543  0.6064  0.4987  11.00000  0.05    0.23
Q20   1   0.7656  0.5915  0.4003  11.00000  0.05   -0.23
;
_shelx_res_checksum              30227
_shelx_hkl_file
;
  -1   0   0  167.17    3.87
  -1   0   0  169.61    3.85
  -1   0   0  161.10    3.85
   1   0   0  167.01    3.83
   1   0   0  161.36    3.87
   1   0   0  171.17    3.85
   1   0   0  162.35    3.85
  -1   0   0  164.55    3.87
  -1   0   0  165.48    3.83
  -2   0   0  288.49    6.68
  -2   0   0  279.96    6.65
   2   0   0  284.75    6.62
   2   0   0  291.74    6.65
   2   0   0  277.75    6.68
   2   0   0  284.25    6.71
  -2   0   0  285.90    6.69
   2   0   0  289.40    6.63
  -2   0   0  291.05    6.71
  -2   0   0  284.28    6.63
   3   0   0   23.19    0.78
  -3   0   0   21.46    0.77
  -3   0   0   23.48    0.85
  -3   0   0   22.87    0.80
   3   0   0   22.92    0.72
  -3   0   0   23.37    0.68
  -3   0   0   21.76    0.84
   3   0   0   22.07    0.69
   3   0   0   20.43    0.82
  -3   0   0   21.00    0.71
   3   0   0   21.62    0.91
  -4   0   0    0.43    0.32
   4   0   0    0.18    0.27
  -4   0   0    0.74    0.24
   4   0   0    0.53    0.32
   4   0   0   -0.06    0.39
   4   0   0    0.55    0.33
  -4   0   0    0.59    0.25
   4   0   0    0.55    0.25
   5   0   0   88.95    2.54
   5   0   0   93.21    2.34
   5   0   0   80.17    2.65
  -5   0   0   93.47    2.27
   5   0   0   91.85    2.29
  -5   0   0   90.66    2.31
  -6   0   0  161.27    4.16
  -6   0   0  166.15    4.05
   6   0   0  162.89    4.36
   6   0   0  170.10    4.07
  -6   0   0  162.73    3.99
   6   0   0  163.40    4.01
   6   0   0  161.69    4.26
   7   0   0  173.29    4.31
  -7   0   0  177.81    4.36
  -7   0   0  175.12    4.53
   7   0   0  175.48    4.64
   7   0   0  177.41    4.76
  -8   0   0   11.42    1.00
   8   0   0   12.66    1.31
  -8   0   0   12.76    0.75
   8   0   0   13.45    1.49
   8   0   0   12.19    0.74
   9   0   0   10.13    1.26
   9   0   0   11.28    0.93
  -9   0   0   11.74    1.26
  -9   0   0    9.97    0.95
   9   0   0   11.50    1.36
  10   0   0   35.32    2.84
 -10   0   0   41.06    2.14
  11   0   0    1.23    1.47
  11   0   0    3.05    1.26
 -11   0   0    4.22    1.17
  12   0   0    8.22    1.62
  12   0   0    3.99    1.90
 -12   0   0    7.48    1.48
 -13   0   0    7.20    1.52
 -13   0   0    9.91    2.06
   0  -1   0    0.14    0.14
   0  -1   0    0.31    0.12
   0  -1   0    0.19    0.16
   0  -1   0    0.08    0.15
   0  -1   0    0.26    0.13
   0  -1   0    0.27    0.12
   0  -1   0    0.21    0.11
   0   1   0    0.25    0.15
   0   1   0    0.19    0.15
   0   1   0    0.16    0.17
   0   1   0    0.32    0.12
   0   1   0    0.27    0.14
  -1  -1   0  244.08    5.55
  -1  -1   0  243.61    5.55
   1  -1   0  234.73    5.50
   1  -1   0  232.32    5.54
  -1  -1   0  240.90    5.51
   1  -1   0  246.20    5.57
  -1  -1   0  243.53    5.52
   1  -1   0  229.78    5.52
   1  -1   0  230.55    5.51
   1  -1   0  229.79    5.57
  -1  -1   0  242.73    5.56
   1   1   0  243.77    5.50
  -1   1   0  239.08    5.49
  -1   1   0  237.23    5.50
   1   1   0  233.95    5.46
  -1   1   0  237.41    5.45
   1   1   0  232.11    5.50
  -1   1   0  230.12    5.45
  -1   1   0  223.04    5.46
   1   1   0  244.49    5.47
   1   1   0  237.86    5.49
  -1   1   0  232.06    5.45
  -2  -1   0   37.18    1.07
  -2  -1   0   38.09    0.96
   2  -1   0   38.67    0.98
   2  -1   0   39.41    1.17
  -2  -1   0   38.40    1.11
  -2  -1   0   36.45    1.03
  -2  -1   0   37.98    1.02
   2  -1   0   37.32    1.05
   2  -1   0   38.25    1.02
  -2  -1   0   39.68    1.09
   2  -1   0   38.55    1.08
  -2  -1   0   37.69    1.11
  -2   1   0   38.76    1.05
  -2   1   0   38.61    1.10
  -2   1   0   40.69    1.19
   2   1   0   40.63    1.16
  -2   1   0   39.08    1.07
   2   1   0   39.02    1.00
  -2   1   0   39.25    1.11
   2   1   0   37.07    1.13
   2   1   0   41.43    1.07
  -2   1   0   38.91    1.01
   2   1   0   39.33    1.11
   2   1   0   40.47    1.08
   3  -1   0   27.38    0.83
  -3  -1   0   26.62    0.93
  -3  -1   0   27.61    0.89
  -3  -1   0   26.52    0.94
   3  -1   0   27.29    0.85
  -3  -1   0   25.92    0.81
   3  -1   0   27.32    0.87
  -3  -1   0   26.23    0.86
   3  -1   0   27.27    0.96
   3  -1   0   27.92    0.73
  -3  -1   0   26.74    0.70
   3  -1   0   25.90    0.97
  -3  -1   0   27.40    0.78
  -3  -1   0   24.97    0.81
  -3   1   0   27.68    0.84
   3   1   0   26.80    0.99
  -3   1   0   27.84    0.74
   3   1   0   27.09    0.87
   3   1   0   27.73    1.00
  -3   1   0   28.45    0.99
  -3   1   0   27.63    0.93
   3   1   0   27.83    0.73
   3   1   0   29.05    0.86
  -3   1   0   27.46    0.88
   3   1   0   27.54    0.96
  -3   1   0   27.85    0.86
   4  -1   0  312.19    7.25
  -4  -1   0  310.00    7.38
   4  -1   0  307.45    7.38
  -4  -1   0  322.95    7.35
   4  -1   0  321.82    7.42
   4  -1   0  320.04    7.58
  -4  -1   0  307.68    7.45
   4  -1   0  313.84    7.51
  -4  -1   0  304.58    7.23
   4  -1   0  320.34    7.42
  -4   1   0  303.64    7.50
  -4   1   0  318.79    7.52
  -4   1   0  318.31    7.47
   4   1   0  317.58    7.64
   4   1   0  333.50    7.49
   4   1   0  322.98    7.60
  -4   1   0  312.75    7.59
   5  -1   0    3.71    0.61
   5  -1   0    3.72    0.55
  -5  -1   0    4.96    0.42
  -5  -1   0    3.55    0.49
   5  -1   0    4.06    0.22
   5  -1   0    3.89    0.46
   5  -1   0    3.73    0.49
  -5  -1   0    3.66    0.42
   5   1   0    3.23    0.49
  -5   1   0    4.41    0.42
   5   1   0    4.07    0.62
  -5   1   0    3.29    0.39
   5   1   0    4.62    0.54
  -5   1   0    3.89    0.44
  -6  -1   0   33.38    1.32
   6  -1   0   34.66    1.37
  -6  -1   0   33.31    1.10
   6  -1   0   35.13    1.13
  -6  -1   0   34.97    1.07
   6  -1   0   36.44    1.59
   6   1   0   35.13    1.20
   6   1   0   33.94    1.52
  -6   1   0   36.12    1.19
   6   1   0   35.14    1.46
   7  -1   0    9.15    1.11
   7  -1   0    8.44    0.66
  -7  -1   0   10.34    0.64
  -7  -1   0   10.04    0.89
   7  -1   0    9.74    1.31
  -7   1   0    9.33    0.70
   7   1   0   10.24    1.28
   7   1   0    9.94    1.14
  -7   1   0    8.83    0.90
   8  -1   0   35.09    1.32
   8  -1   0   33.40    1.89
   8  -1   0   35.69    1.78
  -8  -1   0   34.17    1.19
  -8  -1   0   34.05    1.54
  -8   1   0   35.65    1.36
   8   1   0   34.49    1.74
   8   1   0   33.75    1.80
  -8   1   0   33.35    1.50
   9  -1   0   35.04    1.89
  -9  -1   0   31.71    1.52
   9  -1   0   34.42    2.12
   9  -1   0   33.55    1.40
  -9  -1   0   33.42    1.68
  -9   1   0   33.02    1.42
   9   1   0   33.02    2.09
  -9   1   0   33.49    1.64
   9   1   0   31.83    1.76
 -10  -1   0   46.53    2.27
  10  -1   0   47.29    2.03
  10  -1   0   48.01    2.37
  10  -1   0   50.17    2.63
 -10   1   0   49.64    1.88
  10   1   0   46.98    2.28
  10   1   0   42.63    3.42
 -10   1   0   47.71    2.11
  11  -1   0   43.94    2.61
  11  -1   0   46.72    2.92
 -11  -1   0   45.16    2.24
  11   1   0   44.91    2.66
  11   1   0   53.51    3.07
 -11   1   0   48.68    2.35
 -12  -1   0    5.81    1.91
  12  -1   0    6.63    1.57
  12  -1   0    2.51    1.65
 -12  -1   0    6.05    1.44
  12   1   0    6.77    1.61
  12   1   0    8.06    2.00
 -12   1   0    6.06    1.47
 -13   1   0    5.23    2.05
 -13   1   0   10.23    1.56
   0  -2   0  255.55    5.84
   0  -2   0  248.27    5.83
   0  -2   0  245.23    5.77
   0  -2   0  247.29    5.80
   0  -2   0  257.04    5.86
   0  -2   0  249.64    5.77
   0  -2   0  239.62    5.77
   0  -2   0  245.66    5.86
   0   2   0  243.69    5.82
   0   2   0  245.30    5.78
   0   2   0  241.92    5.76
   0   2   0  260.66    5.85
  -1  -2   0  316.89    7.40
   1  -2   0  304.71    7.29
   1  -2   0  313.65    7.38
  -1  -2   0  327.64    7.38
   1  -2   0  316.30    7.33
  -1  -2   0  322.28    7.37
   1  -2   0  312.69    7.32
  -1  -2   0  323.25    7.34
   1  -2   0  328.45    7.45
   1  -2   0  298.98    7.40
  -1  -2   0  318.35    7.38
  -1  -2   0  309.54    7.40
  -1   2   0  304.55    7.14
  -1   2   0  307.21    7.12
  -1   2   0  310.13    7.16
   1   2   0  309.06    7.21
   1   2   0  302.69    7.20
   1   2   0  305.01    7.21
  -1   2   0  312.05    7.19
  -1   2   0  302.95    7.20
   1   2   0  303.30    7.16
   1   2   0  311.69    7.23
  -1   2   0  323.42    7.24
  -2  -2   0   12.62    0.60
  -2  -2   0   12.75    0.63
   2  -2   0   11.52    0.65
  -2  -2   0   13.16    0.51
   2  -2   0   12.13    0.71
  -2  -2   0   12.84    0.51
   2  -2   0   11.01    0.60
  -2  -2   0   14.81    0.62
  -2  -2   0   13.65    0.59
   2  -2   0   12.26    0.54
   2  -2   0   12.50    0.49
  -2   2   0   10.11    0.50
  -2   2   0   11.11    0.49
   2   2   0   11.44    0.63
  -2   2   0   10.59    0.46
   2   2   0   11.18    0.52
   2   2   0   10.76    0.58
  -2   2   0   10.97    0.55
  -2   2   0   10.26    0.49
   2   2   0   11.76    0.60
   2   2   0   12.19    0.51
  -3  -2   0  512.55   12.54
   3  -2   0  517.56   12.55
  -3  -2   0  540.87   12.58
  -3  -2   0  543.69   12.62
  -3  -2   0  537.58   12.60
   3  -2   0  532.73   12.66
   3  -2   0  561.52   12.50
  -3  -2   0  556.55   12.50
  -3  -2   0  517.38   12.54
   3  -2   0  579.56   12.61
  -3  -2   0  528.92   12.51
   3  -2   0  539.70   12.47
   3   2   0  513.77   12.19
  -3   2   0  540.07   12.27
  -3   2   0  554.03   12.39
   3   2   0  531.27   12.36
   3   2   0  519.00   12.34
  -3   2   0  526.01   12.32
   3   2   0  513.73   12.24
  -3   2   0  527.39   12.21
  -3   2   0  521.63   12.22
  -3   2   0  545.29   12.28
   3   2   0  505.26   12.30
   4  -2   0   58.85    1.71
  -4  -2   0   63.17    1.74
   4  -2   0   61.57    1.77
  -4  -2   0   61.69    1.67
   4  -2   0   62.08    1.89
   4  -2   0   59.94    1.81
  -4  -2   0   61.00    1.61
   4  -2   0   61.24    1.59
   4  -2   0   60.31    1.65
  -4  -2   0   61.79    1.55
  -4   2   0   55.44    1.47
   4   2   0   58.41    1.46
   4   2   0   57.50    1.59
  -4   2   0   56.19    1.65
   4   2   0   58.24    1.69
  -4   2   0   55.98    1.55
   4   2   0   55.31    1.72
  -4   2   0   55.79    1.64
   4   2   0   55.56    1.69
  -4   2   0   55.71    1.57
  -5  -2   0  232.35    5.35
  -5  -2   0  221.48    5.59
   5  -2   0  233.52    5.38
   5  -2   0  231.73    5.69
   5  -2   0  227.77    5.76
  -5  -2   0  231.49    5.46
   5  -2   0  225.58    5.54
  -5  -2   0  224.92    5.51
  -5   2   0  228.10    5.49
   5   2   0  224.59    5.69
  -5   2   0  229.31    5.55
   5   2   0  225.49    5.62
   6  -2   0   14.89    0.57
  -6  -2   0   12.63    0.93
  -6  -2   0   13.48    0.64
  -6  -2   0   13.46    0.70
   6  -2   0   13.24    1.24
   6  -2   0   13.95    1.01
  -6  -2   0   13.63    0.45
  -6   2   0   12.52    0.95
   6   2   0   12.43    1.12
   6   2   0   13.36    0.80
  -6   2   0   13.12    0.84
   6   2   0   12.85    1.06
   7  -2   0    9.94    1.20
  -7  -2   0    9.10    0.64
   7  -2   0    9.77    1.07
   7  -2   0   10.18    0.88
   7  -2   0    9.53    0.43
  -7  -2   0   10.11    1.00
  -7   2   0    9.05    0.91
  -7   2   0    9.73    0.93
   7   2   0   10.33    1.31
   7   2   0    9.37    1.08
  -8  -2   0   61.99    1.91
   8  -2   0   63.49    2.54
   8  -2   0   62.59    1.99
   8  -2   0   59.64    2.31
  -8  -2   0   60.30    2.10
  -8   2   0   60.98    2.04
  -8   2   0   61.05    2.13
   8   2   0   60.83    2.46
   8   2   0   62.97    2.34
   9  -2   0   20.97    1.80
  -9  -2   0   21.91    1.43
  -9  -2   0   22.55    1.15
   9  -2   0   21.52    1.74
   9  -2   0   20.70    1.30
  -9   2   0   20.43    1.34
  -9   2   0   20.55    1.48
   9   2   0   23.01    1.78
   9   2   0   21.18    1.95
  10  -2   0   20.03    2.13
  10  -2   0   14.80    1.84
 -10  -2   0   19.07    1.61
  10  -2   0   14.18    1.35
  10   2   0   18.15    2.18
  10   2   0   17.44    1.90
 -10   2   0   17.26    1.63
 -11  -2   0    1.34    1.13
  11  -2   0    2.16    1.50
  11  -2   0    0.09    1.14
  11   2   0    1.24    1.29
 -11   2   0    2.14    1.19
  11   2   0    1.72    1.51
 -12  -2   0   -0.62    1.58
  12  -2   0    0.65    1.46
 -12  -2   0    1.09    1.25
  12  -2   0    0.14    1.66
 -12   2   0    0.17    1.40
  12   2   0   -1.92    1.43
  12   2   0    1.79    1.89
 -13   2   0    6.71    2.17
 -13   2   0    6.54    1.54
   0  -3   0    0.33    0.21
   0  -3   0    0.06    0.22
   0  -3   0    0.31    0.24
   0  -3   0    0.32    0.29
   0  -3   0    0.00    0.30
   0  -3   0    0.47    0.22
   0  -3   0    0.34    0.30
   0  -3   0    0.43    0.21
   0   3   0    0.41    0.30
   0   3   0    0.23    0.31
   0   3   0    0.48    0.23
   0   3   0    0.54    0.25
  -1  -3   0   36.48    1.09
  -1  -3   0   35.72    1.10
   1  -3   0   36.31    1.12
  -1  -3   0   34.81    1.09
  -1  -3   0   36.61    1.02
   1  -3   0   38.41    0.96
   1  -3   0   38.70    1.06
  -1  -3   0   35.20    1.15
  -1  -3   0   35.45    1.10
   1  -3   0   38.19    1.01
  -1  -3   0   34.98    1.13
   1  -3   0   35.14    1.16
   1  -3   0   38.50    1.02
   1  -3   0   36.47    1.25
   1   3   0   34.72    1.11
  -1   3   0   37.16    1.06
   1   3   0   36.23    1.09
   1   3   0   34.88    1.09
  -1   3   0   36.07    1.14
  -1   3   0   36.42    1.00
  -1   3   0   36.90    1.02
  -1   3   0   35.24    1.12
   1   3   0   36.12    1.15
   1   3   0   34.49    1.02
  -1   3   0   36.77    0.93
   2  -3   0  178.94    4.34
  -2  -3   0  180.30    4.32
   2  -3   0  178.88    4.45
  -2  -3   0  181.02    4.36
   2  -3   0  176.96    4.40
  -2  -3   0  176.38    4.41
  -2  -3   0  182.09    4.36
  -2  -3   0  178.53    4.28
  -2  -3   0  178.67    4.39
   2  -3   0  183.82    4.25
  -2  -3   0  175.09    4.36
   2   3   0  171.84    4.30
  -2   3   0  177.46    4.25
   2   3   0  179.08    4.30
  -2   3   0  177.47    4.18
  -2   3   0  177.22    4.20
  -2   3   0  176.81    4.27
  -2   3   0  177.32    4.14
   2   3   0  173.93    4.33
   2   3   0  176.62    4.22
   2   3   0  170.77    4.25
  -3  -3   0   10.70    0.64
   3  -3   0   11.18    0.83
  -3  -3   0   12.03    0.63
   3  -3   0   12.72    0.52
   3  -3   0   11.80    0.61
  -3  -3   0   11.53    0.54
   3  -3   0   11.59    0.70
  -3   3   0   12.24    0.61
   3   3   0   12.02    0.61
   3   3   0   11.27    0.60
  -3   3   0   11.24    0.65
  -3   3   0   12.69    0.62
  -3   3   0   10.87    0.57
   3   3   0   11.51    0.71
   3   3   0   12.94    0.74
  -3   3   0   12.13    0.55
   3   3   0   12.24    0.75
   4  -3   0   40.97    1.93
  -4  -3   0   45.78    1.31
  -4  -3   0   46.01    1.48
  -4  -3   0   46.48    1.44
   4  -3   0   49.68    1.36
   4  -3   0   49.46    1.48
   4  -3   0   50.81    1.71
   4   3   0   39.22    1.62
  -4   3   0   46.52    1.35
   4   3   0   45.11    1.30
  -4   3   0   46.90    1.32
  -4   3   0   48.75    1.41
  -4   3   0   46.85    1.31
   4   3   0   44.05    1.56
   4   3   0   44.60    1.55
  -5  -3   0   84.38    2.43
  -5  -3   0   87.29    2.38
   5  -3   0   89.90    2.60
   5  -3   0   88.25    2.69
   5  -3   0   93.70    2.41
   5  -3   0   86.92    2.47
  -5  -3   0   87.07    2.23
  -5   3   0   85.84    2.38
   5   3   0   88.81    2.27
  -5   3   0   89.22    2.39
   5   3   0   86.56    2.42
   5   3   0   89.64    2.55
  -5   3   0   90.39    2.47
   5   3   0   89.04    2.62
   5   3   0   90.14    2.65
  -5   3   0   88.11    2.28
  -6  -3   0   18.93    0.68
   6  -3   0   17.55    1.42
   6  -3   0   18.06    1.27
   6  -3   0   18.42    0.78
  -6  -3   0   16.85    1.06
  -6  -3   0   18.44    0.86
   6  -3   0   18.12    1.05
  -6   3   0   16.53    0.97
   6   3   0   16.59    1.31
  -6   3   0   16.67    0.97
   6   3   0   19.58    1.22
   7  -3   0    6.00    0.94
  -7  -3   0    7.29    0.88
   7  -3   0    7.18    0.91
  -7  -3   0    7.70    0.92
   7  -3   0    7.39    1.00
   7   3   0    6.35    0.97
  -7   3   0    7.95    0.82
   7   3   0    7.19    0.87
   8  -3   0   22.47    1.65
   8  -3   0   22.27    1.80
  -8  -3   0   21.47    1.30
  -8  -3   0   19.74    1.08
   8  -3   0   20.81    1.34
  -8   3   0   22.33    1.35
   8   3   0   21.80    1.79
   8   3   0   21.29    1.60
   9  -3   0    3.32    0.97
   9  -3   0    3.34    1.10
  -9  -3   0    0.76    0.62
  -9  -3   0    0.94    0.84
   9  -3   0    2.38    0.92
  -9   3   0    2.23    0.89
   9   3   0    0.96    1.05
   9   3   0    2.11    0.94
  -9   3   0    2.02    0.83
  10  -3   0   11.97    1.68
  10  -3   0    8.12    1.44
  10  -3   0   10.42    1.46
 -10  -3   0   12.06    1.31
  10   3   0   10.50    1.55
 -10   3   0    9.98    1.16
 -10   3   0   10.29    1.25
  10   3   0    8.64    1.29
 -11  -3   0    4.90    1.63
  11  -3   0    3.54    1.52
  11  -3   0    3.15    1.29
 -11  -3   0    3.12    1.20
 -11   3   0    3.82    1.25
 -11   3   0    2.12    1.16
  11   3   0    2.51    1.54
  11   3   0    1.78    1.29
 -12  -3   0   13.77    2.22
  12  -3   0   11.66    1.66
 -12  -3   0   16.78    2.07
  12  -3   0   13.73    2.00
  12   3   0   14.91    2.37
 -12   3   0   13.53    2.05
 -12   3   0   19.92    2.44
 -12   3   0   14.36    1.59
  12   3   0   13.98    1.86
   0  -4   0   27.86    0.86
   0  -4   0   28.15    0.86
   0  -4   0   29.43    1.08
   0  -4   0   28.02    0.87
   0  -4   0   27.19    0.91
   0   4   0   28.86    0.94
   0   4   0   26.38    1.23
   0   4   0   28.52    0.88
   1  -4   0   19.23    0.67
  -1  -4   0   19.65    0.69
   1  -4   0   19.82    0.69
  -1  -4   0   20.84    1.01
   1  -4   0   20.46    0.62
  -1  -4   0   21.28    0.72
   1  -4   0   19.94    0.74
   1  -4   0   18.38    0.95
  -1  -4   0   18.39    1.27
  -1  -4   0   20.20    0.77
  -1  -4   0   20.10    0.78
   1   4   0   20.08    0.71
   1   4   0   16.90    0.98
  -1   4   0   18.68    0.75
   1   4   0   19.80    0.78
  -1   4   0   18.05    0.86
  -1   4   0   17.40    0.68
   2  -4   0  102.93    2.55
   2  -4   0  102.50    2.77
  -2  -4   0  100.56    2.70
  -2  -4   0  100.59    2.65
   2  -4   0  103.33    2.52
   2   4   0   97.50    2.67
  -2   4   0  105.08    2.69
   2   4   0   96.82    2.64
   2   4   0   89.15    2.99
   2   4   0   98.08    2.52
  -2   4   0  102.13    2.38
   2   4   0   97.66    2.61
  -2   4   0  104.17    2.52
  -2   4   0  101.97    2.56
  -2   4   0  101.38    2.48
   3  -4   0   83.63    2.49
   3  -4   0   83.34    2.40
  -3  -4   0   85.20    2.41
   3  -4   0   85.49    2.16
   3   4   0   88.35    2.40
  -3   4   0   84.77    2.15
   3   4   0   88.07    2.77
  -3   4   0   85.06    2.35
   3   4   0   88.27    2.43
  -3   4   0   81.93    2.24
  -3   4   0   87.84    2.33
  -3   4   0   84.76    2.21
   3   4   0   88.34    2.46
   3   4   0   88.29    2.31
  -4  -4   0   24.36    1.05
   4  -4   0   25.73    1.36
   4  -4   0   24.51    1.16
  -4  -4   0   25.36    1.14
  -4  -4   0   25.16    1.06
  -4  -4   0   23.76    1.25
   4   4   0   25.31    1.21
  -4   4   0   24.93    1.01
  -4   4   0   25.22    0.90
  -4   4   0   24.37    0.95
  -4   4   0   24.74    1.04
   4   4   0   23.92    1.04
   4   4   0   25.67    1.18
   4   4   0   23.20    1.21
  -4   4   0   25.78    1.06
   5  -4   0   87.84    2.62
  -5  -4   0   90.25    2.55
   5  -4   0   92.72    2.85
  -5  -4   0   89.57    2.47
  -5  -4   0   87.76    2.56
  -5   4   0   88.60    2.45
  -5   4   0   87.43    2.43
  -5   4   0   84.49    2.56
  -5   4   0   90.11    2.57
   5   4   0   86.31    2.47
  -5   4   0   88.81    2.40
   5   4   0   88.42    2.68
   5   4   0   90.45    2.71
   5   4   0   87.59    2.61
   6  -4   0    9.42    1.28
  -6  -4   0    8.55    0.99
   6  -4   0    8.77    1.08
  -6  -4   0    9.37    0.92
   6  -4   0   10.07    1.09
   6   4   0   10.20    1.20
  -6   4   0   10.61    0.88
  -6   4   0    9.64    0.93
   6   4   0    9.41    1.29
  -7  -4   0    9.56    0.96
   7  -4   0    9.16    1.18
   7  -4   0    9.44    1.34
   7  -4   0    9.31    1.13
  -7  -4   0    8.47    1.00
   7   4   0   12.65    1.52
   7   4   0   10.33    1.07
  -7   4   0    9.93    1.07
  -7   4   0    9.48    1.05
  -8  -4   0    8.88    1.29
   8  -4   0    9.53    1.15
   8  -4   0   11.31    1.35
  -8  -4   0    9.62    1.12
  -8  -4   0    9.46    1.11
   8  -4   0    8.43    1.22
  -8   4   0    9.50    1.26
   8   4   0   11.60    1.57
  -8   4   0   10.27    1.26
   8   4   0   12.61    1.80
   9  -4   0    6.06    1.29
   9  -4   0    4.71    1.09
  -9  -4   0    6.75    1.42
  -9  -4   0    6.51    1.02
  -9  -4   0    7.35    1.16
  -9  -4   0    8.88    1.28
   9  -4   0    7.78    1.16
  -9   4   0    4.69    0.95
  -9   4   0    7.04    1.08
   9   4   0    5.84    1.31
 -10  -4   0    2.48    1.44
  10  -4   0    3.17    1.22
 -10  -4   0    3.91    1.07
  10  -4   0    1.96    1.12
  10  -4   0    1.14    1.34
 -10   4   0    1.46    1.96
 -10   4   0    0.52    1.02
  10   4   0    2.16    1.48
  10   4   0    2.22    1.19
 -11  -4   0   22.54    2.09
  11  -4   0   21.53    2.88
  11  -4   0   22.81    2.41
 -11  -4   0   20.41    2.72
 -11   4   0   22.62    2.12
 -11   4   0   21.87    2.24
  11   4   0   22.67    2.57
  11   4   0   24.02    3.14
  12  -4   0    3.62    1.85
  12   4   0    7.77    1.95
  12   4   0    6.26    1.55
 -12   4   0    7.86    1.65
   0  -5   0   -0.17    0.26
   0  -5   0   -0.04    0.24
   0  -5   0    0.83    0.34
   0  -5   0   -0.31    0.47
   0   5   0    0.03    0.31
   0   5   0   -0.23    0.28
   0   5   0   -0.13    0.47
  -1  -5   0   39.07    1.45
  -1  -5   0   38.91    1.23
   1  -5   0   36.90    1.12
   1  -5   0   36.59    1.45
  -1  -5   0   39.42    1.22
   1  -5   0   39.37    1.02
   1  -5   0   38.15    1.20
   1   5   0   39.79    1.18
  -1   5   0   37.60    1.16
   1   5   0   38.24    1.24
  -1   5   0   37.47    1.22
  -1   5   0   37.47    1.41
   1   5   0   38.10    1.38
  -2  -5   0   57.40    1.87
  -2  -5   0   58.27    1.76
   2  -5   0   59.06    1.58
   2  -5   0   57.65    1.93
  -2   5   0   56.91    1.83
   2   5   0   57.64    1.73
   2   5   0   56.96    1.82
  -2   5   0   59.15    1.62
  -2   5   0   57.70    1.67
  -2   5   0   55.99    1.56
  -3  -5   0  129.21    3.57
   3  -5   0  126.85    3.54
  -3  -5   0  130.29    3.48
  -3  -5   0  131.61    3.54
   3  -5   0  130.84    3.65
  -3  -5   0  131.40    3.37
  -3   5   0  126.67    3.23
  -3   5   0  127.76    3.33
   3   5   0  130.92    3.43
  -3   5   0  129.28    3.30
   3   5   0  133.18    3.48
  -3   5   0  128.90    3.44
   3   5   0  130.57    3.33
   3   5   0  132.82    3.54
   3   5   0  128.40    3.48
  -4  -5   0   82.50    2.35
   4  -5   0   79.22    2.64
   4  -5   0   77.31    2.49
  -4  -5   0   80.15    2.55
  -4  -5   0   81.77    2.40
  -4  -5   0   83.28    2.51
   4   5   0   83.52    2.35
   4   5   0   82.58    2.55
  -4   5   0   77.90    2.23
   4   5   0   81.57    2.30
   4   5   0   83.03    2.47
  -4   5   0   73.20    2.60
  -4   5   0   78.94    2.02
  -4   5   0   79.66    2.35
  -4   5   0   77.81    2.14
   4   5   0   83.22    2.49
  -5  -5   0   32.63    1.41
  -5  -5   0   32.52    1.68
   5  -5   0   35.74    1.83
  -5  -5   0   33.96    1.40
   5  -5   0   37.77    1.61
  -5  -5   0   33.98    1.54
   5   5   0   33.08    1.40
   5   5   0   33.72    1.67
  -5   5   0   36.40    1.53
   5   5   0   33.98    1.65
   5   5   0   35.51    1.71
  -5   5   0   34.53    1.29
  -5   5   0   36.24    1.35
  -5   5   0   37.33    1.46
   5   5   0   33.85    1.44
   6  -5   0   81.78    2.61
  -6  -5   0   81.31    2.39
  -6  -5   0   77.32    2.83
  -6  -5   0   80.65    2.51
   6  -5   0   78.59    2.88
  -6  -5   0   78.02    2.51
  -6   5   0   81.19    2.40
   6   5   0   75.91    2.77
  -6   5   0   78.77    2.39
   6   5   0   80.80    2.65
  -6   5   0   78.05    2.58
  -6   5   0   79.19    2.32
   6   5   0   79.79    2.70
   7  -5   0   11.94    1.43
  -7  -5   0   11.19    1.18
  -7  -5   0   12.47    1.66
  -7  -5   0   12.62    1.07
  -7  -5   0   12.09    1.11
   7  -5   0    8.68    1.07
   7  -5   0   13.24    1.39
  -7   5   0   12.98    1.22
  -7   5   0   11.94    1.24
  -7   5   0   10.03    1.17
   7   5   0   13.64    1.58
   7   5   0   11.71    1.67
   8  -5   0   38.15    3.24
  -8  -5   0   43.96    2.50
  -8  -5   0   44.29    1.71
   8  -5   0   44.11    2.09
  -8  -5   0   42.36    1.88
   8  -5   0   43.63    2.93
  -8   5   0   43.50    1.94
  -8   5   0   41.64    2.28
   8   5   0   45.71    2.31
   8   5   0   45.06    2.50
  -8   5   0   43.76    1.92
  -9  -5   0    8.82    1.62
   9  -5   0    8.07    1.49
   9  -5   0    6.73    1.31
   9  -5   0    7.47    1.29
  -9  -5   0    6.83    1.11
  -9   5   0    6.93    1.11
  -9   5   0    7.51    1.47
   9   5   0    8.36    1.38
   9   5   0    8.54    1.56
  -9   5   0    9.31    1.23
  10  -5   0   -1.16    1.44
  10  -5   0    0.86    1.22
 -10  -5   0    0.34    1.13
  10  -5   0   -0.55    1.26
 -10  -5   0    4.20    1.59
  10   5   0   -0.25    1.40
 -10   5   0    1.76    1.54
 -10   5   0    0.22    1.30
  10   5   0    0.86    1.79
 -10   5   0    1.30    1.12
  11  -5   0    3.00    1.77
 -11  -5   0    3.64    1.39
 -11  -5   0    4.95    1.87
  11  -5   0    2.24    1.51
  11   5   0    1.84    1.67
 -11   5   0    2.89    1.30
 -11   5   0    4.43    1.88
  11   5   0    1.94    1.84
 -12   5   0    2.86    1.78
   0  -6   0   43.40    1.25
   0  -6   0   44.40    1.74
   0   6   0   43.86    1.40
   0   6   0   42.47    1.59
   0   6   0   43.17    1.41
  -1  -6   0   27.28    1.00
  -1  -6   0   28.32    1.39
   1  -6   0   24.45    1.38
  -1   6   0   24.70    1.02
   1   6   0   27.19    1.09
   1   6   0   26.03    1.06
  -1   6   0   25.77    1.34
   1   6   0   26.93    1.35
  -1   6   0   27.23    1.07
  -2  -6   0   48.95    1.57
  -2  -6   0   48.42    1.81
   2  -6   0   47.17    1.88
  -2   6   0   47.50    1.54
   2   6   0   49.63    1.75
  -2   6   0   47.66    1.81
  -2   6   0   51.07    1.57
   2   6   0   48.42    1.81
   2   6   0   50.83    1.58
  -3  -6   0   82.60    2.40
  -3  -6   0   83.43    2.55
  -3  -6   0   82.76    2.58
   3  -6   0   84.23    2.69
   3  -6   0   83.83    2.79
  -3  -6   0   81.28    2.69
   3   6   0   85.14    2.34
  -3   6   0   76.92    2.40
  -3   6   0   83.06    2.51
  -3   6   0   81.11    2.16
   3   6   0   79.00    2.57
   3   6   0   82.27    2.50
  -3   6   0   82.25    2.29
  -4  -6   0   49.96    2.00
  -4  -6   0   52.84    2.10
   4  -6   0   52.56    2.25
  -4  -6   0   52.96    1.94
  -4  -6   0   52.25    1.79
   4  -6   0   52.26    2.06
  -4   6   0   49.38    1.84
  -4   6   0   55.21    1.92
   4   6   0   50.71    2.02
  -4   6   0   51.33    1.70
   4   6   0   50.47    1.98
   4   6   0   49.19    1.89
  -4   6   0   50.97    1.79
   4   6   0   52.61    2.09
   4   6   0   51.74    1.77
  -5  -6   0    9.38    1.11
  -5  -6   0    9.69    1.23
   5  -6   0   12.16    1.61
  -5  -6   0   10.62    1.33
   5  -6   0   11.84    1.39
  -5  -6   0   10.38    1.05
  -5   6   0    9.70    1.07
  -5   6   0    9.36    0.94
   5   6   0   12.49    1.59
   5   6   0   11.65    1.16
   5   6   0   10.70    1.43
  -5   6   0   10.22    1.25
   5   6   0   13.75    1.94
   5   6   0    9.98    1.44
  -5   6   0   10.05    1.19
  -6  -6   0   35.97    2.01
  -6  -6   0   34.01    1.77
   6  -6   0   36.13    2.13
   6  -6   0   38.00    1.96
  -6  -6   0   37.25    1.62
  -6  -6   0   35.73    1.63
   6   6   0   35.64    2.00
  -6   6   0   34.23    1.87
  -6   6   0   34.02    1.62
   6   6   0   36.59    1.70
  -6   6   0   34.06    1.51
   6   6   0   35.56    2.07
  -7  -6   0    1.08    0.80
  -7  -6   0    0.04    0.86
   7  -6   0    1.22    1.08
  -7  -6   0    0.41    0.76
   7  -6   0    0.88    1.04
  -7  -6   0   -0.56    1.01
   7  -6   0    0.00    0.97
  -7   6   0    0.38    1.11
  -7   6   0    0.77    0.86
   7   6   0    0.80    1.13
   7   6   0    0.30    0.99
  -7   6   0    0.77    0.84
  -8  -6   0   93.86    2.88
  -8  -6   0   89.25    3.03
   8  -6   0   91.03    3.30
   8  -6   0   90.93    3.57
   8  -6   0   97.81    3.38
  -8  -6   0   93.30    3.07
  -8  -6   0   89.68    3.54
   8   6   0   97.36    3.58
  -8   6   0   98.39    3.13
  -8   6   0   90.58    3.39
   9  -6   0    9.32    1.54
   9  -6   0    9.17    1.51
  -9  -6   0   10.51    1.34
  -9  -6   0    9.81    1.77
   9  -6   0    7.44    1.55
  -9   6   0    7.57    1.28
  -9   6   0    8.67    1.79
   9   6   0   11.76    1.75
   9   6   0    9.06    1.63
 -10  -6   0    9.90    1.51
  10  -6   0    9.32    1.65
 -10  -6   0    8.67    1.97
  10  -6   0    7.61    1.63
  10  -6   0    7.47    1.89
  10   6   0    9.65    1.86
 -10   6   0    9.52    1.57
  10   6   0    8.84    1.77
 -11   6   0    9.71    1.64
  11   6   0   10.95    2.06
   0  -7   0    0.01    0.78
   0   7   0   -0.91    0.68
   0   7   0   -0.93    0.56
   0   7   0   -0.98    0.73
  -1  -7   0   60.18    1.76
  -1  -7   0   65.49    2.32
   1  -7   0   62.13    2.36
  -1   7   0   60.33    1.87
   1   7   0   59.43    2.23
  -1   7   0   61.22    1.91
   1   7   0   59.88    2.00
  -1   7   0   60.32    2.21
   1   7   0   62.08    1.91
   2  -7   0   12.33    1.55
  -2  -7   0   13.66    1.32
   2  -7   0   13.79    1.43
  -2   7   0   13.11    1.07
   2   7   0   16.42    1.41
   2   7   0   14.51    1.22
   2   7   0   14.73    1.11
  -2   7   0   15.19    1.37
  -3  -7   0   20.61    1.47
   3  -7   0   22.71    1.80
  -3  -7   0   21.28    1.20
   3  -7   0   21.96    1.59
  -3  -7   0   21.07    1.68
  -3  -7   0   22.92    1.37
   3   7   0   20.46    1.48
  -3   7   0   19.24    1.26
  -3   7   0   20.58    1.24
   3   7   0   21.66    1.24
   3   7   0   20.62    1.57
  -3   7   0   20.42    1.44
   4  -7   0   13.74    1.71
  -4  -7   0   12.12    1.29
  -4  -7   0   13.44    1.16
  -4  -7   0   11.86    1.32
  -4  -7   0   12.37    1.40
   4  -7   0   11.77    1.54
  -4   7   0   11.70    1.17
   4   7   0   11.44    1.46
  -4   7   0   12.06    1.21
   4   7   0   11.73    1.20
  -4   7   0    9.84    1.06
   4   7   0   12.99    1.49
  -5  -7   0    6.34    0.90
   5  -7   0    6.09    1.41
  -5  -7   0    3.88    1.03
  -5  -7   0    4.99    1.11
  -5  -7   0    6.53    0.95
   5  -7   0    5.27    1.22
  -5   7   0    5.95    0.99
   5   7   0    5.34    1.16
  -5   7   0    5.18    0.99
   5   7   0    5.68    0.93
   5   7   0    5.91    1.10
   5   7   0    4.98    1.03
  -5   7   0    6.22    0.90
   6  -7   0   23.12    2.23
  -6  -7   0   29.31    1.89
   6  -7   0   27.94    1.97
  -6  -7   0   25.86    2.07
  -6  -7   0   27.23    2.39
  -6  -7   0   26.03    1.59
   6   7   0   27.44    2.26
   6   7   0   30.49    2.16
  -6   7   0   26.48    1.65
   6   7   0   27.68    1.72
   7  -7   0   28.55    2.18
  -7  -7   0   28.40    1.97
  -7  -7   0   26.99    1.73
  -7  -7   0   29.39    1.70
   7  -7   0   31.40    2.36
  -7  -7   0   27.48    2.27
   7  -7   0   25.71    2.17
   7   7   0   28.41    2.32
  -7   7   0   26.66    1.82
   8  -7   0    2.18    1.53
   8  -7   0    2.99    1.32
  -8  -7   0    2.97    1.58
  -8  -7   0    2.36    1.05
   8  -7   0    4.02    1.72
   8   7   0    2.67    1.62
   8   7   0    3.32    1.45
  -8   7   0    2.06    1.19
   9  -7   0    1.42    1.55
   9  -7   0   -0.61    1.67
   9  -7   0    0.51    1.35
  -9  -7   0    2.50    1.25
  -9  -7   0    2.16    1.77
  -9   7   0    1.47    1.33
   9   7   0    0.65    1.84
   9   7   0    2.14    1.64
 -10  -7   0    3.24    2.02
  10  -7   0   -2.69    1.97
  10   7   0   -0.41    1.62
  10   7   0   -0.72    1.82
   0   8   0   15.38    1.28
   1  -8   0    0.95    1.55
  -1  -8   0    2.63    1.21
  -1   8   0    1.37    1.28
   1   8   0    2.49    0.79
  -1   8   0    2.15    0.77
  -2  -8   0   11.16    1.11
  -2  -8   0   14.20    2.14
   2  -8   0   13.65    1.71
  -2  -8   0    8.54    1.36
   2  -8   0   10.39    1.29
  -2   8   0   12.10    1.25
   2   8   0   11.95    1.31
  -2   8   0   12.67    1.32
   3  -8   0    9.24    1.36
  -3  -8   0   12.86    1.22
   3  -8   0   11.10    1.64
   3   8   0    7.71    1.39
  -3   8   0    9.66    1.02
  -3   8   0    8.17    1.14
   3   8   0   11.30    1.04
   4  -8   0    1.43    1.18
  -4  -8   0    1.35    0.81
  -4  -8   0   -0.05    1.46
   4  -8   0    2.15    1.11
  -4  -8   0    2.24    1.09
  -4  -8   0    1.48    1.38
   4   8   0    1.48    0.90
   4   8   0    0.93    1.87
   4   8   0    0.35    1.07
  -4   8   0    1.09    1.03
  -4   8   0    1.32    0.85
  -5  -8   0   30.02    1.95
  -5  -8   0   33.39    2.02
  -5  -8   0   30.18    2.10
  -5  -8   0   29.39    1.71
   5  -8   0   29.05    2.42
   5  -8   0   33.54    2.24
   5   8   0   32.69    1.88
  -5   8   0   25.51    1.72
  -6  -8   0    2.68    1.04
  -6  -8   0    2.49    1.22
   6  -8   0    2.14    1.43
   6  -8   0    3.05    1.34
  -6  -8   0    2.34    0.93
  -6  -8   0    1.30    1.54
  -7  -8   0    4.65    1.60
   7  -8   0    6.11    1.60
  -7  -8   0    4.72    1.14
  -7  -8   0    5.50    1.08
  -7  -8   0    5.60    1.36
   7  -8   0    3.24    1.45
   7  -8   0    4.20    1.48
   7   8   0    3.76    1.62
   8  -8   0    1.13    1.64
   8  -8   0    3.88    1.50
   8  -8   0    3.93    1.59
  -8  -8   0    4.91    1.19
  -8  -8   0    7.31    1.73
   8   8   0    0.94    1.70
  -9  -8   0    2.46    1.61
   9  -8   0   -0.09    1.78
   9   8   0    0.53    1.56
   0  -9   0    0.08    1.16
   0   9   0   -1.12    1.08
  -1  -9   0    2.08    1.28
   1  -9   0    3.11    1.28
   1  -9   0    5.57    1.37
  -1   9   0    2.72    1.22
   1   9   0    3.67    1.29
  -2  -9   0    4.03    1.50
  -2  -9   0    5.08    1.30
   2  -9   0    2.64    1.60
   2  -9   0    5.45    1.35
  -2   9   0    2.36    1.23
   2   9   0    2.26    1.24
  -3  -9   0    1.75    1.20
   3  -9   0    1.74    1.36
   3  -9   0    1.40    1.31
  -3  -9   0    0.75    1.39
  -3   9   0    0.43    1.22
   3   9   0    1.80    1.39
   4  -9   0    4.47    1.49
  -4  -9   0    4.73    1.30
   4  -9   0    0.76    1.41
  -4  -9   0    5.72    1.53
   5  -9   0    0.11    1.45
   5  -9   0   -3.26    1.51
  -5  -9   0    2.67    1.23
  -5  -9   0    2.37    1.57
   6  -9   0   23.42    2.69
  -6  -9   0   21.72    2.34
   6  -9   0   19.47    2.13
  -6  -9   0   27.12    2.00
   7  -9   0    6.17    1.79
   7  -9   0    3.28    1.51
   0 -10   0   15.06    2.18
   1 -10   0   10.22    1.57
  -1 -10   0    9.69    2.10
  -1 -10   0   15.84    2.22
  -2 -10   0    3.93    1.85
   2 -10   0    5.70    1.68
  -2 -10   0    6.94    1.56
  -3 -10   0   19.49    2.33
   3 -10   0   16.84    2.18
  -3 -10   0   14.52    2.18
  -4 -10   0   11.21    1.85
  -4 -10   0    9.54    1.49
  -5 -10   0    5.20    1.99
  -5 -10   0    4.68    1.28
 -13   0   1    5.06    1.44
 -13   0   1    2.95    1.93
  13   0  -1   -0.66    2.26
  12   0  -1    3.40    1.45
  12   0  -1   -1.58    1.78
 -12   0   1    1.48    1.27
 -12   0   1    0.38    1.64
  11   0  -1    2.69    1.24
  11   0  -1    2.08    1.40
 -11   0   1    3.05    1.10
 -11   0   1    1.35    1.43
  10   0  -1   23.98    2.81
 -10   0   1   25.86    2.21
  -9   0   1   23.89    1.47
   9   0  -1   25.53    1.26
   9   0  -1   25.21    1.75
  -9   0   1   25.73    0.97
   9   0  -1   27.06    1.79
   8   0  -1   12.26    1.49
   8   0  -1   12.46    1.35
   8   0  -1   12.47    0.94
  -8   0   1   14.00    0.69
  -8   0   1   12.51    1.01
  -7   0   1  166.43    3.99
   7   0  -1  162.01    4.45
   7   0  -1  160.93    4.09
   7   0  -1  158.83    4.32
   7   0  -1  164.57    4.00
  -7   0   1  159.21    4.20
  -6   0   1   25.74    0.86
   6   0  -1   24.91    1.23
   6   0  -1   27.49    1.34
   6   0  -1   25.90    0.95
  -6   0   1   25.69    1.06
   6   0  -1   26.14    0.92
   5   0  -1    0.01    0.26
   5   0  -1   -0.09    0.48
   5   0  -1   -0.02    0.27
   5   0  -1   -0.44    0.51
  -5   0   1    0.10    0.26
  -5   0   1   -0.27    0.20
   4   0  -1    1.20    0.14
   4   0  -1    0.94    0.38
  -4   0   1    0.97    0.32
  -4   0   1    1.28    0.22
   4   0  -1    1.45    0.25
   4   0  -1    1.07    0.39
   4   0  -1    1.14    0.36
  -4   0   1    1.45    0.31
   4   0  -1    1.05    0.29
  -3   0   1   22.32    0.73
   3   0  -1   20.21    0.84
  -3   0   1   19.96    0.80
  -3   0   1   20.76    0.75
  -3   0   1   20.75    0.60
   3   0  -1   21.12    0.55
   3   0  -1   20.99    0.72
   3   0  -1   20.70    0.75
   3   0  -1   21.13    0.62
   3   0  -1   19.91    0.76
  -3   0   1   20.25    0.75
  -1   0   1  111.70    2.60
   1   0  -1  109.36    2.60
   1   0  -1  107.03    2.59
   1   0  -1  108.38    2.55
   1   0  -1  110.65    2.57
   1   0  -1  113.45    2.62
  -1   0   1  107.38    2.57
  -1   0   1  108.82    2.61
  -1   0   1  109.87    2.55
  -1   0   1  110.41    2.58
  -1   0   1  109.43    2.59
   1   0  -1  105.43    2.58
   0   0   1  107.16    2.42
   0   0  -1  102.34    2.44
   0   0   1  106.11    2.42
   0   0  -1  103.23    2.42
   0   0  -1  103.49    2.42
   0   0  -1   99.98    2.39
   0   0  -1  101.55    2.40
   0   0   1  103.78    2.41
  -1   0  -1   11.48    0.43
   1   0   1   11.60    0.38
  -1   0  -1   12.59    0.36
   1   0   1   11.85    0.46
  -1   0  -1   11.17    0.47
   1   0   1   11.74    0.46
   1   0   1   11.93    0.45
   1   0   1   12.14    0.36
  -1   0  -1   12.13    0.38
   1   0   1   11.06    0.50
  -3   0  -1   37.53    1.11
   3   0   1   38.18    0.98
  -3   0  -1   38.07    0.91
   3   0   1   39.03    1.13
   3   0   1   37.40    1.22
  -3   0  -1   38.01    1.18
  -3   0  -1   38.33    1.07
  -3   0  -1   37.79    0.97
  -3   0  -1   38.08    1.18
   3   0   1   39.32    1.18
  -3   0  -1   35.12    1.19
   3   0   1   37.20    1.20
  -3   0  -1   37.66    1.11
   3   0   1   39.82    1.10
   4   0   1  126.02    3.08
   4   0   1  136.02    3.14
  -4   0  -1  120.36    2.92
   4   0   1  123.64    2.94
   4   0   1  115.47    3.12
   4   0   1  118.31    3.17
  -4   0  -1  120.36    3.06
  -4   0  -1  120.52    3.06
   5   0   1   29.34    1.26
   5   0   1   30.54    1.08
  -5   0  -1   31.12    0.88
   5   0   1   30.22    0.89
  -5   0  -1   30.32    1.04
   5   0   1   29.41    1.21
   6   0   1   27.03    1.29
  -6   0  -1   26.51    1.02
   6   0   1   29.00    0.89
  -6   0  -1   27.67    1.11
  -6   0  -1   27.90    0.86
   6   0   1   28.57    1.42
  -7   0  -1  102.00    3.51
   7   0   1  112.55    3.21
   7   0   1  112.88    2.78
  -7   0  -1  108.67    3.04
  -7   0  -1  113.89    2.77
   7   0   1  112.35    3.33
  -8   0  -1  130.25    3.48
   8   0   1  130.83    3.26
   8   0   1  135.25    3.98
   8   0   1  128.11    3.76
  -8   0  -1  129.37    3.59
   9   0   1   27.42    1.96
   9   0   1   28.39    1.78
  -9   0  -1   25.90    1.33
  -9   0  -1   28.20    1.55
 -10   0  -1   32.64    1.64
 -10   0  -1   30.39    2.54
  10   0   1   35.59    2.17
  10   0   1   32.79    2.59
  11   0   1    4.55    1.28
 -11   0  -1    5.52    1.28
  11   0   1    2.74    1.50
  12   0   1   -0.65    1.74
  12   0   1    0.39    1.37
 -12   0  -1    0.68    1.29
 -13   0  -1    1.13    1.44
 -13  -1   1    1.46    1.85
 -13   1   1    3.64    2.02
 -13   1   1    4.53    1.42
  12  -1  -1    1.45    1.43
 -12  -1   1    1.61    1.82
 -12  -1   1    2.07    1.27
  12  -1  -1    1.47    1.64
 -12   1   1    2.40    1.71
 -12   1   1    1.63    1.39
  12   1  -1    1.78    1.44
  12   1  -1    1.07    1.82
 -11  -1   1   30.07    2.50
 -11  -1   1   30.97    1.86
  11  -1  -1   33.38    2.41
  11  -1  -1   31.51    2.38
 -11   1   1   36.76    2.08
  11   1  -1   34.03    2.73
  11   1  -1   31.01    2.37
 -10  -1   1    8.98    1.32
  10  -1  -1    8.38    0.94
  10  -1  -1    8.63    1.48
  10  -1  -1    8.46    1.39
  10   1  -1    8.05    2.46
 -10   1   1    8.30    1.10
  10   1  -1    7.99    1.42
   9  -1  -1  149.32    4.06
   9  -1  -1  158.67    4.47
  -9  -1   1  155.33    4.29
  -9  -1   1  157.67    3.85
   9  -1  -1  152.58    4.55
   9   1  -1  164.52    4.80
   9   1  -1  161.38    4.56
  -9   1   1  152.88    4.31
   8  -1  -1   66.33    2.35
   8  -1  -1   64.90    2.02
  -8  -1   1   66.43    2.21
  -8  -1   1   65.48    1.80
   8  -1  -1   64.47    2.45
  -8   1   1   64.27    1.84
   8   1  -1   61.82    2.23
  -8   1   1   63.78    2.12
   8   1  -1   61.85    2.41
   7  -1  -1   39.79    1.35
   7  -1  -1   33.67    1.60
   7  -1  -1   35.61    1.32
  -7  -1   1   33.78    1.08
  -7  -1   1   30.99    1.35
   7  -1  -1   34.37    1.59
  -7   1   1   36.76    1.19
   7   1  -1   34.87    1.66
   7   1  -1   34.01    1.51
  -7   1   1   35.39    1.41
   7   1  -1   36.78    1.21
   6  -1  -1   67.00    1.88
   6  -1  -1   67.19    2.17
   6  -1  -1   68.17    1.57
   6  -1  -1   66.07    2.06
  -6  -1   1   68.73    1.75
   6  -1  -1   64.16    1.62
  -6  -1   1   61.84    1.96
   6  -1  -1   68.85    1.86
   6   1  -1   73.32    1.86
  -6   1   1   69.19    1.89
   6   1  -1   68.28    2.16
   6   1  -1   69.36    2.28
  -6   1   1   67.97    2.03
  -5  -1   1   42.26    1.17
   5  -1  -1   42.88    1.07
   5  -1  -1   43.17    1.47
   5  -1  -1   42.25    1.59
  -5  -1   1   43.50    1.26
   5  -1  -1   43.24    1.31
   5  -1  -1   42.06    1.27
  -5  -1   1   42.00    1.39
   5   1  -1   41.32    1.06
   5   1  -1   42.29    1.29
   5   1  -1   42.36    1.49
  -5   1   1   43.60    1.27
   5   1  -1   43.21    1.59
   5   1  -1   45.04    1.22
  -5   1   1   49.10    1.51
   4  -1  -1   86.72    2.30
  -4  -1   1   82.40    2.03
   4  -1  -1   88.28    2.06
  -4  -1   1   87.37    2.18
   4  -1  -1   85.99    2.22
   4  -1  -1   85.03    2.35
   4  -1  -1   90.36    2.18
  -4  -1   1   81.99    2.10
  -4  -1   1   79.95    2.22
   4  -1  -1   85.92    2.24
   4   1  -1   78.47    2.22
  -4   1   1   86.67    2.12
   4   1  -1   82.01    2.13
   4   1  -1   85.39    2.05
  -4   1   1   83.84    2.17
   4   1  -1   79.38    2.29
   4   1  -1   79.38    1.97
  -4   1   1   88.21    2.15
  -3  -1   1    6.85    0.41
  -3  -1   1    6.29    0.29
   3  -1  -1    7.30    0.45
  -3  -1   1    6.55    0.43
   3  -1  -1    6.28    0.55
   3  -1  -1    7.01    0.46
   3  -1  -1    6.52    0.35
  -3  -1   1    5.83    0.49
  -3  -1   1    6.41    0.34
   3  -1  -1    6.61    0.52
  -3  -1   1    6.37    0.49
  -3  -1   1    5.93    0.53
  -3  -1   1    5.76    0.58
   3  -1  -1    6.69    0.58
   3   1  -1    6.16    0.32
  -3   1   1    6.93    0.43
   3   1  -1    6.64    0.54
  -3   1   1    6.49    0.48
  -3   1   1    6.70    0.46
  -3   1   1    6.07    0.55
   3   1  -1    6.56    0.58
   3   1  -1    6.45    0.46
  -2  -1   1   77.23    1.98
  -2  -1   1   79.33    1.98
   2  -1  -1   76.11    2.04
   2  -1  -1   80.13    2.02
   2  -1  -1   81.34    1.99
   2  -1  -1   79.63    1.98
  -2  -1   1   81.51    2.03
  -2  -1   1   80.23    1.92
  -2  -1   1   82.07    1.95
  -2  -1   1   79.18    1.92
  -2  -1   1   82.01    2.02
   2  -1  -1   78.87    1.94
   2  -1  -1   78.30    2.01
  -2  -1   1   84.14    2.08
  -2   1   1   80.97    2.05
  -2   1   1   84.78    2.10
   2   1  -1   83.12    2.09
   2   1  -1   82.60    2.13
  -2   1   1   80.12    2.03
   2   1  -1   84.66    2.03
  -2   1   1   80.52    2.02
   2   1  -1   78.66    1.97
   0  -1   1  520.17   12.00
   0   1   1  513.80   11.83
  -1  -1  -1  408.02    9.14
   1  -1   1  392.14    9.14
  -1  -1  -1  382.71    9.08
  -1  -1  -1  402.98    9.09
  -1  -1  -1  385.22    9.13
   1  -1   1  389.14    9.08
  -1   1  -1  383.27    9.13
  -1   1  -1  395.89    9.12
  -1   1  -1  387.68    9.08
   1   1   1  401.64    9.13
   1   1   1  397.45    9.14
   2  -1   1   36.74    1.18
  -2  -1  -1   40.13    1.09
   2  -1   1   40.17    1.01
   2  -1   1   37.39    1.04
  -2  -1  -1   39.33    1.12
   2  -1   1   37.02    1.15
  -2  -1  -1   38.86    0.99
  -2  -1  -1   39.14    1.07
   2  -1   1   39.85    1.02
  -2  -1  -1   40.06    1.15
   2  -1   1   40.10    1.15
  -2  -1  -1   38.70    1.10
   2   1   1   38.44    1.12
   2   1   1   40.69    1.12
   2   1   1   38.94    1.19
  -2   1  -1   37.37    1.14
  -2   1  -1   39.76    1.09
  -2   1  -1   39.28    1.15
   2   1   1   39.28    1.09
  -2   1  -1   39.27    1.04
  -2   1  -1   38.88    1.20
   2   1   1   39.65    1.10
  -2   1  -1   37.94    1.01
  -2   1  -1   38.56    1.02
  -3  -1  -1  312.10    7.41
  -3  -1  -1  314.41    7.55
  -3  -1  -1  336.13    7.60
  -3  -1  -1  316.43    7.42
  -3  -1  -1  334.12    7.63
   3  -1   1  312.67    7.48
   3  -1   1  312.70    7.42
  -3  -1  -1  319.17    7.56
   3  -1   1  320.39    7.65
   3  -1   1  330.21    7.50
  -3  -1  -1  311.97    7.51
   3  -1   1  331.43    7.58
  -3  -1  -1  320.16    7.55
  -3   1  -1  317.90    7.36
   3   1   1  306.95    7.44
   3   1   1  315.57    7.48
  -3   1  -1  310.25    7.45
   3   1   1  333.16    7.44
  -3   1  -1  306.13    7.31
  -3   1  -1  323.03    7.46
   3   1   1  307.88    7.41
  -3   1  -1  320.37    7.52
   3   1   1  322.46    7.53
  -3   1  -1  302.76    7.38
  -3   1  -1  323.55    7.50
   4  -1   1   48.90    1.35
   4  -1   1   49.06    1.20
  -4  -1  -1   44.12    1.37
   4  -1   1   47.47    1.30
   4  -1   1   45.74    1.55
   4  -1   1   49.83    1.44
  -4  -1  -1   48.60    1.23
   4  -1   1   49.85    1.51
  -4  -1  -1   46.62    1.16
  -4  -1  -1   46.64    1.41
   4   1   1   46.52    1.50
   4   1   1   47.68    1.45
  -4   1  -1   47.76    1.46
  -4   1  -1   48.39    1.19
  -4   1  -1   45.96    1.34
   4   1   1   45.66    1.50
  -4   1  -1   47.88    1.41
   4   1   1   50.90    1.41
  -4   1  -1   48.50    1.28
  -4   1  -1   47.88    1.50
  -5  -1  -1   15.43    0.55
   5  -1   1   15.58    1.04
  -5  -1  -1   14.08    0.37
  -5  -1  -1   13.36    0.68
   5  -1   1   14.95    0.64
   5  -1   1   15.29    0.45
   5  -1   1   16.22    0.95
  -5  -1  -1   14.32    0.82
  -5   1  -1   15.25    0.44
  -5   1  -1   14.58    0.59
   5   1   1   14.65    1.10
  -5   1  -1   15.22    0.75
  -5   1  -1   15.44    0.74
   5   1   1   13.42    0.90
   5   1   1   14.82    0.77
   6  -1   1  115.31    2.94
  -6  -1  -1  115.57    3.14
  -6  -1  -1  116.68    3.04
   6  -1   1  120.36    3.38
  -6  -1  -1  118.56    2.87
   6  -1   1  118.41    3.25
   6   1   1  114.57    3.29
  -6   1  -1  117.42    2.92
   6   1   1  117.22    3.21
  -6   1  -1  119.57    3.08
  -6   1  -1  116.38    3.08
   7  -1   1   45.11    1.37
   7  -1   1   45.72    1.81
   7  -1   1   45.28    1.92
  -7  -1  -1   44.99    1.62
  -7  -1  -1   46.99    1.29
  -7  -1  -1   46.71    1.69
  -7   1  -1   46.50    1.63
   7   1   1   47.64    1.97
  -7   1  -1   45.79    1.60
   7   1   1   45.17    1.81
  -8  -1  -1   45.93    1.62
   8  -1   1   45.47    2.08
  -8  -1  -1   47.13    1.85
   8  -1   1   48.60    1.46
   8  -1   1   47.08    1.99
  -8   1  -1   50.36    1.83
   8   1   1   46.06    2.18
   8   1   1   49.40    2.06
  -8   1  -1   50.21    1.76
   9  -1   1   14.01    1.62
  -9  -1  -1   14.47    1.12
   9  -1   1   14.94    1.81
  -9  -1  -1   14.71    1.32
   9  -1   1   14.41    0.97
   9   1   1   13.18    1.42
  -9   1  -1   14.67    1.32
  -9   1  -1   13.19    1.22
   9   1   1   14.50    1.58
 -10  -1  -1   16.89    1.70
  10  -1   1   18.10    1.69
 -10  -1  -1   16.50    1.24
  10  -1   1   16.15    2.14
  10   1   1   19.15    2.22
 -10   1  -1   16.13    1.61
 -10   1  -1   17.21    1.43
  10   1   1   12.51    2.11
 -11  -1  -1    1.22    1.13
  11  -1   1    0.83    1.20
  11  -1   1    1.63    1.47
 -11   1  -1    1.52    1.10
  11   1   1    0.47    1.18
  11   1   1   -0.23    1.46
  12  -1   1    2.70    1.45
 -12  -1  -1    2.04    1.28
  12  -1   1    2.44    1.74
  12   1   1    3.64    1.78
 -12   1  -1    4.54    1.39
  12   1   1    3.29    1.47
 -13   1  -1   28.33    2.30
 -13   2   1    5.32    1.33
 -13   2   1    4.49    2.08
 -12  -2   1    1.45    1.34
 -12  -2   1    1.56    1.83
  12  -2  -1    1.53    1.49
  12  -2  -1    2.00    1.73
  12   2  -1    5.30    1.52
 -12   2   1    1.87    1.22
 -12   2   1    1.78    1.88
 -12   2   1    2.79    1.40
  12   2  -1    1.36    1.76
  11  -2  -1   21.42    1.96
 -11  -2   1   19.56    1.83
 -11  -2   1   16.83    2.47
  11  -2  -1   21.16    2.48
  11   2  -1   17.32    2.22
 -11   2   1   22.90    2.37
 -11   2   1   20.46    1.88
  11   2  -1   21.61    2.65
  10  -2  -1    0.91    0.86
 -10  -2   1    0.41    1.17
  10  -2  -1    1.48    1.29
  10  -2  -1    0.15    1.02
 -10  -2   1    2.89    1.00
  10   2  -1    2.55    1.28
  10   2  -1    2.90    1.11
 -10   2   1    2.35    1.04
   9  -2  -1    2.36    0.87
   9  -2  -1    1.13    0.74
  -9  -2   1    4.06    0.95
   9  -2  -1    2.52    1.01
  -9  -2   1    2.58    0.38
  -9   2   1    2.73    0.85
   9   2  -1    2.62    0.97
   9   2  -1    3.67    1.10
  -8  -2   1    8.18    1.08
   8  -2  -1    8.19    1.00
   8  -2  -1    9.28    1.34
   8  -2  -1    8.53    1.17
  -8  -2   1    8.08    0.57
   8   2  -1    6.20    0.87
  -8   2   1    9.56    1.06
   8   2  -1    6.96    1.00
   7  -2  -1   30.35    1.73
  -7  -2   1   28.61    0.99
  -7  -2   1   29.05    1.31
   7  -2  -1   30.79    1.29
   7  -2  -1   31.18    1.53
   7  -2  -1   30.16    0.87
   7   2  -1   30.79    1.66
   7   2  -1   29.97    1.51
  -7   2   1   30.67    1.33
   6  -2  -1    6.28    0.82
  -6  -2   1    6.99    0.75
   6  -2  -1    7.36    0.48
  -6  -2   1    6.77    0.49
   6  -2  -1    8.24    1.10
  -6  -2   1    7.27    0.35
   6  -2  -1    7.04    0.88
   6   2  -1    7.31    0.40
   6   2  -1    7.10    0.97
  -6   2   1    6.14    0.76
   6   2  -1    7.35    1.05
  -5  -2   1    9.27    0.41
  -5  -2   1    9.74    0.51
   5  -2  -1    9.01    0.67
  -5  -2   1    8.59    0.72
   5  -2  -1    9.27    0.88
   5  -2  -1    9.28    0.77
   5  -2  -1    8.62    0.71
   5  -2  -1    9.54    0.50
   5   2  -1    9.59    0.88
   5   2  -1    9.23    0.92
   5   2  -1    9.32    0.45
   4  -2  -1  274.39    6.44
   4  -2  -1  273.14    6.62
  -4  -2   1  267.45    6.57
   4  -2  -1  273.39    6.58
   4  -2  -1  288.31    6.58
  -4  -2   1  268.96    6.48
  -4  -2   1  271.80    6.51
  -4  -2   1  275.70    6.42
   4  -2  -1  278.45    6.70
  -4   2   1  265.19    6.34
  -4   2   1  269.48    6.35
   4   2  -1  259.66    6.23
   4   2  -1  267.13    6.50
   4   2  -1  269.84    6.45
   3  -2  -1  272.67    6.19
  -3  -2   1  261.08    6.14
  -3  -2   1  256.76    6.16
  -3  -2   1  248.46    6.20
   3  -2  -1  265.92    6.16
   3  -2  -1  277.03    6.26
  -3  -2   1  262.72    6.32
   3  -2  -1  259.42    6.25
  -3  -2   1  260.89    6.26
  -3  -2   1  259.47    6.18
  -3  -2   1  255.68    6.26
   3  -2  -1  263.40    6.31
  -3   2   1  271.90    6.20
   3   2  -1  252.50    6.15
  -3   2   1  257.29    6.07
  -3   2   1  258.79    6.04
  -3   2   1  252.18    6.07
  -3   2   1  261.30    6.12
   3   2  -1  252.48    6.20
   3   2  -1  248.28    6.02
   2  -2  -1   85.95    2.23
  -2  -2   1   85.75    2.29
   2  -2  -1   87.64    2.23
  -2  -2   1   87.14    2.25
  -2  -2   1   88.62    2.17
  -2  -2   1   86.40    2.11
  -2  -2   1   84.46    2.14
   2  -2  -1   88.65    2.15
  -2  -2   1   87.32    2.21
  -2  -2   1   85.26    2.13
   2  -2  -1   85.91    2.15
   2  -2  -1   80.81    2.21
   2   2  -1   82.39    2.12
   2   2  -1   80.54    2.03
  -2   2   1   83.15    2.09
  -2   2   1   80.03    2.03
  -2   2   1   80.87    1.96
  -2   2   1   80.81    2.03
  -2   2   1   79.98    2.04
   2   2  -1   78.07    2.14
   2   2  -1   82.00    2.00
   2   2  -1   80.39    2.07
  -2   2   1   81.61    2.10
   1  -2  -1  302.92    6.74
  -1  -2   1  281.65    6.68
   1  -2  -1  279.13    6.79
  -1  -2   1  278.70    6.81
   1  -2  -1  293.24    6.74
   1  -2  -1  287.77    6.76
  -1  -2   1  283.87    6.71
   1  -2  -1  299.94    6.79
  -1  -2   1  288.52    6.82
  -1  -2   1  293.10    6.76
  -1  -2   1  289.14    6.79
  -1  -2   1  292.33    6.73
   1  -2  -1  285.11    6.77
   1   2  -1  274.89    6.63
  -1   2   1  292.73    6.67
  -1   2   1  290.06    6.67
   1   2  -1  277.77    6.67
   1   2  -1  288.88    6.68
   1   2  -1  286.53    6.56
  -1   2   1  282.70    6.61
   1   2  -1  277.54    6.59
  -1   2   1  283.81    6.61
   1   2  -1  281.69    6.70
  -1   2   1  279.48    6.64
   0  -2   1   44.86    1.11
   0  -2  -1   47.21    1.24
   0  -2  -1   47.51    1.20
   0  -2   1   46.63    1.27
   0  -2   1   45.35    1.30
   0  -2   1   41.67    1.22
   0  -2   1   45.41    1.29
   0  -2  -1   46.18    1.19
   0  -2   1   43.32    1.22
   0  -2  -1   46.12    1.18
   0  -2   1   44.23    1.11
   0  -2  -1   46.81    1.20
   0  -2   1   43.40    1.10
   0  -2   1   43.92    1.27
   0  -2  -1   42.37    1.23
   0  -2  -1   46.00    1.22
   0  -2  -1   45.64    1.13
   0   2   1   45.90    1.25
   0   2  -1   44.78    1.22
   0   2   1   45.42    1.20
   0   2   1   45.75    1.25
   0   2  -1   43.86    1.11
   0   2   1   46.59    1.20
   0   2  -1   43.13    1.11
   0   2  -1   43.03    1.24
   0   2   1   48.03    1.25
  -1  -2  -1  209.76    4.84
  -1  -2  -1  218.02    4.91
  -1  -2  -1  205.66    4.85
   1  -2   1  192.23    4.88
  -1  -2  -1  208.33    4.85
  -1  -2  -1  199.87    4.86
   1  -2   1  208.74    4.86
   1  -2   1  215.63    4.95
  -1  -2  -1  206.75    4.84
   1  -2   1  200.90    4.85
   1  -2   1  194.89    4.75
  -1   2  -1  199.74    4.80
   1   2   1  199.39    4.79
  -1   2  -1  209.46    4.78
  -1   2  -1  197.70    4.69
  -1   2  -1  200.03    4.72
  -1   2  -1  201.27    4.87
   1   2   1  200.28    4.77
   1   2   1  196.44    4.77
   1   2   1  203.58    4.84
  -1   2  -1  214.44    4.83
  -1   2  -1  203.19    4.71
   1   2   1  199.02    4.78
   1   2   1  207.60    4.79
  -2  -2  -1   14.63    0.68
   2  -2   1   15.30    0.75
  -2  -2  -1   14.92    0.58
   2  -2   1   14.37    0.58
  -2  -2  -1   14.22    0.54
  -2  -2  -1   14.88    0.70
   2  -2   1   14.16    0.62
   2  -2   1   14.48    0.48
  -2  -2  -1   14.99    0.61
   2  -2   1   14.43    0.75
   2  -2   1   13.57    0.62
  -2  -2  -1   14.95    0.60
  -2  -2  -1   15.11    0.56
   2   2   1   13.76    0.59
  -2   2  -1   13.04    0.56
   2   2   1   14.00    0.59
   2   2   1   13.19    0.69
  -2   2  -1   13.45    0.50
   2   2   1   12.74    0.63
  -2   2  -1   13.90    0.59
   2   2   1   13.43    0.60
  -2   2  -1   13.39    0.72
  -2   2  -1   14.33    0.63
  -2   2  -1   12.87    0.46
  -3  -2  -1  416.84    9.60
   3  -2   1  406.94    9.52
  -3  -2  -1  402.78    9.58
   3  -2   1  402.05    9.51
  -3  -2  -1  403.58    9.63
   3  -2   1  424.87    9.68
  -3  -2  -1  430.82    9.70
  -3  -2  -1  419.65    9.64
  -3  -2  -1  404.01    9.51
   3  -2   1  394.19    9.58
   3  -2   1  400.38    9.73
   3   2   1  430.64    9.50
   3   2   1  408.70    9.48
  -3   2  -1  395.35    9.53
  -3   2  -1  410.88    9.44
  -3   2  -1  390.16    9.38
   3   2   1  408.39    9.56
   3   2   1  399.09    9.50
  -3   2  -1  406.10    9.49
   3   2   1  398.49    9.44
  -3   2  -1  385.70    9.37
  -4  -2  -1   15.36    0.55
  -4  -2  -1   16.70    0.58
   4  -2   1   16.47    0.70
   4  -2   1   17.49    0.63
  -4  -2  -1   13.37    0.87
  -4  -2  -1   15.69    0.71
   4  -2   1   14.72    1.12
   4  -2   1   16.96    0.64
   4   2   1   15.12    0.75
  -4   2  -1   16.66    0.68
  -4   2  -1   17.33    0.78
   4   2   1   17.25    0.85
   4   2   1   16.76    0.81
  -4   2  -1   17.49    0.84
   4   2   1   17.15    0.82
  -4   2  -1   16.49    0.80
  -4   2  -1   17.44    0.68
   4   2   1   16.02    0.86
  -4   2  -1   15.98    0.60
  -5  -2  -1   47.86    1.21
  -5  -2  -1   46.78    1.27
  -5  -2  -1   44.44    1.42
   5  -2   1   47.26    1.27
   5  -2   1   47.68    1.65
   5  -2   1   46.36    1.39
  -5  -2  -1   44.54    1.48
   5  -2   1   46.92    1.73
  -5   2  -1   46.09    1.37
  -5   2  -1   46.02    1.50
   5   2   1   44.70    1.56
  -5   2  -1   47.00    1.24
   5   2   1   46.64    1.68
   5   2   1   45.23    1.63
   5   2   1   46.87    1.48
   6  -2   1   24.82    0.79
  -6  -2  -1   26.22    0.85
  -6  -2  -1   25.02    1.17
   6  -2   1   23.52    1.28
   6  -2   1   24.99    1.46
  -6  -2  -1   26.46    0.70
   6  -2   1   23.63    0.97
  -6  -2  -1   25.63    1.01
   6   2   1   24.87    1.38
  -6   2  -1   23.07    1.03
   6   2   1   24.60    1.26
  -6   2  -1   24.54    1.14
  -6   2  -1   24.05    0.74
   7  -2   1  107.25    3.16
  -7  -2  -1  105.64    2.92
  -7  -2  -1  107.32    2.70
  -7  -2  -1  104.32    3.01
   7  -2   1  107.46    2.92
   7  -2   1  109.86    2.57
   7  -2   1  106.45    3.55
  -7   2  -1  107.36    2.94
   7   2   1  102.51    3.25
  -7   2  -1  108.36    3.03
   7   2   1  107.93    3.15
  -8  -2  -1    6.91    0.91
   8  -2   1    7.79    1.12
  -8  -2  -1    6.05    0.70
   8  -2   1    6.94    0.89
   8  -2   1    7.54    0.94
  -8   2  -1    7.86    1.07
  -8   2  -1    5.55    0.81
   8   2   1    4.66    0.88
   8   2   1    6.70    1.09
   9  -2   1   13.77    1.12
   9  -2   1   13.22    1.47
  -9  -2  -1   14.80    1.18
   9  -2   1   15.03    1.86
  -9  -2  -1   15.72    1.41
   9   2   1   13.71    1.79
  -9   2  -1   15.85    1.35
   9   2   1   16.62    1.73
  -9   2  -1   15.62    1.33
  10  -2   1   27.98    2.37
  10  -2   1   29.89    2.11
 -10  -2  -1   29.56    1.79
 -10   2  -1   33.70    1.89
  10   2   1   36.13    2.50
 -10   2  -1   31.79    1.86
  10   2   1   34.07    2.16
  11  -2   1    3.77    1.59
  11  -2   1    4.54    1.23
 -11  -2  -1    5.64    1.17
  11   2   1    2.91    1.28
 -11   2  -1    4.24    1.21
  11   2   1    4.23    1.61
  12  -2   1    2.07    1.45
  12  -2   1    1.83    1.73
 -12  -2  -1    1.70    1.34
 -12   2  -1    0.11    1.42
  12   2   1    1.63    1.75
  12   2   1    0.83    1.44
 -13   2  -1   14.78    1.70
 -12  -3   1   34.25    2.36
 -12  -3   1   33.08    3.08
  12  -3  -1   35.62    3.12
  12  -3  -1   36.46    2.88
  12   3  -1   27.67    2.84
 -12   3   1   35.26    2.61
  12   3  -1   29.55    3.55
 -12   3   1   32.30    2.38
 -11  -3   1   14.22    1.81
 -11  -3   1   14.43    2.03
  11  -3  -1   12.14    1.53
  11  -3  -1   14.72    1.94
 -11   3   1   11.42    1.37
 -11   3   1   15.34    2.01
 -11   3   1   15.29    1.90
  11   3  -1   11.54    1.96
  11   3  -1   10.64    1.63
 -10  -3   1   16.52    2.17
 -10  -3   1   17.88    1.61
  10  -3  -1   18.01    2.00
  10  -3  -1   18.74    1.63
  10  -3  -1   20.75    2.24
  10   3  -1   19.54    2.01
  10   3  -1   17.90    1.84
 -10   3   1   18.22    2.14
 -10   3   1   17.16    1.58
   9  -3  -1    9.43    1.34
   9  -3  -1   11.93    1.61
  -9  -3   1   10.34    1.35
  -9  -3   1   11.56    1.71
   9  -3  -1   11.56    1.41
   9   3  -1    9.32    1.35
   9   3  -1    8.47    1.11
  -9   3   1   10.19    1.29
  -9   3   1   11.31    1.33
   8  -3  -1    3.62    1.05
  -8  -3   1    4.14    0.45
  -8  -3   1    3.89    0.81
  -8  -3   1    5.15    1.14
   8  -3  -1    4.18    0.81
   8  -3  -1    5.19    0.88
  -8   3   1    5.83    0.87
   8   3  -1    3.49    0.83
   8   3  -1    2.34    1.01
  -8   3   1    3.56    0.72
   7  -3  -1   44.51    1.67
  -7  -3   1   42.87    1.69
  -7  -3   1   41.40    1.32
  -7  -3   1   38.27    1.28
   7  -3  -1   43.00    1.86
   7  -3  -1   43.34    2.01
  -7   3   1   43.35    1.61
   7   3  -1   40.92    1.96
  -7   3   1   44.05    1.60
   7   3  -1   40.75    1.80
   6  -3  -1  134.16    3.81
   6  -3  -1  134.69    3.68
  -6  -3   1  131.41    3.55
  -6  -3   1  134.71    3.40
  -6  -3   1  138.24    3.29
   6  -3  -1  131.01    3.58
  -6   3   1  126.68    3.48
   6   3  -1  135.76    3.81
   6   3  -1  134.30    3.27
  -6   3   1  134.48    3.50
   6   3  -1  135.74    3.68
   5  -3  -1   39.97    1.45
  -5  -3   1   39.17    1.65
  -5  -3   1   40.23    1.17
   5  -3  -1   42.28    1.66
  -5  -3   1   39.61    1.37
   5  -3  -1   41.38    1.54
  -5  -3   1   41.72    1.27
  -5   3   1   38.30    1.31
  -5   3   1   37.75    1.31
   5   3  -1   39.27    1.16
   5   3  -1   37.94    1.49
  -5   3   1   38.87    1.31
   5   3  -1   38.28    1.57
   4  -3  -1  186.69    4.64
  -4  -3   1  190.90    4.55
  -4  -3   1  190.12    4.47
  -4  -3   1  177.88    4.74
  -4  -3   1  181.05    4.76
   4   3  -1  189.50    4.73
   4   3  -1  187.71    4.71
   4   3  -1  184.10    4.54
   4   3  -1  191.99    4.59
  -4   3   1  191.82    4.58
   4   3  -1  192.99    4.83
  -4   3   1  183.74    4.59
  -4   3   1  190.13    4.57
  -4   3   1  185.67    4.70
   3  -3  -1  163.19    4.15
   3  -3  -1  179.37    4.18
  -3  -3   1  167.29    4.10
  -3  -3   1  162.39    4.23
  -3  -3   1  166.62    4.10
  -3  -3   1  160.57    4.00
  -3  -3   1  164.59    4.03
   3  -3  -1  169.23    4.03
   3  -3  -1  165.46    4.19
  -3  -3   1  163.80    4.06
  -3   3   1  162.57    3.99
  -3   3   1  168.41    4.09
   3   3  -1  167.32    3.99
  -3   3   1  163.33    4.00
  -3   3   1  165.85    4.01
   3   3  -1  161.82    4.10
   3   3  -1  162.19    4.08
  -3   3   1  167.98    3.91
   3   3  -1  162.52    4.00
   3   3  -1  161.12    4.15
  -2  -3   1   45.18    1.28
  -2  -3   1   45.09    1.20
   2  -3  -1   47.05    1.25
  -2  -3   1   42.97    1.27
  -2  -3   1   46.09    1.25
   2  -3  -1   43.56    1.39
   2  -3  -1   46.34    1.25
  -2  -3   1   41.74    1.37
   2  -3  -1   44.21    1.31
   2  -3  -1   42.82    1.37
  -2  -3   1   45.20    1.40
   2   3  -1   41.76    1.16
  -2   3   1   42.65    1.21
   2   3  -1   43.13    1.37
  -2   3   1   41.55    1.26
   2   3  -1   42.04    1.25
  -2   3   1   43.92    1.22
   2   3  -1   43.10    1.30
   2   3  -1   40.18    1.29
  -2   3   1   41.50    1.28
   1  -3  -1   23.02    0.87
  -1  -3   1   27.47    0.94
   1  -3  -1   26.15    0.84
  -1  -3   1   25.72    0.94
   1  -3  -1   27.15    0.90
  -1  -3   1   27.68    0.91
  -1  -3   1   26.25    0.92
  -1  -3   1   28.50    0.82
   1  -3  -1   26.32    0.84
  -1  -3   1   28.12    1.00
   1  -3  -1   23.49    0.95
  -1  -3   1   27.38    0.77
   1   3  -1   27.22    0.96
   1   3  -1   26.65    0.76
  -1   3   1   24.16    0.90
  -1   3   1   24.86    0.90
  -1   3   1   25.48    0.84
   1   3  -1   27.03    0.91
  -1   3   1   23.83    0.82
   1   3  -1   25.94    0.79
  -1   3   1   23.81    0.90
   0  -3   1   58.56    1.45
   0  -3  -1   59.30    1.58
   0  -3   1   58.27    1.45
   0  -3   1   57.81    1.69
   0  -3  -1   59.85    1.53
   0  -3  -1   59.13    1.46
   0  -3   1   58.95    1.61
   0  -3   1   58.08    1.66
   0  -3  -1   59.52    1.59
   0  -3   1   54.76    1.54
   0  -3  -1   55.02    1.61
   0  -3   1   57.41    1.62
   0  -3  -1   57.98    1.53
   0  -3   1   62.38    1.77
   0  -3   1   58.50    1.46
   0  -3  -1   59.65    1.56
   0  -3  -1   56.58    1.63
   0   3  -1   55.72    1.55
   0   3  -1   56.45    1.42
   0   3   1   56.36    1.56
   0   3  -1   58.91    1.52
   0   3   1   55.08    1.56
   0   3   1   56.80    1.57
   0   3   1   55.73    1.49
   0   3  -1   55.84    1.41
  -1  -3  -1   96.59    2.47
  -1  -3  -1   98.50    2.49
   1  -3   1  103.46    3.03
  -1  -3  -1   92.76    2.51
  -1  -3  -1  101.61    2.46
   1  -3   1   99.85    2.57
   1  -3   1  100.58    2.46
  -1  -3  -1   97.09    2.50
  -1  -3  -1  100.65    2.48
  -1  -3  -1   99.04    2.54
   1  -3   1  100.74    2.36
   1  -3   1   99.44    2.42
   1  -3   1   96.33    2.51
  -1   3  -1   96.57    2.33
   1   3   1   95.82    2.48
  -1   3  -1   99.17    2.34
   1   3   1   93.61    2.45
  -1   3  -1   94.94    2.30
  -1   3  -1   95.55    2.47
   1   3   1   94.38    2.42
   1   3   1   94.58    2.44
   1   3   1  100.88    2.48
  -1   3  -1   99.08    2.52
   1   3   1   91.20    2.40
  -1   3  -1  100.25    2.39
  -2  -3  -1  113.43    2.90
  -2  -3  -1  110.36    2.81
   2  -3   1  109.39    2.87
   2  -3   1  114.63    2.84
  -2  -3  -1  109.64    2.92
  -2  -3  -1  116.08    2.82
   2  -3   1  112.34    2.78
  -2  -3  -1  106.28    2.79
  -2  -3  -1  115.06    2.84
  -2  -3  -1  111.39    2.78
   2  -3   1  115.46    2.69
   2   3   1  109.59    2.76
  -2   3  -1  110.85    2.64
  -2   3  -1  112.42    2.72
   2   3   1  105.46    2.78
  -2   3  -1  110.07    2.77
   2   3   1  106.09    2.83
   2   3   1  110.66    2.75
  -2   3  -1  111.93    2.69
   2   3   1  110.08    2.78
  -2   3  -1  110.18    2.70
  -3  -3  -1   28.61    0.94
  -3  -3  -1   29.88    0.97
   3  -3   1   29.20    1.07
   3  -3   1   32.68    1.10
  -3  -3  -1   28.83    1.05
   3  -3   1   33.03    0.89
  -3  -3  -1   28.89    1.08
   3  -3   1   30.78    1.00
   3  -3   1   30.47    1.20
   3   3   1   29.22    1.10
  -3   3  -1   32.49    1.22
  -3   3  -1   32.74    1.08
  -3   3  -1   31.04    0.95
  -3   3  -1   31.11    1.01
   3   3   1   30.19    1.07
   3   3   1   31.66    1.05
  -3   3  -1   32.51    0.92
   3   3   1   30.58    1.15
   3   3   1   31.55    1.01
   4  -3   1  271.33    6.45
  -4  -3  -1  264.80    6.34
   4  -3   1  265.45    6.63
  -4  -3  -1  266.75    6.31
   4  -3   1  276.89    6.32
  -4  -3  -1  258.31    6.45
  -4  -3  -1  262.93    6.46
  -4   3  -1  259.90    6.31
   4   3   1  251.64    6.58
  -4   3  -1  265.38    6.53
  -4   3  -1  265.99    6.29
   4   3   1  266.72    6.49
   4   3   1  266.70    6.56
   4   3   1  264.96    6.40
  -4   3  -1  269.30    6.32
  -4   3  -1  279.28    6.44
  -5  -3  -1    3.19    0.60
  -5  -3  -1    3.07    0.40
  -5  -3  -1    3.78    0.41
  -5  -3  -1    3.32    0.56
   5  -3   1    4.84    0.59
   5  -3   1    3.46    0.70
   5   3   1    3.33    0.61
   5   3   1    2.86    0.62
  -5   3  -1    4.10    0.44
   5   3   1    2.95    0.56
  -5   3  -1    3.60    0.43
  -5   3  -1    2.61    0.61
   5   3   1    3.21    0.55
   6  -3   1   11.27    1.19
   6  -3   1    9.85    0.87
  -6  -3  -1    8.99    0.50
  -6  -3  -1    7.99    0.86
  -6  -3  -1    8.75    0.85
   6  -3   1    8.60    0.89
   6  -3   1    8.12    1.13
  -6   3  -1    9.24    0.81
  -6   3  -1   10.52    1.09
   6   3   1    8.09    1.04
  -6   3  -1    8.50    0.53
   6   3   1    9.52    1.18
   6   3   1    9.57    1.15
   7  -3   1   11.97    1.33
  -7  -3  -1   13.49    1.04
  -7  -3  -1   11.87    1.01
   7  -3   1   11.65    1.48
   7  -3   1   13.45    1.04
  -7   3  -1   10.47    1.15
   7   3   1   10.97    1.38
   7   3   1   10.32    1.23
  -7   3  -1   12.85    1.02
   8  -3   1   16.68    1.21
   8  -3   1   15.52    1.56
   8  -3   1   17.70    1.76
  -8  -3  -1   16.57    1.14
  -8  -3  -1   17.25    1.30
   8   3   1   15.67    1.74
  -8   3  -1   17.81    1.42
   8   3   1   18.21    1.53
  -8   3  -1   17.77    1.33
   9  -3   1   11.84    1.84
  -9  -3  -1   12.12    1.82
   9  -3   1   10.90    1.29
  -9  -3  -1   10.22    1.22
   9  -3   1    8.15    1.66
   9   3   1    9.98    1.34
  -9   3  -1   10.41    1.18
   9   3   1   10.60    1.24
  -9   3  -1   11.32    1.39
 -10  -3  -1   13.64    1.42
  10  -3   1    7.90    1.27
  10  -3   1   12.86    1.64
 -10   3  -1   13.31    1.61
  10   3   1   10.41    1.37
  10   3   1    9.30    1.48
  11  -3   1    9.80    1.76
  11  -3   1    8.07    1.53
 -11  -3  -1   10.70    1.50
  11   3   1   10.35    1.62
  11   3   1    9.28    1.83
 -11   3  -1   10.42    1.46
  12  -3   1   25.59    3.06
  12  -3   1   29.08    2.62
 -12  -3  -1   24.68    2.86
 -12  -3  -1   30.17    2.25
 -12   3  -1   31.76    2.45
 -12   3  -1   29.81    2.21
  12   3   1   28.73    2.75
  12   3   1   19.94    2.31
 -12  -4   1   19.52    3.42
  12  -4  -1   13.62    2.09
 -12  -4   1   19.78    2.51
  12  -4  -1   17.37    2.51
 -12   4   1   18.87    2.17
  12   4  -1   23.54    3.18
  12   4  -1   16.50    2.48
 -12   4   1   14.00    2.21
 -12   4   1   19.80    2.53
  11  -4  -1   10.28    1.90
 -11  -4   1   10.89    1.51
 -11  -4   1    8.54    1.90
  11  -4  -1    9.10    1.72
  11   4  -1    5.57    1.52
 -11   4   1   11.32    1.55
 -11   4   1    6.49    1.29
 -11   4   1    9.40    1.87
  10  -4  -1    1.32    1.11
 -10  -4   1    1.55    1.43
 -10  -4   1    0.90    0.99
  10  -4  -1    0.71    1.13
  10  -4  -1    0.82    1.38
  10   4  -1    2.64    1.28
 -10   4   1    3.13    1.66
 -10   4   1    1.53    1.06
  10   4  -1    4.19    1.46
 -10   4   1    0.50    1.43
   9  -4  -1   -0.50    1.41
  -9  -4   1    0.66    1.24
  -9  -4   1    1.14    0.91
   9  -4  -1    0.03    0.97
   9  -4  -1    1.53    1.76
   9   4  -1    1.62    1.36
  -9   4   1   -0.14    0.92
  -9   4   1    0.57    0.95
   9   4  -1    0.24    1.15
   8  -4  -1    2.06    0.91
  -8  -4   1    1.98    0.77
  -8  -4   1    1.14    0.59
   8  -4  -1    1.93    1.04
   8  -4  -1    1.61    0.85
  -8  -4   1    2.91    1.21
  -8   4   1    3.20    0.85
  -8   4   1    3.07    0.79
   8   4  -1    3.64    1.14
   8   4  -1    1.44    0.93
  -7  -4   1    1.82    0.98
   7  -4  -1    2.24    0.82
   7  -4  -1    2.78    0.78
  -7  -4   1    2.88    0.77
   7  -4  -1    1.93    0.97
  -7  -4   1    2.67    0.56
  -7   4   1    2.06    0.66
  -7   4   1    2.60    0.90
   7   4  -1    2.00    0.90
   7   4  -1    2.23    0.86
  -7   4   1    3.60    0.77
  -6  -4   1    3.28    0.97
   6  -4  -1    4.85    0.84
   6  -4  -1    3.18    0.75
   6  -4  -1    5.87    0.97
  -6  -4   1    4.02    0.71
  -6  -4   1    3.18    0.60
  -6   4   1    5.35    0.86
   6   4  -1    3.63    0.88
  -6   4   1    3.49    0.64
  -6   4   1    3.64    0.66
   6   4  -1    2.85    0.70
  -5  -4   1   64.42    1.98
  -5  -4   1   65.10    2.28
   5  -4  -1   64.13    2.25
   5  -4  -1   63.36    2.08
   5   4  -1   64.29    2.12
  -5   4   1   64.37    2.06
  -5   4   1   63.29    1.89
   5   4  -1   60.19    2.05
  -5   4   1   63.80    1.92
   5   4  -1   62.62    2.19
  -5   4   1   63.96    1.85
  -4  -4   1   73.95    2.05
   4  -4  -1   71.13    2.18
  -4  -4   1   69.94    2.27
   4  -4  -1   70.96    2.37
  -4  -4   1   71.22    2.08
  -4   4   1   71.36    1.99
   4   4  -1   72.11    2.23
  -4   4   1   73.60    2.10
   4   4  -1   73.74    2.03
   4   4  -1   74.11    2.29
   4   4  -1   76.77    2.25
  -4   4   1   73.13    2.05
  -4   4   1   73.51    1.89
  -4   4   1   69.92    2.21
   4   4  -1   70.40    2.09
  -3  -4   1  101.17    2.70
   3  -4  -1   97.05    2.74
  -3  -4   1   97.95    2.77
  -3  -4   1   99.91    2.58
   3  -4  -1   99.88    2.88
   3   4  -1   91.45    2.54
   3   4  -1   95.23    2.41
   3   4  -1   95.46    2.61
  -3   4   1   92.22    2.86
   3   4  -1   95.50    2.67
  -3   4   1   85.81    2.20
  -3   4   1   93.37    2.53
  -3   4   1   98.31    2.53
  -3   4   1   93.32    2.41
   3   4  -1   93.37    2.51
   2  -4  -1   97.20    2.68
  -2  -4   1   95.97    2.44
  -2  -4   1   96.62    2.65
  -2  -4   1   98.37    2.49
  -2  -4   1   98.71    2.52
   2  -4  -1   96.75    2.64
  -2  -4   1   99.79    2.65
   2  -4  -1  100.34    2.48
   2   4  -1   98.81    2.70
  -2   4   1  100.83    2.70
  -2   4   1   99.88    2.51
   2   4  -1   91.93    2.61
  -2   4   1   98.51    2.58
  -2   4   1   98.22    2.49
   2   4  -1   95.54    2.52
   2   4  -1   99.42    2.46
   1  -4  -1   46.14    1.54
  -1  -4   1   46.95    1.42
  -1  -4   1   48.53    1.29
  -1  -4   1   45.97    1.57
  -1  -4   1   49.56    1.33
  -1  -4   1   47.86    1.28
   1  -4  -1   49.28    1.42
   1  -4  -1   47.04    1.33
  -1   4   1   47.20    1.34
   1   4  -1   47.57    1.28
  -1   4   1   48.06    1.42
  -1   4   1   47.82    1.49
  -1   4   1   46.99    1.35
   1   4  -1   44.98    1.50
   1   4  -1   47.98    1.32
   0  -4   1  187.11    4.72
   0  -4   1  188.82    4.46
   0  -4   1  186.00    4.46
   0  -4  -1  193.41    4.62
   0  -4  -1  189.83    4.58
   0  -4  -1  187.67    4.45
   0  -4  -1  190.90    4.61
   0  -4  -1  186.57    4.54
   0  -4   1  193.63    4.49
   0  -4   1  181.95    4.54
   0   4   1  185.89    4.54
   0   4   1  181.75    4.42
   0   4   1  186.97    4.49
   0   4  -1  182.95    4.35
   0   4  -1  179.52    4.52
   0   4  -1  182.49    4.36
   1  -4   1   37.86    1.02
   1  -4   1   35.63    1.30
  -1  -4  -1   35.45    1.22
  -1  -4  -1   36.44    1.17
  -1  -4  -1   35.58    1.18
  -1  -4  -1   36.91    1.11
   1  -4   1   37.20    0.99
  -1  -4  -1   35.64    1.14
   1  -4   1   36.75    1.08
  -1   4  -1   33.95    1.00
  -1   4  -1   35.23    1.03
   1   4   1   33.45    1.07
   1   4   1   35.37    1.17
  -1   4  -1   34.76    0.99
  -1   4  -1   34.34    1.21
   1   4   1   33.28    1.20
   2  -4   1   88.77    2.24
  -2  -4  -1   89.19    2.38
   2  -4   1   84.84    2.45
  -2  -4  -1   86.31    2.36
   2  -4   1   92.46    2.18
   2   4   1   85.03    2.32
  -2   4  -1   84.99    2.11
  -2   4  -1   85.61    2.33
   2   4   1   83.49    2.35
  -2   4  -1   87.39    2.18
  -2   4  -1   87.06    2.19
   2   4   1   84.30    2.24
   2   4   1   83.88    2.28
  -2   4  -1   87.02    2.16
   2   4   1   85.47    2.33
   3  -4   1   22.23    1.20
   3  -4   1   20.67    1.04
  -3  -4  -1   20.51    0.87
   3  -4   1   22.30    0.71
  -3  -4  -1   20.80    1.09
  -3   4  -1   21.12    0.82
  -3   4  -1   19.82    0.76
  -3   4  -1   20.18    0.94
  -3   4  -1   21.76    0.83
   3   4   1   19.89    0.94
   3   4   1   21.25    0.96
   3   4   1   21.75    0.92
   3   4   1   19.37    0.98
   3   4   1   19.14    1.25
  -3   4  -1   20.68    0.72
  -4  -4  -1   84.54    2.47
   4  -4   1   87.12    2.67
  -4  -4  -1   84.52    2.30
   4  -4   1   86.87    2.19
   4  -4   1   83.76    2.44
  -4  -4  -1   82.97    2.39
   4   4   1   81.50    2.47
   4   4   1   81.36    2.44
   4   4   1   83.02    2.38
   4   4   1   83.43    2.49
  -4   4  -1   82.96    2.14
  -4   4  -1   86.34    2.31
   4   4   1   81.92    2.30
  -4   4  -1   78.00    2.62
  -4   4  -1   85.57    2.28
  -4   4  -1   84.89    2.28
   5  -4   1  134.31    3.81
  -5  -4  -1  135.79    3.60
   5  -4   1  131.99    3.59
  -5  -4  -1  132.65    3.57
   5   4   1  137.87    3.53
   5   4   1  132.61    3.73
   5   4   1  131.99    3.60
  -5   4  -1  131.39    3.35
  -5   4  -1  134.12    3.43
   5   4   1  133.93    3.67
  -5   4  -1  133.45    3.42
   6  -4   1   21.58    1.62
  -6  -4  -1   19.83    1.15
   6  -4   1   22.29    1.23
  -6  -4  -1   20.04    1.20
  -6  -4  -1   21.19    0.99
   6   4   1   22.31    1.36
  -6   4  -1   23.76    1.03
   6   4   1   20.80    1.49
  -6   4  -1   23.34    1.09
   6   4   1   22.39    1.53
  -6   4  -1   23.53    1.15
   6   4   1   21.61    1.24
  -7  -4  -1   54.58    1.96
  -7  -4  -1   55.14    1.69
  -7  -4  -1   53.46    1.94
   7  -4   1   55.27    2.28
   7  -4   1   55.93    2.01
   7  -4   1   54.06    2.41
  -7   4  -1   56.60    1.90
   7   4   1   54.97    2.36
   7   4   1   55.44    2.18
  -7   4  -1   58.07    1.92
  -8  -4  -1   14.77    1.28
  -8  -4  -1   15.95    0.94
   8  -4   1   15.25    1.45
   8  -4   1   16.51    1.39
   8  -4   1   18.12    1.89
  -8  -4  -1   13.16    1.34
   8   4   1   15.13    1.62
  -8   4  -1   14.08    1.34
  -8   4  -1   14.90    1.31
   8   4   1   13.74    1.88
  -9  -4  -1   16.06    1.50
  -9  -4  -1   16.37    1.40
   9  -4   1   16.75    2.07
   9  -4   1   14.73    1.80
   9  -4   1   12.68    1.59
   9   4   1   18.69    2.14
  -9   4  -1   16.56    1.60
  -9   4  -1   14.81    1.49
  10  -4   1   41.01    2.48
 -10  -4  -1   38.32    2.14
  10  -4   1   37.51    2.80
 -10   4  -1   39.96    2.13
  10   4   1   40.58    2.52
  10   4   1   41.49    2.93
 -10   4  -1   40.12    2.27
  11  -4   1   14.50    1.97
 -11  -4  -1   21.85    2.73
 -11  -4  -1   19.94    1.94
  11  -4   1   17.27    2.38
  11   4   1   21.03    2.96
 -11   4  -1   22.10    2.10
 -11   4  -1   20.35    2.16
  11   4   1   22.89    2.55
 -12   4  -1    5.12    1.45
  12   4   1    5.12    1.96
  12   4   1    8.76    1.62
 -12   5   1   -2.16    1.89
  11  -5  -1   13.83    1.79
  11  -5  -1   18.93    2.26
 -11  -5   1   19.15    2.03
 -11  -5   1   18.11    2.36
 -11   5   1   17.97    2.17
  11   5  -1   14.96    1.98
  11   5  -1   15.49    2.25
 -11   5   1   13.79    2.14
 -10  -5   1   15.21    2.03
  10  -5  -1   12.74    1.63
 -10  -5   1   13.03    1.75
  10  -5  -1   15.85    2.10
  10  -5  -1   14.54    1.93
  10   5  -1   14.18    1.79
 -10   5   1   15.60    1.81
 -10   5   1   10.46    1.81
  10   5  -1   14.17    1.93
 -10   5   1   17.34    2.05
   9  -5  -1   31.32    2.26
  -9  -5   1   34.29    1.64
   9  -5  -1   33.65    2.17
  -9  -5   1   36.44    2.46
   9  -5  -1   32.04    2.42
  -9  -5   1   32.80    1.91
  -9   5   1   30.24    3.23
  -9   5   1   34.10    1.91
   9   5  -1   34.01    2.59
   9   5  -1   32.07    2.30
  -9   5   1   33.14    1.93
  -8  -5   1   12.57    1.38
  -8  -5   1   12.66    1.21
  -8  -5   1   11.04    1.22
   8  -5  -1   15.41    1.93
   8  -5  -1   12.69    1.65
   8  -5  -1   13.70    1.58
  -8  -5   1   13.47    1.82
   8   5  -1    9.07    1.34
  -8   5   1   11.96    1.43
  -8   5   1   13.03    1.77
  -8   5   1    9.02    1.04
   8   5  -1    9.60    1.25
  -7  -5   1   22.37    1.27
  -7  -5   1   22.19    1.78
   7  -5  -1   22.50    1.72
  -7  -5   1   23.86    1.41
   7  -5  -1   23.70    1.61
   7  -5  -1   20.67    1.81
  -7  -5   1   23.33    1.32
   7   5  -1   20.57    1.31
  -7   5   1   21.55    1.38
   7   5  -1   21.03    1.65
   7   5  -1   19.16    1.85
  -7   5   1   19.68    1.47
  -7   5   1   18.28    1.62
  -7   5   1   21.40    1.35
  -6  -5   1   21.68    1.28
  -6  -5   1   21.43    1.64
   6  -5  -1   21.82    1.47
  -6  -5   1   22.12    1.25
   6  -5  -1   22.07    1.57
  -6  -5   1   21.73    1.24
   6  -5  -1   24.34    1.69
   6   5  -1   22.43    1.69
   6   5  -1   23.54    1.61
  -6   5   1   22.62    1.27
  -6   5   1   21.36    1.27
  -6   5   1   23.47    0.93
  -6   5   1   23.28    1.51
   6   5  -1   24.01    1.27
   5  -5  -1    6.08    0.91
   5  -5  -1    4.19    0.82
  -5  -5   1    5.71    0.97
  -5  -5   1    4.69    0.72
  -5  -5   1    4.42    0.69
  -5  -5   1    4.44    0.71
   5   5  -1    4.79    0.66
   5   5  -1    5.81    0.85
   5   5  -1    4.84    0.90
  -5   5   1    5.18    0.81
  -5   5   1    4.67    0.68
   5   5  -1    5.31    0.68
  -5   5   1    6.55    0.68
  -5   5   1    5.34    0.45
   4  -5  -1  117.14    3.36
  -4  -5   1  118.43    3.16
  -4  -5   1  119.13    3.26
   4  -5  -1  121.18    3.45
  -4  -5   1  117.78    3.41
  -4  -5   1  117.99    3.29
  -4   5   1  118.52    3.21
   4   5  -1  114.86    3.38
  -4   5   1  115.81    3.08
   4   5  -1  122.79    3.08
   4   5  -1  116.75    3.22
  -4   5   1  115.64    3.20
   4   5  -1  117.46    3.30
   4   5  -1  112.13    3.15
  -4   5   1  116.44    3.05
  -3  -5   1   38.10    1.53
  -3  -5   1   42.81    1.35
   3  -5  -1   39.07    1.60
   3  -5  -1   40.09    1.64
  -3  -5   1   40.67    1.59
   3   5  -1   37.74    1.34
   3   5  -1   38.65    1.29
  -3   5   1   38.46    1.32
  -3   5   1   39.25    1.48
   3   5  -1   36.77    1.52
   3   5  -1   36.49    1.60
   3   5  -1   38.49    1.45
  -3   5   1   39.57    1.26
  -2  -5   1   43.53    1.62
  -2  -5   1   46.90    1.34
  -2  -5   1   42.95    1.47
  -2  -5   1   44.85    1.39
   2  -5  -1   47.13    1.70
   2  -5  -1   44.36    1.65
  -2   5   1   43.82    1.43
  -2   5   1   43.30    1.32
  -2   5   1   43.20    1.56
   2   5  -1   43.44    1.37
  -2   5   1   45.18    1.41
   2   5  -1   45.15    1.30
   2   5  -1   42.12    1.53
  -1  -5   1   32.43    1.35
  -1  -5   1   32.90    1.17
   1  -5  -1   33.42    1.35
  -1  -5   1   39.20    1.13
  -1  -5   1   34.78    1.09
  -1  -5   1   34.80    1.06
   1   5  -1   33.46    1.01
  -1   5   1   29.75    1.34
   1   5  -1   33.13    1.06
   1   5  -1   31.99    1.24
  -1   5   1   32.54    1.15
  -1   5   1   32.35    1.25
   0  -5   1    2.94    0.45
   0  -5   1    4.43    0.45
   0  -5   1    2.86    0.55
   0  -5  -1    5.14    0.36
   0  -5  -1    2.91    0.54
   0  -5   1    3.51    0.40
   0  -5  -1    4.30    0.36
   0  -5   1    4.13    0.39
   0   5  -1    5.34    0.71
   0   5  -1    4.30    0.47
   0   5   1    4.29    0.50
   0   5  -1    4.04    0.44
   0   5   1    3.88    0.58
   1  -5   1    8.46    0.46
   1  -5   1    6.18    0.85
   1  -5   1    8.00    0.44
  -1  -5  -1    8.13    0.54
   1  -5   1    7.60    0.54
  -1  -5  -1    8.03    0.83
  -1   5  -1    8.62    0.55
   1   5   1    7.75    0.88
   1   5   1    7.47    0.70
   1   5   1    7.20    0.70
  -1   5  -1    8.42    0.85
  -1   5  -1    7.81    0.50
  -2  -5  -1   28.58    1.24
   2  -5   1   30.97    0.94
  -2  -5  -1   28.14    1.33
   2  -5   1   30.78    1.33
   2  -5   1   31.41    0.90
  -2  -5  -1   29.54    1.11
   2   5   1   26.12    1.48
  -2   5  -1   30.41    0.95
  -2   5  -1   29.94    0.96
   2   5   1   29.24    1.28
  -2   5  -1   30.54    1.00
   2   5   1   29.58    1.11
  -2   5  -1   30.98    1.28
  -3  -5  -1   62.63    2.00
   3  -5   1   64.99    2.12
  -3  -5  -1   61.99    2.12
   3  -5   1   67.90    2.29
  -3  -5  -1   62.47    2.15
   3  -5   1   70.00    1.72
  -3   5  -1   68.29    1.80
   3   5   1   63.98    1.92
  -3   5  -1   63.12    1.71
  -3   5  -1   66.04    1.83
   3   5   1   63.99    2.06
  -3   5  -1   66.48    1.75
   3   5   1   63.71    2.01
   3   5   1   63.73    2.09
  -3   5  -1   66.26    2.01
   3   5   1   63.09    1.99
   4  -5   1   48.55    2.06
   4  -5   1   49.69    1.45
  -4  -5  -1   49.01    1.67
  -4  -5  -1   47.56    1.82
  -4  -5  -1   51.90    1.71
   4  -5   1   50.13    1.84
  -4  -5  -1   48.18    1.84
  -4   5  -1   48.99    1.42
  -4   5  -1   49.46    1.50
   4   5   1   50.71    1.67
   4   5   1   51.33    1.76
  -4   5  -1   48.96    1.59
  -4   5  -1   49.24    1.74
   4   5   1   49.93    1.88
  -4   5  -1   50.85    1.56
   4   5   1   50.00    1.79
   4   5   1   51.19    1.86
  -5  -5  -1   21.91    1.10
   5  -5   1   21.57    1.66
   5  -5   1   22.20    1.33
  -5  -5  -1   20.74    1.34
  -5  -5  -1   20.16    1.19
   5   5   1   20.51    1.17
   5   5   1   21.04    1.35
  -5   5  -1   21.49    1.07
  -5   5  -1   22.23    1.18
   5   5   1   19.86    1.42
   5   5   1   22.33    1.49
  -5   5  -1   21.36    0.89
  -5   5  -1   22.07    1.23
   6  -5   1    5.27    0.98
   6  -5   1    7.84    0.98
  -6  -5  -1    6.45    0.87
  -6  -5  -1    6.36    0.89
  -6  -5  -1    6.15    0.87
  -6   5  -1    6.89    0.92
  -6   5  -1    6.50    0.69
   6   5   1    6.12    0.97
  -6   5  -1    7.74    0.96
  -6   5  -1    7.28    0.78
   6   5   1    4.54    0.99
   6   5   1    5.92    0.79
   6   5   1    6.15    0.87
  -7  -5  -1    8.20    0.95
   7  -5   1    9.37    1.27
   7  -5   1   10.83    1.60
   7  -5   1    9.90    1.10
  -7  -5  -1    8.22    0.98
  -7  -5  -1    8.71    1.20
   7   5   1    7.60    1.05
  -7   5  -1    8.82    1.15
   7   5   1    8.42    1.15
  -7   5  -1    8.58    1.10
  -7   5  -1    8.95    1.08
  -7   5  -1    7.97    1.08
  -8  -5  -1   12.37    1.43
  -8  -5  -1   12.48    2.16
   8  -5   1    9.77    1.18
   8  -5   1    8.09    2.04
  -8  -5  -1   10.62    1.11
  -8  -5  -1    9.08    0.99
   8  -5   1    8.02    2.20
   8   5   1    9.58    1.37
   8   5   1   11.22    1.30
  -8   5  -1    9.05    1.03
  -8   5  -1   12.19    1.38
  -8   5  -1   11.28    1.10
  -9  -5  -1    9.10    1.53
   9  -5   1   10.48    1.36
   9  -5   1   11.10    1.41
  -9  -5  -1   11.00    1.91
  -9  -5  -1   10.78    1.47
   9  -5   1    7.93    1.42
   9   5   1   11.72    1.61
  -9   5  -1   13.47    1.61
  -9   5  -1   12.55    1.65
   9   5   1   10.55    1.44
  -9   5  -1   12.19    1.24
  10  -5   1   14.61    1.91
 -10  -5  -1   17.34    2.22
 -10  -5  -1   18.12    1.84
  10  -5   1   11.12    1.54
 -10   5  -1   15.03    1.89
  10   5   1   14.32    1.90
  10   5   1   15.61    1.74
 -10   5  -1   16.25    1.94
  11  -5   1   24.91    2.53
 -11  -5  -1   28.73    2.93
 -11  -5  -1   28.55    2.09
  11  -5   1   20.35    2.93
 -11   5  -1   24.50    2.24
  11   5   1   30.10    3.32
  11   5   1   19.86    2.74
 -11   5  -1   26.52    2.92
  11   6  -1   10.11    2.02
 -11   6   1    6.06    1.51
 -10  -6   1    2.03    1.87
  10  -6  -1    0.46    1.31
 -10  -6   1    2.43    1.20
  10  -6  -1   -0.32    1.66
  10  -6  -1   -0.11    1.58
  10   6  -1    2.30    1.75
 -10   6   1    1.01    1.36
 -10   6   1    0.46    1.64
  10   6  -1    0.83    1.62
   9  -6  -1    0.84    1.37
   9  -6  -1   -0.52    1.18
  -9  -6   1    2.69    1.11
  -9  -6   1    1.57    1.46
   9  -6  -1    1.80    1.41
  -9   6   1    1.20    1.49
  -9   6   1    4.09    1.23
   9   6  -1    2.03    1.48
   9   6  -1    3.07    1.57
  -8  -6   1   37.53    1.79
   8  -6  -1   34.70    2.22
   8  -6  -1   37.29    2.33
  -8  -6   1   37.80    2.40
   8  -6  -1   32.26    2.42
  -8  -6   1   33.41    1.86
  -8   6   1   39.97    2.44
  -8   6   1   33.95    1.96
   8   6  -1   38.56    2.51
   8   6  -1   34.58    2.67
   7  -6  -1   17.44    1.93
   7  -6  -1   17.70    1.75
   7  -6  -1   19.65    1.81
  -7  -6   1   17.53    1.35
  -7  -6   1   20.98    1.53
  -7  -6   1   18.09    1.39
  -7  -6   1   18.59    1.81
   7   6  -1   18.51    2.01
   7   6  -1   18.86    1.98
  -7   6   1   20.84    1.50
  -7   6   1   21.06    1.96
  -7   6   1   19.34    1.52
   6  -6  -1   60.51    2.36
  -6  -6   1   58.35    2.12
  -6  -6   1   56.24    2.46
   6  -6  -1   58.41    2.36
  -6  -6   1   56.93    2.06
  -6  -6   1   60.06    2.30
   6  -6  -1   62.43    2.59
   6   6  -1   57.35    2.45
   6   6  -1   59.39    2.17
  -6   6   1   59.40    2.10
  -6   6   1   59.30    2.36
   6   6  -1   60.05    2.61
  -6   6   1   57.24    2.02
  -5  -6   1   12.66    1.45
   5  -6  -1   13.89    1.58
  -5  -6   1   14.72    1.34
  -5  -6   1   13.06    1.20
  -5  -6   1   12.60    1.05
   5  -6  -1   11.92    1.41
   5   6  -1   11.21    1.42
  -5   6   1   12.63    1.57
  -5   6   1   12.11    1.35
   5   6  -1   13.87    1.58
   5   6  -1   12.77    1.38
   5   6  -1   12.52    1.16
  -5   6   1   12.86    1.10
  -4  -6   1    8.22    1.22
  -4  -6   1   10.01    1.03
   4  -6  -1   11.70    1.32
  -4  -6   1   10.99    0.98
   4  -6  -1   11.57    1.46
  -4  -6   1    9.36    1.18
   4   6  -1   11.91    1.49
  -4   6   1   10.03    1.15
   4   6  -1   11.00    0.98
  -4   6   1   11.66    0.96
   4   6  -1   12.41    1.16
  -4   6   1   11.69    1.04
   4   6  -1   10.09    1.30
   4   6  -1   10.69    1.20
  -4   6   1   10.71    1.25
   3  -6  -1   18.19    1.36
  -3  -6   1   19.83    1.01
  -3  -6   1   18.13    1.23
  -3  -6   1   18.31    1.28
   3  -6  -1   19.73    1.48
   3   6  -1   19.35    1.42
   3   6  -1   19.15    1.16
  -3   6   1   17.88    1.30
   3   6  -1   19.09    1.00
  -3   6   1   18.88    0.99
  -3   6   1   17.22    1.18
  -3   6   1   18.82    1.07
   2  -6  -1   13.11    1.27
   2  -6  -1   14.38    1.22
  -2  -6   1   14.92    0.84
  -2  -6   1   14.10    1.19
   2   6  -1   13.76    0.82
  -2   6   1   14.37    1.08
   2   6  -1   13.44    1.16
  -2   6   1   13.73    1.08
  -2   6   1   14.05    0.96
   2   6  -1   14.70    0.87
   1  -6  -1    6.28    0.88
  -1  -6   1    5.38    0.59
  -1  -6   1    4.10    0.71
  -1  -6   1    4.70    0.51
   1   6  -1    5.37    0.65
  -1   6   1    4.42    0.69
   1   6  -1    4.56    0.58
  -1   6   1    5.52    0.64
   1   6  -1    5.02    0.76
   0  -6  -1   40.24    1.08
   0  -6   1   36.09    1.60
   0  -6   1   39.06    1.24
   0  -6   1   44.52    1.49
   0  -6   1   40.71    1.24
   0  -6  -1   39.64    1.07
   0  -6  -1   40.24    1.68
   0   6  -1   39.00    1.20
   0   6   1   34.00    2.18
   0   6   1   38.29    1.36
   0   6  -1   39.47    1.20
   0   6   1   38.79    1.58
   0   6  -1   39.06    1.58
   1  -6   1   62.86    1.68
   1  -6   1   62.97    1.70
  -1  -6  -1   65.09    1.79
  -1  -6  -1   63.81    1.77
  -1  -6  -1   64.25    2.15
   1  -6   1   62.80    2.18
  -1   6  -1   62.37    2.10
   1   6   1   61.18    2.10
  -1   6  -1   63.95    1.75
   1   6   1   63.16    1.90
   1   6   1   62.93    2.03
  -1   6  -1   64.11    1.74
   2  -6   1  216.51    5.13
   2  -6   1  211.93    5.60
   2  -6   1  223.13    5.07
  -2  -6  -1  213.71    5.34
  -2  -6  -1  215.19    5.67
  -2  -6  -1  211.85    5.51
   2   6   1  213.25    5.46
   2   6   1  220.00    5.45
  -2   6  -1  212.24    5.47
   2   6   1  212.03    5.30
  -2   6  -1  212.66    5.18
  -3  -6  -1   12.13    1.02
  -3  -6  -1   12.15    1.31
   3  -6   1   10.79    1.41
  -3  -6  -1    9.12    1.08
   3  -6   1    8.14    0.97
  -3   6  -1   11.20    0.73
  -3   6  -1   10.69    0.84
   3   6   1   11.72    1.20
   3   6   1   10.83    1.19
   3   6   1   12.50    1.00
  -3   6  -1   10.91    1.13
   4  -6   1   18.72    1.66
  -4  -6  -1   17.86    1.31
   4  -6   1   18.80    1.43
  -4  -6  -1   17.69    1.21
  -4  -6  -1   18.03    1.14
  -4  -6  -1   18.54    1.44
  -4   6  -1   15.95    1.05
   4   6   1   18.15    1.43
  -4   6  -1   17.04    1.01
   4   6   1   17.66    1.29
   4   6   1   15.56    1.40
   4   6   1   18.12    1.18
   4   6   1   18.83    1.38
  -4   6  -1   17.39    1.22
  -4   6  -1   15.65    0.72
  -5  -6  -1    1.91    0.88
   5  -6   1    1.62    0.99
  -5  -6  -1    1.19    0.84
   5  -6   1    2.14    0.87
  -5  -6  -1    1.34    0.68
  -5  -6  -1    2.00    0.65
  -5   6  -1    2.13    0.75
  -5   6  -1    2.67    0.73
   5   6   1    2.37    0.81
  -5   6  -1    1.60    0.63
   5   6   1    1.53    0.95
   5   6   1    2.03    0.74
   5   6   1    1.98    0.88
  -6  -6  -1   14.86    1.27
   6  -6   1   15.00    1.87
  -6  -6  -1   15.08    1.52
  -6  -6  -1   16.14    1.48
   6  -6   1   14.86    1.59
  -6  -6  -1   13.21    1.59
   6   6   1   13.62    1.33
  -6   6  -1   11.35    1.25
   6   6   1   17.07    1.69
   6   6   1   15.36    1.64
  -6   6  -1   12.94    1.53
  -6   6  -1   12.83    1.23
  -6   6  -1   14.09    1.04
   6   6   1   13.50    1.76
   7  -6   1   31.34    1.88
  -7  -6  -1   26.46    1.45
  -7  -6  -1   27.99    1.75
   7  -6   1   25.06    3.06
   7  -6   1   26.84    2.72
  -7  -6  -1   27.65    2.04
   7   6   1   28.85    2.08
  -7   6  -1   29.16    1.67
   7   6   1   30.42    2.22
  -7   6  -1   28.87    1.98
  -8  -6  -1   16.18    1.69
  -8  -6  -1   18.44    2.08
   8  -6   1   16.31    2.00
   8  -6   1   17.71    2.28
  -8  -6  -1   19.47    1.60
   8   6   1   22.27    2.28
  -8   6  -1   17.53    1.70
   8   6   1   16.82    2.25
  -8   6  -1   20.54    2.03
  -9  -6  -1   11.99    1.77
   9  -6   1   10.71    1.58
  -9  -6  -1   12.93    1.70
   9  -6   1    9.87    1.79
   9  -6   1   10.77    1.56
  -9   6  -1   16.32    1.93
   9   6   1    9.30    1.59
   9   6   1    9.76    1.66
 -10  -6  -1    3.50    1.80
  10  -6   1    0.09    1.70
  10  -6   1    3.66    1.53
 -10  -6  -1    4.89    1.35
  10   6   1    2.70    1.60
  10   6   1    5.19    1.82
 -10   6  -1    2.63    1.40
  11   6   1    0.77    1.70
  11   6   1    2.36    2.09
 -10  -7   1    1.17    1.79
  10  -7  -1   -1.37    1.81
  10  -7  -1   -1.26    1.64
 -10  -7   1    0.38    1.18
  10  -7  -1    0.47    1.29
 -10   7   1    1.52    1.48
  10   7  -1    1.56    2.07
   9  -7  -1   14.86    1.95
  -9  -7   1   13.95    2.08
   9  -7  -1   12.88    1.90
  -9  -7   1   16.32    1.91
   9  -7  -1   14.00    1.67
  -9   7   1   14.13    1.68
   9   7  -1   19.60    2.81
   9   7  -1   18.84    2.31
  -8  -7   1   15.34    1.70
   8  -7  -1   17.27    2.16
  -8  -7   1   14.68    1.64
   8  -7  -1   18.10    1.93
   8  -7  -1   17.05    2.25
  -8  -7   1   14.86    1.93
  -8   7   1   21.18    1.96
   8   7  -1   15.94    1.95
   8   7  -1   16.27    2.41
   7  -7  -1   11.19    1.54
   7  -7  -1    8.57    1.43
   7  -7  -1    8.50    1.29
  -7  -7   1    8.61    1.18
  -7  -7   1   10.90    1.29
  -7  -7   1   11.59    1.44
  -7  -7   1    8.26    1.54
   7   7  -1    9.33    1.40
  -7   7   1   10.42    1.40
   7   7  -1   10.84    1.58
  -7   7   1    9.85    1.42
   6  -7  -1    3.40    1.25
  -6  -7   1    3.53    0.94
  -6  -7   1    3.15    1.22
  -6  -7   1    3.26    1.09
  -6  -7   1    2.99    0.86
   6  -7  -1    3.75    1.20
  -6   7   1    2.39    1.12
   6   7  -1    2.70    1.08
   6   7  -1    3.66    1.85
  -6   7   1    4.40    1.00
   6   7  -1    2.48    1.23
  -5  -7   1   14.14    1.54
  -5  -7   1   13.48    1.21
   5  -7  -1    9.64    1.31
  -5  -7   1   11.58    1.45
  -5  -7   1   14.30    1.64
  -5   7   1   12.35    1.36
   5   7  -1   14.05    1.38
  -5   7   1   13.12    1.57
  -5   7   1   14.48    1.23
   5   7  -1   12.82    1.59
   5   7  -1   12.48    1.75
   4  -7  -1   14.96    1.58
  -4  -7   1   13.54    1.40
  -4  -7   1   12.91    1.36
  -4  -7   1   14.55    1.12
   4  -7  -1   14.28    1.74
  -4  -7   1   11.67    1.46
  -4   7   1   13.26    1.11
  -4   7   1   15.07    1.50
   4   7  -1   12.69    1.50
  -4   7   1   12.98    1.24
  -4   7   1   13.57    1.43
   4   7  -1   12.68    1.46
   4   7  -1   14.99    1.25
  -3  -7   1   56.02    1.84
   3  -7  -1   56.11    2.29
   3  -7  -1   55.06    2.28
  -3  -7   1   53.54    2.06
  -3  -7   1   54.91    2.28
  -3  -7   1   53.81    2.20
   3   7  -1   56.28    1.85
  -3   7   1   55.53    1.93
   3   7  -1   55.64    2.13
  -3   7   1   55.99    2.19
   3   7  -1   54.91    1.99
  -3   7   1   55.42    2.04
  -2  -7   1    6.58    1.01
   2  -7  -1    6.77    1.06
  -2  -7   1    5.47    0.65
   2  -7  -1    5.60    0.94
  -2  -7   1    7.08    0.98
  -2   7   1    5.93    0.78
  -2   7   1    5.01    0.94
   2   7  -1    6.23    0.93
  -2   7   1    5.29    0.82
   2   7  -1    5.80    0.69
  -1  -7   1   69.25    2.01
  -1  -7   1   73.26    2.02
  -1  -7   1   70.74    2.50
   1  -7  -1   70.95    2.52
  -1   7   1   71.05    2.47
  -1   7   1   70.19    2.17
   1   7  -1   71.03    2.43
   1   7  -1   70.18    2.01
   1   7  -1   73.10    2.07
  -1   7   1   71.56    2.27
   0  -7  -1   10.00    1.29
   0  -7   1    6.18    0.90
   0  -7   1    5.71    0.57
   0   7  -1    6.50    0.64
   0   7   1    5.85    0.93
   0   7   1    6.39    0.75
   0   7  -1    6.90    0.92
   0   7  -1    6.57    0.64
   0   7   1    5.36    0.85
   1  -7   1   20.53    1.51
  -1  -7  -1   24.81    0.84
  -1  -7  -1   21.07    1.54
   1   7   1   23.01    1.25
  -1   7  -1   23.34    1.09
   1   7   1   19.35    1.52
  -1   7  -1   22.83    0.92
   1   7   1   25.80    1.40
  -1   7  -1   21.96    1.45
  -2  -7  -1    1.81    1.03
  -2  -7  -1    2.58    0.83
  -2  -7  -1    2.46    0.43
   2  -7   1    2.46    0.90
  -2   7  -1    0.89    0.39
   2   7   1    3.28    0.91
   2   7   1    2.84    0.70
  -2   7  -1    2.36    0.79
   2   7   1    1.21    0.84
  -2   7  -1    1.59    0.57
   3  -7   1    0.38    0.92
  -3  -7  -1    0.94    0.91
  -3  -7  -1    1.69    0.72
   3  -7   1   -0.37    0.91
  -3  -7  -1    0.40    0.73
  -3   7  -1    0.21    0.72
   3   7   1   -0.32    0.68
   3   7   1    0.81    0.89
  -3   7  -1   -0.40    0.59
   3   7   1    1.22    0.88
   4  -7   1    7.95    1.20
  -4  -7  -1    6.71    0.89
  -4  -7  -1    7.06    0.96
  -4  -7  -1    5.58    1.09
  -4  -7  -1    5.93    1.03
   4  -7   1    6.34    1.22
  -4   7  -1    6.62    0.80
   4   7   1    6.97    1.15
  -4   7  -1    7.60    0.98
   4   7   1    6.31    0.87
  -5  -7  -1    0.26    0.75
  -5  -7  -1    0.47    0.79
  -5  -7  -1    0.21    0.98
   5  -7   1    1.08    1.04
  -5  -7  -1    0.27    0.99
   5  -7   1   -0.42    1.14
   5   7   1    1.20    1.09
  -5   7  -1    1.71    0.78
  -5   7  -1   -0.32    0.80
   5   7   1   -0.76    0.92
   5   7   1    1.65    0.84
  -6  -7  -1    9.66    1.62
   6  -7   1    8.02    1.26
  -6  -7  -1    8.75    1.37
  -6  -7  -1    9.68    1.25
  -6  -7  -1    9.10    1.02
   6  -7   1    9.27    1.51
   6   7   1    9.33    1.13
  -6   7  -1    7.39    1.08
   6   7   1    7.69    1.34
   6   7   1    8.25    1.22
  -6   7  -1    8.01    1.01
   6   7   1    7.34    1.38
  -7  -7  -1    8.21    1.53
  -7  -7  -1   11.01    1.36
  -7  -7  -1   10.85    1.45
   7  -7   1    6.58    1.48
   7  -7   1   13.72    1.54
   7  -7   1    5.96    1.26
  -7  -7  -1    9.87    1.45
   7   7   1    9.36    1.49
  -7   7  -1   10.17    1.15
   7   7   1   10.64    1.43
   8  -7   1    2.23    1.39
  -8  -7  -1    2.09    1.10
  -8  -7  -1    3.56    1.15
   8  -7   1    1.72    1.39
   8  -7   1    2.87    1.59
  -8  -7  -1    1.55    1.43
   8   7   1    4.93    1.64
   8   7   1    7.41    1.51
  -8   7  -1    2.74    1.92
  -9  -7  -1    3.11    1.27
   9  -7   1    1.37    1.65
  -9  -7  -1    3.10    1.76
   9  -7   1    5.71    1.68
   9  -7   1    2.45    1.43
   9   7   1    2.20    2.88
   9   7   1    3.68    1.67
  10   7   1    5.65    1.72
   9  -8  -1   -0.96    1.48
  -9  -8   1    1.82    1.74
   9  -8  -1   -1.60    1.59
  -9  -8   1    1.74    1.07
   9   8  -1   -0.51    1.80
  -8  -8   1    2.44    1.12
   8  -8  -1    1.23    1.58
   8  -8  -1   -0.28    1.60
  -8  -8   1    3.69    1.72
   8  -8  -1    2.96    1.37
   8   8  -1   -1.08    1.65
   8   8  -1    0.95    1.87
  -7  -8   1    0.49    1.01
   7  -8  -1   -0.30    1.37
  -7  -8   1    0.99    1.01
   7  -8  -1   -2.20    1.45
   7  -8  -1   -2.71    1.23
  -7  -8   1    2.71    1.46
   7   8  -1   -1.82    1.52
  -7   8   1   -2.07    1.23
  -6  -8   1    1.48    1.25
  -6  -8   1    2.09    0.96
   6  -8  -1    1.85    1.33
  -6  -8   1    3.83    1.06
   6  -8  -1    3.38    1.45
   6   8  -1   -0.28    1.29
   5  -8  -1    0.80    1.42
  -5  -8   1    1.43    0.84
  -5  -8   1    1.63    1.49
  -5  -8   1    1.27    1.16
  -5  -8   1    2.59    1.03
   5  -8  -1    1.38    1.17
  -5   8   1   -0.61    0.98
   5   8  -1   -0.66    1.13
  -4  -8   1    2.27    1.07
   4  -8  -1    4.93    1.25
  -4  -8   1    4.62    1.09
   4  -8  -1    2.95    1.22
  -4  -8   1    5.20    0.88
   4   8  -1    3.55    1.20
  -4   8   1    2.90    0.96
   4   8  -1    3.52    0.92
   3  -8  -1   26.09    1.98
   3  -8  -1   29.12    2.09
  -3  -8   1   26.28    1.91
  -3  -8   1   22.64    2.09
  -3  -8   1   28.07    2.07
  -3   8   1   25.72    1.58
   3   8  -1   28.33    1.68
   3   8  -1   26.86    1.92
  -2  -8   1    2.98    0.68
   2  -8  -1    1.37    1.05
   2  -8  -1    1.59    1.03
   2   8  -1    2.47    0.74
   2   8  -1    1.15    1.61
  -2   8   1    2.36    0.86
  -2   8   1   -0.13    0.97
   1  -8  -1   35.18    2.06
   1  -8  -1   33.84    2.89
  -1  -8   1   35.62    1.51
  -1   8   1   36.80    1.65
  -1   8   1   33.44    2.27
   1   8  -1   33.63    1.46
   1   8  -1   32.39    2.98
  -1   8   1   33.01    2.02
   0  -8  -1    6.72    1.60
   0   8   1    6.11    1.70
   0   8  -1    4.76    1.75
   0   8   1   10.13    1.26
   0   8   1    8.99    1.02
   0   8  -1    7.83    0.78
  -1  -8  -1    6.68    1.17
   1  -8   1    4.68    1.20
   1   8   1    7.26    1.99
  -1   8  -1    6.86    1.20
   1   8   1    4.86    0.91
   1   8   1    6.80    1.05
  -1   8  -1    5.07    0.83
   2  -8   1   12.04    1.64
  -2  -8  -1   12.04    1.60
  -2  -8  -1    9.86    2.57
   2  -8   1   10.88    1.36
  -2   8  -1   11.14    1.24
   2   8   1   11.77    1.35
   2   8   1   14.35    1.61
   2   8   1   13.32    2.13
   3  -8   1   23.54    2.15
   3  -8   1   24.77    1.97
  -3  -8  -1   22.95    1.43
  -3  -8  -1   23.47    2.08
  -3  -8  -1   23.19    1.70
   3   8   1   23.32    1.59
  -3   8  -1   24.08    1.74
   3   8   1   24.61    1.93
  -4  -8  -1    2.58    0.87
  -4  -8  -1    4.66    1.31
   4  -8   1    1.29    1.18
  -4   8  -1    1.62    0.99
   4   8   1    1.58    0.97
   4   8   1    2.55    1.26
  -5  -8  -1   27.86    2.11
  -5  -8  -1   26.22    2.65
  -5  -8  -1   24.56    2.40
   5  -8   1   31.26    2.32
   5  -8   1   24.37    2.46
  -5  -8  -1   24.96    2.16
  -5   8  -1   25.26    1.98
   5   8   1   28.36    2.30
   5   8   1   30.02    2.22
  -6  -8  -1    9.29    1.48
   6  -8   1    8.88    1.60
  -6  -8  -1    6.38    1.07
   6  -8   1    7.87    1.69
  -6  -8  -1   11.13    1.53
  -6  -8  -1    5.48    1.37
   6   8   1    5.59    1.24
  -6   8  -1    7.85    1.37
  -7  -8  -1    2.57    1.08
  -7  -8  -1    0.99    1.38
   7  -8   1    2.67    1.51
  -7  -8  -1    5.81    1.38
   7  -8   1   -1.26    1.33
   7  -8   1    3.11    1.69
   7   8   1    0.90    1.56
  -8  -8  -1    3.31    1.17
   8  -8   1    3.39    1.60
   8  -8   1    3.17    1.83
  -8  -8  -1    2.38    1.84
   8  -8   1    1.46    1.54
   8   8   1    1.66    1.71
   9  -8   1    3.18    2.00
  -9  -8  -1    3.24    1.93
   7  -9  -1    3.45    1.49
   7  -9  -1    8.77    2.35
   6  -9  -1    5.40    1.56
   6  -9  -1    3.44    1.40
  -6  -9   1    6.39    1.54
  -6  -9   1    5.70    1.37
   6  -9  -1    8.88    1.75
   5  -9  -1    6.36    1.59
  -5  -9   1    3.72    1.27
   5  -9  -1    1.43    1.41
  -5  -9   1    3.85    1.45
   5   9  -1    0.32    1.52
  -4  -9   1   30.94    2.19
   4  -9  -1   25.77    2.55
  -4  -9   1   24.67    2.53
   4  -9  -1   26.55    2.36
   4   9  -1   24.70    2.38
  -3  -9   1    0.03    1.39
  -3  -9   1    3.07    1.21
   3  -9  -1    1.88    1.28
   3  -9  -1    3.01    1.40
   3   9  -1    0.41    1.36
   2  -9  -1    9.01    1.52
  -2  -9   1    8.69    1.34
  -2  -9   1    6.15    1.55
   2  -9  -1    4.99    1.37
   2   9  -1    6.73    1.37
  -1  -9   1    2.24    1.23
   1  -9  -1    4.69    1.27
   1  -9  -1    2.43    1.21
   1   9  -1    2.17    1.29
   0  -9   1    1.01    1.28
   0  -9  -1    3.17    1.14
   0   9  -1   -1.17    1.08
  -1  -9  -1    3.00    1.23
   1  -9   1    3.90    1.37
  -1  -9  -1    2.94    1.50
  -1   9  -1    3.25    1.25
   1   9   1    5.73    1.20
  -2  -9  -1   29.60    2.45
   2  -9   1   29.56    2.33
  -2  -9  -1   29.04    2.16
   2  -9   1   22.13    2.45
  -2   9  -1   26.26    2.16
   2   9   1   26.69    1.84
   3  -9   1    5.10    1.53
  -3  -9  -1    6.43    1.63
   3  -9   1    9.07    1.62
  -3  -9  -1   10.16    1.42
  -3  -9  -1    7.75    1.09
  -3   9  -1    6.63    1.43
   3   9   1    5.56    1.26
  -4  -9  -1   23.63    2.48
  -4  -9  -1   22.78    1.58
   4  -9   1   18.52    2.48
   4  -9   1   23.87    2.35
  -4  -9  -1   23.11    2.04
  -4   9  -1   21.32    2.27
   5  -9   1   -0.52    1.62
  -5  -9  -1    2.07    1.60
  -5  -9  -1    2.67    0.96
  -5  -9  -1    3.23    1.19
   5  -9   1    3.02    1.62
  -5   9  -1   -0.60    1.72
   6  -9   1    2.87    1.53
  -6  -9  -1    0.41    1.49
  -6  -9  -1    5.37    1.15
   6  -9   1    4.14    1.72
  -6  -9  -1    5.74    1.29
   7  -9   1    4.00    1.66
  -7  -9  -1    3.59    1.11
  -5 -10   1    3.08    1.54
  -4 -10   1    2.64    1.37
  -4 -10   1   -2.37    1.57
  -3 -10   1   21.08    2.38
  -3 -10   1   18.85    2.18
   3 -10  -1   18.98    2.18
   3  10  -1   13.74    1.83
  -2 -10   1    4.84    1.88
  -2 -10   1    3.65    1.53
   2 -10  -1    3.65    1.51
   2  10  -1    0.41    1.49
   1 -10  -1    5.06    1.58
  -1 -10   1    5.01    1.56
   1  10  -1    2.91    1.59
   0 -10  -1    6.28    1.54
   0 -10   1    1.98    1.51
   0 -10  -1    1.67    1.79
   0  10  -1    3.39    1.46
   1 -10   1    2.00    1.47
  -1 -10  -1    4.58    1.90
   1 -10   1    4.33    1.45
  -1 -10  -1    3.13    1.47
  -1  10  -1    0.62    1.47
  -2 -10  -1   16.06    2.09
   2 -10   1   16.44    2.27
  -2 -10  -1   18.80    2.31
   2 -10   1   14.59    1.81
  -2  10  -1   12.62    1.70
   3 -10   1    1.27    1.42
  -3 -10  -1    1.65    1.32
  -3 -10  -1   -0.41    1.67
   3 -10   1   -1.60    1.63
  -3  10  -1   -0.17    1.42
  -4 -10  -1    2.77    1.68
   4 -10   1    1.73    1.65
  -4 -10  -1    4.17    1.29
   5 -10   1    4.07    1.99
 -13   0   2    4.68    2.05
 -13   0   2    1.58    1.23
  13   0  -2    2.56    1.82
  12   0  -2   12.62    1.72
 -12   0   2   14.89    1.75
 -12   0   2   12.60    2.02
  12   0  -2   14.48    2.08
 -11   0   2   -0.33    0.98
  11   0  -2    1.44    1.10
  11   0  -2    1.07    1.48
 -11   0   2    1.43    1.50
  10   0  -2  107.45    5.48
 -10   0   2  120.95    4.01
  10   0  -2  116.36    3.34
  -9   0   2   10.75    1.33
   9   0  -2    8.51    1.19
   9   0  -2   10.27    1.47
   9   0  -2    8.30    1.09
  -9   0   2    8.32    1.09
   8   0  -2    0.56    0.56
  -8   0   2    0.68    0.64
   8   0  -2    0.29    0.72
   8   0  -2   -0.60    0.82
   7   0  -2    0.64    0.71
  -7   0   2    0.69    0.26
   7   0  -2    0.84    0.50
  -7   0   2    0.66    0.53
   7   0  -2    0.20    0.58
   7   0  -2    1.15    0.36
  -6   0   2   59.46    1.51
   6   0  -2   61.27    1.53
   6   0  -2   58.12    1.91
  -6   0   2   56.42    1.77
   6   0  -2   58.37    2.02
   6   0  -2   57.78    1.37
   6   0  -2   58.42    1.73
   5   0  -2    8.81    0.62
   5   0  -2    9.47    0.45
   5   0  -2    8.80    0.81
   5   0  -2    8.84    0.75
  -5   0   2    8.85    0.38
   5   0  -2    9.41    0.41
  -5   0   2    8.55    0.64
  -4   0   2    0.38    0.33
   4   0  -2    0.31    0.30
  -4   0   2    0.10    0.31
   4   0  -2    0.22    0.16
   4   0  -2    0.18    0.34
   4   0  -2    0.33    0.16
   4   0  -2    0.08    0.38
   3   0  -2  191.19    4.49
  -3   0   2  198.18    4.51
   3   0  -2  188.88    4.53
   3   0  -2  182.44    4.50
  -3   0   2  181.51    4.49
   3   0  -2  179.61    4.38
  -3   0   2  189.12    4.57
  -3   0   2  191.17    4.61
   3   0  -2  184.17    4.57
  -3   0   2  189.38    4.51
   2   0  -2  455.64   10.65
   2   0  -2  464.74   10.58
   2   0  -2  451.69   10.63
  -2   0   2  451.77   10.58
   2   0  -2  447.78   10.60
  -2   0   2  457.43   10.66
  -2   0   2  454.85   10.62
  -2   0   2  453.31   10.58
  -2   0   2  473.67   10.61
   1   0  -2  535.52   12.70
   1   0  -2  565.78   12.74
   0   0  -2   59.57    1.47
   0   0  -2   59.17    1.45
   0   0  -2   58.80    1.55
   0   0   2   61.01    1.47
   0   0   2   61.58    1.48
   0   0   2   58.75    1.45
   0   0   2   62.60    1.51
   0   0  -2   59.56    1.51
   0   0   2   56.81    1.49
   0   0  -2   59.74    1.50
   0   0  -2   61.26    1.47
   0   0   2   59.72    1.47
   0   0  -2   60.50    1.49
   0   0   2   61.55    1.49
   0   0   2   59.72    1.56
  -1   0  -2   43.58    1.21
   1   0   2   43.33    1.05
   1   0   2   42.38    1.18
  -1   0  -2   43.86    1.18
   1   0   2   43.14    1.11
   1   0   2   43.16    1.19
   1   0   2   43.96    1.13
   1   0   2   42.65    1.27
  -1   0  -2   46.22    1.28
   1   0   2   43.01    1.17
  -1   0  -2   45.01    1.11
  -1   0  -2   42.63    1.12
   2   0   2   46.91    1.43
  -2   0  -2   48.56    1.43
  -2   0  -2   48.40    1.36
   2   0   2   46.72    1.13
   2   0   2   47.92    1.37
   2   0   2   48.84    1.37
  -2   0  -2   49.10    1.36
  -2   0  -2   50.33    1.28
   2   0   2   50.66    1.39
   2   0   2   48.59    1.33
  -2   0  -2   47.92    1.37
  -2   0  -2   48.58    1.22
  -3   0  -2   15.81    0.49
   3   0   2   16.59    0.44
  -3   0  -2   15.71    0.60
   3   0   2   15.85    0.73
   3   0   2   16.50    0.74
   3   0   2   16.78    0.65
  -3   0  -2   15.38    0.65
  -3   0  -2   16.73    0.74
   3   0   2   15.01    0.78
  -3   0  -2   16.15    0.43
   3   0   2   16.53    0.73
  -3   0  -2   15.38    0.73
  -3   0  -2   15.88    0.73
  -4   0  -2  119.22    2.82
   4   0   2  118.57    3.08
   4   0   2  123.24    3.16
   4   0   2  122.76    3.15
  -4   0  -2  114.69    3.06
  -4   0  -2  119.64    2.82
  -4   0  -2  119.53    3.02
   4   0   2  119.22    2.83
   4   0   2  123.31    3.08
   5   0   2   15.02    0.93
   5   0   2   14.47    0.50
   5   0   2   15.72    1.03
  -5   0  -2   13.77    0.75
  -5   0  -2   13.98    0.82
  -5   0  -2   15.06    0.41
  -5   0  -2   15.12    0.48
   6   0   2    8.64    0.95
   6   0   2    7.78    0.85
   6   0   2    7.86    0.42
  -6   0  -2    8.37    0.39
  -6   0  -2    7.42    0.76
  -7   0  -2   11.54    1.02
  -7   0  -2   14.00    0.53
   7   0   2   10.54    1.35
   7   0   2   11.35    1.20
  -7   0  -2   12.91    0.98
   8   0   2   64.95    2.38
  -8   0  -2   63.55    2.17
   8   0   2   68.13    2.48
  -8   0  -2   65.37    2.16
  -9   0  -2    7.39    0.96
  -9   0  -2    6.37    0.85
   9   0   2    4.63    0.94
   9   0   2    7.29    1.25
 -10   0  -2   52.58    2.26
  10   0   2   59.66    2.84
  10   0   2   54.78    2.52
 -11   0  -2   14.32    1.78
  11   0   2   11.28    1.52
  11   0   2   12.61    1.69
  12   0   2    6.78    2.00
  12   0   2    9.86    1.71
 -12   0  -2    9.89    1.57
 -13  -1   2    2.59    1.92
 -13   1   2    2.80    1.32
 -13   1   2    3.52    2.15
 -12  -1   2    8.24    1.52
  12  -1  -2    8.34    1.55
 -12  -1   2   10.47    2.09
  12  -1  -2    9.77    2.04
  12   1  -2    8.46    1.94
  12   1  -2    7.25    1.62
 -12   1   2    9.63    1.88
 -12   1   2    8.09    1.49
  11  -1  -2   19.98    1.81
 -11  -1   2   19.35    1.64
 -11  -1   2   17.66    2.33
  11  -1  -2   18.28    2.47
  11  -1  -2   21.59    2.06
  11   1  -2   25.09    2.55
 -11   1   2   17.52    2.35
  11   1  -2   19.92    2.13
 -11   1   2   20.48    1.79
  10  -1  -2   19.94    2.46
  10  -1  -2   19.48    2.76
  10  -1  -2   19.22    1.49
 -10  -1   2   18.06    1.82
  10   1  -2   19.85    2.81
  10   1  -2   21.59    2.13
 -10   1   2   19.87    2.04
 -10   1   2   19.43    1.96
   9  -1  -2   14.23    1.56
  -9  -1   2   14.06    1.65
   9  -1  -2   14.03    1.74
   9  -1  -2   13.14    1.21
  -9  -1   2   12.76    1.27
   9   1  -2   13.02    1.56
   9   1  -2   12.91    1.77
  -9   1   2   12.81    1.57
  -9   1   2   13.26    1.33
  -8  -1   2   26.72    1.35
   8  -1  -2   28.64    1.76
  -8  -1   2   29.13    0.87
  -8  -1   2   28.11    1.73
   8  -1  -2   27.68    1.32
   8  -1  -2   28.62    1.61
   8   1  -2   27.76    1.52
  -8   1   2   27.73    1.41
   8   1  -2   26.97    1.80
   7  -1  -2  109.95    3.18
   7  -1  -2  111.34    3.02
   7  -1  -2  110.52    3.35
  -7  -1   2  117.37    2.71
  -7  -1   2  114.61    3.08
   7  -1  -2  110.83    2.86
   7  -1  -2  105.06    2.60
   7   1  -2  117.85    3.32
  -7   1   2  110.36    3.13
   7   1  -2  118.52    3.46
  -6  -1   2   38.64    1.01
   6  -1  -2   36.25    1.52
  -6  -1   2   37.20    1.33
   6  -1  -2   36.20    1.35
   6  -1  -2   37.37    1.48
   6  -1  -2   38.30    1.17
   6  -1  -2   37.18    0.99
   6  -1  -2   38.02    0.99
   6   1  -2   37.62    0.94
   6   1  -2   36.79    1.48
   6   1  -2   37.00    1.26
   6   1  -2   36.54    1.53
   5  -1  -2  105.47    2.42
  -5  -1   2  100.93    2.39
   5  -1  -2   89.70    2.87
   5  -1  -2   98.02    2.63
  -5  -1   2  103.03    2.39
   5  -1  -2  103.29    2.51
  -5  -1   2  101.20    2.66
   5  -1  -2   96.70    2.79
   5   1  -2  101.85    2.61
   5   1  -2   97.52    2.79
   5   1  -2  100.18    2.40
   5   1  -2  100.78    2.74
  -4  -1   2   62.97    1.79
  -4  -1   2   64.46    1.59
   4  -1  -2   69.33    1.71
  -4  -1   2   64.96    1.78
   4  -1  -2   64.35    1.92
  -4  -1   2   64.72    1.63
   4  -1  -2   68.06    1.84
   4  -1  -2   66.53    1.85
   4  -1  -2   68.56    1.66
  -4   1   2   65.08    1.76
   4   1  -2   63.90    1.76
   4   1  -2   63.48    1.92
  -4   1   2   71.97    1.97
  -4   1   2   63.69    1.76
   4   1  -2   63.95    1.61
   4   1  -2   60.08    1.81
  -3  -1   2   68.66    1.90
  -3  -1   2   71.01    1.69
   3  -1  -2   64.64    1.79
   3  -1  -2   67.72    1.84
  -3  -1   2   66.82    1.78
  -3  -1   2   67.28    1.95
  -3  -1   2   70.59    1.63
   3  -1  -2   66.14    1.86
  -3  -1   2   67.27    1.80
   3  -1  -2   70.37    1.73
   3  -1  -2   68.41    1.79
  -3  -1   2   69.88    1.84
  -3   1   2   64.32    1.75
   3   1  -2   68.99    1.69
  -3   1   2   68.10    1.84
   3   1  -2   66.89    1.84
   3   1  -2   67.83    1.91
   3   1  -2   68.38    1.80
  -3   1   2   67.56    1.85
  -3   1   2   67.27    1.80
   3   1  -2   69.52    1.77
  -3   1   2   68.98    1.81
  -3   1   2   67.80    1.80
  -2  -1   2  674.51   15.98
  -2  -1   2  679.04   15.88
   2  -1  -2  708.70   15.88
  -2  -1   2  698.73   15.94
   2  -1  -2  689.06   15.89
  -2  -1   2  676.04   15.90
   2   1  -2  669.45   15.82
  -2   1   2  667.58   15.81
   2   1  -2  701.43   15.86
  -2   1   2  694.69   15.77
   2   1  -2  676.64   15.73
  -2   1   2  684.23   15.77
   0  -1  -2  601.31   13.33
   0  -1   2  579.13   13.36
   0  -1   2  563.33   13.34
   0  -1  -2  572.56   13.34
   0  -1   2  548.88   13.39
   0  -1  -2  604.65   13.39
   0  -1   2  583.47   13.39
   0  -1  -2  574.82   13.35
   0   1  -2  571.01   13.76
   0   1   2  618.36   13.75
  -2  -1  -2   90.32    2.26
   2  -1   2   84.80    2.23
   2  -1   2   85.35    2.28
  -2  -1  -2   88.17    2.28
   2  -1   2   82.18    2.26
  -2  -1  -2   86.79    2.03
  -2  -1  -2   88.54    2.14
   2  -1   2   86.30    2.11
  -2  -1  -2   88.58    2.24
   2  -1   2   81.56    2.10
  -2  -1  -2   91.61    2.17
   2  -1   2   82.89    2.17
  -2  -1  -2   89.03    2.17
   2   1   2   83.55    2.08
  -2   1  -2   79.44    2.02
  -2   1  -2   81.07    2.04
  -2   1  -2   81.29    2.17
   2   1   2   82.70    2.10
   2   1   2   85.96    2.19
  -2   1  -2   84.62    2.09
  -2   1  -2   80.50    2.02
   2   1   2   86.85    2.15
   2   1   2   86.74    2.10
   3  -1   2   37.40    1.20
  -3  -1  -2   36.89    1.08
  -3  -1  -2   37.31    0.90
   3  -1   2   35.63    1.24
  -3  -1  -2   36.22    1.16
  -3  -1  -2   37.87    0.90
   3  -1   2   33.22    1.22
  -3  -1  -2   35.78    1.24
  -3  -1  -2   37.35    1.15
  -3  -1  -2   36.96    1.23
   3  -1   2   36.07    1.00
  -3  -1  -2   38.31    1.12
   3  -1   2   36.89    0.99
   3   1   2   36.11    1.11
   3   1   2   38.04    1.17
  -3   1  -2   35.70    0.97
  -3   1  -2   36.09    1.23
  -3   1  -2   35.88    1.17
  -3   1  -2   33.56    1.09
   3   1   2   34.79    1.14
  -3   1  -2   34.77    0.96
   3   1   2   36.26    1.22
  -3   1  -2   35.10    1.20
  -3   1  -2   36.19    1.01
  -3   1  -2   35.66    1.02
   4  -1   2    6.14    0.69
  -4  -1  -2    4.75    0.50
   4  -1   2    5.65    0.35
  -4  -1  -2    4.93    0.30
   4  -1   2    4.94    0.38
  -4  -1  -2    5.07    0.24
  -4  -1  -2    5.20    0.29
   4  -1   2    6.15    0.74
  -4  -1  -2    4.05    0.54
   4   1   2    4.74    0.64
  -4   1  -2    5.56    0.32
   4   1   2    4.97    0.57
  -4   1  -2    5.50    0.34
  -4   1  -2    4.91    0.58
  -4   1  -2    5.57    0.46
   4   1   2    4.75    0.60
   4   1   2    4.50    0.48
   4   1   2    4.71    0.58
  -5  -1  -2   28.52    0.74
  -5  -1  -2   27.74    0.72
   5  -1   2   29.20    1.34
  -5  -1  -2   27.46    0.73
  -5  -1  -2   26.82    1.04
   5  -1   2   27.52    0.86
  -5  -1  -2   26.04    1.05
   5  -1   2   26.13    1.14
   5  -1   2   28.11    0.78
  -5   1  -2   27.64    0.77
   5   1   2   26.74    1.14
  -5   1  -2   27.58    1.07
   5   1   2   26.54    1.20
  -5   1  -2   28.13    0.82
  -5   1  -2   28.04    0.99
   5   1   2   24.40    1.29
  -6  -1  -2   40.16    1.04
   6  -1   2   38.11    1.64
   6  -1   2   39.70    1.16
  -6  -1  -2   39.54    1.45
   6  -1   2   40.37    1.60
  -6   1  -2   41.00    0.99
  -6   1  -2   40.57    1.46
   6   1   2   37.91    1.62
   6   1   2   39.09    1.53
  -6   1  -2   39.40    1.36
  -6   1  -2   40.00    1.14
  -7  -1  -2  151.92    4.01
  -7  -1  -2  151.29    4.06
  -7  -1  -2  154.07    3.65
   7  -1   2  154.18    3.76
   7  -1   2  156.29    4.23
   7  -1   2  153.12    4.29
  -7   1  -2  155.62    4.05
  -7   1  -2  154.20    3.74
   7   1   2  150.45    4.26
  -7   1  -2  155.24    4.01
   7   1   2  151.79    4.16
  -8  -1  -2   28.02    1.40
  -8  -1  -2   30.34    1.41
   8  -1   2   28.63    0.98
   8  -1   2   32.34    1.72
   8  -1   2   30.33    1.93
   8   1   2   31.00    1.86
  -8   1  -2   32.59    1.51
   8   1   2   30.25    1.71
  -8   1  -2   31.21    1.43
   9  -1   2   -0.03    0.88
   9  -1   2    1.16    1.08
  -9  -1  -2    0.42    0.68
  -9  -1  -2    0.34    0.77
  -9   1  -2    1.20    0.77
   9   1   2   -0.12    1.03
  -9   1  -2   -0.06    0.77
   9   1   2    1.08    0.84
 -10  -1  -2   -0.16    1.04
  10  -1   2    0.43    1.17
  10  -1   2    0.02    0.96
 -10  -1  -2    0.28    0.88
 -10   1  -2   -1.98    0.87
  10   1   2    0.48    1.08
  10   1   2    0.14    1.22
 -10   1  -2    0.01    0.96
  11  -1   2   -0.88    1.10
  11  -1   2    1.90    1.40
 -11  -1  -2    1.12    1.07
  11   1   2    0.63    1.19
  11   1   2    0.39    1.49
 -11   1  -2    1.38    1.14
 -12  -1  -2    0.94    1.32
  12  -1   2    1.72    1.53
  12  -1   2   -1.30    1.82
  12   1   2    2.21    1.90
 -12   1  -2    1.25    1.40
  12   1   2    1.32    1.48
 -13   1  -2    6.61    2.08
 -13   2   2   19.02    2.64
 -13   2   2   24.88    2.45
  12  -2  -2    7.48    2.01
 -12  -2   2    8.27    1.55
 -12  -2   2   10.32    2.16
  12  -2  -2    5.34    1.57
 -12   2   2    5.18    1.26
  12   2  -2    7.94    1.63
  12   2  -2    7.58    1.90
 -12   2   2    7.81    1.46
 -12   2   2    7.16    1.93
  11  -2  -2    7.84    1.68
  11  -2  -2   10.33    1.52
 -11  -2   2    8.22    1.30
  11  -2  -2    9.85    1.49
 -11  -2   2    9.54    1.79
 -11   2   2   10.34    1.76
  11   2  -2    6.51    1.38
  11   2  -2   11.90    1.83
 -11   2   2    9.49    1.40
 -11   2   2   10.51    1.32
  10  -2  -2   48.31    2.09
  10  -2  -2   45.55    2.63
  10  -2  -2   48.85    2.41
 -10  -2   2   46.64    2.63
 -10  -2   2   50.77    2.07
 -10   2   2   47.77    2.56
 -10   2   2   48.77    2.07
  10   2  -2   46.44    2.73
 -10   2   2   41.38    3.40
  10   2  -2   50.38    2.31
   9  -2  -2    3.24    1.15
   9  -2  -2    3.61    0.88
   9  -2  -2    2.76    0.80
  -9  -2   2    3.04    1.19
  -9  -2   2    3.13    0.88
   9   2  -2    1.65    0.91
  -9   2   2    3.75    1.05
  -9   2   2    2.46    0.91
   9   2  -2    2.86    1.14
  -8  -2   2    3.28    0.78
  -8  -2   2    3.42    0.40
   8  -2  -2    2.80    0.73
   8  -2  -2    2.49    0.86
   8  -2  -2    2.86    0.26
  -8  -2   2    3.18    1.04
   8  -2  -2    3.20    0.94
   8   2  -2    2.40    0.82
   8   2  -2    2.76    0.89
  -8   2   2    2.26    0.72
  -7  -2   2   55.83    2.22
  -7  -2   2   58.10    1.53
   7  -2  -2   58.10    1.53
   7  -2  -2   58.14    2.17
   7  -2  -2   58.16    2.08
  -7  -2   2   58.50    1.96
   7  -2  -2   58.93    1.92
   7   2  -2   58.54    2.25
  -7   2   2   56.26    1.87
   7   2  -2   56.29    2.03
   7   2  -2   59.01    1.45
  -6  -2   2   41.03    1.16
   6  -2  -2   42.17    1.20
  -6  -2   2   41.92    1.48
  -6  -2   2   41.90    1.13
   6  -2  -2   39.50    1.74
   6  -2  -2   41.00    1.53
   6  -2  -2   43.22    1.60
   6  -2  -2   45.05    1.53
   6   2  -2   38.19    1.70
  -6   2   2   38.37    1.39
   6   2  -2   36.68    1.48
  -6   2   2   38.28    1.40
   6   2  -2   39.83    1.06
  -5  -2   2    6.48    0.39
  -5  -2   2    7.50    0.42
   5  -2  -2    7.32    0.79
  -5  -2   2    8.15    0.71
   5  -2  -2    8.03    0.83
   5  -2  -2    9.03    0.84
   5  -2  -2    7.72    0.50
   5  -2  -2    7.77    0.68
  -5  -2   2    7.10    0.93
   5   2  -2    5.96    0.44
  -5   2   2    7.03    0.67
  -5   2   2    6.72    0.67
   5   2  -2    6.65    0.82
   5   2  -2    6.51    0.93
   4  -2  -2   24.84    0.96
   4  -2  -2   23.67    0.98
   4  -2  -2   24.14    1.04
   4  -2  -2   25.21    0.83
   4  -2  -2   24.53    0.97
  -4  -2   2   25.11    1.17
  -4  -2   2   24.93    0.91
  -4  -2   2   25.20    0.77
  -4  -2   2   26.25    0.77
  -4   2   2   23.57    0.91
   4   2  -2   25.88    1.09
  -4   2   2   24.19    0.92
   4   2  -2   25.54    1.19
  -4   2   2   24.29    0.90
   4   2  -2   25.48    0.80
  -3  -2   2   91.04    2.40
  -3  -2   2   92.31    2.37
  -3  -2   2   94.86    2.58
   3  -2  -2   94.18    2.41
   3  -2  -2   92.53    2.34
   3  -2  -2   96.37    2.42
   3  -2  -2   89.28    2.45
   3  -2  -2   93.16    2.38
  -3  -2   2   94.69    2.31
   3  -2  -2   91.97    2.46
  -3  -2   2   95.45    2.32
  -3  -2   2   96.40    2.42
  -3   2   2   90.49    2.40
  -3   2   2   97.12    2.49
   3   2  -2   94.05    2.49
   3   2  -2   94.68    2.55
  -3   2   2   91.36    2.36
  -3   2   2   92.36    2.49
  -3   2   2   94.47    2.54
   3   2  -2   98.51    2.40
   3   2  -2   94.18    2.35
  -3   2   2   94.84    2.40
   2  -2  -2   49.32    1.36
   2  -2  -2   46.00    1.41
   2  -2  -2   49.36    1.35
   2  -2  -2   48.07    1.38
  -2  -2   2   49.33    1.52
  -2  -2   2   48.11    1.45
   2  -2  -2   50.65    1.37
  -2  -2   2   49.24    1.31
  -2  -2   2   50.51    1.27
  -2  -2   2   51.43    1.44
  -2  -2   2   52.53    1.34
  -2  -2   2   50.33    1.34
  -2  -2   2   50.37    1.34
   2   2  -2   46.61    1.29
  -2   2   2   47.47    1.32
   2   2  -2   46.39    1.44
  -2   2   2   46.33    1.31
   2   2  -2   46.75    1.39
   2   2  -2   48.52    1.45
  -2   2   2   47.03    1.30
   2   2  -2   49.06    1.27
  -2   2   2   44.12    1.38
  -2   2   2   45.98    1.33
  -2   2   2   46.92    1.20
  -1  -2   2  646.50   15.78
   1  -2  -2  705.52   15.71
  -1  -2   2  688.34   15.80
  -1  -2   2  686.44   15.72
  -1  -2   2  679.40   15.63
   1  -2  -2  695.45   15.72
   1  -2  -2  671.05   15.75
   1  -2  -2  662.95   15.71
   1  -2  -2  674.09   15.67
  -1  -2   2  689.98   15.73
  -1  -2   2  667.67   15.75
   1  -2  -2  694.10   15.77
   1   2  -2  645.97   15.55
  -1   2   2  690.81   15.58
   1   2  -2  659.60   15.60
  -1   2   2  656.51   15.51
   1   2  -2  699.80   15.60
  -1   2   2  695.34   15.55
  -1   2   2  661.61   15.50
   1   2  -2  661.42   15.52
   0  -2  -2   80.63    2.10
   0  -2  -2   79.94    1.99
   0  -2  -2   79.80    1.91
   0  -2  -2   79.43    2.03
   0  -2   2   74.30    1.85
   0  -2  -2   82.50    2.03
   0  -2   2   78.38    2.02
   0  -2   2   79.25    2.06
   0  -2  -2   82.93    2.02
   0  -2  -2   79.03    1.91
   0  -2   2   79.85    2.11
   0  -2   2   75.85    2.06
   0  -2  -2   79.03    1.95
   0  -2   2   80.90    2.07
   0  -2  -2   83.31    2.08
   0   2  -2   72.37    1.94
   0   2   2   79.08    1.94
   0   2  -2   77.19    2.01
   0   2   2   73.52    1.93
   0   2  -2   76.25    2.01
   0   2   2   80.44    2.03
   0   2  -2   75.45    1.78
   0   2   2   78.61    1.96
   0   2   2   76.67    1.89
   1  -2   2  213.10    4.97
  -1  -2  -2  211.67    4.96
  -1  -2  -2  201.81    4.81
  -1  -2  -2  203.59    4.90
  -1  -2  -2  195.79    4.86
   1  -2   2  205.75    4.91
  -1  -2  -2  202.92    4.98
  -1  -2  -2  205.44    4.81
  -1  -2  -2  202.53    4.88
  -1  -2  -2  206.96    4.90
   1  -2   2  212.40    4.89
  -1  -2  -2  210.77    4.88
   1  -2   2  201.93    4.94
   1   2   2  200.56    4.66
  -1   2  -2  206.98    4.80
  -1   2  -2  209.92    4.75
  -1   2  -2  195.65    4.57
   1   2   2  187.45    4.61
  -1   2  -2  198.35    4.70
   1   2   2  187.78    4.62
  -1   2  -2  201.31    4.57
   1   2   2  189.84    4.68
   1   2   2  195.75    4.76
  -1   2  -2  195.25    4.54
  -2  -2  -2  263.48    6.04
   2  -2   2  265.20    6.17
   2  -2   2  253.86    5.94
  -2  -2  -2  253.79    6.15
  -2  -2  -2  266.43    6.17
  -2  -2  -2  262.54    6.15
   2  -2   2  249.68    6.12
  -2  -2  -2  243.72    5.99
   2  -2   2  244.24    6.06
  -2  -2  -2  259.97    6.03
   2  -2   2  261.21    6.05
  -2  -2  -2  249.19    6.05
  -2  -2  -2  259.71    6.03
  -2   2  -2  238.80    5.80
   2   2   2  249.32    5.91
  -2   2  -2  250.03    6.03
   2   2   2  264.61    6.03
   2   2   2  244.48    6.02
   2   2   2  243.24    5.89
   2   2   2  247.60    5.93
  -2   2  -2  263.53    5.93
  -2   2  -2  249.34    5.87
  -2   2  -2  245.10    5.91
  -2   2  -2  257.51    6.00
  -3  -2  -2  755.26   17.43
  -3  -2  -2  764.20   17.35
   3  -2   2  760.38   17.35
   3  -2   2  733.56   17.56
  -3  -2  -2  778.30   17.72
   3  -2   2  773.02   17.32
   3  -2   2  739.09   17.50
  -3  -2  -2  731.95   17.49
   3  -2   2  743.25   17.39
  -3  -2  -2  754.26   17.40
  -3  -2  -2  733.34   17.30
   3   2   2  750.53   17.52
   3   2   2  752.91   17.54
  -3   2  -2  735.32   17.41
   3   2   2  728.84   17.63
  -3   2  -2  749.46   17.62
   3   2   2  734.57   17.57
  -3   2  -2  751.91   17.50
  -3   2  -2  777.28   17.49
   3   2   2  787.65   17.61
  -3   2  -2  790.17   17.62
  -4  -2  -2  126.53    3.34
   4  -2   2  136.23    3.23
  -4  -2  -2  132.09    3.14
  -4  -2  -2  133.29    3.17
   4  -2   2  130.73    3.54
  -4  -2  -2  133.02    3.14
   4  -2   2  125.83    3.24
   4  -2   2  132.14    3.20
  -4  -2  -2  132.67    3.37
  -4   2  -2  132.58    3.20
   4   2   2  134.42    3.36
  -4   2  -2  125.64    3.38
   4   2   2  127.47    3.29
   4   2   2  134.16    3.30
  -4   2  -2  124.45    3.28
  -4   2  -2  127.86    3.18
   4   2   2  131.39    3.45
  -4   2  -2  127.84    3.15
  -5  -2  -2  116.88    3.17
  -5  -2  -2  122.11    2.92
   5  -2   2  115.24    3.35
  -5  -2  -2  118.97    3.18
   5  -2   2  120.26    3.04
  -5  -2  -2  124.76    2.92
   5  -2   2  121.21    3.30
  -5  -2  -2  125.30    2.92
   5  -2   2  123.98    2.96
   5   2   2  129.40    3.39
  -5   2  -2  123.68    3.34
  -5   2  -2  118.41    3.09
  -5   2  -2  122.26    3.14
   5   2   2  125.26    3.24
   5   2   2  124.97    3.45
   5   2   2  127.96    3.31
  -5   2  -2  125.56    3.04
   6  -2   2   48.55    1.45
  -6  -2  -2   50.75    1.27
   6  -2   2   46.66    1.97
   6  -2   2   50.16    1.34
   6  -2   2   47.75    1.78
  -6  -2  -2   49.76    1.30
  -6  -2  -2   50.57    1.70
  -6  -2  -2   47.61    1.65
   6   2   2   50.00    1.79
  -6   2  -2   50.52    1.57
   6   2   2   49.64    1.92
  -6   2  -2   49.05    1.77
  -6   2  -2   49.40    1.32
   6   2   2   49.46    1.88
  -7  -2  -2   98.59    2.43
   7  -2   2  104.62    3.07
   7  -2   2   96.45    3.17
  -7  -2  -2  100.32    2.84
  -7  -2  -2   95.08    2.30
   7  -2   2  100.22    2.46
  -7  -2  -2   95.42    2.88
   7  -2   2  104.44    2.63
   7   2   2  104.10    3.19
   7   2   2   99.81    3.05
  -7   2  -2  105.05    2.86
  -7   2  -2  105.04    3.04
   8  -2   2   14.10    1.65
  -8  -2  -2   15.34    1.17
   8  -2   2   13.67    1.46
  -8  -2  -2   14.85    1.14
   8  -2   2   13.57    1.11
   8   2   2   16.98    1.46
   8   2   2   15.92    1.67
  -8   2  -2   14.53    1.30
  -8   2  -2   13.51    1.36
   9  -2   2   14.65    1.63
  -9  -2  -2   16.98    1.35
   9  -2   2   15.57    1.01
  -9  -2  -2   17.01    1.49
   9  -2   2   14.71    1.55
  -9   2  -2   16.15    1.37
  -9   2  -2   15.81    1.41
   9   2   2   16.93    1.72
   9   2   2   16.34    1.92
 -10  -2  -2   11.03    1.39
 -10  -2  -2   11.63    1.59
  10  -2   2   10.88    1.38
  10  -2   2   12.70    1.67
  10   2   2   13.93    1.97
  10   2   2    9.49    1.49
 -10   2  -2   12.50    1.60
 -10   2  -2   13.68    1.61
 -11  -2  -2    9.01    1.46
  11  -2   2   10.37    1.80
  11  -2   2   10.74    1.58
  11   2   2    7.44    1.67
 -11   2  -2   10.20    1.44
  11   2   2    7.93    1.50
 -12  -2  -2   27.35    2.30
  12  -2   2   30.09    2.75
  12  -2   2   25.94    3.15
  12   2   2   26.26    2.72
  12   2   2   26.59    3.10
 -12   2  -2   25.53    2.35
 -12  -3   2    4.52    2.00
  12  -3  -2    5.82    1.91
 -12  -3   2    2.57    1.36
  12  -3  -2    2.85    1.53
  12   3  -2    4.38    1.65
 -12   3   2    2.59    1.45
 -12   3   2    3.45    1.36
  12   3  -2    3.60    2.01
 -11  -3   2   24.56    2.56
 -11  -3   2   25.56    1.99
  11  -3  -2   26.20    2.92
  11  -3  -2   23.85    2.83
  11  -3  -2   21.40    2.29
 -11   3   2   24.78    1.91
  11   3  -2   24.44    2.45
  11   3  -2   19.97    2.87
 -11   3   2   22.57    2.04
  10  -3  -2   11.24    1.62
  10  -3  -2   14.16    1.79
 -10  -3   2   11.07    1.29
 -10  -3   2   13.34    1.80
  10  -3  -2   12.38    1.28
 -10   3   2   11.82    1.52
  10   3  -2    9.97    1.41
 -10   3   2   10.05    1.81
  10   3  -2   10.23    1.61
 -10   3   2   14.33    1.65
   9  -3  -2   31.49    2.10
   9  -3  -2   27.55    1.71
   9  -3  -2   30.31    1.94
  -9  -3   2   27.90    1.67
  -9  -3   2   27.38    2.10
  -9   3   2   26.79    1.61
   9   3  -2   27.52    1.96
  -9   3   2   31.78    1.73
   9   3  -2   28.58    2.25
  -9   3   2   28.93    1.93
  -8  -3   2    5.51    0.92
   8  -3  -2    5.53    0.93
  -8  -3   2    5.30    1.20
  -8  -3   2    4.29    0.40
   8  -3  -2    4.98    1.10
   8  -3  -2    4.48    0.88
  -8   3   2    4.48    0.79
   8   3  -2    3.61    1.09
  -8   3   2    4.41    0.87
  -8   3   2    5.17    0.95
   8   3  -2    5.44    0.98
  -7  -3   2   42.97    1.29
   7  -3  -2   45.91    2.08
  -7  -3   2   42.00    1.68
  -7  -3   2   41.24    2.04
   7  -3  -2   43.97    1.76
   7  -3  -2   45.40    1.86
   7   3  -2   40.74    1.86
   7   3  -2   43.08    1.24
  -7   3   2   42.90    1.63
  -7   3   2   43.19    1.68
  -7   3   2   43.85    1.62
   7   3  -2   42.36    2.01
   6  -3  -2   20.78    1.26
   6  -3  -2   21.51    1.22
  -6  -3   2   20.89    0.78
  -6  -3   2   18.60    1.10
  -6  -3   2   18.71    0.72
  -6  -3   2   18.50    1.41
   6  -3  -2   22.78    1.42
  -6   3   2   20.62    0.96
   6   3  -2   20.10    1.43
  -6   3   2   19.40    1.04
   6   3  -2   18.92    1.28
   6   3  -2   19.51    0.77
  -6   3   2   21.28    1.08
   5  -3  -2   63.21    2.15
  -5  -3   2   76.26    1.93
  -5  -3   2   65.99    2.25
  -5  -3   2   65.43    1.98
   5  -3  -2   68.42    2.08
   5  -3  -2   67.42    2.08
  -5  -3   2   68.12    1.83
   5   3  -2   67.76    1.81
  -5   3   2   67.75    1.92
  -5   3   2   65.03    1.94
  -5   3   2   67.53    1.96
  -5   3   2   64.57    1.88
  -5   3   2   67.43    2.13
   5   3  -2   68.06    2.18
   5   3  -2   69.23    2.14
  -4  -3   2  237.04    5.60
   4  -3  -2  234.91    5.75
   4  -3  -2  240.64    5.79
  -4  -3   2  228.28    5.88
  -4  -3   2  220.17    5.75
   4  -3  -2  237.64    5.71
  -4   3   2  223.26    5.40
   4   3  -2  229.56    5.62
  -4   3   2  208.81    5.92
  -4   3   2  235.60    5.41
  -4   3   2  229.17    5.50
   4   3  -2  230.30    5.43
  -4   3   2  222.55    5.50
   4   3  -2  231.31    5.70
  -3  -3   2  121.62    2.93
  -3  -3   2  118.87    2.98
  -3  -3   2  122.61    3.03
  -3  -3   2  116.80    3.20
   3  -3  -2  117.56    3.09
  -3   3   2  114.04    2.94
  -3   3   2  113.63    2.84
  -3   3   2  113.95    2.70
   3   3  -2  114.30    2.83
   3   3  -2  100.35    3.33
  -3   3   2  114.38    2.85
   3   3  -2  110.97    3.02
  -3   3   2  114.25    2.70
  -2  -3   2  168.68    4.12
  -2  -3   2  176.20    4.14
   2  -3  -2  176.84    4.18
   2  -3  -2  171.15    4.27
   2  -3  -2  172.27    4.21
  -2  -3   2  179.22    4.23
  -2  -3   2  162.84    4.30
  -2  -3   2  171.14    4.07
  -2   3   2  168.60    4.18
   2   3  -2  166.81    4.18
   2   3  -2  171.94    4.00
   2   3  -2  166.10    4.11
  -2   3   2  170.70    4.09
  -2   3   2  168.73    4.09
   2   3  -2  165.43    4.23
   1  -3  -2  346.90    8.24
   1  -3  -2  363.01    8.25
  -1  -3   2  359.72    8.33
  -1  -3   2  342.29    8.12
  -1  -3   2  355.46    8.15
  -1  -3   2  355.22    8.41
   1  -3  -2  340.34    8.32
  -1  -3   2  337.51    8.15
   1  -3  -2  363.14    8.26
  -1  -3   2  339.02    8.33
   1  -3  -2  365.08    8.33
   1   3  -2  358.82    8.10
  -1   3   2  333.92    8.00
   1   3  -2  343.13    8.10
  -1   3   2  343.80    8.08
  -1   3   2  337.00    8.00
   1   3  -2  331.97    7.87
   1   3  -2  334.88    8.03
   0  -3  -2   89.29    2.16
   0  -3  -2   91.45    2.23
   0  -3   2   80.45    2.28
   0  -3   2   83.33    2.36
   0  -3  -2   89.51    2.12
   0  -3   2   84.61    2.33
   0  -3  -2   86.98    2.28
   0  -3  -2   90.07    2.21
   0  -3   2   87.18    2.06
   0  -3   2   87.90    2.06
   0  -3   2   83.14    2.27
   0  -3  -2   90.98    2.17
   0  -3   2   84.95    2.06
   0   3   2   87.39    2.19
   0   3  -2   83.79    2.03
   0   3  -2   82.37    2.00
   0   3  -2   82.29    2.22
   0   3   2   86.16    2.28
   0   3   2   90.92    2.25
   0   3  -2   86.83    2.25
  -1  -3  -2   15.99    0.70
  -1  -3  -2   17.71    0.68
  -1  -3  -2   17.26    0.79
  -1  -3  -2   17.63    0.72
   1  -3   2   16.67    0.78
  -1  -3  -2   17.20    0.86
  -1  -3  -2   17.89    0.64
   1  -3   2   17.44    0.77
  -1  -3  -2   18.35    0.71
  -1  -3  -2   18.83    0.65
   1  -3   2   17.94    0.46
   1   3   2   16.62    0.79
   1   3   2   16.79    0.65
   1   3   2   18.06    0.71
  -1   3  -2   18.08    0.76
  -1   3  -2   17.45    0.89
  -1   3  -2   17.26    0.76
  -1   3  -2   17.66    0.51
   1   3   2   16.52    0.70
  -1   3  -2   17.54    0.53
  -2  -3  -2  103.34    2.52
  -2  -3  -2   98.48    2.60
  -2  -3  -2   95.94    2.51
  -2  -3  -2  105.79    2.54
   2  -3   2   97.69    2.58
   2  -3   2   98.47    2.60
  -2  -3  -2   98.17    2.68
   2  -3   2  101.99    2.37
  -2   3  -2  100.14    2.41
   2   3   2   98.79    2.52
  -2   3  -2   99.90    2.36
  -2   3  -2   97.45    2.68
  -2   3  -2  101.31    2.57
   2   3   2  100.54    2.55
   2   3   2   99.20    2.66
   2   3   2   98.08    2.51
  -2   3  -2  100.71    2.56
  -3  -3  -2   30.56    1.03
  -3  -3  -2   27.83    1.11
  -3  -3  -2   28.30    1.00
  -3  -3  -2   27.59    0.91
   3  -3   2   30.01    0.82
   3  -3   2   30.63    1.32
  -3  -3  -2   28.85    0.98
   3  -3   2   28.50    1.05
   3  -3   2   28.87    1.02
  -3   3  -2   27.02    0.86
  -3   3  -2   29.72    0.96
  -3   3  -2   28.49    0.81
   3   3   2   27.50    0.97
  -3   3  -2   29.17    0.94
   3   3   2   25.14    1.36
  -3   3  -2   29.36    1.09
   3   3   2   25.83    1.24
   3   3   2   27.74    1.00
  -3   3  -2   26.70    1.20
  -4  -3  -2  126.42    3.08
   4  -3   2  130.05    3.07
  -4  -3  -2  127.35    3.12
   4  -3   2  125.90    3.21
  -4  -3  -2  116.99    3.34
   4  -3   2  122.71    3.44
  -4   3  -2  123.81    3.07
   4   3   2  126.33    3.21
   4   3   2  121.05    3.32
   4   3   2  119.37    3.15
  -4   3  -2  119.62    3.11
  -4   3  -2  120.60    3.30
  -4   3  -2  122.24    3.00
   4   3   2  123.19    3.16
  -5  -3  -2   41.89    1.19
  -5  -3  -2   41.73    1.18
  -5  -3  -2   41.33    1.53
   5  -3   2   42.98    1.79
   5  -3   2   40.05    1.62
  -5  -3  -2   40.47    1.45
  -5  -3  -2   41.04    1.19
   5   3   2   42.70    1.61
   5   3   2   43.42    1.50
  -5   3  -2   44.17    1.65
   5   3   2   43.17    1.56
   5   3   2   41.93    1.70
  -5   3  -2   44.65    1.29
  -5   3  -2   43.59    1.30
   6  -3   2  113.70    3.02
   6  -3   2  114.78    3.45
  -6  -3  -2  112.29    3.15
  -6  -3  -2  107.99    3.12
  -6  -3  -2  112.12    2.82
  -6  -3  -2  112.91    2.81
   6  -3   2  118.46    3.35
  -6  -3  -2  114.33    2.82
   6   3   2  113.43    3.27
   6   3   2  117.20    3.41
   6   3   2  113.92    3.23
  -6   3  -2  112.93    3.26
  -6   3  -2  113.90    2.87
   6   3   2  113.47    3.15
  -6   3  -2  113.70    3.00
  -7  -3  -2   40.92    1.63
   7  -3   2   42.56    1.54
   7  -3   2   42.71    2.00
  -7  -3  -2   41.83    1.19
   7  -3   2   42.95    1.94
  -7  -3  -2   41.68    1.71
  -7   3  -2   40.07    1.81
   7   3   2   42.97    1.92
  -7   3  -2   41.45    1.22
   7   3   2   43.78    2.00
   7   3   2   43.59    1.99
  -7   3  -2   41.22    1.51
   8  -3   2   10.34    1.50
  -8  -3  -2   11.10    0.62
   8  -3   2    8.60    1.05
   8  -3   2   12.55    1.74
  -8  -3  -2    9.89    1.11
  -8  -3  -2   10.13    1.13
  -8   3  -2   12.21    1.19
  -8   3  -2   10.74    1.30
   8   3   2    8.19    1.04
   8   3   2   11.96    1.57
   9  -3   2    3.45    1.45
   9  -3   2    3.83    1.19
   9  -3   2    4.72    0.83
  -9  -3  -2    4.13    0.94
  -9  -3  -2    4.56    1.13
  -9   3  -2    6.20    1.07
  -9   3  -2    5.25    1.00
   9   3   2    3.76    1.22
   9   3   2    4.21    1.05
  10  -3   2    4.43    1.20
 -10  -3  -2    4.20    1.05
  10  -3   2    3.99    1.46
  10   3   2    3.40    1.18
  10   3   2    3.19    1.45
 -10   3  -2    3.36    1.13
 -10   3  -2    4.30    1.19
  11  -3   2   -0.35    1.49
  11  -3   2    1.99    1.39
 -11  -3  -2    1.20    1.13
  11   3   2    1.11    1.55
 -11   3  -2    3.02    1.33
  11   3   2    1.65    1.40
 -12  -3  -2    9.03    1.40
  12  -3   2    9.04    1.51
  12  -3   2    9.18    1.89
 -12   3  -2    9.91    1.46
 -12   3  -2   10.67    1.67
  12   3   2    5.20    1.93
  12   3   2    4.96    1.59
  12  -4  -2    7.81    1.78
  12  -4  -2    8.62    1.63
 -12  -4   2   10.26    1.57
 -12   4   2    7.27    1.32
 -12   4   2    8.09    1.87
  12   4  -2    7.40    1.97
 -12   4   2   11.16    1.78
  12   4  -2    8.87    1.68
  11  -4  -2   12.19    1.61
  11  -4  -2   10.07    1.49
 -11  -4   2   10.43    1.50
  11  -4  -2    8.55    1.92
 -11  -4   2   12.66    2.13
 -11   4   2    8.04    1.35
  11   4  -2    9.36    1.88
  11   4  -2    7.31    1.69
 -11   4   2    9.35    1.53
 -11   4   2    8.44    1.72
  10  -4  -2    1.28    1.18
  10  -4  -2   -0.53    1.34
  10  -4  -2    0.46    1.32
 -10  -4   2    0.56    1.44
 -10  -4   2    0.32    1.00
  10   4  -2    0.86    1.26
  10   4  -2    0.41    1.51
 -10   4   2   -1.24    0.99
 -10   4   2   -0.58    1.36
 -10   4   2    1.15    1.17
  -9  -4   2   14.00    1.95
   9  -4  -2   12.23    1.33
   9  -4  -2   13.56    1.92
  -9  -4   2   13.72    1.51
  -9   4   2   13.84    1.54
  -9   4   2   13.69    1.65
   9   4  -2   11.52    2.73
   9   4  -2   11.82    1.44
  -9   4   2   15.51    1.88
   8  -4  -2    1.13    1.03
  -8  -4   2    3.73    0.85
   8  -4  -2    1.70    0.91
   8  -4  -2    2.64    0.91
  -8  -4   2    2.36    1.07
  -8   4   2    3.95    0.91
   8   4  -2    4.85    1.19
  -8   4   2    4.18    0.94
  -8   4   2    2.77    0.83
   8   4  -2    3.39    1.01
  -8   4   2    4.53    1.10
  -7  -4   2    6.22    0.86
   7  -4  -2    5.83    0.94
  -7  -4   2    7.81    0.60
   7  -4  -2    7.69    1.08
   7  -4  -2    6.34    0.96
  -7  -4   2    5.31    1.11
  -7   4   2    8.17    0.95
   7   4  -2    5.10    0.89
  -7   4   2    5.64    0.77
  -7   4   2    6.09    1.35
  -7   4   2    7.17    1.03
   7   4  -2    6.63    1.08
  -6  -4   2    2.80    0.87
  -6  -4   2    3.25    0.44
   6  -4  -2    3.63    0.81
   6  -4  -2    4.18    0.75
  -6  -4   2    2.66    0.66
   6  -4  -2    2.09    0.79
   6   4  -2    2.73    0.54
  -6   4   2    3.42    0.71
  -6   4   2    5.38    0.91
   6   4  -2    3.22    0.77
  -6   4   2    3.73    0.49
   6   4  -2    2.98    0.87
  -6   4   2    4.48    0.70
   5  -4  -2  307.68    7.59
   5  -4  -2  311.05    7.49
  -5  -4   2  302.85    7.69
   5  -4  -2  293.74    7.50
  -5  -4   2  302.44    7.38
  -5  -4   2  308.46    7.33
  -5   4   2  298.28    7.23
  -5   4   2  295.79    7.37
  -5   4   2  302.55    7.09
   5   4  -2  302.89    7.16
   5   4  -2  300.25    7.50
  -5   4   2  295.62    7.07
  -5   4   2  290.95    7.20
   5   4  -2  299.72    7.40
  -4  -4   2   98.15    2.59
   4  -4  -2   97.76    2.78
  -4  -4   2   99.47    2.61
  -4  -4   2   92.31    2.87
   4  -4  -2   95.43    2.76
   4   4  -2   97.62    2.79
   4   4  -2   99.41    2.90
  -4   4   2   98.42    2.77
  -4   4   2   96.87    2.63
  -4   4   2   96.00    2.62
   4   4  -2  100.40    2.64
  -4   4   2   98.12    2.40
  -4   4   2   98.21    2.39
  -3  -4   2   11.76    1.01
  -3  -4   2   13.71    0.69
   3  -4  -2   14.07    0.95
  -3  -4   2   13.35    0.63
   3  -4  -2   14.24    0.86
  -3  -4   2   14.07    0.64
   3   4  -2   11.92    1.01
  -3   4   2   14.27    0.98
   3   4  -2   12.67    0.83
   3   4  -2   12.31    0.60
   3   4  -2   13.27    0.96
  -3   4   2   13.16    0.72
  -3   4   2   13.86    0.81
  -2  -4   2   98.92    2.45
   2  -4  -2   96.61    2.58
   2  -4  -2   89.67    2.64
  -2  -4   2   98.28    2.67
  -2  -4   2   96.35    2.65
  -2  -4   2   98.99    2.46
  -2  -4   2  100.01    2.40
   2   4  -2   97.15    2.72
   2   4  -2   96.52    2.42
   2   4  -2   96.76    2.64
   2   4  -2   98.02    2.37
   2   4  -2   95.57    2.55
  -2   4   2   91.51    2.56
  -2   4   2   91.73    2.47
  -2   4   2   93.58    2.57
  -1  -4   2    1.09    0.20
   1  -4  -2    0.73    0.28
  -1  -4   2    0.56    0.37
  -1  -4   2    0.76    0.21
   1  -4  -2    1.25    0.48
  -1  -4   2    0.74    0.22
  -1  -4   2    0.66    0.46
   1   4  -2    0.81    0.23
   1   4  -2    0.92    0.43
  -1   4   2    1.08    0.35
   1   4  -2    0.73    0.41
  -1   4   2    0.70    0.33
  -1   4   2    1.17    0.40
   1   4  -2    1.16    0.23
  -1   4   2    0.85    0.44
   0  -4  -2   12.09    0.47
   0  -4  -2   12.45    0.47
   0  -4  -2   11.99    0.59
   0  -4   2   11.75    0.43
   0  -4   2   10.36    0.65
   0  -4  -2   13.03    0.65
   0  -4   2   11.98    0.43
   0  -4   2   11.99    0.82
   0   4   2   11.26    0.74
   0   4  -2   11.05    0.77
   0   4  -2   11.62    0.46
   0   4  -2   12.54    0.71
   0   4   2   11.11    0.65
   0   4   2   11.98    0.74
   0   4  -2   11.70    0.42
  -1  -4  -2  197.11    5.02
   1  -4   2  206.62    5.11
  -1  -4  -2  205.04    4.94
   1  -4   2  202.49    4.77
  -1  -4  -2  210.41    4.94
   1  -4   2  207.54    4.99
  -1  -4  -2  208.87    4.95
  -1   4  -2  199.16    4.67
  -1   4  -2  197.11    4.91
  -1   4  -2  204.06    4.71
   1   4   2  195.81    4.95
   1   4   2  198.14    4.85
   1   4   2  203.22    4.93
  -1   4  -2  202.38    4.85
   2  -4   2    5.86    0.72
  -2  -4  -2    6.81    0.57
   2  -4   2    6.62    0.30
  -2  -4  -2    5.76    0.52
  -2  -4  -2    5.81    0.55
  -2  -4  -2    6.90    0.58
   2  -4   2    7.17    0.56
  -2  -4  -2    7.76    0.83
  -2   4  -2    7.04    0.42
   2   4   2    7.26    0.57
  -2   4  -2    6.62    0.69
   2   4   2    6.60    0.56
  -2   4  -2    7.02    0.33
  -2   4  -2    7.42    0.63
  -2   4  -2    6.30    0.44
   2   4   2    8.59    1.04
   2   4   2    7.32    0.66
   3  -4   2  247.74    6.35
  -3  -4  -2  248.42    6.08
   3  -4   2  250.25    6.10
  -3  -4  -2  258.06    6.30
   3  -4   2  252.96    6.21
   3  -4   2  258.70    5.91
  -3   4  -2  248.14    5.88
  -3   4  -2  250.29    6.07
   3   4   2  253.40    6.09
  -3   4  -2  248.66    5.94
   3   4   2  248.92    6.09
   3   4   2  256.46    6.25
  -3   4  -2  251.14    6.11
   3   4   2  251.78    6.09
  -3   4  -2  251.91    5.98
   4  -4   2   41.33    1.79
  -4  -4  -2   38.24    1.24
  -4  -4  -2   39.59    1.54
   4  -4   2   42.09    1.15
   4  -4   2   40.76    1.50
  -4   4  -2   42.74    1.73
   4   4   2   39.71    1.45
  -4   4  -2   41.66    1.17
  -4   4  -2   38.78    1.40
  -4   4  -2   42.30    1.39
   4   4   2   40.68    1.48
  -4   4  -2   41.80    1.25
  -4   4  -2   43.28    1.71
   4   4   2   40.26    1.62
   4   4   2   40.70    1.45
  -5  -4  -2   24.85    1.25
   5  -4   2   24.34    1.48
  -5  -4  -2   25.90    0.91
   5  -4   2   23.76    1.23
  -5  -4  -2   26.16    1.32
   5   4   2   23.97    1.31
  -5   4  -2   23.45    1.42
   5   4   2   22.87    1.17
  -5   4  -2   24.57    0.88
   5   4   2   24.91    1.24
   5   4   2   23.03    1.44
  -5   4  -2   24.64    1.02
  -5   4  -2   23.69    1.06
   6  -4   2   15.74    1.56
  -6  -4  -2   12.13    1.13
   6  -4   2   15.21    1.11
  -6  -4  -2   13.09    1.14
  -6  -4  -2   13.79    0.65
  -6   4  -2   14.62    0.94
  -6   4  -2   14.89    0.95
   6   4   2   14.13    1.32
   6   4   2   14.49    1.13
  -6   4  -2   14.82    0.89
   6   4   2   14.56    1.41
   6   4   2   13.26    1.21
  -6   4  -2   12.67    1.32
   7  -4   2   12.32    1.64
  -7  -4  -2   13.49    1.24
   7  -4   2   11.97    1.21
   7  -4   2   11.09    1.50
  -7  -4  -2   13.36    0.61
  -7  -4  -2   11.66    1.19
  -7   4  -2   11.70    1.08
  -7   4  -2   11.28    0.83
   7   4   2   11.61    1.48
  -7   4  -2   12.49    1.15
   7   4   2   12.08    1.37
   7   4   2   12.01    1.39
  -7   4  -2   11.73    1.18
   8  -4   2   29.45    1.58
   8  -4   2   29.06    2.12
  -8  -4  -2   30.65    1.69
   8  -4   2   29.36    1.80
  -8  -4  -2   34.36    2.34
  -8   4  -2   30.77    1.55
   8   4   2   32.00    2.12
  -8   4  -2   33.07    1.61
   8   4   2   31.07    1.93
   9  -4   2    7.34    1.05
  -9  -4  -2   10.19    1.39
  -9  -4  -2    8.28    1.11
   9  -4   2    6.52    1.21
   9  -4   2    6.68    1.35
  -9   4  -2   10.90    1.51
  -9   4  -2    9.37    1.09
   9   4   2   10.13    1.47
  10  -4   2   47.92    2.97
  10  -4   2   48.15    2.64
  10   4   2   53.20    3.08
  10   4   2   49.99    2.73
 -10   4  -2   49.55    2.24
 -10   4  -2   47.61    2.38
  11  -4   2   30.07    2.68
  11  -4   2   33.09    3.18
 -11  -4  -2   35.95    2.39
 -11   4  -2   33.94    2.29
  11   4   2   38.60    2.81
  11   4   2   32.07    3.18
  12   4   2    3.03    1.49
 -12   4  -2    2.82    1.38
  12   4   2    1.85    1.83
 -11  -5   2    3.38    1.31
  11  -5  -2    1.87    1.54
 -11  -5   2    1.36    1.75
  11  -5  -2    3.08    1.80
  11  -5  -2   -1.10    1.43
  11   5  -2    2.26    1.55
  11   5  -2   -0.80    1.81
 -11   5   2    4.02    1.55
 -11   5   2    1.94    1.34
 -11   5   2    1.39    1.90
  10  -5  -2    2.56    1.25
 -10  -5   2    1.85    1.59
  10  -5  -2    0.72    1.36
 -10  -5   2    3.09    1.16
  10  -5  -2    1.95    1.59
 -10   5   2    2.63    1.19
 -10   5   2    3.04    1.31
 -10   5   2    1.50    1.60
  10   5  -2    3.48    1.41
  10   5  -2    1.59    1.64
  -9  -5   2   22.26    1.71
   9  -5  -2   30.75    2.02
  -9  -5   2   22.75    2.28
   9  -5  -2   23.94    2.40
   9  -5  -2   23.93    2.34
  -9   5   2   25.08    1.85
  -9   5   2   27.62    1.89
   9   5  -2   25.16    2.49
  -9   5   2   27.69    2.80
   9   5  -2   27.82    2.24
   8  -5  -2   10.05    1.26
   8  -5  -2   10.15    1.32
  -8  -5   2   11.55    2.23
  -8  -5   2    9.88    1.30
   8  -5  -2    9.53    1.15
   8   5  -2   10.31    1.47
  -8   5   2    9.64    1.09
  -8   5   2   10.78    1.36
  -8   5   2   12.85    1.45
  -7  -5   2   31.87    2.04
   7  -5  -2   35.01    1.83
   7  -5  -2   31.41    1.81
  -7  -5   2   33.36    1.44
   7  -5  -2   34.15    2.03
  -7  -5   2   32.06    1.59
  -7   5   2   31.55    1.61
   7   5  -2   31.84    2.10
   7   5  -2   33.17    1.93
  -7   5   2   33.51    1.64
  -7   5   2   30.50    1.87
   7   5  -2   31.50    1.47
  -6  -5   2   20.02    1.63
   6  -5  -2   20.67    1.67
  -6  -5   2   18.86    1.18
   6  -5  -2   20.69    1.51
  -6  -5   2   20.59    1.18
   6  -5  -2   19.44    1.52
   6   5  -2   20.56    1.25
  -6   5   2   22.35    1.54
   6   5  -2   20.09    1.61
  -6   5   2   22.77    1.09
   6   5  -2   21.81    1.74
  -6   5   2   20.50    1.30
  -6   5   2   19.92    1.30
  -5  -5   2   34.35    1.82
  -5  -5   2   34.43    1.37
   5  -5  -2   34.09    1.65
  -5  -5   2   33.97    1.46
   5  -5  -2   35.58    1.72
  -5   5   2   34.56    1.69
   5   5  -2   34.36    1.70
  -5   5   2   36.87    1.46
  -5   5   2   34.41    1.42
   5   5  -2   35.87    1.84
   5   5  -2   34.39    1.45
   4  -5  -2  109.17    3.18
   4  -5  -2  117.96    3.22
  -4  -5   2  105.26    3.08
  -4  -5   2  107.07    3.24
  -4  -5   2  107.99    2.93
  -4  -5   2  108.69    3.04
   4   5  -2  101.36    2.90
  -4   5   2  108.60    2.87
  -4   5   2  107.57    2.85
   4   5  -2  102.83    3.19
  -4   5   2  107.38    3.03
   4   5  -2  104.17    3.10
  -3  -5   2    7.35    1.01
  -3  -5   2    7.10    0.95
   3  -5  -2    8.12    1.02
   3  -5  -2    7.15    1.00
  -3   5   2    7.04    0.80
   3   5  -2    7.33    0.86
   3   5  -2    7.82    0.83
   3   5  -2    7.13    0.88
   3   5  -2    7.23    0.56
  -3   5   2    8.12    0.79
  -3   5   2    8.33    0.94
  -2  -5   2   29.67    0.93
   2  -5  -2   31.37    1.38
  -2  -5   2   31.00    0.99
  -2  -5   2   30.66    1.26
  -2  -5   2   28.21    1.30
   2  -5  -2   31.59    1.23
  -2  -5   2   31.20    1.03
   2   5  -2   30.73    1.04
  -2   5   2   30.01    1.32
   2   5  -2   32.36    0.97
  -2   5   2   31.70    1.34
   2   5  -2   30.85    1.30
  -2   5   2   30.23    1.16
  -2   5   2   31.12    1.19
  -1  -5   2   45.85    1.24
   1  -5  -2   42.82    1.60
  -1  -5   2   43.82    1.23
  -1  -5   2   43.93    1.21
  -1  -5   2   43.23    1.44
  -1  -5   2   43.84    1.62
  -1  -5   2   46.18    1.24
   1   5  -2   44.81    1.57
  -1   5   2   43.86    1.58
  -1   5   2   43.30    1.43
   1   5  -2   44.21    1.24
   1   5  -2   45.38    1.23
   0  -5   2    5.47    0.71
   0  -5  -2    5.80    0.34
   0  -5   2    5.31    0.38
   0  -5  -2    5.94    0.37
   0  -5   2    5.31    0.57
   0  -5  -2    6.18    0.84
   0  -5  -2    6.04    0.62
   0  -5   2    5.26    0.37
   0   5  -2    5.63    0.67
   0   5  -2    6.50    0.84
   0   5  -2    5.71    0.42
   0   5  -2    5.78    0.39
   0   5   2    6.07    0.77
   0   5   2    5.51    0.70
  -1  -5  -2  113.12    2.88
   1  -5   2  116.28    2.94
  -1  -5  -2  114.18    2.88
  -1  -5  -2  118.14    3.03
  -1  -5  -2  111.83    3.08
   1  -5   2  116.48    2.72
   1  -5   2  108.64    3.13
  -1  -5  -2  110.32    3.24
   1   5   2  112.37    2.93
   1   5   2  113.27    3.06
  -1   5  -2  113.27    2.74
  -1   5  -2  108.03    3.03
  -1   5  -2  112.99    2.90
   1   5   2  112.25    3.06
  -1   5  -2  111.99    2.70
   2  -5   2   21.24    0.88
  -2  -5  -2   18.96    1.04
   2  -5   2   21.70    0.62
  -2  -5  -2   19.03    1.25
   2  -5   2   19.12    1.13
  -2   5  -2   19.46    0.70
   2   5   2   18.03    1.10
   2   5   2   18.96    0.96
   2   5   2   17.94    1.04
  -2   5  -2   19.52    1.09
  -2   5  -2   19.43    0.71
  -2   5  -2   18.81    0.86
   3  -5   2   36.43    1.78
  -3  -5  -2   39.20    1.67
   3  -5   2   37.92    1.24
   3  -5   2   37.05    1.55
   3  -5   2   39.33    1.04
  -3  -5  -2   37.80    1.39
   3   5   2   37.39    1.39
  -3   5  -2   35.73    1.02
  -3   5  -2   35.74    1.28
   3   5   2   38.65    1.36
   3   5   2   37.48    1.59
   3   5   2   38.42    1.38
  -3   5  -2   37.41    1.45
  -3   5  -2   36.08    1.15
  -3   5  -2   37.26    1.13
   4  -5   2   74.62    1.91
   4  -5   2   72.89    2.55
  -4  -5  -2   71.91    2.16
  -4  -5  -2   80.01    2.49
   4  -5   2   73.64    2.36
   4   5   2   75.03    2.26
  -4   5  -2   73.20    2.05
   4   5   2   76.43    2.23
  -4   5  -2   71.65    1.90
   4   5   2   77.26    2.31
  -4   5  -2   69.66    2.08
  -4   5  -2   74.16    2.25
   4   5   2   76.98    2.45
  -4   5  -2   71.50    2.08
  -5  -5  -2   21.94    1.28
  -5  -5  -2   23.48    1.08
   5  -5   2   23.84    1.74
  -5  -5  -2   21.46    1.39
   5  -5   2   23.68    1.38
  -5   5  -2   23.61    1.11
   5   5   2   23.75    1.40
   5   5   2   24.45    1.30
  -5   5  -2   23.62    1.25
   5   5   2   24.52    1.42
  -5   5  -2   22.67    1.25
   5   5   2   23.96    1.73
  -5   5  -2   22.41    0.86
  -6  -5  -2    4.77    0.88
   6  -5   2    5.28    0.88
   6  -5   2    5.73    1.16
  -6  -5  -2    4.98    0.61
  -6  -5  -2    5.09    0.85
   6   5   2    4.64    0.80
   6   5   2    3.41    0.89
   6   5   2    4.93    0.84
  -6   5  -2    5.67    0.68
  -6   5  -2    5.76    0.84
  -6   5  -2    5.11    0.64
  -6   5  -2    5.06    0.71
   6   5   2    5.17    1.03
  -7  -5  -2   12.99    1.30
   7  -5   2   16.48    1.90
  -7  -5  -2   13.89    1.43
  -7  -5  -2   15.25    0.97
   7  -5   2   15.18    1.44
   7  -5   2   17.54    1.69
   7   5   2   15.53    1.75
  -7   5  -2   14.36    1.15
   7   5   2   14.66    1.81
   7   5   2   13.68    1.64
   7   5   2   12.97    1.38
  -7   5  -2   12.92    1.55
  -7   5  -2   15.61    1.26
  -7   5  -2   15.73    1.14
  -8  -5  -2    6.45    1.05
  -8  -5  -2    8.51    1.13
   8  -5   2    8.51    1.15
   8  -5   2    4.87    1.18
   8  -5   2    6.06    1.32
   8   5   2    7.97    1.17
  -8   5  -2    6.96    0.99
   8   5   2    6.19    1.27
  -8   5  -2    6.18    0.93
  -8   5  -2    7.44    1.29
   9  -5   2   57.57    2.99
  -9  -5  -2   52.48    2.36
   9  -5   2   55.99    2.76
   9  -5   2   56.18    2.47
  -9  -5  -2   55.23    2.29
   9   5   2   48.19    4.53
  -9   5  -2   53.94    2.78
   9   5   2   61.05    2.81
  10  -5   2   20.93    2.73
 -10  -5  -2   17.06    1.96
 -10  -5  -2   19.05    2.73
  10  -5   2   24.97    2.48
 -10   5  -2   23.97    2.63
  10   5   2   24.83    2.98
  10   5   2   22.93    2.50
 -10   5  -2   23.10    2.04
  11  -5   2    6.89    1.46
  11  -5   2    4.73    1.82
 -11  -5  -2    8.62    1.50
 -11  -5  -2    9.82    2.01
  11   5   2    4.41    1.96
  11   5   2    6.68    1.71
 -11   5  -2    8.24    1.49
  11  -6  -2   -0.30    2.03
  11  -6  -2   -1.45    1.72
  11  -6  -2   -0.10    2.26
  11   6  -2    5.66    1.99
 -11   6   2    0.60    1.35
 -11   6   2   -0.45    1.84
 -10  -6   2   13.74    1.83
 -10  -6   2    8.69    1.98
  10  -6  -2   10.65    1.82
  10  -6  -2    9.19    1.90
  10  -6  -2    6.72    1.51
 -10   6   2   11.65    1.61
  10   6  -2    9.35    1.79
 -10   6   2    7.34    1.95
  10   6  -2    9.19    1.90
   9  -6  -2    1.98    1.47
   9  -6  -2    2.70    1.40
  -9  -6   2    4.37    1.70
  -9  -6   2    6.09    1.07
   9  -6  -2    3.45    1.26
  -9  -6   2    1.64    1.01
  -9   6   2    3.62    1.60
  -9   6   2    1.12    1.64
   9   6  -2    3.21    1.56
  -9   6   2    3.49    1.25
   9   6  -2    3.40    1.52
  -8  -6   2   40.49    2.00
   8  -6  -2   39.53    2.37
  -8  -6   2   41.98    2.57
   8  -6  -2   42.95    2.41
  -8  -6   2   46.04    2.02
   8  -6  -2   45.21    2.57
  -8   6   2   44.19    2.11
  -8   6   2   42.22    2.16
  -8   6   2   39.32    2.60
   8   6  -2   43.31    2.73
   8   6  -2   45.72    2.56
  -7  -6   2   17.50    1.93
   7  -6  -2   19.64    1.75
  -7  -6   2   16.19    1.44
   7  -6  -2   19.11    2.72
  -7  -6   2   19.95    1.39
   7  -6  -2   19.45    2.02
  -7  -6   2   20.67    1.47
  -7   6   2   20.22    1.54
  -7   6   2   22.37    1.99
  -7   6   2   21.01    1.53
   7   6  -2   17.05    1.57
   7   6  -2   19.63    2.10
   6  -6  -2    0.44    0.93
  -6  -6   2    2.31    0.81
   6  -6  -2    0.92    0.86
   6  -6  -2    2.28    1.02
  -6  -6   2    1.20    0.73
  -6  -6   2    1.51    0.76
  -6  -6   2    0.72    1.02
   6   6  -2    1.07    0.77
  -6   6   2    1.32    0.81
  -6   6   2    1.41    0.84
   6   6  -2    0.13    1.09
  -6   6   2    1.98    1.00
   6   6  -2    2.48    1.00
  -5  -6   2   46.28    1.88
  -5  -6   2   45.28    1.87
  -5  -6   2   45.02    1.65
   5  -6  -2   45.02    2.05
  -5  -6   2   40.63    2.06
   5  -6  -2   43.24    2.06
   5   6  -2   46.58    2.03
  -5   6   2   44.95    1.99
  -5   6   2   43.70    1.77
  -5   6   2   44.15    1.74
   5   6  -2   42.84    1.84
   5   6  -2   47.80    2.19
  -4  -6   2    2.41    0.57
  -4  -6   2    3.01    0.89
   4  -6  -2    1.37    0.83
  -4  -6   2    2.36    0.75
  -4  -6   2    1.92    0.76
   4  -6  -2    2.86    0.85
   4   6  -2    2.53    0.82
  -4   6   2    2.47    0.80
  -4   6   2    2.11    0.67
   4   6  -2    1.98    0.74
   4   6  -2    1.20    0.90
   4   6  -2    1.34    0.58
  -4   6   2    2.52    0.66
  -3  -6   2    3.21    0.53
   3  -6  -2    2.11    0.80
  -3  -6   2    1.62    0.75
   3  -6  -2    1.63    0.72
  -3  -6   2    3.24    0.79
  -3   6   2    3.39    0.77
  -3   6   2    2.80    0.64
  -3   6   2    2.58    0.63
   3   6  -2    3.12    0.52
   3   6  -2    2.73    0.71
   2  -6  -2   65.01    2.13
  -2  -6   2   60.14    2.06
   2  -6  -2   61.96    2.20
  -2  -6   2   62.10    2.17
  -2  -6   2   62.46    1.77
  -2  -6   2   66.56    1.77
   2   6  -2   62.74    1.74
   2   6  -2   60.78    1.67
  -2   6   2   61.00    2.05
  -2   6   2   61.67    1.93
   2   6  -2   58.72    2.05
  -2   6   2   60.13    2.10
  -1  -6   2   11.94    0.61
  -1  -6   2   11.78    0.56
  -1  -6   2   11.45    0.77
  -1  -6   2   10.94    1.12
  -1  -6   2   10.60    0.55
   1  -6  -2   12.73    1.17
   1   6  -2    9.94    1.13
   1   6  -2   10.77    0.58
   1   6  -2   11.34    0.61
  -1   6   2   10.92    0.94
  -1   6   2    9.42    1.04
  -1   6   2   11.98    1.05
   0  -6   2   20.57    0.72
   0  -6   2   20.53    1.34
   0  -6  -2   21.84    1.33
   0  -6   2   21.93    0.73
   0  -6   2   22.03    0.72
   0  -6   2   21.60    0.94
   0   6  -2   20.70    0.72
   0   6  -2   21.29    0.76
   0   6  -2   20.44    1.24
   0   6   2   22.08    1.11
   0   6   2   20.86    1.29
   0   6   2   20.92    1.22
   1  -6   2    8.00    1.09
  -1  -6  -2    8.73    1.12
   1  -6   2    9.39    0.41
  -1  -6  -2    8.84    1.10
  -1  -6  -2    9.30    0.58
   1  -6   2    8.63    0.70
  -1  -6  -2    9.81    0.65
   1   6   2    8.68    0.87
   1   6   2   10.34    1.08
  -1   6  -2    8.14    0.47
  -1   6  -2    8.62    0.53
   1   6   2    8.57    1.15
  -1   6  -2    9.79    1.06
  -2  -6  -2   98.42    2.66
   2  -6   2   98.66    2.56
  -2  -6  -2   96.79    3.04
  -2  -6  -2  101.67    2.88
   2  -6   2   98.49    2.39
   2  -6   2   93.90    2.95
  -2   6  -2   98.03    2.45
  -2   6  -2   99.32    2.88
   2   6   2   96.08    2.90
  -2   6  -2   98.21    2.49
   2   6   2   98.32    2.74
  -3  -6  -2    4.50    0.71
   3  -6   2    4.92    0.56
  -3  -6  -2    3.40    0.93
   3  -6   2    4.51    0.91
  -3  -6  -2    6.13    0.91
   3  -6   2    4.91    1.02
  -3   6  -2    3.78    0.79
  -3   6  -2    3.43    0.44
   3   6   2    4.61    0.71
  -3   6  -2    4.70    0.60
   3   6   2    3.78    0.86
   4  -6   2    9.16    1.05
  -4  -6  -2   10.33    1.35
   4  -6   2    8.82    1.16
  -4  -6  -2    8.58    1.16
  -4  -6  -2    8.57    1.00
   4   6   2    8.57    1.05
  -4   6  -2    9.33    1.19
   4   6   2    8.14    0.90
   4   6   2    9.41    1.16
  -4   6  -2    9.96    0.49
   4   6   2    8.95    1.06
  -4   6  -2    8.53    0.70
  -4   6  -2    8.61    0.84
  -5  -6  -2    8.82    1.15
  -5  -6  -2    9.30    1.10
  -5  -6  -2    8.75    0.99
   5  -6   2    9.25    1.27
  -5  -6  -2    8.47    1.10
   5  -6   2    9.49    1.35
   5   6   2    8.87    0.96
   5   6   2   10.76    1.43
  -5   6  -2   12.24    1.14
   5   6   2   10.67    1.45
  -5   6  -2    9.88    1.00
   5   6   2    6.65    1.10
  -5   6  -2   10.27    1.12
   6  -6   2    6.98    1.33
  -6  -6  -2    7.96    1.22
  -6  -6  -2    5.82    1.06
  -6  -6  -2    6.44    0.93
   6  -6   2    8.00    1.13
  -6  -6  -2    7.22    1.03
   6   6   2    9.09    1.32
   6   6   2    7.36    1.03
   6   6   2    6.24    1.09
  -6   6  -2    7.22    0.84
  -6   6  -2    7.22    0.89
  -6   6  -2    6.63    1.00
   6   6   2   10.60    1.08
   7  -6   2   18.69    2.08
   7  -6   2   19.53    1.78
  -7  -6  -2   17.72    1.17
  -7  -6  -2   16.44    1.64
  -7  -6  -2   18.10    1.87
  -7  -6  -2   17.63    1.46
  -7   6  -2   19.81    1.72
   7   6   2   18.59    2.02
   7   6   2   20.00    2.05
   7   6   2   13.85    2.17
  -7   6  -2   14.78    1.48
   7   6   2   18.04    1.84
  -7   6  -2   19.96    1.52
  -8  -6  -2    4.31    1.11
  -8  -6  -2    3.79    1.35
   8  -6   2    5.10    1.48
  -8  -6  -2    4.57    1.10
   8  -6   2    2.57    1.26
   8   6   2    2.98    1.32
  -8   6  -2    3.79    1.08
   8   6   2    3.77    1.34
  -9  -6  -2    4.62    1.68
   9  -6   2    2.87    1.62
   9  -6   2    1.55    1.24
  -9  -6  -2    2.30    1.45
   9  -6   2    2.52    1.35
   9   6   2    3.28    1.55
  -9   6  -2    2.57    1.19
   9   6   2    3.72    1.47
  10  -6   2   -2.05    1.32
  10  -6   2    1.16    1.64
 -10  -6  -2    0.95    1.20
 -10  -6  -2    2.26    1.78
  10   6   2   -4.83    2.24
  10   6   2    1.46    1.60
  10  -7  -2    1.85    1.68
 -10  -7   2    0.20    1.05
  10  -7  -2   -0.48    1.69
  10  -7  -2   -2.70    1.19
 -10   7   2   -3.10    1.44
  10   7  -2    1.47    2.00
   9  -7  -2   18.48    2.43
  -9  -7   2   18.16    1.95
  -9  -7   2   20.63    2.76
   9  -7  -2   17.48    2.11
   9  -7  -2   17.73    2.43
   9   7  -2   23.55    2.74
  -9   7   2   25.75    2.34
   9   7  -2   23.72    3.26
  -8  -7   2    6.66    1.13
   8  -7  -2    7.84    1.61
   8  -7  -2    3.86    1.26
   8  -7  -2    6.24    1.45
  -8  -7   2    7.30    1.20
  -8  -7   2    6.99    1.71
  -8   7   2    7.77    1.34
  -8   7   2    7.23    1.60
   8   7  -2    6.13    1.63
   8   7  -2    5.24    1.57
  -7  -7   2   34.10    2.51
  -7  -7   2   36.76    1.99
   7  -7  -2   32.69    2.26
   7  -7  -2   33.81    2.23
  -7  -7   2   28.42    2.08
   7  -7  -2   35.89    2.43
  -7  -7   2   29.95    2.30
   7   7  -2   32.84    2.55
   7   7  -2   34.31    2.10
  -7   7   2   30.84    2.08
  -7   7   2   32.02    1.98
  -7   7   2   31.96    2.38
   7   7  -2   34.50    2.39
  -6  -7   2   10.70    1.43
   6  -7  -2    8.08    1.36
  -6  -7   2    8.46    1.16
  -6  -7   2   10.86    1.26
   6  -7  -2   10.48    1.25
  -6  -7   2   11.41    1.29
   6  -7  -2    8.20    1.29
  -6   7   2    9.10    1.11
  -6   7   2    8.23    1.11
  -6   7   2   11.65    1.40
   6   7  -2    9.12    1.55
   6   7  -2   10.18    1.19
   6   7  -2    9.52    1.42
   5  -7  -2   11.95    1.31
   5  -7  -2   15.93    2.07
  -5  -7   2   11.39    1.49
  -5  -7   2   13.12    1.47
  -5  -7   2   13.24    1.67
  -5  -7   2   13.06    1.15
  -5   7   2   15.30    1.71
   5   7  -2   12.24    1.83
   5   7  -2   14.56    1.55
  -5   7   2   13.91    1.47
  -5   7   2   13.75    1.36
  -4  -7   2    6.55    1.05
   4  -7  -2    9.00    1.15
  -4  -7   2    7.02    0.98
   4  -7  -2    6.66    1.12
  -4  -7   2    8.85    1.46
  -4  -7   2    8.03    1.08
   4   7  -2    6.48    0.98
  -4   7   2    7.54    1.11
  -4   7   2    8.00    0.91
  -4   7   2    8.52    1.16
   4   7  -2    8.45    0.85
  -3  -7   2    1.08    0.84
  -3  -7   2    2.10    0.90
  -3  -7   2    2.39    0.59
   3  -7  -2    2.13    0.87
   3  -7  -2    1.68    0.88
   3   7  -2    2.20    0.84
  -3   7   2    3.12    0.91
   3   7  -2    3.21    0.66
  -3   7   2    3.40    0.77
   2  -7  -2   41.40    1.96
   2  -7  -2   41.14    1.87
  -2  -7   2   40.82    1.89
  -2  -7   2   41.16    1.69
  -2  -7   2   43.08    1.40
   2   7  -2   44.58    1.89
  -2   7   2   41.69    1.85
   2   7  -2   42.42    1.42
  -2   7   2   40.56    1.66
   1  -7  -2   19.97    1.41
   1  -7  -2   21.93    1.53
  -1  -7   2   21.15    1.48
  -1  -7   2   23.41    0.79
   1   7  -2   20.59    1.47
  -1   7   2   21.95    1.48
  -1   7   2   21.27    1.25
   0  -7   2   19.47    1.48
   0  -7  -2   20.53    1.50
   0  -7   2   19.00    0.91
   0  -7   2   20.76    0.70
   0   7  -2   21.18    0.85
   0   7  -2   20.45    1.46
   0   7   2   20.94    1.23
   0   7   2   21.06    1.44
  -1  -7  -2   25.07    1.52
   1  -7   2   23.24    0.93
   1  -7   2   25.98    1.61
  -1  -7  -2   23.33    1.60
  -1   7  -2   24.59    0.92
   1   7   2   24.67    1.65
   1   7   2   26.48    1.59
  -1   7  -2   23.66    1.41
   2  -7   2    6.93    1.05
  -2  -7  -2    8.34    1.21
  -2  -7  -2    7.68    1.22
  -2  -7  -2    8.45    0.63
   2   7   2    9.05    1.14
  -2   7  -2    9.48    1.28
   2   7   2    8.44    1.05
  -3  -7  -2    8.01    0.92
   3  -7   2    6.15    1.14
  -3  -7  -2    6.39    1.18
   3  -7   2    6.11    1.11
  -3  -7  -2   10.07    1.06
  -3   7  -2    6.90    0.95
   3   7   2    5.80    0.84
   3   7   2    8.62    1.17
  -3   7  -2    8.43    0.86
  -4  -7  -2   13.74    1.43
   4  -7   2   15.27    1.55
  -4  -7  -2   14.23    1.34
  -4  -7  -2   16.40    1.68
   4  -7   2   15.63    1.61
  -4  -7  -2   15.45    1.22
  -4   7  -2   13.43    1.39
  -4   7  -2   15.61    1.08
   4   7   2   17.64    1.73
   4   7   2   14.02    1.35
   5  -7   2    1.05    1.22
   5  -7   2    1.14    1.20
  -5  -7  -2    1.46    1.02
  -5  -7  -2    0.27    0.97
  -5  -7  -2   -0.38    0.78
  -5  -7  -2    0.88    0.75
  -5   7  -2    1.12    0.78
   5   7   2    1.55    0.96
   5   7   2    2.19    1.15
   5   7   2    1.31    0.86
  -5   7  -2    1.12    0.70
   6  -7   2   30.24    2.47
  -6  -7  -2   28.63    2.06
  -6  -7  -2   34.67    1.68
  -6  -7  -2   33.94    2.32
  -6  -7  -2   31.24    1.76
   6  -7   2   34.09    2.18
   6   7   2   34.94    2.34
   6   7   2   33.82    2.64
   6   7   2   31.67    2.37
  -6   7  -2   32.06    1.79
   6   7   2   34.60    2.17
  -7  -7  -2    8.74    1.37
   7  -7   2    9.63    1.55
   7  -7   2    8.45    1.44
  -7  -7  -2   10.07    1.54
  -7  -7  -2    9.12    1.14
   7   7   2   10.26    2.24
   7   7   2    8.38    1.37
   7   7   2    6.45    1.50
   7   7   2    7.98    1.29
  -7   7  -2    6.64    1.41
   8  -7   2    1.16    1.49
   8  -7   2   -1.47    1.33
  -8  -7  -2    0.38    1.40
  -8  -7  -2    1.78    1.16
  -8  -7  -2   -0.45    1.18
   8  -7   2    2.28    1.38
   8   7   2    2.60    1.42
   9  -7   2    9.41    1.68
  -9  -7  -2   11.75    1.48
  -9  -7  -2   12.01    1.96
   9  -7   2    7.26    1.51
   9  -7   2    5.74    1.71
   9   7   2   11.31    1.83
   9  -8  -2    1.48    1.74
   9  -8  -2   -2.48    1.24
  -9  -8   2    1.20    1.05
   9   8  -2    1.58    1.89
  -8  -8   2   19.60    1.72
   8  -8  -2   10.94    1.82
  -8  -8   2   23.41    2.64
  -8  -8   2   19.08    1.89
   8  -8  -2   14.06    1.64
   8  -8  -2   15.37    1.89
   8   8  -2   10.87    2.15
   8   8  -2   13.07    2.04
  -8   8   2   17.04    2.18
   7  -8  -2   -0.52    1.18
  -7  -8   2    4.00    1.28
  -7  -8   2    7.84    1.64
  -7  -8   2    3.20    1.05
   7  -8  -2    3.40    1.53
   7  -8  -2    2.23    1.43
   7   8  -2    3.45    1.67
  -7   8   2    2.40    1.34
   7   8  -2    1.74    1.36
   6  -8  -2   -0.61    1.13
   6  -8  -2    1.12    1.33
  -6  -8   2    2.33    1.63
  -6  -8   2   -0.24    1.34
   6  -8  -2    0.79    1.34
  -6  -8   2   -0.78    1.09
  -6   8   2    0.45    1.15
   6   8  -2    0.70    1.32
   5  -8  -2    8.98    1.44
   5  -8  -2    8.61    1.39
  -5  -8   2   11.03    1.25
  -5  -8   2    9.39    1.29
  -5  -8   2    9.22    1.44
   5   8  -2    9.67    1.32
  -5   8   2    8.19    1.21
  -4  -8   2   -1.02    0.97
   4  -8  -2   -1.60    1.12
  -4  -8   2    0.30    1.14
   4  -8  -2    0.24    1.07
  -4  -8   2    1.05    1.09
  -4  -8   2    0.32    0.69
  -4   8   2    1.17    0.95
   4   8  -2   -0.24    1.01
   3  -8  -2    9.09    1.30
  -3  -8   2    9.66    1.26
  -3  -8   2    9.39    1.38
   3  -8  -2    8.92    1.26
  -3  -8   2   11.64    1.61
  -3   8   2    7.68    1.37
   3   8  -2    8.39    1.20
  -3   8   2   10.58    1.10
  -2  -8   2   29.89    1.94
   2  -8  -2   24.65    1.85
   2  -8  -2   25.46    1.97
   2   8  -2   25.63    1.65
  -2   8   2   23.65    1.81
  -2   8   2   24.07    1.54
   1  -8  -2   20.43    2.00
   1  -8  -2   22.02    1.78
  -1  -8   2   24.30    1.80
  -1   8   2   22.10    1.54
   1   8  -2   23.92    1.79
  -1   8   2   27.44    1.85
   0  -8  -2    6.59    1.64
   0  -8  -2    4.71    1.25
   0  -8   2    5.30    1.16
   0   8  -2    5.43    1.03
   0   8   2    4.04    0.91
   0   8   2    4.49    1.13
   1  -8   2   31.85    1.97
  -1  -8  -2   29.57    1.89
  -1  -8  -2   29.03    2.14
   1   8   2   28.45    1.61
  -1   8  -2   31.88    1.85
   1   8   2   29.05    1.91
   2  -8   2    2.04    1.08
  -2  -8  -2    3.31    1.03
  -2  -8  -2    1.86    1.13
   2   8   2    3.34    1.20
   2   8   2    5.03    0.92
  -2   8  -2    3.03    0.97
   3  -8   2    6.82    1.55
  -3  -8  -2   11.76    1.53
   3  -8   2    8.45    1.33
  -3  -8  -2   11.39    1.56
  -3   8  -2    7.99    1.07
   3   8   2   10.16    1.12
   3   8   2   10.45    1.38
  -4  -8  -2    2.05    0.91
   4  -8   2    3.55    1.26
  -4  -8  -2    2.10    1.26
  -4  -8  -2    3.94    1.07
   4  -8   2    2.47    1.32
  -4   8  -2    2.45    0.96
   4   8   2    2.94    1.02
   4   8   2    0.31    1.28
   5  -8   2   51.46    2.94
   5  -8   2   55.90    2.68
  -5  -8  -2   51.97    2.21
  -5  -8  -2   52.25    2.65
  -5   8  -2   54.60    2.40
   5   8   2   53.53    2.36
   5   8   2   53.08    2.80
   6  -8   2    2.16    1.40
   6  -8   2    2.84    1.54
  -6  -8  -2    1.82    1.36
  -6  -8  -2    2.05    1.05
  -6  -8  -2    2.83    1.19
   6   8   2    2.55    1.59
   6   8   2    1.75    1.22
  -6   8  -2    0.41    1.13
  -7  -8  -2    8.20    1.54
  -7  -8  -2    7.70    1.26
   7  -8   2    8.71    1.64
   7  -8   2   10.18    1.92
   7   8   2   10.46    1.55
   8  -8   2   10.02    1.72
  -8  -8  -2   14.58    1.92
   8  -8   2   17.26    2.14
   8  -8   2   15.02    1.95
  -7  -9   2    5.75    1.31
  -6  -9   2    4.73    1.37
   6  -9  -2    5.83    1.75
   6   9  -2    0.60    1.60
  -5  -9   2   13.65    1.79
  -5  -9   2   14.19    1.69
   5  -9  -2   13.19    1.87
   5   9  -2   12.83    1.75
  -4  -9   2   24.36    2.10
  -4  -9   2   16.09    1.87
   4  -9  -2   20.31    2.27
   4   9  -2   18.91    2.30
  -3  -9   2    3.93    1.47
   3  -9  -2    4.46    1.31
  -3  -9   2    2.81    1.25
  -3   9   2    7.44    1.55
   3   9  -2    5.54    1.41
   2  -9  -2   14.25    2.03
  -2  -9   2   13.57    1.97
  -2   9   2   11.66    1.27
   2   9  -2   13.31    1.52
   1  -9  -2    4.67    1.27
  -1  -9   2    6.99    1.36
  -1   9   2    5.50    1.11
   1   9  -2    8.11    1.36
   0  -9  -2   22.44    2.41
   0  -9   2   24.70    2.26
   0  -9  -2   23.20    1.95
   0   9   2   22.48    1.76
   0   9  -2   21.76    2.02
  -1  -9  -2   19.21    2.11
  -1  -9  -2   19.62    1.91
   1  -9   2   21.90    2.27
  -1   9  -2   22.84    2.00
   1   9   2   18.21    1.75
  -2  -9  -2    1.02    1.51
   2  -9   2    3.52    1.39
   2  -9   2    0.14    1.36
  -2  -9  -2    1.67    1.11
  -2   9  -2    4.40    1.25
   2   9   2    2.38    1.88
   3  -9   2    3.91    1.34
  -3  -9  -2    4.76    1.06
  -3  -9  -2    5.43    1.26
   3  -9   2    3.40    1.51
  -3  -9  -2    5.00    1.57
   3   9   2    3.63    1.15
  -3   9  -2    3.98    1.21
   4  -9   2   13.58    1.87
   4  -9   2   12.76    1.71
  -4  -9  -2   16.34    1.89
  -4  -9  -2   16.05    1.91
  -4  -9  -2   14.66    1.88
   4   9   2   16.24    1.93
  -4   9  -2   13.01    1.52
  -5  -9  -2    6.14    1.21
   5  -9   2    6.66    1.76
  -5  -9  -2    3.75    1.10
  -5  -9  -2    2.59    1.55
   5  -9   2    2.03    1.72
  -5   9  -2    0.73    1.66
   5   9   2    3.50    1.35
  -6  -9  -2   10.65    1.32
   6  -9   2    9.01    1.70
  -6  -9  -2    7.33    1.75
   6  -9   2    6.15    2.00
  -6   9  -2    6.79    1.52
   6   9   2   10.75    1.53
  -7  -9  -2    6.10    1.49
  -7  -9  -2    6.68    1.17
  -5 -10   2    3.32    1.75
  -4 -10   2    2.44    1.31
  -4 -10   2   -1.43    1.64
   4  10  -2    0.58    1.48
  -3 -10   2    7.73    1.92
   3 -10  -2    3.74    1.46
  -3 -10   2    2.98    1.30
   3  10  -2    2.70    1.61
  -2 -10   2   -0.27    1.69
   2 -10  -2    2.65    1.94
  -2 -10   2   -1.78    1.39
   2 -10  -2   -0.33    1.36
   2  10  -2   -1.68    1.53
   1 -10  -2    3.63    1.97
   1 -10  -2    8.79    1.58
  -1 -10   2    8.44    1.70
   1  10  -2    0.65    1.45
   0 -10   2   21.14    2.49
   0 -10  -2   23.94    2.32
   0 -10  -2   24.75    2.85
   0  10  -2   16.48    1.79
   1 -10   2    6.77    1.71
   1 -10   2   10.79    1.75
  -1 -10  -2    5.59    1.40
  -1 -10  -2    7.23    1.97
  -1  10  -2    6.53    1.53
   2 -10   2   29.29    2.52
  -2 -10  -2   28.73    2.25
   2 -10   2   23.56    2.94
  -2  10  -2   23.07    2.42
  -3 -10  -2    4.27    1.65
  -3 -10  -2    9.05    1.43
   3 -10   2    1.68    1.76
   3 -10   2    6.11    1.67
  -3  10  -2    4.98    1.44
   4 -10   2   16.42    2.07
 -13   0   3    9.29    1.91
  13   0  -3    9.98    2.53
 -13   0   3    6.02    2.10
  12   0  -3    9.18    1.94
  12   0  -3    9.44    1.66
 -12   0   3   10.44    1.55
 -12   0   3   11.55    2.04
 -11   0   3    6.81    1.58
  11   0  -3    4.84    1.46
 -11   0   3    5.69    1.22
  11   0  -3    7.10    1.39
 -10   0   3   55.73    3.49
  10   0  -3   64.72    3.44
  10   0  -3   59.23    3.94
  10   0  -3   70.47    2.37
 -10   0   3   67.70    2.92
   9   0  -3    2.93    0.92
  -9   0   3    1.89    0.78
   9   0  -3    3.61    1.16
   9   0  -3    3.13    0.79
  -9   0   3    3.00    1.05
  -8   0   3   56.97    2.31
   8   0  -3   56.35    2.28
   8   0  -3   56.84    1.93
   8   0  -3   56.55    2.17
  -8   0   3   55.43    2.00
   7   0  -3   29.94    1.31
  -7   0   3   28.66    1.27
   7   0  -3   30.88    0.80
  -7   0   3   29.86    1.56
   7   0  -3   32.24    1.49
   7   0  -3   30.79    1.55
   7   0  -3   30.11    0.80
  -6   0   3  111.10    3.01
   6   0  -3  110.68    3.09
   6   0  -3  113.13    3.23
   6   0  -3  111.59    3.01
   6   0  -3  114.63    2.70
  -6   0   3  114.30    3.24
   5   0  -3   44.57    1.59
   5   0  -3   48.03    1.45
   5   0  -3   45.97    1.50
  -5   0   3   45.22    1.46
   5   0  -3   47.36    1.22
   4   0  -3   58.71    1.69
   4   0  -3   59.20    1.51
  -4   0   3   58.75    1.80
  -4   0   3   58.57    1.65
   4   0  -3   57.38    1.75
   4   0  -3   60.86    1.69
  -3   0   3    9.12    0.56
  -3   0   3   11.23    0.66
   3   0  -3   10.20    0.48
  -3   0   3   10.14    0.61
   3   0  -3    9.17    0.53
   3   0  -3    8.90    0.33
  -3   0   3    8.95    0.60
   3   0  -3    9.54    0.60
   3   0  -3   10.47    0.68
  -3   0   3    9.98    0.59
   3   0  -3    9.41    0.61
   2   0  -3  577.24   13.18
  -2   0   3  558.80   13.14
   2   0  -3  566.63   13.08
   2   0  -3  577.28   13.09
   2   0  -3  557.74   13.12
  -2   0   3  587.44   13.13
  -2   0   3  556.48   13.18
  -2   0   3  536.70   13.05
  -2   0   3  577.51   13.08
   2   0  -3  562.45   13.13
  -2   0   3  591.00   13.14
  -2   0   3  542.50   13.08
   2   0  -3  556.34   12.99
   0   0  -3  612.07   14.62
   0   0   3  644.15   14.59
   0   0  -3  613.54   14.58
   0   0   3  655.67   14.56
   0   0  -3  628.15   14.57
  -1   0  -3  138.63    3.37
   1   0   3  134.15    3.17
   1   0   3  139.24    3.32
  -1   0  -3  129.08    3.23
  -1   0  -3  138.92    3.21
  -1   0  -3  138.18    3.28
   1   0   3  135.71    3.38
   1   0   3  140.91    3.24
  -1   0  -3  129.10    3.31
  -1   0  -3  133.18    3.22
   1   0   3  131.13    3.20
   1   0   3  130.22    3.28
  -2   0  -3   24.80    0.99
   2   0   3   24.97    0.89
   2   0   3   24.73    0.78
   2   0   3   24.11    1.01
  -2   0  -3   24.76    0.76
   2   0   3   25.65    0.63
  -2   0  -3   23.88    0.89
  -2   0  -3   25.04    0.89
  -2   0  -3   25.96    0.78
   2   0   3   23.60    0.88
   2   0   3   24.38    0.88
   3   0   3  107.16    2.76
  -3   0  -3  107.72    2.75
  -3   0  -3  104.55    2.57
   3   0   3  108.33    2.77
   3   0   3  106.22    2.65
  -3   0  -3  107.85    3.00
   3   0   3   98.42    2.81
   3   0   3  106.68    2.76
   3   0   3  107.32    2.71
  -3   0  -3  106.78    2.64
  -3   0  -3  109.40    2.75
  -3   0  -3  102.52    2.75
   4   0   3  327.49    7.86
   4   0   3  334.36    7.88
  -4   0  -3  326.82    7.84
  -4   0  -3  329.14    7.74
   4   0   3  321.84    7.71
  -4   0  -3  317.67    7.58
   4   0   3  327.59    7.80
   5   0   3    1.91    0.48
   5   0   3    1.46    0.56
  -5   0  -3    1.92    0.62
  -5   0  -3    1.89    0.19
   5   0   3    1.82    0.54
  -5   0  -3    1.97    0.43
   6   0   3  132.95    3.67
   6   0   3  128.32    3.52
  -6   0  -3  133.37    3.06
  -6   0  -3  126.35    3.50
  -6   0  -3  129.45    3.43
   7   0   3   -0.40    0.58
  -7   0  -3    0.15    0.60
  -7   0  -3    0.33    0.64
   7   0   3    0.11    0.74
  -8   0  -3   26.10    1.39
  -8   0  -3   24.56    1.46
   8   0   3   26.93    1.63
   8   0   3   24.06    1.79
   9   0   3   14.75    1.61
  -9   0  -3   14.74    1.34
   9   0   3   18.88    1.93
  -9   0  -3   13.22    1.36
 -10   0  -3    8.76    1.11
 -10   0  -3    8.93    1.20
  10   0   3    7.44    1.35
  10   0   3    8.07    1.23
 -11   0  -3    4.73    1.19
  11   0   3    3.93    1.66
  11   0   3    4.56    1.29
  12   0   3    0.46    1.76
 -12   0  -3    3.05    1.38
  12   0   3    1.39    1.52
 -13  -1   3    8.14    2.05
 -13   1   3    6.88    2.30
 -13   1   3   10.74    1.89
  12  -1  -3    9.72    1.92
  12  -1  -3   12.66    1.68
 -12  -1   3   13.98    1.72
 -12  -1   3   14.58    2.21
 -12   1   3   17.75    2.11
  12   1  -3   16.26    2.44
 -12   1   3   10.13    1.29
 -12   1   3   14.70    2.13
  12   1  -3    9.78    1.94
  11  -1  -3   48.26    2.33
 -11  -1   3   53.21    2.39
 -11  -1   3   52.77    3.00
  11  -1  -3   51.55    3.04
  11  -1  -3   49.97    2.64
 -11   1   3   50.96    2.88
  11   1  -3   51.66    2.72
  11   1  -3   52.71    3.01
 -11   1   3   49.87    2.36
  10  -1  -3    3.23    0.92
  10  -1  -3    3.05    1.23
 -10  -1   3    3.27    0.99
  10  -1  -3    2.16    1.81
  10   1  -3    3.32    1.11
 -10   1   3    4.95    1.35
  10   1  -3    4.12    1.35
 -10   1   3    2.75    1.80
  -9  -1   3    6.80    1.21
   9  -1  -3    4.47    1.10
   9  -1  -3    5.61    1.08
  -9  -1   3    6.99    0.97
   9  -1  -3    5.03    1.01
  -9   1   3    6.84    1.19
   9   1  -3    4.62    0.94
   9   1  -3    6.99    1.23
  -9   1   3    7.03    1.01
   8  -1  -3   27.74    1.40
  -8  -1   3   26.90    1.74
   8  -1  -3   28.68    1.66
  -8  -1   3   27.77    1.42
   8  -1  -3   26.29    1.79
  -8   1   3   27.45    1.43
   8   1  -3   29.50    1.71
  -8   1   3   29.10    1.72
   8   1  -3   29.66    1.64
  -7  -1   3  138.37    4.01
   7  -1  -3  142.59    3.35
   7  -1  -3  144.68    3.87
   7  -1  -3  142.38    3.44
   7  -1  -3  139.47    3.34
  -7  -1   3  139.90    3.75
   7  -1  -3  137.97    3.73
   7  -1  -3  139.07    3.94
   7   1  -3  143.23    3.32
  -7   1   3  137.30    3.75
   7   1  -3  138.54    4.00
   7   1  -3  143.38    3.73
  -7   1   3  140.18    3.96
   7   1  -3  143.09    3.88
   6  -1  -3   90.97    2.57
   6  -1  -3   95.43    2.31
   6  -1  -3   89.94    2.62
   6  -1  -3   91.81    2.74
  -6  -1   3   88.00    2.80
   6  -1  -3   93.26    2.27
  -6  -1   3   88.43    2.55
   6  -1  -3   94.27    2.27
   6   1  -3   88.77    2.59
   6   1  -3   87.57    2.73
   6   1  -3   91.69    2.51
  -6   1   3   87.78    2.52
   6   1  -3   91.86    2.21
  -6   1   3   92.99    2.69
   5  -1  -3   16.00    1.46
   5  -1  -3   17.35    0.64
  -5  -1   3   15.43    0.79
  -5  -1   3   16.95    0.58
   5  -1  -3   18.04    1.05
   5  -1  -3   17.51    0.62
  -5  -1   3   14.88    1.06
   5   1  -3   14.75    0.93
  -5   1   3   14.52    0.83
   5   1  -3   15.17    0.57
  -5   1   3   15.20    0.85
   5   1  -3   13.78    1.00
   5   1  -3   13.64    0.76
   4  -1  -3  261.02    6.30
   4  -1  -3  261.27    6.37
  -4  -1   3  256.64    6.47
  -4  -1   3  251.57    6.28
   4  -1  -3  276.08    6.17
   4  -1  -3  261.14    6.34
  -4  -1   3  274.29    6.18
  -4   1   3  259.37    6.26
   4   1  -3  254.21    6.05
  -4   1   3  244.97    6.16
   4   1  -3  256.51    6.23
  -4   1   3  259.60    6.15
  -4   1   3  271.92    6.22
   4   1  -3  262.03    6.32
   4   1  -3  253.48    6.19
   3  -1  -3   90.48    2.36
  -3  -1   3   89.60    2.47
  -3  -1   3   91.41    2.40
   3  -1  -3   88.84    2.28
  -3  -1   3   90.85    2.33
  -3  -1   3   94.52    2.23
   3  -1  -3   88.68    2.29
  -3  -1   3   86.24    2.27
  -3  -1   3   90.36    2.33
   3  -1  -3   85.30    2.33
   3   1  -3   87.68    2.35
   3   1  -3   92.00    2.29
   3   1  -3   87.36    2.33
  -3   1   3   92.86    2.34
  -3   1   3   88.20    2.28
   3   1  -3   88.52    2.23
  -3   1   3   92.08    2.29
  -3   1   3   89.60    2.35
  -3   1   3   88.40    2.31
   3   1  -3   88.10    2.40
  -3   1   3   90.95    2.34
  -3   1   3   88.59    2.40
  -2  -1   3  834.45   19.47
   2  -1  -3  854.43   19.53
  -2  -1   3  844.31   19.53
   2  -1  -3  869.56   19.49
   2  -1  -3  829.85   19.54
  -2  -1   3  856.00   19.54
   2  -1  -3  836.76   19.51
  -2  -1   3  838.47   19.58
  -2   1   3  835.36   19.43
  -2   1   3  869.09   19.48
   2   1  -3  824.62   19.52
   2   1  -3  822.90   19.55
   2   1  -3  861.05   19.41
  -1  -1   3  228.37    5.21
   1  -1  -3  215.03    5.24
   1  -1  -3  218.09    5.25
  -1  -1   3  226.54    5.25
  -1  -1   3  227.00    5.23
  -1  -1   3  219.55    5.34
   1  -1  -3  223.57    5.25
  -1  -1   3  224.66    5.29
   1  -1  -3  209.24    5.12
   1  -1  -3  228.33    5.30
  -1  -1   3  215.97    5.17
  -1  -1   3  217.88    5.13
   1  -1  -3  222.69    5.23
   1  -1  -3  212.26    5.16
  -1  -1   3  218.87    5.19
   1  -1  -3  231.97    5.22
  -1  -1   3  226.24    5.25
  -1   1   3  211.77    5.10
   1   1  -3  220.12    5.22
  -1   1   3  224.70    5.21
  -1   1   3  216.88    5.18
   1   1  -3  221.37    5.18
  -1   1   3  219.14    5.21
  -1   1   3  217.00    5.22
  -1   1   3  213.54    5.13
   1   1  -3  221.60    5.26
   1   1  -3  223.30    5.14
   1   1  -3  213.35    5.19
  -1   1   3  222.97    5.22
   1   1  -3  236.88    5.33
   0  -1  -3  689.02   15.49
   0  -1  -3  678.29   15.45
   0  -1  -3  652.30   15.42
   0  -1   3  669.29   15.46
   0  -1   3  673.07   15.48
   0  -1   3  679.44   15.45
   0  -1   3  629.34   15.53
   0  -1   3  663.73   15.49
   0  -1  -3  687.13   15.51
   0   1   3  665.38   15.78
   0   1   3  683.70   15.80
   0   1   3  692.35   15.78
   0   1  -3  684.93   15.83
  -1  -1  -3  258.91    6.22
  -1  -1  -3  269.46    6.22
   1  -1   3  275.96    6.22
   1  -1   3  252.99    6.04
  -1  -1  -3  263.53    6.13
  -1  -1  -3  250.17    6.06
   1  -1   3  261.29    6.13
  -1  -1  -3  260.31    6.14
   1  -1   3  261.07    6.26
  -1  -1  -3  266.38    6.23
   1  -1   3  252.96    6.10
  -1   1  -3  250.96    6.05
  -1   1  -3  268.39    6.11
  -1   1  -3  259.84    5.89
   1   1   3  244.58    5.96
   1   1   3  254.93    5.91
   1   1   3  270.36    6.07
  -1   1  -3  246.28    5.89
  -1   1  -3  259.09    5.94
   1   1   3  245.10    5.89
   1   1   3  252.50    5.90
  -1   1  -3  247.62    5.97
   1   1   3  255.86    6.06
   1   1   3  249.48    6.07
   2  -1   3   32.54    1.09
  -2  -1  -3   29.29    1.07
   2  -1   3   29.52    1.07
  -2  -1  -3   32.55    1.07
   2  -1   3   31.97    1.14
  -2  -1  -3   30.68    0.95
   2  -1   3   31.36    0.88
  -2  -1  -3   31.78    0.94
  -2  -1  -3   30.64    0.79
  -2  -1  -3   31.16    1.12
   2  -1   3   31.92    0.97
   2  -1   3   32.99    0.93
   2   1   3   31.89    1.12
  -2   1  -3   32.13    1.11
  -2   1  -3   33.92    0.91
  -2   1  -3   34.30    1.00
  -2   1  -3   35.72    0.92
  -2   1  -3   32.74    0.96
   2   1   3   31.98    0.82
  -2   1  -3   34.02    1.18
   2   1   3   31.53    0.99
   2   1   3   32.70    0.98
   2   1   3   31.26    0.95
   2   1   3   30.95    1.15
   3  -1   3  398.24    9.91
   3  -1   3  425.98    9.70
   3  -1   3  404.86    9.66
  -3  -1  -3  415.66    9.87
   3  -1   3  428.15    9.92
  -3  -1  -3  432.94    9.80
   3  -1   3  415.38    9.81
   3   1   3  435.78    9.83
  -3   1  -3  400.03    9.81
   3   1   3  424.15    9.85
   3   1   3  412.49    9.71
   3   1   3  414.66    9.75
   3   1   3  405.65    9.71
  -3   1  -3  421.82    9.75
  -3   1  -3  422.86    9.90
  -3   1  -3  402.76    9.64
  -3   1  -3  407.77    9.66
  -3   1  -3  415.02    9.65
  -4  -1  -3  127.39    3.32
   4  -1   3  128.30    3.43
   4  -1   3  130.78    3.07
  -4  -1  -3  129.72    3.08
  -4  -1  -3  115.79    3.35
   4  -1   3  134.98    3.09
   4  -1   3  127.03    3.42
   4   1   3  132.28    3.36
  -4   1  -3  134.26    3.23
  -4   1  -3  134.11    3.14
   4   1   3  135.13    3.31
   4   1   3  119.65    3.70
   4   1   3  124.82    3.63
  -4   1  -3  128.32    3.36
  -5  -1  -3   50.33    1.27
   5  -1   3   48.92    1.29
  -5  -1  -3   46.39    1.61
  -5  -1  -3   49.33    1.54
   5  -1   3   49.28    1.68
   5  -1   3   47.45    1.75
   5  -1   3   48.61    1.29
  -5  -1  -3   49.37    1.26
   5   1   3   49.38    1.63
  -5   1  -3   52.05    1.31
  -5   1  -3   50.71    1.31
   5   1   3   47.24    1.72
  -5   1  -3   48.41    1.50
   5   1   3   51.09    1.79
  -5   1  -3   48.58    1.67
   5   1   3   52.05    1.58
  -6  -1  -3  155.97    3.76
  -6  -1  -3  160.46    3.76
   6  -1   3  160.15    4.26
   6  -1   3  162.49    4.38
   6  -1   3  162.81    3.84
  -6  -1  -3  159.71    4.19
  -6  -1  -3  161.29    4.15
   6   1   3  162.83    4.41
  -6   1  -3  164.18    4.13
   6   1   3  159.61    4.34
  -6   1  -3  167.18    3.85
   6   1   3  157.29    4.24
  -6   1  -3  166.82    3.90
  -6   1  -3  162.31    4.29
  -7  -1  -3   80.45    2.46
  -7  -1  -3   78.30    2.40
   7  -1   3   79.81    2.76
   7  -1   3   78.65    2.02
   7  -1   3   80.21    2.59
  -7   1  -3   79.81    2.36
   7   1   3   82.70    2.71
  -7   1  -3   78.35    1.88
   7   1   3   78.63    2.53
  -7   1  -3   79.95    2.01
  -7   1  -3   79.39    2.50
   8  -1   3    5.28    0.44
  -8  -1  -3    6.74    0.88
  -8  -1  -3    5.61    0.83
   8  -1   3    5.54    0.90
   8  -1   3    5.22    1.06
  -8   1  -3    6.49    0.88
  -8   1  -3    5.48    0.81
   8   1   3    4.75    0.85
   8   1   3    4.66    1.01
  -9  -1  -3   26.32    1.65
   9  -1   3   29.75    1.85
   9  -1   3   28.55    2.15
  -9  -1  -3   27.65    1.63
  -9   1  -3   27.47    1.58
   9   1   3   25.42    1.86
   9   1   3   25.88    2.08
  -9   1  -3   27.41    1.55
 -10  -1  -3   28.39    1.78
  10  -1   3   30.11    2.41
  10  -1   3   23.80    2.09
 -10  -1  -3   29.12    1.83
 -10   1  -3   28.64    2.44
 -10   1  -3   29.28    1.81
  10   1   3   23.87    2.40
  10   1   3   25.17    2.07
  11  -1   3   24.28    2.41
 -11  -1  -3   27.58    2.09
  11  -1   3   30.09    2.87
  11   1   3   23.84    2.45
  11   1   3   24.80    2.82
 -11   1  -3   29.36    2.01
 -11   1  -3   23.77    1.89
  12  -1   3    2.47    1.84
  12  -1   3    1.94    1.53
 -12  -1  -3   -0.10    1.40
 -12   1  -3    0.69    1.40
  12   1   3    4.96    1.94
  12   1   3    3.07    1.49
 -13   2   3    5.70    2.21
  12  -2  -3    6.35    1.93
 -12  -2   3    7.14    1.50
  12  -2  -3    9.54    1.56
 -12  -2   3    8.06    2.12
 -12   2   3    8.26    1.56
 -12   2   3   11.21    2.14
  12   2  -3    3.63    1.55
 -12   2   3    7.23    1.38
  12   2  -3    4.51    1.98
 -11  -2   3   50.25    2.35
 -11  -2   3   48.55    3.00
  11  -2  -3   51.40    2.37
  11  -2  -3   48.76    2.69
  11  -2  -3   45.96    3.00
 -11   2   3   49.73    2.42
 -11   2   3   47.72    2.28
  11   2  -3   45.82    3.09
  11   2  -3   47.89    2.72
 -11   2   3   52.68    2.91
 -10  -2   3   13.94    2.06
  10  -2  -3   16.15    2.08
  10  -2  -3   16.12    1.86
 -10  -2   3   15.34    1.53
  10  -2  -3   15.49    1.61
  10   2  -3   15.22    1.87
 -10   2   3   17.51    1.65
 -10   2   3   16.71    1.49
 -10   2   3   14.60    2.01
  10   2  -3   16.34    2.16
   9  -2  -3   25.68    1.56
   9  -2  -3   28.77    1.80
  -9  -2   3   23.72    1.98
  -9  -2   3   26.68    1.58
   9  -2  -3   25.54    1.97
   9   2  -3   26.13    2.06
  -9   2   3   24.20    1.48
  -9   2   3   27.31    1.81
  -9   2   3   27.02    1.57
   9   2  -3   24.94    1.78
  -8  -2   3    4.89    0.84
   8  -2  -3    4.22    0.44
   8  -2  -3    4.79    1.04
  -8  -2   3    6.10    1.06
   8  -2  -3    4.83    0.82
   8  -2  -3    5.55    0.91
   8   2  -3    3.69    0.87
   8   2  -3    3.64    1.02
  -8   2   3    6.68    1.00
  -8   2   3    5.31    0.81
  -8   2   3    6.71    0.88
   7  -2  -3    1.21    0.34
   7  -2  -3    1.93    0.44
   7  -2  -3    1.48    0.30
  -7  -2   3    1.33    0.78
   7  -2  -3    1.34    0.64
  -7  -2   3    2.13    0.67
  -7  -2   3    2.03    0.26
   7  -2  -3    2.39    0.86
   7  -2  -3    1.53    0.71
   7   2  -3    1.67    0.27
   7   2  -3    1.72    0.82
  -7   2   3    1.62    0.67
  -7   2   3    2.30    0.73
   7   2  -3    2.31    0.83
  -7   2   3    1.16    0.62
   6  -2  -3   14.77    0.70
  -6  -2   3   14.90    0.90
  -6  -2   3   16.41    0.60
   6  -2  -3   16.54    1.10
  -6  -2   3   13.89    1.14
  -6  -2   3   14.41    0.46
   6  -2  -3   16.46    1.19
   6  -2  -3   14.15    1.06
   6  -2  -3   15.49    0.87
  -6  -2   3   14.95    0.47
  -6   2   3   15.42    1.27
   6   2  -3   13.99    1.28
  -6   2   3   13.71    0.90
  -6   2   3   15.07    0.91
   6   2  -3   14.27    1.02
   6   2  -3   14.80    0.62
   5  -2  -3   23.26    1.19
  -5  -2   3   21.48    0.98
  -5  -2   3   21.95    0.65
   5  -2  -3   23.19    0.94
   5  -2  -3   22.85    1.09
  -5  -2   3   21.28    1.24
  -5  -2   3   22.58    0.65
  -5  -2   3   22.47    0.75
   5  -2  -3   22.82    1.07
   5  -2  -3   22.96    0.83
  -5   2   3   21.88    0.97
  -5   2   3   22.40    0.97
  -5   2   3   21.75    0.95
   5   2  -3   21.87    1.12
   5   2  -3   22.70    0.78
   5   2  -3   20.89    1.16
  -4  -2   3  180.34    4.47
   4  -2  -3  180.76    4.49
  -4  -2   3  184.27    4.31
  -4  -2   3  183.32    4.38
   4  -2  -3  189.32    4.46
  -4  -2   3  186.02    4.31
   4  -2  -3  181.11    4.57
   4  -2  -3  177.23    4.40
  -4  -2   3  182.72    4.78
   4   2  -3  176.23    4.39
   4   2  -3  174.37    4.17
   4   2  -3  175.63    4.47
  -4   2   3  179.64    4.31
  -4   2   3  177.94    4.28
  -4   2   3  156.33    4.39
  -3  -2   3  205.90    5.33
   3  -2  -3  210.93    5.21
  -3  -2   3  204.83    5.11
  -3  -2   3  218.50    5.06
   3  -2  -3  212.12    5.12
   3  -2  -3  217.62    5.18
  -3  -2   3  218.02    5.04
  -3  -2   3  214.72    5.15
   3  -2  -3  216.76    5.11
  -3  -2   3  218.90    5.10
   3   2  -3  214.64    4.98
  -3   2   3  202.22    5.02
  -3   2   3  209.92    5.12
  -3   2   3  214.72    5.04
  -3   2   3  201.55    4.96
   3   2  -3  205.78    5.16
  -3   2   3  206.09    5.00
   3   2  -3  204.02    4.99
   3   2  -3  210.36    5.09
  -2  -2   3  166.24    4.13
  -2  -2   3  161.12    4.05
  -2  -2   3  163.04    4.11
   2  -2  -3  171.02    4.11
   2  -2  -3  166.65    4.00
  -2  -2   3  161.45    3.94
  -2  -2   3  163.13    3.89
   2  -2  -3  161.64    3.98
   2  -2  -3  168.64    4.03
  -2  -2   3  164.65    4.17
  -2  -2   3  171.53    3.98
   2  -2  -3  169.41    3.95
   2  -2  -3  163.01    4.07
   2  -2  -3  165.09    3.94
  -2  -2   3  167.84    3.97
   2   2  -3  165.16    4.01
   2   2  -3  171.54    3.96
  -2   2   3  165.85    3.96
   2   2  -3  160.74    4.08
   2   2  -3  162.76    4.14
  -2   2   3  163.98    4.06
  -2   2   3  163.36    4.01
  -2   2   3  171.00    3.99
  -2   2   3  163.96    4.03
  -2   2   3  165.73    4.12
   2   2  -3  169.79    4.17
  -1  -2   3  539.40   12.55
  -1  -2   3  550.07   12.71
   1  -2  -3  561.07   12.72
   1  -2  -3  529.33   12.60
   1  -2  -3  510.13   12.72
   1  -2  -3  538.59   12.77
  -1  -2   3  532.74   12.81
   1  -2  -3  551.67   12.65
  -1  -2   3  555.84   12.71
  -1  -2   3  560.57   12.80
  -1  -2   3  547.32   12.75
   1  -2  -3  570.52   12.80
   1  -2  -3  567.85   12.70
  -1   2   3  551.17   12.62
   1   2  -3  566.12   12.72
   1   2  -3  548.60   12.49
   1   2  -3  546.13   12.61
  -1   2   3  548.28   12.68
  -1   2   3  534.13   12.58
   1   2  -3  524.60   12.64
  -1   2   3  535.96   12.60
   1   2  -3  533.57   12.60
  -1   2   3  543.43   12.54
   1   2  -3  533.10   12.69
   0  -2  -3  157.15    3.85
   0  -2  -3  163.06    3.95
   0  -2  -3  161.69    3.83
   0  -2   3  151.43    3.94
   0  -2  -3  164.97    3.94
   0  -2   3  164.87    3.86
   0  -2  -3  162.11    3.86
   0  -2   3  160.50    3.89
   0  -2   3  157.30    3.88
   0  -2   3  159.09    3.95
   0  -2  -3  161.87    3.84
   0  -2  -3  156.01    3.69
   0  -2   3  151.15    3.67
   0   2  -3  151.51    3.83
   0   2  -3  150.45    3.78
   0   2   3  160.47    3.77
   0   2   3  152.87    3.78
   0   2   3  154.19    3.76
   0   2  -3  162.55    3.88
   0   2   3  161.10    3.87
   0   2   3  154.33    3.76
  -1  -2  -3   11.53    0.40
  -1  -2  -3   10.66    0.55
   1  -2   3    9.24    0.52
  -1  -2  -3   11.97    0.66
   1  -2   3    9.01    0.69
  -1  -2  -3   11.29    0.38
  -1  -2  -3   11.19    0.60
   1  -2   3    8.80    0.56
  -1  -2  -3   10.28    0.69
   1  -2   3    9.68    0.67
  -1  -2  -3   10.93    0.50
  -1  -2  -3   11.46    0.56
  -1   2  -3    9.08    0.31
   1   2   3    9.72    0.67
   1   2   3   10.06    0.56
   1   2   3   10.87    0.37
  -1   2  -3    9.49    0.53
  -1   2  -3    8.87    0.68
  -1   2  -3    8.83    0.36
   1   2   3   10.50    0.63
   1   2   3   10.64    0.38
  -1   2  -3    8.96    0.66
   1   2   3   11.10    0.67
   1   2   3   10.61    0.49
  -2  -2  -3    5.70    0.39
  -2  -2  -3    5.75    0.61
   2  -2   3    6.18    0.66
  -2  -2  -3    5.46    0.62
  -2  -2  -3    4.92    0.36
   2  -2   3    6.58    0.48
  -2  -2  -3    5.89    0.47
  -2  -2  -3    6.03    0.43
   2  -2   3    6.66    0.48
  -2   2  -3    6.51    0.71
   2   2   3    5.46    0.37
   2   2   3    5.71    0.51
  -2   2  -3    6.42    0.48
  -2   2  -3    6.85    0.42
   2   2   3    5.42    0.40
   2   2   3    5.23    0.42
  -2   2  -3    6.68    0.33
  -2   2  -3    6.95    0.30
   2   2   3    7.01    0.68
   2   2   3    6.32    0.65
  -2   2  -3    6.43    0.66
   3  -2   3  163.12    3.99
  -3  -2  -3  158.78    3.88
  -3  -2  -3  167.06    3.98
  -3  -2  -3  166.76    4.01
   3  -2   3  166.67    4.24
   3  -2   3  164.29    4.18
   3  -2   3  172.91    4.00
  -3  -2  -3  164.23    4.02
  -3  -2  -3  161.18    4.14
   3   2   3  162.62    4.02
  -3   2  -3  166.33    3.97
  -3   2  -3  160.62    4.14
  -3   2  -3  162.38    3.89
   3   2   3  165.97    4.04
  -3   2  -3  166.27    3.99
   3   2   3  161.26    3.99
   3   2   3  159.56    4.16
  -3   2  -3  163.21    3.91
  -3   2  -3  171.43    4.20
  -4  -2  -3    1.43    0.21
   4  -2   3    1.26    0.30
   4  -2   3    1.15    0.28
  -4  -2  -3    1.80    0.22
   4  -2   3    1.08    0.49
   4  -2   3    0.56    0.54
  -4  -2  -3    1.83    0.25
  -4   2  -3    1.54    0.42
   4   2   3    1.59    0.53
   4   2   3    1.92    0.36
  -4   2  -3    0.90    0.24
   4   2   3    1.50    0.37
   4   2   3    1.01    0.38
  -4   2  -3    1.27    0.28
  -4   2  -3    1.71    0.78
  -5  -2  -3   39.52    0.97
  -5  -2  -3   38.65    1.44
   5  -2   3   37.84    1.15
  -5  -2  -3   39.36    1.42
  -5  -2  -3   40.47    0.98
  -5  -2  -3   39.77    1.10
   5  -2   3   34.72    1.57
   5  -2   3   37.09    1.16
   5   2   3   38.85    1.56
   5   2   3   39.69    1.38
  -5   2  -3   39.77    1.13
  -5   2  -3   37.09    1.14
  -5   2  -3   37.30    1.20
  -5   2  -3   38.43    1.51
   5   2   3   40.60    1.43
   5   2   3   39.55    1.55
  -6  -2  -3   20.52    1.18
   6  -2   3   20.82    0.79
   6  -2   3   20.16    1.25
   6  -2   3   18.41    1.45
  -6  -2  -3   21.16    0.53
   6  -2   3   20.32    0.81
  -6  -2  -3   20.15    0.68
  -6  -2  -3   20.37    0.68
  -6  -2  -3   19.49    1.07
  -6   2  -3   19.91    0.76
   6   2   3   19.18    1.11
   6   2   3   20.63    1.38
  -6   2  -3   20.02    0.70
   6   2   3   19.91    1.18
   6   2   3   21.50    1.29
  -6   2  -3   20.20    1.25
  -6   2  -3   19.39    0.96
  -7  -2  -3   25.36    1.33
  -7  -2  -3   24.58    1.33
   7  -2   3   25.44    1.71
  -7  -2  -3   24.84    0.71
   7  -2   3   26.42    0.95
  -7  -2  -3   23.35    0.78
   7  -2   3   25.21    1.52
   7   2   3   24.10    1.45
  -7   2  -3   26.10    1.20
   7   2   3   23.34    1.51
   7   2   3   24.09    1.58
  -7   2  -3   26.78    0.79
  -7   2  -3   26.19    1.48
   8  -2   3   13.22    1.71
   8  -2   3   12.97    1.52
  -8  -2  -3   12.69    1.15
   8  -2   3   11.28    0.69
  -8  -2  -3   12.41    1.26
   8   2   3   13.30    1.45
  -8   2  -3   13.17    1.50
  -8   2  -3   15.03    1.32
   8   2   3   11.62    1.65
  -9  -2  -3   22.60    1.58
   9  -2   3   26.94    2.29
  -9  -2  -3   23.43    1.61
   9  -2   3   24.49    2.10
   9   2   3   22.64    2.09
   9   2   3   26.20    1.86
  -9   2  -3   24.15    1.65
  -9   2  -3   25.55    1.56
 -10  -2  -3   34.47    1.93
  10  -2   3   32.72    2.56
  10  -2   3   33.09    2.23
 -10  -2  -3   33.59    1.86
 -10   2  -3   34.47    2.00
  10   2   3   35.50    2.34
 -10   2  -3   35.06    2.05
  10   2   3   34.44    2.60
  11  -2   3    7.70    1.67
 -11  -2  -3    9.76    1.43
  11  -2   3    5.01    1.47
 -11   2  -3    9.38    1.42
  11   2   3    8.07    1.58
  11   2   3    7.81    1.67
 -12  -2  -3    9.37    1.58
  12  -2   3    4.29    1.52
  12  -2   3    6.14    1.89
  12   2   3    8.48    2.03
  12   2   3    4.81    1.57
 -12   2  -3    9.39    1.64
 -12  -3   3    4.19    1.42
 -12  -3   3    6.91    2.05
  12  -3  -3    3.16    1.51
  12  -3  -3    5.97    1.89
 -12   3   3    5.29    1.81
 -12   3   3    7.85    1.45
  12   3  -3    2.40    2.06
  12   3  -3    3.78    1.64
 -12   3   3    6.36    1.61
  11  -3  -3    4.99    1.36
  11  -3  -3    8.54    1.47
 -11  -3   3    5.89    1.84
 -11  -3   3    7.98    1.37
  11  -3  -3    6.04    1.55
  11   3  -3    5.16    1.46
 -11   3   3    5.98    1.39
 -11   3   3    6.04    1.27
  11   3  -3    5.21    1.79
  10  -3  -3    6.33    1.18
  10  -3  -3    4.10    1.13
 -10  -3   3    7.82    1.63
  10  -3  -3    7.37    1.35
 -10  -3   3    6.45    1.11
 -10   3   3    4.62    1.00
 -10   3   3    9.02    1.53
  10   3  -3    3.77    1.37
 -10   3   3    6.45    1.24
  10   3  -3    6.38    1.26
  -9  -3   3   14.19    1.42
   9  -3  -3   10.63    1.48
  -9  -3   3   11.66    1.58
   9  -3  -3   12.24    1.44
   9  -3  -3   13.53    1.61
   9   3  -3    8.89    1.30
   9   3  -3   12.43    1.74
  -9   3   3   11.10    1.36
  -9   3   3   12.44    1.58
  -9   3   3   11.83    1.45
  -8  -3   3    1.76    0.77
  -8  -3   3    2.81    1.11
   8  -3  -3    1.85    0.84
   8  -3  -3    1.68    1.00
   8  -3  -3    1.92    0.86
   8   3  -3    1.18    1.01
  -8   3   3    3.33    0.81
   8   3  -3    1.59    0.31
  -8   3   3    3.23    0.89
   8   3  -3    1.07    0.84
  -8   3   3    2.04    0.81
   7  -3  -3   26.36    1.51
   7  -3  -3   28.62    1.70
  -7  -3   3   26.28    0.82
  -7  -3   3   24.28    1.70
  -7  -3   3   23.78    1.25
   7  -3  -3   27.24    1.50
  -7   3   3   25.58    1.48
   7   3  -3   24.68    1.72
  -7   3   3   25.56    1.30
   7   3  -3   25.77    0.91
   7   3  -3   26.00    1.58
  -7   3   3   27.24    1.61
  -7   3   3   26.41    1.37
  -6  -3   3  119.89    3.26
  -6  -3   3  120.41    3.60
   6  -3  -3  120.24    3.47
   6  -3  -3  119.68    3.36
  -6  -3   3  119.40    2.96
   6  -3  -3  120.38    3.33
  -6   3   3  109.32    3.26
   6   3  -3  112.72    3.37
  -6   3   3  111.56    3.09
  -6   3   3  116.01    3.08
   6   3  -3  119.04    3.32
   6   3  -3  116.42    2.89
  -6   3   3  113.97    3.10
  -5  -3   3  134.90    3.57
  -5  -3   3  140.73    3.42
  -5  -3   3  143.01    3.42
  -5  -3   3  132.67    3.87
   5  -3  -3  141.63    3.72
   5  -3  -3  139.71    3.65
   5  -3  -3  141.88    3.75
   5   3  -3  135.42    3.79
  -5   3   3  135.17    3.54
  -5   3   3  139.15    3.73
  -5   3   3  138.32    3.54
   5   3  -3  132.15    3.65
  -5   3   3  137.69    3.47
   5   3  -3  137.58    3.41
  -4  -3   3    4.16    0.46
  -4  -3   3    4.33    0.46
  -4  -3   3    2.65    0.68
   4  -3  -3    5.10    0.70
   4  -3  -3    5.09    0.66
   4  -3  -3    4.43    0.59
   4   3  -3    3.91    0.49
  -4   3   3    5.22    0.73
  -4   3   3    5.30    0.58
   4   3  -3    2.93    0.51
   4   3  -3    3.92    0.67
  -4   3   3    4.88    0.47
  -4   3   3    5.55    0.56
  -3  -3   3  197.97    4.68
   3  -3  -3  196.28    4.75
  -3  -3   3  182.16    5.09
  -3  -3   3  194.75    4.59
  -3  -3   3  196.19    4.69
  -3  -3   3  192.94    4.66
   3  -3  -3  195.22    4.70
   3  -3  -3  191.73    4.83
  -3   3   3  187.67    4.44
   3   3  -3  186.55    4.57
  -3   3   3  195.46    4.74
  -3   3   3  183.76    4.63
  -3   3   3  185.46    4.60
   3   3  -3  191.09    4.80
   3   3  -3  183.66    4.69
  -2  -3   3  108.86    2.57
  -2  -3   3  112.45    2.75
   2  -3  -3  108.01    2.71
  -2  -3   3  107.40    2.63
  -2  -3   3  103.31    2.88
   2  -3  -3  102.44    2.81
  -2  -3   3  109.30    2.64
  -2   3   3  113.36    2.84
   2   3  -3  107.81    2.96
  -2   3   3  112.50    2.83
   2   3  -3  110.87    2.83
  -2   3   3  112.52    2.63
   2   3  -3  109.54    2.92
  -2   3   3  110.06    2.93
  -1  -3   3   88.61    2.48
  -1  -3   3   89.21    2.21
   1  -3  -3   91.92    2.43
  -1  -3   3   91.18    2.42
   1  -3  -3   93.28    2.27
  -1  -3   3   92.03    2.18
   1  -3  -3   96.19    2.20
  -1  -3   3   91.71    2.16
  -1   3   3   91.09    2.34
  -1   3   3   88.44    2.15
  -1   3   3   93.91    2.44
   1   3  -3   87.51    2.43
   1   3  -3   86.85    2.35
  -1   3   3   90.50    2.32
   0  -3  -3   56.00    1.41
   0  -3  -3   56.85    1.48
   0  -3  -3   54.87    1.67
   0  -3   3   56.70    1.66
   0  -3   3   56.85    1.30
   0  -3  -3   54.13    1.59
   0  -3  -3   55.62    1.40
   0   3   3   53.25    1.58
   0   3   3   56.22    1.70
   0   3   3   56.00    1.58
   0   3  -3   59.45    1.69
   0   3  -3   59.58    1.71
   0   3   3   57.09    1.61
   0   3  -3   57.90    1.63
  -1  -3  -3   35.72    1.29
  -1  -3  -3   36.44    1.12
   1  -3   3   33.51    1.17
  -1  -3  -3   37.08    0.99
  -1  -3  -3   37.30    1.01
   1  -3   3   35.78    1.23
  -1  -3  -3   37.59    1.14
   1   3   3   35.45    1.08
  -1   3  -3   34.94    1.19
   1   3   3   33.43    1.21
   1   3   3   33.50    1.08
   1   3   3   35.95    0.97
  -1   3  -3   34.20    0.86
  -1   3  -3   33.72    1.24
  -1   3  -3   33.28    1.10
   2  -3   3   60.21    1.79
  -2  -3  -3   60.92    1.76
  -2  -3  -3   59.07    1.62
  -2  -3  -3   62.89    1.60
  -2  -3  -3   62.50    1.60
  -2  -3  -3   59.10    1.98
   2  -3   3   58.60    1.72
   2   3   3   61.89    1.83
   2   3   3   60.29    1.58
   2   3   3   59.36    1.58
  -2   3  -3   58.72    1.68
  -2   3  -3   58.70    1.50
  -2   3  -3   59.10    1.48
  -2   3  -3   58.31    1.40
   2   3   3   63.36    1.62
  -2   3  -3   56.23    1.74
  -3  -3  -3   31.20    1.03
   3  -3   3   29.86    1.08
   3  -3   3   31.79    1.35
  -3  -3  -3   31.72    1.02
  -3  -3  -3   31.52    0.95
  -3  -3  -3   30.17    1.21
   3  -3   3   32.64    1.20
  -3   3  -3   30.61    1.03
   3   3   3   28.54    1.20
  -3   3  -3   30.88    0.96
  -3   3  -3   28.85    1.28
   3   3   3   30.76    1.02
   3   3   3   29.50    1.08
  -3   3  -3   30.63    0.83
   3   3   3   29.28    1.00
   4  -3   3   35.52    1.61
   4  -3   3   36.88    1.37
  -4  -3  -3   38.44    1.44
   4  -3   3   37.53    1.23
  -4  -3  -3   36.19    1.05
  -4   3  -3   35.47    1.46
  -4   3  -3   35.76    1.17
   4   3   3   33.37    1.48
   4   3   3   36.39    1.21
   4   3   3   34.09    1.27
  -4   3  -3   35.95    1.04
  -4   3  -3   36.43    1.14
   4   3   3   36.78    1.25
   5  -3   3   28.79    1.49
  -5  -3  -3   29.37    0.87
  -5  -3  -3   28.05    1.20
  -5  -3  -3   27.72    1.32
  -5  -3  -3   28.54    0.85
  -5   3  -3   32.38    1.04
   5   3   3   30.69    1.51
   5   3   3   29.25    1.29
   5   3   3   30.29    1.28
  -5   3  -3   31.87    1.01
  -5   3  -3   29.93    1.42
   5   3   3   30.38    1.33
  -6  -3  -3   31.53    0.91
  -6  -3  -3   31.59    0.89
  -6  -3  -3   30.77    1.44
   6  -3   3   30.46    1.72
   6  -3   3   31.17    1.24
  -6  -3  -3   29.72    1.44
  -6   3  -3   31.74    1.20
  -6   3  -3   32.55    1.05
   6   3   3   31.37    1.99
   6   3   3   33.03    1.49
   6   3   3   31.93    1.41
   6   3   3   31.89    1.53
  -6   3  -3   31.42    1.58
  -7  -3  -3   23.89    1.40
  -7  -3  -3   25.38    0.70
   7  -3   3   24.30    1.66
  -7  -3  -3   23.80    1.30
   7  -3   3   23.76    1.72
   7  -3   3   24.47    1.17
   7   3   3   25.03    1.73
   7   3   3   25.39    1.51
  -7   3  -3   24.76    0.85
  -7   3  -3   24.33    1.55
   7   3   3   23.31    1.58
  -7   3  -3   23.54    1.20
  -8  -3  -3    7.36    1.25
   8  -3   3    5.93    1.18
   8  -3   3    7.70    0.99
  -8  -3  -3    4.48    0.89
   8  -3   3    5.38    0.98
  -8   3  -3    7.90    0.91
   8   3   3    4.97    1.00
   8   3   3    5.65    0.95
  -8   3  -3    5.95    1.01
   9  -3   3   15.90    1.83
  -9  -3  -3   17.43    1.59
   9  -3   3   20.72    2.16
  -9  -3  -3   16.41    1.40
  -9   3  -3   19.11    1.55
   9   3   3   17.81    1.83
   9   3   3   17.52    2.02
  -9   3  -3   20.28    1.71
 -10  -3  -3   10.38    1.38
  10  -3   3    8.58    1.32
 -10  -3  -3    9.29    1.19
  10  -3   3    6.97    1.53
  10   3   3    8.69    1.37
 -10   3  -3    7.77    1.25
 -10   3  -3    8.17    1.36
  10   3   3   10.65    1.57
 -11  -3  -3    6.28    1.43
  11  -3   3    7.22    1.89
  11  -3   3    6.11    1.57
  11   3   3    9.38    1.65
  11   3   3    4.43    1.73
 -11   3  -3    7.93    1.45
 -11   3  -3    5.58    1.36
  12   3   3    2.23    1.89
  12   3   3    4.12    1.59
 -12  -4   3   30.19    2.25
  12  -4  -3   22.61    2.65
  12  -4  -3   22.32    2.91
 -12   4   3   21.51    2.35
  12   4  -3   26.82    3.38
 -12   4   3   24.36    2.12
  12   4  -3   30.81    3.38
 -12   4   3   28.64    2.54
 -11  -4   3    7.92    1.32
 -11  -4   3    9.71    2.00
  11  -4  -3    4.63    1.49
  11  -4  -3    7.05    1.52
  11  -4  -3    8.06    1.75
 -11   4   3    9.45    1.44
  11   4  -3    7.25    1.61
 -11   4   3    9.78    1.85
 -11   4   3    7.34    1.45
  11   4  -3    7.62    1.86
 -10  -4   3    8.59    1.24
  10  -4  -3   10.44    1.58
  10  -4  -3    8.77    1.39
 -10  -4   3   11.67    1.82
  10  -4  -3   11.25    1.39
 -10   4   3   10.34    1.32
  10   4  -3   10.37    1.45
 -10   4   3    9.39    1.23
  10   4  -3   11.07    1.74
 -10   4   3    8.32    1.59
   9  -4  -3    4.78    1.17
  -9  -4   3    4.04    1.40
   9  -4  -3    6.05    1.84
  -9  -4   3    1.90    1.14
   9  -4  -3    1.70    1.03
   9   4  -3    3.15    1.14
   9   4  -3    3.00    1.25
  -9   4   3    3.72    1.86
  -9   4   3    2.87    0.98
  -9   4   3    4.13    1.12
  -9   4   3    4.42    1.05
   8  -4  -3   18.56    1.77
   8  -4  -3   17.83    1.62
   8  -4  -3   18.36    1.61
  -8  -4   3   18.49    1.33
  -8  -4   3   15.21    1.80
  -8   4   3   18.30    1.79
  -8   4   3   17.91    1.39
  -8   4   3   18.22    1.46
   8   4  -3   17.11    1.70
   8   4  -3   18.60    1.76
  -8   4   3   19.48    1.46
  -7  -4   3   21.79    1.33
   7  -4  -3   21.88    1.53
  -7  -4   3   19.15    1.71
   7  -4  -3   21.56    1.52
  -7  -4   3   23.00    0.84
   7  -4  -3   20.03    1.67
  -7   4   3   19.41    1.58
  -7   4   3   23.06    1.37
   7   4  -3   21.98    1.09
  -7   4   3   21.94    1.31
   7   4  -3   20.97    1.61
  -7   4   3   20.79    1.64
   7   4  -3   22.72    1.81
   6  -4  -3   21.25    1.33
   6  -4  -3   20.05    1.44
   6  -4  -3   19.03    1.39
  -6  -4   3   19.80    0.83
  -6  -4   3   19.52    1.59
  -6  -4   3   21.48    1.14
  -6   4   3   21.75    1.44
   6   4  -3   22.36    1.09
  -6   4   3   20.00    0.92
  -6   4   3   21.14    1.23
   6   4  -3   22.19    1.62
  -6   4   3   20.92    1.18
   6   4  -3   22.82    1.46
   5  -4  -3   70.74    2.32
   5  -4  -3   70.84    2.20
   5  -4  -3   68.34    2.27
  -5  -4   3   70.07    2.46
  -5  -4   3   72.61    1.99
  -5  -4   3   69.21    2.10
   5   4  -3   65.87    2.29
   5   4  -3   66.10    2.00
  -5   4   3   68.80    1.82
  -5   4   3   68.86    2.08
  -5   4   3   68.58    1.86
   5   4  -3   68.21    2.40
  -5   4   3   68.05    2.08
  -5   4   3   69.51    2.27
   4  -4  -3  116.08    3.21
   4  -4  -3  114.19    3.12
  -4  -4   3  118.16    2.99
  -4  -4   3  112.60    3.30
   4  -4  -3  109.06    3.16
  -4   4   3  115.69    3.08
  -4   4   3  117.25    2.78
   4   4  -3  117.09    3.37
   4   4  -3  114.36    3.06
  -4   4   3  117.33    3.25
  -4   4   3  118.32    2.79
  -4   4   3  115.19    3.08
   4   4  -3  114.66    3.25
  -3  -4   3  164.64    4.01
  -3  -4   3  166.79    4.34
   3  -4  -3  158.82    4.23
  -3  -4   3  167.14    4.04
   3  -4  -3  165.26    4.14
  -3  -4   3  161.28    3.94
   3   4  -3  157.79    4.26
  -3   4   3  160.97    4.03
  -3   4   3  164.68    4.17
   3   4  -3  159.71    4.04
  -3   4   3  157.98    4.02
   3   4  -3  159.92    4.18
  -2  -4   3   37.02    1.05
  -2  -4   3   37.59    1.37
   2  -4  -3   35.81    1.18
  -2  -4   3   36.43    1.05
  -2  -4   3   37.06    1.00
   2  -4  -3   34.24    1.35
   2   4  -3   36.11    1.40
  -2   4   3   36.10    1.21
   2   4  -3   35.02    1.26
   2   4  -3   36.41    1.49
  -2   4   3   30.75    1.55
  -2   4   3   34.23    1.41
  -1  -4   3   14.70    0.90
  -1  -4   3   14.92    0.83
  -1  -4   3   15.01    0.51
  -1  -4   3   15.22    0.46
   1  -4  -3   16.09    0.68
   1  -4  -3   15.54    0.63
  -1  -4   3   14.90    0.47
   1  -4  -3   14.11    0.89
   1   4  -3   14.09    0.46
  -1   4   3   14.12    0.79
  -1   4   3   13.85    0.89
   1   4  -3   14.73    0.86
  -1   4   3   13.83    0.86
   0  -4  -3   32.64    0.97
   0  -4  -3   31.10    1.31
   0  -4   3   33.16    0.80
   0  -4   3   30.63    1.23
   0  -4  -3   31.61    1.20
   0  -4   3   32.72    0.80
   0  -4  -3   33.36    0.98
   0  -4  -3   32.72    0.95
   0  -4   3   31.75    1.16
   0   4  -3   33.32    0.83
   0   4   3   31.85    1.24
   0   4  -3   32.12    1.17
   0   4   3   32.26    1.14
   0   4  -3   32.32    1.21
  -1  -4  -3   44.47    1.31
   1  -4   3   41.77    1.40
  -1  -4  -3   43.89    1.22
   1  -4   3   42.75    1.46
  -1  -4  -3   42.65    1.37
  -1  -4  -3   43.39    1.23
  -1  -4  -3   42.52    1.53
  -1   4  -3   40.47    1.37
  -1   4  -3   40.89    1.36
  -1   4  -3   41.65    1.03
   1   4   3   39.56    1.51
   1   4   3   40.26    1.31
  -2  -4  -3   53.11    1.46
  -2  -4  -3   49.62    1.57
   2  -4   3   51.71    1.67
  -2  -4  -3   50.18    1.52
  -2  -4  -3   50.81    1.79
   2  -4   3   51.71    1.61
  -2  -4  -3   53.16    1.46
  -2   4  -3   52.62    1.30
   2   4   3   51.21    1.45
   2   4   3   51.30    1.74
  -2   4  -3   51.34    1.29
  -2   4  -3   49.21    1.74
   2   4   3   51.56    1.57
  -2   4  -3   50.47    1.60
  -2   4  -3   51.56    1.32
  -2   4  -3   50.76    1.59
   2   4   3   50.69    1.45
  -3  -4  -3   69.52    2.20
  -3  -4  -3   67.13    1.87
  -3  -4  -3   71.36    1.92
   3  -4   3   69.00    2.00
   3  -4   3   66.95    2.26
   3  -4   3   64.78    2.03
  -3   4  -3   65.38    2.20
  -3   4  -3   66.35    1.97
   3   4   3   67.38    2.15
   3   4   3   69.04    1.88
  -3   4  -3   66.02    1.76
  -3   4  -3   67.80    1.74
  -3   4  -3   68.11    1.77
  -3   4  -3   67.38    1.64
   3   4   3   67.91    1.97
   3   4   3   66.40    1.88
   4  -4   3    6.04    0.86
  -4  -4  -3    5.96    0.79
   4  -4   3    5.71    0.75
   4  -4   3    6.05    0.90
  -4  -4  -3    6.02    0.48
   4   4   3    6.50    0.84
   4   4   3    6.72    0.83
  -4   4  -3    4.55    0.62
   4   4   3    5.80    0.67
  -4   4  -3    6.42    0.42
  -4   4  -3    7.23    0.51
  -4   4  -3    6.35    0.86
   4   4   3    6.17    0.86
  -4   4  -3    5.87    0.75
  -5  -4  -3   10.56    0.89
  -5  -4  -3   10.38    0.55
   5  -4   3   10.41    0.94
   5  -4   3   12.39    1.30
  -5  -4  -3   10.13    1.11
  -5   4  -3    9.54    0.76
   5   4   3   10.30    1.04
  -5   4  -3   10.27    0.56
   5   4   3    9.69    1.00
   5   4   3    9.02    0.95
  -5   4  -3   10.43    0.86
   5   4   3    9.72    1.23
  -5   4  -3    9.95    1.25
   6  -4   3   38.40    2.04
  -6  -4  -3   34.88    1.67
  -6  -4  -3   38.52    1.12
  -6  -4  -3   36.68    1.56
   6  -4   3   37.49    1.52
   6   4   3   36.03    1.66
  -6   4  -3   37.36    1.39
   6   4   3   35.94    1.73
  -6   4  -3   37.83    1.83
  -6   4  -3   38.39    1.35
   6   4   3   37.51    1.87
   6   4   3   37.00    1.59
   7  -4   3    8.05    1.25
  -7  -4  -3   11.00    1.22
   7  -4   3    8.00    1.10
  -7  -4  -3   10.48    0.45
  -7  -4  -3    9.29    1.04
   7  -4   3    7.56    1.05
  -7   4  -3    7.74    0.83
  -7   4  -3    8.39    0.94
   7   4   3    9.74    1.01
  -7   4  -3    7.82    1.07
   7   4   3    7.64    1.07
  -7   4  -3    8.56    1.05
   7   4   3    8.23    0.96
   7   4   3    7.83    1.21
   8  -4   3   21.31    1.45
  -8  -4  -3   21.25    1.60
  -8   4  -3   21.76    1.38
  -8   4  -3   21.84    1.33
   8   4   3   22.30    1.82
   8   4   3   21.93    1.75
   8   4   3   18.34    2.03
  -8   4  -3   22.20    1.39
  -8   4  -3   20.31    1.71
   9  -4   3   17.66    2.26
  -9  -4  -3   18.04    1.69
   9  -4   3   19.05    2.00
  -9  -4  -3   18.22    1.67
  -9   4  -3   21.09    1.55
   9   4   3   18.13    2.40
  -9   4  -3   19.19    1.61
  -9   4  -3   16.87    1.90
 -10  -4  -3   13.96    1.73
  10  -4   3   13.81    1.66
  10  -4   3   13.69    1.82
 -10   4  -3   14.38    1.81
  10   4   3   17.96    2.33
  10   4   3   15.09    1.89
 -11  -4  -3    7.99    1.44
  11  -4   3    2.84    1.52
  11  -4   3    2.85    1.78
  11   4   3    7.55    1.61
  11   4   3    6.40    1.96
 -11   4  -3    7.25    1.43
 -12   4  -3    5.38    1.31
  12   4   3    8.77    1.95
 -12   5   3    2.18    1.31
  11  -5  -3   -1.96    1.49
 -11  -5   3    1.10    1.89
 -11  -5   3    2.21    1.23
  11  -5  -3   -3.02    1.71
  11  -5  -3    0.93    1.31
 -11   5   3    0.42    1.46
  11   5  -3    0.47    1.89
 -11   5   3   -0.73    1.29
 -11   5   3    1.91    1.74
  11   5  -3    1.00    1.57
  10  -5  -3   15.02    2.21
  10  -5  -3   15.97    1.89
 -10  -5   3   18.31    2.26
 -10  -5   3   14.82    1.82
  10  -5  -3   13.30    1.60
 -10   5   3   18.16    2.00
 -10   5   3   16.86    2.10
  10   5  -3   19.10    2.43
 -10   5   3   14.51    1.90
  10   5  -3   15.97    2.06
  -9  -5   3    7.29    1.17
   9  -5  -3    5.05    1.32
  -9  -5   3    3.62    1.51
   9  -5  -3    3.65    1.11
   9  -5  -3    6.65    1.37
  -9   5   3    6.60    1.49
   9   5  -3    5.84    1.35
   9   5  -3    3.10    1.43
  -9   5   3    7.29    1.17
   8  -5  -3   25.21    1.94
   8  -5  -3   23.17    2.02
   8  -5  -3   24.46    1.83
  -8  -5   3   22.13    1.52
  -8   5   3   24.77    1.68
  -8   5   3   24.05    2.05
   8   5  -3   22.11    1.99
  -8   5   3   23.96    1.71
  -7  -5   3    1.97    0.59
  -7  -5   3    2.30    0.75
  -7  -5   3    0.82    1.13
   7  -5  -3    2.32    0.86
   7  -5  -3    1.52    0.96
   7  -5  -3    1.93    0.94
   7   5  -3    0.70    0.70
  -7   5   3    0.57    0.98
  -7   5   3    2.28    0.91
   7   5  -3   -0.06    0.95
   7   5  -3    2.79    1.10
  -7   5   3    2.22    0.84
   6  -5  -3   22.67    1.57
   6  -5  -3   23.08    1.69
  -6  -5   3   25.84    1.78
  -6  -5   3   25.14    1.33
  -6  -5   3   25.25    1.22
   6  -5  -3   25.23    1.46
   6   5  -3   25.93    1.89
  -6   5   3   26.58    1.71
   6   5  -3   28.03    1.73
   6   5  -3   25.97    1.35
  -6   5   3   23.39    1.38
  -6   5   3   25.07    1.38
  -5  -5   3   70.97    2.59
   5  -5  -3   70.43    2.44
  -5  -5   3   71.85    2.17
  -5  -5   3   71.77    2.20
   5  -5  -3   74.10    2.34
   5  -5  -3   69.85    2.44
   5   5  -3   67.30    2.56
   5   5  -3   68.24    2.42
  -5   5   3   72.49    2.17
  -5   5   3   69.01    2.41
  -5   5   3   68.05    2.32
   5   5  -3   67.65    2.16
  -4  -5   3   86.84    2.80
   4  -5  -3   86.86    2.60
   4  -5  -3   86.54    2.69
  -4  -5   3   83.58    2.38
  -4   5   3   86.14    2.43
   4   5  -3   83.45    2.78
  -4   5   3   88.19    2.64
   4   5  -3   84.68    2.48
  -4   5   3   81.07    2.45
   4   5  -3   82.03    2.65
  -3  -5   3   15.74    1.18
  -3  -5   3   13.81    0.66
  -3  -5   3   13.71    0.75
  -3  -5   3   15.27    1.12
   3  -5  -3   13.50    1.14
   3   5  -3   13.42    1.32
   3   5  -3   15.20    1.24
   3   5  -3   12.67    1.02
  -3   5   3   13.64    1.12
  -3   5   3   13.26    0.93
  -3   5   3   14.47    0.96
  -2  -5   3   33.44    1.44
  -2  -5   3   33.60    0.98
  -2  -5   3   34.44    1.46
   2  -5  -3   33.78    1.46
  -2  -5   3   34.21    1.03
  -2  -5   3   34.49    1.04
   2  -5  -3   34.32    1.25
   2   5  -3   32.96    1.37
  -2   5   3   31.96    1.41
  -2   5   3   34.69    1.28
   2   5  -3   32.61    0.97
  -2   5   3   33.03    1.29
  -1  -5   3   22.79    0.70
  -1  -5   3   22.26    1.07
   1  -5  -3   22.59    0.95
   1  -5  -3   24.63    0.96
  -1  -5   3   23.99    0.74
  -1  -5   3   23.51    0.66
   1  -5  -3   23.70    1.22
  -1  -5   3   22.19    1.18
  -1  -5   3   23.39    0.72
   1   5  -3   24.81    1.19
  -1   5   3   24.55    1.08
  -1   5   3   22.44    1.20
   1   5  -3   24.10    0.73
   0  -5   3   17.05    0.53
   0  -5   3   14.36    1.04
   0  -5  -3   16.60    0.79
   0  -5   3   16.42    0.49
   0  -5   3   16.58    0.87
   0  -5  -3   15.55    1.19
   0  -5  -3   17.04    0.57
   0  -5  -3   16.17    0.59
   0  -5   3   15.89    0.48
   0  -5  -3   16.12    0.72
   0  -5  -3   16.42    1.04
   0   5  -3   15.75    1.01
   0   5   3   15.14    1.06
   0   5  -3   15.09    0.53
   0   5   3   15.30    0.89
  -1  -5  -3  162.60    3.95
  -1  -5  -3  160.33    4.13
   1  -5   3  155.95    4.21
   1  -5   3  158.81    4.07
  -1  -5  -3  155.78    4.29
  -1  -5  -3  165.45    3.97
   1   5   3  161.75    4.09
  -1   5  -3  159.65    3.81
  -1   5  -3  153.76    4.15
  -1   5  -3  168.03    4.26
   1   5   3  164.08    4.25
  -2  -5  -3  300.30    7.07
  -2  -5  -3  293.24    7.18
  -2  -5  -3  288.41    7.39
   2  -5   3  299.10    7.16
  -2   5  -3  285.95    7.12
  -2   5  -3  287.69    6.82
  -2   5  -3  278.63    6.75
  -2   5  -3  293.80    6.74
   2   5   3  283.47    7.23
  -2   5  -3  317.44    7.35
   2   5   3  295.13    7.08
   3  -5   3   66.11    1.95
  -3  -5  -3   62.66    2.21
   3  -5   3   67.67    2.47
  -3  -5  -3   63.74    1.96
   3  -5   3   66.26    2.14
  -3   5  -3   67.18    1.73
  -3   5  -3   67.74    1.73
   3   5   3   64.94    1.93
  -3   5  -3   66.54    1.73
   3   5   3   64.10    2.19
   3   5   3   64.60    2.03
   3   5   3   63.28    2.22
  -3   5  -3   68.36    2.10
  -4  -5  -3   -0.47    0.45
  -4  -5  -3   -0.50    0.75
   4  -5   3    0.45    0.44
   4  -5   3    0.62    0.78
   4  -5   3   -0.39    0.62
   4   5   3   -0.06    0.57
  -4   5  -3   -0.22    0.30
   4   5   3   -0.37    0.75
  -4   5  -3    0.03    0.22
  -4   5  -3    0.00    0.35
  -4   5  -3    0.21    0.57
   4   5   3   -0.03    0.57
   4   5   3    0.34    0.50
  -5  -5  -3   13.34    0.86
  -5  -5  -3   14.50    1.39
   5  -5   3   14.87    1.22
  -5  -5  -3   14.11    1.12
   5  -5   3   15.70    1.62
  -5   5  -3   16.63    1.13
   5   5   3   14.23    1.20
   5   5   3   15.39    1.47
  -5   5  -3   15.58    0.92
  -5   5  -3   13.82    0.63
   5   5   3   13.40    1.12
  -5   5  -3   13.96    0.92
   5   5   3   13.46    1.20
  -6  -5  -3   14.24    1.36
  -6  -5  -3   13.49    0.86
   6  -5   3   12.18    1.32
   6  -5   3   12.78    1.75
  -6  -5  -3   11.57    1.25
  -6   5  -3   13.41    1.10
   6   5   3   14.63    1.28
   6   5   3   12.93    1.57
  -6   5  -3   10.67    1.20
   6   5   3   13.39    1.38
  -6   5  -3   12.33    1.05
  -6   5  -3   13.08    0.69
   6   5   3   14.75    1.45
  -7  -5  -3   19.42    1.54
  -7  -5  -3   17.38    1.33
   7  -5   3   17.45    1.48
   7  -5   3   17.88    1.99
   7   5   3   18.59    1.81
   7   5   3   16.37    1.86
   7   5   3   19.60    1.47
  -7   5  -3   19.79    1.19
  -7   5  -3   18.49    1.32
   7   5   3   18.71    1.63
   8  -5   3   19.16    1.96
  -8  -5  -3   20.28    1.64
   8  -5   3   19.66    2.09
   8  -5   3   19.74    1.67
  -8  -5  -3   18.10    1.55
   8   5   3   18.96    2.08
  -8   5  -3   19.86    1.57
   8   5   3   24.05    2.15
   8   5   3   20.25    1.94
   9  -5   3   44.81    2.55
  -9  -5  -3   42.88    2.27
  -9  -5  -3   41.81    2.22
   9  -5   3   46.09    2.90
   9   5   3   48.41    2.70
  10  -5   3   12.02    1.87
 -10  -5  -3   14.05    1.81
  10   5   3   13.22    1.91
 -10   5  -3   10.90    1.45
  10   5   3   11.77    1.65
  11   5   3    2.64    1.66
 -11   5  -3   -0.09    1.73
  11  -6  -3    2.97    1.33
  11  -6  -3    1.52    1.94
  11  -6  -3    0.99    1.72
 -11   6   3    1.44    2.01
 -10  -6   3   10.51    1.41
 -10  -6   3    6.07    1.96
  10  -6  -3    6.35    1.48
  10  -6  -3    8.46    1.86
  10  -6  -3    8.23    1.82
  10   6  -3    9.03    2.06
 -10   6   3    6.29    1.94
 -10   6   3    6.04    1.54
  10   6  -3    9.91    1.88
 -10   6   3    9.52    1.51
   9  -6  -3   21.13    2.21
  -9  -6   3   21.29    1.80
  -9  -6   3   25.35    1.84
   9  -6  -3   22.85    2.51
  -9  -6   3   24.47    2.61
   9  -6  -3   21.16    2.12
   9   6  -3   29.69    2.89
  -9   6   3   21.58    2.72
  -9   6   3   23.08    1.98
   9   6  -3   21.80    2.53
  -9   6   3   21.55    2.10
  -8  -6   3   56.57    2.31
   8  -6  -3   58.02    2.69
  -8  -6   3   57.66    2.30
   8  -6  -3   51.14    3.42
  -8  -6   3   55.72    2.86
  -8   6   3   58.25    2.42
  -8   6   3   57.73    2.46
   8   6  -3   58.59    2.84
   8   6  -3   53.44    3.00
  -7  -6   3    5.81    1.40
   7  -6  -3    5.95    1.30
   7  -6  -3    4.40    1.15
  -7  -6   3    5.15    0.96
  -7  -6   3    6.96    0.90
   7  -6  -3    4.31    0.99
  -7  -6   3    6.00    0.90
  -7   6   3    7.11    1.31
  -7   6   3    3.87    1.06
   7   6  -3    6.33    2.17
   7   6  -3    5.84    0.97
  -7   6   3    5.03    1.02
   7   6  -3    6.20    1.18
   6  -6  -3    3.26    1.00
   6  -6  -3    3.34    0.87
  -6  -6   3    4.56    0.81
  -6  -6   3    5.22    0.95
   6  -6  -3    4.60    1.00
  -6  -6   3    4.93    1.25
  -6  -6   3    5.40    0.87
  -6   6   3    6.07    1.12
   6   6  -3    2.82    1.11
  -6   6   3    4.21    0.94
   6   6  -3    2.52    1.01
  -6   6   3    5.38    0.95
   6   6  -3    3.36    0.87
  -5  -6   3    2.06    0.62
   5  -6  -3    2.82    0.99
  -5  -6   3    2.06    1.00
  -5  -6   3    2.24    0.75
  -5  -6   3    1.79    0.82
   5  -6  -3    0.89    0.74
   5  -6  -3    1.22    0.85
  -5   6   3    3.15    0.96
   5   6  -3    2.00    0.95
   5   6  -3    1.27    0.73
   5   6  -3    2.57    1.29
  -5   6   3    1.51    0.78
  -5   6   3    3.07    0.81
   4  -6  -3    2.63    0.79
  -4  -6   3    1.78    0.91
  -4  -6   3    2.27    0.80
  -4  -6   3    2.88    0.58
   4  -6  -3    3.46    0.92
  -4   6   3    2.61    0.89
   4   6  -3    2.33    0.77
   4   6  -3    2.76    0.98
  -4   6   3    3.28    0.75
   4   6  -3    1.73    0.85
  -4   6   3    2.78    0.73
   3  -6  -3    6.63    0.80
  -3  -6   3    9.05    1.01
   3  -6  -3    6.06    0.86
  -3  -6   3    7.81    0.71
  -3  -6   3    6.81    0.95
  -3   6   3    6.74    0.78
  -3   6   3    6.60    0.80
   3   6  -3    8.51    1.08
  -3   6   3    6.98    0.94
  -2  -6   3   54.16    1.48
   2  -6  -3   55.11    1.92
  -2  -6   3   53.92    2.01
  -2  -6   3   51.46    1.94
   2  -6  -3   51.49    2.00
   2   6  -3   51.38    1.42
  -2   6   3   54.66    1.98
  -2   6   3   52.19    1.81
   2   6  -3   49.34    1.89
   1  -6  -3    6.88    0.93
  -1  -6   3    5.73    0.38
   1  -6  -3    4.08    0.52
  -1  -6   3    6.76    0.86
  -1  -6   3    4.58    0.36
  -1  -6   3    6.59    0.78
  -1  -6   3    4.60    0.39
  -1   6   3    5.09    0.82
   1   6  -3    5.66    0.42
   1   6  -3    4.90    0.72
  -1   6   3    6.27    0.76
   0  -6   3   35.24    0.91
   0  -6  -3   36.40    1.67
   0  -6   3   34.10    0.90
   0  -6   3   32.60    1.60
   0  -6  -3   33.97    1.54
   0  -6   3   33.12    1.30
   0   6  -3   33.24    1.51
   0   6   3   33.86    1.58
   0   6   3   34.05    1.42
   0   6  -3   34.13    0.97
   1  -6   3   20.53    0.98
  -1  -6  -3   17.64    1.04
   1  -6   3   20.11    1.34
  -1  -6  -3   20.41    0.79
  -1  -6  -3   20.20    1.31
  -1  -6  -3   18.95    1.49
  -1   6  -3   20.71    1.28
   1   6   3   19.50    1.31
   1   6   3   19.56    1.14
  -1   6  -3   20.41    0.68
   2  -6   3   25.14    1.06
  -2  -6  -3   23.30    1.64
  -2  -6  -3   24.65    1.34
   2  -6   3   26.36    1.49
  -2  -6  -3   24.94    1.02
  -2   6  -3   25.41    0.81
  -2   6  -3   24.36    1.39
   2   6   3   23.17    1.52
   2   6   3   24.68    1.24
  -3  -6  -3   25.82    1.34
   3  -6   3   26.43    1.52
   3  -6   3   26.58    1.05
   3  -6   3   25.97    1.71
  -3  -6  -3   25.87    1.66
  -3   6  -3   27.48    1.46
   3   6   3   25.70    1.37
  -3   6  -3   27.60    0.90
   3   6   3   28.89    1.65
   4  -6   3   23.98    1.74
  -4  -6  -3   23.42    1.68
   4  -6   3   24.12    1.55
  -4  -6  -3   25.89    1.31
  -4   6  -3   24.25    1.39
  -4   6  -3   24.21    1.16
   4   6   3   23.60    1.39
   4   6   3   26.17    1.71
  -4   6  -3   23.58    1.31
   4   6   3   25.91    1.39
   5  -6   3   16.18    1.89
   5  -6   3   14.21    1.46
  -5  -6  -3   14.44    1.25
  -5  -6  -3   16.15    1.11
  -5  -6  -3   14.96    1.53
   5   6   3   15.06    1.39
  -5   6  -3   15.26    1.27
   5   6   3   17.77    1.65
   5   6   3   15.64    1.29
  -5   6  -3   14.84    1.03
   5   6   3   15.40    1.47
   6  -6   3   13.38    1.59
   6  -6   3   13.04    2.17
  -6  -6  -3   16.49    1.63
  -6  -6  -3   16.24    1.15
  -6  -6  -3   13.65    1.39
  -6   6  -3   14.17    1.19
   6   6   3   13.84    1.55
   6   6   3   15.22    1.78
  -6   6  -3   15.13    1.32
   6   6   3   15.24    1.70
   6   6   3   12.92    1.46
   7  -6   3    5.92    1.39
  -7  -6  -3    9.56    1.28
  -7  -6  -3    5.89    1.05
   7  -6   3    6.20    1.13
   7   6   3    5.54    1.47
  -7   6  -3    7.02    0.95
   7   6   3    6.51    1.18
  -7   6  -3    6.44    0.91
   7   6   3    8.25    1.14
   7   6   3    4.33    1.25
   8  -6   3    8.45    1.69
   8  -6   3    7.71    1.61
  -8  -6  -3    8.43    1.18
  -8  -6  -3    5.75    1.67
   8  -6   3    6.97    1.40
   8   6   3    9.02    1.66
  -8   6  -3    7.43    1.12
   8   6   3    8.79    1.43
   8   6   3    6.78    2.35
   9  -6   3   12.86    1.85
  -9  -6  -3   13.33    1.50
  -9  -6  -3   12.84    1.97
   9  -6   3   11.82    1.68
  -9  -6  -3   12.57    1.51
   9   6   3   11.06    1.64
  10  -6   3    2.14    1.58
 -10  -6  -3    5.14    1.15
 -10  -6  -3    7.30    1.95
  10  -6   3    1.19    1.38
  10   6   3    8.04    1.70
  10  -7  -3    0.33    1.69
  10  -7  -3    0.08    1.62
 -10  -7   3    2.81    1.15
  10  -7  -3    3.09    1.36
  10   7  -3    0.66    2.07
 -10   7   3    4.75    1.45
   9  -7  -3    9.16    1.80
   9  -7  -3    6.46    1.36
  -9  -7   3    8.70    1.25
  -9  -7   3   10.10    2.07
   9  -7  -3    7.44    1.84
  -9  -7   3    6.75    1.29
  -9   7   3    7.00    1.86
  -9   7   3   10.75    1.58
   9   7  -3    8.95    1.76
   9   7  -3   11.66    2.10
   8  -7  -3   35.76    2.66
  -8  -7   3   38.56    2.85
  -8  -7   3   37.67    2.04
   8  -7  -3   39.96    2.76
   8  -7  -3   39.01    2.35
  -8  -7   3   40.77    2.14
   8   7  -3   41.39    3.14
  -8   7   3   35.06    2.79
  -8   7   3   36.85    2.32
   8   7  -3   43.32    2.81
  -7  -7   3    8.82    1.20
  -7  -7   3   14.38    2.12
   7  -7  -3    7.17    1.44
  -7  -7   3    9.09    1.61
   7  -7  -3    8.04    1.99
  -7   7   3   10.39    1.32
   7   7  -3    7.82    1.42
  -7   7   3    8.60    1.22
   7   7  -3    9.78    1.63
   7   7  -3    8.42    1.23
  -7   7   3    7.18    1.52
   6  -7  -3    3.17    1.01
   6  -7  -3    1.59    1.11
  -6  -7   3    4.59    1.56
   6  -7  -3    4.56    1.20
  -6  -7   3    3.88    0.84
  -6  -7   3    6.28    1.35
  -6  -7   3    5.15    1.08
   6   7  -3    2.20    1.43
  -6   7   3    5.88    1.28
   6   7  -3    4.04    1.28
  -6   7   3    2.17    1.06
   6   7  -3    3.90    1.07
  -6   7   3    2.75    1.05
   5  -7  -3    6.34    1.24
  -5  -7   3    4.98    0.79
  -5  -7   3    7.51    1.29
  -5  -7   3    6.82    1.11
   5  -7  -3    3.98    0.95
  -5  -7   3    5.35    1.05
   5  -7  -3    4.50    1.11
  -5   7   3    6.97    1.04
  -5   7   3    5.33    0.99
  -5   7   3    5.14    1.16
   5   7  -3    5.34    1.04
   5   7  -3    5.58    1.38
  -4  -7   3   29.06    1.29
   4  -7  -3   27.14    1.77
   4  -7  -3   29.24    1.89
  -4  -7   3   27.45    1.83
  -4  -7   3   26.29    1.76
   4   7  -3   26.68    1.72
  -4   7   3   27.53    1.82
  -4   7   3   29.10    1.55
  -4   7   3   26.82    1.56
  -3  -7   3   23.31    1.08
  -3  -7   3   22.33    1.63
   3  -7  -3   23.08    1.66
  -3  -7   3   21.60    1.59
   3  -7  -3   20.55    1.57
  -3   7   3   21.12    1.68
   3   7  -3   23.75    1.58
  -3   7   3   21.55    1.36
   2  -7  -3   28.17    1.72
   2  -7  -3   28.61    1.56
  -2  -7   3   28.05    1.57
  -2  -7   3   27.74    1.65
  -2  -7   3   29.85    0.94
  -2   7   3   28.00    1.69
  -2   7   3   25.34    1.45
   2   7  -3   28.37    0.93
   2   7  -3   27.49    1.57
  -1  -7   3   41.94    1.67
   1  -7  -3   42.13    1.94
  -1  -7   3   43.82    1.17
   1  -7  -3   41.68    1.72
  -1  -7   3   40.93    1.93
  -1   7   3   41.46    1.69
  -1   7   3   40.66    1.91
   1   7  -3   39.09    1.16
   1   7  -3   39.36    1.83
   0  -7   3   22.32    1.55
   0  -7  -3   18.33    1.66
   0  -7  -3   21.73    1.46
   0   7   3   20.53    1.59
   0   7  -3   21.53    1.47
   0   7   3   21.48    1.35
  -1  -7  -3   20.40    1.70
  -1  -7  -3   21.22    1.48
   1  -7   3   19.63    1.54
   1  -7   3   15.36    0.89
  -1   7  -3   20.39    1.44
   1   7   3   17.54    1.26
   1   7   3   22.01    1.62
  -2  -7  -3   21.40    1.79
  -2  -7  -3   19.93    1.45
   2  -7   3   18.88    1.62
  -2  -7  -3   20.74    0.86
   2  -7   3   19.72    0.93
  -2   7  -3   20.03    1.43
   2   7   3   18.42    1.35
   2   7   3   20.14    1.55
   3  -7   3   31.19    2.12
  -3  -7  -3   28.45    1.49
  -3  -7  -3   31.22    1.92
   3  -7   3   30.69    1.91
  -3  -7  -3   30.63    1.60
   3   7   3   27.84    1.55
   3   7   3   29.75    1.92
  -3   7  -3   28.04    1.67
   4  -7   3   32.65    1.94
   4  -7   3   30.93    2.20
  -4  -7  -3   30.39    1.98
  -4  -7  -3   29.71    1.58
  -4  -7  -3   29.96    1.73
  -4   7  -3   31.46    1.73
   4   7   3   29.95    1.64
   4   7   3   31.52    1.96
  -5  -7  -3   49.05    2.26
  -5  -7  -3   44.19    2.55
  -5  -7  -3   47.87    1.92
  -5  -7  -3   50.76    2.99
   5  -7   3   45.48    2.63
  -5   7  -3   48.23    2.07
   5   7   3   47.75    2.42
   5   7   3   44.48    2.20
   5   7   3   46.75    2.06
  -6  -7  -3   18.91    1.93
  -6  -7  -3   17.79    1.35
   6  -7   3   16.00    1.95
  -6  -7  -3   19.30    1.99
   6  -7   3   18.29    2.29
  -6  -7  -3   16.71    1.53
   6   7   3   19.49    1.66
   6   7   3   16.81    2.18
  -6   7  -3   15.85    1.69
   6   7   3   16.48    1.90
  -7  -7  -3    6.95    1.20
   7  -7   3    5.41    1.35
   7  -7   3    2.34    1.45
  -7  -7  -3    6.01    1.32
  -7  -7  -3    6.71    1.43
   7   7   3    3.79    1.15
   7   7   3    5.51    1.51
  -7   7  -3    3.77    1.35
   7   7   3    3.93    1.48
   8  -7   3    9.81    1.56
   8  -7   3    6.16    1.64
  -8  -7  -3    7.80    1.28
   8  -7   3    6.84    1.81
  -8  -7  -3    9.88    1.46
  -8  -7  -3   12.16    1.81
   8   7   3    8.61    2.09
   9  -7   3    0.95    1.66
  -9  -7  -3    5.38    1.71
  -9  -7  -3    4.75    1.61
   9  -7   3   -0.79    1.29
  -9  -8   3   27.66    3.72
  -9   8   3   21.99    2.21
  -8  -8   3   10.31    1.97
  -8  -8   3   11.57    1.47
   8  -8  -3    8.11    1.71
   8  -8  -3    5.72    1.66
  -8   8   3   12.48    1.66
   8   8  -3    6.74    1.85
  -7  -8   3    2.92    1.26
  -7  -8   3    1.37    1.57
   7  -8  -3    1.55    1.50
   7  -8  -3    2.83    1.32
   7  -8  -3    1.04    1.13
   7   8  -3   -0.52    1.63
   7   8  -3   -0.20    1.36
  -7   8   3    1.70    1.36
   6  -8  -3    2.19    1.44
  -6  -8   3   -0.02    1.35
  -6  -8   3    0.34    1.79
   6  -8  -3   -1.22    1.13
  -6  -8   3    0.76    1.11
   6   8  -3    0.55    1.24
  -6   8   3   -0.04    1.15
   5  -8  -3   12.56    1.43
   5  -8  -3   16.02    1.99
  -5  -8   3   16.07    1.81
   5  -8  -3    9.43    1.25
  -5  -8   3   15.11    1.96
  -5  -8   3   15.40    2.02
  -5   8   3   10.45    1.52
   5   8  -3   13.36    1.40
  -5   8   3   13.60    1.38
  -4  -8   3   13.54    1.74
   4  -8  -3    9.20    1.33
   4  -8  -3   13.38    1.78
  -4  -8   3   11.67    1.43
  -4  -8   3   12.86    1.83
  -4   8   3   11.37    1.44
  -4   8   3    9.48    1.17
   4   8  -3    7.68    1.20
   3  -8  -3   11.68    1.27
  -3  -8   3   13.25    1.67
  -3  -8   3   12.81    1.69
   3  -8  -3   14.73    1.74
   3   8  -3   15.49    1.75
  -3   8   3   13.26    1.48
  -3   8   3   12.50    1.43
  -2  -8   3    5.74    1.15
   2  -8  -3    3.71    0.97
   2  -8  -3    5.77    1.26
  -2  -8   3    4.21    1.07
  -2   8   3    5.96    0.97
   2   8  -3    5.25    1.04
  -2   8   3    4.55    1.21
   1  -8  -3   -1.97    0.81
  -1  -8   3   -0.86    0.96
   1  -8  -3    0.69    1.00
   1  -8  -3    1.99    1.24
  -1   8   3    0.14    0.87
  -1   8   3    1.12    1.08
   1   8  -3   -1.65    0.96
   0  -8   3    3.45    1.07
   0  -8  -3    3.43    1.25
   0  -8  -3    1.99    1.15
   0   8  -3    3.52    1.03
   0   8   3    2.60    1.19
   0   8   3    5.39    0.94
  -1  -8  -3   23.97    1.83
   1  -8   3   25.91    1.90
  -1  -8  -3   27.88    2.13
   1   8   3   29.16    2.00
   1   8   3   23.66    1.59
  -1   8  -3   26.41    1.80
  -2  -8  -3    2.52    1.36
   2  -8   3    5.00    1.27
  -2  -8  -3    2.78    0.99
   2   8   3    2.83    1.26
  -2   8  -3    2.97    0.99
   2   8   3    1.83    0.93
  -3  -8  -3    5.51    1.03
  -3  -8  -3    5.08    1.30
   3  -8   3    5.17    1.28
   3  -8   3    4.60    1.38
   3   8   3    4.22    1.03
  -3   8  -3    4.87    1.06
   3   8   3    4.63    1.33
  -4  -8  -3   -0.23    0.84
   4  -8   3    2.04    1.31
  -4  -8  -3    1.93    1.26
  -4  -8  -3    0.30    0.90
   4  -8   3   -0.53    1.33
   4   8   3    2.21    1.31
  -4   8  -3    0.45    0.93
   4   8   3   -0.04    0.98
  -5  -8  -3    4.93    1.07
  -5  -8  -3    7.04    1.12
   5  -8   3    8.19    1.55
  -5  -8  -3    7.48    1.48
   5  -8   3    3.93    1.49
   5   8   3    6.53    1.24
  -5   8  -3    6.89    1.11
   5   8   3    5.93    1.54
   6  -8   3    1.14    1.68
   6  -8   3    2.21    1.47
  -6  -8  -3    1.79    1.40
  -6  -8  -3    3.48    1.15
  -6   8  -3    2.56    1.10
   6   8   3    1.54    1.25
   6   8   3    2.88    1.60
   7  -8   3   25.89    2.51
  -7  -8  -3   29.27    2.48
  -7  -8  -3   17.41    1.87
   7  -8   3   22.84    2.95
   7   8   3   19.66    2.24
   7   8   3   21.74    2.90
  -7   8  -3   20.49    2.09
  -8  -8  -3   -0.44    1.73
  -8  -8  -3   -0.16    1.08
   8  -8   3    2.49    1.59
   6  -9  -3    2.67    1.50
  -6  -9   3    1.92    1.25
   6   9  -3   -2.07    1.61
  -5  -9   3    3.06    1.32
  -5  -9   3    0.12    1.40
   5  -9  -3    3.18    1.66
  -5   9   3    3.57    1.24
   5   9  -3    0.40    1.44
  -4  -9   3   11.78    1.70
  -4  -9   3   11.01    1.57
   4  -9  -3   11.17    1.69
  -4   9   3    8.43    1.40
   4   9  -3    9.49    1.55
  -3  -9   3    7.93    1.46
   3  -9  -3    5.36    1.40
   3   9  -3    5.45    1.32
  -3   9   3    8.73    1.30
   2  -9  -3    4.70    1.78
   2  -9  -3    3.65    1.33
  -2  -9   3    6.05    1.39
   2   9  -3    1.94    1.23
  -2   9   3    4.04    1.21
   1  -9  -3   18.04    1.99
  -1  -9   3   21.43    2.07
   1  -9  -3   12.94    1.81
  -1   9   3   14.35    1.77
   1   9  -3   19.67    2.02
   0  -9   3    0.39    1.26
   0  -9  -3    1.78    1.47
   0  -9  -3    3.42    1.27
   0   9  -3    2.73    1.09
   0   9   3    2.70    1.47
  -1  -9  -3   14.12    1.92
   1  -9   3   18.43    1.90
  -1  -9  -3   12.90    1.81
   1   9   3   14.47    1.83
  -1   9  -3   14.11    1.89
  -2  -9  -3   11.53    1.77
   2  -9   3   12.95    1.61
  -2  -9  -3   14.42    1.82
   2  -9   3   13.60    1.79
  -2   9  -3   16.52    1.94
   2   9   3   10.88    1.32
  -3  -9  -3    8.46    1.25
   3  -9   3    7.78    1.56
  -3  -9  -3    9.02    1.77
   3  -9   3    6.59    1.63
  -3   9  -3   10.25    1.51
   3   9   3    8.18    1.32
  -4  -9  -3    4.78    1.12
  -4  -9  -3    6.25    1.16
  -4  -9  -3    4.22    1.69
   4  -9   3    3.65    1.43
   4  -9   3    2.34    1.73
  -4   9  -3    5.00    1.33
   4   9   3    3.71    1.25
   5  -9   3   -0.17    1.66
  -5  -9  -3    1.74    1.10
   5  -9   3    5.64    1.65
  -5  -9  -3    2.67    1.65
   5   9   3    3.06    1.37
  -5   9  -3    2.19    1.28
  -6  -9  -3    9.14    1.34
  -6  -9  -3   10.76    1.75
   6  -9   3   10.47    1.84
   6  -9   3    8.88    1.91
   6   9   3    9.27    1.59
  -6   9  -3    6.97    1.45
   7   9   3    6.22    1.85
  -4 -10   3    0.04    1.59
   4  10  -3    0.96    1.68
   3 -10  -3    8.11    2.33
  -3 -10   3   13.94    1.89
  -3 -10   3    9.26    1.92
   3  10  -3    9.69    1.68
   2 -10  -3    0.37    1.81
  -2 -10   3   -0.04    1.31
   2 -10  -3    1.91    1.48
   2  10  -3    0.50    1.49
   1 -10  -3    5.26    1.46
  -1 -10   3    7.12    1.60
   1 -10  -3    4.05    1.83
   1  10  -3    5.26    1.51
   0 -10   3    1.40    1.50
   0 -10  -3    2.32    1.33
   0 -10  -3    5.01    1.94
   0  10  -3    0.14    1.34
   1 -10   3   -0.10    1.46
  -1 -10  -3    4.22    1.41
  -1 -10  -3   -0.91    1.85
  -1  10  -3   -1.14    1.20
  -2 -10  -3    2.80    1.67
   2 -10   3    5.06    1.56
   2 -10   3    0.46    1.63
  -2 -10  -3    3.04    1.35
  -2  10  -3    1.09    1.25
  -3 -10  -3    8.71    2.34
   3 -10   3    5.48    1.90
  -4 -10  -3   22.66    1.98
   4 -10   3   15.54    2.14
 -13   0   4    1.00    1.97
  12   0  -4    1.50    1.72
  12   0  -4    0.39    1.39
 -12   0   4    2.74    1.38
 -12   0   4    0.00    1.76
 -11   0   4    2.14    1.59
  11   0  -4    0.51    1.40
  11   0  -4    1.04    1.18
 -11   0   4    2.01    1.17
 -10   0   4    2.65    1.38
  10   0  -4    2.69    1.28
 -10   0   4    2.09    0.93
  10   0  -4    0.61    0.89
  10   0  -4    1.17    1.29
  -9   0   4    0.08    0.73
   9   0  -4   -0.99    0.75
  -9   0   4    0.12    1.08
   9   0  -4    0.90    0.89
   9   0  -4   -0.66    0.92
  -8   0   4  209.20    5.45
  -8   0   4  210.93    5.75
   8   0  -4  215.55    5.73
   8   0  -4  206.08    5.39
   8   0  -4  214.37    5.58
   8   0  -4  207.65    4.91
   7   0  -4   35.17    1.60
   7   0  -4   34.11    0.98
   7   0  -4   33.98    1.44
  -7   0   4   33.66    1.38
   7   0  -4   36.04    1.77
  -7   0   4   32.56    1.68
   6   0  -4    9.84    0.95
   6   0  -4    8.98    0.98
  -6   0   4    9.65    0.85
   6   0  -4    9.60    0.50
  -6   0   4    8.09    1.05
   6   0  -4    8.84    0.85
   5   0  -4   52.42    1.40
   5   0  -4   51.41    1.76
  -5   0   4   52.18    1.81
  -5   0   4   51.00    1.60
   5   0  -4   50.47    1.63
   5   0  -4   50.85    1.65
   4   0  -4  180.01    4.51
   4   0  -4  179.22    4.42
   4   0  -4  180.65    4.46
  -4   0   4  180.99    4.56
  -4   0   4  177.23    4.36
   4   0  -4  180.37    4.31
  -4   0   4  179.07    4.42
   3   0  -4  169.93    4.27
   3   0  -4  169.67    3.98
  -3   0   4  168.35    4.10
   3   0  -4  169.40    4.15
   3   0  -4  168.59    4.10
  -3   0   4  169.54    4.23
  -3   0   4  168.24    4.28
  -3   0   4  172.81    4.15
   3   0  -4  173.19    4.22
  -3   0   4  174.73    4.22
   3   0  -4  172.45    4.16
  -3   0   4  166.78    4.15
   3   0  -4  173.68    4.23
  -2   0   4    9.87    0.62
  -2   0   4    8.85    0.47
   2   0  -4    8.46    0.60
   2   0  -4    8.54    0.59
   2   0  -4    8.90    0.54
   2   0  -4    9.08    0.52
   2   0  -4    8.87    0.53
   2   0  -4    9.29    0.44
  -2   0   4    9.65    0.60
  -2   0   4    9.05    0.49
  -2   0   4    8.12    0.53
  -2   0   4    8.67    0.56
  -2   0   4    9.28    0.41
  -2   0   4    8.43    0.67
   2   0  -4    8.49    0.66
   1   0  -4   50.38    1.29
  -1   0   4   48.95    1.39
  -1   0   4   50.48    1.37
   1   0  -4   47.94    1.28
   1   0  -4   48.96    1.37
  -1   0   4   48.35    1.32
  -1   0   4   50.21    1.34
  -1   0   4   47.62    1.33
   1   0  -4   50.57    1.40
   1   0  -4   49.62    1.32
   1   0  -4   47.42    1.44
   1   0  -4   47.95    1.34
  -1   0   4   48.86    1.33
  -1   0   4   48.66    1.28
  -1   0   4   48.24    1.27
   1   0  -4   47.49    1.35
   1   0  -4   47.26    1.36
   0   0   4   38.04    1.08
   0   0   4   37.85    1.04
   0   0   4   39.01    1.14
   0   0  -4   37.33    1.17
   0   0  -4   39.66    1.08
   0   0  -4   37.19    1.11
   0   0  -4   38.09    1.09
   0   0   4   40.02    1.10
   0   0  -4   39.01    1.05
   0   0   4   39.02    1.09
   0   0   4   38.47    1.15
   0   0   4   39.87    1.12
   0   0   4   40.13    1.29
   0   0  -4   39.21    1.16
   0   0   4   37.97    1.03
   0   0  -4   38.12    1.22
  -1   0  -4    6.15    0.49
  -1   0  -4    6.97    0.41
   1   0   4    6.35    0.41
   1   0   4    6.74    0.38
   1   0   4    7.13    0.49
   1   0   4    5.98    0.52
   1   0   4    6.23    0.69
  -1   0  -4    5.99    0.60
   1   0   4    6.43    0.58
  -1   0  -4    6.15    0.44
  -1   0  -4    6.89    0.55
  -1   0  -4    5.32    0.54
   2   0   4    2.51    0.53
  -2   0  -4    2.19    0.28
  -2   0  -4    2.30    0.44
   2   0   4    2.62    0.37
  -2   0  -4    3.36    0.45
  -2   0  -4    3.42    0.58
  -2   0  -4    1.87    0.28
   2   0   4    2.32    0.40
   2   0   4    1.97    0.28
   2   0   4    2.54    0.45
   2   0   4    2.44    0.25
   3   0   4   16.70    0.44
   3   0   4   15.80    0.95
   3   0   4   17.76    0.84
   3   0   4   17.46    0.79
   3   0   4   17.78    0.71
  -3   0  -4   16.91    0.64
  -3   0  -4   17.43    0.70
  -3   0  -4   16.71    0.83
   3   0   4   17.24    0.85
   4   0   4   58.68    1.78
   4   0   4   58.65    1.72
  -4   0  -4   57.11    1.83
  -4   0  -4   58.94    1.65
   4   0   4   53.43    1.69
   4   0   4   57.52    1.95
  -4   0  -4   58.99    1.52
  -5   0  -4  148.44    3.58
  -5   0  -4  153.04    3.80
   5   0   4  148.62    3.97
   5   0   4  149.38    3.88
  -5   0  -4  145.58    3.93
   5   0   4  150.03    3.96
   6   0   4  679.90   15.89
  -6   0  -4  654.05   15.38
  -6   0  -4  667.72   15.81
   6   0   4  678.36   15.88
  -6   0  -4  666.08   15.68
   6   0   4  655.85   15.76
  -7   0  -4   30.32    1.51
  -7   0  -4   30.23    1.39
   7   0   4   30.59    1.75
  -7   0  -4   30.06    0.80
   7   0   4   32.23    1.56
   8   0   4    0.54    0.78
   8   0   4   -0.70    0.83
  -8   0  -4   -0.15    0.68
  -8   0  -4    1.35    0.76
   9   0   4    1.57    1.05
  -9   0  -4   -0.87    0.84
  -9   0  -4   -0.89    0.83
   9   0   4   -0.18    0.78
 -10   0  -4    5.52    1.13
 -10   0  -4    3.67    1.05
  10   0   4    3.26    1.16
  10   0   4    4.78    1.41
 -11   0  -4    6.91    1.25
  11   0   4    6.48    1.70
  11   0   4    5.02    1.31
  12   0   4    3.95    1.61
 -12   0  -4    3.96    1.41
  12   0   4    3.27    1.81
 -13   1   4    9.63    2.40
  12  -1  -4    1.29    1.84
  12  -1  -4    0.69    1.47
 -12  -1   4    1.69    1.34
 -12  -1   4    1.22    1.88
  12   1  -4   -0.02    1.86
 -12   1   4    1.01    1.84
 -12   1   4    3.27    1.37
  12   1  -4    0.27    1.32
  11  -1  -4   -1.06    1.25
 -11  -1   4    0.21    1.12
  11  -1  -4    0.82    1.19
  11  -1  -4    1.57    1.55
 -11  -1   4   -0.31    1.47
 -11   1   4    0.60    1.01
 -11   1   4    0.86    1.44
  11   1  -4   -0.06    1.24
  11   1  -4    0.04    1.41
 -11   1   4    0.16    0.97
  10  -1  -4   38.75    2.54
 -10  -1   4   39.11    1.87
  10  -1  -4   39.52    1.97
 -10  -1   4   36.44    3.05
  10  -1  -4   39.05    3.12
 -10   1   4   41.19    2.01
  10   1  -4   37.72    2.54
 -10   1   4   39.28    1.88
  10   1  -4   37.79    2.25
 -10   1   4   42.94    2.50
  -9  -1   4    4.40    1.17
  -9  -1   4    6.25    0.99
   9  -1  -4    6.42    1.02
   9  -1  -4    4.65    1.21
   9  -1  -4    5.47    0.91
  -9   1   4    4.54    1.16
   9   1  -4    4.27    1.02
  -9   1   4    4.61    0.85
   9   1  -4    4.24    1.09
  -9   1   4    4.68    0.94
  -8  -1   4   20.17    1.64
   8  -1  -4   21.10    0.70
  -8  -1   4   20.62    1.31
   8  -1  -4   23.38    1.51
   8  -1  -4   21.06    1.37
   8  -1  -4   21.13    1.58
   8   1  -4   20.70    1.72
   8   1  -4   24.15    1.46
   8   1  -4   22.07    1.35
  -8   1   4   21.46    1.27
  -8   1   4   23.84    1.67
  -8   1   4   22.22    1.30
   8   1  -4   21.58    0.67
   7  -1  -4    1.07    0.35
   7  -1  -4    1.25    0.66
   7  -1  -4    1.76    0.66
   7  -1  -4    1.26    0.27
   7  -1  -4    1.78    0.29
  -7  -1   4    2.14    0.66
   7  -1  -4    1.00    0.76
  -7  -1   4    1.35    0.88
   7   1  -4    1.55    0.60
   7   1  -4    1.70    0.70
  -7   1   4    1.80    0.68
   7   1  -4    1.36    0.26
  -7   1   4    1.07    0.53
   7   1  -4    1.23    0.75
  -7   1   4    0.66    0.78
   6  -1  -4   32.68    1.50
   6  -1  -4   32.17    1.38
   6  -1  -4   32.33    0.92
   6  -1  -4   32.12    1.37
  -6  -1   4   31.01    1.54
   6  -1  -4   31.94    0.99
  -6  -1   4   30.54    1.29
   6   1  -4   30.82    0.94
  -6   1   4   29.29    1.39
  -6   1   4   30.52    1.20
   6   1  -4   29.36    1.24
  -6   1   4   29.50    1.24
   6   1  -4   28.71    1.37
   5  -1  -4   81.13    2.31
  -5  -1   4   83.76    2.06
   5  -1  -4   79.96    2.08
   5  -1  -4   79.82    2.38
   5  -1  -4   83.50    2.01
  -5  -1   4   81.83    2.25
   5  -1  -4   71.39    2.46
   5  -1  -4   81.36    2.00
  -5  -1   4   82.10    2.51
   5   1  -4   79.67    2.30
   5   1  -4   82.49    2.45
   5   1  -4   81.73    2.29
  -5   1   4   78.52    2.21
  -5   1   4   78.96    2.26
   5   1  -4   82.75    2.07
  -5   1   4   81.98    2.36
   4  -1  -4  121.57    2.86
   4  -1  -4  119.74    3.09
   4  -1  -4  124.18    2.87
  -4  -1   4  113.35    3.00
   4  -1  -4  117.45    3.01
   4  -1  -4  119.00    2.93
  -4  -1   4  119.92    2.91
   4  -1  -4  107.96    3.22
   4   1  -4  113.95    2.83
   4   1  -4  105.67    3.17
   4   1  -4  106.94    2.96
  -4   1   4  116.33    3.03
  -4   1   4  129.34    3.07
   4   1  -4  113.28    2.99
  -3  -1   4   72.57    1.82
   3  -1  -4   72.68    1.94
  -3  -1   4   68.73    1.90
  -3  -1   4   66.13    1.83
   3  -1  -4   70.45    1.82
  -3  -1   4   68.92    1.66
   3  -1  -4   68.83    1.77
   3  -1  -4   71.04    1.90
   3  -1  -4   66.45    1.92
  -3  -1   4   65.44    2.00
   3   1  -4   65.04    1.87
   3   1  -4   65.29    1.77
  -3   1   4   66.04    1.79
  -3   1   4   66.91    1.84
   3   1  -4   64.89    1.92
   3   1  -4   67.12    1.87
  -3   1   4   69.51    1.85
  -3   1   4   71.42    1.79
  -3   1   4   67.15    1.96
  -3   1   4   68.53    1.94
   3   1  -4   65.66    1.79
   2  -1  -4  127.38    3.17
  -2  -1   4  133.71    3.29
  -2  -1   4  128.17    3.36
   2  -1  -4  126.28    3.11
   2  -1  -4  131.46    3.18
  -2  -1   4  133.90    3.19
  -2  -1   4  128.74    3.20
   2  -1  -4  133.04    3.26
   2  -1  -4  132.59    3.22
  -2  -1   4  132.07    3.11
   2  -1  -4  131.74    3.30
  -2  -1   4  128.39    3.10
   2  -1  -4  129.56    3.18
  -2  -1   4  127.26    3.16
  -2  -1   4  131.65    3.22
   2  -1  -4  123.16    3.24
   2   1  -4  125.52    3.24
   2   1  -4  132.42    3.11
   2   1  -4  127.53    3.18
  -2   1   4  128.17    3.07
   2   1  -4  127.37    3.14
   2   1  -4  127.96    3.21
  -2   1   4  123.84    3.16
   2   1  -4  126.19    3.06
  -2   1   4  126.10    3.13
  -2   1   4  133.55    3.21
  -2   1   4  127.52    3.12
   2   1  -4  130.58    3.36
  -2   1   4  125.06    3.24
  -2   1   4  126.47    3.21
   1  -1  -4   43.11    1.16
   1  -1  -4   43.66    1.33
   1  -1  -4   42.24    1.28
  -1  -1   4   44.57    1.19
  -1  -1   4   46.91    1.28
  -1  -1   4   45.75    1.13
   1  -1  -4   43.13    1.29
  -1  -1   4   47.35    1.28
  -1  -1   4   45.51    1.29
   1  -1  -4   43.89    1.11
  -1  -1   4   46.14    1.25
   1  -1  -4   46.26    1.35
  -1  -1   4   44.51    1.23
  -1  -1   4   43.06    1.42
  -1  -1   4   45.03    1.33
   1  -1  -4   44.84    1.25
   1   1  -4   44.53    1.35
  -1   1   4   42.13    1.31
  -1   1   4   44.89    1.27
   1   1  -4   45.72    1.42
  -1   1   4   42.54    1.25
  -1   1   4   45.27    1.28
   1   1  -4   43.93    1.27
   1   1  -4   45.14    1.25
   1   1  -4   44.51    1.26
  -1   1   4   42.06    1.22
  -1   1   4   43.96    1.09
   1   1  -4   45.89    1.17
  -1   1   4   43.61    1.15
  -1   1   4   41.36    1.33
   0  -1  -4  180.82    4.35
   0  -1   4  169.36    4.22
   0  -1  -4  185.99    4.36
   0  -1   4  175.21    4.27
   0  -1  -4  180.51    4.35
   0  -1   4  183.73    4.32
   0  -1  -4  187.62    4.29
   0  -1  -4  183.25    4.25
   0  -1  -4  178.94    4.26
   0  -1   4  169.08    4.18
   0  -1   4  167.51    4.14
   0  -1   4  183.51    4.29
   0  -1   4  171.96    4.41
   0  -1   4  177.32    4.27
   0  -1   4  177.31    4.33
   0   1  -4  167.97    4.24
   0   1  -4  170.58    4.10
   0   1   4  179.32    4.30
   0   1  -4  178.89    4.16
   0   1   4  175.34    4.21
   0   1  -4  166.27    4.20
   0   1   4  189.72    4.28
   0   1   4  162.14    4.04
   0   1   4  181.65    4.18
   0   1   4  174.45    4.28
   0   1   4  173.29    4.07
   0   1  -4  179.62    4.35
   0   1   4  174.46    4.18
   0   1  -4  173.68    4.07
   1  -1   4  158.75    4.06
  -1  -1  -4  158.11    3.98
  -1  -1  -4  163.87    3.87
  -1  -1  -4  158.09    3.81
   1  -1   4  166.12    3.89
  -1  -1  -4  158.89    4.01
   1  -1   4  158.63    3.86
   1  -1   4  161.09    3.98
   1  -1   4  158.84    3.78
  -1  -1  -4  167.39    4.00
  -1   1  -4  152.25    3.85
   1   1   4  162.10    3.86
   1   1   4  153.07    3.85
   1   1   4  153.59    3.64
  -1   1  -4  155.99    3.64
   1   1   4  156.36    3.67
  -1   1  -4  148.28    3.75
   1   1   4  155.98    3.68
   1   1   4  152.79    3.89
   1   1   4  153.92    3.74
  -1   1  -4  153.26    3.66
  -1   1  -4  158.92    3.91
  -1   1  -4  158.64    3.73
   2  -1   4  447.79   10.57
   2  -1   4  433.00   10.47
   2  -1   4  434.33   10.72
  -2  -1  -4  501.66   10.82
  -2  -1  -4  445.04   10.68
  -2  -1  -4  442.91   10.71
   2  -1   4  443.05   10.67
  -2  -1  -4  442.69   10.54
  -2  -1  -4  475.47   10.56
   2  -1   4  458.51   10.54
   2   1   4  446.59   10.47
  -2   1  -4  467.34   10.42
  -2   1  -4  433.78   10.61
   2   1   4  443.19   10.65
   2   1   4  441.15   10.49
   2   1   4  447.01   10.44
   2   1   4  452.38   10.62
  -2   1  -4  466.55   10.71
   2   1   4  443.53   10.35
  -2   1  -4  457.89   10.50
  -2   1  -4  445.87   10.48
   3  -1   4   94.53    2.58
  -3  -1  -4   90.57    2.55
   3  -1   4   97.29    2.36
   3  -1   4   88.06    2.59
  -3  -1  -4   92.96    2.35
  -3  -1  -4   95.22    2.44
   3  -1   4   91.63    2.27
   3  -1   4   96.00    2.47
   3   1   4   90.81    2.60
  -3   1  -4   95.46    2.32
  -3   1  -4   91.35    2.31
   3   1   4   90.34    2.41
   3   1   4   94.86    2.39
  -3   1  -4   94.63    2.43
   3   1   4   89.33    2.36
   3   1   4   90.89    2.54
  -3   1  -4   88.88    2.52
  -3   1  -4   93.27    2.32
  -4  -1  -4  131.41    3.20
   4  -1   4  131.89    3.13
   4  -1   4  138.41    3.23
  -4  -1  -4  128.47    3.47
   4  -1   4  127.21    3.56
   4  -1   4  132.33    3.41
   4  -1   4  128.71    3.51
  -4   1  -4  131.79    3.53
   4   1   4  132.35    3.37
  -4   1  -4  132.81    3.25
   4   1   4  136.37    3.56
   4   1   4  131.28    3.38
  -4   1  -4  133.86    3.31
   4   1   4  134.46    3.44
  -5  -1  -4   58.99    1.52
   5  -1   4   56.83    1.45
  -5  -1  -4   57.08    1.76
   5  -1   4   55.50    1.88
   5  -1   4   57.77    1.54
  -5  -1  -4   57.41    1.89
   5  -1   4   58.11    2.01
   5   1   4   56.61    1.97
  -5   1  -4   56.37    1.87
   5   1   4   57.18    1.87
  -5   1  -4   53.59    1.82
   5   1   4   56.36    1.73
  -5   1  -4   56.89    1.50
   5   1   4   55.62    1.77
  -6  -1  -4   32.34    0.91
   6  -1   4   30.80    1.46
  -6  -1  -4   31.22    1.33
   6  -1   4   29.90    0.87
  -6  -1  -4   33.96    0.94
   6  -1   4   30.10    1.61
  -6  -1  -4   31.70    1.46
   6   1   4   34.04    1.46
  -6   1  -4   31.69    1.27
  -6   1  -4   32.97    0.97
   6   1   4   34.87    1.57
  -6   1  -4   32.50    1.51
   6   1   4   31.07    1.52
   7  -1   4   33.88    0.91
   7  -1   4   35.37    1.88
  -7  -1  -4   33.40    1.51
  -7  -1  -4   34.26    0.90
   7  -1   4   31.51    1.70
  -7  -1  -4   34.87    1.63
  -7   1  -4   33.35    1.42
  -7   1  -4   33.91    0.93
   7   1   4   34.99    1.77
   7   1   4   34.20    1.59
   7   1   4   32.93    1.77
  -7   1  -4   33.85    1.63
  -8  -1  -4   12.25    1.33
   8  -1   4   12.89    1.64
  -8  -1  -4   11.30    1.12
   8  -1   4   12.97    1.48
   8   1   4   12.60    1.61
  -8   1  -4   10.63    1.30
  -8   1  -4   12.20    1.20
   8   1   4   11.04    1.35
   9  -1   4   18.38    1.80
  -9  -1  -4   17.99    1.54
   9  -1   4   15.57    2.00
  -9  -1  -4   16.44    1.45
   9   1   4   15.60    1.68
  -9   1  -4   14.38    1.55
  -9   1  -4   15.80    1.44
   9   1   4   16.35    1.97
  10  -1   4    1.97    1.29
 -10  -1  -4    0.79    1.06
  10  -1   4    1.49    1.12
 -10  -1  -4    3.01    1.04
  10   1   4    3.48    1.30
 -10   1  -4    3.55    1.47
  10   1   4    2.79    1.13
 -10   1  -4    4.24    1.08
  11  -1   4   10.69    1.53
 -11  -1  -4   12.98    1.55
  11  -1   4   12.33    1.86
 -11   1  -4   13.14    1.52
 -11   1  -4   10.76    1.44
  11   1   4    8.27    1.47
  11   1   4    9.52    1.82
  12  -1   4    5.17    1.82
 -12  -1  -4    3.92    1.35
  12  -1   4    6.79    1.59
 -12   1  -4    5.20    1.50
  12   1   4    2.99    1.47
  12   1   4    1.73    1.94
  12  -2  -4   16.77    2.22
 -12  -2   4   19.45    2.48
 -12  -2   4   20.78    2.15
  12  -2  -4   23.83    2.65
  12   2  -4   18.68    2.51
 -12   2   4   19.74    2.07
  12   2  -4   23.37    2.57
 -12   2   4   21.28    2.25
 -12   2   4   22.65    3.00
 -11  -2   4   58.59    2.55
  11  -2  -4   57.79    2.82
  11  -2  -4   62.13    3.22
  11  -2  -4   47.66    3.76
 -11  -2   4   55.46    3.16
 -11   2   4   56.39    3.16
  11   2  -4   53.55    2.80
 -11   2   4   56.87    2.44
 -11   2   4   55.62    2.59
  11   2  -4   54.34    3.30
  10  -2  -4    9.70    1.34
 -10  -2   4    7.20    1.17
 -10  -2   4    6.87    1.48
  10  -2  -4    3.50    1.28
  10  -2  -4    7.92    1.21
 -10   2   4   10.70    1.60
  10   2  -4    6.91    1.20
 -10   2   4    9.52    1.16
  10   2  -4    5.54    1.49
 -10   2   4    8.50    1.29
   9  -2  -4   10.11    1.53
   9  -2  -4   10.90    1.43
   9  -2  -4   15.22    1.79
  -9  -2   4   12.81    1.58
  -9  -2   4   10.90    1.31
   9   2  -4   13.11    1.58
  -9   2   4   12.63    1.71
   9   2  -4   11.50    1.43
  -9   2   4   11.28    1.26
  -9   2   4   11.58    1.39
  -8  -2   4   10.67    1.15
  -8  -2   4    9.96    1.33
   8  -2  -4    8.21    0.56
   8  -2  -4   10.26    1.23
   8  -2  -4    8.82    1.33
   8  -2  -4   10.26    1.19
   8   2  -4    8.45    0.52
  -8   2   4    9.45    1.03
  -8   2   4    9.20    1.15
   8   2  -4    9.16    1.24
   8   2  -4    8.50    1.21
  -8   2   4    9.49    0.95
   7  -2  -4   17.40    1.29
  -7  -2   4   15.93    1.38
  -7  -2   4   16.97    1.06
   7  -2  -4   18.35    1.25
   7  -2  -4   16.85    1.43
  -7  -2   4   17.25    0.67
   7  -2  -4   17.56    0.75
   7   2  -4   19.14    1.27
  -7   2   4   16.95    1.31
   7   2  -4   19.69    1.60
  -7   2   4   17.72    1.13
   7   2  -4   18.00    0.72
  -7   2   4   17.69    1.20
  -6  -2   4   72.26    1.90
  -6  -2   4   73.25    2.17
   6  -2  -4   75.32    2.01
   6  -2  -4   71.41    2.35
   6  -2  -4   73.88    2.22
   6  -2  -4   69.54    2.26
  -6  -2   4   70.89    2.50
  -6   2   4   69.79    2.16
   6   2  -4   72.00    2.42
   6   2  -4   72.77    1.89
   6   2  -4   67.47    2.22
  -6   2   4   70.76    2.11
  -6   2   4   70.99    2.24
  -6   2   4   71.95    2.37
   5  -2  -4   31.73    1.34
   5  -2  -4   28.70    1.42
  -5  -2   4   31.77    1.06
   5  -2  -4   29.97    1.30
  -5  -2   4   30.43    1.42
   5  -2  -4   30.93    1.10
  -5  -2   4   30.14    1.15
   5   2  -4   29.76    1.30
  -5   2   4   29.50    1.14
  -5   2   4   28.22    1.12
   5   2  -4   28.07    1.42
  -5   2   4   29.41    1.14
  -5   2   4   27.64    1.33
   5   2  -4   29.22    0.97
   4  -2  -4   46.49    1.52
  -4  -2   4   45.57    1.70
   4  -2  -4   46.77    1.41
   4  -2  -4   45.40    1.48
  -4  -2   4   46.63    1.18
  -4  -2   4   45.71    1.38
  -4  -2   4   48.64    1.43
  -4   2   4   46.17    1.46
  -4   2   4   47.19    1.62
   4   2  -4   48.42    1.58
  -4   2   4   45.24    1.43
   4   2  -4   48.29    1.38
   4   2  -4   48.32    1.70
  -4   2   4   46.78    1.45
   3  -2  -4  228.94    5.48
  -3  -2   4  233.85    5.54
  -3  -2   4  232.97    5.37
  -3  -2   4  222.63    5.69
  -3  -2   4  220.96    5.43
   3  -2  -4  227.11    5.42
   3  -2  -4  229.44    5.48
   3  -2  -4  225.13    5.57
   3   2  -4  231.83    5.54
  -3   2   4  228.60    5.55
   3   2  -4  233.25    5.65
  -3   2   4  226.51    5.69
   3   2  -4  237.00    5.52
  -3   2   4  223.86    5.56
   3   2  -4  227.74    5.72
  -3   2   4  225.62    5.58
  -3   2   4  244.99    5.59
   2  -2  -4  351.21    8.37
   2  -2  -4  359.66    8.29
   2  -2  -4  342.48    8.24
   2  -2  -4  345.20    8.20
  -2  -2   4  343.75    8.48
  -2  -2   4  338.33    8.23
  -2  -2   4  395.99    8.43
   2  -2  -4  346.36    8.38
  -2  -2   4  354.74    8.27
  -2   2   4  336.08    8.02
   2   2  -4  344.74    7.95
   2   2  -4  336.71    8.03
  -2   2   4  321.10    8.00
  -2   2   4  342.73    8.16
   2   2  -4  337.79    8.10
  -2   2   4  338.88    8.06
   2   2  -4  344.82    8.18
  -2   2   4  358.64    7.98
   2   2  -4  344.83    7.99
   1  -2  -4   76.48    1.82
  -1  -2   4   76.42    1.87
  -1  -2   4   76.54    1.99
   1  -2  -4   74.80    2.03
  -1  -2   4   80.90    2.06
   1  -2  -4   76.37    1.79
  -1  -2   4   72.27    2.03
  -1  -2   4   75.67    1.78
   1  -2  -4   76.53    2.07
  -1  -2   4   73.59    2.15
   1  -2  -4   77.35    1.98
  -1  -2   4   73.67    1.85
  -1  -2   4   74.88    2.13
   1   2  -4   77.12    2.09
  -1   2   4   78.20    2.04
  -1   2   4   74.45    2.10
   1   2  -4   77.59    1.87
  -1   2   4   77.87    2.02
  -1   2   4   77.25    2.00
   1   2  -4   73.23    2.01
  -1   2   4   74.90    1.99
   1   2  -4   76.24    2.16
   1   2  -4   74.49    2.01
   0  -2   4  294.56    7.33
   0  -2   4  313.74    7.36
   0  -2   4  331.12    7.41
   0  -2  -4  334.32    7.53
   0  -2  -4  312.10    7.33
   0  -2  -4  309.46    7.40
   0  -2   4  288.39    7.43
   0  -2   4  291.94    7.14
   0  -2  -4  334.28    7.38
   0  -2   4  300.82    7.40
   0  -2  -4  295.13    7.28
   0  -2   4  286.59    7.12
   0  -2  -4  329.13    7.44
   0   2   4  289.13    7.10
   0   2  -4  289.74    6.91
   0   2  -4  295.77    7.15
   0   2   4  311.10    7.08
   0   2   4  306.96    7.21
   0   2   4  316.16    7.19
   0   2  -4  289.61    7.10
   0   2   4  296.68    7.08
   0   2  -4  304.54    7.23
   0   2   4  300.33    7.12
   1  -2   4  131.98    3.14
  -1  -2  -4  118.27    2.97
   1  -2   4  115.84    3.18
   1  -2   4  118.36    2.89
  -1  -2  -4  116.37    3.14
  -1  -2  -4  129.37    3.14
  -1   2  -4  119.50    3.08
  -1   2  -4  122.20    2.79
  -1   2  -4  119.92    3.12
   1   2   4  115.67    2.80
   1   2   4  119.00    3.11
  -1   2  -4  117.68    2.78
   1   2   4  120.77    2.98
   1   2   4  118.62    3.06
  -1   2  -4  119.79    2.85
   1   2   4  116.61    2.78
  -1   2  -4  119.50    2.99
   1   2   4  124.44    2.93
   2  -2   4  289.46    6.93
  -2  -2  -4  305.88    7.17
  -2  -2  -4  307.71    6.91
   2  -2   4  286.41    6.98
  -2  -2  -4  295.38    7.14
  -2  -2  -4  289.21    6.89
   2  -2   4  291.89    7.17
   2   2   4  290.99    7.01
  -2   2  -4  284.35    6.85
  -2   2  -4  276.92    6.70
   2   2   4  285.27    6.76
  -2   2  -4  281.13    6.99
   2   2   4  298.69    6.76
   2   2   4  293.28    7.02
  -2   2  -4  296.33    6.79
   2   2   4  285.22    6.87
  -2   2  -4  297.39    6.72
   2   2   4  290.45    6.77
  -3  -2  -4   19.16    0.77
   3  -2   4   20.68    0.74
  -3  -2  -4   20.07    0.99
   3  -2   4   20.61    1.13
  -3  -2  -4   19.45    0.59
   3  -2   4   20.25    1.03
  -3   2  -4   20.44    0.82
  -3   2  -4   20.85    0.67
   3   2   4   20.75    0.78
  -3   2  -4   20.96    0.70
   3   2   4   20.07    1.06
  -3   2  -4   20.97    0.79
   3   2   4   19.11    0.87
  -3   2  -4   20.27    1.00
   3   2   4   20.11    0.80
   4  -2   4   36.22    1.50
  -4  -2  -4   37.10    1.45
   4  -2   4   39.08    1.14
  -4  -2  -4   37.17    0.92
  -4  -2  -4   37.26    1.13
  -4  -2  -4   39.27    1.40
   4  -2   4   37.85    1.50
  -4   2  -4   38.79    1.13
   4   2   4   35.58    1.29
   4   2   4   39.05    1.25
  -4   2  -4   39.34    1.16
  -4   2  -4   36.73    1.47
   4   2   4   37.88    1.53
   4   2   4   38.91    1.28
  -5  -2  -4   24.19    0.82
   5  -2   4   23.69    0.83
  -5  -2  -4   23.16    0.81
  -5  -2  -4   22.72    1.24
   5  -2   4   23.85    1.42
  -5  -2  -4   21.58    1.04
   5  -2   4   23.52    1.35
   5   2   4   23.86    1.35
  -5   2  -4   22.52    0.88
   5   2   4   25.15    1.14
   5   2   4   23.19    1.07
  -5   2  -4   23.45    1.27
  -5   2  -4   23.48    0.83
   5   2   4   24.01    1.27
   6  -2   4   51.59    1.45
  -6  -2  -4   48.79    1.74
   6  -2   4   51.56    2.13
  -6  -2  -4   51.39    1.40
   6  -2   4   51.46    1.99
  -6  -2  -4   50.87    1.40
   6  -2   4   51.63    1.46
  -6  -2  -4   50.72    1.88
  -6   2  -4   54.63    1.44
   6   2   4   50.10    1.98
  -6   2  -4   50.26    1.88
   6   2   4   48.99    1.74
   6   2   4   50.89    1.91
   6   2   4   52.13    1.81
  -6   2  -4   50.58    1.61
   7  -2   4    5.30    0.86
  -7  -2  -4    5.17    0.86
  -7  -2  -4    5.31    0.82
   7  -2   4    4.83    0.51
   7  -2   4    4.68    1.02
  -7  -2  -4    4.65    0.37
  -7   2  -4    6.54    0.90
   7   2   4    4.64    0.86
   7   2   4    4.64    0.94
  -7   2  -4    5.93    0.42
   7   2   4    5.45    0.81
  -7   2  -4    7.22    0.96
   8  -2   4    0.94    0.94
   8  -2   4    0.50    0.89
  -8  -2  -4    0.66    0.83
  -8  -2  -4    1.40    0.80
   8   2   4    0.71    0.82
   8   2   4    0.14    0.92
  -8   2  -4    1.39    0.79
  -8   2  -4    0.72    0.83
  -9  -2  -4   18.06    1.83
  -9  -2  -4   21.81    1.66
   9  -2   4   19.90    1.92
   9  -2   4   21.07    2.83
  -9   2  -4   19.18    1.70
  -9   2  -4   18.75    1.44
   9   2   4   19.44    1.79
   9   2   4   20.58    2.09
 -10  -2  -4    2.59    1.09
  10  -2   4    2.53    1.18
  10  -2   4    2.53    1.45
 -10  -2  -4    1.97    1.10
 -10   2  -4    2.29    1.18
  10   2   4    1.96    1.19
  10   2   4    3.92    1.44
 -10   2  -4    3.55    1.21
 -11  -2  -4    8.48    1.52
  11  -2   4    8.64    1.57
  11  -2   4    6.07    1.80
  11   2   4    9.64    1.78
 -11   2  -4    8.65    1.41
 -11   2  -4    8.37    1.40
  11   2   4    7.77    1.58
 -12  -2  -4    0.25    1.23
  12  -2   4    1.27    1.85
  12  -2   4    2.88    1.52
  12   2   4    2.78    1.99
 -12   2  -4    2.85    1.50
  12   2   4    0.70    1.47
 -12  -3   4   24.02    3.02
  12  -3  -4   24.19    3.17
  12  -3  -4   29.77    2.66
 -12  -3   4   29.88    2.25
  12   3  -4   28.73    2.66
 -12   3   4   26.57    2.17
 -12   3   4   27.28    2.87
  12   3  -4   25.34    3.23
 -12   3   4   27.02    2.40
  11  -3  -4   -0.04    1.55
  11  -3  -4    0.60    1.30
 -11  -3   4   -0.33    1.14
  11  -3  -4    0.38    1.29
 -11  -3   4    0.85    1.71
 -11   3   4    3.20    1.31
 -11   3   4    2.36    1.21
 -11   3   4    2.67    1.52
  11   3  -4    1.37    1.61
  11   3  -4    0.76    1.35
  10  -3  -4    5.02    1.39
  10  -3  -4    6.92    1.42
  10  -3  -4    6.27    1.23
 -10  -3   4    7.04    1.58
 -10  -3   4    6.15    1.08
 -10   3   4    6.68    1.50
 -10   3   4    7.60    1.45
 -10   3   4    3.60    1.00
 -10   3   4    8.76    1.32
  10   3  -4    5.46    1.54
  10   3  -4    5.64    1.26
   9  -3  -4   10.84    1.19
   9  -3  -4   11.24    1.55
  -9  -3   4    9.39    1.21
   9  -3  -4    8.96    1.33
  -9   3   4   12.56    1.50
  -9   3   4   13.24    1.52
  -9   3   4    7.54    1.69
  -9   3   4   12.64    1.74
   8  -3  -4    9.03    1.15
   8  -3  -4   10.54    1.35
   8  -3  -4   10.26    1.14
  -8  -3   4   11.06    1.47
  -8  -3   4    8.12    1.13
  -8   3   4   10.65    1.42
   8   3  -4    8.55    0.57
  -8   3   4    6.89    0.86
  -8   3   4    7.77    1.17
   8   3  -4    8.23    1.27
  -8   3   4   10.48    1.09
   8   3  -4    8.03    1.04
  -7  -3   4    8.22    0.90
   7  -3  -4   10.41    1.24
   7  -3  -4    9.81    1.09
   7  -3  -4    8.67    1.19
  -7  -3   4    9.41    1.29
  -7   3   4    9.69    1.06
   7   3  -4    8.73    1.01
  -7   3   4    7.88    1.02
  -7   3   4    7.86    1.07
   7   3  -4    5.79    1.00
   7   3  -4    8.89    0.67
  -7   3   4    8.55    1.12
   6  -3  -4  136.43    3.66
  -6  -3   4  129.75    3.97
   6  -3  -4  134.45    3.80
  -6  -3   4  136.85    3.26
  -6  -3   4  137.88    3.26
   6  -3  -4  134.63    3.76
  -6  -3   4  141.16    3.64
   6   3  -4  136.72    3.43
   6   3  -4  130.13    3.65
  -6   3   4  132.23    3.47
  -6   3   4  134.24    3.77
  -6   3   4  129.69    3.53
  -6   3   4  123.91    3.66
   6   3  -4  131.23    3.83
   5  -3  -4   33.70    1.49
  -5  -3   4   33.37    1.27
  -5  -3   4   33.73    1.02
  -5  -3   4   35.09    1.68
   5  -3  -4   34.20    1.45
  -5  -3   4   35.71    1.03
   5  -3  -4   34.69    1.35
  -5   3   4   32.99    1.30
  -5   3   4   33.04    1.16
  -5   3   4   34.60    1.53
   5   3  -4   33.72    1.48
   5   3  -4   32.57    1.31
  -5   3   4   33.88    1.34
   5   3  -4   30.19    1.51
   4  -3  -4   65.81    2.07
  -4  -3   4   65.20    1.99
  -4  -3   4   68.91    1.78
  -4  -3   4   65.80    2.22
   4  -3  -4   64.83    1.94
   4  -3  -4   68.06    1.87
  -4   3   4   65.47    2.09
  -4   3   4   65.27    1.79
   4   3  -4   62.79    2.16
  -4   3   4   65.82    1.92
  -4   3   4   64.78    1.91
   4   3  -4   70.27    2.24
   4   3  -4   65.58    2.07
  -3  -3   4   90.07    2.33
   3  -3  -4   92.59    2.54
  -3  -3   4   82.73    2.66
   3  -3  -4   94.39    2.33
  -3  -3   4   90.56    2.23
  -3  -3   4   86.66    2.30
  -3  -3   4   90.33    2.34
   3  -3  -4   94.55    2.39
   3   3  -4   83.71    2.47
  -3   3   4   89.58    2.36
  -3   3   4   89.35    2.50
  -3   3   4   91.20    2.39
  -3   3   4   91.37    2.34
  -3   3   4   90.26    2.21
   3   3  -4   78.41    2.43
   3   3  -4   83.72    2.53
   3   3  -4   86.80    2.25
  -2  -3   4  143.76    3.54
  -2  -3   4  142.20    3.85
   2  -3  -4  150.81    3.54
   2  -3  -4  147.85    3.54
  -2  -3   4  149.57    3.55
   2  -3  -4  142.58    3.78
   2  -3  -4  145.90    3.57
  -2  -3   4  154.53    3.68
  -2  -3   4  150.45    3.47
   2  -3  -4  147.56    3.77
   2   3  -4  144.21    3.82
  -2   3   4  149.68    3.52
   2   3  -4  146.99    3.76
   2   3  -4  154.64    3.53
  -2   3   4  148.43    3.66
   2   3  -4  132.32    3.76
   1  -3  -4   56.05    1.36
  -1  -3   4   54.51    1.32
  -1  -3   4   54.10    1.35
  -1  -3   4   55.46    1.32
  -1  -3   4   53.74    1.72
   1  -3  -4   55.51    1.37
   1  -3  -4   51.48    1.62
   1  -3  -4   56.05    1.45
   1  -3  -4   53.62    1.66
  -1   3   4   59.31    1.74
   1   3  -4   51.90    1.71
  -1   3   4   56.55    1.48
  -1   3   4   52.75    1.70
  -1   3   4   56.51    1.63
   1   3  -4   56.41    1.66
   0  -3  -4   34.65    1.07
   0  -3  -4   32.68    1.24
   0  -3  -4   31.39    1.11
   0  -3  -4   34.33    0.85
   0  -3   4   34.20    1.25
   0   3   4   35.16    1.09
   0   3  -4   34.41    1.20
   0   3   4   33.48    1.13
   0   3   4   33.77    1.16
   0   3   4   36.37    1.29
   0   3  -4   34.37    1.27
   1  -3   4  171.67    4.54
   1  -3   4  171.03    4.45
  -1  -3  -4  190.79    4.24
  -1  -3  -4  180.23    4.39
  -1  -3  -4  189.84    4.46
  -1  -3  -4  176.58    4.63
  -1  -3  -4  182.68    4.19
   1   3   4  177.77    4.48
   1   3   4  188.51    4.33
  -1   3  -4  164.52    5.03
  -2  -3  -4  222.35    5.16
  -2  -3  -4  227.12    5.18
  -2  -3  -4  210.33    5.45
  -2  -3  -4  219.31    5.24
   2  -3   4  218.54    5.46
   2  -3   4  215.68    5.34
   2   3   4  207.10    4.99
   2   3   4  221.47    5.06
   2   3   4  209.75    4.98
  -2   3  -4  213.64    4.95
   2   3   4  209.96    5.29
  -2   3  -4  213.29    4.92
   2   3   4  214.09    5.15
  -2   3  -4  201.99    4.91
  -2   3  -4  207.32    5.29
  -3  -3  -4   28.82    0.97
   3  -3   4   28.48    1.41
  -3  -3  -4   29.93    1.24
   3  -3   4   27.88    1.22
  -3  -3  -4   29.74    0.95
   3  -3   4   28.59    1.03
  -3  -3  -4   28.79    0.89
   3   3   4   29.00    1.31
   3   3   4   30.30    0.98
  -3   3  -4   29.20    0.80
  -3   3  -4   29.40    0.88
   3   3   4   30.87    0.99
  -3   3  -4   27.62    1.27
  -3   3  -4   30.58    0.97
   3   3   4   30.60    1.14
  -3   3  -4   26.19    1.27
  -4  -3  -4   10.92    1.09
   4  -3   4   11.04    1.05
   4  -3   4    9.30    0.67
   4  -3   4    9.74    1.18
  -4  -3  -4   11.80    1.03
  -4  -3  -4   12.14    0.48
  -4   3  -4   10.26    0.76
  -4   3  -4   11.44    0.51
   4   3   4   11.46    0.71
  -4   3  -4    9.98    1.08
  -4   3  -4   11.30    0.69
   4   3   4   11.52    0.85
   4   3   4   10.54    1.08
   4   3   4   11.28    0.69
  -5  -3  -4   62.38    1.54
   5  -3   4   59.61    1.93
  -5  -3  -4   61.98    1.53
   5  -3   4   58.42    2.20
  -5  -3  -4   59.60    2.07
   5  -3   4   61.61    2.18
  -5   3  -4   64.54    2.24
  -5   3  -4   61.88    1.71
   5   3   4   61.69    1.96
  -5   3  -4   66.69    1.85
   5   3   4   59.92    2.17
   5   3   4   63.85    2.07
   6  -3   4   28.28    1.21
   6  -3   4   27.15    1.67
  -6  -3  -4   27.81    1.49
  -6  -3  -4   26.03    1.37
  -6  -3  -4   28.54    0.71
  -6  -3  -4   26.47    0.74
   6   3   4   24.64    1.65
  -6   3  -4   26.33    1.08
   6   3   4   27.69    1.32
   6   3   4   28.43    1.46
  -6   3  -4   24.93    1.71
  -6   3  -4   28.30    1.12
   6   3   4   27.49    1.35
  -7  -3  -4    5.87    0.45
  -7  -3  -4    5.21    0.94
   7  -3   4    6.62    0.86
   7  -3   4    5.59    0.97
  -7  -3  -4    6.13    0.91
   7  -3   4    4.61    1.00
  -7   3  -4    5.86    0.72
   7   3   4    6.07    0.86
  -7   3  -4    5.32    0.97
   7   3   4    4.13    0.89
   7   3   4    6.82    1.15
   7   3   4    5.55    0.80
  -8  -3  -4   60.25    2.31
  -8  -3  -4   60.28    2.30
   8  -3   4   58.69    2.50
   8  -3   4   61.25    1.90
   8  -3   4   61.04    2.77
   8   3   4   58.40    2.61
  -8   3  -4   60.75    2.43
   8   3   4   61.81    2.43
   8   3   4   62.81    2.60
  -8   3  -4   62.97    2.12
   9  -3   4   14.78    1.74
  -9  -3  -4   15.79    1.57
  -9  -3  -4   13.28    1.65
   9  -3   4   14.92    2.13
   9   3   4   16.88    1.92
  -9   3  -4   16.31    1.51
   9   3   4   17.46    2.10
  -9   3  -4   14.48    1.67
 -10  -3  -4   13.51    1.76
  10  -3   4   13.67    1.79
 -10  -3  -4   11.99    1.39
  10  -3   4   15.70    2.16
 -10   3  -4   13.81    1.85
  10   3   4   16.07    2.30
 -10   3  -4   14.39    1.80
  10   3   4   10.37    1.45
  11  -3   4    0.46    1.76
  11  -3   4    3.97    1.57
 -11  -3  -4    1.26    1.25
  11   3   4    0.08    1.75
  11   3   4   -1.15    1.37
 -11   3  -4    0.75    1.34
  12   3   4   -0.72    1.36
  12   3   4    3.38    1.96
  12  -4  -4    6.92    1.94
  12  -4  -4    4.99    1.48
 -12   4   4    6.28    1.77
 -12   4   4    7.70    1.56
  11  -4  -4    2.54    1.68
 -11  -4   4    2.68    1.29
  11  -4  -4    2.80    1.41
  11  -4  -4    0.32    1.39
 -11  -4   4    0.75    1.72
  11   4  -4    1.82    1.53
 -11   4   4    0.34    1.12
 -11   4   4    2.41    1.72
  11   4  -4    0.21    1.73
 -11   4   4   -0.22    1.40
  10  -4  -4    9.37    1.33
 -10  -4   4    9.86    1.27
  10  -4  -4   10.08    1.50
  10  -4  -4   10.43    1.62
 -10  -4   4   10.33    1.86
 -10   4   4    8.89    1.22
  10   4  -4   17.80    2.51
  10   4  -4    8.13    1.49
 -10   4   4   12.44    1.46
 -10   4   4   11.35    1.68
   9  -4  -4    6.78    1.31
  -9  -4   4    5.35    1.03
   9  -4  -4    6.85    1.40
   9  -4  -4   11.88    1.73
  -9  -4   4    6.03    1.39
  -9   4   4    4.84    1.64
  -9   4   4    7.01    1.09
   9   4  -4    5.35    1.17
   9   4  -4    4.96    1.45
  -9   4   4    7.15    1.46
   8  -4  -4   28.43    1.93
  -8  -4   4   24.52    2.09
   8  -4  -4   28.99    1.77
   8  -4  -4   27.68    1.88
  -8  -4   4   25.87    1.51
   8   4  -4   25.74    1.77
   8   4  -4   25.59    1.21
  -8   4   4   28.03    1.58
  -8   4   4   25.00    1.93
   8   4  -4   28.43    2.17
  -8   4   4   27.58    1.61
  -8   4   4   26.50    1.63
  -7  -4   4   74.05    1.97
   7  -4  -4   75.56    2.61
   7  -4  -4   78.54    2.51
  -7  -4   4   74.68    2.40
   7  -4  -4   76.89    2.71
  -7  -4   4   73.88    2.92
   7   4  -4   73.67    2.62
   7   4  -4   74.79    2.17
  -7   4   4   70.90    2.36
   7   4  -4   72.82    2.80
  -7   4   4   69.27    2.39
  -7   4   4   72.40    2.68
  -7   4   4   73.13    2.66
   6  -4  -4   78.17    2.62
  -6  -4   4   76.99    2.07
   6  -4  -4   77.95    2.58
  -6  -4   4   74.22    2.77
   6  -4  -4   78.53    2.44
  -6  -4   4   78.29    2.34
  -6   4   4   75.42    2.34
   6   4  -4   71.76    2.70
  -6   4   4   76.07    2.59
   6   4  -4   76.83    2.22
  -6   4   4   76.78    2.38
  -6   4   4   77.22    2.11
   6   4  -4   72.43    2.57
  -5  -4   4   11.74    0.67
   5  -4  -4   12.24    1.02
  -5  -4   4   11.15    0.86
   5  -4  -4   12.18    1.17
  -5  -4   4   11.03    1.30
   5  -4  -4   10.62    1.14
  -5   4   4   12.71    0.73
   5   4  -4   10.44    1.26
  -5   4   4   12.18    0.66
   5   4  -4   12.72    0.97
  -5   4   4   11.44    1.03
   5   4  -4   13.32    1.28
  -5   4   4   11.01    1.23
  -5   4   4   12.14    0.98
   4  -4  -4   31.52    1.28
  -4  -4   4   32.43    1.17
  -4  -4   4   31.88    1.58
   4  -4  -4   34.56    1.20
   4  -4  -4   31.80    1.46
   4   4  -4   30.45    1.47
   4   4  -4   31.15    1.53
  -4   4   4   31.18    0.91
  -4   4   4   32.63    1.30
  -4   4   4   31.08    1.49
  -4   4   4   32.21    1.31
   4   4  -4   31.18    1.25
  -3  -4   4   49.37    1.39
   3  -4  -4   49.19    1.51
  -3  -4   4   47.30    1.82
  -3  -4   4   48.34    1.30
   3  -4  -4   49.31    1.73
  -3  -4   4   48.12    1.41
   3  -4  -4   51.07    1.46
  -3   4   4   47.79    1.54
  -3   4   4   46.99    1.72
   3   4  -4   46.26    1.66
   3   4  -4   47.69    1.56
   3   4  -4   45.46    1.82
  -3   4   4   47.25    1.55
   2  -4  -4   36.44    1.42
  -2  -4   4   37.08    1.06
  -2  -4   4   37.20    1.51
   2  -4  -4   38.65    1.17
  -2  -4   4   38.07    1.05
  -2  -4   4   37.80    0.99
   2   4  -4   34.00    1.27
  -2   4   4   35.53    1.26
  -2   4   4   37.57    1.31
   2   4  -4   36.56    1.48
  -2   4   4   36.31    1.43
   1  -4  -4   20.53    0.71
  -1  -4   4   21.52    0.60
   1  -4  -4   20.24    0.71
  -1  -4   4   19.59    1.04
   1  -4  -4   19.77    1.02
   1  -4  -4   20.44    1.14
   1  -4  -4   20.76    0.69
   1  -4  -4   21.06    0.63
  -1   4   4   21.01    1.10
  -1   4   4   20.93    0.98
   1   4  -4   21.20    1.02
  -1   4   4   19.79    0.91
   0  -4  -4   77.32    2.41
   0  -4  -4   81.23    1.98
   0  -4  -4   80.50    2.27
   0  -4   4   79.46    2.32
   0  -4  -4   81.86    2.09
   0  -4  -4   82.97    2.01
   0  -4   4   77.61    2.31
   0  -4  -4   82.22    1.97
   0   4   4   81.61    2.38
   0   4  -4   78.27    2.27
   0   4   4   79.73    2.22
  -1  -4  -4   16.73    0.82
  -1  -4  -4   18.66    0.65
  -1  -4  -4   19.60    1.13
   1  -4   4   17.47    0.98
   1  -4   4   16.44    0.96
  -1  -4  -4   18.33    0.60
   1   4   4   15.89    0.86
   1   4   4   15.03    1.01
  -1   4  -4   15.65    0.93
  -1   4  -4   14.82    1.05
  -2  -4  -4   12.62    0.60
   2  -4   4   13.82    0.89
   2  -4   4   12.57    0.91
  -2  -4  -4   11.71    0.66
  -2  -4  -4   12.48    0.59
  -2  -4  -4   11.76    1.06
  -2   4  -4   12.40    1.10
   2   4   4   11.41    0.83
  -2   4  -4   12.42    0.43
   2   4   4   12.12    1.03
  -2   4  -4   13.01    0.88
   2   4   4   12.04    0.58
  -2   4  -4   12.27    0.43
  -3  -4  -4   51.63    1.47
  -3  -4  -4   47.10    1.81
  -3  -4  -4   49.85    1.45
   3  -4   4   45.34    1.64
  -3  -4  -4   48.88    1.43
  -3   4  -4   46.92    1.84
   3   4   4   47.45    1.82
  -3   4  -4   47.30    1.62
  -3   4  -4   47.88    1.33
   3   4   4   49.80    1.43
  -3   4  -4   48.28    1.29
   3   4   4   48.85    1.42
   3   4   4   48.98    1.62
  -3   4  -4   49.21    1.30
  -4  -4  -4   10.03    1.02
  -4  -4  -4    8.33    0.53
   4  -4   4   10.82    1.35
   4  -4   4    9.94    1.06
   4  -4   4    9.15    0.93
   4   4   4    9.03    0.94
   4   4   4    8.67    0.99
  -4   4  -4   10.21    0.71
   4   4   4    8.57    0.70
  -4   4  -4    9.36    0.85
   4   4   4    8.42    0.84
  -4   4  -4    9.37    1.06
  -4   4  -4    8.86    0.53
  -4   4  -4    9.63    0.43
   5  -4   4   48.42    2.17
   5  -4   4   48.12    1.70
  -5  -4  -4   49.19    1.96
   5  -4   4   48.05    1.92
  -5  -4  -4   48.81    1.37
  -5   4  -4   46.21    1.99
  -5   4  -4   48.03    1.48
  -5   4  -4   46.91    1.33
   5   4   4   49.64    1.99
   5   4   4   48.17    1.69
  -5   4  -4   46.33    1.60
   5   4   4   46.87    1.72
   5   4   4   50.18    1.75
  -6  -4  -4    0.85    0.79
  -6  -4  -4    0.84    0.22
  -6  -4  -4    1.12    0.70
   6  -4   4    0.78    0.89
   6  -4   4    0.82    0.62
   6   4   4    1.92    0.74
  -6   4  -4    1.05    0.81
  -6   4  -4    1.29    0.52
   6   4   4    1.51    0.72
  -6   4  -4    0.99    0.36
   6   4   4    1.26    0.92
   6   4   4    0.66    0.64
  -7  -4  -4    1.43    0.76
  -7  -4  -4    2.52    0.92
   7  -4   4    1.94    0.72
   7  -4   4    2.30    0.94
   7  -4   4    2.26    1.00
  -7   4  -4    1.57    0.92
   7   4   4   -0.34    0.88
  -7   4  -4    1.64    0.53
   7   4   4    0.55    0.97
   7   4   4    3.01    0.84
   7   4   4    1.42    0.80
  -7   4  -4    3.38    0.66
  -8  -4  -4   30.83    1.94
   8  -4   4   33.73    1.63
   8  -4   4   34.91    2.18
   8  -4   4   35.70    2.38
  -8  -4  -4   34.48    1.82
   8   4   4   34.81    2.26
   8   4   4   29.92    2.18
  -8   4  -4   33.80    2.02
   8   4   4   32.35    1.99
  -8   4  -4   32.82    1.57
   9  -4   4   27.71    2.23
   9  -4   4   27.00    2.42
  -9  -4  -4   26.74    1.92
  -9  -4  -4   25.44    1.79
  -9   4  -4   27.48    2.07
   9   4   4   27.05    2.42
  10  -4   4    2.14    1.54
 -10  -4  -4    3.66    1.19
  10  -4   4   -0.41    1.33
 -10  -4  -4    3.21    1.20
 -10   4  -4    0.88    1.33
  10   4   4    1.10    1.65
  10   4   4    2.88    1.41
 -10   4  -4    3.57    1.15
  11  -4   4    4.06    1.42
  11  -4   4   -2.45    1.69
 -11  -4  -4    0.35    1.28
 -11   4  -4    2.39    1.33
  11   4   4    2.41    1.58
  11   4   4    1.34    1.90
  11  -5  -4    2.48    1.79
  11  -5  -4    3.07    1.39
 -11  -5   4    6.34    1.95
 -11  -5   4    2.88    1.32
  11  -5  -4    3.54    1.62
 -11   5   4    6.78    1.64
 -11   5   4    3.14    1.80
 -11   5   4    5.55    1.45
  11   5  -4    3.62    1.60
  11   5  -4   -1.59    1.75
  10  -5  -4   -0.15    1.54
  10  -5  -4    3.18    1.22
 -10  -5   4    2.81    1.79
 -10  -5   4    3.49    1.18
  10  -5  -4    2.07    1.54
  10   5  -4    2.39    1.44
  10   5  -4    0.13    1.69
 -10   5   4    2.79    1.37
 -10   5   4    3.35    1.21
 -10   5   4    1.42    1.57
   9  -5  -4    0.72    1.11
   9  -5  -4    4.18    1.40
  -9  -5   4    3.81    1.52
   9  -5  -4    3.70    1.32
  -9  -5   4    3.55    1.00
  -9   5   4    3.40    1.14
  -9   5   4    3.60    1.25
   9   5  -4    2.31    1.35
   9   5  -4    4.55    1.38
  -9   5   4    5.91    1.43
   8  -5  -4    9.03    1.34
  -8  -5   4    9.43    1.09
  -8  -5   4   11.93    1.62
   8  -5  -4    6.77    1.07
  -8   5   4    7.45    1.13
  -8   5   4    8.08    1.38
  -8   5   4    7.63    1.14
   8   5  -4   11.07    1.53
   8   5  -4    7.06    1.32
   8   5  -4    7.26    1.24
   7  -5  -4    3.49    1.06
  -7  -5   4    2.49    0.77
   7  -5  -4    2.94    1.02
  -7  -5   4    2.62    1.16
   7  -5  -4    3.20    0.84
   7   5  -4    1.92    0.99
   7   5  -4    2.20    0.76
  -7   5   4    2.76    0.98
   7   5  -4    2.18    1.18
  -7   5   4    3.03    0.88
  -7   5   4    1.37    1.09
   6  -5  -4   26.85    1.69
  -6  -5   4   29.64    1.39
  -6  -5   4   28.78    1.91
   6  -5  -4   28.88    1.56
  -6  -5   4   29.97    1.27
   6  -5  -4   27.81    1.67
   6   5  -4   29.87    1.47
  -6   5   4   28.00    1.81
  -6   5   4   27.44    1.50
   6   5  -4   29.57    1.99
  -6   5   4   27.51    1.48
   6   5  -4   29.35    1.80
   5  -5  -4   58.64    2.22
  -5  -5   4   57.42    2.40
  -5  -5   4   59.01    1.90
  -5  -5   4   56.20    1.87
   5  -5  -4   61.26    1.99
   5  -5  -4   59.60    2.14
  -5   5   4   60.36    2.01
  -5   5   4   56.96    2.24
   5   5  -4   61.00    2.26
   5   5  -4   56.95    2.25
   5   5  -4   57.31    2.44
  -5   5   4   55.67    1.96
  -4  -5   4   21.78    0.99
  -4  -5   4   21.27    1.50
   4  -5  -4   21.17    1.23
   4  -5  -4   22.86    1.17
   4  -5  -4   20.66    1.39
  -4   5   4   20.51    1.17
   4   5  -4   21.69    1.60
  -4   5   4   20.15    1.17
   4   5  -4   20.16    1.44
   4   5  -4   20.54    1.26
  -4   5   4   18.97    1.37
  -3  -5   4   30.33    1.56
  -3  -5   4   31.22    1.05
  -3  -5   4   31.88    1.01
   3  -5  -4   30.16    1.17
  -3  -5   4   31.25    0.94
   3  -5  -4   30.47    1.49
   3   5  -4   30.74    1.59
  -3   5   4   29.45    1.51
   3   5  -4   32.59    1.39
  -3   5   4   31.29    1.34
  -3   5   4   30.73    1.34
  -2  -5   4   56.57    1.46
   2  -5  -4   60.95    1.68
  -2  -5   4   58.78    1.53
  -2  -5   4   54.43    1.98
  -2  -5   4   57.59    1.48
  -2  -5   4   55.53    2.04
   2  -5  -4   59.22    1.69
   2  -5  -4   58.98    2.01
  -2   5   4   54.94    1.94
   2   5  -4   55.02    1.86
  -2   5   4   56.09    1.82
  -2   5   4   55.71    1.78
  -1  -5   4   65.34    1.62
  -1  -5   4   65.09    2.16
   1  -5  -4   66.44    1.80
   1  -5  -4   66.55    1.78
   1  -5  -4   63.98    2.11
  -1  -5   4   64.54    1.62
   1  -5  -4   67.17    1.80
  -1  -5   4   65.73    2.14
  -1  -5   4   66.12    1.57
   1   5  -4   65.11    2.06
  -1   5   4   63.00    1.97
  -1   5   4   64.78    2.15
   0  -5  -4  136.97    3.29
   0  -5  -4  132.57    3.75
   0  -5   4  134.80    3.64
   0  -5   4  117.84    3.81
   0  -5  -4  136.98    3.28
   0  -5  -4  133.49    3.57
   0  -5  -4  132.12    3.26
   0  -5  -4  140.34    3.25
   0   5   4  132.59    3.44
   0   5  -4  131.59    3.53
   0   5   4  128.79    3.61
  -1  -5  -4   19.88    0.77
  -1  -5  -4   18.60    1.07
   1  -5   4   22.60    1.22
  -1  -5  -4   19.47    0.78
   1  -5   4   20.20    1.10
  -1  -5  -4   18.81    0.93
  -1  -5  -4   19.11    1.35
   1   5   4   16.94    1.23
  -1   5  -4   19.91    0.49
   1   5   4   17.42    1.05
  -1   5  -4   20.60    1.16
  -2  -5  -4   13.89    0.74
   2  -5   4   15.05    1.55
  -2  -5  -4   14.90    0.72
   2  -5   4   15.69    1.14
  -2  -5  -4   13.91    0.95
  -2  -5  -4   13.43    1.16
  -2   5  -4   15.65    1.01
   2   5   4   15.27    1.01
   2   5   4   13.98    1.24
  -2   5  -4   16.08    0.52
  -3  -5  -4  133.34    3.48
  -3  -5  -4  132.77    3.83
   3  -5   4  131.55    3.64
   3  -5   4  130.54    3.61
  -3  -5  -4  136.69    3.38
  -3   5  -4  129.10    3.17
   3   5   4  130.92    3.34
   3   5   4  132.69    3.74
  -3   5  -4  130.07    3.11
   3   5   4  131.66    3.52
  -3   5  -4  132.88    3.56
  -3   5  -4  131.10    3.12
   4  -5   4   31.35    1.91
  -4  -5  -4   31.78    1.22
   4  -5   4   32.44    1.55
  -4  -5  -4   31.37    1.71
   4  -5   4   32.79    1.48
  -4   5  -4   33.34    1.82
  -4   5  -4   34.18    1.09
   4   5   4   33.26    1.35
   4   5   4   32.11    1.24
   4   5   4   30.89    1.43
   4   5   4   33.79    1.75
  -4   5  -4   36.06    1.47
  -4   5  -4   33.35    1.04
  -5  -5  -4   15.40    0.89
   5  -5   4   18.74    1.28
   5  -5   4   16.73    1.76
   5  -5   4   16.67    1.31
  -5  -5  -4   16.90    1.46
   5   5   4   15.74    1.21
   5   5   4   16.83    1.22
  -5   5  -4   15.04    0.83
   5   5   4   15.70    1.50
  -5   5  -4   17.34    0.93
   5   5   4   16.44    1.20
  -5   5  -4   17.28    1.18
  -5   5  -4   15.07    1.55
   6  -5   4    5.58    1.11
  -6  -5  -4    6.61    1.03
   6  -5   4    8.55    0.97
  -6  -5  -4    5.64    0.89
   6   5   4    5.87    0.86
  -6   5  -4    6.15    0.75
   6   5   4    5.96    0.91
  -6   5  -4    7.14    0.74
   6   5   4    7.26    0.95
   6   5   4    5.33    1.08
  -6   5  -4    5.84    1.20
   7  -5   4   16.64    1.83
  -7  -5  -4   14.76    1.59
   7  -5   4   17.17    1.49
  -7  -5  -4   16.16    1.49
   7   5   4   15.55    1.64
  -7   5  -4   16.66    1.32
  -7   5  -4   18.65    1.27
   7   5   4   15.33    1.80
  -7   5  -4   17.44    1.81
   7   5   4   17.90    2.58
   8  -5   4    6.57    1.31
  -8  -5  -4    7.94    1.26
   8  -5   4   10.42    1.19
   8  -5   4    8.44    1.51
  -8  -5  -4    8.53    1.22
   8   5   4    5.63    1.31
   8   5   4    8.58    1.21
   8   5   4    6.80    1.41
  -8   5  -4    8.14    1.03
   8   5   4    8.02    1.22
  -9  -5  -4   49.90    2.50
   9  -5   4   47.00    3.09
  -9  -5  -4   48.51    2.36
   9  -5   4   41.93    2.69
   9   5   4   52.75    2.85
 -10  -5  -4   33.14    2.17
  10  -5   4   29.78    2.74
  10  -5   4   24.76    3.01
  10   5   4   34.94    2.94
  11   5   4   24.79    3.00
  11  -6  -4    6.64    1.69
  11  -6  -4    7.99    1.90
  11  -6  -4    8.33    1.45
 -11   6   4    7.15    2.20
 -10  -6   4    1.25    1.15
  10  -6  -4   -1.50    1.61
  10  -6  -4   -2.93    1.54
 -10  -6   4    0.25    1.18
  10  -6  -4   -0.57    1.29
 -10  -6   4    0.88    1.79
  10   6  -4   -0.19    1.83
 -10   6   4   -0.53    1.88
  10   6  -4   -0.96    1.51
 -10   6   4   -2.80    1.48
 -10   6   4    1.45    1.36
   9  -6  -4   25.73    2.43
  -9  -6   4   24.02    1.84
   9  -6  -4   20.55    2.33
  -9  -6   4   25.68    2.86
   9  -6  -4   25.14    2.24
   9   6  -4   26.43    2.57
  -9   6   4   18.66    2.55
  -9   6   4   27.25    2.09
   9   6  -4   20.42    2.82
  -9   6   4   16.92    2.05
  -8  -6   4    9.82    1.17
   8  -6  -4    6.66    1.39
   8  -6  -4    6.45    1.27
  -8  -6   4    9.86    1.71
   8  -6  -4    9.94    2.34
   8   6  -4    8.70    1.48
   8   6  -4    5.68    1.64
  -8   6   4    7.19    1.19
  -8   6   4    8.44    1.48
  -8   6   4    7.18    2.25
  -7  -6   4   10.60    1.23
   7  -6  -4   13.82    1.52
   7  -6  -4    6.41    1.27
   7  -6  -4    9.97    1.13
  -7   6   4    8.80    1.20
  -7   6   4   10.77    2.08
   7   6  -4    8.41    1.60
   7   6  -4   10.44    1.36
  -7   6   4   15.43    1.90
   7   6  -4    9.49    1.11
   6  -6  -4    4.06    0.87
  -6  -6   4    3.34    0.77
  -6  -6   4    4.96    0.87
   6  -6  -4    4.44    1.01
  -6  -6   4    5.20    1.26
   6  -6  -4    4.38    1.14
   6   6  -4    5.44    1.15
  -6   6   4    5.59    1.00
  -6   6   4    3.16    0.97
   6   6  -4    4.26    0.91
   6   6  -4    3.67    1.22
  -6   6   4    2.55    1.12
  -5  -6   4   30.46    1.69
   5  -6  -4   28.72    1.76
   5  -6  -4   28.32    1.69
  -5  -6   4   30.15    1.89
  -5  -6   4   28.15    1.30
   5  -6  -4   29.65    1.56
  -5  -6   4   28.60    1.51
  -5   6   4   30.89    1.80
   5   6  -4   29.36    1.91
   5   6  -4   30.42    2.11
  -5   6   4   31.28    1.61
   5   6  -4   29.58    1.63
  -5   6   4   27.20    1.54
  -4  -6   4    0.95    0.92
  -4  -6   4    0.98    0.49
  -4  -6   4    1.40    0.81
   4  -6  -4    0.42    0.62
   4  -6  -4    0.51    0.84
   4  -6  -4    0.87    0.72
  -4   6   4    0.49    0.85
   4   6  -4    0.56    0.88
   4   6  -4    1.59    0.82
  -4   6   4    1.08    0.75
  -4   6   4    0.22    0.72
  -3  -6   4   18.66    0.84
  -3  -6   4   19.59    1.53
   3  -6  -4   17.57    1.19
  -3  -6   4   17.71    1.38
   3  -6  -4   17.22    1.43
  -3   6   4   17.06    1.42
  -3   6   4   17.29    1.20
  -3   6   4   16.65    1.22
   3   6  -4   19.47    1.36
  -2  -6   4   24.86    1.50
  -2  -6   4   26.59    0.81
   2  -6  -4   23.26    1.44
  -2  -6   4   25.25    1.48
   2  -6  -4   24.11    1.07
  -2   6   4   23.33    1.50
  -2   6   4   24.40    1.30
  -2   6   4   23.46    1.28
   2   6  -4   24.39    1.32
   1  -6  -4    5.58    0.66
  -1  -6   4    6.63    0.87
   1  -6  -4    5.07    1.02
  -1  -6   4    6.79    0.88
  -1  -6   4    7.38    0.33
   1  -6  -4    7.30    0.93
   1   6  -4    6.97    0.84
  -1   6   4    6.31    0.97
  -1   6   4    4.85    0.73
   0  -6  -4   48.56    2.08
   0  -6  -4   51.23    1.50
   0  -6  -4   49.82    1.87
   0  -6   4   49.57    1.83
   0  -6   4   49.20    1.95
   0   6   4   51.56    2.02
   0   6  -4   52.74    1.92
   0   6   4   50.81    1.81
   1  -6   4   75.47    2.52
  -1  -6  -4   75.60    2.41
   1  -6   4   76.83    2.39
  -1  -6  -4   77.57    2.72
  -1  -6  -4   75.41    2.05
   1   6   4   73.63    2.50
  -1   6  -4   72.02    2.32
  -1   6  -4   73.96    1.74
   1   6   4   70.42    2.45
  -2  -6  -4   15.34    1.49
  -2  -6  -4   16.44    1.17
   2  -6   4   16.60    1.17
   2  -6   4   19.97    1.40
   2   6   4   18.53    1.24
   2   6   4   17.65    1.50
  -2   6  -4   18.62    0.59
  -2   6  -4   19.59    1.34
   3  -6   4   10.03    1.06
  -3  -6  -4   10.26    1.26
  -3  -6  -4   10.77    1.05
   3  -6   4   10.84    1.30
   3   6   4    8.77    1.13
  -3   6  -4   11.18    1.19
   3   6   4   10.30    0.96
  -3   6  -4   10.02    0.52
  -4  -6  -4   10.44    0.99
   4  -6   4   10.64    1.38
   4  -6   4   12.56    1.39
  -4  -6  -4   11.78    1.34
   4  -6   4   11.81    1.16
   4   6   4   11.31    1.14
  -4   6  -4   11.51    1.24
   4   6   4   10.80    1.20
   4   6   4   12.29    1.58
  -4   6  -4   10.78    0.58
  -5  -6  -4   13.59    1.07
  -5  -6  -4   13.34    1.41
   5  -6   4   13.60    1.89
   5  -6   4   13.97    1.52
  -5   6  -4   13.82    1.26
  -5   6  -4   13.24    0.94
   5   6   4    9.42    1.27
   5   6   4   11.76    1.36
   5   6   4   14.29    1.32
   5   6   4   14.53    1.35
  -6  -6  -4    8.59    1.14
   6  -6   4    8.80    1.15
  -6  -6  -4    8.77    1.16
  -6  -6  -4    8.66    1.22
   6  -6   4    5.78    1.34
   6   6   4    7.08    0.99
   6   6   4    7.52    1.71
  -6   6  -4    9.15    1.23
   6   6   4    7.50    1.44
   6   6   4    7.39    1.04
  -7  -6  -4    5.84    1.69
   7  -6   4    6.29    1.21
   7  -6   4    4.28    1.33
  -7  -6  -4    5.54    1.07
   7   6   4    5.70    1.15
   7   6   4    6.21    1.15
   7   6   4    5.18    1.38
  -7   6  -4    4.82    0.88
   8  -6   4    9.29    1.77
   8  -6   4    7.23    1.70
  -8  -6  -4    8.16    1.30
   8  -6   4    5.77    1.48
  -8  -6  -4    9.86    1.43
   8   6   4    7.72    1.68
   8   6   4    7.31    1.29
   9  -6   4    5.76    1.58
  -9  -6  -4    8.37    1.48
   9  -6   4    5.31    1.86
  -9  -6  -4    7.57    1.42
   9   6   4    8.69    2.05
  10  -7  -4   15.71    2.42
 -10  -7   4   19.27    1.84
 -10   7   4   15.32    2.19
   9  -7  -4   19.30    2.24
  -9  -7   4   27.58    2.96
  -9  -7   4   27.48    1.93
   9  -7  -4   24.91    2.73
  -9  -7   4   24.66    2.08
   9  -7  -4   23.71    2.62
  -9   7   4   21.76    2.35
  -9   7   4   25.16    3.09
   9   7  -4   29.33    2.84
   9   7  -4   32.24    3.30
  -8  -7   4    2.19    0.98
  -8  -7   4    2.67    1.74
   8  -7  -4    1.75    1.08
   8  -7  -4    1.92    1.52
  -8  -7   4    1.10    1.12
   8  -7  -4    2.56    1.45
  -8   7   4    1.25    1.34
   8   7  -4    1.24    1.64
  -8   7   4    0.65    1.55
  -8   7   4    2.60    1.24
   8   7  -4    1.92    1.43
   7  -7  -4   -0.02    1.25
  -7  -7   4    1.25    1.46
  -7  -7   4   -0.58    0.86
   7  -7  -4    0.06    1.25
  -7  -7   4    2.60    1.08
   7  -7  -4    1.05    1.04
   7   7  -4    3.19    1.15
  -7   7   4    3.12    1.47
   7   7  -4    0.84    1.54
  -7   7   4    1.84    1.16
   7   7  -4   -0.03    1.34
   6  -7  -4    1.15    1.12
  -6  -7   4    2.71    1.01
  -6  -7   4    5.11    2.00
  -6  -7   4    3.60    1.10
   6  -7  -4    2.69    0.97
   6  -7  -4    1.64    1.18
  -6  -7   4    3.90    0.82
  -6   7   4    1.21    1.27
  -6   7   4    2.93    1.10
   6   7  -4    5.62    1.19
   6   7  -4    2.69    1.23
   6   7  -4    2.33    1.43
  -6   7   4    1.95    1.13
   5  -7  -4   38.02    2.18
  -5  -7   4   35.45    2.75
   5  -7  -4   36.93    2.09
   5  -7  -4   35.64    1.90
  -5  -7   4   38.14    1.96
  -5  -7   4   35.61    2.24
  -5  -7   4   35.94    2.41
  -5   7   4   38.94    1.87
  -5   7   4   35.77    1.83
   5   7  -4   39.16    1.96
  -5   7   4   34.61    2.11
  -4  -7   4    3.65    0.96
  -4  -7   4    4.14    1.15
   4  -7  -4    2.74    0.93
  -4  -7   4    3.27    0.62
  -4   7   4    2.84    0.85
  -4   7   4    4.01    1.09
   4   7  -4    2.28    0.90
  -4   7   4    3.51    0.96
  -3  -7   4   11.29    1.43
  -3  -7   4   12.93    0.80
  -3  -7   4   13.80    1.53
   3  -7  -4   14.57    1.37
   3  -7  -4   13.97    1.60
   3   7  -4   15.04    1.47
  -3   7   4   12.06    1.29
  -3   7   4   12.34    1.64
   2  -7  -4   24.47    1.92
   2  -7  -4   25.74    1.41
  -2  -7   4   26.02    1.63
  -2  -7   4   24.18    1.62
   2  -7  -4   24.03    1.65
  -2   7   4   24.57    1.75
   2   7  -4   24.99    1.49
  -2   7   4   24.31    1.43
   1  -7  -4    3.15    0.91
  -1  -7   4    5.59    0.93
   1  -7  -4    3.15    1.14
  -1  -7   4    3.70    0.89
   1  -7  -4    3.44    0.56
   1   7  -4    5.14    0.95
  -1   7   4    3.76    0.83
  -1   7   4    4.60    1.04
   0  -7   4   32.88    1.82
   0  -7  -4   36.44    2.02
   0  -7  -4   31.16    1.18
   0  -7   4   31.12    1.57
   0  -7  -4   32.37    1.71
   0   7   4   35.43    1.87
   0   7   4   34.31    1.59
   0   7  -4   31.19    1.72
  -1  -7  -4    2.34    0.81
   1  -7   4    3.91    0.98
  -1  -7  -4    1.59    1.11
   1  -7   4    2.75    0.78
   1   7   4    2.61    0.83
  -1   7  -4    2.08    0.77
   1   7   4    1.59    1.01
  -2  -7  -4   31.26    1.58
  -2  -7  -4   28.93    1.81
   2  -7   4   29.65    1.47
   2  -7   4   30.92    1.82
  -2   7  -4   29.74    1.66
   2   7   4   30.71    1.96
   2   7   4   30.71    1.59
   3  -7   4   17.38    1.64
  -3  -7  -4   15.57    1.26
   3  -7   4   18.65    2.00
  -3  -7  -4   15.77    1.31
  -3  -7  -4   13.34    1.73
   3   7   4   15.98    1.76
  -3   7  -4   17.41    1.45
   3   7   4   15.78    1.36
   4  -7   4    0.08    2.10
  -4  -7  -4    0.77    0.73
  -4  -7  -4    0.99    0.95
   4  -7   4    1.38    1.02
  -4   7  -4    0.11    0.77
   4   7   4    1.59    0.90
   4   7   4    0.42    1.14
  -5  -7  -4   12.70    1.72
  -5  -7  -4   11.03    1.38
   5  -7   4   12.72    1.64
  -5  -7  -4   13.31    1.29
  -5  -7  -4   13.70    1.67
   5   7   4   14.66    1.51
   5   7   4   13.49    2.37
  -5   7  -4   11.29    1.41
  -6  -7  -4   16.50    1.89
  -6  -7  -4   19.22    1.92
   6  -7   4   13.16    1.74
   6  -7   4   17.34    1.94
  -6  -7  -4   14.22    1.57
   6   7   4   15.15    1.70
   6   7   4   15.71    2.12
  -6   7  -4   14.45    1.74
   7  -7   4   11.80    1.54
  -7  -7  -4   13.39    1.65
  -7  -7  -4   15.62    2.05
   7  -7   4   12.90    1.87
  -7  -7  -4   11.37    1.35
   7   7   4   15.07    1.97
   7   7   4   14.18    1.90
  -7   7  -4   13.65    1.61
   8  -7   4   29.24    3.01
   8  -7   4   34.78    2.36
  -8  -7  -4   33.03    2.64
   8  -7   4   25.25    2.69
  -8  -7  -4   30.15    2.12
  -8  -7  -4   27.00    2.48
   8   7   4   31.57    2.29
   8   7   4   31.07    2.91
  -9  -7  -4    5.14    1.77
  -8  -8   4    1.97    1.83
   8  -8  -4    3.89    1.66
  -8  -8   4    5.90    1.37
  -8   8   4    4.59    1.58
   8   8  -4    4.48    1.82
   7  -8  -4    2.85    1.62
  -7  -8   4    4.65    1.37
  -7  -8   4    7.24    1.77
  -7   8   4    7.28    1.48
   7   8  -4    3.96    1.33
   6  -8  -4    0.74    1.50
  -6  -8   4    3.74    1.28
  -6  -8   4    3.97    1.48
  -6   8   4    1.87    1.48
  -6   8   4    3.00    1.22
   6   8  -4    3.74    1.31
  -5  -8   4   17.47    2.48
   5  -8  -4   14.74    2.17
  -5  -8   4   13.73    1.89
  -5  -8   4   13.07    1.53
  -5   8   4   15.14    1.78
   5   8  -4   14.74    1.93
  -5   8   4   14.76    1.74
  -5   8   4   14.76    1.71
  -4  -8   4    8.40    1.33
   4  -8  -4   10.64    1.53
  -4  -8   4    9.49    1.44
   4   8  -4    6.21    1.21
  -4   8   4    8.45    1.20
  -4   8   4    6.52    1.46
  -3  -8   4   11.59    1.42
  -3  -8   4   12.70    1.64
   3  -8  -4    9.28    1.57
   3  -8  -4   15.45    1.80
   3   8  -4   13.96    1.79
  -3   8   4   12.17    1.28
  -3   8   4   11.39    1.50
  -2  -8   4   46.08    2.10
   2  -8  -4   46.34    2.29
  -2  -8   4   45.49    2.27
  -2   8   4   45.49    2.03
   2   8  -4   46.93    2.25
  -2   8   4   43.17    2.36
  -1  -8   4    3.26    1.08
   1  -8  -4    2.86    1.03
   1  -8  -4    2.60    1.29
   1   8  -4    2.14    0.95
  -1   8   4    3.64    0.95
  -1   8   4    3.73    1.21
   0  -8  -4   12.81    1.52
   0  -8   4   12.06    1.70
   0  -8  -4   15.30    1.72
   0   8   4   10.61    1.12
   0   8   4   13.58    1.50
   0   8  -4   13.33    1.59
  -1  -8  -4   15.47    1.75
   1  -8   4   18.21    1.88
  -1   8  -4   15.97    1.67
   1   8   4   14.32    1.46
   1   8   4   14.54    2.02
   2  -8   4   16.60    1.81
  -2  -8  -4   17.66    2.02
  -2  -8  -4   17.29    1.68
   2   8   4   18.59    1.86
  -2   8  -4   19.73    1.75
   2   8   4   17.21    2.10
   3  -8   4    6.81    1.49
  -3  -8  -4   10.77    1.50
   3  -8   4   10.41    1.48
  -3  -8  -4    8.08    1.52
   3   8   4    6.54    1.50
   3   8   4    9.60    1.18
  -3   8  -4    8.79    1.17
   4  -8   4   -2.68    1.24
   4  -8   4   -0.56    1.25
  -4  -8  -4   -0.51    1.27
  -4  -8  -4    0.71    0.93
   4   8   4    1.70    1.36
   4   8   4   -0.97    0.98
  -4   8  -4   -0.41    0.95
  -5  -8  -4   24.25    2.38
   5  -8   4   25.46    2.75
   5  -8   4   28.52    2.26
  -5  -8  -4   27.15    1.87
  -5  -8  -4   27.12    2.16
   5   8   4   22.42    2.48
  -5   8  -4   29.79    1.93
   5   8   4   26.31    1.92
   6  -8   4    4.77    1.54
   6  -8   4    4.29    1.80
  -6  -8  -4    6.14    1.25
  -6  -8  -4    6.36    1.59
  -6   8  -4    4.98    1.15
   6   8   4    4.17    1.30
   6   8   4    8.87    1.86
   7  -8   4    2.60    1.80
   7  -8   4    4.25    1.62
  -7  -8  -4    3.00    1.55
  -7  -8  -4    3.79    1.24
   7   8   4    3.33    1.87
  -7   8  -4    0.07    1.12
   7   8   4    2.89    1.39
   8   8   4    4.53    1.75
  -7   9   4    1.94    1.50
  -6  -9   4    2.57    1.44
   6  -9  -4    2.38    1.86
   6   9  -4    1.98    1.54
  -6   9   4    1.65    1.40
  -5  -9   4    2.35    1.44
  -5  -9   4    5.44    1.64
   5  -9  -4    4.23    1.65
  -5   9   4    1.98    1.28
   5   9  -4    4.17    1.44
   4  -9  -4    6.67    1.89
   4  -9  -4    5.89    1.64
  -4  -9   4    7.59    1.53
  -4  -9   4    4.81    1.58
  -4   9   4    4.50    1.39
   4   9  -4    5.45    1.35
   3  -9  -4    3.31    1.50
   3  -9  -4    0.90    1.81
  -3  -9   4    3.56    1.36
   3   9  -4    2.58    1.37
  -3   9   4    4.27    1.25
   2  -9  -4   10.76    1.94
   2  -9  -4    7.19    1.46
  -2  -9   4    9.51    1.56
  -2   9   4    7.65    1.31
   2   9  -4   11.37    1.56
   1  -9  -4   35.87    2.31
   1  -9  -4   32.90    2.52
  -1  -9   4   38.68    2.43
  -1   9   4   35.38    2.07
   1   9  -4   31.23    2.26
   0  -9  -4   27.73    2.66
   0  -9   4   29.83    2.33
   0  -9  -4   31.17    2.16
   0   9  -4   27.89    2.16
   0   9   4   26.79    1.96
  -1  -9  -4    0.51    1.42
   1  -9   4    1.30    1.36
  -1  -9  -4    1.63    1.10
  -1   9  -4   -0.48    1.19
   1   9   4    2.14    1.16
   1   9   4    0.03    1.62
   2  -9   4    7.94    1.72
   2  -9   4    5.66    1.46
  -2  -9  -4    6.73    1.25
  -2  -9  -4    2.33    1.59
   2   9   4    4.02    1.20
  -2   9  -4    3.37    1.26
   2   9   4    3.13    1.52
  -3  -9  -4    5.30    1.19
   3  -9   4    2.00    1.44
   3  -9   4    2.72    1.56
  -3  -9  -4    0.67    1.59
  -3   9  -4    2.65    1.25
   3   9   4    2.21    1.55
   3   9   4    3.03    1.22
  -4  -9  -4    3.88    1.17
   4  -9   4    6.69    1.60
  -4  -9  -4    3.08    1.58
  -4  -9  -4    5.17    1.12
   4  -9   4    1.83    1.81
   4   9   4    6.96    1.39
   4   9   4    3.70    1.69
  -4   9  -4    3.92    1.26
   5  -9   4   20.34    2.62
  -5  -9  -4   24.21    2.67
   5  -9   4   15.55    2.20
  -5  -9  -4   14.97    1.56
   5   9   4   18.73    3.09
   5   9   4   15.12    1.70
  -5   9  -4   16.39    2.19
  -6  -9  -4    4.56    1.56
  -6  -9  -4    3.62    1.17
   6   9   4    5.18    1.47
  -6   9  -4    5.91    1.33
  -4 -10   4    6.26    1.74
  -3 -10   4    1.80    1.69
   3  10  -4    1.10    1.67
  -2 -10   4    2.08    1.41
   2 -10  -4    1.32    1.35
   2 -10  -4    3.19    2.05
   2  10  -4    0.87    1.32
   1 -10  -4    1.70    1.85
   1 -10  -4    6.10    1.52
   1  10  -4    3.82    1.30
   0 -10  -4    6.71    1.79
   0 -10  -4    4.81    1.43
   0 -10   4    4.01    1.55
   0  10  -4    5.04    1.32
  -1 -10  -4    4.16    1.83
  -1 -10  -4    4.02    1.44
   1 -10   4    5.13    1.50
  -1  10  -4    1.07    1.22
   1  10   4    3.26    1.69
   2 -10   4    1.07    1.73
  -2 -10  -4    4.38    1.37
   3 -10   4    3.03    1.69
  -3 -10  -4    4.99    1.31
 -13   0   5    1.38    1.93
 -12   0   5    0.46    1.95
  12   0  -5   -1.07    1.87
 -12   0   5    2.10    1.11
  12   0  -5   -1.26    1.36
 -12   0   5    3.42    1.35
 -11   0   5    2.75    1.12
  11   0  -5    2.38    1.30
 -11   0   5    1.13    0.99
  11   0  -5    1.75    1.50
 -11   0   5    2.70    1.62
  10   0  -5    8.42    1.14
  10   0  -5    7.11    1.20
 -10   0   5    7.24    1.96
 -10   0   5    7.57    1.15
 -10   0   5    8.19    1.09
  10   0  -5    4.00    1.35
   9   0  -5    8.91    1.28
   9   0  -5   14.74    1.53
   9   0  -5   11.13    1.42
  -9   0   5   11.56    1.42
  -9   0   5   10.61    1.17
  -8   0   5   11.98    1.56
   8   0  -5   11.37    1.24
   8   0  -5   10.93    0.58
   8   0  -5   10.20    1.37
   8   0  -5   12.37    1.29
  -8   0   5   10.98    1.16
  -7   0   5   93.71    3.05
   7   0  -5   95.92    2.84
   7   0  -5   93.01    2.77
   7   0  -5   95.82    2.39
  -7   0   5   92.26    2.67
  -7   0   5   93.17    2.71
   7   0  -5   91.26    2.98
  -6   0   5   86.16    2.38
  -6   0   5   84.87    2.46
   6   0  -5   86.43    2.51
   6   0  -5   83.13    2.62
  -6   0   5   83.48    2.67
   6   0  -5   83.31    2.51
   6   0  -5   83.40    2.19
   5   0  -5   34.18    1.44
   5   0  -5   36.21    1.34
   5   0  -5   34.83    1.35
  -5   0   5   36.07    1.21
  -5   0   5   32.93    1.47
   5   0  -5   35.84    1.10
  -5   0   5   33.19    1.22
   4   0  -5    1.95    0.36
   4   0  -5    2.53    0.51
   4   0  -5    1.82    0.43
  -4   0   5    2.16    0.44
  -4   0   5    2.52    0.73
  -4   0   5    2.33    0.35
   4   0  -5    2.06    0.20
  -4   0   5    1.75    0.75
   4   0  -5    2.34    0.33
   3   0  -5    0.28    0.29
   3   0  -5   -0.03    0.20
  -3   0   5    0.10    0.18
  -3   0   5   -0.23    0.26
  -3   0   5   -0.22    0.33
   3   0  -5   -0.30    0.33
   3   0  -5   -0.08    0.29
  -3   0   5   -0.16    0.34
  -3   0   5   -0.04    0.32
  -3   0   5    0.11    0.27
   3   0  -5   -0.19    0.34
  -3   0   5   -0.27    0.42
   2   0  -5    0.29    0.44
  -2   0   5    0.48    0.30
   2   0  -5    0.06    0.25
  -2   0   5    0.81    0.34
   2   0  -5    0.05    0.30
   2   0  -5    0.47    0.26
  -2   0   5    0.38    0.24
  -2   0   5    0.34    0.23
   2   0  -5    0.37    0.32
   2   0  -5    0.32    0.30
   2   0  -5    0.29    0.26
   2   0  -5    0.08    0.32
  -2   0   5    1.73    0.49
   1   0  -5    0.08    0.41
   1   0  -5   -0.16    0.37
  -1   0   5    0.09    0.25
   1   0  -5   -0.40    0.30
   1   0  -5   -0.37    0.29
  -1   0   5   -0.11    0.41
  -1   0   5    0.17    0.33
   1   0  -5    0.14    0.24
   1   0  -5    0.48    0.23
   1   0  -5    0.12    0.29
  -1   0   5   -0.09    0.23
  -1   0   5    0.44    0.28
   1   0  -5    0.38    0.32
  -1   0   5    0.25    0.30
  -1   0   5   -0.09    0.20
  -1   0   5    0.61    0.30
   1   0  -5    0.28    0.29
   0   0   5   46.60    1.24
   0   0   5   46.29    1.29
   0   0   5   46.22    1.24
   0   0   5   48.63    1.31
   0   0  -5   45.62    1.45
   0   0  -5   46.12    1.30
   0   0   5   45.80    1.32
   0   0   5   47.39    1.54
   0   0   5   45.33    1.57
   0   0  -5   46.78    1.29
   0   0  -5   44.64    1.39
   0   0  -5   44.12    1.33
   0   0  -5   47.53    1.25
   0   0  -5   46.71    1.38
   0   0   5   47.24    1.30
   0   0   5   42.84    1.36
   1   0   5  235.85    5.86
  -1   0  -5  251.55    5.76
  -1   0  -5  243.21    5.78
   1   0   5  265.04    6.07
   1   0   5  242.19    6.01
  -1   0  -5  232.17    5.82
  -1   0  -5  251.56    5.87
  -1   0  -5  241.87    5.92
   1   0   5  244.42    5.75
   1   0   5  233.31    5.74
   2   0   5    4.93    0.58
   2   0   5    4.20    0.64
  -2   0  -5    4.45    0.49
   2   0   5    3.91    0.34
   2   0   5    4.93    0.43
  -2   0  -5    3.60    0.44
  -2   0  -5    4.69    0.47
  -2   0  -5    4.62    0.64
  -2   0  -5    3.88    0.49
   2   0   5    4.40    0.58
   3   0   5  198.73    4.87
  -3   0  -5  195.66    4.71
   3   0   5  193.22    4.52
   3   0   5  195.18    4.71
   3   0   5  193.38    5.01
   3   0   5  195.75    4.84
   3   0   5  190.68    4.52
  -3   0  -5  199.46    4.94
  -4   0  -5    6.79    0.86
   4   0   5    6.12    0.82
  -4   0  -5    8.39    0.49
   4   0   5    7.41    0.66
   4   0   5    6.98    0.99
   4   0   5    8.26    0.91
  -5   0  -5   63.01    1.89
   5   0   5   61.73    1.97
  -5   0  -5   62.66    1.67
   5   0   5   60.95    2.06
   5   0   5   62.98    2.09
  -5   0  -5   60.80    2.08
   5   0   5   63.47    1.86
   6   0   5    3.91    0.70
   6   0   5    2.84    0.74
  -6   0  -5    4.11    0.39
  -6   0  -5    3.55    0.74
  -6   0  -5    4.28    0.70
   6   0   5    3.98    0.80
  -7   0  -5    0.58    0.75
  -7   0  -5   -0.16    0.65
  -7   0  -5    0.35    0.20
   7   0   5    0.07    0.63
   7   0   5    0.48    0.79
  -8   0  -5   28.84    1.70
   8   0   5   29.72    1.98
  -8   0  -5   30.07    1.54
   8   0   5   30.07    1.89
   9   0   5    0.23    0.91
   9   0   5    0.10    1.12
  -9   0  -5   -0.20    0.94
  -9   0  -5    2.33    0.95
 -10   0  -5   13.20    1.62
 -10   0  -5   13.43    1.87
  10   0   5   13.81    1.73
  10   0   5   10.17    1.37
 -11   0  -5    4.35    1.33
 -11   0  -5    2.32    1.26
  11   0   5    3.73    1.39
  11   0   5    3.07    1.71
  12   0   5    3.22    1.77
  12   0   5    4.21    1.42
 -12   0  -5    4.00    1.49
 -13   1   5    6.84    2.20
 -12  -1   5    8.53    2.20
 -12  -1   5   10.36    1.50
  12  -1  -5    8.13    2.02
  12  -1  -5    5.81    1.88
  12  -1  -5   10.25    1.52
  12   1  -5    7.95    2.00
 -12   1   5    9.52    1.33
 -12   1   5    5.93    2.10
  12   1  -5    9.61    1.72
 -12   1   5    7.63    1.63
  11  -1  -5    1.15    1.58
  11  -1  -5   -0.57    1.25
 -11  -1   5    0.41    1.11
  11  -1  -5    0.70    1.30
 -11  -1   5    0.16    1.64
 -11   1   5    2.02    1.20
 -11   1   5    0.11    1.55
  11   1  -5    0.01    1.26
 -11   1   5    2.94    1.04
  11   1  -5    0.33    1.52
 -10  -1   5   12.91    1.50
  10  -1  -5   14.17    2.02
  10  -1  -5   13.12    1.62
 -10  -1   5   16.54    1.89
  10  -1  -5   13.09    1.54
 -10   1   5   14.10    1.46
  10   1  -5   17.87    1.96
 -10   1   5   16.53    2.08
 -10   1   5   13.97    1.60
  10   1  -5   15.12    1.86
  -9  -1   5   20.00    1.94
   9  -1  -5   18.96    1.53
   9  -1  -5   18.00    1.94
  -9  -1   5   18.64    1.47
   9  -1  -5   18.52    1.67
  -9   1   5   20.07    1.94
  -9   1   5   18.68    1.35
  -9   1   5   15.57    1.30
   9   1  -5   15.76    1.64
   9   1  -5   19.76    1.95
   8  -1  -5   37.29    1.69
   8  -1  -5   37.84    2.07
   8  -1  -5   35.03    1.11
  -8  -1   5   36.95    2.05
  -8  -1   5   37.10    1.59
   8  -1  -5   39.48    1.82
   8   1  -5   37.91    1.12
   8   1  -5   37.13    1.84
   8   1  -5   38.63    1.75
  -8   1   5   38.57    2.00
   8   1  -5   40.72    2.11
  -8   1   5   37.23    1.67
  -8   1   5   37.70    1.59
   7  -1  -5    4.72    0.80
  -7  -1   5    4.18    1.01
   7  -1  -5    4.84    0.80
  -7  -1   5    3.45    0.68
   7  -1  -5    3.91    0.38
   7  -1  -5    2.87    0.85
   7   1  -5    3.27    0.75
   7   1  -5    4.12    0.95
   7   1  -5    3.58    0.71
  -7   1   5    3.69    0.69
   7   1  -5    3.72    0.48
  -7   1   5    3.37    0.67
  -7   1   5    2.68    0.87
  -6  -1   5   28.74    1.58
  -6  -1   5   28.95    1.28
   6  -1  -5   30.24    1.37
   6  -1  -5   30.76    0.83
   6  -1  -5   29.91    1.50
   6  -1  -5   29.59    1.01
   6  -1  -5   30.43    0.84
   6  -1  -5   32.21    1.35
   6   1  -5   30.28    1.01
   6   1  -5   30.92    1.34
  -6   1   5   29.91    1.26
  -6   1   5   29.67    1.24
  -6   1   5   30.85    1.45
   6   1  -5   31.31    1.42
   6   1  -5   29.07    1.48
   5  -1  -5   21.73    0.85
   5  -1  -5   21.76    0.69
   5  -1  -5   21.83    1.18
  -5  -1   5   20.85    1.26
  -5  -1   5   22.02    1.01
   5  -1  -5   22.80    0.73
   5  -1  -5   22.37    1.13
   5  -1  -5   20.97    1.06
  -5   1   5   21.68    1.19
   5   1  -5   22.10    0.83
   5   1  -5   22.28    1.12
   5   1  -5   20.71    1.05
  -5   1   5   21.70    1.16
  -5   1   5   21.18    0.95
  -5   1   5   21.01    0.98
   4  -1  -5   54.77    1.68
   4  -1  -5   53.58    1.73
   4  -1  -5   54.55    1.45
  -4  -1   5   55.87    1.52
  -4  -1   5   55.26    1.89
   4  -1  -5   55.61    1.60
   4  -1  -5   54.84    1.56
  -4   1   5   53.23    1.60
  -4   1   5   55.18    1.80
   4   1  -5   56.53    1.55
   4   1  -5   55.57    1.88
  -4   1   5   53.59    1.71
  -4   1   5   53.61    1.67
   4   1  -5   56.14    1.72
   3  -1  -5  966.33   22.42
   3  -1  -5  954.90   22.35
  -3  -1   5  954.85   22.47
  -3  -1   5  967.19   22.34
   3  -1  -5  938.48   22.50
   3  -1  -5 1000.00   22.54
  -3  -1   5  955.51   22.64
   3  -1  -5  994.52   22.46
  -3  -1   5  986.76   22.28
   3  -1  -5  976.91   22.38
   3   1  -5  954.48   22.48
  -3   1   5  997.02   22.42
  -3   1   5  968.40   22.50
  -3   1   5  974.22   22.38
  -3   1   5  937.32   22.42
  -3   1   5  985.49   22.34
   3   1  -5  961.25   22.37
  -3   1   5  938.09   22.51
   3   1  -5  985.06   22.53
   3   1  -5  979.21   22.44
  -2  -1   5  271.06    6.48
  -2  -1   5  265.24    6.58
   2  -1  -5  267.42    6.39
  -2  -1   5  274.72    6.41
   2  -1  -5  268.29    6.41
   2  -1  -5  263.02    6.45
  -2  -1   5  263.35    6.35
   2  -1  -5  269.05    6.36
  -2  -1   5  279.41    6.34
   2  -1  -5  276.68    6.49
   2  -1  -5  263.29    6.29
  -2  -1   5  266.14    6.40
  -2  -1   5  267.65    6.29
  -2   1   5  265.67    6.47
  -2   1   5  279.90    6.37
   2   1  -5  261.04    6.38
   2   1  -5  266.67    6.48
  -2   1   5  265.57    6.27
   2   1  -5  281.94    6.34
  -2   1   5  259.84    6.35
   2   1  -5  266.62    6.32
  -2   1   5  278.07    6.35
  -2   1   5  263.23    6.40
   2   1  -5  266.36    6.45
  -2   1   5  262.51    6.48
   2   1  -5  266.05    6.39
  -1  -1   5    0.76    0.33
   1  -1  -5    0.35    0.32
   1  -1  -5    1.21    0.42
   1  -1  -5    1.13    0.44
   1  -1  -5    0.56    0.31
   1  -1  -5    0.78    0.16
   1  -1  -5    0.33    0.22
  -1  -1   5    0.56    0.26
   1  -1  -5    1.02    0.35
  -1  -1   5    0.94    0.34
  -1  -1   5    0.64    0.19
  -1  -1   5    0.54    0.27
  -1  -1   5    0.72    0.28
   1  -1  -5    0.91    0.35
   1  -1  -5    0.60    0.30
  -1  -1   5    0.25    0.43
  -1  -1   5    0.45    0.29
  -1   1   5    0.73    0.42
  -1   1   5    0.47    0.21
  -1   1   5    0.36    0.27
  -1   1   5    0.71    0.35
   1   1  -5    0.70    0.32
  -1   1   5    0.78    0.33
   1   1  -5    0.57    0.31
  -1   1   5    0.34    0.37
   1   1  -5    1.30    0.40
   1   1  -5    0.22    0.25
   1   1  -5    0.22    0.29
  -1   1   5    0.29    0.33
   1   1  -5    0.37    0.20
   0  -1   5   47.53    1.26
   0  -1  -5   46.86    1.33
   0  -1  -5   46.71    1.39
   0  -1  -5   46.87    1.38
   0  -1   5   47.77    1.21
   0  -1  -5   48.61    1.35
   0  -1   5   47.32    1.35
   0  -1   5   48.05    1.33
   0  -1   5   46.86    1.57
   0  -1   5   47.63    1.43
   0  -1   5   49.65    1.42
   0  -1  -5   47.27    1.43
   0  -1   5   48.66    1.35
   0  -1  -5   45.20    1.47
   0   1   5   49.71    1.47
   0   1  -5   51.24    1.24
   0   1   5   47.50    1.19
   0   1   5   48.53    1.40
   0   1   5   47.56    1.25
   0   1  -5   48.19    1.45
   0   1  -5   45.74    1.40
   0   1  -5   50.36    1.36
   0   1  -5   50.32    1.29
   0   1   5   45.24    1.46
   0   1   5   47.30    1.35
   0   1   5   49.36    1.55
   0   1   5   48.97    1.36
   1  -1   5  170.39    4.16
  -1  -1  -5  172.42    4.31
  -1  -1  -5  178.03    4.35
  -1  -1  -5  176.48    4.11
   1  -1   5  171.25    4.40
  -1  -1  -5  171.67    4.16
  -1  -1  -5  171.90    4.19
   1  -1   5  165.38    4.05
   1  -1   5  170.40    4.13
   1   1   5  172.08    4.04
   1   1   5  168.10    4.11
  -1   1  -5  171.65    4.12
  -1   1  -5  170.41    4.01
   1   1   5  171.95    4.25
  -1   1  -5  171.30    4.04
   1   1   5  179.17    4.06
   1   1   5  171.57    4.30
  -1   1  -5  160.35    4.13
  -1   1  -5  163.08    4.24
  -2  -1  -5   14.37    0.48
  -2  -1  -5   13.67    0.83
   2  -1   5   13.59    0.55
   2  -1   5   12.39    0.66
  -2  -1  -5   14.26    0.68
   2  -1   5   12.62    0.53
   2  -1   5   12.79    0.86
  -2   1  -5   14.02    0.58
   2   1   5   13.89    0.64
  -2   1  -5   14.13    0.72
   2   1   5   13.31    0.62
  -2   1  -5   13.01    0.64
   2   1   5   13.49    0.57
  -2   1  -5   12.79    0.78
  -2   1  -5   13.23    0.55
   2   1   5   13.91    0.88
   2   1   5   13.26    0.76
   2   1   5   14.70    0.49
   3  -1   5   46.47    1.54
   3  -1   5   43.39    1.60
   3  -1   5   44.14    1.39
  -3  -1  -5   41.65    1.50
   3  -1   5   43.38    1.24
  -3  -1  -5   43.69    1.29
   3  -1   5   46.06    1.19
   3   1   5   43.38    1.58
  -3   1  -5   45.52    1.43
   3   1   5   43.74    1.34
  -3   1  -5   45.11    1.55
   3   1   5   36.89    1.45
   3   1   5   42.61    1.52
   3   1   5   43.78    1.29
  -3   1  -5   45.44    1.29
   4  -1   5  146.29    4.12
   4  -1   5  158.39    4.48
  -4  -1  -5  160.74    3.78
   4  -1   5  153.88    4.07
  -4  -1  -5  151.26    4.05
   4  -1   5  152.96    3.65
  -4   1  -5  147.51    4.09
   4   1   5  152.63    4.23
   4   1   5  154.92    3.93
   4   1   5  160.47    3.95
   4   1   5  161.77    4.00
  -4   1  -5  155.65    3.83
  -4   1  -5  155.93    3.86
   4   1   5  165.91    4.18
  -5  -1  -5  230.59    5.92
   5  -1   5  247.57    6.05
   5  -1   5  247.66    6.05
   5  -1   5  236.14    5.59
   5  -1   5  244.50    6.14
   5  -1   5  235.35    6.22
  -5  -1  -5  242.39    5.73
  -5  -1  -5  238.51    6.09
   5   1   5  235.00    5.88
  -5   1  -5  240.10    5.69
  -5   1  -5  240.13    6.06
   5   1   5  242.80    6.10
   5   1   5  233.36    5.85
   5   1   5  238.89    5.97
  -5   1  -5  236.73    5.79
  -6  -1  -5   21.18    1.19
   6  -1   5   25.12    0.63
   6  -1   5   23.19    1.34
  -6  -1  -5   22.61    1.39
   6  -1   5   26.83    1.53
  -6  -1  -5   23.10    0.79
   6   1   5   23.44    1.24
   6   1   5   23.35    1.31
  -6   1  -5   27.59    0.85
   6   1   5   23.42    1.43
  -6   1  -5   25.22    1.44
   6   1   5   23.23    1.43
  -6   1  -5   26.85    1.14
  -7  -1  -5    0.63    0.20
  -7  -1  -5    0.43    0.75
  -7  -1  -5    0.56    0.65
   7  -1   5    1.08    0.86
   7  -1   5    0.19    0.73
   7   1   5    0.07    0.73
   7   1   5    0.56    0.64
  -7   1  -5    0.52    0.21
  -7   1  -5    0.13    0.62
   7   1   5    1.92    0.84
  -7   1  -5    0.62    0.79
  -8  -1  -5    5.55    0.96
   8  -1   5    4.71    1.06
   8  -1   5    4.44    0.95
  -8  -1  -5    6.47    1.01
   8   1   5    5.56    1.13
  -8   1  -5    7.49    1.08
   8   1   5    4.86    0.88
  -8   1  -5    6.08    0.88
  -9  -1  -5    0.36    1.43
  -9  -1  -5    0.16    0.94
  -9   1  -5   -0.16    0.93
   9   1   5    0.90    0.92
  -9   1  -5    0.22    0.87
   9   1   5    0.81    1.10
  10  -1   5   31.98    2.72
  10  -1   5   28.50    2.24
 -10  -1  -5   32.09    2.13
 -10  -1  -5   33.07    2.06
 -10   1  -5   31.19    3.44
  10   1   5   34.15    2.66
 -10   1  -5   34.29    1.99
  10   1   5   33.64    2.32
  11  -1   5    5.10    1.74
 -11  -1  -5    6.75    1.29
 -11  -1  -5    6.40    1.31
  11  -1   5    5.41    1.35
 -11   1  -5    7.38    1.40
  11   1   5    3.53    1.79
  11   1   5    7.44    1.56
 -11   1  -5    4.19    1.32
  12  -1   5    7.35    2.11
  12  -1   5    7.11    1.80
 -12  -1  -5    6.80    1.43
  12   1   5    2.13    1.94
  12   1   5    9.34    1.67
 -12   1  -5    8.42    1.63
 -12  -2   5   14.83    1.99
  12  -2  -5   14.78    1.76
  12  -2  -5   14.45    2.19
 -12  -2   5   11.36    2.34
  12  -2  -5   12.70    1.77
 -12   2   5   11.08    1.86
  12   2  -5   14.95    1.87
 -12   2   5   10.60    1.64
 -12   2   5   11.97    1.50
 -12   2   5   19.87    3.00
  12   2  -5   14.47    2.15
  11  -2  -5   23.52    2.13
  11  -2  -5   20.18    2.64
 -11  -2   5   20.34    2.69
  11  -2  -5   24.12    2.27
 -11  -2   5   23.81    2.00
  11   2  -5   24.72    2.35
  11   2  -5   26.79    2.48
 -11   2   5   22.70    1.89
 -11   2   5   22.42    2.04
 -11   2   5   24.75    2.74
 -11   2   5   21.25    2.46
  10  -2  -5    9.58    1.54
  10  -2  -5   12.63    1.37
 -10  -2   5   13.04    1.86
  10  -2  -5   10.17    1.34
 -10  -2   5   12.40    1.36
  10   2  -5    9.14    1.26
 -10   2   5   13.04    1.39
 -10   2   5   10.90    1.63
 -10   2   5   13.22    1.57
  10   2  -5   11.89    1.64
 -10   2   5    9.05    1.13
   9  -2  -5   18.24    1.57
  -9  -2   5   18.71    1.47
  -9  -2   5   18.55    2.05
   9  -2  -5   18.92    1.96
   9  -2  -5   18.21    1.63
  -9   2   5   18.34    1.54
   9   2  -5   19.40    2.04
  -9   2   5   15.54    1.37
   9   2  -5   17.63    1.58
  -9   2   5   17.25    1.91
  -9   2   5   15.90    1.77
  -8  -2   5   39.61    1.72
   8  -2  -5   41.42    1.85
   8  -2  -5   41.90    1.86
  -8  -2   5   39.32    2.22
   8  -2  -5   38.67    1.25
   8  -2  -5   38.72    2.08
  -8   2   5   38.64    1.75
  -8   2   5   40.38    2.01
   8   2  -5   38.37    1.92
  -8   2   5   38.20    1.68
   8   2  -5   40.96    2.02
   8   2  -5   39.55    1.19
  -8   2   5   36.89    2.01
  -7  -2   5   99.59    2.86
   7  -2  -5   97.04    3.07
   7  -2  -5   97.24    2.93
   7  -2  -5   92.68    2.63
   7  -2  -5   98.91    2.51
  -7  -2   5  100.53    3.29
   7  -2  -5   96.86    2.95
  -7   2   5   97.59    2.99
   7   2  -5   99.90    3.02
   7   2  -5  102.26    2.54
  -7   2   5   97.15    2.88
  -7   2   5   94.47    2.80
   7   2  -5   98.24    3.21
  -7   2   5   94.70    3.04
   6  -2  -5   90.15    2.73
   6  -2  -5   85.48    2.66
  -6  -2   5   86.01    2.89
   6  -2  -5   91.96    2.59
   6  -2  -5   89.24    2.33
   6  -2  -5   87.10    2.53
   6  -2  -5   88.82    2.37
  -6  -2   5   92.25    2.57
   6   2  -5   89.87    2.32
  -6   2   5   84.72    2.75
  -6   2   5   86.83    2.54
   6   2  -5   88.31    2.83
   6   2  -5   88.82    2.69
  -6   2   5   86.81    2.51
  -6   2   5   85.70    2.63
   5  -2  -5   81.93    2.12
   5  -2  -5   76.82    2.06
  -5  -2   5   73.80    2.48
  -5  -2   5   74.87    2.18
   5  -2  -5   76.64    2.31
   5  -2  -5   77.16    2.34
   5   2  -5   77.34    2.04
  -5   2   5   74.58    2.20
   5   2  -5   72.77    2.29
   5   2  -5   74.53    2.38
  -5   2   5   72.96    2.13
  -5   2   5   74.24    2.33
  -5   2   5   75.67    2.20
   4  -2  -5  163.13    3.98
  -4  -2   5  158.77    3.79
   4  -2  -5  163.04    4.05
   4  -2  -5  162.61    4.15
   4  -2  -5  160.56    3.96
  -4  -2   5  155.08    4.30
  -4   2   5  155.01    3.89
   4   2  -5  145.81    3.91
  -4   2   5  155.30    3.85
   4   2  -5  148.54    4.04
  -4   2   5  154.59    3.88
   4   2  -5  151.98    3.78
  -4   2   5  153.07    4.02
   3  -2  -5   49.42    1.37
   3  -2  -5   49.93    1.51
   3  -2  -5   49.09    1.47
  -3  -2   5   50.80    1.35
   3  -2  -5   51.27    1.46
  -3  -2   5   48.65    1.77
  -3  -2   5   49.79    1.41
   3  -2  -5   50.57    1.64
   3   2  -5   49.60    1.73
   3   2  -5   49.65    1.47
   3   2  -5   48.48    1.65
  -3   2   5   49.44    1.69
  -3   2   5   49.23    1.51
  -3   2   5   49.74    1.56
  -3   2   5   52.13    1.48
   3   2  -5   50.39    1.42
  -3   2   5   50.19    1.51
  -2  -2   5   30.21    1.24
  -2  -2   5   32.72    0.95
   2  -2  -5   31.36    1.14
  -2  -2   5   32.74    1.00
   2  -2  -5   32.37    1.07
   2  -2  -5   29.97    0.94
  -2  -2   5   31.57    0.98
  -2  -2   5   32.17    0.86
   2  -2  -5   30.90    1.09
   2  -2  -5   31.78    0.88
   2   2  -5   33.70    1.10
   2   2  -5   32.98    0.96
   2   2  -5   32.43    1.15
  -2   2   5   27.85    1.23
   2   2  -5   32.54    1.03
  -2   2   5   31.87    1.09
   2   2  -5   29.77    1.19
  -2   2   5   32.64    0.96
  -2   2   5   28.83    1.31
  -2   2   5   31.13    1.08
  -1  -2   5  387.18    9.17
  -1  -2   5  418.15    9.33
  -1  -2   5  393.03    9.49
  -1  -2   5  389.17    9.19
  -1  -2   5  387.02    9.10
   1  -2  -5  392.68    9.38
   1  -2  -5  397.72    9.34
   1  -2  -5  410.90    9.34
   1  -2  -5  383.40    9.10
   1   2  -5  399.71    9.21
   1   2  -5  407.49    9.37
  -1   2   5  386.19    9.46
  -1   2   5  404.12    9.14
   1   2  -5  385.60    9.36
  -1   2   5  392.32    9.37
  -1   2   5  400.49    9.34
  -1   2   5  399.32    9.38
   0  -2  -5  259.55    6.15
   0  -2  -5  258.82    6.26
   0  -2   5  258.50    6.35
   0  -2   5  250.90    5.98
   0  -2   5  256.80    6.02
   0  -2  -5  266.82    6.22
   0  -2   5  252.62    5.93
   0   2   5  261.62    6.34
   0   2  -5  263.86    6.35
   0   2   5  255.39    6.30
   0   2   5  264.22    6.41
   0   2  -5  270.73    6.15
   0   2  -5  259.06    6.30
   0   2   5  260.98    6.27
   0   2  -5  260.99    6.10
   0   2   5  268.80    6.26
   1  -2   5   61.26    1.58
   1  -2   5   59.45    1.92
  -1  -2  -5   61.50    1.85
  -1  -2  -5   61.38    1.64
  -1  -2  -5   62.79    1.84
   1   2   5   60.47    1.42
   1   2   5   63.30    1.61
   1   2   5   59.16    1.40
  -1   2  -5   60.03    1.45
   1   2   5   59.06    1.79
  -1   2  -5   58.02    1.69
  -1   2  -5   59.50    1.54
   1   2   5   59.97    1.84
  -1   2  -5   59.05    1.46
   1   2   5   58.84    1.67
  -1   2  -5   58.26    1.79
   2  -2   5   54.11    1.51
   2  -2   5   49.71    1.86
  -2  -2  -5   52.16    1.73
  -2  -2  -5   54.63    1.41
   2  -2   5   55.26    1.46
  -2   2  -5   54.32    1.38
  -2   2  -5   56.30    1.39
  -2   2  -5   55.57    1.50
   2   2   5   52.70    1.74
   2   2   5   54.34    1.42
  -2   2  -5   52.88    1.57
  -2   2  -5   53.18    1.76
   2   2   5   55.79    1.42
   2   2   5   52.21    1.76
  -2   2  -5   56.00    1.38
   2   2   5   53.16    1.59
   2   2   5   54.56    1.43
   3  -2   5   35.86    1.51
  -3  -2  -5   36.36    0.96
   3  -2   5   37.39    1.15
   3  -2   5   36.25    1.43
  -3  -2  -5   35.79    1.12
   3  -2   5   35.87    1.10
  -3  -2  -5   32.74    1.35
   3   2   5   34.10    1.47
  -3   2  -5   38.49    1.21
  -3   2  -5   37.73    1.18
  -3   2  -5   36.42    1.03
  -3   2  -5   38.48    1.06
   3   2   5   35.55    1.14
   3   2   5   36.06    1.12
  -3   2  -5   37.09    1.45
   3   2   5   34.43    1.20
   3   2   5   33.55    1.37
  -4  -2  -5   75.04    2.37
   4  -2   5   79.52    2.48
   4  -2   5   77.92    2.01
   4  -2   5   76.03    2.46
   4   2   5   76.16    2.40
   4   2   5   78.57    2.18
   4   2   5   81.13    2.15
  -4   2  -5   77.10    2.39
  -4   2  -5   78.42    2.03
  -4   2  -5   79.30    2.11
   4   2   5   77.00    2.22
   5  -2   5   48.15    1.35
  -5  -2  -5   48.25    1.83
  -5  -2  -5   47.44    1.39
   5  -2   5   47.09    1.95
   5  -2   5   46.41    1.95
  -5   2  -5   50.76    1.47
   5   2   5   51.06    1.74
   5   2   5   51.24    1.95
  -5   2  -5   49.60    1.47
   5   2   5   48.17    1.69
  -5   2  -5   48.71    1.84
   5   2   5   51.86    1.68
  -6  -2  -5   65.80    1.78
   6  -2   5   64.39    2.38
  -6  -2  -5   63.43    2.28
   6  -2   5   67.59    1.76
  -6  -2  -5   63.64    2.14
   6  -2   5   69.24    2.35
  -6   2  -5   69.23    1.84
   6   2   5   67.07    2.26
   6   2   5   66.77    2.47
  -6   2  -5   66.82    2.35
   6   2   5   65.68    2.18
   6   2   5   67.23    2.16
  -6   2  -5   67.53    1.99
   7  -2   5   39.72    1.15
   7  -2   5   39.52    1.89
  -7  -2  -5   38.37    1.84
  -7  -2  -5   38.80    1.12
   7  -2   5   38.21    2.03
  -7  -2  -5   38.96    1.71
  -7   2  -5   39.84    1.20
  -7   2  -5   40.77    1.57
   7   2   5   42.55    2.05
   7   2   5   42.71    1.81
  -7   2  -5   39.15    1.90
   7   2   5   40.01    1.70
   7   2   5   42.13    1.94
   8  -2   5    9.07    1.14
  -8  -2  -5    7.47    1.06
   8  -2   5    5.95    1.23
  -8  -2  -5    6.38    0.95
  -8   2  -5    7.86    1.14
   8   2   5    5.29    1.08
   8   2   5    6.68    1.00
  -8   2  -5    8.41    0.90
   8   2   5    7.76    1.17
   9  -2   5   32.87    2.39
   9  -2   5   29.44    2.12
  -9  -2  -5   27.97    1.82
   9   2   5   33.44    2.42
  -9   2  -5   31.30    1.98
   9   2   5   34.49    2.10
  -9   2  -5   32.43    1.72
  10  -2   5   -1.09    1.44
 -10  -2  -5    0.74    1.05
  10  -2   5    1.32    1.17
  10   2   5   -1.84    1.37
 -10   2  -5   -0.04    1.16
  10   2   5    0.03    1.11
 -11  -2  -5    7.49    1.52
  11  -2   5    6.89    1.64
  11  -2   5    6.48    1.84
  11   2   5    7.20    1.61
 -11   2  -5    8.20    1.52
 -11   2  -5    9.68    1.50
  11   2   5    6.17    1.85
  12   2   5    0.35    1.43
  12   2   5    4.47    1.95
  12  -3  -5   30.02    2.67
  12  -3  -5   24.44    3.23
 -12  -3   5   25.29    2.13
 -12  -3   5   29.88    3.10
  12  -3  -5   29.51    2.62
 -12   3   5   31.95    2.15
  12   3  -5   23.56    2.58
  12   3  -5   30.39    3.05
 -12   3   5   33.16    2.46
 -12   3   5   22.31    2.92
  11  -3  -5   11.13    1.87
 -11  -3   5    8.62    1.37
  11  -3  -5    7.06    1.50
  11  -3  -5    8.09    1.37
 -11  -3   5   11.80    2.17
 -11   3   5    7.17    1.72
  11   3  -5   11.38    2.06
  11   3  -5    8.07    1.49
 -11   3   5    9.17    1.31
 -11   3   5   10.29    1.59
 -10  -3   5    8.49    1.18
  10  -3  -5    6.06    1.50
  10  -3  -5    7.64    1.25
 -10  -3   5    8.37    1.67
  10  -3  -5    7.85    1.35
 -10   3   5    8.18    1.39
  10   3  -5    7.14    1.29
 -10   3   5    7.75    1.54
  10   3  -5    5.82    1.57
 -10   3   5    6.67    1.07
 -10   3   5    5.64    1.49
   9  -3  -5    4.77    1.04
   9  -3  -5    6.09    1.17
   9  -3  -5    4.87    1.04
  -9  -3   5    5.99    1.20
  -9  -3   5    7.36    1.43
  -9   3   5    6.60    1.58
   9   3  -5    6.49    1.46
  -9   3   5    3.84    2.05
  -9   3   5    7.05    1.29
  -9   3   5    6.48    1.05
   9   3  -5    3.79    1.11
  -8  -3   5   48.53    2.48
  -8  -3   5   48.94    1.92
   8  -3  -5   46.18    2.10
   8  -3  -5   46.55    2.28
   8  -3  -5   47.60    2.03
   8  -3  -5   48.65    1.66
  -8   3   5   46.93    2.28
  -8   3   5   48.05    1.98
  -8   3   5   47.69    1.92
   8   3  -5   48.65    2.43
  -8   3   5   48.65    2.12
   8   3  -5   47.28    2.17
   8   3  -5   47.34    1.85
   7  -3  -5   14.73    1.31
  -7  -3   5   11.96    1.13
   7  -3  -5   14.14    1.49
  -7  -3   5   12.29    1.55
   7  -3  -5   16.24    1.39
   7   3  -5   12.17    1.35
   7   3  -5   12.20    0.95
  -7   3   5   12.67    1.12
   7   3  -5   12.44    1.59
  -7   3   5   11.51    1.21
  -7   3   5   12.11    1.39
  -7   3   5   15.34    1.24
   6  -3  -5   20.73    1.20
  -6  -3   5   20.31    1.15
  -6  -3   5   20.79    0.57
  -6  -3   5   19.92    1.58
  -6  -3   5   20.71    0.62
   6  -3  -5   21.33    1.39
   6  -3  -5   21.22    1.34
   6   3  -5   20.47    1.05
  -6   3   5   18.57    1.17
  -6   3   5   20.02    1.44
  -6   3   5   18.95    1.13
  -6   3   5   19.95    1.24
   6   3  -5   20.29    1.46
   6   3  -5   21.07    1.42
  -5  -3   5  108.20    3.36
  -5  -3   5  113.93    2.73
  -5  -3   5  110.59    2.97
   5  -3  -5  113.26    3.02
   5  -3  -5  114.94    3.10
  -5  -3   5  109.22    2.72
   5  -3  -5  106.58    3.16
  -5   3   5  109.64    3.20
  -5   3   5  108.57    3.02
   5   3  -5  109.93    3.15
  -5   3   5  106.67    2.89
  -5   3   5  109.43    2.98
   5   3  -5  107.51    3.27
   5   3  -5  109.46    2.88
  -4  -3   5   53.28    2.03
   4  -3  -5   55.29    1.88
   4  -3  -5   54.04    1.69
   4  -3  -5   55.63    1.59
  -4  -3   5   54.51    1.51
   4  -3  -5   54.20    1.66
  -4   3   5   53.29    1.87
  -4   3   5   53.06    1.57
   4   3  -5   54.88    1.87
   4   3  -5   54.82    1.65
  -4   3   5   51.69    1.73
   4   3  -5   52.16    1.92
  -4   3   5   51.63    1.64
   3  -3  -5   13.88    0.97
  -3  -3   5   11.82    0.58
   3  -3  -5   13.16    0.67
  -3  -3   5   13.39    1.08
   3  -3  -5   12.47    0.84
  -3  -3   5   11.98    0.49
  -3  -3   5   13.60    0.66
   3  -3  -5   14.21    0.61
  -3  -3   5   13.00    0.66
   3   3  -5   12.43    0.83
  -3   3   5   12.26    0.93
   3   3  -5   12.97    1.12
  -3   3   5   11.89    0.73
  -3   3   5   13.76    0.82
  -3   3   5   13.63    0.88
   3   3  -5   13.97    1.02
  -3   3   5   13.02    0.66
   3   3  -5   13.40    0.63
  -2  -3   5   91.88    2.75
  -2  -3   5   93.25    2.35
   2  -3  -5   94.74    2.61
  -2  -3   5   95.12    2.36
   2  -3  -5   95.51    2.34
   2  -3  -5   96.55    2.31
  -2  -3   5   94.49    2.51
   2  -3  -5   91.21    3.21
  -2  -3   5   93.47    2.25
  -2  -3   5   95.00    2.34
   2  -3  -5   96.54    2.42
  -2  -3   5   96.68    2.35
  -2   3   5   92.43    2.48
  -2   3   5   94.47    2.66
   2   3  -5   89.17    2.67
  -2   3   5   91.97    2.51
   2   3  -5   95.48    2.33
   2   3  -5   94.70    2.54
  -2   3   5   94.52    2.40
   2   3  -5   91.05    2.58
  -1  -3   5   57.75    1.41
   1  -3  -5   57.92    1.58
   1  -3  -5   51.57    1.78
  -1  -3   5   56.61    1.38
  -1  -3   5   56.55    1.38
   1   3  -5   58.84    1.42
  -1   3   5   56.66    1.72
   1   3  -5   55.79    1.69
  -1   3   5   56.15    1.65
  -1   3   5   56.39    1.59
   1   3  -5   54.08    1.70
  -1   3   5   58.03    1.84
   0  -3  -5  246.82    5.78
   0  -3  -5  238.57    5.78
   0  -3  -5  241.33    5.93
   0  -3   5  228.00    5.98
   0   3  -5  230.17    5.66
   0   3   5  241.76    5.64
   0   3   5  233.87    5.66
   0   3   5  241.28    5.81
   0   3   5  235.43    5.62
   0   3  -5  209.22    5.88
  -1  -3  -5   89.09    2.40
  -1  -3  -5   89.53    2.28
   1  -3   5   80.88    2.66
  -1  -3  -5   86.34    2.51
  -1   3  -5   85.42    2.51
   1   3   5   88.88    2.30
   1   3   5   85.29    2.50
   1   3   5   88.36    2.36
  -1   3  -5   85.33    2.38
   1   3   5   87.65    2.39
  -2  -3  -5   35.55    1.46
   2  -3   5   34.89    1.23
  -2  -3  -5   35.12    1.08
   2  -3   5   33.96    1.47
  -2  -3  -5   34.99    0.95
   2   3   5   37.07    1.10
   2   3   5   34.94    0.98
   2   3   5   36.17    1.47
  -2   3  -5   34.73    0.99
   2   3   5   35.02    1.24
   2   3   5   35.12    0.94
  -2   3  -5   32.76    1.23
  -2   3  -5   34.98    0.92
   3  -3   5   61.59    2.08
   3  -3   5   59.58    2.17
   3  -3   5   60.38    1.78
  -3  -3  -5   62.21    2.06
  -3  -3  -5   63.93    1.68
  -3  -3  -5   60.11    1.61
  -3   3  -5   60.91    1.53
   3   3   5   61.57    1.67
   3   3   5   61.04    2.10
  -3   3  -5   63.43    1.70
  -3   3  -5   63.03    1.83
   3   3   5   60.41    1.86
  -3   3  -5   63.20    1.60
  -3   3  -5   60.18    2.04
  -3   3  -5   60.59    1.52
   3   3   5   62.90    1.68
   4  -3   5    0.85    0.74
   4  -3   5    0.84    0.69
  -4  -3  -5    0.49    0.63
   4  -3   5    0.78    0.38
  -4  -3  -5    0.89    0.37
  -4  -3  -5    0.51    0.22
  -4   3  -5    0.05    0.69
   4   3   5    1.06    0.66
   4   3   5    0.55    0.34
  -4   3  -5    1.10    0.42
   4   3   5    0.94    0.32
   4   3   5    0.85    0.52
  -4   3  -5    0.52    0.42
  -4   3  -5    0.86    0.25
   5  -3   5    7.18    1.13
   5  -3   5    7.71    1.05
  -5  -3  -5    5.13    0.88
  -5  -3  -5    5.96    0.28
   5  -3   5    7.47    0.90
  -5  -3  -5    6.82    0.27
   5   3   5    7.72    1.01
   5   3   5    8.23    0.99
  -5   3  -5    7.01    0.51
   5   3   5    7.34    0.87
  -5   3  -5    5.44    0.88
  -5   3  -5    7.17    0.76
  -6  -3  -5   54.11    1.64
  -6  -3  -5   51.64    1.90
  -6  -3  -5   53.13    2.13
   6  -3   5   54.46    2.37
   6   3   5   51.08    1.87
   6   3   5   50.71    1.86
   6   3   5   53.61    1.97
  -6   3  -5   52.53    1.63
  -6   3  -5   50.88    2.07
  -6   3  -5   54.29    1.64
   6   3   5   52.44    2.20
   7  -3   5   47.98    2.18
  -7  -3  -5   47.30    2.05
  -7  -3  -5   40.58    1.67
  -7  -3  -5   46.73    1.84
   7  -3   5   50.41    1.87
   7  -3   5   45.49    2.34
   7   3   5   49.33    1.90
   7   3   5   48.27    2.27
   7   3   5   48.78    2.10
  -7   3  -5   46.88    1.53
  -7   3  -5   47.47    2.17
  -7   3  -5   46.81    1.67
  -8  -3  -5   43.13    2.07
   8   3   5   47.17    2.16
  -8   3  -5   42.79    1.82
   8   3   5   45.01    2.32
  -8   3  -5   44.84    2.20
  -9  -3  -5   17.43    1.84
   9  -3   5   22.31    2.39
   9  -3   5   15.35    2.03
  -9  -3  -5   17.69    1.68
  -9   3  -5   19.56    1.96
   9   3   5   20.76    2.02
  -9   3  -5   19.00    1.61
   9   3   5   19.71    2.23
 -10  -3  -5   29.51    2.14
  10  -3   5   30.86    2.90
  10  -3   5   30.78    2.58
 -10  -3  -5   33.74    2.19
  10   3   5   33.46    2.79
  10   3   5   33.68    2.58
 -10   3  -5   33.18    2.38
 -11  -3  -5   -0.73    1.32
  11  -3   5   -0.13    1.77
  11  -3   5    0.73    1.47
  11   3   5   -1.21    1.72
  11   3   5    2.44    1.55
 -11   3  -5    3.63    1.45
  12  -4  -5   -0.42    1.62
  12  -4  -5   -1.41    1.80
  12  -4  -5    2.54    1.32
 -12   4   5    2.35    1.42
 -11  -4   5   12.78    2.24
  11  -4  -5   10.89    1.54
  11  -4  -5   10.81    1.68
  11  -4  -5    9.12    1.93
 -11  -4   5   13.95    1.57
 -11   4   5   10.83    1.84
 -11   4   5   12.30    1.66
 -11   4   5   13.68    1.58
  11   4  -5   12.91    1.81
  11   4  -5    7.39    1.96
 -10  -4   5   24.72    2.62
  10  -4  -5   23.15    2.20
 -10  -4   5   20.56    1.80
  10  -4  -5   20.39    2.36
  10  -4  -5   21.20    2.13
 -10   4   5   16.55    1.93
  10   4  -5   20.41    2.70
 -10   4   5   22.96    2.41
  10   4  -5   22.30    2.28
 -10   4   5   18.13    1.85
  -9  -4   5   44.57    2.71
   9  -4  -5   44.46    2.60
   9  -4  -5   47.16    2.38
  -9  -4   5   45.80    2.07
   9  -4  -5   46.15    2.28
   9   4  -5   45.88    2.47
  -9   4   5   46.16    2.51
  -9   4   5   44.17    2.21
   9   4  -5   46.04    2.71
  -9   4   5   44.93    2.08
  -8  -4   5   19.82    1.37
  -8  -4   5   19.26    1.85
   8  -4  -5   18.56    1.75
   8  -4  -5   20.39    1.60
   8  -4  -5   18.35    1.74
   8   4  -5   18.71    2.52
  -8   4   5   18.41    1.44
   8   4  -5   17.72    1.24
  -8   4   5   17.81    1.47
  -8   4   5   19.62    1.54
   8   4  -5   16.11    2.11
  -8   4   5   18.59    1.88
   7  -4  -5    7.95    1.10
  -7  -4   5    9.23    1.41
   7  -4  -5    6.97    0.90
  -7  -4   5    9.76    1.12
   7  -4  -5    7.53    1.06
   7   4  -5   10.57    1.50
   7   4  -5   10.67    1.10
  -7   4   5    6.98    0.95
  -7   4   5    9.94    1.03
   7   4  -5    5.85    1.15
  -7   4   5    9.12    1.21
  -6  -4   5   38.70    1.16
  -6  -4   5   37.93    1.49
   6  -4  -5   37.15    1.80
   6  -4  -5   37.56    1.75
   6  -4  -5   36.54    1.59
  -6  -4   5   35.55    2.04
   6   4  -5   33.29    1.81
  -6   4   5   36.47    1.88
  -6   4   5   34.69    1.54
   6   4  -5   34.48    1.44
  -6   4   5   35.88    1.59
   6   4  -5   32.01    1.82
  -6   4   5   35.53    1.25
   5  -4  -5   51.85    2.02
  -5  -4   5   52.29    1.67
  -5  -4   5   49.92    1.51
  -5  -4   5   50.96    2.22
   5  -4  -5   53.40    1.88
   5  -4  -5   54.71    1.74
  -5   4   5   52.20    1.81
  -5   4   5   53.05    2.08
   5   4  -5   49.73    2.09
  -5   4   5   52.00    1.50
   5   4  -5   49.04    1.72
  -5   4   5   52.58    1.85
   5   4  -5   48.88    2.01
   4  -4  -5  104.84    3.03
   4  -4  -5  105.92    2.71
  -4  -4   5  100.46    2.71
   4  -4  -5  106.51    2.79
  -4  -4   5   97.60    3.16
   4   4  -5   99.48    2.81
   4   4  -5  101.70    3.03
  -4   4   5  103.34    3.07
  -4   4   5  102.15    2.55
  -4   4   5  104.33    2.89
  -4   4   5  103.12    2.84
   4   4  -5   99.78    3.11
  -3  -4   5   91.38    2.35
   3  -4  -5   92.77    2.35
  -3  -4   5   90.00    2.82
   3  -4  -5   89.55    2.67
   3  -4  -5   89.18    2.67
   3  -4  -5   91.57    2.40
  -3  -4   5   90.30    2.33
  -3  -4   5   90.81    2.23
  -3   4   5   86.14    2.46
  -3   4   5   87.14    2.65
   3   4  -5   89.24    2.51
   3   4  -5   86.70    2.64
  -3   4   5   86.72    2.46
   3   4  -5   85.81    2.72
  -3   4   5   88.71    2.17
  -2  -4   5   38.04    1.05
   2  -4  -5   41.21    1.14
  -2  -4   5   39.64    1.63
   2  -4  -5   40.29    1.08
  -2  -4   5   39.28    1.05
   2  -4  -5   38.53    1.57
   2  -4  -5   38.09    1.10
   2  -4  -5   39.48    1.52
  -2  -4   5   38.48    0.97
  -2  -4   5   38.59    1.08
  -2   4   5   37.73    1.37
  -2   4   5   38.07    1.56
  -2   4   5   37.77    1.05
   2   4  -5   36.89    1.37
  -2   4   5   37.56    1.39
   1  -4  -5   36.49    1.39
  -1  -4   5   37.45    0.94
   1  -4  -5   37.07    0.95
   1  -4  -5   37.57    0.97
   1  -4  -5   36.68    0.95
   1  -4  -5   37.32    1.10
  -1  -4   5   35.34    1.51
   1  -4  -5   36.26    1.55
  -1   4   5   39.11    1.55
   1   4  -5   36.87    1.40
  -1   4   5   34.88    1.29
  -1   4   5   37.06    1.37
   0  -4  -5   28.42    0.99
   0  -4  -5   27.59    0.73
   0  -4   5   26.90    1.32
   0  -4  -5   27.27    1.15
   0  -4  -5   26.68    1.28
   0   4  -5   25.69    1.18
   0   4   5   26.61    1.33
   0   4   5   26.53    1.11
   0   4  -5   25.24    1.26
  -1  -4  -5   74.16    1.73
  -1  -4  -5   71.85    2.24
   1  -4   5   66.56    2.24
   1  -4   5   65.18    2.10
  -1  -4  -5   70.80    2.02
  -1  -4  -5   70.20    2.04
  -1   4  -5   64.33    2.02
   1   4   5   69.25    2.19
  -1   4  -5   63.62    2.16
   1   4   5   66.80    1.97
   2  -4   5  344.85    8.59
  -2  -4  -5  369.39    8.27
  -2  -4  -5  352.24    8.76
   2  -4   5  352.50    8.72
  -2  -4  -5  352.31    8.47
  -2  -4  -5  365.77    8.32
   2   4   5  347.54    8.35
  -2   4  -5  345.56    8.36
   2   4   5  342.65    8.10
  -2   4  -5  342.48    8.54
  -2   4  -5  351.76    7.98
  -2   4  -5  338.62    7.97
   2   4   5  359.19    8.56
  -3  -4  -5    9.87    0.59
  -3  -4  -5    8.17    0.64
  -3  -4  -5    8.74    0.60
   3  -4   5   11.14    0.89
  -3  -4  -5    8.93    1.05
   3  -4   5   11.21    1.11
  -3   4  -5   11.13    0.47
  -3   4  -5   10.51    1.08
  -3   4  -5   11.46    0.93
   3   4   5   10.42    0.60
   3   4   5    9.23    1.18
   3   4   5    9.25    0.58
  -3   4  -5   11.70    0.52
  -3   4  -5   11.56    0.57
   3   4   5   10.11    0.93
  -4  -4  -5   19.46    0.78
  -4  -4  -5   19.29    0.94
   4  -4   5   22.66    1.39
   4  -4   5   23.69    1.16
   4  -4   5   23.49    1.63
  -4  -4  -5   21.26    1.43
   4   4   5   19.24    1.14
  -4   4  -5   20.78    1.35
   4   4   5   20.53    0.89
   4   4   5   22.07    1.49
  -4   4  -5   21.80    0.89
  -4   4  -5   20.05    1.10
  -4   4  -5   21.21    0.74
  -4   4  -5   20.42    0.71
  -4   4  -5   20.59    0.61
   4   4   5   20.30    0.89
  -5  -4  -5    3.16    0.40
   5  -4   5    5.15    1.00
   5  -4   5    3.45    0.91
   5  -4   5    4.53    0.69
  -5  -4  -5    4.51    0.96
  -5   4  -5    4.06    0.43
   5   4   5    3.63    0.73
  -5   4  -5    4.63    0.91
   5   4   5    3.64    1.15
   5   4   5    4.62    1.02
   5   4   5    3.22    0.59
  -5   4  -5    3.93    0.62
   6  -4   5    6.99    0.80
  -6  -4  -5    4.23    0.81
   6  -4   5    6.34    1.16
  -6  -4  -5    6.95    1.11
   6   4   5    6.65    0.82
   6   4   5    5.93    1.04
  -6   4  -5    6.42    0.69
  -6   4  -5    8.26    1.15
   6   4   5    6.48    0.86
  -6   4  -5    8.23    0.57
   6   4   5    6.30    0.87
   7  -4   5    9.31    1.15
  -7  -4  -5   11.34    1.50
  -7  -4  -5    9.93    1.13
   7  -4   5    8.70    1.32
   7   4   5   11.05    1.18
  -7   4  -5   10.21    1.02
   7   4   5   10.03    1.30
  -7   4  -5   12.27    0.96
  -7   4  -5    7.70    1.23
   7   4   5    8.11    0.98
   7   4   5   11.37    1.45
  -8  -4  -5    7.53    1.08
  -8  -4  -5   10.88    1.30
   8  -4   5    7.37    1.41
   8  -4   5    5.99    1.29
  -8   4  -5    7.41    1.49
   8   4   5    8.88    1.17
   8   4   5    9.38    1.46
   8   4   5    6.54    1.28
   8   4   5    8.03    1.14
  -9  -4  -5   23.90    1.87
   9  -4   5   18.58    2.14
  -9  -4  -5   19.28    1.97
   9  -4   5   24.62    2.56
  -9   4  -5   22.37    2.15
   9   4   5   18.86    2.47
   9   4   5   21.64    2.38
  10  -4   5   -0.04    1.61
  10  -4   5   -0.73    1.38
 -10  -4  -5    0.77    1.16
 -10  -4  -5   -1.09    1.30
 -10   4  -5    1.03    1.43
  10   4   5    1.82    1.37
  10   4   5   -2.31    1.55
  11   4   5   21.42    2.71
 -11   4  -5   23.01    2.63
 -11  -5   5    6.09    2.00
 -11  -5   5    9.31    1.52
  11  -5  -5    7.95    1.84
  11  -5  -5    6.31    1.66
  11  -5  -5    6.82    1.52
 -11   5   5    6.25    1.34
 -11   5   5    7.11    1.99
  11   5  -5    4.44    1.55
  11   5  -5   11.33    1.92
 -11   5   5    7.36    1.72
  10  -5  -5    6.73    1.61
 -10  -5   5    6.90    1.33
  10  -5  -5    7.24    1.65
 -10  -5   5    3.14    1.84
  10  -5  -5    7.98    1.37
 -10   5   5    5.60    1.39
  10   5  -5   10.03    1.92
 -10   5   5    5.81    1.71
 -10   5   5    7.69    1.57
  10   5  -5    6.20    1.61
  -9  -5   5   16.23    2.43
   9  -5  -5   19.51    2.10
   9  -5  -5   16.75    2.07
  -9  -5   5   16.55    1.59
   9  -5  -5   17.20    2.10
  -9   5   5   14.56    1.75
  -9   5   5   18.13    1.79
  -9   5   5   19.02    1.92
   9   5  -5   17.07    2.25
   9   5  -5   21.82    2.57
  -8  -5   5   10.44    1.60
   8  -5  -5   11.78    1.66
   8  -5  -5   10.38    1.46
   8  -5  -5   11.28    1.43
  -8  -5   5   11.09    1.40
   8   5  -5    9.05    1.30
  -8   5   5   11.46    1.20
  -8   5   5   10.73    1.64
   8   5  -5    9.99    1.32
  -8   5   5   10.87    1.76
   8   5  -5    8.07    1.56
   7  -5  -5   16.90    1.71
   7  -5  -5   12.95    1.46
   7  -5  -5   14.98    1.69
  -7  -5   5   15.86    1.24
  -7  -5   5   16.49    1.90
  -7   5   5   17.09    1.48
   7   5  -5   12.24    1.43
  -7   5   5   14.18    1.89
  -7   5   5   14.05    1.46
   7   5  -5   13.73    1.43
   7   5  -5   14.18    1.96
  -6  -5   5   12.49    1.68
  -6  -5   5   10.35    1.05
   6  -5  -5   11.47    1.49
   6  -5  -5   12.08    1.41
   6  -5  -5   12.76    1.18
   6   5  -5   11.16    1.54
  -6   5   5   10.21    1.22
   6   5  -5   12.67    1.29
   6   5  -5    8.83    1.26
  -6   5   5   11.35    1.25
  -6   5   5   11.74    1.54
  -5  -5   5   20.16    1.67
   5  -5  -5   18.92    1.31
   5  -5  -5   20.03    1.19
   5  -5  -5   22.46    1.52
  -5  -5   5   19.42    1.04
   5   5  -5   19.76    1.44
   5   5  -5   21.20    1.41
  -5   5   5   18.91    1.32
   5   5  -5   21.84    1.78
  -5   5   5   18.30    1.32
  -5   5   5   18.69    1.59
   4  -5  -5   24.85    1.77
   4  -5  -5   28.63    1.57
  -4  -5   5   30.33    1.75
   4  -5  -5   26.61    1.74
  -4  -5   5   28.70    1.09
   4   5  -5   29.03    1.85
   4   5  -5   28.98    1.67
   4   5  -5   28.02    1.44
  -4   5   5   28.86    1.62
  -4   5   5   28.32    1.41
  -4   5   5   25.30    1.33
   3  -5  -5    4.75    0.63
  -3  -5   5    6.62    0.44
   3  -5  -5    4.90    0.82
  -3  -5   5    6.15    0.50
  -3  -5   5    7.50    1.07
   3  -5  -5    6.25    0.99
  -3  -5   5    6.26    0.38
   3  -5  -5    4.92    0.58
  -3   5   5    5.11    0.85
  -3   5   5    5.56    0.73
   3   5  -5    5.81    0.74
  -3   5   5    7.45    0.85
  -2  -5   5    3.28    0.20
  -2  -5   5    3.52    0.86
  -2  -5   5    3.62    0.38
   2  -5  -5    4.04    0.48
   2  -5  -5    4.23    0.88
   2  -5  -5    3.57    0.43
   2  -5  -5    4.77    0.80
  -2   5   5    3.39    0.78
  -2   5   5    3.63    0.74
   2   5  -5    2.94    0.70
  -2   5   5    3.95    0.71
   1  -5  -5   15.16    0.59
   1  -5  -5   14.15    0.60
   1  -5  -5   13.91    1.13
  -1  -5   5   13.60    0.47
  -1  -5   5   14.60    1.24
   1  -5  -5   15.08    1.29
   1  -5  -5   15.37    0.50
   1  -5  -5   16.03    0.61
  -1  -5   5   13.93    1.14
  -1  -5   5   14.12    0.40
  -1   5   5   15.19    0.99
   1   5  -5   13.95    1.01
  -1   5   5   14.72    1.02
  -1   5   5   13.24    1.22
   0  -5  -5   18.35    1.20
   0  -5  -5   18.67    0.56
   0  -5  -5   19.13    0.67
   0  -5  -5   18.62    1.40
   0  -5  -5   18.75    0.57
   0  -5  -5   20.32    0.79
   0  -5   5   18.89    1.26
   0  -5   5   17.62    1.21
   0   5  -5   16.62    1.13
   0   5   5   18.64    1.32
   0   5   5   18.55    1.08
  -1  -5  -5    0.62    0.18
   1  -5   5    0.43    0.68
  -1  -5  -5    1.18    0.27
  -1  -5  -5    0.11    0.70
  -1  -5  -5    0.50    0.18
   1  -5   5    0.72    0.72
  -1  -5  -5    0.32    0.56
  -1  -5  -5    0.81    0.48
  -1   5  -5    1.18    0.56
   1   5   5    0.99    0.68
   1   5   5    0.96    0.62
  -2  -5  -5   75.05    2.23
  -2  -5  -5   75.10    1.90
  -2  -5  -5   74.05    2.52
   2  -5   5   74.31    2.38
  -2  -5  -5   74.89    1.97
   2  -5   5   77.01    2.45
   2   5   5   75.25    2.29
  -2   5  -5   75.86    2.36
  -2   5  -5   71.85    2.68
   2   5   5   76.61    2.55
   3  -5   5   22.41    1.33
  -3  -5  -5   21.37    1.43
  -3  -5  -5   23.18    1.11
   3  -5   5   24.76    1.44
   3   5   5   22.74    1.50
  -3   5  -5   22.33    0.68
   3   5   5   23.31    0.88
  -3   5  -5   22.13    1.27
   3   5   5   20.72    1.25
  -3   5  -5   22.66    1.56
  -4  -5  -5   11.55    0.83
   4  -5   5   11.25    1.25
   4  -5   5   11.92    1.61
  -4  -5  -5   11.08    1.43
   4  -5   5   11.96    1.20
   4   5   5    9.81    1.10
  -4   5  -5   10.94    0.58
   4   5   5   10.01    1.40
  -4   5  -5   11.49    1.27
  -4   5  -5    9.99    0.53
   4   5   5   11.10    0.94
  -4   5  -5   10.79    1.11
   4   5   5   10.28    0.73
  -5  -5  -5   23.82    1.68
   5  -5   5   25.84    1.49
   5  -5   5   25.30    2.00
   5  -5   5   24.98    1.60
  -5   5  -5   24.70    1.35
  -5   5  -5   22.41    1.64
   5   5   5   25.73    1.34
   5   5   5   22.64    1.80
   5   5   5   23.46    1.32
   5   5   5   23.81    1.43
  -5   5  -5   24.87    1.35
   6  -5   5   10.87    1.35
  -6  -5  -5    9.55    1.08
   6  -5   5    8.95    1.26
  -6  -5  -5   11.17    1.26
   6   5   5    9.23    1.28
   6   5   5   10.60    1.35
  -6   5  -5   11.47    1.15
  -6   5  -5    9.46    1.26
   6   5   5   11.01    1.13
   6   5   5   11.31    1.40
  -6   5  -5   10.40    1.03
   7  -5   5    9.87    1.12
   7  -5   5    8.89    1.41
  -7  -5  -5   11.42    1.44
  -7  -5  -5    7.82    1.22
   7   5   5   11.82    1.21
  -7   5  -5    9.82    1.22
   7   5   5    9.53    1.14
  -7   5  -5    9.80    1.43
   7   5   5   12.62    1.69
   7   5   5   10.82    1.51
  -7   5  -5   10.22    1.01
  -8  -5  -5   19.11    2.01
   8  -5   5   15.90    2.10
  -8  -5  -5   20.54    1.74
   8  -5   5   18.81    2.45
   8   5   5   23.04    2.29
  -8   5  -5   18.08    2.01
   8   5   5   22.63    2.00
   8   5   5   18.62    1.74
  -9  -5  -5    8.19    1.43
   9  -5   5    5.47    1.49
  -9  -5  -5    6.82    1.37
   9  -5   5    5.92    1.75
  -9   5  -5    5.66    1.62
   9   5   5    6.51    1.64
   9   5   5    7.86    1.37
  10  -5   5    5.19    1.79
 -10  -5  -5    7.34    1.41
  10  -5   5    4.65    1.53
  11  -6  -5   -0.78    1.56
 -11   6   5   -0.45    1.50
  10  -6  -5    0.55    1.57
 -10  -6   5    3.91    1.25
  10  -6  -5    1.77    1.65
 -10  -6   5    4.23    1.92
  10  -6  -5    0.74    1.23
  10   6  -5    2.46    1.59
 -10   6   5    5.62    1.92
 -10   6   5    1.15    1.52
  10   6  -5    1.67    1.92
 -10   6   5    1.11    1.38
   9  -6  -5   18.29    2.45
   9  -6  -5    9.52    1.73
  -9  -6   5   14.22    1.61
   9  -6  -5   11.85    1.51
  -9  -6   5   16.75    2.11
   9   6  -5   13.63    2.10
  -9   6   5   13.92    1.61
   9   6  -5   12.09    1.72
  -9   6   5   16.28    1.99
  -9   6   5   12.67    1.59
   8  -6  -5    7.80    1.55
   8  -6  -5    7.45    1.18
   8  -6  -5    7.77    1.43
  -8  -6   5    5.81    1.64
  -8  -6   5    8.53    1.16
   8   6  -5    8.61    1.50
  -8   6   5    4.86    1.16
  -8   6   5    3.41    1.26
   8   6  -5    3.41    1.62
  -8   6   5    7.83    1.61
   7  -6  -5    1.05    1.23
  -7  -6   5    0.67    0.78
  -7  -6   5    1.03    1.33
   7  -6  -5   -0.31    0.85
   7  -6  -5   -0.14    1.09
  -7   6   5   -1.09    0.97
   7   6  -5    0.88    0.95
   7   6  -5    1.91    1.37
  -7   6   5    1.50    1.11
   7   6  -5    1.23    1.19
  -6  -6   5   76.12    2.45
   6  -6  -5   77.99    2.74
  -6  -6   5   74.49    2.36
  -6  -6   5   71.67    3.06
   6  -6  -5   78.09    2.56
   6  -6  -5   70.31    3.02
  -6   6   5   76.02    2.89
   6   6  -5   75.46    2.60
  -6   6   5   72.53    2.56
   6   6  -5   66.27    3.88
  -6   6   5   75.86    2.61
   5  -6  -5    2.55    0.72
  -5  -6   5    4.26    1.20
   5  -6  -5    3.83    0.90
   5  -6  -5    4.15    1.05
  -5  -6   5    4.18    0.67
  -5   6   5    5.40    0.94
   5   6  -5    4.76    1.07
   5   6  -5    5.34    0.98
   5   6  -5    1.80    1.14
  -5   6   5    6.32    1.18
  -5   6   5    5.49    0.97
  -4  -6   5    8.26    0.75
   4  -6  -5    7.23    0.98
  -4  -6   5    8.76    1.24
   4  -6  -5    8.03    1.10
   4  -6  -5    7.11    0.79
  -4   6   5    7.11    0.90
  -4   6   5    8.09    0.97
  -4   6   5    8.22    1.13
   4   6  -5    6.83    0.92
   3  -6  -5   25.24    1.06
   3  -6  -5   23.61    1.54
  -3  -6   5   25.62    1.65
  -3  -6   5   23.15    1.53
   3  -6  -5   22.06    1.68
  -3  -6   5   24.54    0.82
  -3   6   5   22.94    1.38
   3   6  -5   22.17    1.45
  -3   6   5   24.46    1.39
  -3   6   5   27.05    1.63
  -2  -6   5   73.06    2.58
   2  -6  -5   68.36    2.61
  -2  -6   5   71.29    2.46
   2  -6  -5   71.97    2.48
   2  -6  -5   72.54    1.99
  -2  -6   5   73.86    1.82
   2   6  -5   71.96    2.40
  -2   6   5   73.17    2.37
  -2   6   5   75.04    2.58
  -2   6   5   73.17    2.33
  -1  -6   5   91.36    2.90
   1  -6  -5   93.57    2.90
  -1  -6   5   94.40    2.92
   1  -6  -5   90.10    3.06
   1  -6  -5   94.86    2.38
  -1   6   5   91.86    2.97
  -1   6   5   91.22    2.73
   1   6  -5   93.28    2.84
   0  -6   5   24.14    1.51
   0  -6  -5   24.51    1.71
   0  -6   5   24.87    1.47
   0  -6  -5   24.63    0.73
   0  -6  -5   24.31    0.82
   0  -6  -5   24.56    1.41
   0   6   5   25.95    1.35
   0   6   5   24.03    1.61
   0   6  -5   21.41    1.39
  -1  -6  -5   68.20    1.74
   1  -6   5   68.08    2.38
  -1  -6  -5   68.55    2.25
   1  -6   5   66.21    2.30
  -1  -6  -5   67.05    2.53
   1   6   5   64.75    2.17
   1   6   5   68.68    2.47
  -1   6  -5   65.01    2.26
  -2  -6  -5   23.42    1.34
   2  -6   5   24.09    1.44
  -2  -6  -5   22.00    1.66
   2  -6   5   23.68    1.53
   2   6   5   24.63    1.37
   2   6   5   23.62    1.67
  -2   6  -5   24.49    1.45
  -3  -6  -5   15.63    1.59
   3  -6   5   13.84    1.31
   3  -6   5   14.82    1.42
  -3  -6  -5   16.70    1.16
   3   6   5   14.58    1.28
   3   6   5   16.49    1.55
  -3   6  -5   15.34    1.29
   4  -6   5    8.00    1.23
  -4  -6  -5    6.54    1.23
   4  -6   5   10.02    1.31
  -4  -6  -5    8.28    1.01
   4  -6   5    9.31    1.12
  -4   6  -5    9.71    1.22
   4   6   5    5.89    0.88
   4   6   5    9.57    1.31
   4   6   5    6.98    0.74
   5  -6   5    6.99    1.10
  -5  -6  -5    5.98    1.16
  -5  -6  -5    5.24    0.76
   5  -6   5    5.16    1.01
   5   6   5    4.63    1.26
   5   6   5    6.00    1.05
   5   6   5    5.53    0.79
  -5   6  -5    6.55    0.92
   6  -6   5    6.60    1.18
  -6  -6  -5    7.42    1.44
   6  -6   5    4.50    1.33
  -6  -6  -5    5.40    1.07
   6   6   5    8.19    1.47
  -6   6  -5    7.18    0.98
   6   6   5    6.55    0.93
   6   6   5    7.23    1.16
   7  -6   5    6.35    1.50
  -7  -6  -5    8.81    1.20
   7  -6   5   11.98    1.74
  -7  -6  -5    9.55    1.44
   7   6   5    8.67    1.51
  -7   6  -5    9.83    1.06
   7   6   5    9.77    1.28
  -8  -6  -5   13.03    1.64
  -8  -6  -5   14.31    1.77
   8  -6   5   14.17    1.77
   8  -6   5   12.29    1.91
   8   6   5   14.19    1.95
   8   6   5   14.85    1.89
  -9  -6  -5   14.73    1.62
   9  -6   5   11.89    2.10
  -9  -6  -5   13.99    1.79
   9  -6   5   10.67    1.76
   9   6   5   11.88    1.95
 -10  -7   5    5.70    1.26
 -10   7   5    5.15    2.51
  -9  -7   5    0.71    1.23
  -9  -7   5    3.27    1.87
   9  -7  -5    1.96    1.64
  -9  -7   5    3.32    1.16
   9   7  -5    0.96    1.73
   9   7  -5    0.40    1.45
  -9   7   5    0.45    1.81
  -9   7   5    3.27    1.53
  -9   7   5    1.45    1.33
  -8  -7   5   17.80    1.51
  -8  -7   5   13.41    2.07
  -8  -7   5   13.00    1.55
   8  -7  -5   12.57    1.84
  -8   7   5   13.47    1.52
   8   7  -5   13.67    2.05
  -8   7   5   10.85    1.63
  -8   7   5   11.74    1.91
   8   7  -5   11.02    1.84
  -7  -7   5   -1.23    1.44
  -7  -7   5    0.57    1.08
   7  -7  -5    0.64    1.18
   7  -7  -5   -1.80    1.35
   7  -7  -5    0.85    1.47
  -7  -7   5    1.13    0.85
   7   7  -5   -0.65    1.42
   7   7  -5    0.91    1.43
  -7   7   5    0.42    1.08
  -7   7   5    0.76    1.44
   7   7  -5   -0.40    1.55
  -7   7   5   -1.48    1.27
   6  -7  -5    5.35    1.19
  -6  -7   5    5.58    0.87
   6  -7  -5    4.57    0.95
  -6  -7   5    6.58    1.18
   6  -7  -5    4.02    1.23
  -6  -7   5    6.51    1.49
   6   7  -5    4.89    1.44
  -6   7   5    6.39    1.35
  -6   7   5    4.17    1.12
  -5  -7   5   14.08    1.56
   5  -7  -5   13.30    1.42
   5  -7  -5   12.57    1.64
  -5  -7   5   14.11    1.05
   5  -7  -5   14.87    1.79
  -5  -7   5   13.51    1.95
  -5  -7   5   12.48    1.61
  -5   7   5   12.29    1.47
  -5   7   5   10.58    1.70
  -5   7   5   15.56    1.66
   5   7  -5   14.58    1.67
   4  -7  -5    2.22    0.73
   4  -7  -5    3.46    1.11
  -4  -7   5    5.25    1.24
   4  -7  -5    3.24    1.05
   4  -7  -5    2.72    1.29
  -4  -7   5    2.39    1.11
  -4   7   5    2.82    1.00
  -4   7   5    3.17    1.16
  -4   7   5    3.84    0.97
   4   7  -5    3.27    0.98
   3  -7  -5    0.26    0.97
  -3  -7   5    2.10    1.11
   3  -7  -5   -0.59    1.18
  -3  -7   5    1.10    1.05
  -3   7   5    0.98    1.08
  -3   7   5    1.43    0.87
   3   7  -5    0.98    0.96
   2  -7  -5    2.33    0.93
  -2  -7   5    3.90    1.54
  -2  -7   5    2.66    0.99
   2  -7  -5    3.63    1.18
  -2   7   5    3.52    1.11
  -2   7   5    1.08    0.79
   2   7  -5    2.03    0.95
  -1  -7   5    2.14    0.94
   1  -7  -5    2.39    1.07
  -1  -7   5    2.64    0.95
   1  -7  -5    1.58    0.92
  -1   7   5    1.36    0.83
   1   7  -5    2.21    0.88
  -1   7   5    1.89    1.03
   0  -7  -5   -0.29    1.10
   0  -7   5    0.71    0.88
   0  -7  -5    0.76    0.86
   0  -7   5    0.37    0.86
   0   7   5   -0.39    0.96
   0   7  -5    0.49    0.80
   0   7   5    0.11    0.81
   1  -7   5   24.01    1.72
  -1  -7  -5   24.81    1.75
  -1  -7  -5   22.32    1.56
   1  -7   5   23.36    2.29
   1   7   5   23.49    1.83
   1   7   5   20.10    1.50
  -1   7  -5   25.30    1.65
   2  -7   5   11.36    1.62
  -2  -7  -5    8.33    1.31
  -2  -7  -5    9.23    1.30
   2  -7   5    8.72    1.34
   2   7   5   10.26    1.30
  -2   7  -5    9.24    1.12
   2   7   5   10.82    1.38
   3  -7   5   23.16    1.79
   3  -7   5   21.22    1.52
  -3  -7  -5   24.37    1.50
   3   7   5   23.56    1.63
  -3   7  -5   18.94    1.68
   3   7   5   19.73    1.90
  -4  -7  -5    1.59    1.17
   4  -7   5    4.00    1.33
  -4  -7  -5    3.57    0.87
   4  -7   5    2.31    1.87
   4   7   5    3.61    1.03
   4   7   5    3.90    1.37
   5  -7   5   38.73    2.27
  -5  -7  -5   35.23    2.28
   5  -7   5   34.80    2.66
   5   7   5   38.09    1.99
  -5   7  -5   38.62    1.96
   5   7   5   38.97    2.44
  -6  -7  -5    5.13    1.42
   6  -7   5    4.67    1.32
   6  -7   5    4.95    1.56
  -6  -7  -5    3.91    1.11
   6   7   5    2.75    1.17
  -6   7  -5    4.54    1.25
   6   7   5    0.77    1.41
   7  -7   5    6.16    1.43
   7  -7   5    4.07    1.69
  -7  -7  -5    6.27    1.26
  -7  -7  -5    5.84    1.54
   7   7   5    8.14    1.44
  -7   7  -5    6.71    1.05
   7   7   5    4.76    1.74
   8  -7   5    4.15    1.51
  -8  -7  -5    8.81    1.61
  -8  -7  -5    8.68    1.41
   8  -7   5    8.91    1.85
   8   7   5    9.32    1.52
   8   7   5   12.18    2.06
  -9  -7  -5    5.39    1.66
  -9  -7  -5    0.93    1.95
  -8  -8   5    4.79    1.75
   8  -8  -5    6.14    2.39
  -8   8   5    0.82    1.53
  -7  -8   5    5.90    1.75
   7  -8  -5    4.39    2.11
   7  -8  -5    3.88    1.63
  -7  -8   5    4.74    1.47
  -7   8   5    3.46    1.43
  -7   8   5    1.56    1.75
   7   8  -5    4.17    1.39
   6  -8  -5    2.63    1.86
   6  -8  -5    5.16    1.62
  -6  -8   5    5.54    1.63
  -6  -8   5    4.95    1.32
  -6   8   5    2.11    1.56
  -6   8   5    3.16    1.37
  -6   8   5    4.22    1.29
   6   8  -5    5.34    1.44
  -5  -8   5    2.14    1.27
   5  -8  -5    2.01    1.33
   5  -8  -5    1.06    1.73
  -5  -8   5    3.79    1.23
  -5  -8   5    5.01    1.45
  -5   8   5    4.68    1.21
  -5   8   5    1.94    1.56
   5   8  -5    1.62    1.18
  -5   8   5    2.67    1.27
  -4  -8   5   19.07    1.96
   4  -8  -5   12.20    1.88
   4  -8  -5   18.09    2.07
  -4  -8   5   20.20    2.16
   4   8  -5   20.95    1.95
  -4   8   5   19.16    1.68
  -4   8   5   15.22    2.04
   3  -8  -5   30.26    2.15
  -3  -8   5   32.70    2.18
  -3  -8   5   29.28    2.07
   3  -8  -5   28.55    2.43
   3   8  -5   28.97    2.04
  -3   8   5   29.34    2.36
  -3   8   5   29.57    1.88
  -2  -8   5   46.97    2.42
  -2  -8   5   47.36    2.33
   2  -8  -5   51.04    2.77
   2  -8  -5   49.00    2.36
   2   8  -5   49.56    2.32
  -2   8   5   44.61    2.38
  -2   8   5   46.11    2.56
   1  -8  -5    5.28    1.41
  -1  -8   5    8.75    1.26
   1  -8  -5    9.51    1.24
  -1  -8   5    8.24    1.32
  -1   8   5    6.79    1.36
   1   8  -5   10.91    1.29
   0  -8   5   20.18    1.91
   0  -8  -5   24.16    2.12
   0  -8  -5   23.58    1.78
   0   8   5   25.17    2.22
   0   8  -5   19.29    1.82
   1  -8   5   12.88    1.89
  -1  -8  -5    7.78    1.67
  -1  -8  -5    9.54    1.58
   1   8   5   10.35    1.19
   1   8   5    9.79    1.57
  -1   8  -5    8.86    1.18
  -2  -8  -5   11.66    1.91
   2  -8   5    8.62    1.37
  -2  -8  -5   10.26    1.53
   2   8   5    8.52    1.61
   2   8   5    9.32    1.23
  -2   8  -5    9.75    1.21
   3  -8   5   13.94    1.78
  -3  -8  -5   13.52    1.66
   3  -8   5   14.42    2.00
  -3  -8  -5   11.90    1.63
   3   8   5   12.24    1.64
  -3   8  -5   16.06    1.74
   3   8   5   15.37    1.65
  -4  -8  -5   40.80    2.07
   4  -8   5   40.85    2.89
  -4  -8  -5   41.86    2.68
   4  -8   5   46.24    2.56
   4   8   5   40.20    2.20
   4   8   5   43.49    2.80
  -4   8  -5   45.68    2.40
  -5  -8  -5    1.33    1.13
   5  -8   5    2.95    1.42
   5  -8   5    1.42    1.90
  -5  -8  -5    0.73    1.55
   5   8   5    3.40    1.57
  -5   8  -5    3.07    1.19
   5   8   5    1.31    1.14
  -6  -8  -5    5.85    1.68
   6  -8   5    8.22    1.65
   6  -8   5    2.04    1.70
  -6  -8  -5    2.78    1.26
  -6   8  -5    5.28    1.15
   6   8   5    6.02    1.82
   6   8   5    5.58    1.44
  -7  -8  -5   11.45    1.76
   7  -8   5    8.62    2.10
   7  -8   5   18.94    2.52
  -7  -8  -5   12.30    1.47
   7   8   5   18.07    2.16
   7   8   5   15.74    2.22
   6  -9  -5    2.45    2.18
  -6  -9   5    1.76    1.22
  -6   9   5    2.11    1.42
   6   9  -5    2.86    1.57
   5  -9  -5    6.69    1.69
   5  -9  -5    2.51    2.00
  -5  -9   5    5.50    1.37
  -5   9   5    1.08    1.31
   5   9  -5    1.80    1.44
   4  -9  -5    2.58    1.90
  -4  -9   5    1.96    1.42
   4  -9  -5    3.98    1.63
  -4   9   5    2.02    1.38
   4   9  -5    1.74    1.41
   3  -9  -5    0.75    1.90
   3  -9  -5   -0.20    1.35
  -3  -9   5    2.22    1.43
   3   9  -5    2.91    1.44
  -3   9   5    0.59    1.26
  -2  -9   5   16.68    2.11
   2  -9  -5   19.34    2.67
   2  -9  -5   17.63    2.12
  -2   9   5   16.33    1.98
  -2   9   5   15.81    1.98
   2   9  -5   16.48    1.76
  -1  -9   5    7.19    1.55
   1  -9  -5    7.85    1.52
   1  -9  -5    3.76    1.87
  -1   9   5    5.57    1.64
  -1   9   5    3.34    1.22
   1   9  -5    4.69    1.30
   0  -9   5    7.23    1.50
   0  -9  -5    5.24    1.80
   0  -9  -5    8.26    1.41
   0   9  -5    6.43    1.33
   0   9   5    4.58    1.23
   0   9   5    4.06    1.62
   1  -9   5    2.62    1.53
  -1  -9  -5   -1.79    1.62
  -1  -9  -5    1.97    1.23
   1   9   5   -2.00    1.10
  -1   9  -5    0.81    1.26
   1   9   5    2.59    1.58
  -2  -9  -5    4.81    1.66
   2  -9   5    6.56    1.62
  -2  -9  -5    7.19    1.33
   2   9   5    4.06    1.27
   2   9   5    7.11    1.79
  -2   9  -5    6.39    1.41
   3  -9   5    1.41    1.66
   3  -9   5    2.34    1.52
  -3  -9  -5    2.32    1.15
  -3  -9  -5    1.21    1.64
   3   9   5    2.11    1.71
   3   9   5    1.36    1.27
  -3   9  -5    2.40    1.21
   4  -9   5    2.12    1.88
   4  -9   5    7.82    1.71
  -4  -9  -5    5.53    1.72
   4   9   5    3.65    1.30
  -4   9  -5    4.29    1.27
   4   9   5    6.60    1.93
  -5  -9  -5    8.65    1.40
   5  -9   5   12.87    1.91
   5  -9   5   11.90    2.03
  -5  -9  -5   13.38    1.93
   5   9   5    8.72    2.09
   5   9   5   11.94    1.62
  -5   9  -5    8.86    1.43
   6   9   5    5.40    1.81
  -6   9  -5    8.86    1.71
  -3  10   5    1.98    1.79
  -2  10   5    4.32    1.33
   1 -10  -5   25.89    2.33
  -1  10   5   21.76    2.19
   0 -10  -5    1.84    1.39
   0  10   5   -0.55    1.34
  -1 -10  -5    8.66    1.43
   1  10   5    8.80    1.56
   2 -10   5    1.62    2.20
  -2 -10  -5    2.47    1.24
   2  10   5    2.32    1.36
   3  10   5   12.79    1.49
  12   0  -6   35.22    2.88
 -12   0   6   38.78    2.48
 -12   0   6   37.34    3.37
  12   0  -6   37.42    3.37
 -12   0   6   37.79    2.24
 -11   0   6   13.89    1.84
  11   0  -6   14.65    2.00
 -11   0   6   15.36    1.98
  11   0  -6   17.08    2.21
  11   0  -6   16.16    2.00
 -11   0   6   13.77    1.60
  10   0  -6   -0.36    1.07
 -10   0   6   -0.02    0.95
  10   0  -6   -1.72    1.27
  10   0  -6    0.94    1.06
 -10   0   6    0.20    0.85
 -10   0   6    0.24    1.63
  -9   0   6    6.58    1.38
   9   0  -6    4.55    1.20
   9   0  -6    5.40    1.05
  -9   0   6    5.11    0.86
   9   0  -6    3.95    0.99
  -9   0   6    4.63    0.93
   8   0  -6   -0.45    0.77
   8   0  -6   -0.18    0.31
   8   0  -6   -0.21    0.94
  -8   0   6   -0.19    0.72
   8   0  -6    0.14    0.76
  -8   0   6   -0.24    0.66
  -8   0   6    0.12    1.00
   7   0  -6    1.15    0.72
  -7   0   6    0.73    0.64
   7   0  -6    0.75    0.87
   7   0  -6    0.85    0.36
  -7   0   6    1.67    0.64
   7   0  -6    0.90    0.72
  -7   0   6    1.31    0.89
   6   0  -6   59.92    1.70
  -6   0   6   57.85    1.90
  -6   0   6   58.36    2.17
  -6   0   6   60.07    1.85
   6   0  -6   60.01    1.99
   6   0  -6   60.02    2.16
  -6   0   6   58.39    2.07
   6   0  -6   58.34    2.01
   5   0  -6    4.95    0.61
   5   0  -6    5.71    0.74
   5   0  -6    4.65    0.66
   5   0  -6    5.71    0.61
  -5   0   6    5.62    0.81
  -5   0   6    6.80    0.94
  -5   0   6    5.92    0.71
  -5   0   6    5.82    0.70
  -4   0   6  289.96    7.04
  -4   0   6  285.75    6.92
   4   0  -6  290.05    6.90
   4   0  -6  286.76    6.86
   4   0  -6  283.82    7.00
   4   0  -6  284.36    6.67
  -4   0   6  290.33    6.86
  -4   0   6  283.99    7.11
   3   0  -6   91.16    2.48
   3   0  -6   92.61    2.38
   3   0  -6   93.69    2.41
  -3   0   6   75.46    2.69
  -3   0   6   92.52    2.33
  -3   0   6   91.17    2.50
  -3   0   6   89.21    2.39
   3   0  -6   90.17    2.28
  -3   0   6   97.02    2.29
   3   0  -6   90.83    2.50
   2   0  -6   32.52    0.98
  -2   0   6   31.83    0.99
  -2   0   6   31.28    1.13
  -2   0   6   31.24    1.08
   2   0  -6   30.61    1.11
   2   0  -6   30.49    1.05
   2   0  -6   31.70    1.02
  -2   0   6   30.53    0.97
  -2   0   6   31.28    1.26
  -2   0   6   30.34    1.02
   2   0  -6   30.26    1.10
   2   0  -6   30.63    0.99
  -2   0   6   31.36    0.98
  -1   0   6   99.28    2.67
   1   0  -6  101.06    2.64
  -1   0   6  101.48    2.54
  -1   0   6  104.35    2.64
   1   0  -6  101.96    2.66
  -1   0   6  103.22    2.61
  -1   0   6  102.16    2.54
   1   0  -6  106.07    2.55
   1   0  -6  101.59    2.68
   1   0  -6  101.52    2.59
   1   0  -6  102.16    2.65
  -1   0   6  101.83    2.60
  -1   0   6   99.18    2.80
   0   0  -6  137.68    3.26
   0   0   6  135.16    3.25
   0   0   6  135.49    3.57
   0   0   6  130.87    3.25
   0   0   6  138.08    3.33
   0   0  -6  127.15    3.35
   0   0  -6  134.62    3.43
   0   0   6  135.12    3.40
   0   0  -6  137.50    3.31
   0   0   6  130.69    3.30
   0   0  -6  128.70    3.31
   0   0  -6  133.63    3.40
   0   0   6  135.32    3.32
  -1   0  -6  113.77    2.90
   1   0   6  113.11    3.13
   1   0   6  116.94    2.81
  -1   0  -6  111.36    2.79
   1   0   6  113.60    2.94
   1   0   6  111.46    2.79
  -1   0  -6  110.57    3.00
  -1   0  -6  112.21    2.83
   2   0   6   50.79    1.31
   2   0   6   46.93    1.37
  -2   0  -6   47.42    1.66
  -2   0  -6   49.89    1.45
   2   0   6   49.05    1.50
   2   0   6   47.27    1.72
   2   0   6   48.77    1.54
   3   0   6  399.10    9.38
   3   0   6  402.47    9.45
   3   0   6  393.14    9.60
  -3   0  -6  387.50    9.50
   3   0   6  387.10    9.28
  -3   0  -6  395.66    9.27
   3   0   6  386.05    9.08
   4   0   6  253.25    6.28
   4   0   6  265.09    6.17
   4   0   6  249.29    6.20
   4   0   6  256.72    6.32
  -4   0  -6  253.66    6.07
   4   0   6  250.36    6.50
  -4   0  -6  243.36    6.35
   5   0   6    0.27    0.62
   5   0   6    0.81    0.63
  -5   0  -6    1.29    0.55
  -5   0  -6    0.69    0.69
   5   0   6    0.50    0.48
   5   0   6    0.48    0.52
   5   0   6    0.38    0.82
  -5   0  -6    0.42    0.27
   6   0   6    4.09    0.85
  -6   0  -6    4.51    0.85
  -6   0  -6    4.12    0.44
   6   0   6    3.89    0.74
   6   0   6    4.82    0.90
  -6   0  -6    4.39    0.71
   7   0   6    5.88    0.86
   7   0   6    7.66    1.04
  -7   0  -6    8.55    0.47
  -7   0  -6    7.77    1.08
   7   0   6    8.54    1.11
  -7   0  -6    8.61    1.07
  -8   0  -6    0.77    0.95
   8   0   6    1.06    1.02
  -8   0  -6   -0.60    0.81
   8   0   6   -0.58    0.83
  -9   0  -6   33.33    1.86
  -9   0  -6   33.46    2.04
   9   0   6   27.80    3.29
 -10   0  -6   12.09    1.39
 -10   0  -6   12.30    1.45
  10   0   6   10.72    1.39
  10   0   6   13.78    1.77
  11   0   6    1.07    1.66
 -11   0  -6    1.10    1.30
 -11   0  -6    1.03    1.28
  11   0   6   -0.75    1.24
 -12   0  -6    4.89    1.43
 -13   1   6    8.60    2.14
 -12  -1   6   30.15    3.18
 -12  -1   6   26.05    2.03
  12  -1  -6   25.32    2.44
  12  -1  -6   24.34    2.74
  12  -1  -6   21.76    3.08
 -12  -1   6   23.59    2.13
 -12   1   6   25.98    3.24
  12   1  -6   26.81    3.11
  12   1  -6   24.44    2.62
 -12   1   6   22.20    2.72
 -12   1   6   26.93    2.35
 -12   1   6   20.05    2.10
 -11  -1   6    8.71    1.16
 -11  -1   6    9.24    1.94
  11  -1  -6   11.65    1.55
  11  -1  -6    8.89    1.45
 -11  -1   6    8.92    1.41
  11  -1  -6   10.44    1.77
 -11   1   6    7.38    1.61
  11   1  -6    5.50    1.47
 -11   1   6    8.32    1.49
 -11   1   6    9.17    1.79
 -11   1   6    8.09    1.23
  11   1  -6    9.55    1.81
 -10  -1   6   35.42    1.80
  10  -1  -6   30.55    2.29
 -10  -1   6   32.99    2.49
  10  -1  -6   32.64    2.37
 -10  -1   6   31.40    1.90
  10  -1  -6   31.53    2.11
  10   1  -6   31.02    2.53
  10   1  -6   31.75    2.15
 -10   1   6   33.60    2.40
 -10   1   6   33.61    1.81
 -10   1   6   31.45    1.82
 -10   1   6   30.12    2.20
   9  -1  -6    4.76    1.03
  -9  -1   6    6.27    1.41
   9  -1  -6    3.94    1.00
  -9  -1   6    4.37    0.92
  -9  -1   6    4.31    0.82
   9  -1  -6    4.50    1.17
   9   1  -6    3.39    1.22
   9   1  -6    4.44    1.07
  -9   1   6    4.57    0.99
  -9   1   6    4.81    1.27
  -9   1   6    4.30    1.15
  -9   1   6    4.59    0.89
  -8  -1   6   30.36    1.47
  -8  -1   6   30.29    1.98
   8  -1  -6   30.12    1.94
   8  -1  -6   28.02    1.67
   8  -1  -6   29.60    1.11
   8  -1  -6   30.30    1.73
   8   1  -6   30.76    1.69
   8   1  -6   30.32    2.04
  -8   1   6   29.52    1.72
  -8   1   6   30.87    1.94
   8   1  -6   30.26    1.63
   8   1  -6   29.89    1.05
  -8   1   6   30.16    1.59
  -8   1   6   28.98    1.48
  -7  -1   6   74.34    2.26
   7  -1  -6   76.78    2.46
  -7  -1   6   74.56    2.37
   7  -1  -6   72.80    2.61
  -7  -1   6   74.37    2.73
   7  -1  -6   74.87    2.48
  -7   1   6   74.56    2.59
  -7   1   6   72.51    2.59
   7   1  -6   71.57    2.39
  -7   1   6   72.55    2.35
   7   1  -6   72.86    2.09
   7   1  -6   71.40    2.45
  -7   1   6   72.89    2.27
   7   1  -6   73.42    2.65
   6  -1  -6   49.88    1.91
   6  -1  -6   49.00    1.78
   6  -1  -6   50.68    1.24
  -6  -1   6   49.64    1.61
  -6  -1   6   49.24    2.07
  -6  -1   6   48.59    1.74
   6  -1  -6   50.23    1.84
   6  -1  -6   49.62    1.24
   6  -1  -6   49.69    1.76
   6   1  -6   49.99    1.81
  -6   1   6   49.48    1.92
   6   1  -6   49.30    1.93
  -6   1   6   48.64    1.66
  -6   1   6   49.10    1.70
  -6   1   6   48.49    1.95
   6   1  -6   49.74    1.84
   5  -1  -6  221.96    5.56
   5  -1  -6  221.74    5.19
  -5  -1   6  215.26    5.73
   5  -1  -6  224.14    5.55
  -5  -1   6  206.57    5.41
   5  -1  -6  230.26    5.20
   5  -1  -6  217.61    5.54
   5  -1  -6  221.74    5.43
  -5  -1   6  216.92    5.34
  -5   1   6  218.71    5.50
   5   1  -6  211.34    5.38
   5   1  -6  213.54    5.41
  -5   1   6  213.10    5.35
   5   1  -6  210.22    5.51
  -5   1   6  215.51    5.50
  -5   1   6  213.90    5.28
  -4  -1   6    6.99    0.86
   4  -1  -6    4.01    0.50
   4  -1  -6    5.03    0.65
   4  -1  -6    5.48    0.57
  -4  -1   6    5.14    0.28
  -4  -1   6    5.38    0.47
   4  -1  -6    5.46    0.46
  -4  -1   6    5.42    0.67
  -4  -1   6    6.87    0.80
  -4   1   6    6.01    0.66
  -4   1   6    7.15    0.87
   4   1  -6    4.08    0.57
   4   1  -6    4.47    0.54
   4   1  -6    4.75    0.65
   4   1  -6    5.83    0.79
  -4   1   6    6.42    0.68
  -3  -1   6   26.18    0.83
   3  -1  -6   24.80    1.10
  -3  -1   6   25.70    0.79
  -3  -1   6   23.94    1.24
   3  -1  -6   24.67    0.85
   3  -1  -6   24.32    0.96
   3  -1  -6   24.92    0.88
  -3  -1   6   24.77    1.00
   3  -1  -6   22.98    1.09
  -3  -1   6   24.33    0.91
  -3   1   6   23.52    0.93
  -3   1   6   21.96    0.95
  -3   1   6   24.02    0.83
   3   1  -6   25.00    0.98
  -3   1   6   23.18    1.09
   3   1  -6   23.13    1.25
  -3   1   6   21.48    0.97
  -3   1   6   23.58    1.06
   3   1  -6   23.37    1.06
   3   1  -6   23.25    0.78
   3   1  -6   22.95    0.94
   2  -1  -6    9.96    0.59
  -2  -1   6   10.38    0.64
   2  -1  -6   10.52    0.49
   2  -1  -6    9.86    0.72
  -2  -1   6    9.51    0.57
  -2  -1   6   10.46    0.56
  -2  -1   6   10.90    0.48
   2  -1  -6    9.77    0.69
   2  -1  -6    9.44    0.63
   2   1  -6    9.68    0.68
  -2   1   6    9.52    0.75
  -2   1   6   10.16    0.79
  -2   1   6   10.14    0.60
   2   1  -6   10.33    0.59
   2   1  -6    9.53    0.85
   2   1  -6   10.52    0.68
  -2   1   6   10.86    0.49
  -2   1   6   10.66    0.60
   2   1  -6   10.23    0.76
  -2   1   6   10.21    0.76
  -2   1   6   10.40    0.63
   2   1  -6   10.54    0.57
  -1  -1   6  169.45    4.08
   1  -1  -6  164.99    4.20
  -1  -1   6  165.14    4.36
  -1  -1   6  169.49    4.14
  -1  -1   6  170.18    4.01
   1  -1  -6  161.07    4.16
  -1  -1   6  181.04    4.66
  -1  -1   6  173.30    4.17
   1  -1  -6  166.94    4.19
  -1  -1   6  169.12    4.14
   1   1  -6  176.62    4.15
   1   1  -6  169.56    4.17
   1   1  -6  176.97    4.01
  -1   1   6  171.74    4.20
  -1   1   6  158.21    4.23
  -1   1   6  163.35    4.28
   1   1  -6  171.57    4.06
  -1   1   6  168.80    4.10
  -1   1   6  167.10    4.04
   1   1  -6  168.51    4.17
  -1   1   6  164.63    4.15
  -1   1   6  165.55    3.96
   0  -1  -6   68.93    1.88
   0  -1   6   69.50    2.00
   0  -1   6   73.64    1.76
   0  -1   6   71.15    1.89
   0  -1  -6   67.01    1.93
   0  -1   6   72.30    1.91
   0  -1   6   70.47    2.18
   0  -1   6   68.92    1.88
   0  -1  -6   69.59    2.01
   0  -1   6   71.33    1.82
   0   1  -6   70.66    2.00
   0   1  -6   69.48    1.95
   0   1  -6   72.48    1.81
   0   1   6   68.09    1.90
   0   1  -6   73.00    1.82
   0   1  -6   71.83    1.91
   0   1   6   70.55    2.11
   0   1   6   66.88    1.86
   0   1   6   65.92    2.01
   0   1   6   70.17    1.77
   0   1   6   71.91    1.88
   0   1   6   68.75    1.70
   1  -1   6    2.17    0.79
  -1  -1  -6    2.62    0.32
   1  -1   6    2.46    0.36
   1  -1   6    2.62    0.26
   1  -1   6    2.85    0.36
  -1  -1  -6    3.50    0.83
  -1  -1  -6    3.17    0.43
   1   1   6    2.44    0.29
  -1   1  -6    1.93    0.27
   1   1   6    1.99    0.56
   1   1   6    3.01    0.33
  -1   1  -6    1.67    0.45
  -1   1  -6    1.43    0.36
  -1   1  -6    2.12    0.40
  -1   1  -6    2.64    0.34
   1   1   6    2.60    0.48
   1   1   6    2.35    0.35
  -2  -1  -6    0.30    0.33
   2  -1   6    0.12    0.26
  -2  -1  -6    0.19    0.19
   2  -1   6    0.02    0.56
   2  -1   6   -0.01    0.30
  -2  -1  -6   -0.12    0.49
   2  -1   6    0.02    0.20
   2   1   6    0.44    0.21
  -2   1  -6   -0.12    0.30
  -2   1  -6    0.28    0.26
   2   1   6    0.22    0.23
   2   1   6   -0.41    0.50
  -2   1  -6    0.43    0.51
  -2   1  -6    0.69    0.30
   2   1   6    0.39    0.61
  -2   1  -6    0.47    0.38
   2   1   6   -0.02    0.27
   3  -1   6   12.88    0.75
   3  -1   6   13.49    1.04
   3  -1   6   12.31    0.59
  -3  -1  -6   11.53    0.72
   3  -1   6   13.60    0.55
   3  -1   6   12.70    0.99
  -3  -1  -6   10.81    0.99
   3  -1   6   13.34    0.54
  -3   1  -6   12.64    1.01
   3   1   6   12.37    0.40
   3   1   6   11.51    0.70
   3   1   6   12.50    0.94
   3   1   6   12.37    0.75
  -3   1  -6   13.50    0.76
   3   1   6   12.90    1.00
  -3   1  -6   14.64    0.73
   3   1   6   11.58    0.65
  -4  -1  -6   93.44    2.80
   4  -1   6   93.47    2.77
   4  -1   6   90.57    2.66
   4  -1   6   92.32    2.91
   4  -1   6   95.01    2.29
   4  -1   6   96.67    2.30
  -4  -1  -6   93.51    2.46
  -4   1  -6   90.66    2.74
  -4   1  -6   92.73    2.40
   4   1   6   90.54    2.51
  -4   1  -6   90.08    2.51
   4   1   6   91.71    2.50
   4   1   6   89.16    2.44
   4   1   6   88.33    2.70
   4   1   6   90.56    2.85
   5  -1   6  169.19    3.87
   5  -1   6  160.30    4.61
   5  -1   6  167.62    4.38
  -5  -1  -6  168.15    4.08
   5  -1   6  165.29    3.87
  -5  -1  -6  163.09    4.48
   5  -1   6  163.95    4.48
   5  -1   6  166.88    4.39
   5   1   6  164.70    4.31
   5   1   6  165.29    4.54
  -5   1  -6  169.40    4.26
  -5   1  -6  172.43    4.58
   5   1   6  168.16    4.31
  -5   1  -6  170.74    4.23
   5   1   6  168.48    4.40
  -6  -1  -6   11.53    0.58
  -6  -1  -6   11.56    1.23
   6  -1   6   10.55    1.17
  -6  -1  -6    9.85    1.08
   6  -1   6    9.63    1.16
   6  -1   6   10.60    1.34
   6   1   6   13.13    1.23
  -6   1  -6   12.83    1.32
  -6   1  -6   12.65    0.98
  -6   1  -6   11.33    0.61
   6   1   6   10.38    1.11
   6   1   6   11.38    1.02
   6   1   6   10.72    1.35
   7  -1   6   42.42    2.12
   7  -1   6   42.77    1.94
  -7  -1  -6   40.35    1.75
  -7  -1  -6   42.74    1.97
  -7  -1  -6   41.46    1.20
   7   1   6   39.21    2.03
   7   1   6   41.74    1.98
   7   1   6   42.30    1.82
  -7   1  -6   43.23    1.67
  -7   1  -6   41.15    1.22
  -7   1  -6   44.04    2.01
  -8  -1  -6    9.05    1.10
  -8  -1  -6    9.09    1.18
   8  -1   6    8.07    1.23
   8  -1   6    9.11    1.14
   8   1   6    8.80    1.04
  -8   1  -6    9.10    1.21
   8   1   6    7.06    1.17
   8   1   6    9.62    1.25
  -8   1  -6    7.99    0.99
   9  -1   6    1.79    1.01
  -9  -1  -6    1.65    0.99
   9  -1   6    2.15    1.30
  -9  -1  -6    2.19    1.13
  -9   1  -6    1.32    1.28
   9   1   6    2.22    1.10
   9   1   6    2.10    1.15
  -9   1  -6    1.98    0.95
 -10  -1  -6    1.94    1.34
 -10  -1  -6    3.24    1.25
  10  -1   6    3.09    1.47
  10  -1   6    2.95    1.31
 -10   1  -6    1.27    1.27
 -10   1  -6    2.99    1.13
  10   1   6    3.32    1.53
  10   1   6    2.88    1.18
  11  -1   6    7.10    1.91
  11  -1   6    5.84    1.45
 -11  -1  -6    2.16    1.36
 -11  -1  -6    4.35    1.47
  11   1   6    5.81    1.52
 -11   1  -6    5.82    1.47
  11   1   6    1.54    1.71
 -11   1  -6    4.46    1.41
 -12   1  -6   23.45    2.34
  12   1   6   15.62    2.20
  12  -2  -6    6.34    2.03
 -12  -2   6    3.03    2.00
 -12  -2   6    5.55    1.45
  12  -2  -6    5.92    1.68
  12  -2  -6    6.41    1.63
 -12  -2   6    5.55    1.27
  12   2  -6    5.68    2.07
 -12   2   6    4.06    1.70
 -12   2   6    6.86    2.01
 -12   2   6    4.88    1.22
  12   2  -6    5.06    1.55
 -12   2   6    7.09    1.54
  11  -2  -6    3.28    1.33
  11  -2  -6    3.11    1.28
  11  -2  -6    4.54    1.74
 -11  -2   6    6.15    1.91
 -11  -2   6    4.13    1.19
  11   2  -6    2.41    1.68
  11   2  -6    1.19    1.40
 -11   2   6    2.33    1.57
 -11   2   6    4.02    1.35
 -11   2   6    3.33    1.19
 -11   2   6    3.41    1.72
  10  -2  -6    5.32    1.37
 -10  -2   6    6.71    1.19
  10  -2  -6    5.91    1.27
  10  -2  -6    5.84    1.34
 -10  -2   6    4.93    1.52
 -10   2   6    6.72    1.18
 -10   2   6    5.74    1.39
 -10   2   6    6.31    1.51
  10   2  -6    5.72    1.57
  10   2  -6    4.72    1.20
 -10   2   6    5.67    1.06
   9  -2  -6   19.40    1.65
   9  -2  -6   17.31    1.93
  -9  -2   6   19.37    1.53
   9  -2  -6   18.99    1.75
  -9   2   6   20.86    1.97
   9   2  -6   18.43    2.33
  -8  -2   6   10.38    1.39
   8  -2  -6   12.52    1.41
   8  -2  -6   10.03    0.98
   8  -2  -6   11.98    1.30
   8  -2  -6   11.22    1.35
  -8  -2   6   12.66    1.25
  -8   2   6   11.16    1.20
  -8   2   6   10.53    1.50
  -8   2   6    9.80    1.17
  -8   2   6   13.22    1.58
   8   2  -6    9.04    1.09
   8   2  -6   10.94    1.36
   8   2  -6   10.05    1.31
  -7  -2   6   76.23    2.90
   7  -2  -6   76.85    2.60
   7  -2  -6   79.54    2.72
   7  -2  -6   78.44    2.25
   7  -2  -6   77.21    2.05
  -7  -2   6   78.94    2.45
   7  -2  -6   79.48    2.48
  -7   2   6   78.81    2.67
  -7   2   6   79.38    2.44
   7   2  -6   80.90    2.88
   7   2  -6   80.35    2.24
  -7   2   6   80.49    2.78
   7   2  -6   78.50    2.66
  -7   2   6   76.00    2.51
   6  -2  -6   28.48    1.32
   6  -2  -6   29.32    1.10
   6  -2  -6   27.62    0.99
  -6  -2   6   29.52    1.29
   6  -2  -6   27.38    1.45
   6  -2  -6   27.67    1.53
  -6  -2   6   27.14    1.69
   6  -2  -6   28.79    1.20
  -6   2   6   29.22    1.38
   6   2  -6   29.11    1.71
   6   2  -6   28.51    1.16
  -6   2   6   28.78    1.47
  -6   2   6   26.66    1.25
   6   2  -6   28.16    1.49
  -6   2   6   25.28    1.46
   5  -2  -6   48.00    1.43
   5  -2  -6   47.84    1.70
   5  -2  -6   47.43    1.77
   5  -2  -6   47.86    1.55
  -5  -2   6   45.62    1.57
  -5  -2   6   46.51    1.98
  -5   2   6   48.32    1.65
  -5   2   6   47.81    1.62
   5   2  -6   49.42    1.58
  -5   2   6   46.32    1.79
   5   2  -6   49.62    1.95
   5   2  -6   48.90    1.80
  -5   2   6   48.18    1.81
   4  -2  -6  138.24    3.60
   4  -2  -6  143.67    3.67
  -4  -2   6  145.28    3.52
  -4  -2   6  145.23    3.64
  -4  -2   6  144.00    4.01
   4  -2  -6  145.16    3.57
  -4  -2   6  148.33    3.45
   4  -2  -6  138.80    3.80
  -4   2   6  142.49    3.87
  -4   2   6  140.79    3.64
   4   2  -6  145.65    3.76
   4   2  -6  146.77    3.62
  -4   2   6  137.36    3.67
   4   2  -6  140.67    3.84
  -4   2   6  138.74    3.68
   3  -2  -6   47.76    1.31
   3  -2  -6   48.29    1.62
   3  -2  -6   51.09    1.67
  -3  -2   6   46.89    1.28
   3  -2  -6   46.22    1.45
  -3  -2   6   42.93    1.75
  -3  -2   6   46.19    1.42
  -3  -2   6   47.88    1.33
   3  -2  -6   48.69    1.40
  -3  -2   6   45.98    1.37
  -3   2   6   44.61    1.35
  -3   2   6   43.34    1.44
   3   2  -6   42.46    1.59
   3   2  -6   44.60    1.28
  -3   2   6   41.68    1.60
   3   2  -6   44.28    1.43
  -3   2   6   44.55    1.42
   3   2  -6   43.82    1.52
  -3   2   6   42.65    1.43
   2  -2  -6  130.20    3.59
  -2  -2   6  135.25    3.32
   2  -2  -6  133.44    3.21
   2  -2  -6  134.54    3.40
  -2  -2   6  134.63    3.29
  -2  -2   6  133.48    3.15
  -2  -2   6  129.10    3.59
   2  -2  -6  132.22    3.13
   2  -2  -6  127.73    3.38
  -2  -2   6  129.77    3.23
  -2   2   6  130.29    3.34
   2   2  -6  127.21    3.61
  -2   2   6  130.07    3.41
  -2   2   6  132.23    3.39
   2   2  -6  136.94    3.25
   2   2  -6  135.50    3.74
   2   2  -6  133.43    3.32
   2   2  -6  130.22    3.38
  -2   2   6  138.66    3.22
  -2   2   6  123.91    3.48
   1  -2  -6  310.59    7.40
   1  -2  -6  303.33    7.34
  -1  -2   6  306.28    7.17
   1  -2  -6  312.57    7.38
  -1  -2   6  301.89    7.21
  -1  -2   6  300.99    7.09
  -1  -2   6  309.87    7.56
   1   2  -6  311.15    7.18
  -1   2   6  299.05    7.47
  -1   2   6  308.92    7.33
  -1   2   6  299.00    7.35
  -1   2   6  312.40    7.10
  -1   2   6  307.61    7.41
   1   2  -6  310.89    7.37
   1   2  -6  306.40    7.36
   0  -2  -6   76.34    2.03
   0  -2   6   74.90    1.78
   0  -2   6   74.41    2.33
   0  -2  -6   71.78    2.68
   0  -2   6   75.37    1.91
   0  -2   6   75.00    1.85
   0   2   6   73.79    2.04
   0   2   6   76.10    2.15
   0   2  -6   76.76    1.92
   0   2   6   75.06    2.20
   0   2  -6   71.72    2.06
   0   2  -6   70.92    2.10
   0   2   6   73.39    2.06
   0   2  -6   74.53    1.85
   0   2  -6   75.13    1.77
   1  -2   6   25.59    0.85
   1  -2   6   25.14    1.26
  -1  -2  -6   29.36    0.93
   1  -2   6   27.57    0.74
  -1  -2  -6   27.29    1.16
   1   2   6   27.07    1.01
   1   2   6   27.07    0.66
  -1   2  -6   23.22    1.15
  -1   2  -6   25.00    1.04
   1   2   6   27.08    0.65
   1   2   6   25.89    1.14
  -1   2  -6   25.30    0.88
  -1   2  -6   25.70    0.77
  -1   2  -6   25.01    0.72
   1   2   6   26.08    1.21
   1   2   6   28.10    0.90
  -2  -2  -6   32.80    1.39
   2  -2   6   33.81    1.49
   2  -2   6   34.10    1.05
  -2  -2  -6   33.01    0.99
   2   2   6   33.52    1.43
  -2   2  -6   35.18    0.97
  -2   2  -6   36.80    1.14
   2   2   6   34.19    1.02
  -2   2  -6   33.53    1.21
   2   2   6   32.77    0.98
  -2   2  -6   35.20    0.98
   2   2   6   34.59    0.97
   2   2   6   33.10    1.19
   2   2   6   32.92    1.41
  -2   2  -6   34.85    1.43
  -3  -2  -6   13.56    1.07
   3  -2   6   13.49    0.71
   3  -2   6   12.36    1.15
  -3  -2  -6   13.12    0.48
   3  -2   6   13.49    0.65
   3  -2   6   15.75    1.17
  -3  -2  -6   12.92    0.85
   3   2   6   13.76    0.65
  -3   2  -6   14.92    0.58
   3   2   6   13.17    0.79
  -3   2  -6   13.61    1.11
  -3   2  -6   14.95    0.85
   3   2   6   11.88    1.08
  -3   2  -6   15.26    0.63
   3   2   6   11.44    1.09
  -3   2  -6   15.44    0.77
   3   2   6   14.65    0.52
  -3   2  -6   15.03    0.63
   3   2   6   14.02    0.68
   4  -2   6  144.04    4.07
   4  -2   6  146.14    3.56
  -4  -2  -6  146.33    3.68
  -4  -2  -6  135.68    3.92
   4  -2   6  145.97    3.74
   4  -2   6  150.48    4.05
   4   2   6  139.44    3.97
  -4   2  -6  145.46    4.01
  -4   2  -6  147.68    3.58
   4   2   6  145.95    3.66
   4   2   6  145.02    3.78
   4   2   6  146.10    3.71
  -4   2  -6  146.98    3.69
   5  -2   6    5.87    1.02
   5  -2   6    5.62    0.47
  -5  -2  -6    5.16    0.85
  -5  -2  -6    5.74    0.75
   5  -2   6    5.21    0.84
   5   2   6    5.10    0.94
  -5   2  -6    5.94    0.57
  -5   2  -6    6.80    0.95
   5   2   6    5.07    0.70
   5   2   6    5.09    0.61
   5   2   6    5.54    0.72
  -6  -2  -6   19.02    1.06
   6  -2   6   20.49    1.49
   6  -2   6   19.30    1.61
   6  -2   6   20.94    1.63
  -6  -2  -6   17.32    1.17
   6  -2   6   20.83    0.72
  -6  -2  -6   20.31    1.47
  -6   2  -6   20.92    0.95
   6   2   6   19.71    1.22
   6   2   6   21.16    1.35
  -6   2  -6   21.61    1.55
   6   2   6   19.62    1.27
  -6   2  -6   19.82    1.08
   6   2   6   20.81    1.59
  -7  -2  -6   34.41    1.87
  -7  -2  -6   34.80    1.66
   7  -2   6   33.06    1.89
   7  -2   6   33.21    1.89
  -7  -2  -6   32.65    1.06
  -7   2  -6   32.00    1.83
   7   2   6   33.35    1.85
   7   2   6   32.67    1.78
  -7   2  -6   31.81    1.43
   7   2   6   33.07    1.96
  -7   2  -6   32.79    1.18
   7   2   6   31.42    1.57
   8  -2   6    5.47    1.06
  -8  -2  -6    4.30    0.99
   8  -2   6    5.43    1.27
  -8  -2  -6    7.69    1.18
   8   2   6    5.66    1.14
  -8   2  -6    5.12    1.09
   8   2   6    5.82    0.98
  -8   2  -6    5.21    0.89
  -9  -2  -6   73.90    2.80
   9  -2   6   76.43    3.37
  -9  -2  -6   76.36    4.11
   9  -2   6   75.01    3.04
   9   2   6   77.99    3.29
   9   2   6   74.46    3.03
  -9   2  -6   76.38    2.64
 -10  -2  -6    1.92    1.24
  10  -2   6    1.79    1.63
 -10  -2  -6    0.67    1.26
  10  -2   6    2.55    1.32
  10   2   6    0.85    1.25
 -10   2  -6    1.73    1.19
 -10   2  -6    0.25    1.25
  10   2   6    1.90    1.51
 -11  -2  -6    0.13    1.41
  11  -2   6    1.82    1.78
 -11  -2  -6    3.60    1.31
  11  -2   6    0.23    1.39
  11   2   6    1.15    1.51
 -11   2  -6   -0.83    1.42
  11   2   6    1.54    1.79
  12   2   6    0.13    1.85
 -12  -3   6    5.80    2.32
 -12  -3   6    5.88    1.40
  12  -3  -6    7.34    1.64
  12  -3  -6    8.19    2.05
  12  -3  -6    5.75    1.67
 -12   3   6    5.21    1.45
  12   3  -6    1.76    1.50
  12   3  -6    6.29    2.56
 -12   3   6    7.84    1.60
 -12   3   6    6.82    1.95
  11  -3  -6    2.91    1.41
 -11  -3   6    0.75    1.88
  11  -3  -6    1.31    1.33
 -11  -3   6    2.17    1.22
  11  -3  -6    2.25    1.79
  11   3  -6    1.06    1.70
 -11   3   6    0.71    1.10
 -11   3   6    2.79    1.42
 -11   3   6    1.76    1.53
  11   3  -6    0.93    1.41
  10  -3  -6    9.66    1.63
  10  -3  -6    9.83    1.40
 -10  -3   6    9.17    1.89
 -10  -3   6   10.41    1.30
  10  -3  -6    9.06    1.32
 -10   3   6   11.54    1.42
 -10   3   6    7.24    1.46
 -10   3   6    7.25    1.54
  10   3  -6    8.75    1.41
 -10   3   6    8.27    1.15
  10   3  -6    7.92    1.56
   9  -3  -6   14.85    1.63
  -9  -3   6   16.25    2.17
   9  -3  -6   16.67    1.93
  -9  -3   6   15.11    2.11
  -9   3   6   12.68    1.45
  -9   3   6   17.67    1.47
  -9   3   6   13.84    1.95
   9   3  -6   15.79    2.13
  -9   3   6   15.64    1.62
   9   3  -6   14.39    1.81
   8  -3  -6   15.73    1.63
   8  -3  -6   15.67    1.43
  -8  -3   6   13.78    1.90
   8  -3  -6   13.92    1.19
  -8  -3   6   14.12    1.32
   8  -3  -6   14.79    1.76
   8   3  -6   12.34    1.63
   8   3  -6   11.04    1.42
  -8   3   6   13.69    1.42
  -8   3   6   11.57    1.29
   8   3  -6   14.55    1.11
  -8   3   6   14.13    1.65
  -8   3   6   13.95    1.61
  -7  -3   6   13.92    1.64
  -7  -3   6   14.12    1.17
   7  -3  -6   13.00    1.14
   7  -3  -6   13.95    1.21
   7  -3  -6   11.60    1.50
   7  -3  -6   12.63    1.42
   7  -3  -6   14.29    1.30
  -7   3   6   14.13    1.16
   7   3  -6   15.80    1.11
   7   3  -6   12.08    1.46
  -7   3   6   12.83    1.35
   7   3  -6   14.55    1.68
  -7   3   6   12.73    1.50
  -7   3   6   13.69    1.27
   6  -3  -6   11.70    1.07
  -6  -3   6   10.44    1.49
   6  -3  -6   11.74    1.32
   6  -3  -6   13.36    1.22
  -6  -3   6   13.15    1.02
  -6   3   6   11.70    1.35
  -6   3   6   11.71    1.13
  -6   3   6   11.53    1.06
   6   3  -6   11.95    1.32
  -6   3   6   11.08    1.02
   6   3  -6   11.73    1.50
   6   3  -6   12.69    1.01
   5  -3  -6    1.42    0.59
  -5  -3   6    2.37    0.89
  -5  -3   6    2.25    0.55
  -5  -3   6    2.97    0.40
   5  -3  -6    1.58    0.74
   5   3  -6    2.12    0.72
  -5   3   6    3.08    0.70
  -5   3   6    2.43    0.61
   5   3  -6    2.44    0.82
  -5   3   6    1.68    1.17
   5   3  -6    3.30    0.59
  -5   3   6    2.13    0.48
   4  -3  -6    5.51    0.89
   4  -3  -6    6.67    0.83
  -4  -3   6    6.58    0.67
  -4  -3   6    8.97    1.05
  -4  -3   6    8.49    0.56
   4  -3  -6    7.59    0.57
   4  -3  -6    7.17    0.68
  -4   3   6    6.18    0.81
  -4   3   6    4.53    0.77
   4   3  -6    6.48    0.91
  -4   3   6    5.52    0.65
  -4   3   6    6.36    0.81
   4   3  -6    6.48    0.67
   4   3  -6    6.64    0.80
   3  -3  -6    7.08    0.64
  -3  -3   6    6.63    0.46
   3  -3  -6    8.66    0.93
  -3  -3   6    7.66    0.56
   3  -3  -6    6.87    0.56
  -3  -3   6    8.60    1.00
  -3  -3   6    7.21    0.56
  -3  -3   6    7.41    0.40
  -3  -3   6    7.75    0.39
   3  -3  -6    7.15    0.45
   3  -3  -6    6.49    0.85
  -3   3   6    7.98    0.79
   3   3  -6    5.96    0.76
   3   3  -6    8.47    0.80
  -3   3   6    5.41    0.63
  -3   3   6    7.23    0.99
  -3   3   6    6.58    0.64
   3   3  -6    7.38    0.95
  -3   3   6    7.76    0.87
  -2  -3   6   39.27    1.11
  -2  -3   6   38.23    1.64
   2  -3  -6   39.27    1.26
  -2  -3   6   38.14    0.99
   2  -3  -6   39.05    1.47
   2  -3  -6   40.45    1.07
   2  -3  -6   38.53    1.47
  -2  -3   6   39.33    0.99
  -2  -3   6   39.35    1.13
   2  -3  -6   40.47    1.00
   2   3  -6   39.11    1.12
  -2   3   6   39.62    1.29
   2   3  -6   38.30    1.32
  -2   3   6   38.02    1.39
  -2   3   6   37.63    1.54
  -2   3   6   38.74    1.35
   2   3  -6   36.50    1.38
  -1  -3   6   30.20    0.84
  -1  -3   6   31.11    0.84
   1  -3  -6   29.80    1.08
   1  -3  -6   29.29    1.30
   1  -3  -6   29.35    1.21
  -1  -3   6   30.18    1.40
  -1   3   6   31.09    1.35
  -1   3   6   29.88    1.18
   1   3  -6   30.74    1.40
   1   3  -6   32.18    1.18
  -1   3   6   28.39    1.17
   1   3  -6   31.73    0.87
  -1   3   6   30.65    1.12
   0  -3   6   16.31    0.49
   0  -3  -6   18.55    0.84
   0  -3  -6   16.33    0.86
   0  -3  -6   16.74    1.06
   0  -3   6   16.89    1.15
   0   3   6   16.60    1.11
   0   3   6   17.62    0.95
   0   3   6   16.30    0.89
   0   3  -6   15.64    0.95
   0   3  -6   15.78    1.00
   0   3  -6   16.21    0.47
   0   3   6   16.66    0.89
  -1  -3  -6   11.83    1.03
  -1  -3  -6   11.54    0.66
   1  -3   6   11.40    0.42
   1  -3   6   11.84    1.11
  -1   3  -6    9.53    0.83
  -1   3  -6   10.44    0.42
   1   3   6   10.91    0.73
   1   3   6   11.05    0.94
   1   3   6   10.70    0.79
  -1   3  -6   10.93    1.00
  -2  -3  -6  110.99    2.74
   2  -3   6  105.13    3.14
  -2  -3  -6  106.36    3.10
   2  -3   6  107.97    2.89
   2   3   6  106.97    3.07
  -2   3  -6  107.34    2.91
   2   3   6  108.65    2.74
  -2   3  -6  111.11    2.57
  -2   3  -6  106.64    3.11
   2   3   6  106.06    2.53
  -2   3  -6  109.13    2.51
  -2   3  -6  109.57    2.66
   2   3   6  105.70    3.11
   2   3   6  108.05    2.90
   2   3   6  106.86    2.59
   3  -3   6   11.52    1.19
  -3  -3  -6   10.55    1.12
  -3  -3  -6   12.31    0.63
   3  -3   6   13.14    0.89
   3  -3   6   12.18    1.25
  -3   3  -6   12.05    0.45
  -3   3  -6   11.54    1.16
  -3   3  -6   12.71    0.56
   3   3   6   12.25    0.92
  -3   3  -6   11.76    0.72
  -3   3  -6   12.29    0.48
   3   3   6   11.38    0.58
   3   3   6   10.79    1.17
   3   3   6   11.22    0.58
   3   3   6   11.75    0.60
  -3   3  -6   12.27    0.89
  -4  -3  -6    5.44    0.92
   4  -3   6    4.65    0.91
  -4  -3  -6    5.02    0.38
   4  -3   6    4.37    0.96
   4  -3   6    6.17    1.04
  -4  -3  -6    5.10    0.51
  -4   3  -6    5.41    0.42
   4   3   6    5.27    0.60
   4   3   6    5.50    0.92
  -4   3  -6    5.77    0.93
   4   3   6    5.50    0.69
  -4   3  -6    4.91    0.62
   4   3   6    5.50    0.58
  -5  -3  -6    9.66    1.08
   5  -3   6    7.76    1.07
   5  -3   6    9.10    1.16
   5   3   6    8.86    0.98
  -5   3  -6    8.60    0.85
  -5   3  -6    8.70    0.55
   5   3   6    8.76    0.91
   5   3   6    8.47    1.11
  -5   3  -6    8.70    1.18
  -6  -3  -6    2.19    0.52
  -6  -3  -6    2.45    0.73
   6  -3   6    1.27    1.00
  -6  -3  -6    2.27    0.92
   6  -3   6    1.51    0.98
   6   3   6    2.75    0.68
  -6   3  -6    3.33    0.55
   6   3   6    2.32    0.98
  -6   3  -6    2.66    0.92
   6   3   6    2.75    0.75
  -6   3  -6    2.89    0.55
   6   3   6    3.69    0.80
   7  -3   6    5.44    1.06
  -7  -3  -6    3.78    0.87
   7  -3   6    3.87    1.13
  -7  -3  -6    4.86    1.01
  -7  -3  -6    3.48    0.56
  -7   3  -6    7.01    0.77
   7   3   6    4.40    0.95
  -7   3  -6    5.56    1.16
   7   3   6    4.56    0.87
  -7   3  -6    4.41    0.59
   7   3   6    3.79    1.13
   7   3   6    4.32    0.83
  -8  -3  -6   42.02    2.04
   8  -3   6   41.22    2.60
  -8  -3  -6   44.54    2.22
   8  -3   6   45.24    2.37
  -8   3  -6   44.39    1.84
   8   3   6   43.55    2.39
   8   3   6   42.13    2.20
   8   3   6   48.87    2.39
   9  -3   6    6.70    1.54
  -9  -3  -6    8.61    1.24
  -9  -3  -6    9.85    1.41
   9  -3   6   10.74    1.49
   9   3   6    9.17    1.48
   9   3   6    6.30    1.60
   9   3   6    9.87    1.49
  -9   3  -6    9.83    1.41
  10  -3   6   24.23    2.82
 -10  -3  -6   19.48    2.04
 -10  -3  -6   19.93    2.13
  10  -3   6   17.48    2.48
  10   3   6   20.16    2.56
 -10   3  -6   18.55    2.30
  10   3   6   19.73    2.41
 -11  -3  -6    0.37    1.14
  11  -3   6    3.52    1.79
  11  -3   6   -0.62    1.36
 -11   3  -6    1.43    1.53
  11   3   6    1.28    1.55
  12  -4  -6    7.45    1.50
  12  -4  -6    3.62    1.61
  12  -4  -6    8.28    2.58
 -11  -4   6    7.66    1.42
 -11  -4   6    7.72    2.17
  11  -4  -6    6.74    1.90
  11  -4  -6    6.13    1.47
  11  -4  -6    4.28    1.63
  11   4  -6    6.36    2.05
 -11   4   6    4.65    1.77
 -11   4   6    4.74    1.36
  11   4  -6    5.88    1.52
 -11   4   6    6.05    1.55
 -10  -4   6   -0.14    1.10
  10  -4  -6    1.56    1.49
  10  -4  -6    0.18    1.09
  10  -4  -6   -1.89    1.21
 -10  -4   6    3.16    1.85
 -10   4   6    1.36    1.23
 -10   4   6    1.15    1.31
  10   4  -6    0.24    1.29
 -10   4   6    0.82    1.46
  10   4  -6    1.34    1.68
   9  -4  -6   37.91    2.16
  -9  -4   6   35.71    2.62
   9  -4  -6   35.34    2.31
   9  -4  -6   36.40    2.40
  -9  -4   6   40.10    1.94
  -9   4   6   38.39    2.40
  -9   4   6   33.24    1.95
   9   4  -6   38.78    2.32
   9   4  -6   38.00    2.72
  -9   4   6   38.19    2.11
   8  -4  -6    2.05    1.25
   8  -4  -6    1.89    1.05
  -8  -4   6    2.45    0.87
   8  -4  -6    2.29    1.77
   8  -4  -6    1.18    0.88
  -8  -4   6    5.83    1.48
  -8   4   6    2.37    1.07
   8   4  -6    1.61    1.24
   8   4  -6    4.09    0.85
  -8   4   6    3.49    1.00
   8   4  -6    3.13    1.16
  -7  -4   6   20.17    1.32
   7  -4  -6   20.36    1.67
  -7  -4   6   18.82    1.88
   7  -4  -6   18.27    1.85
   7  -4  -6   21.35    1.40
   7  -4  -6   18.82    1.52
   7   4  -6   18.93    1.33
  -7   4   6   24.57    1.39
  -7   4   6   20.45    1.47
   7   4  -6   16.23    1.70
   7   4  -6   15.45    1.71
  -7   4   6   20.45    1.40
  -7   4   6   18.69    1.82
   6  -4  -6    2.32    0.96
   6  -4  -6    1.70    0.83
   6  -4  -6    1.36    0.76
  -6  -4   6    2.41    0.32
  -6  -4   6    2.99    0.66
  -6  -4   6    2.17    1.07
   6  -4  -6    1.57    0.63
  -6   4   6    2.74    0.78
  -6   4   6    2.02    0.73
   6   4  -6    3.21    0.93
   6   4  -6    1.04    0.93
  -6   4   6    1.57    0.95
   6   4  -6    1.52    0.69
   5  -4  -6   68.07    2.41
   5  -4  -6   68.15    2.17
  -5  -4   6   65.71    2.54
   5  -4  -6   70.45    2.30
   5  -4  -6   70.35    2.04
  -5  -4   6   68.06    2.04
  -5   4   6   66.87    2.17
  -5   4   6   65.28    2.43
   5   4  -6   67.10    2.41
   5   4  -6   69.12    2.15
  -5   4   6   67.41    2.19
  -5   4   6   66.74    1.89
   5   4  -6   67.08    2.57
  -4  -4   6   41.94    1.36
   4  -4  -6   41.39    1.27
   4  -4  -6   40.63    1.66
   4  -4  -6   40.03    1.35
   4  -4  -6   42.23    1.76
  -4  -4   6   39.73    1.15
  -4  -4   6   41.92    1.97
   4   4  -6   39.53    1.62
  -4   4   6   40.91    1.27
  -4   4   6   37.94    1.76
   4   4  -6   40.91    1.93
  -4   4   6   38.81    1.54
  -4   4   6   40.47    1.56
   4   4  -6   41.38    1.77
  -3  -4   6    0.92    0.27
  -3  -4   6    1.33    0.31
  -3  -4   6    1.37    0.20
  -3  -4   6    0.88    0.20
   3  -4  -6    1.18    0.65
   3  -4  -6    0.79    0.69
   3  -4  -6    1.21    0.26
   3  -4  -6    1.55    0.32
  -3  -4   6    1.07    0.35
  -3  -4   6    1.27    0.84
  -3   4   6    0.98    0.37
   3   4  -6    0.89    0.76
  -3   4   6    1.03    0.62
   3   4  -6    1.24    0.59
  -3   4   6    0.71    0.57
   3   4  -6    1.11    0.69
  -3   4   6    0.66    0.73
   2  -4  -6   25.79    0.90
   2  -4  -6   23.97    0.70
  -2  -4   6   23.66    0.73
  -2  -4   6   25.39    0.77
   2  -4  -6   24.35    0.70
   2  -4  -6   23.10    1.34
   2  -4  -6   24.37    0.74
  -2  -4   6   24.37    0.72
   2  -4  -6   22.95    1.26
  -2  -4   6   24.44    1.46
  -2   4   6   23.32    1.21
   2   4  -6   23.75    1.13
  -2   4   6   24.08    0.89
  -2   4   6   24.18    1.39
  -2   4   6   24.40    1.14
  -1  -4   6   70.22    2.36
   1  -4  -6   68.66    2.18
  -1  -4   6   72.70    1.70
   1  -4  -6   74.46    1.96
   1  -4  -6   66.20    2.24
   1   4  -6   70.81    2.20
  -1   4   6   69.59    2.31
   1   4  -6   68.52    2.13
  -1   4   6   68.94    2.09
  -1   4   6   69.66    2.08
  -1   4   6   67.67    1.90
   0  -4  -6    1.22    0.54
   0  -4   6    0.87    0.71
   0  -4  -6    1.19    0.68
   0  -4  -6    1.89    0.42
   0   4  -6    0.58    0.52
   0   4   6    0.65    0.52
   0   4   6    0.95    0.42
   0   4  -6    0.88    0.64
   0   4   6    0.40    0.68
   1  -4   6  302.93    7.60
   1  -4   6  303.20    7.44
  -1  -4  -6  302.24    7.58
  -1  -4  -6  305.07    7.33
  -1   4  -6  299.44    7.38
   1   4   6  293.64    7.18
   1   4   6  293.66    7.39
  -1   4  -6  294.43    7.23
  -2  -4  -6   22.58    1.41
   2  -4   6   19.97    1.40
   2  -4   6   19.84    1.15
  -2   4  -6   18.40    1.13
  -2   4  -6   20.01    1.26
   2   4   6   20.88    1.12
   2   4   6   19.29    1.38
  -3  -4  -6   14.59    1.33
  -3  -4  -6   14.58    0.70
   3  -4   6   14.77    1.02
   3  -4   6   14.27    1.38
  -3   4  -6   13.83    0.63
  -3   4  -6   14.17    0.51
  -3   4  -6   14.54    0.53
   3   4   6   12.99    1.04
  -3   4  -6   14.25    1.35
   3   4   6   13.82    0.63
   3   4   6   14.92    0.58
   3   4   6   13.62    1.38
  -3   4  -6   14.77    1.07
   4  -4   6    0.37    0.56
   4  -4   6    0.63    0.86
  -4  -4  -6    0.96    0.30
   4  -4   6    1.57    0.91
  -4  -4  -6    1.19    0.87
  -4   4  -6    1.01    0.88
  -4   4  -6    1.70    0.61
   4   4   6    1.14    0.32
  -4   4  -6    1.26    0.27
   4   4   6    0.47    0.79
   4   4   6    0.02    0.57
   4   4   6    0.87    0.32
   5  -4   6   16.74    1.16
   5  -4   6   15.67    1.58
   5  -4   6   15.04    1.73
  -5  -4  -6   13.65    0.56
  -5  -4  -6   16.63    1.51
  -5   4  -6   16.18    0.66
  -5   4  -6   15.79    1.54
  -5   4  -6   16.59    1.13
   5   4   6   14.97    0.93
   5   4   6   14.83    1.18
   5   4   6   15.06    1.05
   5   4   6   12.86    1.53
   6  -4   6   12.90    1.57
  -6  -4  -6   13.78    1.47
   6  -4   6   13.52    1.81
   6  -4   6   12.60    1.15
  -6  -4  -6   12.47    1.14
  -6   4  -6   14.39    1.64
   6   4   6   13.60    1.35
   6   4   6   13.20    1.65
  -6   4  -6   12.80    1.08
   6   4   6   15.67    1.32
   6   4   6   14.30    1.31
   7  -4   6   26.85    2.37
  -7  -4  -6   26.02    1.85
  -7  -4  -6   22.95    1.54
   7  -4   6   27.70    1.44
  -7  -4  -6   26.07    1.29
   7   4   6   27.54    2.04
  -7   4  -6   25.68    1.39
  -7   4  -6   29.98    2.58
   7   4   6   26.44    1.65
   7   4   6   27.26    1.73
   7   4   6   23.77    1.87
  -8  -4  -6   32.00    1.95
   8  -4   6   30.51    2.53
   8  -4   6   31.25    2.30
  -8  -4  -6   36.62    2.26
   8   4   6   31.52    2.23
  -8   4  -6   29.84    2.19
   8   4   6   32.34    1.90
   8   4   6   34.55    2.14
   8   4   6   37.40    2.43
  -9  -4  -6   18.44    2.17
   9  -4   6   11.89    1.56
  -9  -4  -6   14.08    1.81
   9  -4   6   11.44    1.71
   9   4   6   13.73    1.86
   9   4   6   11.09    1.69
  -9   4  -6   10.08    1.52
  10  -4   6    4.94    1.79
 -10  -4  -6    4.81    1.48
  10  -4   6    1.10    1.60
 -10  -4  -6    6.71    1.51
 -10   4  -6    4.67    1.67
  10   4   6    6.89    2.05
 -11   4  -6   -0.02    1.55
  11  -5  -6   12.91    2.03
  11  -5  -6   16.73    2.25
  11  -5  -6   10.37    1.86
 -11  -5   6   11.94    1.56
 -11   5   6    6.27    1.74
 -11   5   6    3.77    1.83
  10  -5  -6    0.52    1.56
 -10  -5   6    2.30    1.76
  10  -5  -6   -0.27    1.19
  10  -5  -6   -0.43    1.46
 -10  -5   6    0.87    1.16
 -10   5   6    1.01    1.76
 -10   5   6    3.87    1.24
  10   5  -6    1.42    1.90
  10   5  -6    0.77    1.44
 -10   5   6    0.30    1.44
   9  -5  -6   22.71    2.28
  -9  -5   6   18.67    2.54
   9  -5  -6   18.00    2.53
   9  -5  -6   20.66    2.30
  -9  -5   6   21.26    1.69
   9   5  -6   20.51    2.76
   9   5  -6   20.09    2.27
  -9   5   6   20.94    2.05
  -9   5   6   22.28    1.88
  -9   5   6   21.05    2.52
   8  -5  -6    6.50    1.05
   8  -5  -6    5.86    1.33
  -8  -5   6    9.30    1.07
   8  -5  -6    4.43    1.25
   8  -5  -6    5.44    1.24
  -8  -5   6    7.42    1.67
   8   5  -6    6.59    1.35
   8   5  -6    3.63    1.33
   8   5  -6    5.81    0.97
  -8   5   6    6.36    1.52
  -8   5   6    8.22    1.31
  -8   5   6    6.51    1.16
   7  -5  -6   38.19    2.06
   7  -5  -6   37.36    1.81
  -7  -5   6   38.85    1.72
   7  -5  -6   35.10    2.43
   7  -5  -6   38.06    2.14
  -7   5   6   37.95    1.99
   7   5  -6   37.16    2.54
   7   5  -6   37.59    1.87
   7   5  -6   38.13    2.21
  -7   5   6   36.26    2.26
  -6  -5   6    7.95    0.64
   6  -5  -6   11.71    1.57
   6  -5  -6    8.72    1.19
  -6  -5   6    8.32    1.02
   6  -5  -6   10.64    1.41
   6  -5  -6    8.46    1.19
  -6  -5   6   10.91    1.51
   6   5  -6    8.48    1.30
  -6   5   6    8.35    1.23
   6   5  -6    8.55    1.16
  -6   5   6    7.99    0.95
   6   5  -6    7.62    0.96
  -6   5   6    8.49    1.09
  -5  -5   6   30.90    2.03
   5  -5  -6   34.28    1.56
   5  -5  -6   34.75    1.84
  -5  -5   6   32.18    1.32
   5  -5  -6   39.11    2.38
   5  -5  -6   34.09    1.38
   5   5  -6   32.68    1.62
   5   5  -6   34.56    1.95
  -5   5   6   34.40    1.59
   5   5  -6   33.11    1.89
  -5   5   6   34.70    1.65
  -5   5   6   33.23    1.88
   4  -5  -6   16.43    1.45
   4  -5  -6   15.14    0.85
  -4  -5   6   14.96    0.83
  -4  -5   6   15.95    1.62
   4  -5  -6   15.41    1.36
   4  -5  -6   13.90    0.72
  -4   5   6   15.08    1.22
   4   5  -6   14.46    1.46
  -4   5   6   16.08    1.48
   4   5  -6   12.38    1.67
   4   5  -6   15.72    1.23
  -4   5   6   14.81    1.19
  -3  -5   6   35.46    1.06
   3  -5  -6   34.82    1.15
  -3  -5   6   35.75    1.03
   3  -5  -6   34.26    1.66
   3  -5  -6   34.83    1.77
   3  -5  -6   34.64    1.08
  -3  -5   6   35.61    1.85
   3   5  -6   34.07    1.53
  -3   5   6   34.69    1.53
  -3   5   6   33.22    1.44
  -3   5   6   32.21    1.70
  -2  -5   6    2.19    0.29
   2  -5  -6    1.77    0.73
   2  -5  -6    2.38    0.32
  -2  -5   6    2.96    0.94
   2  -5  -6    3.42    0.38
   2  -5  -6    2.29    0.28
   2  -5  -6    2.97    0.89
   2  -5  -6    2.21    0.27
  -2   5   6    1.74    0.71
   2   5  -6    2.35    0.70
  -2   5   6    2.21    0.73
  -2   5   6    2.08    0.82
  -1  -5   6   29.98    1.61
   1  -5  -6   29.57    0.95
   1  -5  -6   27.27    1.60
   1  -5  -6   28.99    0.77
   1  -5  -6   29.64    0.77
   1  -5  -6   29.52    1.45
  -1   5   6   29.23    1.36
   1   5  -6   28.65    1.44
  -1   5   6   29.73    1.61
   0  -5   6   10.16    1.28
   0  -5  -6   10.49    1.19
   0  -5  -6   12.57    0.70
   0  -5   6   11.97    1.15
   0  -5  -6   11.31    1.10
   0   5  -6   10.69    1.10
   0   5   6   11.00    0.93
   0   5   6   11.05    1.28
  -1  -5  -6   95.51    2.24
  -1  -5  -6   93.62    2.97
   1  -5   6   91.55    2.80
  -1  -5  -6   95.69    2.71
   1  -5   6   95.27    2.98
  -1   5  -6   93.85    2.83
  -1   5  -6   93.22    3.03
   1   5   6   97.71    3.03
   1   5   6   98.24    2.78
   2  -5   6    3.86    0.76
  -2  -5  -6    4.57    0.68
   2  -5   6    2.98    0.90
  -2  -5  -6    5.17    0.99
   2   5   6    4.22    0.98
  -2   5  -6    3.99    0.68
   2   5   6    4.35    0.75
  -2   5  -6    3.71    0.95
   3  -5   6    9.23    1.12
  -3  -5  -6    8.99    0.87
   3  -5   6    9.86    1.16
  -3  -5  -6   10.58    1.43
   3   5   6   11.01    1.47
  -3   5  -6    8.23    1.11
   3   5   6    9.44    0.94
  -3   5  -6    8.90    1.11
  -4  -5  -6   -0.12    0.92
  -4  -5  -6    0.23    0.45
   4  -5   6    0.92    0.92
   4  -5   6    1.07    0.96
   4  -5   6    0.98    1.10
  -4   5  -6    0.24    0.89
  -4   5  -6    1.46    0.66
   4   5   6   -0.20    0.96
   4   5   6    0.37    0.31
   4   5   6   -0.20    0.70
   5  -5   6   48.68    1.96
  -5  -5  -6   50.26    2.29
  -5  -5  -6   48.19    1.43
   5  -5   6   49.24    2.23
   5  -5   6   47.04    2.37
  -5   5  -6   50.00    2.34
  -5   5  -6   47.98    1.89
   5   5   6   48.32    2.33
   5   5   6   48.45    1.96
   5   5   6   50.92    1.76
  -6  -5  -6    0.66    0.82
   6  -5   6    1.64    0.87
   6  -5   6   -1.13    1.09
  -6  -5  -6   -0.09    1.06
  -6   5  -6    0.11    0.69
  -6   5  -6    0.06    1.40
   6   5   6   -0.03    0.71
   6   5   6    1.62    2.01
   6   5   6   -0.44    0.90
  -7  -5  -6   11.16    1.38
   7  -5   6   11.46    1.40
   7  -5   6    8.84    1.49
  -7  -5  -6   12.88    1.55
  -7   5  -6   11.74    1.31
  -7   5  -6   12.81    1.60
   7   5   6   13.43    1.62
   7   5   6   11.73    1.53
   7   5   6   12.29    1.54
  -8  -5  -6   16.92    1.67
   8  -5   6   23.45    2.68
  -8  -5  -6   23.32    2.21
   8  -5   6   18.01    1.86
  -8   5  -6   21.90    2.25
   8   5   6   19.70    1.87
   8   5   6   22.12    2.45
   9  -5   6    2.08    1.40
  -9  -5  -6    3.55    1.46
  -9  -5  -6    4.06    1.25
   9  -5   6    0.25    1.59
  -9   5  -6    2.01    1.57
   9   5   6    3.65    1.77
 -10  -5  -6   13.54    1.83
 -10   5  -6   13.71    2.05
 -10  -6   6    3.95    1.26
  10  -6  -6    3.22    1.64
 -10  -6   6    4.89    1.86
 -10   6   6   -0.86    1.50
  10   6  -6    1.30    1.90
 -10   6   6    5.06    1.89
 -10   6   6    1.72    1.32
  10   6  -6    4.40    2.03
   9  -6  -6    1.91    1.55
   9  -6  -6    1.59    1.33
  -9  -6   6    3.03    1.11
  -9  -6   6    3.60    1.91
  -9   6   6    0.80    1.41
   9   6  -6    4.66    1.55
   9   6  -6    2.64    1.96
  -9   6   6    3.00    1.70
  -9   6   6    1.93    1.22
   8  -6  -6    4.36    1.48
  -8  -6   6    5.51    1.07
   8  -6  -6    5.24    1.98
  -8  -6   6    7.30    1.72
   8  -6  -6    6.82    1.01
   8  -6  -6    6.18    1.36
  -8   6   6    6.32    1.36
  -8   6   6    7.15    1.55
   8   6  -6    6.42    1.53
   8   6  -6    6.78    1.70
  -8   6   6    7.43    1.34
  -7  -6   6   14.09    1.85
   7  -6  -6   15.11    1.68
   7  -6  -6   14.25    1.88
  -7  -6   6   13.82    1.37
   7  -6  -6   10.30    1.54
   7  -6  -6   11.71    1.65
   7   6  -6   12.59    1.74
   7   6  -6   14.73    2.03
   7   6  -6   13.53    1.75
  -7   6   6   12.89    1.60
  -7   6   6   14.00    1.67
  -7   6   6   13.28    1.47
  -6  -6   6   34.46    1.55
   6  -6  -6   31.65    1.92
   6  -6  -6   34.06    1.71
   6  -6  -6   34.59    2.28
  -6  -6   6   33.38    2.78
   6  -6  -6   34.51    2.09
   6   6  -6   31.63    2.50
  -6   6   6   33.10    2.18
   6   6  -6   33.90    2.23
   6   6  -6   32.07    1.95
  -6   6   6   32.83    1.79
  -6   6   6   32.67    1.90
   5  -6  -6   14.32    1.17
   5  -6  -6   12.60    1.45
   5  -6  -6   17.83    1.98
   5  -6  -6   13.54    1.37
  -5  -6   6   13.95    1.05
  -5  -6   6   13.52    1.79
  -5   6   6   14.23    1.49
  -5   6   6   12.28    1.43
   5   6  -6   15.27    2.15
  -5   6   6   13.57    1.77
   5   6  -6   11.62    1.44
   5   6  -6   12.53    1.49
   4  -6  -6   51.32    1.73
   4  -6  -6   51.75    2.19
  -4  -6   6   52.19    2.45
   4  -6  -6   48.66    2.34
  -4  -6   6   49.83    1.59
  -4   6   6   51.95    2.09
  -4   6   6   49.36    2.31
  -4   6   6   48.68    2.00
   4   6  -6   52.71    2.09
  -3  -6   6    2.58    0.28
   3  -6  -6    3.75    1.22
  -3  -6   6    2.82    1.05
   3  -6  -6    1.82    0.36
   3  -6  -6    3.93    0.99
   3  -6  -6    2.12    0.32
   3   6  -6    2.52    0.89
  -3   6   6    3.03    0.90
  -3   6   6    3.22    0.98
  -3   6   6    3.19    0.85
  -2  -6   6   18.51    1.55
  -2  -6   6   18.19    1.40
   2  -6  -6   18.20    1.67
   2  -6  -6   18.05    0.70
   2  -6  -6   21.58    1.50
  -2   6   6   18.87    1.62
  -2   6   6   19.92    1.37
  -2   6   6   19.62    1.30
   2   6  -6   16.44    1.43
   1  -6  -6   12.54    1.55
  -1  -6   6   14.85    1.45
   1  -6  -6   14.37    1.31
  -1  -6   6   14.24    1.35
  -1   6   6   12.76    1.50
  -1   6   6   14.45    1.21
   1   6  -6   13.71    1.30
   0  -6  -6   22.54    1.71
   0  -6  -6   22.11    1.39
   0  -6   6   22.62    1.49
   0  -6   6   21.85    1.57
   0   6  -6   23.35    1.35
   0   6   6   20.56    1.35
   0   6   6   20.48    1.62
  -1  -6  -6   28.72    1.48
   1  -6   6   24.66    1.56
  -1  -6  -6   26.09    1.65
   1  -6   6   25.59    1.64
   1   6   6   24.52    1.68
  -1   6  -6   26.18    1.50
   1   6   6   24.80    1.40
  -2  -6  -6   41.70    1.72
   2  -6   6   43.45    1.98
   2  -6   6   45.31    1.99
  -2   6  -6   42.51    1.85
   2   6   6   44.24    1.81
   2   6   6   44.88    2.15
   3  -6   6    6.40    1.07
  -3  -6  -6    4.62    0.77
  -3  -6  -6    6.79    1.24
   3  -6   6    5.29    0.98
   3   6   6    6.57    1.23
   3   6   6    5.38    0.92
  -3   6  -6    5.58    0.86
  -4  -6  -6   35.03    2.14
   4  -6   6   37.77    1.92
  -4  -6  -6   37.75    1.55
   4  -6   6   30.54    2.78
   4  -6   6   37.84    1.94
  -4   6  -6   35.66    1.71
   4   6   6   36.62    2.17
   4   6   6   35.70    1.79
   5  -6   6   24.59    1.94
   5  -6   6   24.68    1.79
  -5  -6  -6   26.45    2.03
   5  -6   6   25.05    2.35
   5   6   6   24.76    1.68
   5   6   6   27.00    2.21
  -5   6  -6   25.67    1.63
   6  -6   6   19.15    1.83
  -6  -6  -6   16.76    1.95
  -6  -6  -6   17.49    1.44
   6  -6   6   16.69    2.29
  -6   6  -6   19.46    1.54
   6   6   6   16.06    1.67
   6   6   6   20.02    2.13
   7  -6   6   28.88    1.99
   7  -6   6   26.97    2.69
  -7  -6  -6   28.01    2.00
  -7  -6  -6   26.71    2.27
  -7   6  -6   27.48    1.72
   7   6   6   27.11    2.03
   7   6   6   25.06    2.52
   8  -6   6   22.74    2.90
  -8  -6  -6   21.94    2.04
  -8  -6  -6   24.37    2.46
   8  -6   6   19.03    2.53
   8   6   6   21.28    2.75
   8   6   6   24.85    2.07
  -9  -6  -6    4.92    1.58
   9  -6   6    0.79    1.79
   9  -6   6    0.71    1.85
   9   6   6    1.69    1.80
  -9  -7   6   19.65    2.41
   9  -7  -6   13.30    2.02
  -9  -7   6   19.86    2.11
  -9   7   6   23.10    2.46
   9   7  -6   16.56    2.19
  -9   7   6   14.48    2.17
  -9   7   6   14.61    1.57
  -8  -7   6    8.80    1.49
   8  -7  -6    8.12    1.85
  -8  -7   6    6.08    1.86
   8   7  -6    6.94    1.80
   8   7  -6    3.68    2.01
  -8   7   6    8.20    1.46
  -8   7   6    7.45    1.68
  -8   7   6    7.40    1.87
  -7  -7   6    7.13    1.38
  -7  -7   6    5.63    1.66
   7  -7  -6    5.39    1.58
   7  -7  -6    5.78    1.85
  -7   7   6    4.06    1.58
  -7   7   6    3.64    1.48
   7   7  -6    5.26    1.86
   7   7  -6    3.05    1.56
   7   7  -6    5.63    1.30
  -7   7   6    3.38    1.23
  -6  -7   6    7.37    1.25
   6  -7  -6    5.37    1.62
  -6  -7   6    6.29    1.62
   6  -7  -6    6.29    1.47
   6   7  -6    5.76    1.20
  -6   7   6    5.21    1.16
  -6   7   6    5.62    1.45
  -6   7   6    5.74    1.29
   5  -7  -6   -0.13    1.49
   5  -7  -6    1.02    1.06
  -5  -7   6   -0.42    0.96
  -5   7   6    0.23    1.74
   5   7  -6    0.94    1.66
  -5   7   6    1.07    1.01
  -4  -7   6   15.93    1.93
   4  -7  -6   15.67    1.79
  -4  -7   6   14.57    1.64
  -4   7   6   16.36    1.64
   4   7  -6   16.10    1.95
  -4   7   6   15.76    2.06
  -4   7   6   15.79    1.76
  -3  -7   6   18.34    1.65
  -3  -7   6   19.53    1.92
   3  -7  -6   19.53    2.25
   3  -7  -6   17.11    1.99
  -3   7   6   17.08    1.93
  -3   7   6   18.89    1.54
   2  -7  -6   49.28    2.41
  -2  -7   6   51.78    2.35
   2  -7  -6   49.20    2.23
  -2   7   6   47.22    2.07
  -2   7   6   50.15    2.42
   2   7  -6   47.97    2.64
  -1  -7   6   43.69    2.13
   1  -7  -6   42.07    2.38
   1  -7  -6   42.83    1.99
  -1  -7   6   44.39    2.39
  -1   7   6   41.04    1.89
   1   7  -6   43.36    2.25
  -1   7   6   43.40    2.31
   0  -7  -6   19.55    1.56
   0  -7  -6   23.10    2.58
   0  -7   6   18.93    1.63
   0  -7   6   17.56    1.66
   0   7  -6   17.76    2.30
   0   7   6   19.40    1.49
   0   7   6   16.91    1.77
  -1  -7  -6    4.08    2.26
   1  -7   6    2.50    1.09
   1  -7   6    5.76    1.23
  -1  -7  -6    4.76    0.99
   1   7   6    4.36    1.22
   1   7   6    3.34    0.92
  -2  -7  -6    3.39    1.20
   2  -7   6    4.59    1.22
  -2  -7  -6    5.36    0.94
   2  -7   6    4.30    1.12
  -2   7  -6    2.64    1.29
   2   7   6    3.61    1.22
   2   7   6    3.15    1.22
   3  -7   6   15.29    1.69
  -3  -7  -6   17.11    1.44
  -3  -7  -6   14.89    1.89
   3  -7   6   16.82    2.21
   3   7   6   17.85    2.10
  -3   7  -6   18.07    1.61
   3   7   6   18.01    1.61
  -4  -7  -6   15.78    1.39
  -4  -7  -6   14.93    1.74
   4  -7   6   14.98    1.72
   4  -7   6   15.27    2.14
  -4   7  -6   17.97    1.59
   4   7   6   15.76    1.63
   4   7   6   14.92    1.69
  -5  -7  -6    7.79    1.53
   5  -7   6    7.77    1.34
   5  -7   6    6.75    1.56
  -5   7  -6    6.49    1.09
   5   7   6    7.18    1.26
   5   7   6    7.66    1.51
   6  -7   6   18.50    2.17
  -6  -7  -6   14.29    1.82
  -6  -7  -6   16.92    1.80
   6  -7   6   14.64    1.95
  -6   7  -6   15.75    1.67
   6   7   6   12.54    1.44
   6   7   6   19.05    2.50
  -7  -7  -6   11.54    1.58
   7  -7   6    6.48    1.79
  -7  -7  -6   13.43    1.84
   7   7   6   14.95    2.05
  -7   7  -6   10.91    1.21
   7   7   6   14.45    1.65
  -8  -7  -6    3.29    1.54
   8   7   6   -0.17    1.76
   8   7   6    1.70    1.24
  -8  -8   6    5.09    1.63
  -8  -8   6    8.18    1.86
  -8   8   6   -0.03    1.78
  -8   8   6    3.94    1.88
   7  -8  -6    7.19    1.74
   7  -8  -6    9.27    2.35
  -7  -8   6   10.02    1.98
  -7  -8   6   14.10    2.05
  -7   8   6    9.11    1.51
   7   8  -6    8.31    1.60
  -7   8   6    9.88    1.66
  -7   8   6    5.40    1.97
  -6  -8   6    9.41    1.76
   6  -8  -6    4.15    2.07
   6  -8  -6    1.92    1.62
  -6  -8   6    4.59    1.29
  -6   8   6    5.79    1.49
  -6   8   6    1.94    1.29
   6   8  -6    4.36    1.44
  -6   8   6    6.04    1.79
   5  -8  -6    0.70    1.80
   5  -8  -6    2.16    1.46
  -5  -8   6    2.59    1.24
  -5  -8   6    2.58    1.51
  -5   8   6   -0.23    1.23
  -5   8   6    1.63    1.61
  -5   8   6    2.28    1.33
   5   8  -6    1.11    1.26
  -4  -8   6   11.05    1.46
   4  -8  -6   12.89    1.96
   4  -8  -6   13.95    1.69
   4   8  -6   11.50    1.47
  -4   8   6   13.78    1.42
  -4   8   6   11.42    1.75
  -3  -8   6   22.59    2.06
   3  -8  -6   21.69    2.08
  -3  -8   6   25.80    2.17
   3  -8  -6   19.90    2.39
  -3   8   6   16.87    1.86
   3   8  -6   19.25    1.93
  -3   8   6   19.80    2.25
   2  -8  -6    4.99    1.29
   2  -8  -6    4.21    1.55
  -2  -8   6    5.00    1.29
  -2  -8   6    3.53    1.21
  -2   8   6    2.99    1.06
   2   8  -6    2.85    1.11
   1  -8  -6   13.98    1.67
  -1  -8   6   10.44    1.37
   1  -8  -6    9.59    1.69
  -1  -8   6   10.36    1.40
  -1   8   6    9.84    1.26
   1   8  -6   11.50    1.34
   0  -8  -6   10.07    1.58
   0  -8   6   13.45    1.59
   0  -8  -6   14.01    1.69
   0   8  -6   14.78    1.74
   0   8   6   13.80    1.64
  -1  -8  -6   12.80    1.69
  -1  -8  -6   10.23    1.66
   1  -8   6   13.93    1.92
   1   8   6   11.76    1.26
   1   8   6    9.47    1.61
  -1   8  -6   11.35    1.33
  -2  -8  -6   20.99    2.20
  -2  -8  -6   15.60    2.25
   2  -8   6   18.99    2.06
   2   8   6   13.43    1.78
   2   8   6   19.36    2.32
  -2   8  -6   19.07    1.85
   3  -8   6    0.07    1.28
  -3  -8  -6   -0.16    1.41
   3  -8   6    0.25    1.55
  -3   8  -6   -0.07    1.01
   3   8   6    0.20    1.01
   3   8   6    1.73    1.54
   4  -8   6    0.42    1.49
   4  -8   6    1.24    1.37
  -4  -8  -6    0.06    1.35
   4   8   6   -2.29    1.47
  -4   8  -6    0.27    1.05
   4   8   6   -0.03    1.18
   5  -8   6    2.96    1.74
  -5  -8  -6    5.52    1.66
   5  -8   6    6.54    1.57
  -5   8  -6    2.05    1.19
   5   8   6    1.69    1.19
   5   8   6    7.01    1.86
  -6  -8  -6   13.62    1.97
   6  -8   6   15.23    2.12
  -6  -8  -6   13.95    1.91
   6  -8   6   19.09    2.54
  -6   8  -6   15.79    2.02
   6   8   6   16.48    1.73
   6   8   6   15.25    2.22
  -7  -8  -6    8.26    2.16
   7   8   6    7.53    2.55
   6  -9  -6    8.29    2.23
   6   9  -6   12.53    1.76
  -6   9   6    7.82    1.45
  -5  -9   6    4.97    1.29
   5  -9  -6    5.11    1.95
   5  -9  -6    3.23    2.12
  -5   9   6    3.11    1.43
   5   9  -6    2.90    1.49
   4  -9  -6    0.50    1.40
   4  -9  -6    1.86    2.06
  -4  -9   6   -0.35    1.29
  -4   9   6    1.18    1.37
   4   9  -6   -0.49    1.36
   3  -9  -6    2.63    1.56
  -3  -9   6    3.94    1.36
   3  -9  -6    5.59    2.07
  -3   9   6    3.24    1.63
   3   9  -6    5.89    1.48
  -3   9   6    1.68    1.35
  -2  -9   6   13.11    1.72
   2  -9  -6   15.65    2.46
   2   9  -6   16.35    2.18
  -2   9   6   18.25    2.11
  -2   9   6   11.89    1.81
   1  -9  -6    0.34    1.80
  -1  -9   6   -1.11    1.47
   1  -9  -6    1.44    1.33
  -1   9   6    0.55    1.22
  -1   9   6    3.03    1.68
   1   9  -6   -0.15    1.29
   0  -9  -6    9.36    1.44
   0  -9  -6    6.44    1.83
   0   9   6    8.92    1.88
   0   9   6    8.90    1.37
   0   9  -6   11.15    1.53
  -1  -9  -6   -0.19    1.65
  -1  -9  -6    1.91    1.19
   1  -9   6   -0.28    1.43
   1   9   6   -1.43    1.23
   1   9   6    0.56    1.64
  -1   9  -6    2.92    1.19
  -2  -9  -6   10.09    1.40
  -2  -9  -6    6.12    1.87
   2  -9   6    8.58    1.72
   2   9   6    6.03    1.88
  -2   9  -6    7.80    1.39
   2   9   6    6.19    1.44
   3  -9   6    0.06    1.66
  -3  -9  -6   -2.07    1.51
   3  -9   6    1.16    1.58
  -3  -9  -6    2.59    1.31
  -3   9  -6    0.89    1.34
   3   9   6   -1.49    1.82
   3   9   6    0.41    1.24
  -4  -9  -6   10.40    1.74
   4  -9   6   10.70    1.78
   4   9   6    8.61    1.47
  -4   9  -6    9.76    1.49
   4   9   6   11.03    2.01
   5  -9   6    8.14    1.63
  -5  -9  -6    4.25    2.01
   5   9   6    3.40    1.43
   5   9   6    7.18    1.94
  -5   9  -6    4.90    1.37
  -3  10   6   -0.32    1.34
  -2  10   6    7.84    1.45
  -1  10   6   16.95    2.19
   0 -10  -6    2.32    1.67
   0  10   6   -2.29    1.26
  -1 -10  -6    5.11    1.36
   1  10   6    2.17    1.35
  -2 -10  -6    0.00    1.07
 -12   0   7    4.05    1.39
 -12   0   7    2.71    1.61
  12   0  -7   -1.24    1.51
  12   0  -7    1.51    1.92
 -12   0   7    2.64    1.94
 -12   0   7    3.42    1.19
 -11   0   7    6.17    1.78
 -11   0   7    1.92    1.39
 -11   0   7    3.57    1.11
 -11   0   7    4.77    1.28
  11   0  -7    3.73    1.31
  11   0  -7    3.02    1.72
  11   0  -7    2.40    1.34
 -10   0   7   39.82    2.10
 -10   0   7   39.86    2.42
  10   0  -7   37.45    2.27
  10   0  -7   38.14    2.64
 -10   0   7   36.53    1.89
  10   0  -7   39.74    2.26
 -10   0   7   41.44    2.64
  -9   0   7   34.03    2.33
  -9   0   7   34.51    1.69
   9   0  -7   35.47    1.98
   9   0  -7   30.08    1.93
  -9   0   7   36.56    2.30
   9   0  -7   34.97    2.29
   8   0  -7    1.88    0.84
  -8   0   7    2.92    1.17
  -8   0   7    2.92    0.76
  -8   0   7    2.29    0.82
   8   0  -7    1.91    0.59
   8   0  -7    4.19    1.17
   8   0  -7    1.64    0.92
  -8   0   7    1.52    0.99
   7   0  -7    0.52    0.95
   7   0  -7    0.54    0.51
   7   0  -7    1.16    0.73
  -7   0   7    1.03    0.84
   7   0  -7    0.54    0.76
  -7   0   7    2.00    0.99
  -7   0   7    1.42    0.60
  -7   0   7    1.02    0.66
   6   0  -7   12.95    1.17
  -6   0   7   10.01    1.34
   6   0  -7   14.17    1.34
  -6   0   7   12.19    1.05
  -6   0   7   11.45    0.94
   6   0  -7   10.42    1.12
  -6   0   7   14.07    1.28
   6   0  -7   12.20    0.90
  -5   0   7    3.59    0.73
   5   0  -7    3.09    0.24
   5   0  -7    2.47    0.56
  -5   0   7    3.13    0.64
   5   0  -7    3.67    0.76
  -5   0   7    3.40    0.57
  -5   0   7    2.45    0.79
   5   0  -7    3.22    0.53
   5   0  -7    2.84    0.64
  -4   0   7  374.24    9.18
   4   0  -7  376.21    9.20
  -4   0   7  372.94    9.07
  -4   0   7  382.19    9.00
   4   0  -7  396.52    9.19
  -4   0   7  381.67    9.31
   4   0  -7  375.90    9.16
   4   0  -7  380.06    9.04
   4   0  -7  375.15    8.85
   3   0  -7    3.55    0.49
  -3   0   7    5.50    0.47
  -3   0   7    4.15    0.54
  -3   0   7    4.81    0.64
   3   0  -7    4.22    0.55
   3   0  -7    4.67    0.64
   3   0  -7    3.25    0.54
  -3   0   7    4.04    0.72
   3   0  -7    4.82    0.51
  -3   0   7    5.18    0.58
   2   0  -7   79.30    2.15
   2   0  -7   79.58    2.09
  -2   0   7   78.07    2.18
  -2   0   7   80.09    2.08
  -2   0   7   79.65    2.13
   2   0  -7   78.18    2.19
   2   0  -7   79.96    2.24
  -2   0   7   81.50    2.39
  -2   0   7   81.47    2.08
   2   0  -7   77.39    2.24
  -2   0   7   79.54    2.39
   1   0  -7   51.63    1.56
  -1   0   7   48.59    1.46
  -1   0   7   51.12    1.40
  -1   0   7   48.31    1.77
   1   0  -7   50.05    1.53
  -1   0   7   50.76    1.58
   1   0  -7   50.12    1.58
  -1   0   7   51.30    1.41
  -1   0   7   50.39    1.49
   0   0  -7   48.83    1.64
   0   0  -7   57.74    1.53
   0   0   7   50.10    1.40
   0   0   7   48.87    1.46
   0   0   7   49.35    1.57
   0   0  -7   48.77    1.58
   0   0   7   50.37    1.40
   0   0   7   51.34    1.84
   0   0   7   50.40    1.49
   0   0  -7   49.07    1.47
   1   0   7   30.24    1.16
   1   0   7   30.88    0.99
  -1   0  -7   30.86    1.25
   1   0   7   32.41    1.10
  -1   0  -7   32.03    1.18
   1   0   7   32.00    1.04
   1   0   7   30.38    1.46
  -2   0  -7    0.51    0.52
   2   0   7    0.17    0.66
   2   0   7    0.14    0.27
   2   0   7    0.42    0.51
  -2   0  -7    0.10    0.39
   2   0   7    0.04    0.28
   2   0   7   -0.03    0.35
   3   0   7   91.80    2.90
  -3   0  -7   90.77    2.78
  -3   0  -7   92.25    2.52
   3   0   7   91.81    2.59
   3   0   7   97.19    2.93
   3   0   7   93.31    2.27
   3   0   7   93.42    2.46
   4   0   7    3.13    0.52
   4   0   7    3.23    0.71
  -4   0  -7    3.01    0.48
   4   0   7    3.13    0.55
  -4   0  -7    1.78    0.68
   4   0   7    3.55    0.65
   4   0   7    3.76    0.95
  -5   0  -7  212.27    5.68
   5   0   7  214.82    5.48
   5   0   7  219.67    5.40
  -5   0  -7  218.58    5.43
   5   0   7  217.03    5.59
  -5   0  -7  219.01    5.32
   5   0   7  220.63    5.67
   5   0   7  216.45    5.89
  -6   0  -7   76.73    2.16
   6   0   7   79.28    2.68
  -6   0  -7   78.00    2.39
   6   0   7   77.33    2.64
   6   0   7   77.53    2.53
   7   0   7   12.25    1.28
   7   0   7    8.71    1.11
  -7   0  -7    8.57    0.96
  -7   0  -7    8.94    0.97
   7   0   7   10.54    1.35
  -7   0  -7   10.07    1.23
   8   0   7    1.54    0.88
  -8   0  -7    4.07    1.13
   8   0   7    2.73    1.14
  -8   0  -7    2.41    0.93
  -9   0  -7   -0.67    1.07
   9   0   7   -2.59    1.18
  -9   0  -7    0.14    0.98
   9   0   7   -0.34    1.01
  10   0   7   -1.58    1.49
 -10   0  -7    0.45    1.18
  10   0   7    1.25    1.16
 -10   0  -7    0.24    1.29
  11   0   7    0.64    1.77
 -11   0  -7    2.29    1.37
  11   0   7   -1.16    1.29
 -11   0  -7    0.98    1.36
  12  -1  -7    2.86    2.06
  12  -1  -7    4.07    1.62
 -12  -1   7    2.76    1.14
 -12  -1   7    5.44    2.07
 -12  -1   7    6.40    1.43
  12  -1  -7    2.90    1.53
 -12   1   7    1.90    1.55
  12   1  -7    1.06    1.53
 -12   1   7    4.40    1.48
  12   1  -7    4.68    1.93
 -12   1   7    3.48    1.29
 -12   1   7    5.98    2.11
 -11  -1   7    6.80    1.37
  11  -1  -7    1.84    1.63
 -11  -1   7    3.59    1.80
  11  -1  -7    5.36    1.40
  11  -1  -7    5.44    1.44
 -11  -1   7    4.71    1.05
  11   1  -7    4.02    1.79
 -11   1   7    2.89    1.46
 -11   1   7    4.03    1.18
 -11   1   7    3.82    1.70
 -11   1   7    3.16    1.27
  11   1  -7    2.83    1.39
  10  -1  -7    3.92    1.23
 -10  -1   7    3.09    1.05
 -10  -1   7    4.55    1.53
  10  -1  -7    2.34    1.39
  10  -1  -7    3.46    1.14
 -10  -1   7    5.15    0.94
 -10   1   7    4.83    1.26
  10   1  -7    5.46    1.23
  10   1  -7    3.30    1.43
 -10   1   7    3.54    2.69
 -10   1   7    6.86    1.24
 -10   1   7    4.47    1.11
  -9  -1   7   28.65    1.54
   9  -1  -7   27.70    1.87
  -9  -1   7   31.02    2.31
   9  -1  -7   25.92    2.15
   9  -1  -7   29.66    1.89
   9   1  -7   31.08    2.96
  -9   1   7   28.09    2.50
  -9   1   7   23.04    2.36
  -9   1   7   30.15    2.15
   9   1  -7   27.66    1.94
  -9   1   7   26.96    1.88
  -8  -1   7   16.61    1.79
   8  -1  -7   14.88    1.46
  -8  -1   7   15.46    1.15
   8  -1  -7   13.45    1.71
  -8  -1   7   13.81    1.28
   8  -1  -7   13.93    1.50
   8  -1  -7   14.73    1.07
  -8   1   7   15.87    1.77
   8   1  -7   17.20    1.08
   8   1  -7   16.13    1.55
   8   1  -7   16.44    1.82
   8   1  -7   15.87    1.49
  -8   1   7   16.25    1.27
  -8   1   7   17.79    1.40
  -8   1   7   15.99    1.65
  -7  -1   7   51.84    2.37
   7  -1  -7   54.28    1.76
   7  -1  -7   55.11    2.23
   7  -1  -7   52.89    2.07
  -7  -1   7   51.96    1.80
  -7  -1   7   51.85    1.95
   7  -1  -7   57.17    2.05
  -7   1   7   48.60    2.19
   7   1  -7   51.05    1.69
  -7   1   7   52.10    1.90
   7   1  -7   50.50    2.29
  -7   1   7   52.93    2.22
   7   1  -7   54.18    2.07
  -7   1   7   54.63    1.87
   7   1  -7   51.02    2.02
  -6  -1   7   44.93    2.06
   6  -1  -7   45.86    1.71
   6  -1  -7   44.48    1.92
  -6  -1   7   45.32    1.57
  -6  -1   7   45.73    1.69
  -6  -1   7   47.37    1.88
   6  -1  -7   48.20    1.57
   6  -1  -7   45.52    1.17
   6  -1  -7   42.84    1.86
   6  -1  -7   44.89    1.16
   6   1  -7   46.24    1.94
   6   1  -7   46.81    1.57
  -6   1   7   46.48    1.91
  -6   1   7   46.43    1.67
  -6   1   7   46.90    2.00
   6   1  -7   50.16    1.87
   6   1  -7   46.43    1.83
  -6   1   7   47.53    1.76
   5  -1  -7  162.04    4.29
  -5  -1   7  160.66    4.50
  -5  -1   7  159.54    4.15
  -5  -1   7  160.03    4.29
   5  -1  -7  160.04    3.89
   5  -1  -7  160.88    4.28
   5  -1  -7  164.28    4.14
  -5  -1   7  164.54    4.06
   5  -1  -7  161.01    4.11
   5   1  -7  159.92    4.39
   5   1  -7  164.43    4.25
  -5   1   7  165.00    4.15
  -5   1   7  156.87    4.33
   5   1  -7  160.89    4.30
  -5   1   7  164.21    4.40
  -5   1   7  161.24    4.22
   5   1  -7  161.55    4.10
   4  -1  -7    1.36    0.34
   4  -1  -7    0.94    0.44
  -4  -1   7    0.77    0.73
   4  -1  -7    1.34    0.54
   4  -1  -7    2.49    0.38
   4  -1  -7    1.42    0.50
  -4  -1   7    1.61    0.25
  -4  -1   7    0.80    0.49
  -4  -1   7    1.26    0.55
  -4   1   7    1.17    0.56
  -4   1   7    1.28    0.67
   4   1  -7    1.19    0.28
   4   1  -7    0.25    0.51
   4   1  -7    0.43    0.51
   4   1  -7    1.50    0.46
  -4   1   7    1.23    0.66
   4   1  -7    0.66    0.63
  -4   1   7    0.67    0.44
  -3  -1   7   14.88    0.86
   3  -1  -7   14.89    0.95
   3  -1  -7   14.63    0.65
  -3  -1   7   13.21    1.13
  -3  -1   7   14.82    0.64
  -3  -1   7   14.27    0.61
   3  -1  -7   15.81    0.91
  -3  -1   7   13.85    0.91
   3  -1  -7   14.38    0.78
   3  -1  -7   13.48    0.72
   3   1  -7   14.54    0.87
  -3   1   7   14.63    1.05
  -3   1   7   14.75    1.03
   3   1  -7   13.34    0.94
  -3   1   7   14.30    0.77
  -3   1   7   14.72    0.83
  -3   1   7   12.67    0.67
  -3   1   7   14.44    0.80
   3   1  -7   14.34    1.04
   3   1  -7   13.71    0.66
  -2  -1   7   99.62    2.63
   2  -1  -7  100.71    2.55
   2  -1  -7   98.49    2.63
   2  -1  -7   98.77    2.45
   2  -1  -7   96.03    2.69
  -2  -1   7  101.48    2.56
  -2  -1   7   96.99    2.90
  -2  -1   7   99.80    2.46
  -2  -1   7  101.39    2.58
   2  -1  -7   95.59    2.65
   2   1  -7   96.85    2.75
  -2   1   7   97.08    2.60
  -2   1   7  100.45    2.57
   2   1  -7   98.40    2.63
   2   1  -7  100.43    2.69
   2   1  -7   97.36    2.59
  -2   1   7  103.71    2.69
  -2   1   7  100.49    2.80
  -2   1   7  101.39    2.47
   1  -1  -7   18.33    0.93
  -1  -1   7   18.83    0.72
  -1  -1   7   18.06    0.80
  -1  -1   7   18.44    1.08
  -1  -1   7   19.00    0.65
   1  -1  -7   17.57    0.85
   1  -1  -7   17.36    0.86
  -1   1   7   16.01    0.98
   1   1  -7   18.25    0.83
  -1   1   7   15.50    1.21
  -1   1   7   17.31    0.90
   1   1  -7   19.05    0.71
  -1   1   7   18.27    0.70
  -1   1   7   15.52    1.18
   1   1  -7   17.23    0.86
   1   1  -7   17.98    0.66
   1   1  -7   17.81    0.87
  -1   1   7   17.79    0.58
   0  -1  -7   32.01    1.31
   0  -1  -7   32.06    1.17
   0  -1  -7   31.57    1.08
   0  -1   7   33.40    1.01
   0  -1   7   32.40    0.93
   0  -1   7   32.13    1.09
   0  -1   7   32.43    1.41
   0   1   7   31.44    1.52
   0   1   7   30.15    1.16
   0   1   7   31.97    1.17
   0   1  -7   34.74    0.97
   0   1   7   31.16    1.29
   0   1   7   32.77    0.98
   0   1  -7   32.61    1.43
   0   1  -7   32.62    1.22
   0   1   7   32.25    0.89
   0   1  -7   32.75    1.15
   0   1  -7   33.39    1.03
  -1  -1  -7   53.42    1.80
   1  -1   7   52.42    1.96
   1  -1   7   50.40    1.56
  -1  -1  -7   56.27    1.68
   1  -1   7   52.09    1.41
  -1  -1  -7   54.77    1.49
   1   1   7   53.27    1.89
  -1   1  -7   53.01    1.44
  -1   1  -7   50.77    1.77
   1   1   7   53.49    1.50
   1   1   7   54.43    1.48
   1   1   7   54.39    1.47
  -1   1  -7   54.94    1.71
   1   1   7   53.54    1.58
  -1   1  -7   51.96    1.49
   1   1   7   55.28    1.79
  -1   1  -7   52.52    1.64
  -2  -1  -7   93.75    2.33
   2  -1   7   95.24    2.41
  -2  -1  -7   94.49    2.75
   2  -1   7   93.65    2.36
   2  -1   7   91.42    2.86
  -2  -1  -7   91.23    2.54
   2  -1   7   94.67    2.52
   2   1   7   93.93    2.46
   2   1   7   93.85    2.41
  -2   1  -7   96.78    2.40
   2   1   7   94.48    2.37
  -2   1  -7   96.31    2.78
  -2   1  -7  100.61    2.50
   2   1   7   95.75    2.52
  -2   1  -7   95.37    2.58
   2   1   7   90.10    2.70
   2   1   7   91.25    2.83
   3  -1   7   51.07    1.40
   3  -1   7   43.67    1.81
   3  -1   7   51.72    1.80
  -3  -1  -7   53.43    1.60
  -3  -1  -7   51.03    1.85
   3  -1   7   49.10    1.42
   3  -1   7   48.61    1.98
   3   1   7   48.64    1.80
  -3   1  -7   50.97    1.60
   3   1   7   53.39    1.29
   3   1   7   52.26    1.59
   3   1   7   49.38    1.53
   3   1   7   49.00    1.90
  -3   1  -7   47.95    1.85
   3   1   7   50.32    1.48
   4  -1   7    8.57    0.43
  -4  -1  -7    8.49    0.78
   4  -1   7    6.45    0.97
   4  -1   7    8.01    0.93
   4  -1   7    7.31    0.72
   4  -1   7    8.35    0.48
   4  -1   7    9.08    1.13
  -4  -1  -7    7.77    0.92
  -4   1  -7    8.54    0.75
   4   1   7    8.46    0.85
   4   1   7    7.79    1.04
   4   1   7    7.66    0.92
   4   1   7    9.64    0.99
  -4   1  -7    7.69    0.80
  -4   1  -7    8.37    0.95
   5  -1   7    6.31    0.81
  -5  -1  -7    6.73    0.94
  -5  -1  -7    8.05    0.77
   5  -1   7    5.50    0.32
   5  -1   7    6.61    1.14
   5  -1   7    6.52    0.91
   5  -1   7    6.61    0.28
   5  -1   7    6.93    0.88
   5   1   7    6.85    0.91
   5   1   7    7.44    0.90
  -5   1  -7    7.56    1.03
  -5   1  -7    5.70    0.80
   5   1   7    7.47    1.13
  -5   1  -7    6.90    0.75
   5   1   7    8.26    1.04
   5   1   7    7.07    0.75
  -6  -1  -7    0.51    0.41
   6  -1   7    0.68    0.74
   6  -1   7    0.87    0.73
   6  -1   7   -0.48    0.92
  -6  -1  -7    1.49    0.73
  -6  -1  -7    2.31    0.85
   6  -1   7    1.68    0.81
  -6   1  -7    0.82    0.42
   6   1   7    1.18    0.66
  -6   1  -7    1.98    0.64
   6   1   7    0.81    0.61
   6   1   7   -0.05    0.73
  -6   1  -7    0.90    0.83
   6   1   7   -0.08    0.78
  -7  -1  -7   19.96    1.41
   7  -1   7   22.75    1.63
  -7  -1  -7   21.52    1.65
  -7  -1  -7   24.03    1.01
   7  -1   7   22.77    1.81
  -7   1  -7   23.87    1.72
  -7   1  -7   22.71    1.38
   7   1   7   21.16    1.69
   7   1   7   21.05    1.52
   7   1   7   21.05    1.66
  -7   1  -7   23.11    1.00
   8  -1   7    9.01    1.15
  -8  -1  -7   11.84    1.62
   8  -1   7    7.78    1.28
  -8  -1  -7   10.37    1.36
   8   1   7   11.44    1.55
  -8   1  -7    8.53    1.02
   8   1   7    9.98    1.30
  -8   1  -7   10.29    1.34
  -9  -1  -7   25.38    2.03
  -9  -1  -7   28.67    1.89
   9  -1   7   26.06    2.09
   9  -1   7   25.67    2.47
  -9   1  -7   22.54    1.83
  -9   1  -7   27.60    2.03
   9   1   7   21.54    2.21
 -10  -1  -7    1.49    1.30
 -10  -1  -7    1.10    1.23
  10  -1   7   -0.16    1.27
  10  -1   7   -1.49    1.50
 -10   1  -7    0.16    1.29
 -10   1  -7   -0.50    1.17
  10   1   7    0.80    1.56
  10   1   7   -1.66    1.18
 -11  -1  -7   -0.61    1.42
  11  -1   7   -0.35    1.71
  11  -1   7    1.73    1.37
 -11  -1  -7   -1.13    1.39
  11   1   7   -1.18    1.79
 -11   1  -7    1.58    1.34
  11   1   7   -1.74    1.46
 -11   1  -7    3.78    1.47
 -12  -2   7    3.77    1.22
 -12  -2   7    4.32    1.23
  12  -2  -7    2.77    1.56
  12  -2  -7    3.28    2.06
  12  -2  -7    3.35    1.67
 -12  -2   7    6.36    1.99
 -12   2   7    4.17    1.41
  12   2  -7    8.12    1.95
 -12   2   7    3.66    1.12
 -12   2   7    3.56    1.64
  12   2  -7    2.12    1.37
  11  -2  -7   11.93    1.61
 -11  -2   7   15.43    1.82
 -11  -2   7   17.73    2.37
  11  -2  -7   16.91    2.05
 -11  -2   7   15.77    1.67
  11  -2  -7   17.76    2.32
  11   2  -7   12.67    1.98
 -11   2   7   16.78    2.05
 -11   2   7   13.37    1.79
 -11   2   7   16.38    1.81
 -11   2   7   13.99    2.03
  11   2  -7   13.91    1.74
 -10  -2   7   18.93    1.50
 -10  -2   7   17.47    1.68
  10  -2  -7   25.24    2.27
  10  -2  -7   20.82    1.95
 -10  -2   7   22.65    2.45
  10  -2  -7   19.49    1.94
 -10   2   7   19.57    1.65
 -10   2   7   18.75    1.84
  10   2  -7   23.40    2.48
  10   2  -7   17.00    2.06
 -10   2   7   22.14    2.01
 -10   2   7   18.02    2.36
   9  -2  -7   21.85    1.73
  -9  -2   7   18.07    2.34
  -9  -2   7   22.15    2.09
   9  -2  -7   21.33    2.01
  -9  -2   7   22.14    1.43
  -9   2   7   23.67    1.58
  -9   2   7   21.85    1.97
  -9   2   7   19.56    1.67
   9   2  -7   23.53    2.23
   9   2  -7   20.82    2.23
  -9   2   7   21.56    2.05
   8  -2  -7    0.55    0.64
  -8  -2   7    1.47    1.12
   8  -2  -7    1.96    1.00
  -8  -2   7    0.56    0.80
  -8  -2   7    0.35    0.62
   8  -2  -7    1.68    0.97
   8  -2  -7    0.91    0.84
  -8   2   7    0.25    0.74
   8   2  -7    1.62    0.64
   8   2  -7    0.75    0.83
  -8   2   7    0.50    0.96
   8   2  -7    1.05    1.14
  -8   2   7    0.89    0.84
  -8   2   7    0.58    1.09
   7  -2  -7   33.86    1.63
   7  -2  -7   32.70    1.73
   7  -2  -7   32.01    1.43
   7  -2  -7   33.42    1.84
   7  -2  -7   31.53    1.12
  -7  -2   7   32.73    1.39
  -7  -2   7   32.72    2.02
  -7  -2   7   31.26    1.44
  -7   2   7   27.93    1.76
  -7   2   7   30.36    1.48
  -7   2   7   31.54    1.82
   7   2  -7   29.93    1.69
   7   2  -7   31.34    1.38
   7   2  -7   30.03    2.00
  -7   2   7   31.53    1.59
   6  -2  -7   24.09    0.94
  -6  -2   7   27.10    1.27
   6  -2  -7   26.16    1.29
  -6  -2   7   24.94    1.75
   6  -2  -7   26.92    1.50
   6  -2  -7   24.01    1.46
   6  -2  -7   27.32    1.25
  -6  -2   7   24.99    1.13
   6   2  -7   24.91    1.57
   6   2  -7   24.23    1.48
  -6   2   7   24.97    1.30
  -6   2   7   25.53    1.50
  -6   2   7   26.27    1.59
  -6   2   7   24.53    1.37
   6   2  -7   26.42    1.23
   5  -2  -7   72.03    1.95
  -5  -2   7   68.23    2.10
   5  -2  -7   74.21    2.24
  -5  -2   7   68.96    2.22
  -5  -2   7   71.00    1.96
  -5  -2   7   68.61    2.54
   5  -2  -7   61.74    2.57
   5  -2  -7   72.23    2.12
   5  -2  -7   69.71    2.30
   5   2  -7   67.94    2.38
  -5   2   7   70.86    2.13
   5   2  -7   67.49    2.27
   5   2  -7   68.39    2.09
  -5   2   7   71.98    2.28
  -5   2   7   69.07    2.16
  -5   2   7   69.65    2.42
   4  -2  -7   55.63    1.79
  -4  -2   7   54.17    1.79
   4  -2  -7   56.14    1.57
  -4  -2   7   54.64    1.52
   4  -2  -7   54.15    1.90
  -4  -2   7   55.61    1.49
   4  -2  -7   54.14    1.65
   4  -2  -7   56.31    1.70
  -4  -2   7   53.32    2.11
  -4  -2   7   55.03    1.69
   4   2  -7   53.76    2.04
   4   2  -7   54.52    1.72
  -4   2   7   52.97    1.68
  -4   2   7   52.87    1.91
  -4   2   7   53.96    1.93
  -4   2   7   53.62    1.80
   4   2  -7   53.61    1.86
   3  -2  -7   55.17    1.59
   3  -2  -7   56.39    1.84
   3  -2  -7   55.25    1.77
   3  -2  -7   56.17    1.69
  -3  -2   7   53.09    1.58
  -3  -2   7   57.31    1.58
   3  -2  -7   56.24    1.49
  -3  -2   7   54.86    1.48
  -3  -2   7   53.39    2.04
  -3  -2   7   56.48    1.66
   3   2  -7   55.42    1.75
  -3   2   7   56.74    1.62
   3   2  -7   53.36    1.57
  -3   2   7   54.90    1.78
  -3   2   7   53.87    1.78
   3   2  -7   54.05    1.80
  -3   2   7   54.58    1.69
  -3   2   7   57.24    1.95
   3   2  -7   54.09    1.96
  -2  -2   7   39.30    1.62
   2  -2  -7   40.21    1.45
  -2  -2   7   41.04    1.20
  -2  -2   7   41.84    1.26
   2  -2  -7   40.59    1.16
   2  -2  -7   37.31    1.53
  -2  -2   7   40.97    1.09
   2  -2  -7   40.89    1.04
  -2   2   7   42.80    1.48
   2   2  -7   40.39    1.21
  -2   2   7   41.52    1.59
   2   2  -7   40.13    1.43
  -2   2   7   42.25    1.19
  -2   2   7   40.61    1.37
   2   2  -7   38.75    1.31
  -2   2   7   40.50    1.44
   1  -2  -7   21.64    1.07
  -1  -2   7   19.99    1.25
  -1  -2   7   19.80    0.71
  -1  -2   7   20.28    0.60
  -1  -2   7   20.27    0.77
   1  -2  -7   21.13    1.01
   1   2  -7   19.09    1.00
  -1   2   7   19.31    0.92
   1   2  -7   18.73    0.91
  -1   2   7   19.56    0.59
  -1   2   7   17.98    1.03
  -1   2   7   19.91    1.05
  -1   2   7   19.77    1.00
   1   2  -7   21.06    0.74
   0  -2   7   23.24    0.83
   0  -2   7   24.39    0.67
   0  -2  -7   25.49    0.95
   0  -2   7   24.33    0.76
   0  -2   7   23.28    1.35
   0  -2  -7   23.70    1.12
   0   2  -7   22.81    0.76
   0   2  -7   23.00    1.09
   0   2  -7   24.55    0.68
   0   2   7   23.48    1.00
   0   2   7   22.60    1.23
   0   2   7   24.22    1.23
   0   2  -7   21.66    1.11
   0   2   7   23.62    0.99
   0   2  -7   24.30    0.90
   1  -2   7   71.08    1.93
  -1  -2  -7   75.00    1.96
  -1  -2  -7   73.79    2.12
  -1  -2  -7   72.08    2.27
   1  -2   7   72.13    1.79
   1  -2   7   71.63    2.42
  -1   2  -7   69.50    1.92
  -1   2  -7   70.89    1.75
   1   2   7   72.18    1.69
  -1   2  -7   70.20    2.08
  -1   2  -7   66.79    2.19
   1   2   7   71.02    1.69
   1   2   7   70.49    1.90
   1   2   7   70.43    2.01
   1   2   7   69.88    2.23
  -1   2  -7   70.58    1.80
   1   2   7   71.49    2.24
  -2  -2  -7  106.86    2.64
  -2  -2  -7  107.38    2.85
  -2  -2  -7  103.39    3.05
   2  -2   7  101.51    3.13
   2  -2   7  106.27    2.72
   2   2   7  105.78    2.56
  -2   2  -7  108.02    2.61
   2   2   7  104.66    3.04
  -2   2  -7  105.80    2.58
  -2   2  -7  101.87    2.82
  -2   2  -7  105.77    3.07
  -2   2  -7  107.16    2.74
   2   2   7  105.45    2.59
   2   2   7  102.03    2.80
   2   2   7  106.32    2.63
   2   2   7  100.91    3.05
   3  -2   7   28.62    1.08
   3  -2   7   29.23    1.01
   3  -2   7   27.81    1.61
  -3  -2  -7   29.32    1.21
  -3  -2  -7   29.95    0.85
  -3  -2  -7   30.00    1.47
   3  -2   7   28.44    1.53
  -3   2  -7   27.31    1.19
   3   2   7   25.80    1.45
   3   2   7   28.04    0.98
  -3   2  -7   27.20    0.94
   3   2   7   28.90    0.83
  -3   2  -7   25.37    1.46
   3   2   7   27.30    1.18
   3   2   7   26.82    1.51
  -3   2  -7   27.01    0.89
  -3   2  -7   27.24    0.90
   3   2   7   27.97    0.93
  -4  -2  -7  208.56    5.17
  -4  -2  -7  200.62    5.47
   4  -2   7  206.63    5.02
   4  -2   7  211.79    5.53
   4  -2   7  210.11    5.63
   4  -2   7  210.54    5.24
   4  -2   7  209.52    5.03
  -4   2  -7  208.94    5.02
  -4   2  -7  212.63    5.18
   4   2   7  206.48    5.49
  -4   2  -7  212.06    5.52
   4   2   7  207.48    5.08
   4   2   7  201.05    5.55
   4   2   7  206.07    5.12
   4   2   7  207.50    5.23
   5  -2   7    8.26    1.21
   5  -2   7    8.24    0.51
  -5  -2  -7    7.39    0.86
  -5  -2  -7    6.47    0.94
   5  -2   7    8.52    1.06
   5   2   7    6.41    0.75
   5   2   7    7.89    0.92
  -5   2  -7    8.50    0.81
   5   2   7    8.33    1.00
   5   2   7    7.39    0.99
  -5   2  -7    9.26    1.10
  -5   2  -7    8.33    0.83
   6  -2   7    6.69    1.07
   6  -2   7   11.34    1.64
  -6  -2  -7    9.28    0.82
  -6  -2  -7    9.26    1.17
   6  -2   7    7.44    0.98
  -6  -2  -7    8.47    1.15
  -6   2  -7    8.22    0.89
   6   2   7    7.87    0.91
   6   2   7    7.58    1.12
   6   2   7    8.76    1.07
   6   2   7    7.93    0.84
  -6   2  -7    8.41    0.83
  -6   2  -7    9.72    1.20
  -7  -2  -7   17.41    1.60
   7  -2   7   14.78    1.64
   7  -2   7   17.99    1.85
  -7  -2  -7   17.48    0.96
  -7  -2  -7   18.78    1.45
  -7   2  -7   17.51    1.27
   7   2   7   17.23    1.36
  -7   2  -7   17.73    1.65
   7   2   7   17.63    1.70
  -7   2  -7   17.00    1.00
   7   2   7   18.65    1.71
   7   2   7   17.79    1.49
  -8  -2  -7    8.75    1.43
  -8  -2  -7    9.11    1.28
   8  -2   7    5.75    1.40
   8  -2   7    8.74    1.40
  -8   2  -7    9.06    1.05
   8   2   7    8.30    1.26
  -8   2  -7    6.47    1.48
   8   2   7    8.39    1.43
   8   2   7    7.59    1.10
  -9  -2  -7   24.47    1.84
   9  -2   7   27.39    2.30
  -9  -2  -7   24.94    2.05
   9  -2   7   22.13    2.49
   9   2   7   24.17    2.51
  -9   2  -7   23.99    1.73
  -9   2  -7   26.34    2.15
   9   2   7   25.65    2.26
  10  -2   7    3.65    1.64
 -10  -2  -7    4.39    1.30
  10  -2   7    5.76    1.47
 -10  -2  -7    6.16    1.50
 -10   2  -7    3.89    1.45
  10   2   7    4.34    1.64
  10   2   7    5.16    1.42
  11  -2   7    1.96    1.37
 -11  -2  -7    4.94    1.49
 -11  -2  -7    4.23    1.37
  11  -2   7    1.57    1.78
  11   2   7    3.70    1.65
 -11   2  -7    2.23    1.54
  12  -3  -7   10.12    1.97
  12  -3  -7    4.40    1.60
 -12  -3   7    5.60    1.12
  11  -3  -7   -1.99    1.73
  11  -3  -7   -0.24    1.46
  11  -3  -7   -1.17    1.33
 -11  -3   7    0.42    1.04
 -11  -3   7    1.43    1.21
 -11  -3   7    2.58    1.97
 -11   3   7   -0.78    1.36
  11   3  -7    3.19    1.92
 -11   3   7    1.72    1.12
  11   3  -7    1.27    1.48
 -11   3   7   -1.19    1.54
  10  -3  -7   29.40    2.72
 -10  -3   7   37.56    2.83
  10  -3  -7   30.66    2.31
  10  -3  -7   31.24    2.60
 -10  -3   7   31.04    1.97
 -10   3   7   33.16    2.01
 -10   3   7   30.37    2.59
 -10   3   7   33.26    2.19
  10   3  -7   34.06    2.43
  10   3  -7   33.21    2.77
   9  -3  -7   10.00    1.31
  -9  -3   7   10.29    1.62
   9  -3  -7   13.91    1.53
  -9  -3   7    9.24    1.13
   9  -3  -7   11.08    1.62
   9   3  -7    8.89    1.31
   9   3  -7   10.55    1.58
  -9   3   7    9.66    1.12
  -9   3   7   10.45    1.50
  -9   3   7   11.40    1.59
  -9   3   7    7.23    1.39
   8  -3  -7   75.78    2.88
   8  -3  -7   72.30    2.38
   8  -3  -7   73.73    2.57
   8  -3  -7   76.39    2.80
  -8  -3   7   72.32    2.49
  -8   3   7   76.60    2.77
   8   3  -7   71.55    2.29
   8   3  -7   69.61    3.19
   8   3  -7   74.43    2.78
  -8   3   7   61.85    3.02
  -8   3   7   67.91    2.60
  -8   3   7   69.47    3.52
   7  -3  -7   39.47    1.69
   7  -3  -7   41.54    1.96
   7  -3  -7   40.37    1.98
   7  -3  -7   38.82    1.88
  -7  -3   7   41.61    2.27
  -7  -3   7   40.78    1.68
   7  -3  -7   40.60    1.71
   7   3  -7   43.93    1.71
   7   3  -7   42.28    2.04
  -7   3   7   40.37    1.86
  -7   3   7   41.43    2.15
  -7   3   7   41.12    1.96
  -7   3   7   42.36    1.78
   7   3  -7   45.53    2.18
  -6  -3   7    3.89    1.12
   6  -3  -7    5.02    0.76
   6  -3  -7    5.26    0.93
   6  -3  -7    6.57    0.94
  -6  -3   7    4.89    0.75
   6  -3  -7    4.30    0.95
  -6  -3   7    5.26    0.60
   6  -3  -7    3.74    0.80
   6   3  -7    5.06    0.74
  -6   3   7    5.44    0.93
  -6   3   7    6.09    0.88
  -6   3   7    5.98    0.81
   6   3  -7    4.19    0.88
  -6   3   7    5.60    1.04
   6   3  -7    4.52    0.98
   5  -3  -7    7.76    0.75
  -5  -3   7    9.04    0.99
  -5  -3   7   10.49    0.48
  -5  -3   7    8.50    0.70
  -5  -3   7    9.44    0.89
  -5  -3   7   10.24    1.23
   5  -3  -7    6.95    0.98
   5  -3  -7    8.36    1.00
   5  -3  -7    7.62    1.00
  -5   3   7    7.87    1.08
   5   3  -7    8.92    1.28
   5   3  -7    7.82    1.11
  -5   3   7    8.28    1.02
   5   3  -7    8.37    1.05
  -5   3   7    7.68    0.96
  -4  -3   7   64.22    1.88
  -4  -3   7   62.87    1.77
   4  -3  -7   64.15    2.17
   4  -3  -7   64.40    1.85
  -4  -3   7   59.25    2.31
  -4  -3   7   64.56    1.69
   4  -3  -7   66.73    1.75
  -4  -3   7   65.10    1.92
   4  -3  -7   61.68    2.02
   4   3  -7   60.29    1.98
   4   3  -7   62.31    2.16
  -4   3   7   58.60    2.16
  -4   3   7   61.37    2.06
  -4   3   7   61.40    1.96
  -4   3   7   64.30    1.92
   4   3  -7   61.30    2.31
  -3  -3   7   28.56    0.84
   3  -3  -7   29.00    1.40
  -3  -3   7   27.86    0.85
  -3  -3   7   25.37    1.54
  -3  -3   7   27.95    0.96
   3  -3  -7   29.44    1.31
   3  -3  -7   30.44    0.86
  -3  -3   7   28.48    1.02
   3  -3  -7   28.75    0.98
   3   3  -7   27.07    1.57
  -3   3   7   27.91    1.45
  -3   3   7   28.63    1.15
   3   3  -7   25.64    1.23
  -3   3   7   27.39    1.29
   3   3  -7   25.40    1.31
  -3   3   7   28.17    1.02
  -3   3   7   26.80    1.20
   2  -3  -7   93.67    2.72
   2  -3  -7   96.24    2.73
  -2  -3   7   90.35    2.88
   2  -3  -7   93.65    2.27
  -2  -3   7   93.81    2.38
  -2  -3   7   96.41    2.41
  -2  -3   7   96.74    2.25
  -2  -3   7   94.47    2.24
   2   3  -7   94.16    2.65
  -2   3   7   90.64    2.80
  -2   3   7   94.59    2.66
  -2   3   7   92.12    2.59
  -2   3   7   95.59    2.60
   2   3  -7   90.98    2.61
   2   3  -7   93.39    2.37
  -1  -3   7    5.17    0.40
  -1  -3   7    5.33    0.36
  -1  -3   7    7.35    0.98
   1  -3  -7    4.88    0.73
   1  -3  -7    5.33    0.66
   1   3  -7    6.43    0.44
   1   3  -7    6.13    0.85
  -1   3   7    5.94    0.71
  -1   3   7    5.12    0.76
  -1   3   7    4.88    0.77
   1   3  -7    5.17    0.66
  -1   3   7    6.21    0.74
   0  -3   7  351.04    8.79
   0  -3   7  351.33    8.24
   0  -3  -7  359.04    8.49
   0  -3  -7  356.40    8.68
   0   3  -7  350.08    8.54
   0   3  -7  351.33    8.18
   0   3  -7  351.25    8.61
   0   3   7  355.78    8.56
   0   3   7  351.14    8.48
   0   3   7  363.32    8.72
  -1  -3  -7   63.93    2.16
   1  -3   7   58.63    2.22
  -1  -3  -7   66.17    1.82
   1  -3   7   61.55    1.60
  -1   3  -7   60.66    1.47
  -1   3  -7   57.78    1.88
   1   3   7   62.47    1.85
   1   3   7   62.36    2.04
  -1   3  -7   60.16    1.59
   1   3   7   64.33    2.16
  -1   3  -7   60.23    2.09
  -2  -3  -7   32.89    1.07
  -2  -3  -7   31.70    1.54
   2  -3   7   30.41    0.98
   2  -3   7   30.69    1.67
   2  -3   7   31.65    1.25
  -2   3  -7   29.42    1.54
   2   3   7   32.40    1.53
   2   3   7   32.67    0.81
  -2   3  -7   31.28    1.03
  -2   3  -7   31.14    1.27
  -2   3  -7   30.41    0.82
  -2   3  -7   31.39    0.85
  -2   3  -7   30.63    0.82
   2   3   7   30.58    1.26
   2   3   7   33.04    1.58
   3  -3   7    7.63    0.80
   3  -3   7    6.71    0.96
  -3  -3  -7    6.45    0.89
  -3  -3  -7    7.52    0.50
   3  -3   7    9.51    1.35
  -3   3  -7    8.94    0.94
  -3   3  -7    8.49    0.76
   3   3   7    7.66    0.48
  -3   3  -7    7.87    0.46
   3   3   7    7.76    0.48
  -3   3  -7    7.89    1.09
   3   3   7    7.21    0.55
  -3   3  -7    8.12    0.40
   3   3   7    8.05    0.91
   3   3   7    8.66    1.03
  -3   3  -7    7.64    0.52
   4  -3   7    3.23    0.97
  -4  -3  -7    3.09    0.62
   4  -3   7    3.35    0.86
  -4  -3  -7    2.44    0.26
   4  -3   7    4.26    0.56
  -4  -3  -7    2.18    0.87
   4   3   7    2.33    0.38
   4   3   7    2.44    0.85
  -4   3  -7    3.22    0.61
   4   3   7    2.09    0.35
  -4   3  -7    3.74    0.86
  -4   3  -7    3.30    0.40
   4   3   7    1.96    0.61
   5  -3   7   27.98    1.29
   5  -3   7   29.22    1.87
  -5  -3  -7   23.47    1.69
  -5  -3  -7   27.96    1.26
   5  -3   7   26.30    1.88
   5   3   7   29.87    1.43
   5   3   7   26.62    1.47
  -5   3  -7   28.70    1.76
  -5   3  -7   29.18    1.32
   5   3   7   27.84    1.28
   5   3   7   28.47    1.77
  -5   3  -7   29.07    0.96
  -6  -3  -7    1.37    0.91
  -6  -3  -7    2.80    0.60
   6  -3   7    2.86    1.19
   6  -3   7    2.06    1.02
   6   3   7    2.72    0.79
   6   3   7    2.68    0.84
   6   3   7    1.12    0.94
  -6   3  -7    3.19    0.59
   6   3   7    2.74    0.70
  -6   3  -7    2.98    0.56
  -6   3  -7    4.11    1.04
   7  -3   7    8.11    1.27
  -7  -3  -7    7.97    0.93
  -7  -3  -7    8.31    1.19
   7  -3   7    8.17    1.36
  -7   3  -7    7.72    1.00
  -7   3  -7    7.77    1.34
   7   3   7    4.71    2.19
   7   3   7    6.55    0.95
  -7   3  -7    6.79    0.74
   7   3   7    7.32    1.11
   8  -3   7   34.71    2.46
   8  -3   7   36.21    2.30
  -8  -3  -7   38.77    2.28
  -8  -3  -7   37.58    2.03
  -8   3  -7   36.31    2.27
   8   3   7   36.44    2.15
   8   3   7   38.70    2.40
   8   3   7   37.82    1.94
   8   3   7   36.89    2.29
  -9  -3  -7    4.47    1.26
  -9  -3  -7    3.77    1.34
   9  -3   7    5.73    1.46
   9  -3   7    2.19    1.57
   9   3   7    3.23    2.13
   9   3   7    6.72    1.65
  -9   3  -7    2.32    1.35
   9   3   7    3.71    1.66
  10  -3   7    9.27    1.69
 -10  -3  -7   14.38    1.73
 -10  -3  -7   11.06    1.58
  10  -3   7   11.52    2.04
 -10   3  -7   12.56    1.86
  10   3   7   11.53    1.56
 -11   3  -7    1.58    1.51
 -12  -4   7    2.98    1.34
  12  -4  -7   -0.66    1.41
 -11  -4   7    3.59    1.35
 -11  -4   7   -1.09    1.95
  11  -4  -7    2.18    1.41
  11  -4  -7    2.01    1.84
  11  -4  -7    2.40    1.60
 -11   4   7    2.74    1.23
 -11   4   7    1.06    1.79
  11   4  -7    0.49    1.71
 -11   4   7    0.89    1.51
  11   4  -7    3.95    1.59
  10  -4  -7    1.11    1.17
 -10  -4   7    3.41    1.90
  10  -4  -7    1.36    1.37
  10  -4  -7    0.96    1.60
 -10  -4   7    3.85    1.14
 -10   4   7    2.47    1.37
 -10   4   7    0.85    1.17
 -10   4   7    0.37    1.65
  10   4  -7    0.45    1.66
  10   4  -7    0.60    1.29
  -9  -4   7    3.60    0.98
   9  -4  -7    1.12    1.02
  -9  -4   7    2.89    1.52
   9  -4  -7   -0.27    1.62
   9  -4  -7    1.83    1.24
  -9   4   7    1.14    1.09
   9   4  -7    0.47    1.15
  -9   4   7    1.96    1.06
   9   4  -7    1.18    1.41
  -9   4   7    1.09    1.43
  -8  -4   7   49.02    2.71
  -8  -4   7   48.29    2.00
   8  -4  -7   47.22    2.08
   8  -4  -7   45.56    2.11
   8  -4  -7   47.98    2.37
   8  -4  -7   45.59    2.41
  -8   4   7   46.80    2.06
   8   4  -7   47.59    2.47
  -8   4   7   44.87    2.21
   8   4  -7   46.86    2.28
   8   4  -7   50.09    2.72
  -8   4   7   46.91    2.59
   7  -4  -7    8.45    1.23
   7  -4  -7    7.00    1.05
  -7  -4   7    9.79    1.16
  -7  -4   7    8.68    1.38
   7  -4  -7    6.73    0.85
   7  -4  -7    7.28    1.32
  -7   4   7    8.26    1.10
  -7   4   7   10.71    1.30
   7   4  -7    7.31    1.28
  -7   4   7    6.57    0.98
  -7   4   7    7.21    1.28
   7   4  -7    6.31    1.17
   7   4  -7    7.16    1.16
   6  -4  -7   31.40    1.63
   6  -4  -7   32.43    1.68
   6  -4  -7   29.75    1.41
  -6  -4   7   31.39    2.11
  -6  -4   7   31.94    1.42
   6  -4  -7   32.45    1.87
  -6   4   7   32.23    1.35
   6   4  -7   33.35    1.87
  -6   4   7   29.29    1.55
  -6   4   7   31.47    1.92
  -6   4   7   29.61    1.61
   6   4  -7   31.28    1.65
   6   4  -7   29.45    1.91
  -5  -4   7    2.41    0.57
  -5  -4   7    1.77    1.03
   5  -4  -7    1.20    0.84
   5  -4  -7    1.49    0.62
   5  -4  -7    0.94    0.80
  -5   4   7    2.06    0.92
   5   4  -7    1.53    0.73
  -5   4   7    2.65    0.50
   5   4  -7    0.47    0.84
  -5   4   7    1.48    0.77
  -5   4   7    0.80    0.69
   5   4  -7    2.49    0.97
   4  -4  -7   21.24    1.45
  -4  -4   7   20.96    0.94
   4  -4  -7   20.28    0.78
  -4  -4   7   22.26    0.71
   4  -4  -7   18.68    1.39
  -4  -4   7   19.92    0.88
   4  -4  -7   20.80    0.92
  -4  -4   7   20.58    1.69
   4   4  -7   21.04    1.26
  -4   4   7   19.01    1.17
  -4   4   7   20.34    0.97
   4   4  -7   19.24    1.50
  -4   4   7   20.33    1.47
   4   4  -7   17.41    1.63
  -4   4   7   20.23    1.29
   3  -4  -7    2.56    0.80
  -3  -4   7    2.12    0.38
  -3  -4   7    1.62    0.19
  -3  -4   7    1.56    0.92
   3  -4  -7    2.19    0.32
  -3  -4   7    1.47    0.28
  -3  -4   7    1.93    0.20
  -3  -4   7    2.55    0.35
   3  -4  -7    1.76    0.43
   3  -4  -7    1.60    0.24
   3  -4  -7    1.77    0.77
  -3   4   7    2.04    0.48
  -3   4   7    2.03    0.73
   3   4  -7    1.02    0.60
  -3   4   7    1.50    0.62
  -3   4   7    1.94    0.80
   2  -4  -7    3.98    0.51
  -2  -4   7    2.51    0.35
  -2  -4   7    2.76    0.29
   2  -4  -7    3.31    0.79
  -2  -4   7    2.96    0.89
  -2  -4   7    2.67    0.33
   2  -4  -7    3.23    0.77
  -2   4   7    3.06    0.69
  -2   4   7    3.12    0.51
   2   4  -7    3.37    0.66
  -2   4   7    1.89    0.75
  -2   4   7    3.35    0.69
   1  -4  -7  127.53    3.27
   1  -4  -7  125.19    3.43
   1  -4  -7  123.57    3.55
  -1  -4   7  123.94    2.93
  -1  -4   7  121.68    3.66
  -1   4   7  124.95    3.25
  -1   4   7  127.75    3.63
   1   4  -7  124.65    3.48
   1   4  -7  124.15    3.43
  -1   4   7  124.04    3.41
  -1   4   7  123.12    3.36
   0  -4  -7    2.34    0.79
   0  -4   7    3.22    0.91
   0  -4  -7    2.86    0.64
   0   4  -7    2.89    0.76
   0   4   7    1.95    0.62
   0   4  -7    3.32    0.66
   0   4   7    1.90    0.52
   0   4   7    1.61    0.78
  -1  -4  -7  251.67    6.58
   1  -4   7  251.27    6.34
  -1  -4  -7  259.61    6.23
   1  -4   7  252.65    6.59
   1   4   7  261.38    6.31
   1   4   7  251.45    6.24
  -1   4  -7  241.13    6.26
   1   4   7  255.40    6.76
  -1   4  -7  247.32    6.43
  -2  -4  -7   25.59    1.11
  -2  -4  -7   23.47    1.42
   2  -4   7   23.84    1.58
   2  -4   7   24.83    1.28
  -2   4  -7   25.63    1.55
   2   4   7   25.17    1.56
   2   4   7   23.11    1.25
  -2   4  -7   24.31    1.30
   3  -4   7   67.98    2.56
  -3  -4  -7   71.72    1.94
  -3  -4  -7   73.11    2.57
   3  -4   7   68.45    2.21
   3   4   7   71.11    1.80
  -3   4  -7   66.51    2.21
  -3   4  -7   70.44    2.55
   3   4   7   70.55    2.56
   3   4   7   70.40    2.25
  -3   4  -7   71.92    1.72
   4  -4   7   12.23    1.49
  -4  -4  -7   11.84    0.60
   4  -4   7   12.66    1.59
  -4  -4  -7   14.08    1.35
   4  -4   7   12.68    1.08
  -4   4  -7   13.77    1.12
   4   4   7   10.98    1.13
   4   4   7   12.04    0.65
   4   4   7   11.84    1.33
   4   4   7   12.57    0.66
  -4   4  -7   10.78    1.32
  -5  -4  -7    1.67    0.99
   5  -4   7    0.77    0.94
   5  -4   7    0.87    0.97
   5  -4   7    1.38    0.69
  -5   4  -7    1.81    0.95
   5   4   7    0.78    1.01
   5   4   7    1.74    0.79
   5   4   7    0.80    0.38
  -5   4  -7    1.28    0.65
   5   4   7    0.71    0.51
  -6  -4  -7   19.93    1.76
   6  -4   7   22.49    1.91
   6  -4   7   22.33    2.08
  -6  -4  -7   18.21    1.27
   6  -4   7   19.92    1.30
   6   4   7   21.07    2.01
   6   4   7   20.10    1.65
   6   4   7   20.62    2.06
  -6   4  -7   20.63    1.86
  -6   4  -7   19.38    1.31
   6   4   7   20.23    1.38
  -7  -4  -7   36.41    1.53
  -7  -4  -7   33.75    1.93
  -7  -4  -7   35.45    2.23
   7  -4   7   38.02    2.57
  -7   4  -7   37.33    2.23
   7   4   7   34.39    2.36
   7   4   7   36.05    1.92
  -7   4  -7   38.97    1.66
   7   4   7   36.26    1.87
   8  -4   7    2.05    1.36
  -8  -4  -7    5.14    1.19
   8  -4   7    2.47    1.29
  -8  -4  -7    6.05    1.31
  -8   4  -7    5.82    1.43
   8   4   7    5.73    1.48
   8   4   7    2.42    1.09
   9  -4   7   27.96    3.02
  -9  -4  -7   31.24    2.19
  -9  -4  -7   28.69    2.61
   9  -4   7   28.99    2.57
   9   4   7   30.53    2.82
  -9   4  -7   31.09    2.56
  10  -4   7    0.75    1.44
 -10  -4  -7    2.11    1.50
  10  -4   7    0.03    1.78
 -10  -4  -7    1.78    1.28
 -10   4  -7    4.07    1.61
  11  -5  -7   -1.23    2.58
  10  -5  -7   31.64    2.76
 -10  -5   7   29.43    2.02
  10  -5  -7   23.59    2.53
 -10  -5   7   27.92    3.19
  10   5  -7   19.55    2.37
 -10   5   7   23.94    2.98
 -10   5   7   24.24    2.31
  10   5  -7   27.12    2.70
 -10   5   7   25.63    2.19
  -9  -5   7    4.71    1.11
   9  -5  -7    4.96    1.43
  -9  -5   7    6.60    1.91
   9  -5  -7    3.46    1.57
   9   5  -7    4.02    1.46
  -9   5   7    0.61    1.60
  -9   5   7    2.45    1.18
  -9   5   7    6.68    1.46
   9   5  -7    2.08    1.63
  -8  -5   7   18.31    2.38
   8  -5  -7   16.33    1.69
   8  -5  -7   16.19    2.06
   8  -5  -7   17.51    1.98
  -8  -5   7   18.49    1.77
   8   5  -7   19.03    2.02
  -8   5   7   18.11    1.82
  -8   5   7   17.85    1.71
   8   5  -7   17.44    1.67
   8   5  -7   18.58    2.48
  -8   5   7   20.36    2.27
  -7  -5   7   26.64    2.30
   7  -5  -7   25.82    2.12
   7  -5  -7   22.00    2.24
   7  -5  -7   25.50    1.94
  -7  -5   7   29.38    1.53
   7  -5  -7   24.98    2.02
   7   5  -7   26.02    1.79
  -7   5   7   21.33    2.07
  -7   5   7   26.08    1.69
   7   5  -7   28.60    2.41
   7   5  -7   28.03    2.09
  -7   5   7   26.73    2.21
  -6  -5   7   18.21    1.20
   6  -5  -7   16.87    1.83
   6  -5  -7   19.84    1.30
   6  -5  -7   20.07    2.04
  -6  -5   7   20.02    2.01
   6  -5  -7   19.46    1.59
  -6   5   7   17.69    1.59
  -6   5   7   17.42    1.79
   6   5  -7   18.77    1.59
   6   5  -7   20.17    2.38
   6   5  -7   18.69    1.93
  -6   5   7   18.72    1.53
   5  -5  -7   35.27    1.40
  -5  -5   7   36.15    1.39
  -5  -5   7   35.06    1.05
   5  -5  -7   35.07    1.56
   5  -5  -7   33.95    2.00
   5  -5  -7   33.74    1.95
  -5  -5   7   35.71    1.43
  -5  -5   7   34.18    2.16
  -5   5   7   32.00    1.91
   5   5  -7   33.35    1.95
   5   5  -7   33.74    2.22
  -5   5   7   30.58    1.70
   5   5  -7   36.44    1.69
  -5   5   7   34.74    1.66
  -4  -5   7    1.35    0.34
  -4  -5   7    0.82    0.41
  -4  -5   7    0.29    0.97
   4  -5  -7   -0.20    0.84
   4  -5  -7    0.72    0.37
   4  -5  -7    0.40    0.95
  -4  -5   7    0.86    0.18
   4  -5  -7    0.72    0.27
  -4   5   7   -0.10    0.93
  -4   5   7   -0.01    0.67
   4   5  -7    0.83    0.93
  -4   5   7    0.48    0.80
   4   5  -7   -0.60    0.75
  -3  -5   7   69.18    1.84
  -3  -5   7   69.56    1.76
   3  -5  -7   69.28    2.54
   3  -5  -7   70.94    1.83
   3  -5  -7   70.98    2.48
  -3  -5   7   72.15    2.72
   3  -5  -7   69.65    1.77
  -3   5   7   70.42    2.29
   3   5  -7   66.69    2.34
  -3   5   7   68.89    2.34
  -3   5   7   72.57    2.61
  -2  -5   7    2.21    0.28
   2  -5  -7    2.37    0.94
  -2  -5   7    3.45    1.00
   2  -5  -7    2.90    0.87
   2   5  -7    4.19    0.83
  -2   5   7    2.70    0.79
  -2   5   7    2.42    0.97
  -2   5   7    2.50    0.77
   1  -5  -7   11.80    1.44
  -1  -5   7   11.58    1.39
   1  -5  -7   12.01    1.19
  -1   5   7   12.70    1.44
  -1   5   7   12.19    1.10
   1   5  -7   12.57    1.22
   0  -5  -7    5.76    0.99
   0  -5   7    7.38    1.09
   0  -5   7    7.81    0.96
   0  -5  -7    7.18    0.87
   0   5  -7    7.05    0.88
   0   5   7    6.78    1.08
   0   5   7    6.44    0.78
   1  -5   7   10.56    1.20
  -1  -5  -7    9.96    1.26
   1  -5   7    9.52    1.16
  -1  -5  -7   10.26    1.09
   1   5   7   10.37    1.11
  -1   5  -7    9.95    1.16
   1   5   7   11.95    1.41
  -1   5  -7   12.42    1.21
  -2  -5  -7   16.62    1.12
  -2  -5  -7   15.89    1.42
   2  -5   7   16.20    1.55
   2  -5   7   18.85    1.33
   2   5   7   16.79    1.23
  -2   5  -7   14.89    1.58
  -2   5  -7   17.24    1.26
   2   5   7   17.52    1.53
  -3  -5  -7   28.54    1.25
   3  -5   7   26.20    1.54
   3  -5   7   26.98    1.82
  -3  -5  -7   29.78    1.83
  -3   5  -7   26.58    1.70
   3   5   7   28.35    1.84
  -3   5  -7   27.08    1.46
   3   5   7   27.40    1.49
  -4  -5  -7    1.85    1.01
  -4  -5  -7    2.23    0.59
   4  -5   7    2.53    0.81
   4  -5   7    3.17    1.06
   4  -5   7    1.47    1.01
  -4   5  -7    1.64    0.71
  -4   5  -7    2.07    0.97
   4   5   7    2.22    1.10
   4   5   7    2.99    0.80
  -5  -5  -7    2.50    1.14
   5  -5   7    3.12    1.13
   5  -5   7    1.98    0.87
   5   5   7    2.16    1.27
  -5   5  -7    1.63    0.77
  -6  -5  -7    2.28    1.18
   6  -5   7    0.80    1.19
   6  -5   7    3.06    1.26
   6  -5   7    2.61    0.94
  -6   5  -7    1.03    0.75
   6   5   7    1.24    0.89
   6   5   7    3.66    1.20
  -6   5  -7    2.18    1.15
   7  -5   7   16.09    1.90
  -7  -5  -7   17.16    1.78
  -7  -5  -7   17.41    1.74
  -7   5  -7   14.39    1.87
   7   5   7   18.02    1.69
   7   5   7   17.44    1.95
  -7   5  -7   16.33    1.47
   8  -5   7   16.03    1.86
  -8  -5  -7   20.50    2.28
   8  -5   7   13.79    1.92
  -8  -5  -7   17.00    1.84
   8   5   7   17.35    1.86
   8   5   7   12.82    1.81
  -8   5  -7   15.73    1.88
  -9  -5  -7    8.18    1.64
  -9  -5  -7    5.71    1.41
   9  -5   7    4.78    1.96
   9  -5   7    6.07    1.62
  -9   5  -7    5.36    1.72
   9   5   7    7.78    1.87
 -10  -5  -7    1.62    1.49
 -10  -6   7   17.98    1.80
 -10   6   7    7.76    1.83
 -10   6   7    7.03    1.77
   9  -6  -7    1.73    1.65
  -9  -6   7    0.87    1.95
  -9  -6   7    3.49    1.05
   9   6  -7    2.25    1.43
  -9   6   7    2.85    1.85
   9   6  -7    5.30    1.99
  -9   6   7    0.89    1.29
  -9   6   7   -1.95    1.40
  -8  -6   7    5.01    1.70
   8  -6  -7    2.35    1.43
  -8  -6   7    7.40    1.03
   8   6  -7    3.99    1.40
  -8   6   7    5.00    1.19
   8   6  -7    6.87    1.77
  -8   6   7    4.39    1.45
  -8   6   7    4.78    1.69
  -7  -6   7   12.43    1.81
  -7  -6   7   13.69    1.34
   7  -6  -7   12.46    1.73
   7  -6  -7   15.15    1.77
   7   6  -7   11.91    1.51
  -7   6   7   10.13    1.57
  -7   6   7   12.62    1.66
   7   6  -7   15.08    1.97
  -7   6   7   14.17    1.85
   7   6  -7   13.04    1.84
  -6  -6   7   15.87    2.11
   6  -6  -7   11.13    1.64
   6  -6  -7   13.80    1.84
  -6  -6   7   16.65    1.29
   6   6  -7   13.89    1.76
  -6   6   7    9.88    1.45
   6   6  -7   12.50    1.47
  -6   6   7   12.08    1.65
  -6   6   7   13.73    1.53
   6   6  -7   12.73    1.71
  -5  -6   7    5.00    0.68
   5  -6  -7    4.14    1.19
   5  -6  -7    1.82    1.30
  -5  -6   7    5.06    1.32
  -5   6   7    6.42    1.12
  -5   6   7    3.48    1.05
   5   6  -7    4.42    1.02
  -5   6   7    4.86    1.23
   4  -6  -7   32.61    1.95
  -4  -6   7   32.93    1.46
   4  -6  -7   31.51    2.09
  -4  -6   7   31.69    2.14
  -4   6   7   33.99    1.70
   4   6  -7   30.63    1.79
  -4   6   7   31.52    1.78
  -4   6   7   29.01    2.06
  -3  -6   7   11.65    1.68
   3  -6  -7   12.81    1.52
   3  -6  -7   13.53    1.70
  -3   6   7   12.75    1.40
   3   6  -7   13.23    1.48
  -3   6   7   12.81    1.34
  -3   6   7   13.18    1.47
   2  -6  -7   65.94    2.40
  -2  -6   7   63.96    2.64
  -2  -6   7   62.51    2.42
   2  -6  -7   66.22    2.63
  -2   6   7   68.53    2.67
  -2   6   7   64.71    2.37
   2   6  -7   65.53    2.42
  -2   6   7   67.98    2.32
   1  -6  -7    5.49    1.14
  -1  -6   7    9.68    1.27
   1  -6  -7    7.31    1.02
  -1  -6   7    8.47    1.08
  -1   6   7    7.88    1.25
  -1   6   7    8.82    1.00
   1   6  -7    7.44    0.94
   0  -6  -7   12.23    1.48
   0  -6   7    9.66    1.30
   0  -6  -7   10.74    1.25
   0  -6   7   12.25    1.34
   0   6   7    9.59    1.20
   0   6  -7   10.72    1.32
   0   6   7   10.57    1.33
   1  -6   7    2.71    0.94
  -1  -6  -7    3.32    1.16
   1  -6   7    3.09    1.17
  -1  -6  -7    3.91    0.86
   1   6   7    4.33    0.89
   1   6   7    4.13    1.08
  -1   6  -7    3.23    0.81
  -2  -6  -7   12.69    1.44
   2  -6   7   12.30    1.34
   2  -6   7   11.55    1.50
  -2  -6  -7   10.11    1.22
  -2   6  -7   12.27    1.37
   2   6   7   11.67    1.43
   2   6   7   10.36    1.25
   3  -6   7   13.14    1.58
  -3  -6  -7   11.65    1.66
   3  -6   7   12.41    1.40
  -3  -6  -7   10.23    1.20
   3   6   7   11.92    1.22
  -3   6  -7   10.26    1.36
   3   6   7   10.88    1.41
  -4  -6  -7   83.14    2.44
   4  -6   7   79.00    3.28
  -4  -6  -7   74.02    2.97
   4  -6   7   81.02    3.02
   4  -6   7   82.05    2.85
  -4   6  -7   75.75    2.61
   4   6   7   76.02    2.63
   4   6   7   74.32    3.50
  -4   6  -7   75.80    3.11
   5  -6   7    6.91    1.21
  -5  -6  -7    6.78    1.40
   5  -6   7    7.11    1.58
   5  -6   7    8.42    1.39
   5   6   7    7.66    1.08
  -5   6  -7    7.72    1.07
  -5   6  -7    5.66    1.40
   5   6   7    6.36    1.41
  -6  -6  -7   50.28    2.68
   6  -6   7   50.52    2.41
   6  -6   7   45.22    2.96
  -6   6  -7   41.87    3.14
   6   6   7   43.90    2.20
   6   6   7   47.95    2.79
  -6   6  -7   41.99    2.71
   7  -6   7    1.73    1.59
  -7  -6  -7    1.83    1.42
  -7  -6  -7    2.34    1.14
  -7   6  -7    2.01    0.88
  -7   6  -7    2.96    1.62
   7   6   7    1.31    1.20
   7   6   7    2.67    1.56
  -8  -6  -7    5.61    1.32
   8  -6   7    2.73    1.68
  -8  -6  -7    7.39    1.75
   8   6   7    6.83    1.88
   8   6   7    7.47    1.39
  -9  -6  -7    8.04    1.65
  -9  -7   7    3.30    1.31
  -9   7   7    2.68    1.71
  -9   7   7    0.94    1.79
   8  -7  -7    2.30    1.59
  -8  -7   7    3.45    1.88
  -8   7   7   -0.77    1.56
   8   7  -7    2.35    1.64
   8   7  -7    0.86    1.88
  -8   7   7    0.57    1.36
  -8   7   7    2.93    1.82
   7  -7  -7    3.09    1.89
   7  -7  -7   -0.21    1.43
  -7  -7   7    2.91    1.80
  -7   7   7    2.67    1.45
  -7   7   7    0.09    1.58
  -7   7   7    0.44    1.20
   7   7  -7    0.59    1.65
   7   7  -7    2.90    1.30
  -6  -7   7    3.31    1.55
  -6  -7   7   -0.24    1.19
   6  -7  -7    0.42    1.46
   6  -7  -7   -0.50    1.71
   6   7  -7   -0.84    1.24
  -6   7   7    1.44    1.16
  -6   7   7    0.31    1.45
  -6   7   7    1.95    1.27
   5  -7  -7   18.90    2.45
  -5  -7   7   22.08    2.29
   5  -7  -7   18.37    2.04
  -5  -7   7   20.97    1.88
  -5   7   7   21.18    1.82
  -5   7   7   21.12    1.86
   5   7  -7   17.71    1.93
  -5   7   7   22.57    2.28
   4  -7  -7   25.76    1.96
  -4  -7   7   25.52    1.87
   4  -7  -7   23.45    2.31
  -4  -7   7   28.86    2.22
  -4   7   7   24.16    2.24
   4   7  -7   27.12    1.97
  -4   7   7   26.39    1.85
  -4   7   7   29.34    1.97
  -3  -7   7   16.21    1.64
   3  -7  -7   17.51    1.72
   3  -7  -7   13.89    1.77
  -3  -7   7   19.89    1.99
   3   7  -7   17.75    1.72
  -3   7   7   14.23    1.78
  -3   7   7   16.67    1.62
  -2  -7   7   41.98    2.30
   2  -7  -7   29.96    3.12
  -2  -7   7   37.50    2.03
   2  -7  -7   36.58    2.40
   2   7  -7   36.90    2.02
  -2   7   7   40.35    2.05
  -2   7   7   36.61    2.32
   1  -7  -7   16.14    1.57
  -1  -7   7   15.78    1.79
   1  -7  -7   14.37    2.00
  -1  -7   7   16.14    1.69
  -1   7   7   16.37    2.02
  -1   7   7   14.13    1.87
   1   7  -7   15.58    1.62
   0  -7  -7    1.18    0.90
   0  -7   7    2.12    1.10
   0  -7   7    0.10    1.12
   0  -7  -7    2.33    1.27
   0   7   7    3.11    1.54
   0   7  -7    2.31    0.87
   0   7   7    0.15    1.10
  -1  -7  -7   16.48    1.96
  -1  -7  -7   15.17    1.51
   1  -7   7   17.00    1.80
   1  -7   7   16.10    1.79
   1   7   7   19.18    2.08
  -1   7  -7   16.38    1.62
   1   7   7   16.95    1.56
  -2  -7  -7   10.17    1.41
  -2  -7  -7   12.15    1.67
   2  -7   7   12.97    1.76
   2  -7   7   11.74    1.73
   2   7   7   10.07    1.87
   2   7   7    9.23    1.17
  -2   7  -7   10.99    1.14
   3  -7   7    2.84    1.44
  -3  -7  -7    5.51    0.99
   3  -7   7    2.88    1.15
   3  -7   7    4.29    1.26
  -3  -7  -7    5.78    1.35
  -3   7  -7    4.69    1.02
   3   7   7    4.34    1.08
   3   7   7    3.36    1.41
   4  -7   7   -0.68    1.29
  -4  -7  -7    1.58    1.34
   4  -7   7    2.41    1.23
   4   7   7   -0.15    0.96
   4   7   7    0.22    1.39
  -4   7  -7    0.94    0.93
  -5  -7  -7   10.16    1.68
   5  -7   7    6.35    1.70
   5  -7   7    7.94    1.45
   5   7   7    9.26    1.35
   5   7   7    9.30    1.76
  -5   7  -7   10.24    1.19
   6  -7   7    1.13    1.64
   6  -7   7    5.21    1.46
  -6  -7  -7    5.06    1.22
  -6  -7  -7    3.85    1.60
  -6   7  -7    6.67    1.15
   6   7   7    4.85    1.33
   6   7   7    3.67    1.66
   7  -7   7    7.67    1.92
  -7  -7  -7    4.17    1.66
  -7  -7  -7    5.75    1.34
   7   7   7    7.07    1.41
   7   7   7    5.73    1.91
  -8   8   7    2.00    2.01
   7  -8  -7    6.88    2.33
  -7  -8   7    9.55    1.54
   7   8  -7   12.18    1.68
  -7   8   7   12.93    2.15
  -7   8   7   14.38    1.87
  -7   8   7   16.61    2.10
  -6  -8   7    1.08    1.69
   6  -8  -7   -3.60    2.07
   6  -8  -7   -3.59    1.48
  -6  -8   7    1.28    1.33
   6   8  -7   -0.65    1.37
  -6   8   7    0.59    1.80
  -6   8   7    0.49    1.37
  -6   8   7    3.21    1.55
  -5  -8   7    2.45    1.65
  -5  -8   7    1.88    1.27
   5  -8  -7    1.15    1.88
   5  -8  -7    0.35    1.45
   5   8  -7   -0.91    1.30
  -5   8   7    0.61    1.22
  -5   8   7    2.95    1.46
  -5   8   7    1.69    1.70
  -4  -8   7    8.17    1.62
  -4  -8   7    6.67    1.46
   4  -8  -7    5.32    1.82
   4  -8  -7    5.92    1.44
  -4   8   7    8.54    1.36
   4   8  -7    5.67    1.38
  -4   8   7    7.96    1.75
   3  -8  -7   48.13    2.61
   3  -8  -7   46.91    3.02
  -3  -8   7   47.96    2.56
   3   8  -7   51.62    2.64
  -3   8   7   49.47    2.44
  -3   8   7   46.66    2.88
  -2  -8   7   12.20    1.58
   2  -8  -7   11.03    1.45
   2  -8  -7   11.50    1.84
  -2  -8   7   13.27    1.83
  -2   8   7    9.47    1.34
   2   8  -7   11.66    1.50
  -2   8   7   10.86    1.60
  -1  -8   7    1.58    1.27
  -1  -8   7    3.65    1.27
   1  -8  -7    2.53    1.19
   1  -8  -7    1.02    1.62
   1   8  -7    2.48    1.13
  -1   8   7    2.23    1.36
  -1   8   7    3.04    1.14
   0  -8  -7    5.61    1.21
   0  -8  -7    3.18    1.58
   0  -8   7    4.91    1.32
   0   8  -7    4.25    1.20
   0   8   7    4.33    1.12
   0   8   7    5.07    1.56
  -1  -8  -7   16.21    1.78
  -1  -8  -7   17.00    2.28
   1  -8   7   20.30    2.10
   1   8   7   18.57    1.96
  -1   8  -7   17.25    1.89
   1   8   7   20.34    1.79
  -2  -8  -7    3.82    1.60
  -2  -8  -7    2.57    1.11
   2  -8   7    2.75    1.31
  -2   8  -7    3.14    1.11
   2   8   7    4.62    1.55
   2   8   7    1.30    1.12
   3  -8   7    7.47    1.75
  -3  -8  -7   12.19    1.85
   3  -8   7   13.44    1.69
  -3  -8  -7   11.47    1.82
   3   8   7   10.23    1.87
  -3   8  -7   11.38    1.46
   3   8   7   12.89    1.48
   4  -8   7    5.14    1.79
   4  -8   7    5.25    1.50
  -4  -8  -7    5.05    1.67
   4   8   7    0.02    1.71
   4   8   7    4.46    1.22
  -4   8  -7    5.49    1.25
   5  -8   7    3.57    1.54
  -5  -8  -7    4.47    1.75
   5  -8   7   -0.21    1.61
   5   8   7    2.43    1.74
  -5   8  -7    2.39    1.23
   5   8   7    0.69    1.30
   6  -8   7   22.45    2.48
  -6  -8  -7   20.88    2.61
  -6   8  -7   23.67    2.12
   6   8   7   18.19    2.26
   6   8   7   20.70    2.27
   5  -9  -7    1.83    2.03
   5   9  -7    0.11    1.40
  -5   9   7    3.27    1.33
  -4  -9   7   -0.81    1.19
   4  -9  -7   -0.71    1.34
   4  -9  -7   -3.37    2.01
  -4   9   7   -0.18    1.79
   4   9  -7    0.84    1.41
  -4   9   7    0.01    1.34
   3  -9  -7   21.62    3.03
   3  -9  -7   22.96    2.41
  -3  -9   7   29.23    2.34
   3   9  -7   28.13    2.49
  -3   9   7   20.20    2.21
  -3   9   7   24.63    2.33
   2  -9  -7   34.28    3.07
  -2  -9   7   33.45    2.60
   2  -9  -7   32.18    2.47
  -2   9   7   33.65    3.03
  -2   9   7   35.09    2.32
   2   9  -7   39.65    2.66
   1  -9  -7    4.10    2.02
   1  -9  -7    6.00    1.50
  -1  -9   7    9.72    1.70
   1   9  -7    9.19    1.51
  -1   9   7   10.71    2.08
  -1   9   7    7.30    1.44
   0  -9  -7    5.98    1.86
   0  -9  -7    9.38    1.53
   0  -9   7    6.27    1.62
   0   9   7    3.85    1.93
   0   9   7    4.51    1.33
   0   9  -7    4.41    1.35
  -1  -9  -7    5.87    1.39
   1  -9   7    7.86    1.78
  -1  -9  -7    8.43    1.97
   1   9   7    5.73    1.93
   1   9   7    4.69    1.38
  -1   9  -7    6.49    1.47
  -2  -9  -7    3.02    1.23
   2  -9   7    2.30    1.57
  -2  -9  -7    0.91    1.58
   2   9   7    2.45    1.91
   2   9   7    2.64    1.38
  -2   9  -7    3.63    1.37
   3  -9   7   -2.56    1.54
   3  -9   7    0.18    1.50
  -3  -9  -7    1.00    1.97
   3   9   7   -1.63    1.93
  -3   9  -7    3.62    1.24
   3   9   7    1.86    1.32
   4  -9   7    2.94    1.53
   4   9   7    2.87    1.94
   4   9   7    1.83    1.43
 -12   0   8    2.10    1.60
  12   0  -8   -0.90    1.46
  12   0  -8    2.68    1.98
 -12   0   8    0.87    1.18
 -12   0   8    1.29    1.20
 -12   0   8   -0.97    1.98
 -11   0   8    3.19    1.46
 -11   0   8    1.02    1.06
  11   0  -8    0.28    1.30
  11   0  -8    2.24    1.77
 -11   0   8    2.33    1.33
 -11   0   8   -0.43    1.74
  10   0  -8    0.78    1.16
 -10   0   8    2.33    1.20
 -10   0   8    0.62    1.06
 -10   0   8   -0.04    0.87
  10   0  -8    1.77    1.40
  10   0  -8   -1.08    1.10
 -10   0   8    2.04    1.52
   9   0  -8    6.20    1.12
  -9   0   8    7.92    1.17
  -9   0   8    5.85    1.35
  -9   0   8    8.05    1.65
   8   0  -8   -0.04    0.86
   8   0  -8    0.85    0.69
   8   0  -8   -0.46    1.01
  -8   0   8    1.91    0.75
  -8   0   8   -0.88    0.97
  -8   0   8    0.82    0.82
  -8   0   8   -1.67    1.12
   8   0  -8    1.51    0.91
  -7   0   8   30.92    1.42
   7   0  -8   30.80    1.37
  -7   0   8   30.37    1.48
  -7   0   8   29.57    1.78
   7   0  -8   31.22    1.90
   7   0  -8   32.74    1.73
   7   0  -8   30.08    1.61
  -7   0   8   28.79    1.96
   6   0  -8    4.44    0.80
   6   0  -8    5.53    0.98
  -6   0   8    6.51    1.52
  -6   0   8    4.92    0.72
  -6   0   8    6.12    0.85
  -6   0   8    6.56    0.97
   6   0  -8    5.97    0.72
   6   0  -8    5.25    0.77
  -5   0   8   -0.24    0.75
   5   0  -8    0.26    0.25
   5   0  -8    0.89    0.55
  -5   0   8    0.57    0.52
   5   0  -8    0.33    0.72
   5   0  -8    0.44    0.65
  -5   0   8    0.27    0.56
  -5   0   8    0.01    0.70
   5   0  -8    0.23    0.55
   4   0  -8    0.30    0.51
   4   0  -8    0.54    0.60
  -4   0   8    0.35    0.63
  -4   0   8    0.48    0.77
  -4   0   8    0.68    0.44
   4   0  -8   -0.02    0.49
  -4   0   8    0.88    0.55
   4   0  -8    0.07    0.32
   4   0  -8    0.55    0.55
  -3   0   8    1.27    0.36
  -3   0   8    1.49    0.59
  -3   0   8    1.12    0.49
   3   0  -8    1.20    0.35
   3   0  -8    0.71    0.56
  -3   0   8    0.00    0.40
   3   0  -8    1.04    0.52
   3   0  -8    1.06    0.38
  -3   0   8    1.23    0.78
   2   0  -8  333.76    7.79
  -2   0   8  325.91    7.77
   2   0  -8  327.05    7.79
  -2   0   8  312.90    7.78
   2   0  -8  324.22    7.85
   2   0  -8  322.38    7.83
  -2   0   8  315.95    7.66
  -2   0   8  327.80    7.89
  -2   0   8  324.05    8.06
  -1   0   8    1.84    0.76
  -1   0   8    2.42    0.35
   1   0  -8    1.78    0.49
  -1   0   8    3.46    0.59
   1   0  -8    2.70    0.52
  -1   0   8    2.00    0.33
  -1   0   8    1.81    0.48
   0   0   8   53.15    1.99
   0   0  -8   53.68    1.58
   0   0   8   53.42    1.49
   0   0   8   52.32    1.48
   0   0  -8   52.69    1.78
   0   0   8   51.00    1.55
   0   0   8   50.87    1.59
   0   0  -8   51.58    1.69
   0   0   8   50.99    1.74
  -1   0  -8   16.97    1.06
  -1   0  -8   17.08    0.99
   1   0   8   18.72    1.03
   1   0   8   18.12    0.77
   1   0   8   19.28    1.36
   1   0   8   17.43    0.75
   2   0   8   45.12    1.32
   2   0   8   44.22    1.40
   2   0   8   41.81    1.82
  -2   0  -8   45.48    1.55
   2   0   8   45.72    1.64
   2   0   8   43.70    1.49
  -2   0  -8   44.70    1.77
   3   0   8   26.41    0.84
  -3   0  -8   25.97    1.47
  -3   0  -8   26.22    1.19
   3   0   8   26.01    1.53
   3   0   8   25.73    1.08
   3   0   8   26.36    1.30
   3   0   8   26.95    1.32
   4   0   8    4.45    1.04
  -4   0  -8    4.28    0.81
   4   0   8    4.93    0.62
   4   0   8    5.04    0.63
  -4   0  -8    5.36    0.62
   4   0   8    4.75    0.82
   4   0   8    5.36    0.73
   5   0   8   22.14    1.25
   5   0   8   21.42    1.43
  -5   0  -8   20.05    1.50
  -5   0  -8   20.39    1.66
  -5   0  -8   22.06    1.08
   5   0   8   18.77    1.57
   5   0   8   20.22    1.12
   5   0   8   21.30    1.43
  -6   0  -8   11.46    0.94
  -6   0  -8   13.51    1.18
  -6   0  -8   11.25    1.47
   6   0   8   12.12    1.39
   6   0   8   12.78    1.39
   6   0   8   12.62    1.51
   7   0   8   -1.12    0.82
  -7   0  -8   -0.05    0.82
  -7   0  -8    0.59    0.49
   7   0   8    0.92    0.81
  -7   0  -8   -0.03    0.93
   7   0   8   -0.20    0.95
   8   0   8   30.85    2.25
  -8   0  -8   33.70    2.12
  -8   0  -8   34.04    1.83
   8   0   8   29.64    2.03
   9   0   8   -0.03    1.31
   9   0   8    1.08    1.12
  -9   0  -8    2.76    1.10
  -9   0  -8    1.20    1.27
 -10   0  -8   -1.48    1.36
  10   0   8    0.66    1.65
 -10   0  -8    2.50    1.31
  10   0   8    1.89    1.32
  11   0   8   11.66    1.67
  11   0   8   14.91    2.11
 -11   0  -8   21.01    2.38
 -11   0  -8   20.94    2.28
  12  -1  -8    2.62    1.98
  12  -1  -8    5.57    1.66
  12  -1  -8    1.36    1.55
 -12  -1   8    3.48    1.99
 -12  -1   8    3.75    1.35
 -12  -1   8    3.29    1.18
 -12  -1   8    2.78    1.55
 -12   1   8    1.16    1.81
  12   1  -8    2.14    1.83
 -12   1   8    1.37    2.25
 -12   1   8    3.03    1.12
 -12   1   8    2.27    1.59
  11  -1  -8    3.96    1.84
 -11  -1   8    3.95    1.90
 -11  -1   8    4.72    1.37
  11  -1  -8    4.83    1.51
 -11  -1   8    4.21    1.14
 -11  -1   8    8.20    1.71
  11  -1  -8    1.73    1.36
 -11   1   8    6.25    1.44
 -11   1   8    4.62    1.56
  11   1  -8    4.00    1.44
 -11   1   8    7.10    2.02
  11   1  -8    2.48    1.86
 -11   1   8    6.09    1.25
  10  -1  -8    0.75    1.22
 -10  -1   8    1.86    0.89
 -10  -1   8    1.16    1.49
 -10  -1   8    0.74    1.01
 -10  -1   8    3.54    1.35
  10  -1  -8    0.13    1.42
  10  -1  -8    0.61    1.13
 -10   1   8   -0.03    1.07
  10   1  -8    0.48    1.51
  10   1  -8    1.74    1.14
 -10   1   8    1.21    1.00
 -10   1   8   -0.68    1.56
 -10   1   8    1.51    1.22
  -9  -1   8    5.50    1.61
  -9  -1   8    4.86    0.87
   9  -1  -8    3.76    1.03
  -9  -1   8    5.57    1.01
   9  -1  -8    3.60    1.31
  -9  -1   8    6.71    1.59
   9  -1  -8    5.31    1.16
  -9   1   8    6.62    1.51
   9   1  -8    4.40    1.31
  -9   1   8    8.08    1.21
  -9   1   8    4.20    0.90
  -9   1   8    7.51    1.32
   8  -1  -8   10.99    1.21
   8  -1  -8   10.38    1.35
   8  -1  -8   10.66    1.43
   8  -1  -8   13.05    1.53
  -8  -1   8   10.94    1.32
  -8  -1   8   13.76    1.58
  -8  -1   8   12.33    1.85
  -8  -1   8    9.64    1.17
  -8   1   8   12.47    1.37
   8   1  -8   11.53    1.19
  -8   1   8   12.50    1.88
  -8   1   8   11.20    1.24
   8   1  -8   10.51    1.33
   8   1  -8   13.32    1.53
  -8   1   8   12.05    1.48
  -7  -1   8    2.99    0.94
  -7  -1   8    3.16    0.77
  -7  -1   8    2.88    1.15
   7  -1  -8    2.82    0.68
  -7  -1   8    3.24    0.70
   7  -1  -8    3.35    1.00
   7  -1  -8    3.45    0.92
   7  -1  -8    2.51    0.76
   7   1  -8    2.95    0.68
  -7   1   8    3.34    0.87
  -7   1   8    4.70    1.18
   7   1  -8    4.02    1.01
  -7   1   8    3.44    0.79
   7   1  -8    3.29    0.85
  -7   1   8    3.10    0.92
   7   1  -8    3.15    0.90
   6  -1  -8   10.46    0.49
   6  -1  -8   11.12    1.25
  -6  -1   8   10.67    0.92
  -6  -1   8   10.64    1.50
  -6  -1   8   11.02    1.08
  -6  -1   8   11.83    1.29
   6  -1  -8   11.58    1.30
   6  -1  -8    9.37    1.07
   6  -1  -8    9.63    1.04
   6   1  -8    9.36    1.25
  -6   1   8   10.94    1.14
  -6   1   8    9.51    1.04
  -6   1   8    9.22    1.39
  -6   1   8   10.80    1.22
   6   1  -8    9.53    1.04
   6   1  -8   11.52    1.22
   6   1  -8   10.13    1.44
   5  -1  -8   47.75    1.64
   5  -1  -8   45.20    2.15
  -5  -1   8   48.70    1.84
   5  -1  -8   49.87    1.39
   5  -1  -8   47.76    1.67
  -5  -1   8   46.61    1.55
  -5  -1   8   48.39    1.69
   5  -1  -8   48.21    1.81
  -5  -1   8   44.94    2.08
   5   1  -8   46.69    1.63
   5   1  -8   47.69    1.79
  -5   1   8   45.96    1.93
   5   1  -8   48.88    1.99
  -5   1   8   47.56    1.95
  -5   1   8   48.54    1.64
   5   1  -8   44.64    1.80
  -5   1   8   45.42    1.67
  -4  -1   8  126.39    3.13
  -4  -1   8  125.24    3.39
  -4  -1   8  118.58    3.60
  -4  -1   8  124.65    3.25
   4  -1  -8  114.78    3.36
   4  -1  -8  119.29    3.39
   4  -1  -8  120.43    3.28
  -4  -1   8  126.13    3.03
   4  -1  -8  121.55    3.12
   4  -1  -8  121.49    3.12
   4   1  -8  128.05    3.37
  -4   1   8  122.82    3.36
  -4   1   8  123.00    3.54
  -4   1   8  125.20    3.28
   4   1  -8  125.61    3.54
   4   1  -8  123.70    3.32
   4   1  -8  126.50    3.48
  -4   1   8  122.36    3.55
   4   1  -8  124.99    3.08
   3  -1  -8   82.23    2.52
  -3  -1   8   84.67    2.27
   3  -1  -8   84.08    2.23
   3  -1  -8   87.70    2.49
   3  -1  -8   85.29    2.35
   3  -1  -8   84.96    2.37
  -3  -1   8   87.30    2.23
  -3  -1   8   84.90    2.75
  -3  -1   8   87.33    2.49
  -3  -1   8   89.33    2.39
   3   1  -8   87.50    2.44
  -3   1   8   82.68    2.59
  -3   1   8   84.81    2.23
  -3   1   8   82.33    2.62
  -3   1   8   83.25    2.34
  -3   1   8   84.28    2.45
   3   1  -8   86.01    2.53
   3   1  -8   86.79    2.57
   3   1  -8   84.09    2.42
   3   1  -8   86.16    2.27
   2  -1  -8   30.53    1.17
   2  -1  -8   29.35    1.26
   2  -1  -8   29.76    1.25
  -2  -1   8   29.38    0.93
  -2  -1   8   27.01    1.25
  -2  -1   8   27.80    1.50
   2  -1  -8   30.96    1.06
  -2   1   8   31.13    1.46
  -2   1   8   30.82    0.95
  -2   1   8   31.07    1.38
  -2   1   8   31.54    1.14
   2   1  -8   28.32    1.13
   2   1  -8   29.46    1.27
  -2   1   8   30.84    1.23
  -2   1   8   30.18    1.10
  -1  -1   8   68.74    1.80
  -1  -1   8   71.64    2.00
   1  -1  -8   69.79    2.12
   1  -1  -8   68.69    2.02
  -1  -1   8   66.14    2.34
  -1  -1   8   70.96    1.89
   1  -1  -8   68.69    2.05
  -1   1   8   67.23    2.15
  -1   1   8   71.86    2.32
  -1   1   8   71.04    1.89
  -1   1   8   72.00    2.07
   1   1  -8   67.42    2.06
   1   1  -8   71.52    1.85
  -1   1   8   72.35    1.78
  -1   1   8   70.53    1.99
   0  -1  -8    1.03    0.60
   0  -1   8    0.98    0.37
   0  -1  -8    0.92    0.35
   0  -1  -8    0.58    0.51
   0  -1   8    1.35    0.25
   0  -1   8    1.34    0.79
   0  -1   8    1.64    0.32
   0   1  -8    1.94    0.53
   0   1  -8    0.81    0.31
   0   1   8    0.91    0.56
   0   1   8    0.61    0.69
   0   1   8    0.93    0.40
   0   1   8    0.74    0.30
   0   1   8    0.80    0.21
   0   1   8    0.36    0.48
   0   1  -8    1.94    0.60
  -1  -1  -8   12.66    1.10
  -1  -1  -8   13.53    0.66
   1  -1   8   13.85    0.76
  -1  -1  -8   13.20    0.96
   1  -1   8   12.78    0.57
   1  -1   8   14.71    1.34
   1   1   8   13.68    0.69
   1   1   8   13.07    0.56
   1   1   8   13.34    1.21
   1   1   8   12.43    0.67
  -1   1  -8   12.75    0.85
  -1   1  -8   11.89    1.07
   1   1   8   13.58    0.98
  -1   1  -8   11.47    0.59
   1   1   8   12.27    1.04
  -2  -1  -8    2.39    0.52
   2  -1   8    2.25    0.83
  -2  -1  -8    1.91    0.64
   2  -1   8    1.83    0.58
   2  -1   8    1.78    0.30
   2   1   8    2.62    0.83
   2   1   8    2.53    0.67
  -2   1  -8    2.42    0.72
   2   1   8    2.88    0.36
  -2   1  -8    1.93    0.54
   2   1   8    2.19    0.33
   2   1   8    2.53    0.40
   2   1   8    2.26    0.48
   3  -1   8  114.58    2.98
   3  -1   8  117.35    3.58
   3  -1   8  117.45    3.32
   3  -1   8  118.58    2.94
   3  -1   8  117.72    3.20
  -3  -1  -8  119.39    3.14
  -3  -1  -8  112.34    3.36
   3   1   8  124.31    2.90
   3   1   8  122.66    3.43
   3   1   8  118.74    3.06
  -3   1  -8  114.80    3.43
   3   1   8  118.84    3.60
  -3   1  -8  119.66    3.21
   3   1   8  119.96    3.17
   3   1   8  117.60    3.12
   4  -1   8   63.72    1.61
  -4  -1  -8   60.49    2.27
   4  -1   8   61.49    2.08
   4  -1   8   63.28    2.23
   4  -1   8   62.84    1.83
   4  -1   8   58.63    2.36
  -4  -1  -8   61.06    1.93
   4   1   8   58.90    2.23
   4   1   8   60.08    1.97
  -4   1  -8   60.88    1.90
   4   1   8   58.81    2.41
  -4   1  -8   62.27    2.30
   4   1   8   61.30    1.90
   4   1   8   61.92    1.93
   5  -1   8   37.40    1.94
   5  -1   8   37.78    1.98
  -5  -1  -8   40.74    1.47
   5  -1   8   38.97    1.74
  -5  -1  -8   40.53    1.94
   5  -1   8   40.44    1.71
   5   1   8   39.02    1.68
   5   1   8   34.59    1.77
  -5   1  -8   38.63    1.92
  -5   1  -8   38.33    1.43
   5   1   8   39.12    1.56
   5   1   8   39.53    1.53
   5   1   8   36.79    2.07
  -5   1  -8   38.75    1.43
  -6  -1  -8    1.14    0.89
   6  -1   8   -0.70    1.11
   6  -1   8   -0.31    0.77
  -6  -1  -8   -0.24    0.71
  -6  -1  -8   -0.36    0.48
   6  -1   8   -1.01    0.73
   6  -1   8   -0.31    0.88
  -6   1  -8   -0.07    0.48
  -6   1  -8    0.14    0.87
   6   1   8   -0.47    0.87
   6   1   8   -0.59    0.76
   6   1   8   -0.31    0.62
   6   1   8   -0.12    0.65
  -6   1  -8   -0.75    0.66
  -7  -1  -8    7.29    0.85
  -7  -1  -8    7.18    1.16
   7  -1   8    7.28    1.04
   7  -1   8    7.17    1.20
  -7  -1  -8    7.32    1.04
   7   1   8    7.19    0.93
  -7   1  -8    7.20    0.89
  -7   1  -8    6.63    0.95
  -7   1  -8    7.31    1.28
   7   1   8    6.07    1.08
   7   1   8    8.08    1.23
  -8  -1  -8   27.65    1.99
  -8  -1  -8   23.85    2.16
   8   1   8   21.35    1.98
  -8   1  -8   21.22    1.99
  -8   1  -8   24.53    1.61
   8   1   8   26.50    2.17
   8   1   8   25.66    1.84
   9  -1   8    3.68    1.18
  -9  -1  -8    1.74    1.24
   9  -1   8    2.81    1.48
  -9  -1  -8    2.05    1.16
  -9   1  -8    3.29    1.43
   9   1   8    1.15    1.10
   9   1   8    2.15    1.42
  -9   1  -8    3.51    1.29
 -10  -1  -8    5.53    1.41
  10  -1   8    2.53    1.42
 -10  -1  -8    2.01    1.52
  10  -1   8    2.19    1.75
  10   1   8    3.04    1.42
  10   1   8    3.43    1.72
 -10   1  -8    5.89    1.30
 -10   1  -8    6.11    1.59
  11  -1   8   12.23    2.00
 -11  -1  -8   17.78    2.09
  11  -1   8   19.13    2.23
 -11  -1  -8   15.48    1.86
 -11   1  -8   13.42    1.73
  11   1   8   16.16    3.22
  11   1   8   13.64    1.82
  12  -2  -8    7.16    2.03
 -12  -2   8    9.78    1.30
  12  -2  -8   10.40    1.85
  12  -2  -8    7.55    1.58
 -12  -2   8   12.74    1.95
 -11  -2   8   17.39    1.83
  11  -2  -8   19.86    2.36
  11  -2  -8   16.49    2.32
 -11  -2   8   20.13    2.46
 -11  -2   8   16.93    1.97
 -11  -2   8   17.98    2.29
  11  -2  -8   17.75    2.16
 -11   2   8   20.35    2.20
 -11   2   8   18.81    2.59
  11   2  -8   14.80    2.11
  11   2  -8   16.89    2.38
 -11   2   8   19.09    1.96
 -11   2   8   21.04    3.00
 -10  -2   8   31.45    2.75
 -10  -2   8   29.40    1.77
  10  -2  -8   27.74    2.17
 -10  -2   8   29.82    2.35
  10  -2  -8   27.46    2.57
 -10  -2   8   28.33    1.95
  10  -2  -8   30.70    2.33
 -10   2   8   28.92    1.91
 -10   2   8   27.15    2.39
  10   2  -8   24.38    2.22
 -10   2   8   27.63    2.06
  10   2  -8   25.92    2.69
   9  -2  -8   27.63    2.27
   9  -2  -8   31.65    2.05
  -9  -2   8   29.05    1.74
   9  -2  -8   30.77    2.02
  -9  -2   8   31.80    1.64
  -9  -2   8   30.49    2.50
  -9   2   8   29.45    2.19
  -9   2   8   32.13    2.39
   9   2  -8   27.13    2.42
  -9   2   8   29.31    1.90
  -9   2   8   31.66    1.76
   9   2  -8   30.95    2.11
  -8  -2   8   16.50    2.00
   8  -2  -8   15.54    1.36
  -8  -2   8   16.56    1.26
  -8  -2   8   16.73    1.64
   8  -2  -8   17.12    1.61
   8  -2  -8   15.43    1.81
   8  -2  -8   18.18    1.70
  -8  -2   8   16.23    1.40
  -8   2   8   18.47    1.95
  -8   2   8   17.36    1.43
  -8   2   8   19.10    1.91
   8   2  -8   16.21    1.38
   8   2  -8   20.84    2.06
   8   2  -8   17.25    1.65
  -8   2   8   17.67    2.19
  -7  -2   8   17.58    1.87
   7  -2  -8   15.95    1.57
   7  -2  -8   17.65    1.29
  -7  -2   8   17.18    1.28
   7  -2  -8   18.11    1.38
  -7  -2   8   16.27    1.47
   7  -2  -8   16.25    1.53
  -7  -2   8   18.38    1.13
  -7   2   8   19.45    1.64
   7   2  -8   17.08    1.25
  -7   2   8   17.85    1.41
   7   2  -8   17.23    1.84
   7   2  -8   15.93    1.52
  -7   2   8   15.41    1.27
  -7   2   8   17.65    1.68
   6  -2  -8  162.04    4.20
   6  -2  -8  157.78    3.95
  -6  -2   8  161.46    4.07
   6  -2  -8  164.01    4.34
   6  -2  -8  161.51    4.16
  -6  -2   8  159.19    4.21
  -6  -2   8  156.93    4.37
   6  -2  -8  157.06    4.40
  -6  -2   8  152.65    4.63
   6   2  -8  158.93    4.35
  -6   2   8  158.26    4.39
  -6   2   8  155.25    4.26
   6   2  -8  155.15    4.53
  -6   2   8  154.83    4.49
   6   2  -8  156.77    4.10
  -6   2   8  157.00    4.17
   5  -2  -8   24.02    1.42
   5  -2  -8   21.95    0.96
  -5  -2   8   25.19    1.02
   5  -2  -8   25.91    1.31
   5  -2  -8   23.32    1.26
  -5  -2   8   22.50    1.69
  -5  -2   8   24.14    1.19
  -5  -2   8   23.36    1.30
  -5  -2   8   23.38    0.68
   5   2  -8   24.43    1.25
  -5   2   8   26.02    1.43
   5   2  -8   25.79    1.45
   5   2  -8   25.65    1.73
  -5   2   8   24.78    1.37
  -5   2   8   23.69    1.57
  -5   2   8   23.56    1.24
  -4  -2   8    1.87    0.35
  -4  -2   8    2.17    0.61
   4  -2  -8    1.38    0.33
   4  -2  -8    1.06    0.45
  -4  -2   8    1.80    0.51
   4  -2  -8    1.80    0.64
  -4  -2   8    2.79    0.36
  -4  -2   8    1.97    0.91
   4  -2  -8    2.19    0.43
   4  -2  -8    1.73    0.73
   4   2  -8    1.42    0.69
   4   2  -8    2.27    0.81
  -4   2   8    2.70    0.66
  -4   2   8    2.20    0.74
  -4   2   8    1.68    0.78
   4   2  -8    1.12    0.56
  -4   2   8    1.80    0.63
   4   2  -8    2.53    0.42
   3  -2  -8   45.73    1.71
   3  -2  -8   45.49    1.64
  -3  -2   8   45.50    1.51
   3  -2  -8   45.98    1.38
  -3  -2   8   41.51    1.92
   3  -2  -8   45.25    1.25
  -3  -2   8   44.01    1.26
   3  -2  -8   46.03    1.59
  -3  -2   8   46.30    1.46
   3   2  -8   43.89    1.84
  -3   2   8   44.37    1.77
   3   2  -8   45.05    1.67
   3   2  -8   44.86    1.42
  -3   2   8   44.32    1.42
  -3   2   8   43.68    1.71
  -3   2   8   43.17    1.52
  -3   2   8   44.12    1.64
   3   2  -8   43.31    1.60
   2  -2  -8    1.47    0.60
   2  -2  -8    1.14    0.58
  -2  -2   8    0.70    0.22
  -2  -2   8    0.69    0.34
   2  -2  -8    0.90    0.56
  -2  -2   8    0.83    0.77
  -2  -2   8    1.05    0.32
  -2   2   8    0.26    0.31
   2   2  -8    0.63    0.45
  -2   2   8    0.53    0.46
  -2   2   8    0.61    0.69
  -2   2   8    1.25    0.62
  -2   2   8    1.49    0.67
   2   2  -8    1.41    0.53
  -1  -2   8   48.89    1.35
   1  -2  -8   44.02    1.64
  -1  -2   8   48.54    1.43
  -1  -2   8   46.75    1.93
   1  -2  -8   46.72    1.61
  -1  -2   8   49.05    1.23
   1  -2  -8   44.94    1.68
  -1   2   8   47.39    1.81
  -1   2   8   45.48    1.81
  -1   2   8   45.36    1.63
   1   2  -8   46.40    1.66
   1   2  -8   49.12    1.66
  -1   2   8   46.50    1.54
  -1   2   8   46.30    1.22
   1   2  -8   49.92    1.44
   0  -2  -8   13.15    1.00
   0  -2   8   12.82    0.67
   0  -2  -8   13.93    1.09
   0  -2  -8   14.51    0.92
   0  -2   8   13.43    0.48
   0  -2   8   14.40    1.21
   0   2   8   14.55    1.16
   0   2  -8   13.98    0.54
   0   2  -8   14.05    0.64
   0   2  -8   13.12    0.81
   0   2   8   12.61    1.15
   0   2  -8   12.22    1.00
   0   2   8   13.94    0.40
   0   2   8   13.43    0.87
   0   2  -8   14.22    1.10
   0   2   8   13.29    0.96
  -1  -2  -8   33.85    1.11
   1  -2   8   33.43    1.73
   1  -2   8   33.25    1.11
   1  -2   8   32.54    0.92
  -1  -2  -8   32.80    1.51
  -1  -2  -8   32.26    1.29
   1   2   8   31.59    0.86
   1   2   8   30.08    1.23
  -1   2  -8   32.30    0.94
   1   2   8   31.00    1.59
  -1   2  -8   32.86    1.36
   1   2   8   31.56    0.85
  -1   2  -8   33.17    1.01
  -1   2  -8   32.33    1.16
  -1   2  -8   31.58    1.52
   1   2   8   32.26    1.53
   2  -2   8   43.25    1.36
  -2  -2  -8   41.66    1.70
  -2  -2  -8   41.49    1.25
  -2  -2  -8   42.79    1.56
   2  -2   8   45.11    2.01
   2  -2   8   43.06    1.18
   2   2   8   44.93    1.26
   2   2   8   46.02    1.26
  -2   2  -8   44.78    1.32
   2   2   8   45.31    1.33
   2   2   8   45.23    1.83
   2   2   8   45.04    1.91
  -2   2  -8   45.76    1.61
  -2   2  -8   45.57    1.28
   2   2   8   45.54    1.21
   2   2   8   42.26    1.54
  -2   2  -8   42.93    1.83
   3  -2   8  128.89    3.63
  -3  -2  -8  117.21    3.59
  -3  -2  -8  122.81    2.99
  -3  -2  -8  121.34    3.32
   3  -2   8  124.08    3.77
   3  -2   8  124.99    3.15
   3   2   8  120.02    3.53
   3   2   8  123.02    3.05
  -3   2  -8  125.06    3.32
   3   2   8  117.58    3.64
   3   2   8  124.35    3.30
   3   2   8  121.85    3.09
  -3   2  -8  121.79    3.57
   3   2   8  125.19    2.99
  -4  -2  -8   21.98    1.55
  -4  -2  -8   23.66    1.21
   4  -2   8   20.91    0.82
   4  -2   8   19.94    1.70
   4  -2   8   18.95    1.57
   4  -2   8   20.44    1.14
  -4   2  -8   20.12    0.85
   4   2   8   20.50    0.94
  -4   2  -8   18.90    1.12
   4   2   8   20.39    1.62
  -4   2  -8   19.30    1.42
   4   2   8   21.98    1.19
   4   2   8   19.99    0.87
   4   2   8   22.15    1.50
   5  -2   8    1.33    0.30
   5  -2   8    0.87    0.98
  -5  -2  -8    1.41    0.87
   5  -2   8    0.83    0.65
  -5  -2  -8    0.61    0.54
   5  -2   8    0.60    0.85
  -5   2  -8    1.94    0.55
   5   2   8    1.04    0.54
   5   2   8    1.11    0.86
  -5   2  -8    0.83    0.53
   5   2   8    0.50    0.66
   5   2   8    0.95    0.62
  -5   2  -8   -0.21    0.88
  -6  -2  -8   18.99    1.35
   6  -2   8   17.11    1.60
   6  -2   8   16.96    1.79
   6  -2   8   17.94    1.86
  -6  -2  -8   17.40    1.67
  -6  -2  -8   16.84    1.07
  -6   2  -8   19.18    1.12
  -6   2  -8   17.14    1.14
   6   2   8   16.74    1.67
   6   2   8   17.28    1.49
   6   2   8   18.48    1.30
  -6   2  -8   17.73    1.51
   6   2   8   16.12    1.34
   7  -2   8    6.06    1.19
  -7  -2  -8    4.59    0.63
   7  -2   8    5.59    1.08
  -7  -2  -8    5.99    1.37
  -7  -2  -8    5.79    1.12
  -7   2  -8    5.11    0.68
   7   2   8    5.67    1.09
  -7   2  -8    6.82    0.92
   7   2   8    5.41    0.95
   7   2   8    4.17    1.17
  -8  -2  -8   51.73    2.51
   8  -2   8   50.47    2.56
   8  -2   8   51.29    2.79
  -8  -2  -8   50.58    2.31
   8   2   8   51.71    2.42
   8   2   8   54.65    2.63
  -8   2  -8   49.49    2.02
   8   2   8   51.97    2.67
  -8   2  -8   49.54    2.56
   9  -2   8   11.44    1.76
   9  -2   8   14.51    1.62
  -9  -2  -8   16.63    1.94
  -9  -2  -8   12.16    1.65
   9   2   8   15.12    1.80
   9   2   8   16.33    2.17
  -9   2  -8   18.00    2.21
  10  -2   8   10.37    1.67
 -10  -2  -8    6.59    1.50
  10  -2   8    8.44    1.88
 -10  -2  -8    8.08    1.65
 -10   2  -8    9.10    1.80
  10   2   8    9.76    1.53
 -11  -2  -8   20.44    2.37
 -11   2  -8   17.83    2.65
  12  -3  -8    0.76    1.93
 -12  -3   8    1.40    0.99
  12  -3  -8   -0.96    1.39
 -11  -3   8   10.52    2.23
  11  -3  -8   10.59    1.72
 -11  -3   8   15.55    1.93
  11  -3  -8    9.06    1.94
  11  -3  -8   10.83    1.58
 -11  -3   8   14.77    1.74
 -11   3   8   13.68    2.11
  11   3  -8   10.63    1.72
 -11   3   8   12.29    1.64
 -11   3   8   10.39    1.47
  11   3  -8   12.22    2.18
 -10  -3   8   34.12    3.10
  10  -3  -8   40.28    2.83
 -10  -3   8   38.94    1.89
  10  -3  -8   36.77    2.57
 -10  -3   8   40.17    2.09
  10  -3  -8   34.13    2.36
  10   3  -8   34.76    2.91
 -10   3   8   38.48    2.16
 -10   3   8   38.56    2.35
  10   3  -8   35.56    2.54
 -10   3   8   35.26    2.73
   9  -3  -8   31.06    2.35
  -9  -3   8   26.47    1.55
   9  -3  -8   27.20    2.12
  -9  -3   8   26.39    2.58
  -9  -3   8   29.91    1.71
   9  -3  -8   28.01    1.97
  -9   3   8   26.18    2.31
   9   3  -8   27.77    2.16
  -9   3   8   27.90    1.96
  -9   3   8   25.57    2.31
  -9   3   8   25.83    1.77
   9   3  -8   27.66    2.49
   8  -3  -8   20.19    1.56
  -8  -3   8   21.72    1.29
   8  -3  -8   21.95    2.08
  -8  -3   8   21.76    1.47
   8  -3  -8   21.82    1.64
  -8  -3   8   17.45    1.98
   8  -3  -8   22.41    1.94
   8   3  -8   20.75    2.90
   8   3  -8   21.25    1.57
  -8   3   8   21.06    1.98
  -8   3   8   18.62    2.00
  -8   3   8   19.82    1.53
  -8   3   8   23.54    1.71
   8   3  -8   22.14    2.18
   7  -3  -8   95.27    3.08
   7  -3  -8   95.86    3.17
  -7  -3   8   98.48    3.09
  -7  -3   8   93.62    2.86
  -7  -3   8   89.61    3.38
  -7  -3   8   95.92    2.70
   7  -3  -8   92.47    2.85
   7  -3  -8   95.22    2.85
   7   3  -8   96.33    3.21
   7   3  -8   94.04    3.42
  -7   3   8   94.43    3.36
  -7   3   8   94.45    2.92
  -7   3   8   92.54    2.96
  -7   3   8   95.98    3.10
   7   3  -8   92.37    2.83
  -6  -3   8  135.76    3.52
   6  -3  -8  137.01    3.82
   6  -3  -8  139.35    3.63
  -6  -3   8  134.73    3.81
  -6  -3   8  135.70    3.70
   6  -3  -8  139.19    3.75
   6  -3  -8  137.97    3.65
  -6  -3   8  131.90    4.27
   6  -3  -8  135.92    3.99
  -6   3   8  134.76    3.76
  -6   3   8  130.09    4.00
  -6   3   8  129.43    3.71
  -6   3   8  130.42    3.66
   6   3  -8  134.35    3.63
   6   3  -8  130.31    3.87
   6   3  -8  132.06    4.13
   5  -3  -8   12.72    0.74
   5  -3  -8   11.79    1.09
  -5  -3   8   12.83    1.08
  -5  -3   8   11.22    0.95
  -5  -3   8   12.62    0.76
   5  -3  -8   10.59    1.12
  -5  -3   8   13.08    1.43
   5  -3  -8   13.85    1.34
   5  -3  -8   11.53    1.22
  -5   3   8   11.38    1.12
  -5   3   8   12.50    1.18
  -5   3   8   10.75    1.21
   5   3  -8   11.09    1.13
   5   3  -8   12.89    1.34
  -5   3   8   10.35    1.40
   5   3  -8   13.04    1.64
   4  -3  -8   33.73    1.49
   4  -3  -8   35.82    1.07
   4  -3  -8   34.52    1.65
   4  -3  -8   33.75    1.20
  -4  -3   8   33.98    1.27
  -4  -3   8   31.93    1.78
  -4  -3   8   35.00    1.37
  -4  -3   8   39.45    1.44
  -4  -3   8   35.11    1.05
  -4   3   8   35.43    1.53
   4   3  -8   32.16    1.48
  -4   3   8   33.70    1.44
  -4   3   8   33.39    1.53
   4   3  -8   32.60    1.82
   4   3  -8   32.76    1.65
  -4   3   8   33.46    1.72
  -3  -3   8    1.68    0.27
  -3  -3   8    1.52    0.40
   3  -3  -8    1.24    0.68
  -3  -3   8    0.95    0.36
  -3  -3   8    1.34    0.93
   3  -3  -8    1.14    0.19
   3  -3  -8    2.10    0.73
   3  -3  -8    1.18    0.33
   3   3  -8    1.66    0.79
  -3   3   8    1.19    0.40
   3   3  -8    1.65    0.63
   3   3  -8    2.20    0.53
  -3   3   8    1.12    0.78
  -3   3   8    1.27    0.57
  -3   3   8    1.32    0.70
   3   3  -8    1.49    0.74
   2  -3  -8  137.34    3.84
   2  -3  -8  140.17    3.80
  -2  -3   8  142.62    3.47
  -2  -3   8  144.35    3.51
  -2  -3   8  138.51    4.08
  -2  -3   8  143.41    3.32
  -2   3   8  137.16    3.68
   2   3  -8  141.92    3.45
  -2   3   8  138.61    3.94
   2   3  -8  141.10    3.75
   2   3  -8  143.80    3.71
  -2   3   8  133.81    3.71
  -1  -3   8   15.36    0.59
   1  -3  -8   13.58    1.04
  -1  -3   8   14.07    0.62
  -1  -3   8   14.01    1.37
   1  -3  -8   13.40    1.16
  -1   3   8   13.29    1.08
   1   3  -8   16.05    1.20
   1   3  -8   17.04    1.14
   1   3  -8   15.87    0.65
  -1   3   8   12.73    0.99
  -1   3   8   11.20    1.14
  -1   3   8   14.07    1.20
   0  -3  -8  387.63    9.51
   0  -3   8  385.48    9.06
   0  -3  -8  399.65    9.31
   0  -3   8  379.49    9.64
   0   3  -8  378.99    9.24
   0   3   8  381.21    9.30
   0   3   8  382.03    9.42
   0   3  -8  379.67    9.33
   0   3  -8  386.79    8.88
   0   3   8  384.78    9.18
  -1  -3  -8   26.59    1.12
   1  -3   8   23.70    1.67
   1  -3   8   23.61    0.82
  -1  -3  -8   26.15    1.47
  -1   3  -8   23.18    0.71
  -1   3  -8   23.54    0.89
   1   3   8   26.85    1.51
  -1   3  -8   23.18    1.26
   1   3   8   24.85    1.42
   1   3   8   25.40    1.20
  -1   3  -8   22.13    1.42
  -2  -3  -8   79.98    2.66
  -2  -3  -8   81.62    2.14
   2  -3   8   79.07    2.34
   2  -3   8   77.40    2.78
   2  -3   8   77.05    2.08
  -2   3  -8   75.67    1.88
  -2   3  -8   77.81    2.07
   2   3   8   76.73    2.61
   2   3   8   77.71    2.56
  -2   3  -8   76.29    1.87
  -2   3  -8   76.06    2.34
   2   3   8   77.82    2.31
  -2   3  -8   75.31    2.59
  -2   3  -8   75.78    1.88
   3  -3   8   17.35    1.60
   3  -3   8   18.57    1.02
   3  -3   8   16.99    1.70
  -3  -3  -8   16.24    1.47
  -3  -3  -8   15.69    1.15
  -3  -3  -8   17.30    0.69
   3   3   8   17.97    0.64
  -3   3  -8   18.46    1.19
  -3   3  -8   17.22    1.47
   3   3   8   17.16    1.50
   3   3   8   18.61    0.66
  -3   3  -8   18.78    0.63
   3   3   8   16.42    1.51
   3   3   8   17.70    1.17
  -4  -3  -8    5.49    0.29
   4  -3   8    6.38    1.24
  -4  -3  -8    3.95    0.70
   4  -3   8    4.62    0.61
  -4  -3  -8    4.58    0.99
   4  -3   8    4.02    0.98
  -4   3  -8    4.50    0.44
   4   3   8    5.01    0.58
   4   3   8    4.31    0.53
  -4   3  -8    4.32    0.69
   4   3   8    2.68    0.70
   4   3   8    5.59    1.06
  -4   3  -8    2.46    0.91
  -5  -3  -8    9.68    1.17
   5  -3   8    9.84    1.33
  -5  -3  -8   10.40    1.06
   5  -3   8    9.64    0.94
   5  -3   8    9.59    1.29
   5   3   8   11.02    1.16
  -5   3  -8    9.86    1.25
  -5   3  -8    8.75    0.57
   5   3   8    9.13    0.86
  -5   3  -8   10.53    1.03
   5   3   8    8.55    0.97
   5   3   8   12.21    1.33
   6  -3   8   29.24    2.13
  -6  -3  -8   27.97    1.42
   6  -3   8   26.21    2.10
  -6  -3  -8   28.11    1.93
   6   3   8   27.70    1.60
   6   3   8   28.87    1.60
   6   3   8   30.80    1.99
   6   3   8   29.52    1.54
  -6   3  -8   28.27    1.40
  -6   3  -8   26.56    1.83
  -7  -3  -8   62.32    2.04
  -7  -3  -8   63.87    2.50
  -7  -3  -8   63.31    2.73
   7  -3   8   60.48    2.79
   7  -3   8   64.05    2.94
   7   3   8   63.97    2.38
   7   3   8   65.57    2.88
   7   3   8   65.94    2.43
  -7   3  -8   61.80    2.78
  -7   3  -8   61.85    2.13
  -8  -3  -8   48.34    2.36
  -8  -3  -8   47.91    2.58
   8  -3   8   50.57    2.93
   8  -3   8   49.05    2.67
   8   3   8   52.18    2.44
   8   3   8   50.33    2.24
  -8   3  -8   51.80    2.70
   8   3   8   50.52    2.77
  -9  -3  -8   -0.85    1.32
   9  -3   8   -1.82    1.36
   9  -3   8   -1.24    1.49
  -9  -3  -8    1.47    1.24
  -9   3  -8    1.22    1.41
   9   3   8   -0.88    1.51
  10  -3   8    1.40    1.73
 -10  -3  -8    3.25    1.55
 -10  -3  -8   -0.42    1.29
  10  -3   8    0.73    1.50
 -10   3  -8    4.57    1.68
 -11  -4   8   17.05    1.85
  11  -4  -8   13.33    1.89
  11  -4  -8   11.16    1.92
 -11   4   8   11.84    1.69
 -11   4   8   11.81    2.60
 -10  -4   8    9.47    1.34
 -10  -4   8    9.29    2.20
  10  -4  -8    9.55    1.71
 -10  -4   8    9.13    1.07
  10  -4  -8    7.07    1.64
  10  -4  -8    8.97    1.30
 -10   4   8    9.42    1.63
  10   4  -8    7.85    1.89
  10   4  -8    7.78    1.69
 -10   4   8    7.73    1.99
 -10   4   8    8.17    1.36
  -9  -4   8   18.48    2.28
  -9  -4   8   17.37    1.64
  -9  -4   8   18.48    1.44
   9  -4  -8   16.75    2.14
   9  -4  -8   19.85    1.91
  -9   4   8   14.81    1.93
   9   4  -8   15.74    2.18
  -9   4   8   18.84    2.51
   9   4  -8   20.73    2.64
  -9   4   8   18.72    1.77
   8  -4  -8    8.77    1.35
  -8  -4   8    9.81    1.78
   8  -4  -8    8.86    1.10
   8  -4  -8    9.30    1.18
  -8  -4   8    9.37    1.31
   8  -4  -8    8.72    1.44
  -8  -4   8   10.17    1.17
  -8   4   8    8.05    1.11
   8   4  -8    8.28    1.08
  -8   4   8   10.17    1.35
   8   4  -8    9.35    1.40
  -8   4   8    7.93    1.44
   8   4  -8    8.67    1.61
   7  -4  -8    7.42    1.16
   7  -4  -8    9.53    1.13
  -7  -4   8   13.62    1.74
   7  -4  -8    7.67    1.07
   7  -4  -8    9.14    1.36
  -7  -4   8    9.08    1.00
  -7  -4   8   10.13    1.16
   7  -4  -8    8.76    1.37
  -7  -4   8    9.17    0.97
   7   4  -8    7.81    1.36
   7   4  -8    8.34    1.03
  -7   4   8    9.64    1.14
  -7   4   8    6.88    1.65
   7   4  -8    6.92    2.03
   6  -4  -8    7.09    1.07
  -6  -4   8    8.40    1.42
  -6  -4   8    8.61    1.03
  -6  -4   8    7.27    0.81
   6  -4  -8    7.75    0.77
   6  -4  -8    8.57    1.23
  -6  -4   8   10.16    1.20
   6  -4  -8    7.08    0.94
  -6   4   8    8.24    1.30
   6   4  -8    6.43    1.03
  -6   4   8   10.82    1.16
  -6   4   8    7.33    1.05
  -6   4   8    8.28    1.02
   6   4  -8    7.94    1.23
   6   4  -8   10.16    1.36
   5  -4  -8    4.75    0.51
   5  -4  -8    3.97    0.95
  -5  -4   8    4.48    0.69
   5  -4  -8    4.45    0.98
  -5  -4   8    4.36    0.46
   5  -4  -8    5.29    0.75
  -5  -4   8    4.90    0.68
  -5  -4   8    5.40    1.25
  -5   4   8    4.88    0.78
  -5   4   8    6.01    1.00
   5   4  -8    4.72    0.88
  -5   4   8    5.57    1.10
   5   4  -8    3.93    0.91
   5   4  -8    3.61    1.01
  -5   4   8    4.38    0.84
   4  -4  -8    9.23    1.06
   4  -4  -8    9.74    0.68
   4  -4  -8    9.36    1.10
  -4  -4   8   10.33    1.34
  -4  -4   8   10.92    0.70
  -4  -4   8    8.62    0.45
  -4  -4   8    8.58    0.75
   4  -4  -8    9.95    0.52
   4   4  -8    7.76    1.18
  -4   4   8    7.57    0.84
   4   4  -8    6.83    0.98
  -4   4   8    9.24    1.08
  -4   4   8    9.10    0.86
   4   4  -8    6.99    0.85
  -4   4   8   10.73    1.44
  -3  -4   8   11.37    0.58
   3  -4  -8   10.86    1.34
   3  -4  -8   11.99    0.52
   3  -4  -8    9.76    1.27
  -3  -4   8   10.90    0.60
  -3  -4   8   10.88    0.36
  -3  -4   8   11.77    1.57
  -3   4   8    9.49    1.05
  -3   4   8   11.75    1.33
  -3   4   8    9.94    1.17
   3   4  -8    9.67    1.18
  -3   4   8    9.59    0.84
   2  -4  -8    5.57    0.90
  -2  -4   8    6.27    0.44
  -2  -4   8    6.28    0.42
   2  -4  -8    6.07    0.88
  -2  -4   8    6.55    0.41
  -2  -4   8    5.69    1.08
  -2   4   8    5.83    0.99
  -2   4   8    6.66    0.91
   2   4  -8    6.74    0.92
  -2   4   8    7.46    0.80
   2   4  -8    7.07    0.88
  -2   4   8    6.09    0.77
   1  -4  -8   51.32    1.89
  -1  -4   8   49.95    2.18
   1  -4  -8   50.27    2.03
  -1   4   8   49.91    1.84
  -1   4   8   50.01    1.77
  -1   4   8   49.69    2.01
   1   4  -8   49.17    1.87
   1   4  -8   46.37    1.95
  -1   4   8   51.23    1.70
   0  -4  -8   65.74    2.09
   0  -4  -8   64.07    2.28
   0  -4   8   60.85    2.44
   0   4  -8   59.79    2.15
   0   4  -8   64.56    2.28
   0   4   8   65.52    2.09
   0   4   8   63.92    2.10
   0   4   8   65.39    2.39
  -1  -4  -8   29.90    1.30
  -1  -4  -8   26.84    1.66
   1  -4   8   27.41    1.79
  -1   4  -8   26.03    1.43
   1   4   8   29.65    1.38
   1   4   8   29.90    1.52
   1   4   8   28.59    1.69
  -1   4  -8   30.11    1.65
  -2  -4  -8    4.40    0.63
   2  -4   8    4.20    0.99
   2  -4   8    2.69    1.02
  -2  -4  -8    3.39    0.96
   2   4   8    3.12    0.96
  -2   4  -8    4.18    0.74
   2   4   8    2.33    0.71
  -2   4  -8    5.33    0.97
   3  -4   8   25.09    1.32
  -3  -4  -8   22.52    0.92
  -3  -4  -8   22.87    1.68
   3  -4   8   25.04    1.80
   3   4   8   23.28    1.37
  -3   4  -8   22.83    1.60
   3   4   8   23.06    1.70
  -3   4  -8   23.92    1.37
  -4  -4  -8    4.54    1.11
   4  -4   8    4.99    0.76
   4  -4   8    3.00    1.05
   4  -4   8    3.28    1.13
  -4  -4  -8    4.15    0.42
  -4   4  -8    2.92    1.11
   4   4   8    3.49    1.06
   4   4   8    3.70    0.84
  -4   4  -8    2.58    0.70
   5  -4   8   16.90    1.79
   5  -4   8   16.39    1.31
  -5  -4  -8   17.20    1.71
   5  -4   8   18.49    1.95
  -5  -4  -8   14.67    1.28
   5   4   8   18.83    1.40
  -5   4  -8   16.58    1.30
  -5   4  -8   12.73    1.75
   5   4   8   15.52    1.77
   6  -4   8   64.09    2.91
  -6  -4  -8   64.54    2.21
  -6  -4  -8   61.85    2.74
   6  -4   8   64.85    3.02
  -6   4  -8   62.49    2.17
   6   4   8   57.18    2.60
   6   4   8   65.85    2.39
  -6   4  -8   66.05    2.82
  -7  -4  -8   -0.21    1.04
   7  -4   8   -1.70    1.33
  -7  -4  -8    1.61    1.17
  -7   4  -8    2.45    1.28
   7   4   8    1.14    0.94
   7   4   8   -0.02    1.29
  -7   4  -8    1.22    0.73
   8  -4   8    2.50    1.35
   8  -4   8    2.37    1.56
  -8  -4  -8    4.20    1.25
  -8   4  -8    6.86    1.63
   8   4   8    6.64    1.60
   8   4   8    5.04    1.15
   9  -4   8    4.74    1.89
  -9  -4  -8    6.84    1.53
  -9  -4  -8    7.27    1.71
   9  -4   8    4.80    1.52
   9   4   8    8.62    1.95
  -9   4  -8    5.62    1.73
 -10  -4  -8    1.06    1.49
  10  -5  -8    0.22    1.70
 -10  -5   8    2.44    1.89
 -10  -5   8    4.83    1.26
 -10   5   8    2.09    1.58
  10   5  -8    1.48    1.85
  10   5  -8    5.64    1.47
 -10   5   8    1.12    1.21
 -10   5   8    3.02    1.83
  -9  -5   8    6.43    1.95
   9  -5  -8    2.20    1.50
  -9  -5   8    4.96    1.12
  -9   5   8    8.23    1.39
   9   5  -8    5.87    1.43
   9   5  -8    2.29    1.84
  -9   5   8    4.90    1.49
  -9   5   8    6.38    1.89
   8  -5  -8   14.08    2.12
  -8  -5   8   20.96    2.43
   8  -5  -8   12.74    1.37
   8  -5  -8   14.32    2.10
   8   5  -8   16.11    1.75
  -8   5   8   13.41    1.69
  -8   5   8   14.46    1.88
   8   5  -8   12.23    1.80
   8   5  -8   17.49    2.19
  -8   5   8   15.16    1.91
   7  -5  -8   15.85    1.85
  -7  -5   8   15.34    2.16
   7  -5  -8   16.19    1.94
   7  -5  -8   15.67    1.93
  -7  -5   8   17.75    1.60
  -7  -5   8   16.16    1.36
  -7   5   8   13.20    1.63
  -7   5   8   14.47    1.74
   7   5  -8   14.83    1.74
  -7   5   8   14.08    1.59
   7   5  -8   17.12    2.33
   7   5  -8   18.34    1.94
   6  -5  -8   16.84    1.82
   6  -5  -8   18.55    1.92
   6  -5  -8   17.06    1.60
  -6  -5   8   20.03    1.28
  -6  -5   8   19.08    1.35
  -6  -5   8   19.87    3.18
  -6   5   8   19.75    1.54
   6   5  -8   20.59    2.19
  -6   5   8   20.18    2.38
   6   5  -8   19.68    1.68
   6   5  -8   20.45    1.97
  -5  -5   8   82.02    2.38
   5  -5  -8   81.95    2.94
  -5  -5   8   81.61    2.39
  -5  -5   8   78.61    3.16
   5  -5  -8   82.83    2.90
  -5   5   8   77.40    2.62
  -5   5   8   82.41    2.74
  -5   5   8   75.46    2.96
   5   5  -8   76.18    3.05
   5   5  -8   77.96    2.66
   5   5  -8   77.89    2.93
  -4  -5   8   14.62    1.82
   4  -5  -8   12.29    1.52
   4  -5  -8   13.39    1.61
  -4  -5   8   12.83    0.84
  -4   5   8   11.59    1.35
  -4   5   8   12.01    1.61
  -4   5   8   12.23    1.28
   4   5  -8   13.39    1.45
   3  -5  -8   30.97    1.87
  -3  -5   8   31.02    0.95
  -3  -5   8   32.48    2.05
   3  -5  -8   29.27    1.75
  -3   5   8   30.20    1.85
  -3   5   8   29.22    1.55
  -3   5   8   28.98    1.59
   3   5  -8   29.68    1.62
   2  -5  -8    0.69    1.01
   2  -5  -8    2.65    0.93
  -2  -5   8    2.69    1.09
  -2   5   8    1.27    0.79
  -2   5   8    1.59    0.86
   2   5  -8    1.98    0.75
  -2   5   8    2.10    0.44
  -2   5   8    3.74    1.02
   1  -5  -8   11.59    1.44
   1  -5  -8   11.29    1.26
  -1  -5   8   10.44    1.53
   1   5  -8   10.55    1.26
  -1   5   8   12.70    1.31
  -1   5   8   11.22    1.17
   0  -5   8    4.35    1.15
   0  -5   8    2.53    0.81
   0  -5  -8    1.29    0.94
   0  -5  -8    2.81    0.79
   0   5   8    2.47    1.01
   0   5   8    2.76    0.79
   0   5  -8    2.73    0.98
   0   5  -8    1.87    0.71
   1  -5   8    8.77    1.31
  -1  -5  -8    7.29    1.23
  -1  -5  -8    8.27    0.91
   1  -5   8    8.92    1.05
  -1   5  -8    6.86    1.14
   1   5   8    7.59    1.07
   1   5   8    7.77    0.89
  -1   5  -8    6.20    0.85
   2  -5   8   25.57    1.56
   2  -5   8   24.61    1.88
  -2  -5  -8   29.17    1.36
  -2  -5  -8   26.97    1.83
   2   5   8   28.22    1.82
  -2   5  -8   27.03    1.55
   2   5   8   27.85    1.45
  -2   5  -8   27.35    1.87
   3  -5   8   45.91    1.95
  -3  -5  -8   42.70    2.24
  -3  -5  -8   46.54    1.65
   3  -5   8   47.95    2.35
   3   5   8   46.29    1.91
   3   5   8   43.99    2.30
  -3   5  -8   45.16    1.89
  -3   5  -8   45.56    2.28
   4  -5   8    8.37    1.46
  -4  -5  -8   11.88    1.79
   4  -5   8   10.81    1.40
   4  -5   8    7.60    1.33
   4   5   8   10.09    1.47
  -4   5  -8    9.95    1.24
  -4   5  -8   10.49    2.26
   5  -5   8   38.76    2.58
   5  -5   8   35.17    1.88
   5  -5   8   38.85    2.34
  -5  -5  -8   37.39    2.29
   5   5   8   36.27    2.30
   5   5   8   34.70    1.86
  -5   5  -8   38.68    2.31
  -5   5  -8   37.46    1.82
  -6  -5  -8    1.10    1.17
   6  -5   8    2.35    1.38
  -6  -5  -8   -0.24    0.83
   6  -5   8    2.81    1.43
   6   5   8    0.31    0.96
   6   5   8    0.31    1.18
  -6   5  -8    2.77    1.27
  -6   5  -8    2.13    0.83
  -7  -5  -8    3.06    1.38
  -7  -5  -8    1.51    1.23
   7  -5   8    3.81    1.65
   7   5   8    2.89    1.61
  -7   5  -8    4.56    1.51
  -7   5  -8    2.55    0.85
   7   5   8    4.33    1.12
  -8  -5  -8    9.13    1.45
   8  -5   8    4.39    1.69
   8  -5   8    4.59    1.68
  -8  -5  -8   11.02    1.79
   8   5   8    6.02    1.73
  -8   5  -8    6.15    1.65
   8   5   8    8.27    1.37
  -9  -5  -8    8.01    1.73
   9  -5   8    7.22    2.42
  -9   5  -8    5.99    1.78
  -9  -6   8    5.22    1.97
   9  -6  -8    0.34    1.61
  -9   6   8    0.25    1.22
  -9   6   8   -0.39    1.65
   9   6  -8    1.36    1.51
  -9   6   8    0.40    1.51
   9   6  -8   -1.63    1.74
   8  -6  -8    3.21    1.51
  -8  -6   8    3.14    1.76
   8   6  -8    0.75    1.82
  -8   6   8    0.00    1.21
  -8   6   8    0.60    1.57
   8   6  -8   -0.32    1.42
  -8   6   8    0.98    1.40
   7  -6  -8    4.76    1.54
   7  -6  -8    5.38    1.55
  -7  -6   8    4.99    1.72
   7   6  -8    3.83    1.73
  -7   6   8    5.38    1.21
   7   6  -8    5.66    1.33
  -7   6   8    7.33    1.66
   7   6  -8    4.67    1.52
  -7   6   8    7.07    1.41
  -6  -6   8    7.70    1.67
   6  -6  -8    4.03    1.35
   6  -6  -8    5.05    1.53
   6   6  -8    4.17    1.37
  -6   6   8    4.75    1.13
   6   6  -8    4.70    1.43
  -6   6   8    4.69    1.23
  -6   6   8    5.24    1.47
   5  -6  -8    2.87    1.14
   5  -6  -8    5.59    1.41
  -5  -6   8    3.33    1.36
  -5   6   8    2.93    0.96
  -5   6   8    4.16    1.21
   5   6  -8    1.95    1.88
  -5   6   8    2.82    1.25
   4  -6  -8   -0.19    1.20
  -4  -6   8    2.13    1.31
   4  -6  -8    0.43    1.14
  -4   6   8    0.01    1.40
   4   6  -8    0.91    0.99
  -4   6   8    0.07    1.61
  -4   6   8   -1.11    0.90
   3  -6  -8   13.45    1.86
  -3  -6   8   13.52    1.83
   3  -6  -8   14.12    1.62
  -3   6   8   13.42    1.50
   3   6  -8   11.79    1.54
  -3   6   8   13.83    1.49
  -3   6   8    9.69    1.25
   2  -6  -8   17.15    1.56
  -2  -6   8   17.62    1.83
   2  -6  -8   18.84    1.89
  -2   6   8   17.44    1.44
  -2   6   8   16.81    1.82
   2   6  -8   15.86    1.52
  -1  -6   8    4.80    1.07
   1  -6  -8    5.25    0.98
  -1  -6   8    5.70    1.22
   1  -6  -8    5.33    1.25
  -1   6   8    5.15    0.90
  -1   6   8    6.23    1.23
   1   6  -8    6.00    1.00
   0  -6  -8    3.35    1.20
   0  -6   8    3.25    0.97
   0  -6  -8    3.18    0.91
   0  -6   8    2.21    1.17
   0   6  -8    2.24    0.87
   0   6   8    2.05    0.83
   0   6   8    2.89    1.14
  -1  -6  -8    8.55    1.02
   1  -6   8    9.76    1.18
  -1  -6  -8    7.18    1.26
   1  -6   8    9.95    1.41
  -1   6  -8    8.56    1.08
   1   6   8    8.05    1.23
   1   6   8    9.26    1.08
  -2  -6  -8    5.32    0.92
  -2  -6  -8    4.72    1.83
   2  -6   8    3.62    1.01
   2  -6   8    2.95    1.18
  -2   6  -8    4.21    0.92
   2   6   8    3.47    1.35
   3  -6   8    2.94    1.01
  -3  -6  -8    1.74    0.81
  -3  -6  -8    3.72    1.32
   3  -6   8    2.27    1.20
  -3   6  -8    1.94    1.19
   3   6   8    3.99    1.02
   3   6   8    4.35    1.35
   4  -6   8    0.35    1.03
  -4  -6  -8    0.84    1.29
   4  -6   8    2.01    1.33
   4  -6   8    1.09    1.29
  -4   6  -8    0.85    1.22
   4   6   8    2.53    1.36
   4   6   8    2.60    0.97
  -4   6  -8    1.36    0.92
   5  -6   8    6.69    1.27
   5  -6   8    9.08    1.54
  -5  -6  -8    6.11    1.53
   5  -6   8    6.88    1.67
  -5   6  -8    5.87    1.53
  -5   6  -8    4.72    1.01
   5   6   8    4.33    1.51
   5   6   8    8.99    1.27
   6  -6   8   32.68    2.86
  -6  -6  -8   28.17    2.49
   6  -6   8   35.05    2.49
   6   6   8   28.87    2.02
  -6   6  -8   29.69    2.58
  -6   6  -8   28.47    1.87
   6   6   8   33.30    2.73
  -7  -6  -8   12.99    1.76
  -7  -6  -8   15.51    1.87
   7  -6   8   15.21    2.18
   7   6   8   18.90    2.00
   7   6   8   15.63    2.07
  -7   6  -8   17.24    2.12
  -8  -6  -8    2.97    1.70
   8  -6   8    1.66    2.16
  -8   6  -8    2.12    1.89
   8   6   8    5.17    2.07
   8  -7  -8    4.13    1.63
  -8  -7   8    8.04    2.03
  -8   7   8    4.54    1.91
  -8   7   8    4.16    1.74
   8   7  -8    3.13    1.78
  -8   7   8    5.80    1.39
  -7  -7   8    3.56    1.87
   7  -7  -8    0.63    1.52
  -7   7   8    0.46    1.23
  -7   7   8   -0.25    1.64
  -7   7   8    4.01    1.59
   7   7  -8    4.44    1.49
   6  -7  -8    9.43    1.93
  -6  -7   8   10.05    1.86
   6  -7  -8    6.28    1.53
   6   7  -8    9.74    1.54
  -6   7   8    9.22    1.77
  -6   7   8    9.63    1.57
  -6   7   8    8.94    1.34
  -5  -7   8   28.36    2.57
  -5  -7   8   22.89    2.11
   5  -7  -8   30.02    2.53
   5  -7  -8   23.07    2.21
   5   7  -8   26.45    2.20
  -5   7   8   26.13    2.00
  -5   7   8   25.38    2.42
  -5   7   8   30.09    2.08
   4  -7  -8    3.98    1.35
   4  -7  -8    4.79    1.61
  -4  -7   8    3.14    1.17
  -4  -7   8    8.53    1.54
  -4   7   8    5.83    1.27
   4   7  -8    6.33    1.24
  -4   7   8    6.38    1.47
  -4   7   8    4.00    1.10
  -3  -7   8   68.40    2.87
   3  -7  -8   74.90    2.89
  -3  -7   8   73.39    3.63
   3  -7  -8   74.68    3.20
  -3   7   8   69.25    3.11
   3   7  -8   75.51    2.85
  -3   7   8   73.93    2.71
   2  -7  -8    0.98    1.05
  -2  -7   8    0.95    1.06
   2  -7  -8    0.06    1.42
  -2  -7   8    0.64    1.17
  -2   7   8    0.01    1.27
   2   7  -8    0.87    1.02
  -2   7   8    0.67    1.01
  -1  -7   8    0.97    1.04
   1  -7  -8    1.00    1.39
  -1  -7   8    0.58    1.52
   1  -7  -8    0.06    1.58
  -1   7   8   -0.21    1.20
   1   7  -8   -0.41    0.99
  -1   7   8   -0.96    0.98
   0  -7   8   19.29    1.79
   0  -7  -8   19.24    2.11
   0  -7  -8   19.11    1.69
   0  -7   8   17.12    1.99
   0   7   8   20.55    2.10
   0   7   8   20.78    1.72
   0   7  -8   19.63    1.74
   1  -7   8    3.59    1.27
  -1  -7  -8    4.86    1.49
   1  -7   8    4.04    1.19
  -1  -7  -8    1.91    0.96
   1   7   8    4.53    1.45
  -1   7  -8    4.22    1.06
   1   7   8    3.70    1.07
  -2  -7  -8   12.32    1.60
   2  -7   8   13.60    1.94
   2  -7   8   15.28    1.85
  -2  -7  -8   11.45    1.55
  -2   7  -8   14.03    1.63
   2   7   8   12.37    1.60
   2   7   8   11.23    1.63
  -3  -7  -8   12.44    1.62
   3  -7   8   11.44    1.73
   3  -7   8   13.39    2.02
  -3  -7  -8   12.08    1.74
   3  -7   8   11.94    1.47
   3   7   8   11.95    1.68
   3   7   8   12.00    1.37
  -3   7  -8   13.01    1.68
   4  -7   8   10.80    1.77
  -4  -7  -8   11.46    1.78
   4  -7   8   12.27    1.57
  -4   7  -8   10.71    1.25
   4   7   8    8.13    1.23
   4   7   8   15.23    1.96
  -5  -7  -8    5.00    1.72
   5  -7   8    5.07    1.74
   5  -7   8    7.35    1.49
   5   7   8    2.47    1.65
   5   7   8    6.81    1.41
  -5   7  -8    7.11    1.21
  -6  -7  -8    3.79    1.29
   6  -7   8    1.94    1.79
  -6  -7  -8    4.22    1.66
   6   7   8    2.92    1.25
  -6   7  -8    1.82    1.12
   6   7   8    3.16    1.82
  -7  -7  -8   14.31    1.91
  -7  -8   8    7.92    1.85
  -7   8   8    1.27    1.84
  -7   8   8    3.49    1.62
   7   8  -8   -0.12    1.51
   6  -8  -8   -1.31    1.40
  -6  -8   8    1.26    1.81
   6  -8  -8    1.06    2.12
  -6  -8   8    0.71    1.19
  -6   8   8   -1.61    1.32
  -6   8   8    1.69    1.54
  -6   8   8   -0.52    1.92
   6   8  -8    0.51    1.48
  -5  -8   8   -0.05    1.18
  -5  -8   8    4.03    1.72
   5  -8  -8    1.61    2.00
   5  -8  -8   -1.69    1.47
  -5   8   8    2.29    1.50
  -5   8   8    1.68    1.36
  -5   8   8   -2.03    1.73
   5   8  -8   -1.09    1.37
  -4  -8   8   18.98    2.55
   4  -8  -8   13.61    2.14
  -4  -8   8   13.40    1.68
   4  -8  -8    9.37    1.64
   4   8  -8   10.54    1.63
  -4   8   8    9.95    1.38
  -4   8   8   13.18    2.02
   3  -8  -8    9.46    1.98
  -3  -8   8   11.46    1.53
   3  -8  -8   10.63    1.56
   3   8  -8   11.82    1.50
  -3   8   8   12.04    1.45
  -3   8   8    9.94    1.83
   2  -8  -8   -0.03    1.24
   2  -8  -8   -0.84    1.74
  -2  -8   8    1.58    1.35
  -2  -8   8    0.93    1.38
  -2   8   8   -0.38    1.17
  -2   8   8   -0.53    1.70
   2   8  -8    0.03    1.24
  -1  -8   8   12.94    1.68
   1  -8  -8    8.52    1.92
   1  -8  -8    8.78    1.39
  -1  -8   8    9.11    2.71
  -1   8   8   13.39    1.51
   1   8  -8    7.71    1.33
  -1   8   8    9.87    1.72
   0  -8   8   -1.77    2.01
   0  -8  -8    3.10    1.64
   0  -8   8    2.23    1.29
   0  -8  -8    0.81    1.18
   0   8   8    1.36    1.19
   0   8  -8    2.00    1.11
   0   8   8   -0.13    1.57
  -1  -8  -8   10.26    1.79
  -1  -8  -8   12.69    1.81
   1  -8   8   16.96    1.82
  -1   8  -8   13.10    1.51
   1   8   8   16.58    1.92
   1   8   8   12.65    1.90
  -2  -8  -8   10.25    1.32
   2  -8   8   10.01    1.56
  -2  -8  -8    9.20    1.83
  -2   8  -8    8.61    1.32
   2   8   8   12.16    1.95
   2   8   8    7.61    1.38
   3  -8   8    1.89    1.49
  -3  -8  -8    2.89    1.63
   3  -8   8    1.37    1.73
  -3   8  -8    1.36    1.18
   3   8   8    1.18    1.74
   3   8   8    1.67    1.27
   4  -8   8    9.77    1.68
   4  -8   8   12.90    2.01
  -4  -8  -8   16.87    2.09
  -4   8  -8   11.75    1.48
   4   8   8   11.36    2.04
   4   8   8   11.38    1.53
   5  -8   8    4.48    1.66
  -5  -8  -8    0.11    1.64
   5   8   8    2.81    1.77
  -5   8  -8    5.86    1.29
   5   8   8    3.78    1.19
  -6   8  -8   14.35    1.84
  -5   9   8   -0.93    1.75
   4  -9  -8    6.92    2.11
  -4   9   8   -0.96    1.19
  -4   9   8    2.66    1.98
   3  -9  -8   13.39    2.24
   3  -9  -8   19.55    2.55
   3   9  -8   12.85    1.60
  -3   9   8   14.46    1.64
  -3   9   8   16.20    2.15
  -2  -9   8   16.23    2.06
   2  -9  -8   16.40    1.92
   2  -9  -8   19.29    2.38
  -2   9   8   13.49    2.03
  -2   9   8   16.59    1.70
   2   9  -8   17.99    2.20
   1  -9  -8    2.83    1.43
   1  -9  -8    3.82    2.00
  -1  -9   8    1.61    1.46
  -1   9   8    5.40    2.06
  -1   9   8    3.00    1.29
   1   9  -8    3.70    1.31
   0  -9  -8   19.50    2.16
   0  -9  -8   19.82    2.63
   0  -9   8   20.59    2.55
   0   9   8   16.65    2.07
   0   9   8   17.26    2.32
   0   9  -8   17.67    2.20
   1  -9   8    8.13    1.73
  -1  -9  -8    4.12    1.36
  -1  -9  -8    4.74    1.85
  -1   9  -8    6.30    1.36
   1   9   8    3.64    2.10
   1   9   8    3.96    1.44
   2  -9   8   19.24    2.17
   2   9   8   16.08    2.24
   2   9   8    9.52    1.46
   3  -9   8    6.19    1.98
   3   9   8   -0.58    1.88
  12   0  -9   17.21    3.46
 -12   0   9   15.61    1.89
  12   0  -9   12.53    1.75
 -12   0   9   15.99    2.52
  11   0  -9    6.97    2.03
 -11   0   9    6.81    1.24
 -11   0   9   13.11    2.26
 -11   0   9    7.45    1.67
 -11   0   9   10.35    1.52
  11   0  -9    5.82    1.51
  10   0  -9    2.30    1.34
 -10   0   9    0.80    1.15
 -10   0   9    4.46    1.81
 -10   0   9    3.45    1.04
  10   0  -9    2.20    1.24
  10   0  -9   -0.91    1.52
 -10   0   9    1.00    1.30
  -9   0   9    5.49    1.62
  -9   0   9    2.95    1.14
   9   0  -9    1.58    1.31
   9   0  -9    3.82    1.25
  -9   0   9    1.30    1.02
  -9   0   9    2.68    0.87
   9   0  -9    2.69    1.56
   8   0  -9    7.80    0.93
  -8   0   9    8.09    1.28
   8   0  -9   12.08    1.60
   8   0  -9    8.11    1.29
  -8   0   9    7.92    1.22
  -8   0   9    8.57    0.99
  -8   0   9    9.61    1.55
   8   0  -9    8.20    1.11
  -7   0   9   24.78    1.34
   7   0  -9   21.46    1.89
  -7   0   9   25.21    1.72
   7   0  -9   21.55    1.67
   7   0  -9   23.74    1.58
  -7   0   9   21.45    1.47
   7   0  -9   23.13    1.37
  -7   0   9   22.00    1.94
  -6   0   9   79.49    2.76
  -6   0   9   78.74    2.41
   6   0  -9   79.99    2.48
  -6   0   9   79.95    2.94
   6   0  -9   78.19    2.66
   6   0  -9   82.65    2.54
  -6   0   9   81.44    2.57
   6   0  -9   83.82    3.03
   5   0  -9   33.66    1.73
   5   0  -9   30.40    1.58
   5   0  -9   31.36    1.42
   5   0  -9   31.69    0.99
  -5   0   9   27.35    1.81
  -5   0   9   29.98    1.31
  -5   0   9   31.09    1.63
  -5   0   9   31.52    1.49
   5   0  -9   31.86    1.45
   4   0  -9   74.53    2.22
  -4   0   9   76.82    2.47
  -4   0   9   75.49    2.16
   4   0  -9   77.82    2.44
   4   0  -9   72.62    2.28
  -4   0   9   73.39    2.63
   4   0  -9   71.23    2.58
  -4   0   9   74.48    2.30
   4   0  -9   75.65    2.05
  -4   0   9   75.40    2.03
   3   0  -9    1.46    0.62
   3   0  -9    1.03    0.43
   3   0  -9    1.69    0.65
  -3   0   9    1.61    0.64
   3   0  -9    1.45    0.61
   3   0  -9    1.93    0.41
  -3   0   9    2.13    0.47
  -3   0   9    1.45    0.85
  -3   0   9    1.17    0.56
   2   0  -9   60.86    1.94
  -2   0   9   59.25    1.99
  -2   0   9   60.76    1.74
   2   0  -9   56.18    1.93
  -2   0   9   60.65    2.23
  -2   0   9   57.30    1.83
   2   0  -9   59.56    1.95
  -1   0   9   27.35    1.16
   1   0  -9   29.31    1.32
  -1   0   9   27.28    1.33
   1   0  -9   27.34    1.24
  -1   0   9   27.60    1.05
  -1   0   9   27.25    0.96
   1   0  -9   27.57    1.27
  -1   0   9   26.57    1.61
   0   0  -9    3.71    0.72
   0   0   9    3.60    0.56
   0   0   9    3.32    0.49
   0   0  -9    3.20    0.61
   0   0   9    5.51    0.74
   0   0   9    5.03    1.02
   0   0   9    4.70    0.49
   1   0   9    0.07    0.57
   1   0   9    0.29    0.38
   1   0   9    0.41    0.90
  -1   0  -9    0.10    0.49
  -1   0  -9    0.03    0.62
   2   0   9   57.13    2.00
  -2   0  -9   58.67    2.16
   2   0   9   59.68    1.74
   2   0   9   55.31    2.20
   2   0   9   58.82    2.54
   3   0   9    2.18    0.64
   3   0   9    2.37    0.53
   3   0   9    2.32    0.73
  -3   0  -9    2.89    0.83
   3   0   9    1.88    1.04
  -3   0  -9    1.52    0.59
   4   0   9   15.75    1.15
   4   0   9   15.68    1.03
  -4   0  -9   16.68    1.13
   4   0   9   16.55    1.35
   4   0   9   17.33    1.33
   4   0   9   15.69    1.65
  -4   0  -9   16.23    1.48
  -5   0  -9    3.46    0.94
   5   0   9    5.63    0.93
   5   0   9    4.28    0.68
   5   0   9    2.44    1.10
   5   0   9    3.21    0.71
  -5   0  -9    3.22    0.62
   5   0   9    3.06    0.82
   6   0   9    2.81    0.84
   6   0   9    3.87    0.93
  -6   0  -9    4.67    0.90
  -6   0  -9    5.74    1.17
  -6   0  -9    5.19    0.71
   6   0   9    4.06    1.22
   6   0   9    3.26    0.95
  -7   0  -9   18.99    1.88
   7   0   9   20.33    1.77
   7   0   9   19.10    1.99
  -7   0  -9   19.39    1.56
  -7   0  -9   21.13    1.20
   7   0   9   19.54    1.73
  -8   0  -9   -0.18    1.06
   8   0   9    0.75    1.06
   8   0   9   -2.10    1.79
   9   0   9    1.92    1.48
  -9   0  -9    2.51    1.47
   9   0   9    0.90    1.19
  -9   0  -9    2.30    1.18
 -10   0  -9    3.35    1.50
  10   0   9    2.11    1.38
  10   0   9    3.84    1.86
 -10   0  -9    0.31    1.56
  12  -1  -9    5.09    2.06
  12  -1  -9    4.03    1.56
 -12  -1   9    2.75    1.19
  12  -1  -9    2.65    1.39
 -12   1   9    7.19    2.29
  11  -1  -9   34.06    3.28
  11  -1  -9   28.51    2.44
  11  -1  -9   29.32    2.54
 -11  -1   9   22.53    3.22
 -11  -1   9   28.25    2.24
 -11  -1   9   24.36    2.65
 -11  -1   9   27.20    1.98
  11   1  -9   30.29    3.10
 -11   1   9   25.77    2.72
 -11   1   9   22.37    2.00
 -11   1   9   29.62    2.29
 -11   1   9   36.55    3.45
  11   1  -9   28.76    2.60
  10  -1  -9    1.35    1.19
 -10  -1   9    1.58    1.87
  10  -1  -9    3.55    1.55
 -10  -1   9    1.59    1.13
  10  -1  -9    2.09    1.45
 -10  -1   9   -0.45    1.26
 -10  -1   9    1.38    0.95
 -10   1   9    3.87    1.81
 -10   1   9    0.64    1.29
 -10   1   9    1.29    1.07
  10   1  -9    0.87    1.15
 -10   1   9   -0.66    1.13
  10   1  -9    1.50    1.62
  -9  -1   9    9.46    1.82
   9  -1  -9    6.48    1.16
  -9  -1   9    7.54    1.18
  -9  -1   9    7.45    1.36
   9  -1  -9    6.25    1.33
  -9  -1   9    6.90    1.59
   9   1  -9    6.12    1.18
  -9   1   9    7.23    1.36
  -9   1   9    6.64    1.24
  -9   1   9    7.43    1.09
  -9   1   9    8.40    1.90
   9   1  -9    5.26    1.40
  -8  -1   9    2.05    0.94
   8  -1  -9    2.21    0.85
   8  -1  -9    2.85    0.92
  -8  -1   9    1.67    0.98
  -8  -1   9    1.77    0.77
   8  -1  -9    2.11    1.16
  -8  -1   9    2.93    1.41
   8   1  -9    2.97    1.28
  -8   1   9    3.57    1.35
  -8   1   9    1.40    0.82
   8   1  -9    2.98    0.99
  -8   1   9    2.94    1.35
   8   1  -9    1.32    0.82
  -7  -1   9    8.70    1.48
  -7  -1   9    5.24    1.00
   7  -1  -9    8.81    1.20
  -7  -1   9    8.80    0.86
   7  -1  -9    7.49    1.12
  -7  -1   9    7.41    0.94
   7  -1  -9    7.14    0.88
   7  -1  -9    7.37    1.02
   7   1  -9    7.13    1.05
  -7   1   9    8.86    1.37
  -7   1   9    9.13    1.14
   7   1  -9    6.69    1.24
  -7   1   9    6.81    1.18
   7   1  -9    6.07    0.86
  -7   1   9    7.31    1.01
   7   1  -9    7.11    0.99
   6  -1  -9   13.43    1.51
   6  -1  -9   13.68    1.39
  -6  -1   9   14.69    1.05
  -6  -1   9   12.69    1.68
  -6  -1   9   15.11    1.37
   6  -1  -9   15.19    1.19
   6  -1  -9   12.73    1.24
  -6  -1   9   16.07    1.20
   6   1  -9   14.10    1.62
  -6   1   9   15.32    1.15
  -6   1   9   14.90    1.66
   6   1  -9   15.35    1.21
  -6   1   9   16.08    1.28
   6   1  -9   15.15    1.44
  -6   1   9   14.27    1.54
   6   1  -9   16.09    1.42
   5  -1  -9    6.24    0.86
   5  -1  -9    5.88    0.80
   5  -1  -9    3.88    0.60
  -5  -1   9    4.99    0.60
  -5  -1   9    5.67    0.89
   5  -1  -9    4.49    0.82
  -5  -1   9    5.72    0.81
   5  -1  -9    6.36    0.60
  -5  -1   9    7.54    1.20
  -5   1   9    5.08    0.90
   5   1  -9    5.23    1.01
  -5   1   9    5.57    0.72
   5   1  -9    4.96    0.74
   5   1  -9    5.74    0.92
   5   1  -9    3.68    0.73
  -5   1   9    6.83    1.07
   5   1  -9    6.08    0.49
  -5   1   9    6.39    0.90
  -4  -1   9   21.01    1.29
  -4  -1   9   20.18    0.82
   4  -1  -9   19.30    1.30
   4  -1  -9   19.44    0.92
   4  -1  -9   19.40    1.20
   4  -1  -9   18.92    0.86
  -4  -1   9   19.75    0.94
  -4  -1   9   19.06    1.09
   4  -1  -9   18.27    1.20
  -4  -1   9   18.16    1.57
   4   1  -9   20.34    1.21
   4   1  -9   21.62    1.47
   4   1  -9   18.23    0.82
  -4   1   9   19.19    1.10
  -4   1   9   18.88    1.21
  -4   1   9   19.59    1.40
   4   1  -9   18.93    1.29
   4   1  -9   18.90    1.18
  -4   1   9   17.40    1.43
   3  -1  -9  171.59    4.09
  -3  -1   9  159.70    4.65
   3  -1  -9  171.48    4.41
  -3  -1   9  170.25    4.37
   3  -1  -9  169.91    4.35
  -3  -1   9  160.29    4.23
   3  -1  -9  168.75    4.22
  -3  -1   9  161.12    4.12
   3   1  -9  164.53    4.39
  -3   1   9  163.43    4.02
   3   1  -9  156.30    4.23
  -3   1   9  164.58    4.27
  -3   1   9  168.19    4.50
  -3   1   9  164.86    4.17
   3   1  -9  169.45    4.24
  -3   1   9  160.10    4.41
   3   1  -9  161.25    4.11
  -2  -1   9   30.41    1.19
  -2  -1   9   29.44    1.64
   2  -1  -9   30.70    1.38
  -2  -1   9   30.32    1.28
   2  -1  -9   28.59    1.33
  -2  -1   9   30.72    0.98
   2  -1  -9   28.32    1.35
  -2   1   9   30.41    1.15
  -2   1   9   30.10    1.27
  -2   1   9   32.38    1.51
   2   1  -9   31.96    1.31
  -2   1   9   29.84    1.59
  -2   1   9   29.76    1.21
   2   1  -9   31.17    1.34
  -2   1   9   29.62    0.98
   1  -1  -9   29.86    1.40
  -1  -1   9   29.00    1.65
   1  -1  -9   30.40    1.36
  -1  -1   9   28.86    0.94
   1  -1  -9   30.46    1.28
  -1  -1   9   29.68    1.14
  -1  -1   9   30.58    1.27
   1   1  -9   30.94    1.36
  -1   1   9   30.43    1.09
  -1   1   9   30.82    1.65
   1   1  -9   31.39    1.41
  -1   1   9   30.95    1.19
  -1   1   9   31.18    0.94
  -1   1   9   31.55    1.33
  -1   1   9   31.79    1.47
   0  -1   9   14.31    0.60
   0  -1  -9   14.55    0.90
   0  -1   9   16.59    1.44
   0  -1   9   14.57    1.01
   0  -1   9   13.54    0.99
   0  -1  -9   14.15    1.06
   0  -1  -9   11.95    1.11
   0   1   9   16.76    1.39
   0   1  -9   16.49    1.08
   0   1   9   13.97    0.98
   0   1   9   13.48    0.87
   0   1   9   14.65    0.59
   0   1  -9   15.98    1.18
   0   1   9   14.10    0.76
   0   1   9   13.62    1.16
  -1  -1  -9   14.00    1.21
  -1  -1  -9   13.55    0.96
  -1  -1  -9   14.55    0.72
   1  -1   9   13.79    0.61
   1  -1   9   12.99    1.42
   1  -1   9   12.81    0.97
   1   1   9   12.77    1.18
  -1   1  -9   12.18    1.17
   1   1   9   13.39    1.39
  -1   1  -9   12.21    1.03
   1   1   9   14.10    0.86
   1   1   9   13.12    0.73
   1   1   9   12.78    0.74
   1   1   9   14.13    0.63
   2  -1   9   51.84    2.26
   2  -1   9   52.61    1.77
  -2  -1  -9   51.15    1.77
  -2  -1  -9   49.37    1.99
  -2   1  -9   57.10    2.10
   2   1   9   51.78    1.58
   2   1   9   52.29    1.50
   2   1   9   51.65    1.98
   2   1   9   50.84    2.15
   2   1   9   50.34    1.69
   2   1   9   53.14    1.60
   2   1   9   49.76    1.48
  -2   1  -9   56.70    1.84
  -3  -1  -9  160.64    4.52
  -3  -1  -9  161.90    4.24
   3  -1   9  164.67    4.39
   3  -1   9  162.90    4.28
   3  -1   9  164.36    4.04
   3  -1   9  156.52    4.68
   3   1   9  156.88    4.37
  -3   1  -9  161.36    4.17
   3   1   9  161.03    4.11
   3   1   9  160.17    3.97
   3   1   9  158.91    4.05
  -3   1  -9  160.20    4.46
   3   1   9  152.45    4.52
  -4  -1  -9   51.22    1.84
   4  -1   9   56.30    1.48
   4  -1   9   58.01    1.72
   4  -1   9   56.72    2.18
   4  -1   9   56.36    2.01
  -4  -1  -9   50.02    2.22
   4  -1   9   55.09    2.48
   4   1   9   55.06    2.46
   4   1   9   56.91    2.24
   4   1   9   54.95    1.81
   4   1   9   55.72    1.92
   4   1   9   56.35    1.88
  -4   1  -9   57.94    1.91
  -4   1  -9   57.35    2.22
  -5  -1  -9   41.55    1.61
  -5  -1  -9   40.10    2.08
   5  -1   9   45.02    2.14
   5  -1   9   44.14    2.29
   5  -1   9   45.79    1.87
   5  -1   9   42.59    1.92
   5   1   9   44.37    1.69
   5   1   9   40.30    2.30
  -5   1  -9   45.83    1.66
   5   1   9   42.82    1.68
   5   1   9   43.05    1.88
  -5   1  -9   46.07    1.65
   5   1   9   42.83    2.02
  -5   1  -9   40.33    1.99
   6  -1   9    0.87    0.81
   6  -1   9    1.11    1.23
   6  -1   9   -0.09    0.97
   6  -1   9    0.82    0.87
  -6  -1  -9   -0.06    0.56
  -6  -1  -9    0.52    1.01
  -6  -1  -9   -0.07    0.82
   6   1   9    1.30    0.92
  -6   1  -9    0.00    0.57
   6   1   9   -0.76    0.83
   6   1   9    1.55    0.72
   6   1   9   -0.43    0.68
  -6   1  -9    0.03    0.95
  -6   1  -9    0.82    0.80
   7  -1   9   34.76    1.93
  -7  -1  -9   32.78    2.08
  -7  -1  -9   35.75    1.82
   7  -1   9   34.84    2.02
  -7  -1  -9   35.40    1.44
   7  -1   9   35.28    2.22
   7   1   9   36.50    2.16
   7   1   9   28.43    2.54
  -7   1  -9   33.17    1.45
   7   1   9   34.86    1.89
  -7   1  -9   36.00    1.78
  -7   1  -9   36.04    2.20
   8  -1   9    7.87    1.49
  -8  -1  -9    9.46    1.28
   8  -1   9    9.42    1.31
  -8  -1  -9   10.22    1.48
   8   1   9    9.02    1.46
   8   1   9    7.92    1.17
  -8   1  -9   10.31    1.21
  -8   1  -9    9.84    1.55
   8   1   9    9.35    1.43
  -9  -1  -9    4.58    1.53
   9  -1   9    4.16    1.62
  -9  -1  -9    5.28    1.36
   9  -1   9    4.12    1.36
  -9   1  -9    7.25    1.57
   9   1   9    3.97    1.51
   9   1   9    5.62    1.28
  -9   1  -9    6.31    1.22
 -10  -1  -9   31.29    2.82
 -10  -1  -9   34.70    2.43
  10  -1   9   36.10    3.28
  10  -1   9   31.61    2.84
  10   1   9   32.86    3.09
 -10   1  -9   35.11    2.77
  12  -2  -9    3.66    2.74
  12  -2  -9    1.21    1.35
 -12  -2   9    3.86    1.32
  11  -2  -9    8.94    2.04
 -11  -2   9    7.51    1.29
 -11  -2   9    6.32    1.72
 -11  -2   9    7.63    2.30
  11  -2  -9    8.07    1.78
  11  -2  -9    6.35    1.46
 -11  -2   9    9.37    1.44
 -11   2   9    8.19    1.45
 -11   2   9   10.32    1.62
  11   2  -9   11.89    2.09
  11   2  -9    8.30    1.55
 -11   2   9   10.25    1.80
  10  -2  -9    3.82    1.53
 -10  -2   9    6.07    1.10
 -10  -2   9    6.67    1.50
 -10  -2   9    7.42    1.34
  10  -2  -9    3.98    1.66
  10  -2  -9    3.62    1.26
 -10  -2   9    8.10    2.13
  10   2  -9    5.29    1.42
  10   2  -9    6.68    1.83
 -10   2   9    6.96    1.68
 -10   2   9    5.24    1.24
 -10   2   9    9.38    1.92
 -10   2   9    4.13    1.20
   9  -2  -9   20.95    2.01
  -9  -2   9   25.08    2.11
  -9  -2   9   22.07    2.43
  -9  -2   9   21.92    1.70
   9  -2  -9   20.94    2.61
  -9  -2   9   23.15    2.53
   9  -2  -9   21.54    1.90
  -9   2   9   20.53    1.62
  -9   2   9   21.72    2.21
  -9   2   9   20.12    2.46
   9   2  -9   19.15    2.39
   9   2  -9   20.55    1.99
  -9   2   9   22.08    1.81
  -8  -2   9   39.74    2.18
   8  -2  -9   39.20    1.91
   8  -2  -9   39.86    2.01
   8  -2  -9   42.05    2.17
  -8  -2   9   41.14    2.53
  -8  -2   9   41.51    1.73
   8  -2  -9   43.50    2.40
  -8  -2   9   39.47    1.89
   8   2  -9   43.92    2.86
   8   2  -9   40.80    1.92
  -8   2   9   42.45    2.49
  -8   2   9   42.18    1.90
   8   2  -9   41.47    2.37
  -8   2   9   42.15    2.03
  -8   2   9   40.13    2.23
   7  -2  -9   58.11    2.15
  -7  -2   9   58.91    2.31
   7  -2  -9   57.40    2.12
   7  -2  -9   55.78    2.41
  -7  -2   9   57.33    2.11
   7  -2  -9   59.06    2.40
  -7  -2   9   57.93    2.73
  -7  -2   9   56.08    1.92
   7   2  -9   53.02    2.06
  -7   2   9   55.42    2.56
  -7   2   9   55.52    2.21
  -7   2   9   55.64    2.44
   7   2  -9   55.82    2.61
   7   2  -9   56.52    2.34
  -7   2   9   56.83    2.07
   6  -2  -9   13.36    1.27
   6  -2  -9   14.92    1.45
  -6  -2   9   13.03    1.31
   6  -2  -9   12.79    1.41
  -6  -2   9   13.59    0.98
  -6  -2   9   11.77    1.71
  -6  -2   9   13.80    1.17
   6  -2  -9   15.17    1.14
   6  -2  -9   13.45    0.77
  -6   2   9   14.99    1.21
  -6   2   9   13.90    1.60
   6   2  -9   13.71    1.76
   6   2  -9   13.97    1.49
  -6   2   9   16.03    1.35
   6   2  -9   12.85    1.78
  -6   2   9   15.63    1.60
   5  -2  -9   18.50    1.00
   5  -2  -9   18.03    1.42
  -5  -2   9   19.22    0.95
  -5  -2   9   18.50    1.14
   5  -2  -9   16.49    1.25
  -5  -2   9   19.29    1.30
   5  -2  -9   19.48    1.29
  -5  -2   9   15.07    1.66
   5   2  -9   20.39    1.27
  -5   2   9   17.99    1.53
  -5   2   9   18.03    1.56
   5   2  -9   19.50    1.45
   5   2  -9   18.11    1.67
  -5   2   9   19.95    1.23
  -5   2   9   17.02    1.21
  -4  -2   9    1.63    0.64
   4  -2  -9    1.43    0.31
  -4  -2   9    0.76    1.02
   4  -2  -9    1.81    0.77
   4  -2  -9    1.22    0.65
   4  -2  -9    1.08    0.62
  -4  -2   9    1.25    0.46
  -4  -2   9    1.57    0.56
   4  -2  -9    1.14    0.44
   4   2  -9    2.41    0.74
   4   2  -9    2.14    0.45
  -4   2   9    2.45    0.88
  -4   2   9    1.42    0.59
  -4   2   9    2.02    0.69
   4   2  -9    0.56    0.83
   4   2  -9    0.55    0.62
  -4   2   9    1.44    0.84
  -3  -2   9    7.98    0.88
   3  -2  -9    9.05    1.11
  -3  -2   9    8.04    0.78
  -3  -2   9    8.64    0.49
   3  -2  -9    8.54    0.86
   3  -2  -9    9.42    1.00
   3  -2  -9    8.70    0.49
  -3  -2   9    8.70    1.14
   3  -2  -9    8.38    0.66
  -3   2   9    8.00    0.72
  -3   2   9    7.93    1.02
   3   2  -9    8.78    0.88
   3   2  -9    7.37    0.78
  -3   2   9    9.97    0.95
   3   2  -9    7.49    0.96
  -3   2   9    9.87    1.05
  -3   2   9    9.34    1.25
  -2  -2   9    4.85    1.02
   2  -2  -9    4.84    0.74
  -2  -2   9    5.17    0.40
  -2  -2   9    5.66    0.65
   2  -2  -9    4.98    0.78
   2  -2  -9    5.61    0.93
  -2  -2   9    4.97    0.69
  -2   2   9    4.19    0.43
  -2   2   9    4.19    0.89
   2   2  -9    5.11    0.77
  -2   2   9    5.21    0.68
   2   2  -9    4.19    0.71
  -2   2   9    5.71    0.92
  -2   2   9    6.07    0.82
  -1  -2   9  212.98    5.23
   1  -2  -9  216.85    5.49
   1  -2  -9  214.08    5.36
  -1  -2   9  217.63    5.15
   1  -2  -9  210.14    5.40
  -1  -2   9  207.67    5.71
  -1  -2   9  209.73    5.02
  -1   2   9  222.26    5.08
   1   2  -9  212.36    5.47
  -1   2   9  218.22    5.65
  -1   2   9  211.88    5.42
  -1   2   9  218.86    5.67
   1   2  -9  211.99    5.47
  -1   2   9  212.59    5.36
   0  -2   9    8.30    0.42
   0  -2  -9    8.11    1.00
   0  -2   9    9.12    1.22
   0  -2   9    7.97    0.62
   0  -2  -9    7.85    1.09
   0  -2  -9    9.29    0.87
   0   2   9    8.81    0.78
   0   2   9    8.16    0.37
   0   2  -9    7.22    0.51
   0   2   9    8.38    1.27
   0   2  -9    8.26    1.00
   0   2   9    7.87    0.37
   0   2  -9    9.89    1.00
   0   2   9    9.51    1.04
   1  -2   9   27.61    1.06
   1  -2   9   27.02    1.81
  -1  -2  -9   30.01    1.57
  -1  -2  -9   32.40    1.33
   1  -2   9   27.80    0.85
  -1   2  -9   28.49    0.93
  -1   2  -9   29.13    1.39
   1   2   9   30.74    1.67
  -1   2  -9   27.73    1.57
   1   2   9   30.10    0.83
   1   2   9   31.03    1.57
   1   2   9   29.56    0.84
   1   2   9   31.23    1.28
  -2  -2  -9   50.14    2.06
  -2  -2  -9   50.05    1.79
   2  -2   9   50.49    1.36
   2  -2   9   49.13    2.25
  -2  -2  -9   49.19    1.42
   2  -2   9   46.44    2.00
   2   2   9   49.79    2.18
   2   2   9   50.55    1.73
   2   2   9   50.83    1.38
   2   2   9   48.58    2.03
  -2   2  -9   50.25    2.08
   2   2   9   51.42    1.31
  -2   2  -9   47.61    1.78
   2   2   9   49.70    1.38
  -3  -2  -9    1.58    0.64
   3  -2   9    1.90    0.64
   3  -2   9    0.84    0.96
   3  -2   9    1.09    0.52
  -3  -2  -9    1.11    0.87
   3  -2   9    1.21    0.82
  -3   2  -9    1.15    0.62
   3   2   9    0.79    0.83
   3   2   9    1.41    0.35
   3   2   9    1.83    0.30
  -3   2  -9    0.03    0.82
   3   2   9    1.24    0.58
   3   2   9    2.98    1.00
   4  -2   9    1.70    0.63
  -4  -2  -9    1.89    0.86
  -4  -2  -9    2.34    0.66
   4  -2   9    2.79    1.16
   4  -2   9    2.09    0.35
   4  -2   9    0.49    0.88
   4   2   9    2.20    0.70
  -4   2  -9    0.92    0.89
   4   2   9    1.45    0.35
   4   2   9    1.86    0.93
   4   2   9    2.12    0.42
  -4   2  -9    1.34    0.84
  -4   2  -9    2.31    0.52
   4   2   9    1.95    1.11
  -5  -2  -9    3.67    1.07
  -5  -2  -9    2.62    0.71
   5  -2   9    2.88    1.04
   5  -2   9    3.47    0.81
   5  -2   9    5.36    1.27
   5   2   9    3.97    0.73
  -5   2  -9    2.25    1.02
   5   2   9    4.53    1.11
  -5   2  -9    3.20    0.67
   5   2   9    3.19    0.79
   5   2   9    2.97    0.63
  -5   2  -9    4.20    0.66
  -6  -2  -9    8.61    1.58
  -6  -2  -9   11.85    1.12
   6  -2   9    9.07    1.29
   6  -2   9    8.49    1.13
   6  -2   9   11.27    1.63
  -6   2  -9    9.82    1.17
   6   2   9   11.43    1.48
   6   2   9   11.43    1.33
  -6   2  -9   10.35    1.13
   6   2   9   10.03    1.25
   6   2   9    9.78    1.29
  -7  -2  -9   10.46    1.28
  -7  -2  -9    8.79    1.31
  -7  -2  -9   11.29    1.21
   7  -2   9    8.21    2.30
  -7   2  -9    9.51    1.35
   7   2   9    7.99    1.06
   7   2   9   11.48    1.38
  -7   2  -9   10.27    1.11
   7   2   9    7.97    1.18
  -7   2  -9    9.22    1.25
   7   2   9    7.32    1.29
   8  -2   9   22.27    2.43
  -8  -2  -9   21.79    2.12
  -8  -2  -9   21.77    1.91
   8  -2   9   21.65    2.24
   8   2   9   22.32    1.93
   8   2   9   25.70    2.28
  -8   2  -9   20.52    2.17
  -9  -2  -9    0.91    1.40
   9  -2   9    0.86    1.61
  -9  -2  -9    1.89    1.27
   9  -2   9    0.37    1.31
  -9   2  -9    1.37    1.41
   9   2   9    1.52    1.42
 -10  -2  -9    3.30    1.48
  10  -2   9    0.93    1.42
  10  -2   9    1.23    1.75
 -10  -2  -9    2.33    1.57
 -10   2  -9    3.72    1.57
  11  -3  -9   10.70    2.07
 -11  -3   9    7.36    1.21
 -11  -3   9    8.25    2.00
  11  -3  -9    8.04    1.64
 -11  -3   9   12.74    1.77
 -11  -3   9    8.12    1.44
 -11   3   9    4.74    1.91
  11   3  -9    8.06    1.98
  11   3  -9    8.52    1.64
 -11   3   9    8.70    1.51
 -11   3   9    8.55    1.36
  10  -3  -9   15.65    2.03
 -10  -3   9   14.25    1.84
 -10  -3   9   19.32    2.30
 -10  -3   9   16.13    1.62
 -10  -3   9   25.30    3.01
  10  -3  -9   16.64    1.95
  10  -3  -9   11.99    1.86
 -10   3   9   18.04    2.10
 -10   3   9   16.07    1.85
  10   3  -9   11.82    1.94
  10   3  -9   17.41    2.47
 -10   3   9   12.98    1.99
   9  -3  -9   20.68    2.68
  -9  -3   9   18.24    1.67
  -9  -3   9   21.27    2.40
   9  -3  -9   22.87    2.23
  -9  -3   9   19.11    2.56
  -9  -3   9   18.72    1.59
   9  -3  -9   22.47    1.93
  -9   3   9   16.31    1.90
  -9   3   9   18.98    1.70
   9   3  -9   19.26    2.17
   9   3  -9   20.51    2.52
  -9   3   9   16.26    1.91
  -8  -3   9   58.73    3.03
   8  -3  -9   56.10    2.35
  -8  -3   9   58.54    2.54
  -8  -3   9   56.90    2.07
   8  -3  -9   59.38    2.36
   8  -3  -9   58.37    2.70
  -8  -3   9   59.62    2.46
   8  -3  -9   55.15    2.62
   8   3  -9   54.01    2.55
  -8   3   9   53.54    2.25
  -8   3   9   57.94    2.66
  -8   3   9   56.92    2.33
  -8   3   9   58.93    2.68
   8   3  -9   55.61    2.91
   8   3  -9   58.73    2.30
   7  -3  -9   14.83    1.40
  -7  -3   9   15.58    1.58
  -7  -3   9   16.46    2.44
  -7  -3   9   16.00    1.15
   7  -3  -9   15.88    2.03
  -7  -3   9   15.21    1.35
   7  -3  -9   15.75    1.53
   7  -3  -9   15.87    1.78
  -7   3   9   14.19    2.62
   7   3  -9   11.80    1.94
  -7   3   9   16.09    2.19
   7   3  -9   15.54    1.76
  -7   3   9   18.30    1.83
   7   3  -9   14.53    1.51
  -6  -3   9   52.98    2.07
  -6  -3   9   52.41    1.72
  -6  -3   9   52.77    2.64
   6  -3  -9   50.91    2.25
   6  -3  -9   54.45    1.84
   6  -3  -9   56.12    2.10
   6  -3  -9   53.35    2.09
   6  -3  -9   54.03    1.93
  -6  -3   9   53.99    1.91
   6   3  -9   51.29    2.56
   6   3  -9   51.98    2.27
  -6   3   9   50.73    2.11
  -6   3   9   52.02    2.40
   6   3  -9   53.97    2.04
  -6   3   9   52.25    2.00
  -6   3   9   54.20    2.22
   5  -3  -9   24.86    1.30
  -5  -3   9   25.34    1.01
  -5  -3   9   26.88    1.95
  -5  -3   9   23.26    1.23
  -5  -3   9   23.36    1.37
   5  -3  -9   25.30    0.92
   5  -3  -9   24.68    1.59
   5  -3  -9   24.07    1.54
   5  -3  -9   25.24    1.42
   5   3  -9   23.08    1.87
  -5   3   9   24.49    1.55
  -5   3   9   25.22    1.39
  -5   3   9   22.89    1.74
   5   3  -9   23.34    1.45
  -5   3   9   24.55    1.41
   5   3  -9   24.05    1.62
   4  -3  -9    6.13    0.66
   4  -3  -9    8.54    1.08
   4  -3  -9    8.19    0.93
  -4  -3   9    9.44    1.33
  -4  -3   9    7.55    0.83
   4  -3  -9    6.55    0.89
  -4  -3   9    7.82    0.45
   4  -3  -9    7.94    0.48
  -4  -3   9    7.19    0.90
  -4   3   9    8.24    1.06
   4   3  -9    6.84    0.85
  -4   3   9    9.38    1.15
   4   3  -9    5.87    0.93
  -4   3   9    8.62    1.03
  -4   3   9    7.51    1.06
   4   3  -9    6.92    1.19
  -3  -3   9    0.84    0.92
   3  -3  -9    0.37    0.73
  -3  -3   9    0.52    0.45
   3  -3  -9    0.97    0.66
  -3  -3   9    0.46    0.21
  -3  -3   9    0.24    0.34
   3  -3  -9    0.27    0.28
   3  -3  -9   -1.41    0.68
  -3   3   9    0.58    0.75
   3   3  -9    1.05    0.72
  -3   3   9    0.39    0.62
  -3   3   9    0.54    0.68
   3   3  -9    0.60    0.67
  -3   3   9   -0.14    0.77
  -2  -3   9   28.94    0.80
   2  -3  -9   32.38    1.50
  -2  -3   9   30.91    1.06
  -2  -3   9   29.17    0.98
  -2  -3   9   28.58    1.81
   2  -3  -9   30.85    1.59
   2  -3  -9   31.31    1.50
  -2   3   9   30.30    1.58
   2   3  -9   29.72    1.45
  -2   3   9   31.07    1.48
   2   3  -9   28.95    1.50
  -2   3   9   30.30    1.38
  -2   3   9   31.85    1.66
   1  -3  -9   68.32    2.35
  -1  -3   9   71.08    1.87
   1  -3  -9   68.96    2.22
  -1  -3   9   69.97    1.81
  -1  -3   9   66.67    2.58
   1  -3  -9   67.64    2.20
  -1   3   9   69.91    2.39
  -1   3   9   69.93    2.28
   1   3  -9   71.46    2.34
  -1   3   9   71.74    2.21
   1   3  -9   71.32    2.32
  -1   3   9   71.14    2.53
   0  -3   9   53.31    2.32
   0  -3   9   53.68    1.49
   0  -3  -9   53.20    1.92
   0  -3  -9   49.78    2.06
   0  -3  -9   53.94    1.81
   0   3   9   49.72    2.09
   0   3  -9   53.01    2.01
   0   3   9   53.44    2.04
   0   3  -9   51.52    1.91
   0   3   9   50.33    1.79
   1  -3   9   43.91    2.21
  -1  -3  -9   45.50    1.78
   1  -3   9   47.37    1.34
  -1  -3  -9   45.68    1.57
  -1  -3  -9   44.80    1.99
  -1   3  -9   45.00    1.72
   1   3   9   45.75    2.04
  -1   3  -9   45.55    1.98
   1   3   9   47.61    2.01
   1   3   9   46.34    1.70
  -2  -3  -9  134.72    3.62
  -2  -3  -9  142.51    3.81
  -2  -3  -9  137.81    4.06
   2  -3   9  138.60    4.22
   2  -3   9  139.72    3.48
   2   3   9  138.73    4.04
   2   3   9  139.21    4.02
  -2   3  -9  137.45    3.80
  -2   3  -9  136.26    4.04
  -2   3  -9  137.27    3.32
   2   3   9  140.64    3.74
   3  -3   9    4.31    0.66
   3  -3   9    3.88    1.01
   3  -3   9    4.54    1.22
  -3  -3  -9    2.54    0.72
  -3  -3  -9    3.11    0.90
  -3  -3  -9    2.84    0.42
   3  -3   9    4.45    0.56
  -3   3  -9    4.59    0.76
  -3   3  -9    4.42    0.40
  -3   3  -9    4.46    1.05
   3   3   9    5.66    1.05
   3   3   9    3.34    0.72
   3   3   9    3.91    1.08
  -4  -3  -9   15.75    1.66
   4  -3   9   15.66    1.77
  -4  -3  -9   17.53    1.24
   4  -3   9   15.86    1.05
   4  -3   9   15.00    1.92
  -4   3  -9   15.84    1.23
   4   3   9   15.72    1.27
   4   3   9   17.56    1.65
  -4   3  -9   14.70    1.67
  -5  -3  -9    4.70    1.20
   5  -3   9    5.56    0.72
   5  -3   9    3.87    1.25
   5  -3   9    3.96    1.19
  -5  -3  -9    4.73    0.80
  -5   3  -9    3.10    1.13
   5   3   9    3.08    1.06
   5   3   9    4.37    0.84
  -5   3  -9    4.77    0.76
  -6  -3  -9    1.69    1.15
  -6  -3  -9    1.22    0.71
   6   3   9    1.72    0.86
   6   3   9    2.54    1.09
  -6   3  -9    3.02    1.21
  -6   3  -9    1.46    0.72
  -7  -3  -9    5.31    1.18
   7  -3   9    2.61    1.18
  -7  -3  -9    4.32    1.35
   7  -3   9    2.73    1.28
  -7   3  -9    4.99    0.78
   7   3   9    3.71    0.95
  -7   3  -9    4.89    1.26
   7   3   9    3.12    1.25
  -8  -3  -9    8.78    1.47
   8  -3   9   12.22    1.59
   8  -3   9    9.95    1.72
  -8  -3  -9    7.03    1.57
   8   3   9    9.86    1.75
   8   3   9   11.88    1.43
   9  -3   9    0.45    1.64
  -9  -3  -9    1.85    1.33
   9  -3   9    1.03    1.48
  -9  -3  -9    1.87    1.60
  -9   3  -9    3.04    1.63
   9   3   9    3.57    1.63
 -10  -3  -9    6.11    1.55
 -11  -4   9    5.67    1.17
 -11  -4   9    6.31    1.54
 -10  -4   9    3.13    1.37
 -10  -4   9   -0.52    1.14
 -10  -4   9    3.25    1.99
  10  -4  -9    1.19    1.64
 -10   4   9    1.00    1.22
 -10   4   9    0.38    1.44
  10   4  -9   -2.08    1.42
  10   4  -9    0.62    1.79
 -10   4   9    2.79    1.84
  -9  -4   9   38.40    2.06
  -9  -4   9   39.64    2.39
  -9  -4   9   39.40    3.07
   9  -4  -9   40.88    2.72
  -9   4   9   36.24    2.36
   9   4  -9   36.35    2.96
  -9   4   9   34.97    2.83
   9   4  -9   38.07    2.53
  -9   4   9   37.13    2.17
  -8  -4   9    1.64    0.76
  -8  -4   9    2.79    1.45
  -8  -4   9    5.51    1.17
   8  -4  -9    2.86    1.22
   8  -4  -9    0.06    1.25
   8  -4  -9    1.54    1.08
  -8   4   9    3.29    1.53
  -8   4   9    2.77    1.04
   8   4  -9    2.42    1.09
   8   4  -9    0.99    1.18
   8   4  -9   -0.45    1.45
  -8   4   9    3.57    1.25
  -7  -4   9    8.43    1.55
  -7  -4   9    9.09    1.15
   7  -4  -9    8.74    1.38
  -7  -4   9    8.70    1.02
  -7  -4   9    9.53    0.99
   7  -4  -9    7.50    1.15
   7  -4  -9    6.66    1.12
  -7   4   9   10.03    1.28
  -7   4   9    7.65    1.39
  -7   4   9    6.30    1.02
   7   4  -9    6.37    1.41
   7   4  -9    6.58    1.23
   7   4  -9    7.35    1.14
  -6  -4   9   11.20    1.33
   6  -4  -9   13.27    1.58
   6  -4  -9    7.15    1.97
  -6  -4   9   10.76    1.15
  -6  -4   9   11.78    0.87
   6  -4  -9   12.29    1.43
   6  -4  -9   12.47    1.57
   6   4  -9   12.27    1.51
   6   4  -9   11.58    1.71
  -5  -4   9    8.36    0.97
   5  -4  -9    8.82    1.19
  -5  -4   9    8.86    0.48
  -5  -4   9   11.42    1.51
  -5  -4   9    9.71    1.11
   5  -4  -9   12.73    1.49
  -5   4   9    8.00    1.23
  -5   4   9    9.98    1.13
   5   4  -9   11.52    1.39
  -5   4   9    8.90    1.31
  -5   4   9    9.58    1.20
   5   4  -9    9.25    1.20
   5   4  -9    7.33    1.24
   4  -4  -9   12.60    1.46
  -4  -4   9   10.24    1.10
  -4  -4   9   12.08    1.77
   4  -4  -9   12.07    0.87
   4  -4  -9   14.20    1.42
  -4  -4   9   13.29    0.89
  -4   4   9   11.62    1.32
   4   4  -9   12.37    1.33
  -4   4   9   11.10    1.55
  -4   4   9   11.76    1.19
  -4   4   9   11.50    1.34
  -3  -4   9   22.98    1.86
   3  -4  -9   24.44    1.67
  -3  -4   9   23.45    0.87
  -3  -4   9   22.83    0.86
   3  -4  -9   22.78    1.54
  -3   4   9   21.61    1.36
  -3   4   9   22.91    1.72
  -3   4   9   23.13    1.43
   3   4  -9   22.72    1.51
  -3   4   9   22.88    1.46
  -2  -4   9    3.33    0.37
   2  -4  -9    1.76    0.94
  -2  -4   9    3.06    0.32
  -2  -4   9    3.23    1.12
   2  -4  -9    3.14    0.88
  -2   4   9    3.40    0.86
   2   4  -9    2.80    0.80
  -2   4   9    2.61    0.82
   2   4  -9    2.15    0.90
  -2   4   9    4.34    0.80
  -2   4   9    3.38    1.02
   1  -4  -9   14.49    1.29
   1  -4  -9   13.67    1.45
  -1  -4   9   13.57    1.62
  -1   4   9   15.20    1.18
   1   4  -9   16.68    1.34
  -1   4   9   15.46    1.39
   1   4  -9   14.04    1.44
  -1   4   9   13.89    1.28
  -1   4   9   14.44    1.24
   0  -4  -9   48.74    1.78
   0  -4   9   45.54    2.26
   0  -4  -9   43.96    1.97
   0   4  -9   47.52    2.07
   0   4   9   48.54    2.13
   0   4  -9   45.19    1.81
   0   4   9   46.56    1.91
   0   4   9   46.98    1.78
   1  -4   9   14.17    1.70
  -1  -4  -9   15.46    1.11
  -1  -4  -9   15.10    1.39
   1   4   9   15.77    1.46
  -1   4  -9   13.14    1.18
  -1   4  -9   16.17    1.57
   1   4   9   17.08    1.53
   1   4   9   15.59    1.19
   2  -4   9    3.71    0.78
  -2  -4  -9    4.85    0.66
  -2  -4  -9    3.33    1.07
   2  -4   9    4.07    1.16
  -2   4  -9    5.46    0.87
   2   4   9    4.63    1.05
   2   4   9    5.18    1.09
  -2   4  -9    2.74    1.07
   2   4   9    4.16    0.77
  -3  -4  -9   16.58    1.62
   3  -4   9   14.94    1.25
   3  -4   9   15.16    1.78
  -3   4  -9   14.45    1.26
  -3   4  -9   13.28    1.53
   3   4   9   13.47    1.26
   3   4   9   13.17    1.66
  -4  -4  -9    2.15    0.78
  -4  -4  -9    4.04    1.15
   4  -4   9    2.23    1.18
   4  -4   9    3.31    0.77
   4  -4   9    3.99    1.19
   4   4   9    3.14    1.07
  -4   4  -9    1.79    1.18
   4   4   9    3.05    0.84
  -4   4  -9    2.60    0.75
  -5  -4  -9    1.48    0.81
   5  -4   9    2.32    0.80
   5  -4   9    2.35    2.12
   5  -4   9    1.41    1.21
  -5  -4  -9    2.04    1.27
   5   4   9    1.36    1.18
  -5   4  -9    1.14    0.76
   5   4   9    3.39    0.88
  -5   4  -9    2.36    1.11
  -6  -4  -9   12.56    1.39
   6  -4   9   12.76    1.69
  -6  -4  -9   11.57    1.62
   6  -4   9   14.34    1.82
   6   4   9   11.98    1.51
   6   4   9   14.15    1.67
  -6   4  -9   12.69    1.62
  -6   4  -9   13.64    1.39
  -7  -4  -9   43.59    2.60
  -7  -4  -9   43.95    2.33
   7  -4   9   50.29    3.12
  -7   4  -9   44.12    1.93
   7   4   9   49.51    2.29
  -7   4  -9   47.53    2.75
   7   4   9   45.78    2.80
  -8  -4  -9   26.61    2.60
   8  -4   9   23.10    3.00
   8  -4   9   20.95    2.65
  -8  -4  -9   31.07    2.20
  -8   4  -9   30.11    2.67
   8   4   9   30.12    2.75
   8   4   9   27.94    2.05
  -9  -4  -9    4.17    1.34
   9  -4   9    2.30    1.84
  -9  -4  -9    2.89    1.63
   9  -4   9    4.47    1.53
   9   4   9    5.13    2.39
  -9   4  -9    5.53    1.68
 -10  -5   9    5.36    1.19
 -10   5   9    4.02    1.69
  -9  -5   9    0.58    1.88
   9  -5  -9   -0.77    1.57
  -9  -5   9    2.61    1.02
   9   5  -9    2.59    1.75
  -9   5   9   -0.25    1.81
   9   5  -9    2.46    1.47
  -9   5   9   -1.70    1.41
  -9   5   9   -0.31    1.20
  -8  -5   9    2.68    0.95
   8  -5  -9   -0.65    1.50
  -8  -5   9    2.58    1.64
   8  -5  -9    1.24    1.23
  -8   5   9    0.62    1.61
   8   5  -9    1.75    1.64
   8   5  -9    0.76    1.33
  -8   5   9    1.24    1.32
  -8   5   9    2.17    1.08
  -7  -5   9    9.05    1.05
   7  -5  -9    9.01    1.55
  -7  -5   9    9.53    1.75
   7  -5  -9    7.58    1.51
   7   5  -9    9.47    1.39
  -7   5   9    7.57    1.58
   7   5  -9    7.16    1.57
   7   5  -9    9.64    1.40
  -7   5   9    6.90    1.33
  -7   5   9   10.38    1.27
  -6  -5   9    5.47    1.32
   6  -5  -9    2.12    1.13
   6  -5  -9    2.14    1.31
  -6  -5   9    6.42    1.55
   6   5  -9    1.51    1.35
  -6   5   9    2.67    1.29
  -6   5   9    4.68    1.00
   6   5  -9    2.74    1.06
   6   5  -9    2.80    1.18
  -6   5   9    4.73    1.15
   5  -5  -9    1.54    1.11
  -5  -5   9    3.49    0.70
   5  -5  -9    2.94    1.23
  -5  -5   9    4.94    2.59
  -5   5   9    3.68    1.23
   5   5  -9    3.90    1.06
  -5   5   9    3.17    0.85
  -5   5   9    3.94    1.96
  -4  -5   9   16.11    0.87
  -4  -5   9   15.57    1.99
   4  -5  -9   16.99    1.71
   4  -5  -9   13.62    1.60
  -4   5   9   12.97    1.45
  -4   5   9   14.57    1.49
  -4   5   9   13.86    1.45
   4   5  -9   12.03    1.51
   3  -5  -9   55.50    2.45
   3  -5  -9   55.11    2.32
  -3  -5   9   57.51    2.64
  -3   5   9   57.32    2.19
  -3   5   9   58.15    2.27
   3   5  -9   58.28    2.27
  -3   5   9   59.45    2.59
   2  -5  -9    8.08    1.10
  -2  -5   9    7.74    1.32
   2  -5  -9   11.71    1.57
  -2   5   9    6.38    0.96
  -2   5   9    7.56    0.97
  -2   5   9    6.81    1.19
  -2   5   9    8.27    1.11
   2   5  -9    5.88    0.90
  -1  -5   9   21.06    1.84
   1  -5  -9   17.83    1.46
   1  -5  -9   18.31    1.74
   1   5  -9   20.28    1.50
  -1   5   9   17.61    1.72
  -1   5   9   19.12    1.35
  -1   5   9   19.72    1.39
   0  -5  -9   32.56    1.65
   0  -5   9   32.48    1.87
   0  -5   9   34.80    2.08
   0  -5  -9   31.61    1.83
   0   5   9   32.99    2.03
   0   5   9   34.28    1.65
   0   5  -9   31.81    1.97
   0   5  -9   33.88    1.73
   1  -5   9   21.74    1.98
  -1  -5  -9   22.01    1.67
  -1  -5  -9   23.03    1.42
   1  -5   9   22.07    1.53
  -1   5  -9   19.00    1.45
   1   5   9   20.84    1.42
  -1   5  -9   21.25    1.83
   1   5   9   23.73    1.80
  -2  -5  -9   14.18    1.78
   2  -5   9    9.29    1.43
   2  -5   9   10.13    1.12
  -2  -5  -9    9.00    1.15
  -2   5  -9   10.02    1.38
   2   5   9   10.71    1.27
  -2   5  -9    9.04    1.04
   2   5   9    8.16    1.29
   3  -5   9    3.83    1.28
   3  -5   9    4.45    0.96
  -3  -5  -9    2.30    0.69
  -3  -5  -9    2.47    1.41
  -3   5  -9    4.00    2.01
  -3   5  -9    2.94    0.85
   3   5   9    4.85    1.52
   4  -5   9   24.63    2.17
   4  -5   9   20.10    2.16
   4  -5   9   26.46    1.69
  -4  -5  -9   22.57    2.03
   4   5   9   25.52    2.08
  -4   5  -9   24.15    1.61
  -4   5  -9   24.90    2.12
   4   5   9   23.57    1.61
   5  -5   9   28.61    2.51
  -5  -5  -9   28.69    2.17
  -5  -5  -9   21.46    1.68
   5  -5   9   26.30    1.76
  -5   5  -9   25.77    2.22
   5   5   9   24.39    2.26
   5   5   9   26.11    1.78
   6  -5   9    7.74    1.65
   6  -5   9    4.01    1.46
  -6  -5  -9    4.75    1.05
  -6  -5  -9    3.90    1.44
   6   5   9    5.78    1.19
  -6   5  -9    4.36    1.47
   6   5   9    8.02    1.64
  -6   5  -9    3.66    1.07
  -7  -5  -9    6.23    1.40
   7  -5   9    6.89    1.88
  -7  -5  -9    6.53    1.71
   7   5   9    3.84    1.62
   7   5   9    6.62    1.22
  -7   5  -9    7.16    1.66
   8  -5   9    6.53    1.84
   8  -5   9    4.30    1.62
  -8  -5  -9    8.51    1.73
  -8  -5  -9    8.70    1.38
   8   5   9   10.78    1.88
   8   5   9    8.95    1.33
  -8   5  -9    9.03    1.82
  -9   6   9   12.58    2.58
  -9   6   9   10.16    1.57
   8  -6  -9    0.80    1.57
  -8  -6   9    4.29    2.00
   8  -6  -9   -2.05    1.33
  -8   6   9    0.42    1.78
   8   6  -9   -2.12    1.61
  -8   6   9   -1.47    1.10
  -8   6   9   -0.55    1.50
   8   6  -9   -3.10    1.85
   7  -6  -9    2.35    1.46
  -7  -6   9    6.71    1.91
   7   6  -9    2.01    1.46
  -7   6   9    0.75    1.57
   7   6  -9    2.27    1.35
  -7   6   9    3.28    1.24
  -7   6   9    3.43    1.44
   6  -6  -9   15.13    2.07
   6  -6  -9   14.38    1.92
  -6  -6   9   17.37    2.12
  -6   6   9   14.07    1.75
  -6   6   9   17.39    1.91
  -6   6   9   15.01    1.75
   6   6  -9   15.48    1.95
   5  -6  -9    1.89    1.20
   5  -6  -9    2.11    1.56
  -5  -6   9    2.85    1.45
  -5   6   9    3.10    1.08
  -5   6   9    0.66    1.39
  -5   6   9    1.89    1.23
   5   6  -9    0.78    1.09
   4  -6  -9   31.77    2.36
  -4  -6   9   36.28    2.54
   4  -6  -9   34.20    2.10
  -4   6   9   31.93    1.90
  -4   6   9   31.92    2.36
  -4   6   9   33.67    1.99
   4   6  -9   32.43    1.98
   3  -6  -9   13.59    1.68
  -3  -6   9   12.76    1.62
   3  -6  -9   11.37    1.43
  -3   6   9   13.93    1.93
  -3   6   9   15.66    1.49
   3   6  -9   14.54    1.71
  -3   6   9   14.09    1.62
   2  -6  -9   -0.11    1.31
  -2  -6   9   -0.45    1.14
   2  -6  -9    0.45    1.02
  -2   6   9    0.61    1.44
   2   6  -9    0.53    0.98
  -2   6   9    0.40    0.88
   1  -6  -9    5.82    2.05
  -1  -6   9    3.03    1.26
   1  -6  -9    4.01    1.06
   1   6  -9    5.13    1.08
  -1   6   9    4.10    1.03
   0  -6   9   28.07    2.17
   0  -6  -9   25.96    2.48
   0  -6   9   30.90    2.08
   0  -6  -9   28.52    1.72
   0   6   9   32.67    1.78
   0   6   9   27.46    3.49
   0   6  -9   31.60    1.89
  -1  -6  -9   12.36    1.56
   1  -6   9   12.50    1.58
  -1  -6  -9   11.91    1.44
   1  -6   9   11.99    1.54
  -1   6  -9   15.53    1.59
   1   6   9   12.70    1.45
   1   6   9   15.61    1.97
   2  -6   9   14.68    1.68
   2  -6   9   15.01    1.69
  -2  -6  -9   15.09    1.69
  -2  -6  -9   14.92    1.48
  -2   6  -9   20.12    1.55
  -2   6  -9   13.29    1.64
   2   6   9   16.76    1.75
   2   6   9   17.29    1.54
   3  -6   9    6.66    1.18
   3  -6   9    3.51    1.38
  -3  -6  -9    4.96    1.34
   3  -6   9    4.10    1.34
  -3   6  -9    3.97    0.96
   3   6   9    4.95    1.45
  -3   6  -9    4.65    1.47
   3   6   9    2.71    0.98
   4  -6   9   55.70    4.14
  -4  -6  -9   48.59    2.76
   4  -6   9   55.53    2.50
   4  -6   9   50.86    2.96
   4   6   9   53.84    2.39
  -4   6  -9   56.62    2.35
  -4   6  -9   51.57    2.90
   4   6   9   55.02    2.89
   5  -6   9   39.05    3.35
  -5  -6  -9   42.25    2.74
   5  -6   9   45.86    2.74
   5  -6   9   36.71    3.09
   5   6   9   39.16    2.88
   5   6   9   40.13    2.23
  -5   6  -9   42.48    2.08
  -5   6  -9   39.19    2.83
  -6  -6  -9    8.40    1.65
   6  -6   9    9.06    1.92
  -6  -6  -9    8.80    1.24
  -6   6  -9    6.08    1.84
   6   6   9   10.91    1.43
  -6   6  -9    9.35    1.19
   6   6   9    6.38    1.76
  -7  -6  -9   20.81    2.65
   7  -6   9   12.84    2.06
  -7  -6  -9   17.89    1.99
  -7   6  -9   18.39    2.17
   7   6   9   18.23    2.29
   7   6   9   19.90    1.94
  -8   7   9    0.71    1.54
  -7  -7   9    4.36    1.86
   7  -7  -9    0.84    1.45
  -7   7   9    4.35    1.58
   7   7  -9    1.77    1.58
  -7   7   9    0.66    1.81
  -7   7   9    0.75    1.27
   6  -7  -9    8.99    1.75
   6  -7  -9   12.28    2.16
  -6  -7   9   11.81    2.15
  -6   7   9    9.80    1.62
  -6   7   9    7.82    1.80
   6   7  -9    8.04    1.55
  -6   7   9    6.17    1.32
  -5  -7   9   12.25    1.95
   5  -7  -9    9.45    1.56
   5  -7  -9   10.00    2.05
   5   7  -9   13.72    1.59
  -5   7   9   12.35    1.97
  -5   7   9    8.80    1.43
  -5   7   9   14.58    1.98
  -4  -7   9   18.77    2.43
  -4  -7   9   11.47    1.48
   4  -7  -9   19.69    2.49
   4  -7  -9   14.37    2.05
   4   7  -9   19.90    2.11
  -4   7   9   15.64    1.88
  -4   7   9   16.76    2.00
  -4   7   9   16.79    1.93
   3  -7  -9    6.66    1.78
  -3  -7   9    6.42    1.25
   3  -7  -9    5.20    1.31
  -3  -7   9    6.19    1.57
  -3   7   9    6.48    1.21
  -3   7   9    5.39    1.54
   3   7  -9    6.44    1.36
  -2  -7   9   12.30    1.49
   2  -7  -9   11.63    1.47
   2  -7  -9   10.31    1.75
  -2  -7   9   10.42    1.66
   2   7  -9   10.77    1.41
  -2   7   9   12.42    1.72
  -2   7   9    9.89    1.23
   1  -7  -9    8.41    1.66
   1  -7  -9    8.34    1.32
  -1  -7   9    7.83    1.28
  -1   7   9    7.11    1.18
   1   7  -9    9.18    1.30
  -1   7   9    7.77    1.51
   0  -7  -9   40.21    2.57
   0  -7   9   37.42    2.29
   0  -7  -9   34.25    2.68
   0  -7   9   37.83    2.54
   0   7   9   37.89    2.06
   0   7   9   36.48    2.44
   0   7  -9   39.74    2.19
  -1  -7  -9    1.52    1.08
  -1  -7  -9    3.02    1.60
   1  -7   9    1.43    1.32
   1  -7   9    1.50    1.17
  -1   7  -9    3.11    1.15
   1   7   9    2.67    1.16
   1   7   9    4.70    1.55
  -2  -7  -9    5.19    1.51
   2  -7   9    4.87    1.38
   2  -7   9    5.28    1.67
   2   7   9    1.84    1.53
   2   7   9    4.45    1.16
  -2   7  -9    3.63    1.11
   3  -7   9    3.19    1.94
   3  -7   9    5.01    1.36
  -3  -7  -9    5.14    1.64
   3  -7   9    4.58    1.60
   3   7   9    5.07    1.72
  -3   7  -9    4.67    1.15
   3   7   9    4.71    1.29
   4  -7   9    3.47    1.69
   4  -7   9    4.64    1.44
  -4  -7  -9    4.21    1.59
   4  -7   9    3.04    2.01
   4   7   9    3.07    1.69
  -4   7  -9    3.07    1.11
   4   7   9    3.29    1.23
  -5  -7  -9   33.47    2.79
   5  -7   9   35.91    3.35
   5  -7   9   26.88    3.18
   5   7   9   27.44    3.07
  -5   7  -9   27.38    2.22
   5   7   9   30.99    2.25
  -6  -7  -9    9.87    1.76
   6   7   9    9.43    2.06
  -6   7  -9    9.54    1.28
   6  -8  -9    3.55    2.24
  -6  -8   9    4.42    1.78
  -6   8   9    3.92    1.83
  -6   8   9    0.57    1.52
   6   8  -9    3.36    1.57
  -5  -8   9    5.19    1.28
   5  -8  -9    4.31    1.49
   5  -8  -9    7.12    2.28
   5   8  -9    4.91    1.56
  -5   8   9    6.30    1.35
  -5   8   9    4.16    1.87
   4  -8  -9   59.30    3.21
  -4  -8   9   66.76    3.53
   4  -8  -9   58.37    3.56
  -4  -8   9   68.43    3.08
   4   8  -9   63.13    3.08
  -4   8   9   62.15    3.51
  -4   8   9   55.37    2.78
  -3  -8   9   25.24    2.33
   3  -8  -9   25.46    2.43
  -3  -8   9   32.67    2.65
   3  -8  -9   26.49    2.97
  -3   8   9   27.95    2.14
   3   8  -9   27.17    2.48
  -3   8   9   20.70    2.83
   2  -8  -9   -0.65    1.35
   2  -8  -9   -3.07    1.70
  -2  -8   9    1.52    1.35
  -2  -8   9   -1.48    1.52
  -2   8   9   -1.68    1.23
  -2   8   9   -0.69    1.61
   2   8  -9   -0.43    1.29
   1  -8  -9   10.31    1.58
  -1  -8   9    6.83    1.66
   1  -8  -9    5.64    1.75
  -1   8   9    8.08    1.72
  -1   8   9    7.72    1.52
   1   8  -9    6.95    1.32
   0  -8   9    0.71    1.28
   0  -8  -9    0.34    1.72
   0  -8  -9    0.10    1.27
   0  -8   9   -2.68    1.71
   0   8   9   -1.00    1.61
   0   8   9   -1.58    1.25
   0   8  -9   -0.58    1.13
  -1  -8  -9    4.48    1.72
   1  -8   9    4.30    1.56
  -1  -8  -9    2.97    1.24
   1   8   9    5.90    1.87
  -1   8  -9    3.97    1.22
   1   8   9    9.46    1.46
  -2  -8  -9    2.88    1.67
   2  -8   9    4.04    1.53
   2   8   9    3.48    1.45
   2   8   9    5.22    1.91
  -2   8  -9    3.11    1.28
  -3  -8  -9    3.96    1.81
   3  -8   9    3.84    1.55
   3  -8   9    2.57    1.69
   3   8   9    1.08    1.90
   3   8   9    4.28    1.34
  -3   8  -9    3.58    1.28
   4  -8   9   21.32    2.10
   4   8   9   17.80    2.23
   4   8   9   25.22    2.92
  -4   8  -9   26.50    2.26
  -3   9   9    6.86    1.94
   2  -9  -9    2.59    1.58
  -2   9   9    1.77    1.85
   1  -9  -9    2.31    1.47
  -1   9   9    5.41    2.00
   0  -9  -9   11.13    1.59
   0   9   9   17.76    2.38
   1   9   9    0.02    1.94
 -11   0  10   17.14    2.06
 -11   0  10   18.09    1.94
 -11   0  10   27.42    3.37
 -11   0  10   19.26    2.63
  11   0 -10   20.19    2.34
  11   0 -10   18.99    2.42
  10   0 -10    4.01    1.43
  10   0 -10    1.34    1.72
  10   0 -10    3.53    1.29
 -10   0  10    4.10    1.12
 -10   0  10    5.08    1.97
 -10   0  10    1.27    1.21
 -10   0  10    2.26    1.49
  -9   0  10   15.22    2.00
   9   0 -10   17.40    1.93
  -9   0  10   15.99    1.70
   9   0 -10   13.83    1.78
  -9   0  10   16.49    1.61
  -9   0  10   18.38    2.49
   9   0 -10   19.38    1.95
   8   0 -10    1.16    1.21
  -8   0  10    0.94    0.93
   8   0 -10    0.61    0.94
  -8   0  10    0.47    1.09
   8   0 -10    2.19    0.94
  -8   0  10    1.11    0.84
   8   0 -10    1.84    1.03
  -7   0  10   67.07    2.27
   7   0 -10   72.12    2.80
   7   0 -10   68.95    2.37
  -7   0  10   66.20    2.70
   7   0 -10   70.06    2.49
  -7   0  10   70.82    3.02
   7   0 -10   67.15    2.70
  -7   0  10   69.11    2.45
  -6   0  10   12.63    1.09
   6   0 -10   10.40    1.35
  -6   0  10   12.06    1.26
   6   0 -10   12.81    1.32
   6   0 -10   12.56    1.64
  -6   0  10   14.62    1.91
   6   0 -10   11.31    1.32
  -6   0  10   10.87    1.19
  -5   0  10   98.58    2.80
   5   0 -10   97.90    2.95
  -5   0  10   98.44    3.15
   5   0 -10  101.27    2.89
   5   0 -10   97.44    2.56
   5   0 -10   99.80    3.10
  -5   0  10  101.00    3.41
  -5   0  10  100.47    2.96
   5   0 -10  102.79    3.19
  -4   0  10   65.06    2.16
   4   0 -10   65.90    1.91
   4   0 -10   65.35    2.28
   4   0 -10   64.95    2.19
   4   0 -10   68.51    2.06
  -4   0  10   63.89    2.33
  -4   0  10   61.36    2.52
  -4   0  10   65.75    2.00
   4   0 -10   66.19    2.26
   3   0 -10    0.28    0.61
  -3   0  10   -0.03    0.91
   3   0 -10   -0.26    0.66
   3   0 -10   -0.29    0.61
  -3   0  10   -0.20    0.47
  -3   0  10    0.47    0.64
  -3   0  10    0.80    0.72
   2   0 -10   85.60    2.56
  -2   0  10   86.75    2.63
  -2   0  10   84.34    2.47
  -2   0  10   82.54    2.34
   2   0 -10   84.71    2.60
   2   0 -10   86.29    2.56
  -2   0  10   80.06    2.86
  -1   0  10   44.85    2.08
  -1   0  10   42.94    1.59
  -1   0  10   44.41    1.44
   1   0 -10   45.80    1.68
  -1   0  10   46.13    1.76
   1   0 -10   44.38    1.71
   1   0 -10   43.34    1.75
   0   0  10    2.05    0.47
   0   0 -10    1.59    0.65
   0   0  10    2.03    0.70
   0   0 -10    2.12    0.86
   0   0  10    1.89    1.05
  -1   0 -10    1.19    0.60
  -1   0 -10    2.08    0.75
   1   0  10    1.72    0.48
   1   0  10    1.46    1.02
   1   0  10    1.91    0.70
   2   0  10    0.77    0.72
  -2   0 -10    0.88    0.80
   2   0  10    0.21    0.58
   2   0  10    0.58    1.00
  -2   0 -10    0.12    0.61
   2   0  10    0.17    0.47
  -3   0 -10    0.52    0.63
   3   0  10    0.92    0.66
  -3   0 -10   -0.05    0.84
   3   0  10    0.70    0.51
   3   0  10    0.34    0.72
   3   0  10   -1.48    1.03
   4   0  10   45.48    1.79
  -4   0 -10   44.01    1.71
  -4   0 -10   43.89    2.09
   4   0  10   44.21    1.95
   4   0  10   43.66    2.33
   4   0  10   46.62    1.65
   4   0  10   45.33    1.94
   5   0  10    0.36    0.80
   5   0  10    1.25    1.23
   5   0  10    0.66    0.72
  -5   0 -10    0.27    0.62
   5   0  10    0.24    0.87
   5   0  10    0.83    0.64
  -5   0 -10    0.71    0.98
   6   0  10   60.51    2.91
  -6   0 -10   60.54    2.28
  -6   0 -10   61.44    2.69
   6   0  10   62.38    2.50
   6   0  10   59.32    2.37
   6   0  10   60.76    2.60
  -6   0 -10   62.57    2.13
   7   0  10   16.28    1.79
   7   0  10   19.69    1.85
   7   0  10   18.16    2.14
  -7   0 -10   17.49    1.74
  -7   0 -10   16.72    1.62
   8   0  10    2.71    1.40
   8   0  10    3.07    1.16
  -8   0 -10    4.13    1.41
   8   0  10    2.22    1.17
  -8   0 -10    5.48    1.27
  -9   0 -10   17.00    1.97
   9   0  10   11.97    1.92
   9   0  10   17.87    2.32
  -9   0 -10   18.58    2.44
 -12   1  10    0.38    2.44
 -11  -1  10   34.94    2.26
  11  -1 -10   31.70    3.27
 -11  -1  10   35.93    3.41
 -11  -1  10   27.25    2.17
 -11  -1  10   31.61    2.82
  11  -1 -10   32.89    2.61
  11  -1 -10   35.64    2.61
 -11   1  10   26.50    2.76
 -11   1  10   30.23    2.20
 -11   1  10   30.97    3.56
 -11   1  10   31.36    2.23
  11   1 -10   33.05    2.74
  11   1 -10   29.62    3.18
 -10  -1  10   21.41    1.96
 -10  -1  10   18.62    2.30
 -10  -1  10   18.78    1.81
  10  -1 -10   23.19    2.70
 -10  -1  10   24.67    2.93
  10  -1 -10   22.40    2.22
  10  -1 -10   21.00    2.41
 -10   1  10   20.25    2.87
 -10   1  10   17.87    2.00
 -10   1  10   14.72    1.86
  10   1 -10   20.51    2.78
 -10   1  10   17.61    1.81
  10   1 -10   18.50    2.31
  -9  -1  10    3.54    1.29
  -9  -1  10    5.34    1.13
   9  -1 -10    4.97    1.36
  -9  -1  10    4.99    1.77
   9  -1 -10    2.91    1.40
   9  -1 -10    2.41    1.41
  -9  -1  10    4.57    0.99
   9   1 -10    4.97    1.56
  -9   1  10    5.41    1.03
  -9   1  10    5.72    1.23
   9   1 -10    2.22    1.12
  -9   1  10    1.34    1.28
  -9   1  10    6.79    1.74
  -8  -1  10    9.89    1.16
   8  -1 -10   11.59    1.46
   8  -1 -10   10.08    1.42
   8  -1 -10    9.37    1.11
  -8  -1  10   10.34    1.69
  -8  -1  10    9.49    1.90
  -8  -1  10    9.57    1.00
   8  -1 -10   13.01    1.60
   8   1 -10    8.01    1.14
  -8   1  10   10.36    1.36
  -8   1  10   12.52    1.65
  -8   1  10   10.38    1.22
  -8   1  10   10.01    1.44
   8   1 -10    8.00    1.08
  -7  -1  10    9.74    1.14
   7  -1 -10    8.93    0.99
   7  -1 -10   10.29    1.36
  -7  -1  10   12.08    1.70
   7  -1 -10   13.85    1.95
  -7  -1  10   10.72    1.27
   7  -1 -10   11.97    1.32
  -7  -1  10    7.95    1.03
   7   1 -10    7.75    1.01
   7   1 -10   10.07    1.36
   7   1 -10    8.57    1.10
  -7   1  10    9.48    1.29
  -7   1  10   10.24    1.24
  -7   1  10   13.20    1.93
  -7   1  10   10.29    1.24
   6  -1 -10   24.30    1.67
  -6  -1  10   24.93    1.46
   6  -1 -10   23.79    1.73
  -6  -1  10   25.93    1.27
   6  -1 -10   23.13    1.48
  -6  -1  10   24.80    1.71
   6  -1 -10   25.58    1.42
  -6  -1  10   24.61    2.05
  -6   1  10   24.47    1.88
   6   1 -10   23.32    1.92
   6   1 -10   23.35    1.48
  -6   1  10   22.56    1.48
   6   1 -10   23.08    1.54
  -6   1  10   22.75    1.35
  -6   1  10   24.89    1.79
  -5  -1  10   17.97    1.78
  -5  -1  10   18.62    1.07
   5  -1 -10   17.21    1.37
   5  -1 -10   17.97    1.45
  -5  -1  10   19.56    1.29
  -5  -1  10   20.13    1.81
   5  -1 -10   20.35    1.46
   5  -1 -10   19.14    0.90
   5  -1 -10   19.93    1.14
  -5   1  10   17.76    1.73
   5   1 -10   19.28    1.67
  -5   1  10   17.90    1.24
   5   1 -10   17.92    1.33
   5   1 -10   16.70    1.39
  -5   1  10   18.28    1.56
  -5   1  10   17.61    1.32
   4  -1 -10   51.61    1.95
   4  -1 -10   50.64    1.65
  -4  -1  10   53.77    2.01
   4  -1 -10   52.87    1.90
   4  -1 -10   49.68    2.03
   4  -1 -10   52.38    1.94
  -4  -1  10   53.83    1.84
  -4  -1  10   52.21    1.62
  -4  -1  10   52.39    2.35
   4   1 -10   51.56    1.58
  -4   1  10   52.86    1.93
  -4   1  10   50.13    2.22
  -4   1  10   50.29    2.08
  -4   1  10   51.13    1.76
   4   1 -10   50.76    2.11
   4   1 -10   52.85    1.92
   4   1 -10   53.44    1.92
  -3  -1  10   20.90    0.95
  -3  -1  10   20.88    1.30
   3  -1 -10   21.35    1.34
  -3  -1  10   21.70    1.15
   3  -1 -10   23.11    1.27
   3  -1 -10   22.74    1.25
  -3  -1  10   20.23    1.61
  -3   1  10   22.96    1.62
   3   1 -10   20.40    1.29
  -3   1  10   21.90    1.29
   3   1 -10   21.97    1.21
  -3   1  10   23.20    1.86
  -3   1  10   22.20    1.14
  -2  -1  10   72.03    2.11
   2  -1 -10   70.49    2.30
  -2  -1  10   68.26    2.63
  -2  -1  10   72.27    1.96
   2  -1 -10   71.32    2.30
   2  -1 -10   66.47    2.27
  -2  -1  10   72.54    2.23
  -2   1  10   71.02    2.61
   2   1 -10   75.13    2.28
  -2   1  10   70.65    2.42
  -2   1  10   73.74    2.29
  -2   1  10   72.51    2.16
   2   1 -10   71.21    2.27
   1  -1 -10   59.61    2.03
   1  -1 -10   60.51    1.94
  -1  -1  10   54.81    2.30
  -1  -1  10   57.87    1.80
  -1  -1  10   56.30    1.73
   1  -1 -10   61.34    2.10
  -1  -1  10   59.11    1.96
  -1   1  10   57.02    2.32
  -1   1  10   59.25    1.94
  -1   1  10   56.09    1.75
   1   1 -10   56.35    1.99
  -1   1  10   60.13    2.16
  -1   1  10   59.85    1.84
   1   1 -10   59.18    2.08
  -1   1  10   55.75    1.56
   0  -1 -10   10.46    0.91
   0  -1  10   10.02    0.67
   0  -1  10   10.11    1.01
   0  -1 -10    9.36    1.09
   0  -1  10   11.08    1.51
   0  -1 -10   10.92    1.23
   0   1 -10   10.79    1.25
   0   1  10   10.65    0.75
   0   1 -10   11.23    1.09
   0   1  10    9.64    0.89
   0   1  10   11.64    1.23
   0   1  10   11.16    1.43
   1  -1  10  135.23    3.51
  -1  -1 -10  139.12    3.75
  -1  -1 -10  139.67    3.96
   1  -1  10  137.99    4.20
   1  -1  10  135.10    3.73
  -1  -1 -10  145.21    3.60
   1   1  10  137.83    4.10
  -1   1 -10  135.50    3.76
  -1   1 -10  136.05    3.93
   1   1  10  141.41    3.61
   1   1  10  137.11    3.50
   1   1  10  139.53    3.89
   2  -1  10   30.25    1.40
  -2  -1 -10   28.94    1.43
   2  -1  10   28.81    1.93
   2  -1  10   27.19    1.07
   2  -1  10   30.98    1.57
  -2  -1 -10   27.86    1.68
  -2   1 -10   30.70    1.73
   2   1  10   30.57    1.65
  -2   1 -10   30.51    1.47
   2   1  10   31.15    1.89
   2   1  10   29.02    1.15
   2   1  10   28.81    1.30
   2   1  10   29.93    1.03
  -3  -1 -10    6.74    1.10
   3  -1  10    8.08    0.91
   3  -1  10    8.94    1.33
   3  -1  10    7.50    0.76
  -3  -1 -10    7.38    0.85
   3  -1  10    7.09    0.98
   3   1  10    6.60    1.27
  -3   1 -10    8.44    1.07
   3   1  10    8.52    1.08
   3   1  10    7.06    0.93
  -3   1 -10    7.74    1.16
   3   1  10    6.44    0.68
   4  -1  10   15.17    1.23
   4  -1  10   15.82    2.00
   4  -1  10   15.18    0.96
  -4  -1 -10   13.09    1.19
   4  -1  10   15.05    1.84
  -4  -1 -10   11.63    1.54
   4   1  10   13.59    1.08
   4   1  10   16.36    1.16
  -4   1 -10   15.08    1.20
   4   1  10   13.29    1.43
  -4   1 -10   15.31    1.48
   4   1  10   15.03    1.71
   4   1  10   13.74    1.23
   5  -1  10   23.26    1.57
   5  -1  10   25.52    1.87
  -5  -1 -10   24.40    1.73
   5  -1  10   26.92    2.12
  -5  -1 -10   25.06    1.37
   5  -1  10   24.28    1.70
  -5   1 -10   24.69    1.40
  -5   1 -10   24.94    1.90
   5   1  10   28.09    2.13
   5   1  10   25.88    1.63
  -5   1 -10   26.64    1.41
   5   1  10   25.06    1.41
   5   1  10   24.35    1.41
   5   1  10   26.91    1.75
   6  -1  10   20.04    2.18
   6  -1  10   16.60    1.69
   6  -1  10   18.78    1.95
  -6  -1 -10   17.71    1.27
  -6  -1 -10   18.07    1.49
   6  -1  10   14.96    1.57
  -6  -1 -10   16.86    1.82
   6   1  10   14.77    1.48
   6   1  10   15.95    1.73
  -6   1 -10   18.22    1.29
  -6   1 -10   15.53    1.45
   6   1  10   15.16    1.33
   6   1  10   14.44    1.77
  -6   1 -10   14.04    1.80
  -7  -1 -10    2.09    1.26
  -7  -1 -10    2.58    1.04
   7  -1  10    3.16    1.22
   7  -1  10    3.08    1.45
   7  -1  10    2.28    1.03
   7   1  10    2.05    0.90
  -7   1 -10    3.48    1.05
  -7   1 -10    2.28    1.23
  -7   1 -10    2.29    1.01
   7   1  10    3.52    1.21
   7   1  10    1.91    1.11
  -8  -1 -10   15.09    1.86
   8  -1  10   12.13    1.73
   8  -1  10   15.06    1.55
  -8  -1 -10   14.31    1.71
   8   1  10   10.95    1.53
  -8   1 -10   12.13    1.66
   9  -1  10    0.90    1.37
  -9  -1 -10    3.56    1.40
  -9  -1 -10    5.26    1.71
   9  -1  10    3.97    1.78
  -9   1 -10    4.39    1.53
  10  -1  10   10.43    2.02
 -10  -1 -10   17.76    2.07
  10  -1  10   11.07    1.72
 -11  -2  10   31.51    2.26
  11  -2 -10   29.52    2.60
 -11  -2  10   26.11    2.78
 -11  -2  10   33.43    3.17
  11  -2 -10   31.83    3.15
 -11  -2  10   29.39    2.04
  11   2 -10   26.88    2.64
 -11   2  10   30.21    2.08
 -11   2  10   34.57    2.82
  11   2 -10   34.65    3.15
  10  -2 -10   34.00    2.80
 -10  -2  10   34.72    3.32
 -10  -2  10   36.50    2.29
 -10  -2  10   31.62    2.65
  10  -2 -10   33.17    2.54
  10  -2 -10   39.84    2.33
 -10  -2  10   32.17    2.00
 -10   2  10   35.94    3.02
  10   2 -10   32.74    3.27
 -10   2  10   29.72    2.28
  10   2 -10   28.63    2.49
 -10   2  10   25.72    2.75
 -10   2  10   32.32    2.09
  -9  -2  10    7.13    1.25
  -9  -2  10    5.64    1.04
   9  -2 -10    4.83    1.37
   9  -2 -10    5.32    1.15
  -9  -2  10    3.49    1.22
   9  -2 -10    4.41    1.51
  -9  -2  10    6.75    1.75
   9   2 -10    3.73    1.32
  -9   2  10    4.03    1.01
  -9   2  10    5.48    1.58
   9   2 -10    4.39    1.61
  -9   2  10    3.49    1.28
  -8  -2  10   24.55    1.54
  -8  -2  10   29.35    1.75
   8  -2 -10   26.38    2.24
  -8  -2  10   28.23    2.54
   8  -2 -10   25.30    1.84
   8  -2 -10   28.00    1.84
   8  -2 -10   27.28    2.04
  -8  -2  10   27.31    1.94
  -8   2  10   25.89    2.44
  -8   2  10   28.80    2.20
   8   2 -10   26.63    2.44
   8   2 -10   24.87    1.80
  -8   2  10   26.83    1.65
   8   2 -10   24.61    2.01
  -8   2  10   26.65    1.82
  -7  -2  10   10.34    1.21
   7  -2 -10   11.41    1.39
  -7  -2  10    9.66    2.17
  -7  -2  10    9.79    1.14
   7  -2 -10    9.27    1.09
   7  -2 -10   11.48    1.27
   7  -2 -10   10.18    1.38
  -7  -2  10   13.00    1.30
   7   2 -10   10.70    1.45
  -7   2  10   11.58    1.34
  -7   2  10   12.14    1.50
   7   2 -10   10.35    1.56
  -7   2  10   11.95    1.76
   7   2 -10   11.06    1.66
  -7   2  10   11.26    1.38
   6  -2 -10   15.82    1.43
  -6  -2  10   16.41    1.04
  -6  -2  10   14.79    1.25
   6  -2 -10   15.42    1.54
   6  -2 -10   15.16    1.20
  -6  -2  10   18.06    1.94
   6  -2 -10   15.11    1.59
  -6  -2  10   15.18    1.52
  -6   2  10   15.13    1.27
   6   2 -10   13.77    1.54
   6   2 -10   16.11    1.85
  -6   2  10   15.41    1.80
   6   2 -10   14.19    1.43
  -6   2  10   14.59    1.28
  -6   2  10   18.77    1.74
   5  -2 -10   18.41    1.53
  -5  -2  10   16.74    1.86
  -5  -2  10   19.26    1.19
  -5  -2  10   19.13    0.99
   5  -2 -10   20.80    1.47
   5  -2 -10   20.74    1.35
  -5  -2  10   17.63    1.39
   5  -2 -10   19.11    1.26
   5   2 -10   19.67    1.49
  -5   2  10   18.81    1.68
  -5   2  10   17.93    1.37
  -5   2  10   18.85    1.27
  -5   2  10   19.20    1.65
   5   2 -10   17.99    1.39
   5   2 -10   17.96    1.71
   4  -2 -10   11.28    1.13
  -4  -2  10   10.07    1.33
  -4  -2  10   13.19    1.15
   4  -2 -10   11.92    1.36
   4  -2 -10   10.31    1.29
  -4  -2  10   10.42    1.01
   4  -2 -10   12.71    1.28
   4  -2 -10   12.02    0.60
  -4  -2  10   11.89    0.74
  -4   2  10   11.46    1.08
  -4   2  10   11.50    1.22
   4   2 -10    8.70    0.79
   4   2 -10   11.81    1.46
   4   2 -10    9.31    1.22
  -4   2  10   10.77    1.43
  -4   2  10   10.86    1.48
   4   2 -10   10.70    1.25
  -3  -2  10    7.98    0.99
  -3  -2  10    8.48    0.51
   3  -2 -10    8.69    1.05
   3  -2 -10    9.82    1.14
  -3  -2  10   10.54    1.53
   3  -2 -10   10.19    1.20
  -3  -2  10    8.95    0.88
  -3   2  10    8.33    1.02
  -3   2  10   10.01    1.35
  -3   2  10    9.99    1.38
  -3   2  10    9.16    1.01
   3   2 -10   10.90    1.09
   3   2 -10    8.15    0.94
  -2  -2  10   51.32    2.29
   2  -2 -10   51.98    1.93
  -2  -2  10   51.36    1.40
  -2  -2  10   50.58    1.62
  -2  -2  10   52.64    1.74
   2  -2 -10   49.75    1.93
   2  -2 -10   50.41    1.92
   2   2 -10   51.32    1.89
  -2   2  10   52.69    1.93
   2   2 -10   51.21    1.96
  -2   2  10   53.18    2.11
  -2   2  10   53.28    2.16
  -2   2  10   51.42    1.80
   1  -2 -10    3.65    0.72
  -1  -2  10    3.69    0.35
  -1  -2  10    4.61    0.55
   1  -2 -10    4.80    0.75
  -1  -2  10    3.90    0.62
  -1  -2  10    3.94    1.04
   1  -2 -10    4.95    0.91
   1   2 -10    4.04    0.84
  -1   2  10    3.58    0.86
  -1   2  10    3.74    0.65
  -1   2  10    5.23    1.03
  -1   2  10    4.44    0.83
   1   2 -10    3.42    0.76
   0  -2  10    1.42    0.24
   0  -2 -10    1.71    0.71
   0  -2 -10    2.78    1.03
   0  -2  10    1.83    0.99
   0  -2  10    1.91    0.68
   0  -2 -10    2.52    0.62
   0   2 -10    2.38    0.89
   0   2  10    1.59    0.22
   0   2 -10    1.76    0.67
   0   2  10    1.32    0.58
   0   2  10    1.53    0.99
   0   2  10    1.73    0.87
  -1  -2 -10  151.32    3.79
  -1  -2 -10  147.11    4.19
   1  -2  10  144.58    3.81
   1  -2  10  142.51    3.54
   1  -2  10  146.39    4.44
  -1  -2 -10  147.72    4.00
  -1   2 -10  145.96    4.01
   1   2  10  145.28    4.37
   1   2  10  146.81    3.88
  -1   2 -10  148.29    4.22
   1   2  10  147.88    3.49
   1   2  10  147.98    4.19
  -2  -2 -10   66.20    2.53
   2  -2  10   67.13    1.78
   2  -2  10   68.45    2.09
  -2  -2 -10   68.39    2.30
   2  -2  10   67.37    2.77
  -2  -2 -10   67.85    1.88
  -2   2 -10   67.63    2.25
  -2   2 -10   66.11    2.46
   2   2  10   64.49    2.45
   2   2  10   68.29    2.15
   2   2  10   68.56    2.66
   2   2  10   66.96    1.77
   3  -2  10   53.41    1.85
  -3  -2 -10   52.65    1.96
  -3  -2 -10   49.63    2.28
   3  -2  10   55.59    1.75
   3  -2  10   58.58    2.32
   3  -2  10   55.28    2.56
   3   2  10   53.77    2.38
   3   2  10   52.72    1.56
   3   2  10   50.23    1.53
   3   2  10   51.47    1.88
   3   2  10   50.02    2.25
  -3   2 -10   54.64    1.97
  -3   2 -10   52.66    2.34
   4  -2  10    9.88    1.13
   4  -2  10    8.23    1.17
  -4  -2 -10   11.67    1.15
   4  -2  10   10.70    1.50
  -4  -2 -10   11.51    1.55
   4   2  10    9.56    1.45
   4   2  10    7.72    0.88
  -4   2 -10    9.11    1.23
   4   2  10    9.45    0.81
  -4   2 -10   10.46    1.17
  -4   2 -10    9.81    0.92
   4   2  10   12.11    1.55
  -5  -2 -10   10.67    1.22
   5  -2  10    9.39    1.29
   5  -2  10   10.82    1.11
   5  -2  10   11.12    1.60
  -5   2 -10    8.91    1.19
   5   2  10    9.24    1.29
  -5   2 -10    9.87    1.08
   5   2  10    9.37    1.18
  -6  -2 -10    3.93    0.77
   6  -2  10    3.93    1.43
  -6  -2 -10    2.70    1.15
   6  -2  10    2.53    1.27
   6  -2  10    1.86    1.08
  -6   2 -10    2.77    1.13
   6   2  10    3.46    0.87
  -6   2 -10    2.57    0.76
   6   2  10    2.37    1.13
  -7  -2 -10   12.60    1.62
   7  -2  10   11.98    1.39
  -7  -2 -10   14.53    1.72
   7  -2  10   12.11    1.55
   7   2  10   12.32    1.20
   7   2  10   14.59    1.71
  -7   2 -10   12.59    1.58
   8  -2  10    4.62    1.41
  -8  -2 -10    5.68    1.56
   8  -2  10    5.48    1.52
  -8  -2 -10    5.36    1.32
   8   2  10    4.97    1.45
  -8   2 -10    5.46    1.62
  -9  -2 -10   11.60    1.59
  -9  -2 -10   11.48    1.90
   9  -2  10   10.48    1.96
   9  -2  10    7.88    1.65
  -9   2 -10    9.45    1.69
   9   2  10    7.84    1.82
 -11  -3  10   -1.30    1.45
 -11  -3  10    3.94    1.55
  10  -3 -10   12.30    1.91
 -10  -3  10   17.07    1.66
 -10  -3  10   17.07    1.93
 -10  -3  10   12.56    2.33
 -10  -3  10   11.90    1.74
  10  -3 -10   12.23    1.70
 -10   3  10   12.52    1.75
  10   3 -10   15.76    2.30
 -10   3  10   14.57    2.13
  10   3 -10   13.19    1.79
 -10   3  10   10.87    1.47
  -9  -3  10    3.92    1.11
  -9  -3  10    4.86    1.92
  -9  -3  10    2.78    1.27
   9  -3 -10    3.04    1.47
  -9  -3  10    4.87    1.20
   9  -3 -10    5.42    1.56
   9   3 -10    1.37    1.75
  -9   3  10    3.36    1.34
  -9   3  10    4.07    1.55
  -9   3  10    1.72    1.04
   9   3 -10    2.40    1.37
  -8  -3  10   15.75    1.63
  -8  -3  10   16.98    1.36
  -8  -3  10   18.89    2.44
   8  -3 -10   16.63    2.04
   8  -3 -10   14.61    1.85
  -8  -3  10   14.21    1.83
   8  -3 -10   14.87    2.11
  -8   3  10   17.07    1.79
  -8   3  10   17.26    2.18
   8   3 -10   13.24    1.96
  -8   3  10   16.43    1.59
  -8   3  10   17.14    2.12
   8   3 -10   14.51    1.83
   8   3 -10   17.02    1.78
  -7  -3  10   19.78    1.70
   7  -3 -10   21.18    1.96
  -7  -3  10   21.35    1.46
  -7  -3  10   20.34    1.28
   7  -3 -10   22.83    1.84
  -7  -3  10   19.66    2.29
   7  -3 -10   19.37    1.78
   7   3 -10   17.77    1.69
  -7   3  10   21.08    1.74
  -7   3  10   22.75    2.02
  -7   3  10   20.87    1.99
   7   3 -10   19.24    2.21
   7   3 -10   18.34    2.24
  -7   3  10   21.71    1.55
   6  -3 -10   14.68    1.62
  -6  -3  10   13.24    0.99
   6  -3 -10   12.24    1.50
   6  -3 -10   10.66    2.15
  -6  -3  10   12.20    1.23
   6  -3 -10   15.65    1.52
  -6  -3  10   15.64    1.47
   6  -3 -10   14.00    1.58
  -6   3  10   12.49    1.32
   6   3 -10   13.50    1.53
   6   3 -10   10.93    1.40
   6   3 -10   15.68    1.66
  -6   3  10   17.67    1.76
  -5  -3  10    0.48    0.73
   5  -3 -10    1.19    0.68
  -5  -3  10    0.99    0.64
   5  -3 -10    1.44    0.85
   5  -3 -10    1.95    1.00
  -5  -3  10    1.20    0.46
   5  -3 -10    1.16    0.87
  -5  -3  10    1.79    1.23
  -5   3  10    1.99    0.78
   5   3 -10    1.15    1.12
   5   3 -10   -0.48    0.80
  -5   3  10    0.47    0.87
   5   3 -10    0.86    0.90
  -5   3  10    1.36    0.95
  -5   3  10    1.96    1.08
   4  -3 -10    2.84    0.88
   4  -3 -10    1.76    0.39
  -4  -3  10    3.75    0.69
  -4  -3  10    3.06    1.14
   4  -3 -10    2.85    0.88
   4  -3 -10    2.89    0.99
  -4  -3  10    2.74    0.30
  -4  -3  10    3.05    0.61
  -4   3  10    2.98    0.75
  -4   3  10    4.07    1.06
   4   3 -10    2.81    0.81
  -4   3  10    2.20    1.01
  -4   3  10    2.95    0.88
   3  -3 -10   23.50    1.56
  -3  -3  10   21.38    1.70
  -3  -3  10   23.15    1.14
  -3  -3  10   22.10    0.71
   3  -3 -10   21.06    1.46
   3  -3 -10   24.51    1.52
  -3  -3  10   24.05    1.06
   3   3 -10   22.49    1.48
   3   3 -10   22.23    1.40
  -3   3  10   20.80    1.31
  -3   3  10   22.47    1.55
  -3   3  10   21.65    1.62
  -3   3  10   22.69    1.35
   2  -3 -10   27.86    1.50
   2  -3 -10   28.74    1.62
   2  -3 -10   26.45    1.54
  -2  -3  10   26.14    0.72
  -2  -3  10   26.72    1.87
  -2  -3  10   25.40    0.99
  -2   3  10   25.48    1.61
   2   3 -10   25.35    1.54
  -2   3  10   27.45    1.68
   2   3 -10   27.39    1.53
  -2   3  10   26.19    1.40
  -2   3  10   25.44    1.46
   1  -3 -10   38.72    1.73
   1  -3 -10   39.78    1.68
  -1  -3  10   38.49    1.14
   1  -3 -10   39.03    1.89
  -1  -3  10   39.07    2.14
  -1  -3  10   39.31    1.24
  -1   3  10   37.63    1.90
  -1   3  10   37.16    1.67
   1   3 -10   40.67    1.83
  -1   3  10   39.59    1.98
  -1   3  10   38.97    1.60
   1   3 -10   38.95    1.73
   0  -3 -10   18.66    1.35
   0  -3 -10   16.89    1.19
   0  -3  10   17.90    0.78
   0  -3  10   19.84    1.64
   0  -3 -10   20.03    1.54
   0   3 -10   19.13    1.53
   0   3 -10   19.11    1.37
   0   3  10   22.17    1.62
   0   3  10   19.92    1.60
   0   3  10   20.00    1.28
  -1  -3 -10    8.15    1.15
  -1  -3 -10    7.71    0.91
  -1  -3 -10    6.76    0.87
   1  -3  10    8.97    1.34
   1  -3  10    9.30    0.59
   1   3  10   10.95    1.21
  -1   3 -10   10.81    1.26
  -1   3 -10    8.27    0.96
   1   3  10   10.69    1.28
   1   3  10    9.27    0.91
  -2  -3 -10   12.17    0.88
   2  -3  10   10.99    0.67
   2  -3  10   11.76    1.49
  -2  -3 -10    9.98    1.23
  -2  -3 -10   11.46    1.52
  -2   3 -10   11.90    1.35
   2   3  10   12.60    1.16
  -2   3 -10   11.18    1.13
   2   3  10   12.20    1.49
   2   3  10   13.69    1.53
   3  -3  10   26.66    1.36
  -3  -3 -10   27.13    1.50
   3  -3  10   27.86    2.12
   3  -3  10   30.18    2.00
  -3  -3 -10   26.36    0.90
  -3  -3 -10   28.31    1.93
  -3   3 -10   26.84    1.79
  -3   3 -10   28.89    1.54
   3   3  10   27.98    2.03
   3   3  10   26.70    1.88
   3   3  10   30.23    1.49
   4  -3  10   16.56    1.95
   4  -3  10   16.38    1.15
  -4  -3 -10   15.75    1.84
  -4  -3 -10   16.66    1.36
   4  -3  10   16.45    1.94
  -4   3 -10   17.14    1.34
  -4   3 -10   18.88    1.87
   4   3  10   18.85    1.36
   4   3  10   17.79    1.79
   5  -3  10    2.00    1.75
  -5  -3 -10    3.95    0.83
   5  -3  10    3.32    1.25
  -5  -3 -10    2.18    1.13
   5   3  10    3.23    1.21
   5   3  10    4.16    0.89
  -5   3 -10    2.45    1.14
  -5   3 -10    2.70    0.79
   6  -3  10   22.17    2.44
   6  -3  10   23.77    2.36
  -6  -3 -10   24.05    2.10
  -6  -3 -10   24.62    1.57
   6   3  10   23.94    2.04
   6   3  10   22.92    1.63
  -6   3 -10   24.24    2.17
  -6   3 -10   24.15    1.55
  -7  -3 -10   19.34    1.93
   7  -3  10   16.66    2.19
  -7  -3 -10   17.96    2.32
   7  -3  10   23.55    2.46
   7  -3  10   17.76    2.53
   7   3  10   18.31    2.32
   7   3  10   18.81    1.77
  -7   3 -10   20.98    2.24
   8  -3  10   15.05    1.70
  -8  -3 -10   15.43    1.98
   8  -3  10   12.80    1.87
  -8  -3 -10   18.10    2.42
  -8   3 -10   12.98    1.84
   8   3  10   14.29    1.83
   8   3  10   18.80    2.52
  -9  -3 -10    3.24    1.59
  -9  -3 -10    1.88    1.34
   9  -3  10    2.08    1.61
   9  -3  10    1.57    1.89
   9   3  10    0.80    1.70
  -9   3 -10    1.05    1.51
 -10  -4  10    5.21    1.25
 -10  -4  10    4.88    2.37
  10  -4 -10    2.30    1.64
  10   4 -10    2.59    1.33
 -10   4  10    2.11    1.39
 -10   4  10   -0.59    2.17
 -10   4  10    3.17    1.41
  10   4 -10    2.93    1.77
  -9  -4  10   12.06    1.81
   9  -4 -10   13.84    1.96
  -9  -4  10   11.99    2.24
  -9  -4  10   10.35    1.35
   9   4 -10    9.06    1.57
  -9   4  10   10.93    1.89
   9   4 -10    9.40    1.98
  -9   4  10    9.84    1.33
  -9   4  10   13.72    1.74
   8  -4 -10   19.20    2.21
  -8  -4  10   23.38    1.74
   8  -4 -10   24.16    2.37
  -8  -4  10   19.63    2.69
  -8  -4  10   19.75    1.86
   8   4 -10   23.46    2.50
  -8   4  10   22.85    2.51
   8   4 -10   24.22    2.25
  -8   4  10   21.57    2.03
   8   4 -10   23.93    2.66
  -8   4  10   20.24    1.84
  -7  -4  10  103.29    3.16
   7  -4 -10  104.83    3.65
   7  -4 -10  100.06    3.79
  -7  -4  10   99.13    3.27
  -7  -4  10  103.17    4.05
  -7   4  10   97.00    3.21
   7   4 -10  103.92    3.35
  -7   4  10   98.38    3.42
   7   4 -10  102.83    3.60
   7   4 -10  106.05    3.93
  -7   4  10   99.57    3.72
   6  -4 -10    1.65    1.13
  -6  -4  10    1.58    1.31
  -6  -4  10    2.12    0.78
   6  -4 -10    3.21    1.06
   6  -4 -10    0.35    1.01
  -6  -4  10    1.26    0.89
   6   4 -10    1.06    1.11
   6   4 -10    2.34    1.44
  -6   4  10    1.93    1.06
   6   4 -10    0.89    0.97
  -6   4  10    2.05    1.18
  -6   4  10    1.11    0.86
   5  -4 -10   14.28    1.67
  -5  -4  10   11.99    1.19
   5  -4 -10   11.74    1.61
  -5  -4  10   13.19    1.12
  -5   4  10    9.45    1.93
   5   4 -10   11.09    1.53
   5   4 -10    9.30    1.27
  -5   4  10   11.27    1.56
  -5   4  10   10.43    1.99
  -4  -4  10   51.47    2.61
  -4  -4  10   47.90    1.67
   4  -4 -10   50.53    2.23
   4  -4 -10   50.58    2.23
  -4  -4  10   50.63    1.75
   4  -4 -10   51.72    2.12
  -4   4  10   47.80    2.35
  -4   4  10   47.28    1.95
   4   4 -10   49.49    2.15
  -4   4  10   46.28    2.13
  -4   4  10   50.00    2.10
  -3  -4  10   15.31    1.85
   3  -4 -10   12.90    1.60
   3  -4 -10   13.09    1.49
  -3  -4  10   12.81    0.87
  -3   4  10   11.56    1.29
   3   4 -10   12.30    1.44
  -3   4  10   11.00    1.47
  -3   4  10   12.77    1.24
  -3   4  10   14.66    1.60
   2  -4 -10   15.34    1.40
  -2  -4  10   18.43    0.64
   2  -4 -10   17.06    1.61
  -2  -4  10   18.36    1.83
  -2   4  10   17.82    1.31
  -2   4  10   17.66    1.64
   2   4 -10   18.10    1.51
   2   4 -10   18.34    1.61
  -2   4  10   17.11    1.55
  -2   4  10   17.64    1.42
   1  -4 -10   17.22    1.33
  -1  -4  10   18.39    1.85
   1  -4 -10   18.90    1.64
   1   4 -10   18.78    1.48
  -1   4  10   18.24    1.29
  -1   4  10   16.30    1.53
   1   4 -10   18.36    1.59
  -1   4  10   16.72    1.55
   0  -4 -10   45.09    1.81
   0  -4 -10   46.83    2.20
   0  -4  10   43.07    2.32
   0   4 -10   41.75    1.92
   0   4  10   45.51    2.05
   0   4 -10   46.01    2.19
   0   4  10   45.03    2.22
   0   4  10   43.09    1.79
  -1  -4 -10   15.12    1.40
  -1  -4 -10   16.25    1.71
  -1  -4 -10   13.77    1.17
   1  -4  10   14.13    1.87
   1   4  10   16.04    1.63
   1   4  10   15.08    1.27
  -1   4 -10   15.85    1.42
  -1   4 -10   15.69    1.84
   1   4  10   15.54    1.64
   2  -4  10    1.68    1.15
  -2  -4 -10    1.41    0.65
  -2  -4 -10    0.84    0.76
  -2  -4 -10    1.94    1.06
   2  -4  10    0.89    0.79
   2   4  10    1.77    1.09
  -2   4 -10    2.50    1.13
  -2   4 -10    1.19    0.82
   2   4  10    2.34    0.77
   2   4  10    0.78    1.12
   3  -4  10    8.37    1.42
  -3  -4 -10    8.47    1.00
   3  -4  10    8.87    0.98
   3  -4  10    6.04    1.22
   3   4  10    7.84    1.02
  -3   4 -10    9.14    1.45
  -3   4 -10    8.54    1.01
   3   4  10    7.80    1.87
   4  -4  10    8.51    1.59
  -4  -4 -10    6.93    1.01
   4  -4  10    9.07    0.98
  -4  -4 -10    4.95    1.28
   4   4  10    7.28    1.01
  -4   4 -10    6.99    0.98
   4   4  10    6.37    1.31
  -4   4 -10    4.32    1.34
  -5  -4 -10    2.71    0.89
   5  -4  10    0.59    1.28
  -5  -4 -10    2.63    1.36
   5  -4  10    2.78    1.46
  -5   4 -10    3.10    0.87
   5   4  10    4.76    1.07
   5   4  10    1.57    1.27
  -5   4 -10    2.84    1.39
  -6  -4 -10   13.18    1.70
   6  -4  10   16.51    2.35
   6  -4  10   13.41    1.75
  -6  -4 -10   11.49    1.53
   6   4  10   16.36    2.16
  -6   4 -10   17.04    1.95
   6   4  10   15.24    1.67
  -7  -4 -10   16.74    2.03
   7  -4  10   15.74    1.79
  -7  -4 -10   23.51    3.03
   7  -4  10   12.86    2.01
   7  -4  10   18.67    2.55
  -7   4 -10   21.25    2.53
   7   4  10   19.49    1.89
   7   4  10   21.74    2.54
  -8  -4 -10    2.52    1.78
   8  -4  10   -1.48    1.43
   8  -4  10    0.83    1.78
  -8  -4 -10    1.68    1.27
  -8   4 -10    2.75    1.66
   8   4  10   -0.07    1.50
   8   4  10    1.05    1.18
   9  -5 -10    5.91    1.63
  -9  -5  10    9.85    2.15
   9   5 -10    5.79    1.90
  -9   5  10    8.37    1.72
  -9   5  10    8.04    1.94
  -9   5  10    7.49    1.22
   9   5 -10    6.88    1.65
  -8  -5  10    4.63    1.83
   8  -5 -10   -1.95    1.23
  -8  -5  10    2.94    1.33
   8  -5 -10    1.38    1.52
  -8   5  10    1.03    1.47
  -8   5  10    0.90    1.60
   8   5 -10    1.39    1.71
  -8   5  10    1.00    1.06
   8   5 -10    0.89    1.78
   8   5 -10    0.04    1.50
   7  -5 -10   11.75    1.70
   7  -5 -10   17.57    2.10
  -7  -5  10   15.09    2.00
  -7   5  10   12.85    1.86
   7   5 -10    9.92    1.87
  -7   5  10   16.00    1.71
   7   5 -10   14.72    1.95
  -7   5  10   15.23    1.99
   7   5 -10    9.86    1.85
   6  -5 -10   16.10    1.92
   6  -5 -10   10.57    1.48
   6  -5 -10    9.81    1.32
  -6  -5  10   14.83    1.94
  -6   5  10   12.63    1.54
  -6   5  10   12.98    1.33
  -6   5  10   13.17    1.79
   6   5 -10   10.68    1.34
  -5  -5  10   20.84    2.32
   5  -5 -10   17.84    1.86
   5  -5 -10   22.18    2.13
  -5   5  10   19.22    2.07
  -5   5  10   19.90    1.61
   5   5 -10   18.06    1.86
  -5   5  10   19.41    1.54
   4  -5 -10    4.38    1.14
   4  -5 -10    3.27    1.29
  -4  -5  10    5.66    1.51
  -4   5  10    4.92    0.95
  -4   5  10    5.56    1.08
  -4   5  10    3.40    1.24
   3  -5 -10   16.56    1.88
  -3  -5  10   15.78    2.06
   3  -5 -10   17.87    1.66
   3   5 -10   14.09    2.18
  -3   5  10   14.91    1.77
  -3   5  10   15.27    1.96
  -3   5  10   16.41    1.51
  -2  -5  10   13.06    1.87
   2  -5 -10   11.38    1.53
   2  -5 -10   12.87    1.74
  -2   5  10   13.38    1.97
   2   5 -10   11.05    1.69
   1  -5 -10   54.10    2.46
  -1  -5  10   54.39    2.63
   1  -5 -10   54.55    2.17
  -1   5  10   55.52    2.27
  -1   5  10   56.77    2.12
   1   5 -10   55.64    2.42
   1   5 -10   57.94    2.49
  -1   5  10   56.84    2.61
   0  -5  10    5.55    1.30
   0  -5 -10    8.06    1.38
   0  -5 -10    4.89    0.97
   0   5  10    6.26    1.29
   0   5  10    8.06    1.16
   0   5 -10    4.32    1.28
   0   5  10    4.80    1.71
   0   5 -10    6.37    1.44
  -1  -5 -10   32.89    1.65
   1  -5  10   31.89    1.86
   1  -5  10   28.01    2.16
   1   5  10   28.12    2.80
   1   5  10   29.66    2.24
  -1   5 -10   30.01    2.10
  -2  -5 -10   12.09    1.53
   2  -5  10   10.53    1.48
   2  -5  10   13.06    1.88
  -2  -5 -10   11.86    1.27
   2   5  10   13.37    1.42
   2   5  10   11.46    1.48
  -2   5 -10   13.18    1.90
   3  -5  10   19.78    1.69
  -3  -5 -10   18.83    2.01
   3  -5  10   17.96    1.81
   3  -5  10   18.56    2.46
   3   5  10   18.20    2.02
  -3   5 -10   19.24    1.62
   3   5  10   19.91    1.55
  -3   5 -10   18.59    2.12
   4  -5  10    9.01    1.62
  -4  -5 -10    9.66    1.19
   4  -5  10   10.00    1.71
   4  -5  10   12.84    1.66
  -4  -5 -10    8.77    1.42
  -4   5 -10    9.21    1.58
   4   5  10    7.75    1.07
   4   5  10    9.69    1.53
  -4   5 -10    8.21    1.03
   5  -5  10   18.27    2.31
  -5  -5 -10   20.13    2.32
  -5  -5 -10   14.48    1.69
   5  -5  10   17.21    2.01
   5   5  10   19.73    2.05
  -5   5 -10   16.01    1.88
   5   5  10   17.14    1.71
  -5   5 -10   17.11    1.59
  -6  -5 -10   14.02    1.63
   6  -5  10   21.06    2.68
  -6  -5 -10   17.37    2.06
   6  -5  10   13.23    2.00
  -6   5 -10   15.55    1.65
   6   5  10   15.07    1.88
  -6   5 -10   15.82    2.02
   6   5  10   15.14    1.80
  -7  -5 -10   32.64    2.36
   7  -5  10   25.40    3.18
  -7  -5 -10   34.07    2.82
   7   5  10   33.66    2.26
   7   5  10   38.69    3.07
  -7   5 -10   35.33    2.92
   8  -6 -10    5.30    1.68
  -8  -6  10   11.91    2.15
   8  -6 -10    8.58    1.65
  -8   6  10    6.42    1.63
  -8   6  10    6.06    1.83
  -8   6  10    6.19    1.34
   8   6 -10    2.70    1.56
  -7  -6  10   11.98    2.17
   7  -6 -10    6.68    1.61
   7  -6 -10    8.67    1.57
  -7   6  10    7.44    1.35
  -7   6  10    7.80    1.59
   7   6 -10    9.56    1.62
  -7   6  10    8.73    1.92
   6  -6 -10    3.68    1.62
  -6  -6  10    3.75    1.84
   6  -6 -10    1.93    1.45
  -6   6  10    3.13    1.20
   6   6 -10    1.49    1.35
  -6   6  10    2.99    1.38
  -6   6  10    2.14    1.64
  -5  -6  10   19.80    2.50
   5  -6 -10   14.08    2.03
   5  -6 -10   19.67    2.46
   5   6 -10   16.81    2.04
  -5   6  10   18.80    1.96
  -5   6  10   17.82    1.92
  -5   6  10   14.89    1.84
   4  -6 -10   31.61    2.47
   4  -6 -10   25.91    2.18
  -4  -6  10   31.67    2.58
  -4   6  10   28.32    2.46
  -4   6  10   29.98    1.99
   4   6 -10   28.22    2.05
  -4   6  10   27.70    1.88
   3  -6 -10   22.63    2.32
  -3  -6  10   27.42    2.36
   3  -6 -10   24.05    1.93
  -3   6  10   25.84    1.89
  -3   6  10   22.35    1.73
  -3   6  10   23.35    2.18
   3   6 -10   24.36    1.98
   2  -6 -10    2.13    1.16
   2  -6 -10    0.91    1.42
  -2  -6  10    0.18    1.35
  -2   6  10    2.75    0.92
  -2   6  10   -0.45    1.19
   2   6 -10    0.47    0.98
  -1  -6  10   13.14    1.80
   1  -6 -10   15.74    1.71
   1  -6 -10   18.01    2.09
  -1   6  10   12.28    1.55
  -1   6  10   15.10    1.57
   1   6 -10   14.93    1.68
   0  -6  10   13.48    2.72
   0  -6 -10   10.51    1.54
   0  -6  10   13.50    1.78
   0  -6 -10   11.28    1.61
   0   6  10   11.98    1.28
   0   6 -10   11.68    1.61
   0   6  10   13.70    1.66
  -1  -6 -10    3.98    1.46
   1  -6  10    2.63    1.11
  -1  -6 -10    2.16    1.00
  -1   6 -10    2.43    0.96
   1   6  10    0.60    1.27
   1   6  10    2.63    1.03
   2  -6  10    1.21    1.10
  -2  -6 -10    1.16    0.93
  -2  -6 -10    1.80    1.44
   2  -6  10    2.48    1.69
  -2   6 -10    2.89    1.43
   2   6  10    1.61    1.40
  -2   6 -10    2.51    1.02
   2   6  10    2.47    0.98
   3  -6  10    6.96    1.33
   3  -6  10    6.98    1.55
   3  -6  10    6.41    1.63
  -3  -6 -10    5.06    1.64
   3   6  10    6.32    1.23
  -3   6 -10    5.61    1.68
  -3   6 -10    9.14    1.22
   3   6  10    9.46    1.73
   4  -6  10   14.49    1.96
   4  -6  10   15.76    2.02
  -4  -6 -10   12.51    1.80
   4  -6  10   11.23    1.91
  -4   6 -10   11.71    1.28
   4   6  10   13.60    1.45
   4   6  10   10.59    1.73
  -4   6 -10   10.39    1.78
   5  -6  10    5.38    1.88
  -5  -6 -10    3.46    1.54
   5  -6  10    6.01    1.70
  -5  -6 -10    2.54    1.19
   5   6  10    6.41    1.86
  -5   6 -10    4.00    1.78
  -5   6 -10    3.58    1.14
   5   6  10    3.32    1.14
   6  -6  10    8.85    1.89
   6  -6  10    4.06    1.79
  -6  -6 -10    7.31    1.83
  -6  -6 -10    6.54    1.97
   6   6  10    7.70    1.37
  -6   6 -10    7.01    1.16
   6   6  10    6.68    1.77
  -6   6 -10    4.25    1.78
  -7  -7  10    8.67    2.16
  -7   7  10    5.01    1.50
  -7   7  10    6.43    2.32
   7   7 -10    4.74    1.66
   6  -7 -10   11.92    1.85
  -6   7  10   10.57    1.54
   6   7 -10   12.83    1.69
  -6   7  10   13.96    1.81
  -6   7  10   13.27    2.13
   5  -7 -10   36.97    2.71
  -5  -7  10   48.21    3.38
   5  -7 -10   48.34    3.29
  -5   7  10   44.23    2.56
   5   7 -10   45.60    2.71
  -5   7  10   41.04    3.13
  -5   7  10   45.13    2.49
   4  -7 -10   49.16    3.02
  -4  -7  10   50.97    3.17
   4  -7 -10   43.33    2.71
  -4  -7  10   43.58    2.63
  -4   7  10   45.92    2.48
  -4   7  10   50.88    3.13
   4   7 -10   48.46    2.80
  -4   7  10   48.93    2.60
  -3  -7  10   28.24    2.66
   3  -7 -10   24.52    2.21
   3  -7 -10   24.01    2.60
  -3  -7  10   27.18    2.23
  -3   7  10   21.14    1.96
  -3   7  10   25.06    2.61
   3   7 -10   23.59    2.25
   2  -7 -10    3.79    1.32
  -2  -7  10    3.47    1.24
  -2  -7  10    5.91    1.68
  -2   7  10    5.09    1.30
   2   7 -10    4.17    1.26
  -2   7  10    3.98    1.52
  -1  -7  10   12.46    1.85
  -1  -7  10   18.80    1.98
   1  -7 -10   14.31    1.96
   1  -7 -10   14.73    1.88
  -1   7  10   15.75    1.54
   1   7 -10   15.35    1.99
  -1   7  10   14.75    1.88
   0  -7 -10    2.94    1.62
   0  -7  10    2.13    1.26
   0  -7 -10    0.31    1.12
   0  -7  10    1.45    1.55
   0   7  10    3.45    1.48
   0   7  10    1.74    1.21
   0   7 -10    2.15    1.16
   1  -7  10    2.01    1.22
  -1  -7 -10   -1.38    1.25
  -1  -7 -10   -0.71    1.57
   1  -7  10    1.40    1.46
  -1   7 -10    0.80    1.08
   1   7  10   -1.62    1.13
   1   7  10   -0.57    1.52
   2  -7  10    4.95    1.43
   2  -7  10    2.07    1.53
  -2  -7 -10    7.43    1.82
   2   7  10    5.22    1.83
   2   7  10    2.96    1.22
  -2   7 -10    5.35    1.26
  -3  -7 -10    5.46    1.75
   3  -7  10   10.51    1.63
   3  -7  10    7.74    1.72
   3  -7  10    6.41    1.68
   3   7  10    8.19    1.89
  -3   7 -10    6.52    1.27
   3   7  10    8.31    1.41
   4  -7  10   24.81    3.12
   4  -7  10   33.61    2.58
  -4  -7 -10   33.21    2.87
   4   7  10   26.25    2.19
  -4   7 -10   25.42    2.12
   4   7  10   24.91    3.03
   5  -7  10    1.76    2.94
  -5  -7 -10    1.76    2.02
   5   7  10    0.07    1.68
  -5   7 -10    1.41    1.16
  -6   7 -10   22.47    1.91
   5  -8 -10    2.72    2.19
  -5  -8  10    5.51    1.92
   5   8 -10    2.04    1.61
  -5   8  10   -0.09    1.79
   4  -8 -10    2.30    1.82
  -4  -8  10    3.81    1.84
  -4  -8  10    3.86    1.57
   4  -8 -10    5.66    2.10
  -4   8  10    1.16    1.20
  -4   8  10    0.73    1.81
   4   8 -10    1.87    1.41
  -3  -8  10    2.95    1.72
   3  -8 -10    4.20    1.98
   3  -8 -10    1.41    1.51
  -3  -8  10    2.04    1.36
  -3   8  10    2.23    1.34
   3   8 -10    1.53    1.45
  -3   8  10    1.57    1.78
  -2  -8  10    7.63    1.88
   2  -8 -10   12.17    2.18
  -2  -8  10    7.06    1.52
   2  -8 -10    6.22    1.56
  -2   8  10    9.43    2.03
   2   8 -10    8.06    1.57
  -2   8  10    7.23    1.52
   1  -8 -10    1.88    1.87
   1  -8 -10    0.43    1.43
  -1  -8  10   -0.44    1.60
  -1  -8  10    1.16    1.36
  -1   8  10    2.40    1.37
   1   8 -10    1.91    1.37
  -1   8  10    1.68    1.63
   0  -8 -10    1.88    1.91
   0  -8 -10   -0.47    1.31
   0  -8  10    5.29    1.54
   0   8 -10    0.26    1.31
   0   8  10    1.66    1.38
   0   8  10    4.38    1.91
  -1  -8 -10   10.11    1.90
   1  -8  10   10.33    1.77
   1   8  10   11.61    1.54
   1   8  10   11.87    2.16
  -1   8 -10   12.65    1.60
  -2  -8 -10    2.15    1.65
   2  -8  10    5.52    1.65
  -2   8 -10    1.45    1.17
   2   8  10    1.59    1.27
   2   8  10    5.48    1.94
   3  -8  10   19.06    2.56
   3   8  10   17.22    2.78
  -3   8 -10   11.15    1.81
   4  -8  10    1.11    2.02
 -11   0  11    6.13    2.33
  11   0 -11    0.30    1.88
  11   0 -11    3.94    1.40
 -11   0  11    2.28    1.16
 -10   0  11   -0.16    1.19
 -10   0  11    3.11    1.99
 -10   0  11   -2.23    1.49
  10   0 -11    1.94    1.78
 -10   0  11    0.37    1.06
  10   0 -11   -0.51    1.22
  -9   0  11   33.42    2.62
  -9   0  11   38.13    1.93
  -9   0  11   35.52    2.11
   9   0 -11   44.53    2.98
   9   0 -11   37.35    2.48
  -9   0  11   35.73    2.91
   9   0 -11   36.37    2.27
  -8   0  11   14.87    1.38
  -8   0  11   16.36    2.34
   8   0 -11   14.28    1.68
   8   0 -11   13.01    1.79
  -8   0  11   14.90    1.61
  -8   0  11   15.29    1.97
   8   0 -11   14.96    1.75
   7   0 -11   31.71    1.96
  -7   0  11   33.36    2.44
   7   0 -11   31.62    1.79
   7   0 -11   33.07    1.86
   7   0 -11   33.49    2.27
  -7   0  11   30.67    2.47
  -7   0  11   32.49    1.57
  -7   0  11   28.54    2.35
   6   0 -11    0.88    0.80
   6   0 -11    1.72    0.95
   6   0 -11    1.84    1.09
  -6   0  11    0.30    0.96
   6   0 -11    1.18    0.85
  -6   0  11    0.68    0.69
  -6   0  11    1.31    1.24
  -6   0  11    1.20    0.84
  -5   0  11    3.51    1.22
  -5   0  11    1.46    0.61
   5   0 -11    0.45    0.82
   5   0 -11    1.20    0.84
   5   0 -11    2.01    0.71
  -5   0  11    1.94    0.80
  -5   0  11    2.07    0.91
   5   0 -11    1.30    1.05
   4   0 -11    5.53    0.96
   4   0 -11    6.91    0.83
   4   0 -11    6.94    0.93
  -4   0  11    5.34    0.85
  -4   0  11    6.15    1.19
  -4   0  11    6.09    0.96
  -4   0  11    7.45    0.76
   4   0 -11    6.36    1.00
  -3   0  11  131.86    3.65
  -3   0  11  132.67    3.83
   3   0 -11  135.66    3.66
  -3   0  11  132.76    4.12
   3   0 -11  127.47    3.72
  -3   0  11  137.31    3.52
   3   0 -11  133.16    3.78
  -2   0  11   67.21    2.15
   2   0 -11   66.67    2.28
  -2   0  11   65.92    2.36
  -2   0  11   67.21    2.69
   2   0 -11   65.24    2.29
  -2   0  11   67.67    2.00
   2   0 -11   68.23    2.31
   1   0 -11    6.19    0.83
  -1   0  11    8.08    0.80
  -1   0  11    7.49    0.95
   1   0 -11    8.05    1.15
  -1   0  11    8.51    0.99
  -1   0  11    7.27    1.22
   0   0 -11    0.27    0.70
   0   0  11    0.42    1.10
   0   0 -11   -0.23    0.82
   0   0  11    0.51    0.75
   0   0  11    0.68    0.47
   1   0  11   10.53    0.88
   1   0  11   11.30    1.65
   1   0  11   11.83    1.27
  -1   0 -11   12.55    1.43
  -1   0 -11   11.09    1.11
   2   0  11   81.50    2.56
   2   0  11   77.50    3.09
   2   0  11   82.20    2.67
   2   0  11   80.07    2.32
  -2   0 -11   79.28    2.55
  -2   0 -11   79.31    2.83
   3   0  11   20.11    1.49
   3   0  11   19.90    1.13
   3   0  11   20.27    1.91
  -3   0 -11   20.53    1.35
  -3   0 -11   17.18    1.64
   3   0  11   17.18    1.48
   4   0  11   40.08    2.00
   4   0  11   39.60    1.99
  -4   0 -11   41.21    1.76
  -4   0 -11   40.12    2.24
   4   0  11   42.17    1.61
   4   0  11   38.80    2.43
   4   0  11   38.99    1.77
   5   0  11    3.91    0.79
   5   0  11    3.53    0.89
  -5   0 -11    4.03    0.80
   5   0  11    4.05    1.05
  -5   0 -11    5.40    1.25
   5   0  11    4.53    1.03
   5   0  11    3.42    1.39
  -6   0 -11   -0.69    1.11
  -6   0 -11   -0.59    0.74
   6   0  11   -0.55    1.45
   6   0  11   -0.91    1.11
  -6   0 -11   -0.59    0.95
   6   0  11    0.02    0.92
   7   0  11    1.54    1.12
  -7   0 -11    1.47    1.20
  -7   0 -11    0.72    1.38
   7   0  11    1.29    1.14
   7   0  11    1.38    1.80
  -8   0 -11    0.24    1.22
   8   0  11    2.55    1.30
  -8   0 -11   -0.84    1.47
  -9   0 -11    4.16    1.53
 -11  -1  11    3.39    1.19
  11  -1 -11    7.39    1.97
 -11  -1  11    2.84    1.59
 -11  -1  11   13.10    2.41
 -11   1  11   10.05    2.33
  11   1 -11    7.49    2.03
  11   1 -11    4.80    1.45
 -11   1  11    3.20    1.43
  10  -1 -11   -0.46    1.55
  10  -1 -11   -1.12    1.71
 -10  -1  11    3.59    2.10
  10  -1 -11    0.20    1.16
 -10  -1  11   -0.01    1.07
 -10  -1  11   -2.07    1.22
 -10  -1  11   -1.58    1.68
 -10   1  11    5.93    2.08
 -10   1  11    3.85    1.33
 -10   1  11   -1.50    1.02
 -10   1  11    0.68    1.60
  10   1 -11    1.71    2.12
  10   1 -11    0.56    1.35
  -9  -1  11    4.17    1.02
  -9  -1  11    7.77    1.96
  -9  -1  11    3.11    1.22
   9  -1 -11   -0.80    1.48
  -9  -1  11    2.50    1.41
   9  -1 -11    4.90    1.51
   9  -1 -11    3.08    1.26
  -9   1  11    4.81    1.30
  -9   1  11    4.79    1.90
  -9   1  11    3.66    0.98
   9   1 -11    3.20    1.28
   9   1 -11    7.03    1.73
  -9   1  11    3.32    1.56
  -8  -1  11    0.04    1.52
   8  -1 -11   -0.18    1.31
  -8  -1  11    0.33    0.82
  -8  -1  11    0.64    0.99
   8  -1 -11    1.45    1.28
  -8  -1  11    0.61    1.16
   8  -1 -11    0.71    1.07
   8  -1 -11    1.54    0.98
  -8   1  11    0.26    0.82
   8   1 -11    1.19    1.03
  -8   1  11    0.19    1.17
   8   1 -11    2.12    1.39
  -8   1  11    1.64    1.62
  -8   1  11   -0.37    0.99
   7  -1 -11   -0.30    1.11
   7  -1 -11    0.36    0.87
   7  -1 -11    1.11    1.03
  -7  -1  11    0.75    1.02
  -7  -1  11    1.48    0.72
  -7  -1  11    2.18    1.12
   7  -1 -11    1.60    0.99
  -7  -1  11    0.72    1.39
   7   1 -11    1.44    1.24
  -7   1  11    0.09    0.80
  -7   1  11    1.72    1.37
   7   1 -11    1.49    0.97
   7   1 -11    0.29    0.93
  -7   1  11    1.13    0.90
  -7   1  11    1.64    1.15
  -6  -1  11   10.36    1.09
   6  -1 -11   12.54    1.69
  -6  -1  11   12.40    1.28
  -6  -1  11   11.02    1.62
   6  -1 -11    8.46    1.38
   6  -1 -11   11.73    1.44
   6  -1 -11   11.41    1.31
  -6  -1  11   12.95    1.52
  -6   1  11    9.92    1.23
   6   1 -11   10.79    1.37
  -6   1  11   10.67    1.22
  -6   1  11   12.09    1.26
   6   1 -11    8.56    1.07
   6   1 -11   11.06    1.47
  -6   1  11   11.80    1.54
   5  -1 -11   24.37    1.68
  -5  -1  11   25.82    1.43
   5  -1 -11   25.28    1.31
  -5  -1  11   24.96    1.66
  -5  -1  11   25.34    2.02
   5  -1 -11   26.67    1.67
   5  -1 -11   25.93    1.65
  -5  -1  11   25.70    1.23
   5   1 -11   26.63    1.66
  -5   1  11   24.45    1.73
  -5   1  11   27.15    1.92
  -5   1  11   27.21    1.54
   5   1 -11   27.41    1.84
  -5   1  11   25.39    1.38
   5   1 -11   25.16    1.83
   4  -1 -11    8.58    0.96
  -4  -1  11    8.86    0.90
  -4  -1  11   11.40    1.48
   4  -1 -11   11.58    1.30
  -4  -1  11    8.80    1.02
   4  -1 -11   11.78    1.22
   4  -1 -11   10.83    1.31
  -4  -1  11   10.75    1.08
  -4   1  11   11.91    1.61
   4   1 -11   10.07    1.20
  -4   1  11   10.14    1.02
  -4   1  11   10.20    1.17
  -4   1  11   11.97    1.23
   4   1 -11    7.74    0.92
  -3  -1  11   46.25    1.50
  -3  -1  11   46.19    1.85
  -3  -1  11   42.33    2.23
  -3  -1  11   46.71    1.67
   3  -1 -11   43.15    1.89
   3  -1 -11   44.38    1.86
   3  -1 -11   48.34    1.88
  -3   1  11   46.22    1.69
   3   1 -11   44.73    1.87
   3   1 -11   44.78    1.81
  -3   1  11   46.39    1.83
  -3   1  11   45.56    2.23
  -3   1  11   45.22    2.02
   2  -1 -11    8.28    1.09
  -2  -1  11    9.57    1.16
  -2  -1  11    9.87    0.92
  -2  -1  11    9.74    0.74
   2  -1 -11    8.48    1.12
   2  -1 -11    7.72    0.97
  -2  -1  11   10.14    1.40
  -2   1  11    9.95    0.94
  -2   1  11    8.24    1.08
   2   1 -11    9.52    1.23
  -2   1  11    7.89    1.07
   2   1 -11    8.60    1.05
  -2   1  11   11.12    1.39
  -1  -1  11   14.75    1.19
  -1  -1  11   13.66    0.97
  -1  -1  11   14.77    0.78
   1  -1 -11   15.99    1.44
   1  -1 -11   14.98    1.17
  -1  -1  11   14.89    1.70
   1  -1 -11   13.53    1.15
  -1   1  11   14.05    1.40
   1   1 -11   12.88    1.40
  -1   1  11   15.19    1.16
   1   1 -11   13.59    1.12
  -1   1  11   13.81    0.97
  -1   1  11   12.12    1.66
   0  -1  11   20.52    1.90
   0  -1  11   22.25    0.93
   0  -1  11   22.59    1.30
   0  -1 -11   23.22    1.57
   0  -1 -11   22.29    1.22
   0  -1 -11   21.31    1.41
   0   1 -11   25.03    1.42
   0   1  11   21.45    1.53
   0   1  11   22.39    1.18
   0   1  11   21.09    1.81
   0   1 -11   20.77    1.61
   1  -1  11   34.09    1.99
  -1  -1 -11   32.89    1.64
   1  -1  11   33.44    1.19
   1  -1  11   34.02    1.55
  -1  -1 -11   36.14    1.87
  -1   1 -11   33.12    1.62
   1   1  11   34.49    2.06
  -1   1 -11   33.85    1.87
   1   1  11   32.05    1.35
   1   1  11   33.67    1.74
   1   1  11   32.27    1.21
   2  -1  11    7.70    0.90
  -2  -1 -11    6.83    1.14
   2  -1  11    7.73    1.37
  -2  -1 -11    9.39    0.97
   2  -1  11   10.07    1.41
   2  -1  11    7.62    0.77
  -2   1 -11    8.87    0.95
  -2   1 -11    7.68    1.16
   2   1  11   10.06    1.37
   2   1  11    8.33    0.81
   2   1  11    7.32    1.33
   2   1  11    8.39    0.99
   2   1  11    8.05    0.60
  -3  -1 -11    1.49    0.68
   3  -1  11   -0.19    0.89
   3  -1  11    0.23    0.71
  -3  -1 -11    1.01    0.91
   3  -1  11    1.27    1.16
   3  -1  11    1.41    0.52
  -3   1 -11    1.20    0.69
   3   1  11    0.65    0.64
  -3   1 -11    0.65    1.03
   3   1  11    2.17    0.85
   3   1  11    0.92    0.60
   3   1  11    0.79    1.14
  -4  -1 -11   15.32    1.31
   4  -1  11   14.26    1.37
   4  -1  11   17.03    1.07
   4  -1  11   18.95    1.76
  -4  -1 -11   16.43    1.77
   4  -1  11   17.56    2.06
   4   1  11   17.74    1.24
   4   1  11   16.96    1.12
   4   1  11   15.42    1.38
  -4   1 -11   15.10    1.33
   4   1  11   17.38    1.97
   4   1  11   15.19    1.58
  -4   1 -11   13.64    1.60
  -5  -1 -11    9.60    1.24
   5  -1  11   10.96    1.69
   5  -1  11    6.15    1.05
  -5  -1 -11   11.68    1.56
   5  -1  11    8.26    1.27
   5  -1  11    9.51    1.14
  -5   1 -11   10.08    1.43
   5   1  11    7.86    1.19
  -5   1 -11    9.02    1.03
   5   1  11    6.93    1.18
   5   1  11   10.15    1.22
   5   1  11   13.81    1.77
  -5   1 -11   11.00    1.20
  -6  -1 -11    5.51    2.01
  -6  -1 -11    7.98    1.41
   6  -1  11    7.32    1.18
   6  -1  11    9.80    1.80
   6  -1  11    5.17    1.28
   6  -1  11    5.27    1.08
  -6  -1 -11    7.36    0.90
  -6   1 -11    6.82    0.92
  -6   1 -11    5.46    1.04
   6   1  11    5.32    1.19
   6   1  11    7.81    1.05
  -6   1 -11    7.12    1.47
  -7  -1 -11   21.97    2.26
   7  -1  11   15.19    1.57
  -7  -1 -11   21.71    1.91
   7  -1  11   17.75    2.34
   7  -1  11   22.91    1.91
  -7   1 -11   20.96    2.25
   7   1  11   21.35    2.14
   8  -1  11   22.75    2.47
  -8  -1 -11   23.50    2.24
  -8  -1 -11   18.68    2.53
   8  -1  11   22.90    2.90
   8   1  11   21.47    2.35
  -8   1 -11   20.41    2.14
  -9  -1 -11    6.00    1.54
   9  -1  11    5.29    1.80
  -9  -1 -11    4.31    1.75
   9  -1  11    4.81    1.43
  -9   1 -11    9.45    2.32
 -11  -2  11   20.83    2.17
 -11  -2  11   13.05    1.75
 -10  -2  11    3.87    1.56
 -10  -2  11   10.90    2.39
 -10  -2  11    8.55    1.19
  10  -2 -11    7.19    1.77
 -10  -2  11   10.32    1.56
  10  -2 -11    8.98    1.76
 -10   2  11    7.21    1.57
 -10   2  11    7.43    1.31
 -10   2  11    5.17    1.84
  10   2 -11    7.55    1.56
  10   2 -11    7.28    2.01
   9  -2 -11    3.05    1.46
  -9  -2  11    2.39    1.33
  -9  -2  11    3.38    1.19
  -9  -2  11    3.10    1.94
   9  -2 -11    2.07    1.34
  -9  -2  11    3.05    0.98
  -9   2  11    0.87    1.48
  -9   2  11    3.19    1.28
   9   2 -11    1.44    1.34
   9   2 -11    0.09    1.72
  -9   2  11    2.79    1.10
  -9   2  11    2.09    1.74
   8  -2 -11   28.05    1.99
  -8  -2  11   30.56    1.60
  -8  -2  11   30.46    2.70
  -8  -2  11   24.96    2.12
  -8  -2  11   28.03    1.84
   8  -2 -11   29.91    2.39
   8  -2 -11   23.44    2.21
  -8   2  11   23.76    2.26
  -8   2  11   24.13    1.79
   8   2 -11   27.56    2.64
  -8   2  11   29.86    2.67
   8   2 -11   25.53    2.08
  -8   2  11   27.09    1.96
   8   2 -11   26.59    1.98
  -7  -2  11    6.44    1.17
  -7  -2  11   10.65    1.18
   7  -2 -11    8.64    1.32
   7  -2 -11   10.34    1.22
  -7  -2  11   13.30    1.91
  -7  -2  11    8.61    1.08
   7  -2 -11    9.44    1.30
   7  -2 -11    7.46    1.24
   7   2 -11    6.13    1.50
   7   2 -11    7.49    1.14
   7   2 -11    9.14    1.35
  -7   2  11    9.52    1.24
  -7   2  11   11.95    1.55
  -7   2  11    8.39    1.06
  -7   2  11    8.85    1.53
   6  -2 -11   22.90    1.76
  -6  -2  11   18.51    1.20
   6  -2 -11   23.52    1.73
   6  -2 -11   20.44    1.88
  -6  -2  11   19.83    1.67
  -6  -2  11   20.36    1.45
  -6  -2  11   18.85    2.59
   6  -2 -11   21.81    1.32
   6   2 -11   20.41    1.62
  -6   2  11   21.54    2.01
  -6   2  11   21.66    1.75
   6   2 -11   21.45    1.98
   6   2 -11   22.33    1.74
  -6   2  11   21.39    1.48
   5  -2 -11   32.07    1.68
   5  -2 -11   31.56    1.80
   5  -2 -11   32.04    1.82
  -5  -2  11   31.62    1.29
  -5  -2  11   34.03    1.75
   5  -2 -11   35.12    1.66
  -5  -2  11   30.74    2.08
  -5  -2  11   34.85    1.55
  -5   2  11   32.68    1.97
   5   2 -11   28.13    2.14
  -5   2  11   34.22    2.08
   5   2 -11   31.70    1.72
   5   2 -11   30.89    1.87
  -5   2  11   34.98    1.57
  -5   2  11   30.45    1.74
   4  -2 -11   81.74    2.74
  -4  -2  11   75.58    3.11
  -4  -2  11   80.46    2.46
   4  -2 -11   82.89    2.65
  -4  -2  11   81.36    2.24
   4  -2 -11   80.72    2.70
   4  -2 -11   81.53    2.92
  -4  -2  11   78.65    2.58
  -4   2  11   81.64    2.55
  -4   2  11   81.93    3.00
  -4   2  11   79.98    2.62
  -4   2  11   81.94    2.94
   4   2 -11   84.58    2.50
   4   2 -11   80.37    2.71
  -3  -2  11   21.21    1.86
   3  -2 -11   20.06    1.54
  -3  -2  11   20.87    1.14
  -3  -2  11   20.96    1.13
  -3  -2  11   22.84    1.31
   3  -2 -11   19.79    1.52
   3  -2 -11   20.75    1.47
  -3   2  11   19.23    1.43
  -3   2  11   22.35    1.84
   3   2 -11   23.07    1.54
   3   2 -11   21.22    1.42
  -3   2  11   22.25    1.30
  -3   2  11   18.08    1.61
  -2  -2  11   28.99    1.35
  -2  -2  11   26.66    0.87
   2  -2 -11   25.79    1.60
  -2  -2  11   27.89    1.18
   2  -2 -11   27.83    1.51
   2  -2 -11   28.62    1.68
  -2  -2  11   26.64    1.91
   2   2 -11   27.60    1.58
   2   2 -11   28.50    1.58
  -2   2  11   26.60    1.38
  -2   2  11   26.45    1.88
  -2   2  11   25.38    1.61
  -2   2  11   27.61    1.52
   1  -2 -11   28.12    1.43
   1  -2 -11   23.95    1.69
  -1  -2  11   26.24    1.29
  -1  -2  11   25.49    0.82
  -1  -2  11   27.83    1.86
  -1  -2  11   26.82    1.10
   1  -2 -11   25.65    1.56
  -1   2  11   25.90    1.74
  -1   2  11   25.09    1.35
   1   2 -11   28.93    1.63
  -1   2  11   25.47    1.87
   1   2 -11   27.77    1.57
  -1   2  11   26.54    1.35
   0  -2 -11   62.26    2.24
   0  -2 -11   62.42    2.42
   0  -2 -11   64.25    2.06
   0  -2  11   62.96    2.01
   0  -2  11   60.03    1.62
   0  -2  11   59.56    2.69
   0   2  11   60.87    2.01
   0   2 -11   60.45    2.23
   0   2  11   60.67    2.51
   0   2  11   61.46    2.44
   0   2 -11   59.94    2.36
  -1  -2 -11   10.94    1.48
   1  -2  11   11.34    1.03
  -1  -2 -11   10.93    0.95
   1  -2  11   11.41    1.55
   1  -2  11   11.35    0.51
  -1  -2 -11   11.49    1.31
  -1   2 -11   13.75    1.35
  -1   2 -11   10.99    1.53
   1   2  11   13.13    1.13
   1   2  11   14.56    1.46
   1   2  11   13.95    1.68
   2  -2  11   72.75    2.16
   2  -2  11   81.52    3.15
  -2  -2 -11   75.11    2.75
  -2  -2 -11   77.92    2.53
   2  -2  11   79.26    2.40
   2   2  11   83.10    2.53
  -2   2 -11   86.18    3.04
  -2   2 -11   83.99    2.68
   2   2  11   80.09    3.08
   2   2  11   79.33    2.88
   3  -2  11   29.18    2.21
   3  -2  11   30.50    1.48
   3  -2  11   27.39    1.98
  -3  -2 -11   29.35    1.95
   3  -2  11   29.94    1.34
  -3  -2 -11   30.35    1.57
   3   2  11   30.22    1.51
  -3   2 -11   28.95    1.90
  -3   2 -11   32.90    1.63
   3   2  11   28.89    2.11
   3   2  11   32.06    1.98
  -4  -2 -11    2.53    1.25
   4  -2  11    2.86    0.85
   4  -2  11    2.31    1.08
  -4  -2 -11    3.29    0.84
  -4   2 -11    1.87    1.61
  -4   2 -11    3.58    0.79
   4   2  11    2.03    1.41
  -4   2 -11    3.27    0.79
   4   2  11    4.95    1.08
   4   2  11    2.64    0.80
   5  -2  11    2.38    0.96
  -5  -2 -11    1.58    1.12
   5  -2  11    1.61    1.21
  -5  -2 -11    1.53    0.80
   5  -2  11    3.15    1.39
   5   2  11    3.64    1.46
  -5   2 -11    3.08    1.17
  -5   2 -11    1.41    0.77
   5   2  11    1.62    1.45
   5   2  11    1.51    1.16
   6  -2  11    1.76    1.58
  -6  -2 -11    1.62    1.23
   6  -2  11    1.86    1.33
   6  -2  11    0.81    1.23
  -6  -2 -11    1.21    0.79
  -6   2 -11    1.50    0.80
   6   2  11    2.61    1.24
  -6   2 -11    1.87    1.33
   6   2  11    1.77    0.92
   7  -2  11    3.27    1.29
  -7  -2 -11    2.76    1.54
   7  -2  11    6.03    1.79
  -7  -2 -11    3.33    1.24
   7  -2  11    0.85    1.37
   7   2  11    3.31    1.05
  -7   2 -11    3.80    1.59
   7   2  11    3.60    1.47
  -8  -2 -11   -1.87    1.27
   8  -2  11    3.57    1.71
   8  -2  11   -0.58    1.44
  -8  -2 -11   -0.97    1.39
   8   2  11    3.81    1.48
  -8   2 -11    0.83    1.57
  -9  -2 -11   39.56    2.37
   9  -2  11   34.10    3.50
   9  -2  11   33.58    2.97
  10  -3 -11    8.86    1.67
 -10  -3  11   10.96    2.37
 -10  -3  11   12.26    1.67
 -10  -3  11    8.20    1.36
  10   3 -11    6.67    1.92
 -10   3  11    6.67    1.53
 -10   3  11    7.13    1.26
 -10   3  11    6.45    1.86
  10   3 -11    6.50    1.52
  -9  -3  11    0.24    1.14
   9  -3 -11    2.11    1.44
  -9  -3  11    4.50    2.04
  -9  -3  11    0.97    1.30
  -9   3  11   -0.37    1.67
   9   3 -11    2.04    2.14
  -9   3  11    1.75    1.18
   9   3 -11    0.79    1.42
  -9   3  11    1.59    1.27
  -8  -3  11   77.84    2.83
   8  -3 -11   78.62    3.29
  -8  -3  11   67.54    3.44
   8  -3 -11   81.40    3.07
  -8  -3  11   82.64    3.83
   8   3 -11   85.17    3.79
  -8   3  11   78.18    3.52
   8   3 -11   79.26    3.25
  -8   3  11   80.20    3.12
  -8   3  11   79.06    3.45
   7  -3 -11    6.06    1.93
  -7  -3  11    5.55    1.06
  -7  -3  11    9.81    1.84
  -7  -3  11    4.18    1.17
   7  -3 -11    5.36    1.33
   7   3 -11    7.00    1.52
  -7   3  11    7.10    1.47
   7   3 -11    5.59    1.24
  -7   3  11    4.62    1.38
   7   3 -11    5.18    1.23
  -7   3  11    6.74    1.18
  -7   3  11    3.68    0.91
  -6  -3  11    6.94    1.62
   6  -3 -11    4.25    1.12
  -6  -3  11    6.39    0.90
  -6  -3  11    6.13    1.08
   6  -3 -11    5.15    1.23
   6   3 -11    4.72    1.04
   6   3 -11    5.13    1.36
  -6   3  11    4.86    1.23
   6   3 -11    6.03    1.40
  -6   3  11    5.10    1.14
  -6   3  11    6.42    0.95
  -6   3  11    7.68    1.48
   5  -3 -11    8.68    1.18
  -5  -3  11   10.84    1.86
   5  -3 -11   10.75    1.47
  -5  -3  11   10.37    1.17
  -5  -3  11    9.80    1.06
  -5   3  11    8.14    1.92
  -5   3  11    8.24    1.04
  -5   3  11    8.33    1.72
   5   3 -11    9.53    1.14
   5   3 -11    8.85    1.39
  -5   3  11   12.95    1.49
   4  -3 -11   18.21    1.56
  -4  -3  11   18.34    1.17
  -4  -3  11   16.53    1.93
   4  -3 -11   19.06    1.59
   4  -3 -11   15.08    1.60
  -4  -3  11   18.40    1.91
   4   3 -11   18.37    1.58
  -4   3  11   17.46    1.84
  -4   3  11   18.50    1.35
   4   3 -11   15.49    1.36
  -4   3  11   16.30    1.71
  -4   3  11   18.43    1.52
   3  -3 -11    5.39    0.90
  -3  -3  11    5.54    0.74
  -3  -3  11    5.88    1.29
   3  -3 -11    6.15    1.10
   3  -3 -11    5.21    0.96
  -3  -3  11    7.36    0.87
  -3   3  11    7.20    1.34
   3   3 -11    6.09    1.01
  -3   3  11    6.29    0.90
   3   3 -11    5.55    0.96
  -3   3  11    6.73    1.03
  -3   3  11    6.39    1.07
  -2  -3  11   31.18    1.45
  -2  -3  11   32.98    2.17
   2  -3 -11   34.82    1.89
   2  -3 -11   34.16    1.76
   2  -3 -11   36.67    1.74
  -2  -3  11   32.30    1.22
  -2   3  11   32.27    1.67
   2   3 -11   34.42    1.78
  -2   3  11   30.67    1.92
  -2   3  11   34.20    1.60
   2   3 -11   32.45    1.83
  -2   3  11   33.96    2.02
  -1  -3  11    9.69    0.66
   1  -3 -11   11.62    1.51
   1  -3 -11   10.36    1.23
  -1  -3  11   10.38    1.43
   1  -3 -11    9.32    1.02
  -1   3  11   11.31    1.13
  -1   3  11    8.61    1.16
  -1   3  11   11.60    1.38
   1   3 -11   12.91    1.37
   1   3 -11   12.82    1.59
  -1   3  11   10.73    1.30
   0  -3  11   41.04    2.36
   0  -3  11   40.41    1.31
   0  -3 -11   42.91    2.11
   0  -3 -11   41.95    1.71
   0  -3 -11   42.25    1.87
   0   3  11   43.76    2.12
   0   3  11   41.68    2.17
   0   3  11   44.70    1.75
   0   3 -11   41.30    1.88
   0   3 -11   42.08    2.14
  -1  -3 -11   24.41    1.87
  -1  -3 -11   28.74    1.62
  -1  -3 -11   28.73    1.37
   1  -3  11   27.66    2.07
   1  -3  11   28.81    1.01
  -1   3 -11   26.11    1.92
   1   3  11   24.43    1.79
   1   3  11   27.97    1.94
   1   3  11   27.84    1.44
  -1   3 -11   26.78    1.51
  -2  -3 -11    3.25    1.13
  -2  -3 -11    4.02    0.64
  -2  -3 -11    3.28    0.91
   2  -3  11    5.87    1.40
   2   3  11    5.36    1.24
   2   3  11    2.73    1.01
  -2   3 -11    0.97    1.18
  -2   3 -11    3.12    0.88
   2   3  11    4.15    0.78
   3  -3  11   14.02    2.10
  -3  -3 -11   13.99    1.48
   3  -3  11   14.09    1.87
   3  -3  11   14.87    1.26
  -3   3 -11   15.01    1.41
   3   3  11   14.56    1.32
   3   3  11   13.31    1.88
   3   3  11   16.06    1.97
  -3   3 -11   14.44    1.97
  -4  -3 -11   21.05    1.59
  -4  -3 -11   24.14    2.01
   4  -3  11   20.25    2.21
   4  -3  11   18.03    2.16
  -4   3 -11   21.13    1.55
  -4   3 -11   19.70    2.07
   4   3  11   18.03    1.49
   4   3  11   16.92    2.11
   4   3  11   18.89    1.91
   5  -3  11    8.90    1.49
  -5  -3 -11   11.35    1.42
  -5  -3 -11   11.81    1.57
   5  -3  11    9.24    1.66
  -5   3 -11    9.88    1.10
   5   3  11    9.04    1.40
  -5   3 -11    6.90    1.47
   5   3  11   11.90    1.19
   6  -3  11   59.60    3.35
  -6  -3 -11   60.47    2.99
  -6  -3 -11   61.09    2.31
   6  -3  11   62.10    3.25
   6   3  11   63.23    2.93
  -6   3 -11   62.05    3.09
   6   3  11   62.65    2.52
  -7  -3 -11    3.51    1.40
  -7  -3 -11    5.97    1.61
   7  -3  11    4.13    1.45
   7  -3  11    7.20    1.85
   7  -3  11    1.32    1.60
   7   3  11    6.01    1.69
  -7   3 -11    3.49    1.51
   7   3  11    5.06    1.19
  -8  -3 -11    0.95    1.28
   8  -3  11   -0.84    1.37
  -8  -3 -11    3.62    1.63
   8  -3  11   -0.93    1.67
  -8   3 -11    0.16    1.44
   8   3  11    0.87    1.46
   8   3  11   -1.11    1.10
 -10  -4  11    4.91    1.23
  -9  -4  11    6.76    1.24
   9  -4 -11    6.13    1.70
  -9  -4  11    9.62    2.20
  -9   4  11    6.68    1.33
  -9   4  11    4.98    1.59
   9   4 -11    6.17    1.94
  -9   4  11    6.70    1.86
   9   4 -11    7.94    1.65
   8  -4 -11   19.92    2.30
   8  -4 -11   13.65    1.58
  -8  -4  11   17.55    2.41
  -8   4  11   15.96    1.80
   8   4 -11   15.52    2.10
   8   4 -11   17.02    2.35
  -8   4  11   13.85    1.82
  -8   4  11   18.16    2.07
   8   4 -11   11.79    1.95
   7  -4 -11   18.01    2.02
  -7  -4  11   20.79    1.59
  -7  -4  11   21.69    2.73
   7  -4 -11   18.91    2.15
   7   4 -11   17.23    2.09
   7   4 -11   14.92    2.18
  -7   4  11   17.68    1.96
  -7   4  11   16.45    2.26
   7   4 -11   21.35    2.07
  -7   4  11   16.39    1.68
   6  -4 -11   12.43    1.73
  -6  -4  11   12.97    1.86
  -6  -4  11   14.87    1.32
   6  -4 -11   14.24    1.87
  -6   4  11   11.40    1.67
  -6   4  11   13.93    1.32
   6   4 -11   15.02    1.89
   6   4 -11   13.22    1.81
   6   4 -11   10.48    1.50
  -6   4  11   13.83    1.73
   5  -4 -11    0.44    1.10
  -5  -4  11    2.92    1.51
   5  -4 -11    1.13    1.14
  -5  -4  11    1.26    0.74
   5  -4 -11    3.84    1.22
  -5   4  11    0.99    0.89
  -5   4  11   -0.55    1.03
  -5   4  11    2.33    1.16
   5   4 -11    0.49    2.00
  -4  -4  11   13.81    1.03
   4  -4 -11   10.43    1.92
   4  -4 -11   11.04    1.34
  -4  -4  11   13.77    2.08
  -4   4  11   13.13    1.53
  -4   4  11   11.64    1.44
  -4   4  11   12.16    1.43
  -4   4  11   12.46    1.70
   3  -4 -11    1.11    1.39
   3  -4 -11    2.19    1.13
   3  -4 -11    2.01    1.00
   3   4 -11    1.36    1.04
  -3   4  11    1.60    1.14
  -3   4  11    2.84    1.16
  -2  -4  11   29.13    2.21
   2  -4 -11   29.35    1.96
   2  -4 -11   29.64    1.73
   2  -4 -11   27.06    1.77
  -2   4  11   26.21    2.08
  -2   4  11   30.85    1.76
  -2   4  11   27.68    1.97
   2   4 -11   28.91    1.95
   2   4 -11   30.11    1.84
  -2   4  11   28.42    1.58
   1  -4 -11   33.45    1.83
   1  -4 -11   35.78    2.16
  -1  -4  11   35.62    2.31
   1  -4 -11   34.70    1.77
  -1   4  11   34.60    2.00
   1   4 -11   32.01    2.00
  -1   4  11   36.82    1.72
  -1   4  11   36.87    2.08
   1   4 -11   37.80    1.93
   0  -4  11   14.91    1.74
   0  -4 -11   14.57    1.73
   0  -4 -11   13.00    1.35
   0  -4 -11   11.69    1.23
   0   4  11   13.60    1.29
   0   4  11   15.21    1.80
   0   4 -11   12.86    1.45
   0   4  11   10.72    1.35
   0   4 -11   11.93    1.44
  -1  -4 -11   15.68    1.27
  -1  -4 -11   15.66    1.88
   1  -4  11   15.34    1.96
  -1  -4 -11   14.08    1.51
  -1   4 -11   16.24    1.69
   1   4  11   15.54    1.37
   1   4  11   15.85    1.82
  -1   4 -11   12.67    1.50
  -2  -4 -11    9.40    1.38
  -2  -4 -11    8.56    1.06
  -2  -4 -11    9.64    1.37
   2  -4  11   12.02    1.42
   2  -4  11   11.46    2.08
   2   4  11   12.37    1.51
   2   4  11   10.12    1.33
  -2   4 -11   12.20    1.80
   2   4  11    9.47    1.41
   3  -4  11    9.64    1.65
   3  -4  11    7.68    1.07
  -3  -4 -11    9.40    1.48
   3  -4  11    6.56    1.43
   3   4  11    8.39    1.03
  -3   4 -11    8.20    1.28
  -3   4 -11    6.60    1.41
   3   4  11    7.98    1.47
   4  -4  11   12.01    1.80
  -4  -4 -11    9.69    1.38
   4  -4  11    9.38    1.59
  -4  -4 -11   10.62    1.55
  -4   4 -11   11.32    1.59
   4   4  11   10.02    1.13
  -4   4 -11   11.53    1.47
   4   4  11   12.02    1.63
  -5  -4 -11   46.41    2.77
   5  -4  11   44.82    2.86
   5  -4  11   45.45    2.94
  -5  -4 -11   43.88    2.22
   5   4  11   46.00    2.18
   5   4  11   45.03    2.72
  -5   4 -11   38.51    2.76
  -5   4 -11   45.60    2.12
   6  -4  11   33.72    3.00
  -6  -4 -11   32.45    2.63
  -6  -4 -11   29.63    1.77
   6  -4  11   25.20    2.90
   6   4  11   31.25    2.60
  -6   4 -11   29.28    1.88
  -6   4 -11   25.93    2.70
   6   4  11   29.38    1.99
  -7  -4 -11   16.70    2.16
   7  -4  11   14.09    1.89
   7  -4  11   16.54    2.22
  -7  -4 -11   20.56    2.64
   7  -4  11   17.14    2.22
   7   4  11   15.09    1.85
   7   4  11   16.01    2.12
  -7   4 -11   15.74    2.14
   8  -4  11    3.54    2.30
   8  -4  11    4.41    1.62
   8  -5 -11   -0.15    1.56
   8  -5 -11    0.13    1.44
  -8  -5  11    1.33    1.85
  -8   5  11    0.41    1.07
   8   5 -11    0.07    1.61
  -8   5  11    0.07    1.65
   8   5 -11   -4.72    1.92
  -8   5  11   -2.48    1.36
   7  -5 -11   10.15    1.55
   7  -5 -11    8.24    1.54
  -7   5  11   12.57    1.64
   7   5 -11   17.28    2.14
  -7   5  11   13.25    1.48
  -7   5  11   13.76    2.05
  -6  -5  11    1.65    1.76
   6  -5 -11   -0.63    1.20
   6  -5 -11    0.62    1.26
   6   5 -11    1.48    1.29
  -6   5  11    0.45    1.27
  -6   5  11   -0.66    1.04
  -6   5  11    0.56    1.53
  -5  -5  11   14.08    1.92
   5  -5 -11   13.13    1.62
   5  -5 -11   15.15    1.95
   5  -5 -11   17.58    1.94
   5   5 -11   11.65    1.38
  -5   5  11   13.01    1.70
  -5   5  11   15.73    1.86
  -5   5  11   14.44    1.65
   4  -5 -11    7.29    1.44
   4  -5 -11    7.82    1.20
   4  -5 -11    7.75    1.25
  -4  -5  11   11.58    1.68
  -4   5  11    7.89    1.19
  -4   5  11    9.24    1.30
  -4   5  11    8.91    1.53
   4   5 -11    8.97    1.28
   3  -5 -11    1.71    1.27
   3  -5 -11    0.37    1.05
  -3  -5  11   -0.07    1.38
   3   5 -11   -0.01    0.98
  -3   5  11    0.82    1.26
  -3   5  11    0.60    0.91
  -3   5  11    2.26    1.12
  -2  -5  11   13.62    1.77
   2  -5 -11   11.67    1.31
   2  -5 -11    9.83    1.50
  -2   5  11   11.19    1.50
   2   5 -11    8.72    1.27
  -2   5  11   11.10    1.41
   1  -5 -11   37.55    1.97
  -1   5  11   39.10    2.35
   1   5 -11   38.30    2.03
  -1   5  11   37.63    1.89
   1   5 -11   32.88    2.25
   0  -5 -11   22.08    1.60
   0  -5  11   20.12    2.51
   0  -5 -11   21.32    2.04
   0   5  11   21.87    1.86
   0   5  11   20.35    2.00
   0   5 -11   22.73    2.21
   0   5 -11   24.11    1.76
   0   5  11   25.54    1.64
  -1  -5 -11    6.18    1.47
  -1  -5 -11    5.44    1.00
   1  -5  11    5.28    1.11
  -1  -5 -11    6.45    1.09
   1  -5  11    3.74    1.46
  -1   5 -11    4.38    1.06
   1   5  11    4.21    1.24
   1   5  11    5.85    1.01
  -1   5 -11    4.40    1.74
  -2  -5 -11   12.69    1.61
  -2  -5 -11    9.49    1.49
   2  -5  11   12.12    1.67
   2  -5  11   11.64    1.65
  -2   5 -11   13.07    1.59
   2   5  11   12.91    1.67
  -2   5 -11   12.78    1.67
   2   5  11   12.00    1.55
  -3  -5 -11   28.04    2.14
   3  -5  11   25.98    2.53
  -3  -5 -11   23.55    1.82
   3  -5  11   26.03    1.94
   3  -5  11   25.74    2.43
  -3   5 -11   22.75    1.78
   3   5  11   25.40    1.79
   3   5  11   23.04    2.37
  -3   5 -11   19.46    2.31
  -4  -5 -11    0.36    1.48
   4  -5  11    0.61    1.52
   4  -5  11   -1.06    1.45
  -4  -5 -11    0.30    1.02
  -4   5 -11    0.85    0.95
   4   5  11    0.24    1.43
  -4   5 -11    2.54    1.59
   4   5  11    1.22    1.04
   5  -5  11    5.02    1.84
  -5  -5 -11    3.85    1.12
   5  -5  11    3.94    1.77
  -5  -5 -11    6.14    1.79
   5   5  11    8.48    1.35
   5   5  11    2.58    1.66
  -5   5 -11    7.85    1.17
  -5   5 -11    6.74    1.84
   6  -5  11   24.70    3.13
   6  -5  11   31.66    3.10
  -6  -5 -11   22.01    2.60
  -6  -5 -11   26.20    2.78
   6   5  11   28.19    2.77
  -6   5 -11   18.96    1.84
  -6   5 -11   20.24    2.64
   6   5  11   20.98    2.06
   7  -5  11    4.71    2.33
   8  -6 -11   -1.75    1.67
   7  -6 -11    2.69    1.58
  -7  -6  11    8.67    2.11
   7  -6 -11    2.11    1.57
  -7   6  11    4.31    1.56
  -7   6  11    2.67    1.25
   7   6 -11    6.16    1.65
  -7   6  11    2.62    1.73
   6  -6 -11    5.35    1.51
  -6  -6  11    8.43    1.98
   6  -6 -11    7.03    1.66
  -6   6  11    6.44    1.55
   6   6 -11    9.11    1.55
  -6   6  11    9.05    1.89
  -6   6  11    6.56    1.41
  -5  -6  11   42.50    3.11
   5  -6 -11   34.18    2.48
   5  -6 -11   35.41    2.82
  -5   6  11   33.94    2.84
   5   6 -11   36.10    2.44
  -5   6  11   34.88    2.33
  -5   6  11   33.78    2.24
   4  -6 -11    1.30    1.56
   4  -6 -11   -0.16    1.21
  -4  -6  11    2.79    1.62
  -4   6  11    4.17    1.37
  -4   6  11    2.16    1.50
  -4   6  11    0.54    1.13
   4   6 -11   -0.73    1.27
  -3  -6  11   17.33    2.39
   3  -6 -11   16.17    2.00
   3  -6 -11   19.13    2.41
  -3   6  11   19.02    1.79
  -3   6  11   18.85    1.94
   3   6 -11   16.77    2.05
  -3   6  11   14.63    1.78
   2  -6 -11    6.01    1.60
  -2  -6  11    7.97    1.75
   2  -6 -11    6.06    1.31
  -2   6  11    4.34    1.08
   2   6 -11    5.73    1.30
  -2   6  11    7.47    1.60
  -1  -6  11    5.13    1.29
  -1  -6  11    7.42    1.61
   1  -6 -11    4.17    1.18
   1  -6 -11    5.70    1.53
   1   6 -11    2.68    1.17
  -1   6  11    3.75    1.07
  -1   6  11    2.87    1.48
   0  -6  11   16.08    2.34
   0  -6 -11   20.42    2.30
   0  -6 -11   18.18    1.75
   0  -6  11   15.97    1.95
   0   6  11   18.50    1.72
   0   6  11   17.12    2.21
   0   6 -11   14.11    1.78
   1  -6  11   10.72    1.39
   1  -6  11    5.63    1.59
  -1  -6 -11   10.26    1.76
  -1  -6 -11    8.10    1.17
   1   6  11    8.92    1.59
  -1   6 -11    9.55    1.26
   1   6  11   12.10    1.37
  -1   6 -11   11.48    1.83
  -2  -6 -11    2.69    1.62
   2  -6  11    2.14    1.52
   2  -6  11    1.12    1.20
  -2   6 -11    3.15    1.69
  -2   6 -11    2.06    1.10
   2   6  11    0.22    1.58
   2   6  11    1.43    1.03
  -3  -6 -11    0.08    1.56
  -3  -6 -11   -0.38    1.06
   3  -6  11   -1.24    1.43
   3  -6  11   -0.47    1.56
   3  -6  11   -0.05    1.26
   3   6  11   -1.44    1.10
  -3   6 -11    1.10    1.12
   3   6  11   -0.99    1.48
  -3   6 -11   -1.17    1.62
   4  -6  11    5.01    1.92
  -4  -6 -11    9.75    1.87
  -4  -6 -11    3.20    1.27
   4  -6  11    4.09    1.82
  -4   6 -11    6.61    1.28
   4   6  11    4.76    1.25
  -4   6 -11    2.77    1.89
   4   6  11    4.05    1.82
   5  -6  11    1.71    1.79
   5  -6  11    3.53    1.81
  -5  -6 -11    4.71    1.67
  -5  -6 -11    4.12    1.25
  -5   6 -11    5.09    1.27
   5   6  11    6.98    1.41
  -5   6 -11    3.38    1.91
   5   6  11    5.39    1.88
   6  -6  11    7.96    1.98
  -6   6 -11    4.66    1.11
   7   7 -11    1.81    1.52
  -6  -7  11    7.32    1.96
  -6   7  11    4.67    1.69
   6   7 -11    3.30    1.59
   5  -7 -11   -2.43    1.97
  -5  -7  11    4.58    1.90
   5  -7 -11    0.44    1.50
  -5   7  11    2.02    1.82
  -5   7  11    3.36    1.52
   5   7 -11    0.44    1.48
  -5   7  11    0.47    1.27
  -4  -7  11   12.63    2.11
   4  -7 -11   12.05    2.17
   4  -7 -11    7.88    1.65
  -4  -7  11   11.90    1.76
  -4   7  11   10.98    1.93
   4   7 -11   10.16    1.76
  -4   7  11   11.74    1.49
  -3  -7  11    5.72    1.86
   3  -7 -11    3.67    1.51
  -3  -7  11    5.33    1.47
   3  -7 -11    1.76    1.83
  -3   7  11    2.89    1.62
   3   7 -11    2.69    1.51
  -3   7  11    4.59    1.22
   2  -7 -11    5.56    1.86
  -2  -7  11    5.40    1.81
   2  -7 -11    1.56    1.38
  -2  -7  11    6.89    1.48
   2   7 -11    5.67    1.42
  -2   7  11    2.49    1.82
  -2   7  11    4.39    1.35
   1  -7 -11    4.53    1.81
   1  -7 -11    3.03    1.31
  -1  -7  11    1.50    1.72
  -1  -7  11    4.95    1.37
  -1   7  11    2.91    1.59
   1   7 -11    3.33    1.34
  -1   7  11    3.95    1.24
   0  -7  11    3.08    1.41
   0  -7 -11    2.07    1.74
   0  -7 -11    0.36    1.20
   0  -7  11    0.10    1.66
   0   7  11    6.03    1.63
   0   7 -11    2.64    1.23
   0   7  11    4.01    1.32
   1  -7  11    0.79    1.36
  -1  -7 -11    2.29    1.79
   1  -7  11   -0.45    1.65
   1   7  11   -1.47    1.58
   1   7  11    1.19    1.24
  -1   7 -11    0.37    1.27
   2  -7  11    4.04    1.78
  -2  -7 -11    7.44    1.98
   2  -7  11    7.15    1.63
  -2   7 -11    5.55    1.31
   2   7  11    6.33    1.86
   2   7  11    6.17    1.39
   3  -7  11   48.38    2.90
   3  -7  11   36.65    3.21
  -3  -7 -11   40.23    3.00
   3  -7  11   43.59    3.13
   3   7  11   37.52    3.11
   3   7  11   39.27    2.37
  -3   7 -11   36.85    2.48
  -4  -7 -11   21.56    2.06
  -4   7 -11   26.17    2.17
  -5  -7 -11   -1.54    1.11
   4  -8 -11    7.84    2.21
  -4  -8  11    5.04    1.83
   3  -8 -11    1.93    1.97
   3  -8 -11   -2.74    1.32
  -3  -8  11   -2.66    1.77
  -2  -8  11   11.60    2.10
   2  -8 -11    7.23    1.61
   2  -8 -11    9.39    1.99
  -2   8  11   10.64    1.92
  -1  -8  11    3.33    1.41
   1  -8 -11    0.59    1.75
   1  -8 -11    0.78    1.42
  -1  -8  11    0.02    1.77
  -1   8  11    1.47    1.52
   0  -8  11   16.38    2.20
   0   8  11   12.91    2.06
   1  -8  11   10.72    1.72
   3  -8  11   43.44    3.40
 -10   0  12   -1.92    1.16
  10   0 -12   -1.53    1.34
 -10   0  12    2.31    2.14
  10   0 -12    0.09    1.77
 -10   0  12    1.54    1.06
 -10   0  12    0.37    1.56
  -9   0  12   20.57    2.43
   9   0 -12   24.45    2.85
  -9   0  12   26.45    3.17
  -9   0  12   17.13    1.72
  -9   0  12   18.83    1.93
   9   0 -12   18.95    2.31
   8   0 -12   21.40    2.18
   8   0 -12   18.27    1.99
  -8   0  12   19.67    2.15
  -8   0  12   20.21    1.85
  -8   0  12   23.54    2.75
  -8   0  12   19.83    1.59
   8   0 -12   19.86    2.54
   7   0 -12    3.30    1.17
  -7   0  12    3.55    1.04
  -7   0  12    5.40    1.07
   7   0 -12    3.92    1.02
  -7   0  12    4.13    1.17
  -7   0  12    5.66    1.66
   7   0 -12    2.96    1.33
   7   0 -12    3.97    1.22
  -6   0  12   13.31    1.42
   6   0 -12   12.58    1.54
   6   0 -12   14.35    1.90
   6   0 -12   13.55    1.58
   6   0 -12   11.81    1.63
  -6   0  12    8.99    1.17
  -5   0  12    8.96    0.89
  -5   0  12    8.13    1.53
  -5   0  12    8.08    1.05
   5   0 -12    6.20    1.02
   5   0 -12    5.78    0.92
   5   0 -12    5.59    1.41
  -5   0  12    6.32    1.08
   5   0 -12    6.46    1.20
  -4   0  12    0.56    0.76
   4   0 -12    1.66    0.85
  -4   0  12    0.47    0.90
  -4   0  12    0.92    0.62
   4   0 -12   -0.40    0.82
   4   0 -12    0.57    0.82
  -4   0  12    0.78    1.17
  -3   0  12   22.62    1.98
   3   0 -12   24.70    1.64
  -3   0  12   25.77    1.25
   3   0 -12   24.47    1.64
   3   0 -12   23.48    1.64
  -3   0  12   27.81    1.60
  -3   0  12   26.29    1.44
   2   0 -12   20.27    1.54
  -2   0  12   20.61    1.33
  -2   0  12   22.13    1.53
   2   0 -12   19.44    1.61
  -2   0  12   21.57    1.98
  -2   0  12   20.40    1.10
  -1   0  12   36.73    1.86
  -1   0  12   36.89    1.42
   1   0 -12   38.28    1.91
  -1   0  12   39.75    1.58
  -1   0  12   40.08    2.32
   1   0 -12   37.28    1.81
   0   0 -12    0.00    0.93
   0   0  12   -0.22    0.49
   0   0 -12    0.62    0.78
   0   0  12   -0.80    0.73
   0   0  12    1.10    1.18
  -1   0 -12   -0.25    0.72
   1   0  12   -1.22    1.17
  -1   0 -12   -0.62    0.95
   1   0  12   -0.50    0.78
   1   0  12   -0.07    0.74
   1   0  12    0.33    0.54
  -2   0 -12    4.74    0.86
   2   0  12    5.03    0.73
   2   0  12    4.00    0.87
   2   0  12    4.86    1.01
  -2   0 -12    4.31    1.12
   2   0  12    5.85    1.39
   3   0  12   44.64    2.07
   3   0  12   45.19    1.67
   3   0  12   45.69    2.10
   3   0  12   41.20    1.79
  -3   0 -12   42.77    3.18
  -3   0 -12   45.52    1.90
   4   0  12   16.86    1.27
   4   0  12   17.74    2.28
   4   0  12   15.44    2.17
   4   0  12   17.18    1.65
   4   0  12   16.43    1.45
  -4   0 -12   15.39    1.40
  -4   0 -12   17.05    1.93
   5   0  12    6.15    1.99
   5   0  12    7.73    1.20
   5   0  12    9.91    1.81
  -5   0 -12    7.62    1.00
  -5   0 -12    6.25    1.35
   5   0  12    9.25    1.20
  -6   0 -12   14.56    1.59
  -6   0 -12   16.59    1.89
   6   0  12   17.02    2.23
   6   0  12   15.44    1.92
  -7   0 -12    0.79    1.19
   7   0  12   -1.46    1.18
  -7   0 -12    1.99    1.37
   8   0  12   10.76    1.58
  -8   0 -12    9.78    1.78
 -10  -1  12    3.38    1.04
 -10  -1  12   -1.35    1.63
  10  -1 -12    1.28    1.46
 -10  -1  12    2.41    1.26
  10  -1 -12   -2.28    1.77
  10   1 -12    5.20    2.11
 -10   1  12    1.89    1.55
  10   1 -12    1.58    1.33
 -10   1  12    1.57    2.05
 -10   1  12    0.11    1.11
 -10   1  12    0.16    1.22
  -9  -1  12    8.50    1.12
   9  -1 -12   11.24    1.78
  -9  -1  12    8.96    2.21
  -9  -1  12   10.44    1.45
  -9  -1  12    5.60    1.59
   9  -1 -12    9.63    1.71
  -9   1  12    4.21    1.29
  -9   1  12   10.81    2.51
   9   1 -12    8.48    1.89
  -9   1  12   11.20    2.24
  -9   1  12    7.94    1.27
   9   1 -12    8.18    1.41
  -8  -1  12   23.60    1.87
  -8  -1  12   28.54    2.86
  -8  -1  12   24.39    1.65
   8  -1 -12   25.47    2.17
  -8  -1  12   22.07    2.24
   8  -1 -12   27.19    2.18
  -8   1  12   24.95    2.40
   8   1 -12   21.28    2.61
   8   1 -12   25.02    2.16
  -8   1  12   25.61    1.74
  -8   1  12   26.83    2.02
  -8   1  12   29.26    2.70
   8   1 -12   27.07    2.75
   7  -1 -12   15.10    1.95
   7  -1 -12   12.80    2.13
  -7  -1  12   11.03    1.33
  -7  -1  12   11.42    1.26
   7  -1 -12   11.55    1.50
  -7  -1  12   15.78    1.95
  -7  -1  12   16.18    2.09
   7  -1 -12   13.69    1.58
   7   1 -12   14.30    1.61
  -7   1  12   12.14    1.45
   7   1 -12    8.37    2.03
  -7   1  12   14.29    1.95
  -7   1  12   11.68    1.38
  -7   1  12   11.09    1.50
   7   1 -12   13.47    1.79
  -6  -1  12    2.44    0.90
  -6  -1  12    2.72    1.51
   6  -1 -12    1.69    0.77
   6  -1 -12    3.36    1.13
  -6  -1  12    3.13    1.06
  -6  -1  12    1.96    0.72
   6  -1 -12    1.07    1.01
   6  -1 -12    0.74    1.14
   6   1 -12    2.66    1.20
  -6   1  12    1.43    0.91
   6   1 -12    1.78    1.02
  -6   1  12    1.89    0.79
  -6   1  12    1.59    1.32
  -6   1  12    1.07    1.12
   6   1 -12    2.03    0.99
  -5  -1  12    1.93    0.67
  -5  -1  12    2.12    0.97
  -5  -1  12    1.74    1.53
   5  -1 -12    0.35    0.90
  -5  -1  12    1.99    0.83
   5  -1 -12    1.29    0.96
  -5   1  12    2.00    1.07
  -5   1  12    1.28    1.21
  -5   1  12    0.61    0.87
   5   1 -12    2.96    0.96
   5   1 -12    0.88    1.16
  -5   1  12    1.68    0.74
  -4  -1  12   16.06    1.08
   4  -1 -12   17.22    1.53
   4  -1 -12   15.81    1.49
  -4  -1  12   14.52    1.90
  -4  -1  12   17.59    1.53
  -4  -1  12   13.82    1.24
   4  -1 -12   16.17    1.55
  -4   1  12   14.18    1.38
  -4   1  12   18.92    1.29
  -4   1  12   16.00    1.65
   4   1 -12   16.53    1.30
  -4   1  12   14.96    1.93
   4   1 -12   16.22    1.48
   3  -1 -12   11.19    1.43
   3  -1 -12   11.36    1.48
   3  -1 -12   13.14    1.36
  -3  -1  12   10.24    1.30
  -3  -1  12   13.50    1.19
  -3  -1  12   10.86    0.89
  -3  -1  12   14.26    1.68
   3   1 -12   12.39    1.38
  -3   1  12   12.97    1.88
  -3   1  12   11.12    1.47
   3   1 -12   12.11    1.42
  -3   1  12   10.83    1.22
  -3   1  12   11.58    1.13
  -2  -1  12    7.98    1.38
   2  -1 -12    7.41    1.14
  -2  -1  12    7.15    0.96
   2  -1 -12    8.07    1.03
   2  -1 -12    5.40    0.88
  -2  -1  12    8.02    0.96
  -2  -1  12    6.66    0.76
  -2   1  12    8.62    0.85
  -2   1  12    7.34    1.12
   2   1 -12    5.66    1.08
   2   1 -12    6.87    0.98
  -2   1  12    8.57    0.97
  -2   1  12    8.11    1.40
  -1  -1  12   15.03    1.28
  -1  -1  12   14.81    0.87
  -1  -1  12   14.66    1.88
  -1  -1  12   15.22    1.05
   1  -1 -12   16.75    1.43
   1  -1 -12   13.79    1.64
   1  -1 -12   15.24    1.29
  -1   1  12   14.93    1.49
  -1   1  12   15.88    1.25
  -1   1  12   15.23    1.12
  -1   1  12   15.23    1.87
   1   1 -12   18.05    1.61
   1   1 -12   15.95    1.40
   0  -1  12    5.53    1.45
   0  -1  12    5.79    0.85
   0  -1 -12    4.53    1.17
   0  -1 -12    5.14    0.89
   0  -1  12    5.59    0.58
   0   1  12    5.76    0.73
   0   1  12    6.35    1.40
   0   1 -12    5.09    0.86
   0   1 -12    6.12    1.19
   0   1  12    4.99    1.01
   0   1  12    4.46    0.57
   1  -1  12   23.86    1.50
   1  -1  12   26.49    2.13
  -1  -1 -12   27.54    1.89
  -1  -1 -12   24.76    1.58
   1  -1  12   24.29    1.11
   1   1  12   28.25    1.72
  -1   1 -12   27.33    1.51
   1   1  12   27.89    1.35
  -1   1 -12   24.81    1.85
   1   1  12   25.54    2.14
  -2  -1 -12   63.19    2.69
   2  -1  12   64.78    2.34
   2  -1  12   66.74    3.44
   2  -1  12   65.80    1.96
  -2  -1 -12   62.98    2.33
   2  -1  12   66.37    2.85
  -2   1 -12   65.89    2.37
  -2   1 -12   68.44    2.74
   2   1  12   62.51    2.56
   2   1  12   65.60    2.14
   2   1  12   66.82    2.95
   3  -1  12    1.11    1.01
   3  -1  12    1.93    0.61
   3  -1  12   -0.15    0.82
   3  -1  12    1.73    1.31
  -3  -1 -12    2.31    0.84
   3   1  12    0.65    0.91
   3   1  12    1.73    1.83
  -3   1 -12    0.27    0.75
   3   1  12    1.28    0.73
   4  -1  12    6.54    0.79
  -4  -1 -12    5.04    1.33
   4  -1  12    4.64    1.20
  -4  -1 -12    5.39    0.93
   4  -1  12    5.13    0.98
   4  -1  12    6.99    1.48
  -4   1 -12    5.18    0.95
  -4   1 -12    5.19    1.27
   4   1  12    6.49    0.88
   4   1  12    4.65    1.27
   4   1  12    3.80    1.34
   5  -1  12    3.94    1.54
   5  -1  12    3.22    1.08
   5  -1  12    4.56    1.32
  -5  -1 -12    5.43    0.94
   5  -1  12    5.36    1.16
  -5  -1 -12    4.25    1.27
  -5   1 -12    4.54    0.93
   5   1  12    3.51    1.16
  -5   1 -12    4.01    0.91
  -5   1 -12    3.38    1.33
   5   1  12    8.29    1.78
   6  -1  12    1.42    1.45
  -6  -1 -12    1.99    1.15
   6  -1  12    2.36    1.16
  -6  -1 -12    1.98    1.45
   6  -1  12    2.89    1.82
  -6  -1 -12    0.82    1.20
   6   1  12    2.76    1.26
   6   1  12    0.95    0.90
  -6   1 -12    1.93    1.47
   7  -1  12    4.66    1.22
  -7  -1 -12    4.81    1.30
   7  -1  12    2.37    1.35
  -7  -1 -12    0.86    1.56
   7  -1  12    3.46    1.57
  -7   1 -12    2.48    1.54
   7   1  12    2.16    1.40
  -8  -1 -12   -0.50    1.52
  -8  -1 -12    1.92    1.46
   8   1  12    2.36    1.51
  -8   1 -12    1.32    1.54
 -10  -2  12   12.75    1.50
 -10  -2  12   14.92    1.90
  10   2 -12    9.25    1.61
  10   2 -12   13.17    2.15
 -10   2  12    9.96    1.36
  -9  -2  12    1.61    1.49
   9  -2 -12    5.37    1.64
  -9  -2  12    4.73    1.24
  -9  -2  12    6.38    2.20
   9   2 -12    3.35    1.91
  -9   2  12    8.85    2.08
  -9   2  12    5.20    1.23
   9   2 -12    4.84    1.43
  -9   2  12    4.42    1.39
  -9   2  12    5.00    1.67
  -8  -2  12   27.96    1.86
   8  -2 -12   23.17    2.23
   8  -2 -12   24.48    2.18
  -8  -2  12   18.24    2.09
  -8  -2  12   25.16    2.92
  -8  -2  12   24.43    2.13
   8   2 -12   22.09    2.16
  -8   2  12   23.50    1.88
  -8   2  12   22.82    2.43
   8   2 -12   21.09    2.64
   8   2 -12   25.11    2.30
  -8   2  12   28.13    2.66
  -8   2  12   21.42    1.85
  -7  -2  12    5.77    1.43
  -7  -2  12    4.58    0.80
  -7  -2  12    7.02    1.75
   7  -2 -12    3.78    1.27
   7  -2 -12    3.59    1.20
  -7  -2  12    3.15    1.01
  -7   2  12    5.81    1.46
  -7   2  12    3.18    0.90
  -7   2  12    4.17    1.20
   7   2 -12    5.44    1.27
   7   2 -12    4.21    1.34
   7   2 -12    6.69    1.22
  -7   2  12    6.20    1.68
  -6  -2  12    5.54    1.14
  -6  -2  12    5.96    0.76
   6  -2 -12    5.95    1.22
  -6  -2  12    6.56    1.01
  -6  -2  12    6.11    1.64
  -6   2  12    5.88    1.20
  -6   2  12    5.99    1.31
   6   2 -12    5.84    1.12
  -6   2  12    7.84    0.99
  -6   2  12    8.67    1.58
   5  -2 -12   57.64    2.48
  -5  -2  12   57.85    1.88
  -5  -2  12   55.42    2.13
  -5  -2  12   57.33    2.89
   5  -2 -12   55.62    2.47
  -5  -2  12   57.57    2.32
  -5   2  12   59.54    2.15
  -5   2  12   55.77    2.21
  -5   2  12   55.69    2.81
   5   2 -12   60.51    2.41
  -5   2  12   55.17    2.74
  -4  -2  12   27.03    1.63
   4  -2 -12   24.74    1.78
   4  -2 -12   25.89    1.80
   4  -2 -12   25.49    1.79
  -4  -2  12   25.05    1.14
  -4  -2  12   25.40    1.42
  -4   2  12   25.04    2.11
  -4   2  12   26.08    1.48
  -4   2  12   25.17    1.67
  -4   2  12   25.14    1.88
   4   2 -12   24.08    1.74
  -3  -2  12   48.21    2.00
  -3  -2  12   49.43    1.80
  -3  -2  12   50.87    2.50
   3  -2 -12   51.88    2.18
  -3  -2  12   49.32    1.53
   3  -2 -12   50.14    2.21
   3  -2 -12   51.83    2.11
  -3   2  12   51.31    2.34
  -3   2  12   49.29    1.93
   3   2 -12   50.13    2.09
   3   2 -12   49.87    2.07
  -3   2  12   48.66    2.49
  -3   2  12   49.33    2.06
   2  -2 -12   24.52    1.63
  -2  -2  12   26.87    1.26
   2  -2 -12   28.18    1.59
  -2  -2  12   25.80    1.46
   2  -2 -12   28.21    1.77
  -2  -2  12   25.36    2.11
  -2   2  12   28.60    1.46
   2   2 -12   30.37    1.80
  -2   2  12   27.49    2.16
  -2   2  12   28.41    1.86
  -2   2  12   28.22    1.60
   2   2 -12   26.85    1.73
  -1  -2  12   15.33    1.21
  -1  -2  12   12.76    1.85
  -1  -2  12   15.39    0.59
   1  -2 -12   15.71    1.67
   1  -2 -12   13.83    1.39
   1  -2 -12   14.85    1.30
   1   2 -12   17.85    1.73
  -1   2  12   14.32    1.64
  -1   2  12   15.59    1.26
  -1   2  12   14.67    1.89
  -1   2  12   14.38    1.35
   1   2 -12   15.73    1.50
   0  -2 -12   85.73    2.99
   0  -2  12   82.73    3.32
   0  -2 -12   83.88    2.59
   0  -2 -12   83.27    2.78
   0  -2  12   81.98    2.59
   0  -2  12   83.95    2.25
   0   2 -12   82.87    2.74
   0   2 -12   83.90    3.02
   0   2  12   84.40    2.59
   0   2  12   81.95    2.96
   0   2  12   83.01    3.15
   1  -2  12   13.05    1.89
  -1  -2 -12   13.31    1.40
  -1  -2 -12   12.56    1.71
  -1  -2 -12   13.41    1.14
   1  -2  12   13.18    1.21
   1   2  12   11.17    1.14
  -1   2 -12   12.43    1.72
  -1   2 -12   10.89    1.40
   1   2  12   13.72    1.58
   1   2  12   13.05    1.59
  -2  -2 -12   28.13    1.67
  -2  -2 -12   29.12    1.87
   2  -2  12   30.13    2.06
   2  -2  12   28.07    1.53
  -2   2 -12   29.68    1.67
  -2   2 -12   30.36    2.16
   2   2  12   28.41    1.50
   2   2  12   26.89    1.94
   2   2  12   27.50    2.26
  -3  -2 -12   12.21    1.47
   3  -2  12   12.48    1.42
   3  -2  12   13.84    1.34
   3  -2  12   11.86    1.67
  -3  -2 -12   14.71    1.46
  -3   2 -12   13.76    1.44
  -3   2 -12   13.01    1.61
   3   2  12   13.49    1.28
   3   2  12   11.48    1.83
   4  -2  12    5.35    1.01
  -4  -2 -12    4.41    1.40
   4  -2  12    4.88    1.33
   4  -2  12    3.32    1.57
  -4  -2 -12    4.38    1.05
  -4   2 -12    5.32    1.44
  -4   2 -12    2.81    1.48
   4   2  12    3.40    1.56
   4   2  12    2.93    1.16
   4   2  12    7.06    1.30
  -5  -2 -12   18.94    2.17
   5  -2  12   15.89    2.34
   5  -2  12   18.85    1.60
   5  -2  12   18.60    2.44
  -5   2 -12   20.73    2.28
  -5   2 -12   17.30    1.80
   5   2  12   22.31    1.59
   5   2  12   21.11    2.04
   5   2  12   21.14    2.45
   6  -2  12    8.55    1.66
  -6  -2 -12    9.35    1.57
   6  -2  12   10.71    2.02
  -6  -2 -12   13.03    1.56
   6  -2  12    9.08    1.44
  -6   2 -12   11.92    1.77
   6   2  12    9.54    1.51
   6   2  12   12.41    1.60
  -6   2 -12    9.56    1.10
   7  -2  12   18.10    2.47
  -7  -2 -12   21.89    2.58
   7  -2  12   29.40    2.95
   7  -2  12   20.39    2.87
  -7  -2 -12   23.16    2.20
  -7   2 -12   21.28    2.55
   7   2  12   21.19    1.92
   7   2  12   19.59    2.50
   8  -2  12    3.67    1.56
   8  -2  12    6.52    2.02
  -8  -2 -12    3.45    1.51
   8   2  12    5.93    1.52
 -10  -3  12    1.84    1.17
  -9  -3  12   30.08    3.26
  -9  -3  12   31.17    2.12
   9  -3 -12   24.41    2.47
  -9   3  12   19.49    2.00
   9   3 -12   25.25    2.52
  -9   3  12   27.10    2.18
   9   3 -12   29.48    3.11
  -9   3  12   30.10    2.85
   8  -3 -12   14.44    1.83
   8  -3 -12   13.04    1.58
  -8  -3  12   18.66    2.46
  -8  -3  12   16.22    1.63
  -8  -3  12   13.57    1.87
   8   3 -12   15.62    2.26
  -8   3  12   13.37    1.74
  -8   3  12   10.90    1.78
   8   3 -12   12.81    1.92
   8   3 -12   11.21    1.52
  -8   3  12   12.29    1.55
  -7  -3  12   12.55    2.08
   7  -3 -12   11.27    1.46
   7  -3 -12    9.57    1.50
  -7  -3  12   10.30    1.33
  -7  -3  12   13.48    1.57
  -7   3  12   12.58    1.52
   7   3 -12   12.17    1.48
  -7   3  12   10.91    1.21
  -7   3  12    9.02    1.65
   7   3 -12    9.96    1.52
   7   3 -12   10.31    1.89
   6  -3 -12   11.46    1.51
  -6  -3  12    8.37    1.07
  -6  -3  12    6.96    1.14
  -6  -3  12   10.94    1.89
   6  -3 -12    7.81    1.26
  -6   3  12    9.70    1.58
  -6   3  12    6.43    1.18
   6   3 -12    6.81    1.22
  -6   3  12    6.01    1.00
  -6   3  12    7.98    1.65
   6   3 -12    9.01    1.70
   5  -3 -12    6.63    1.31
  -5  -3  12    3.85    0.88
  -5  -3  12    2.23    0.95
   5  -3 -12    3.72    1.72
  -5  -3  12    5.52    1.47
   5  -3 -12    4.95    1.18
  -5   3  12    4.31    1.21
  -5   3  12    4.82    1.19
  -5   3  12    4.30    1.47
   5   3 -12    3.54    1.08
  -5   3  12    5.36    0.95
  -4  -3  12   23.45    1.77
  -4  -3  12   22.64    1.51
   4  -3 -12   19.80    1.88
   4  -3 -12   21.99    3.16
  -4  -3  12   19.15    2.15
   4  -3 -12   23.41    1.79
   4   3 -12   23.42    2.16
  -4   3  12   22.86    2.17
  -4   3  12   20.81    1.97
  -4   3  12   22.87    1.67
  -4   3  12   21.15    2.34
   3  -3 -12   17.70    1.67
   3  -3 -12   18.47    1.85
  -3  -3  12   20.64    2.16
  -3  -3  12   21.87    1.22
  -3  -3  12   23.42    1.32
  -3   3  12   22.63    1.52
  -3   3  12   21.99    2.08
   3   3 -12   23.71    1.82
  -2  -3  12   18.93    1.00
  -2  -3  12   17.12    1.13
   2  -3 -12   14.89    1.83
   2  -3 -12   19.01    1.54
   2   3 -12   15.00    1.76
  -2   3  12   17.17    1.53
  -2   3  12   15.68    1.97
  -2   3  12   16.85    1.98
  -2   3  12   17.11    1.40
   1  -3 -12   43.40    2.42
   1  -3 -12   42.57    2.31
  -1  -3  12   45.10    2.67
   1  -3 -12   44.91    1.93
  -1   3  12   45.07    2.30
  -1   3  12   45.04    1.86
   1   3 -12   40.07    2.72
   1   3 -12   44.18    2.31
  -1   3  12   44.36    2.41
   0  -3 -12   31.61    2.51
   0  -3 -12   37.10    1.70
   0  -3  12   33.97    3.46
   0  -3 -12   36.26    2.18
   0   3 -12   39.25    2.20
   0   3  12   36.73    2.27
   0   3  12   35.94    2.18
   0   3 -12   32.93    2.39
   0   3  12   35.84    1.70
  -1  -3 -12   20.16    1.94
  -1  -3 -12   20.10    1.32
   1   3  12   17.54    2.10
   1   3  12   17.15    1.38
  -1   3 -12   17.09    1.93
  -2  -3 -12    0.58    1.74
   2  -3  12    2.13    1.29
  -2  -3 -12    1.71    1.25
   2   3  12    0.12    1.04
   2   3  12    2.49    1.29
  -2   3 -12    0.52    0.94
  -3  -3 -12    2.09    1.29
   3  -3  12    0.84    1.23
   3  -3  12    0.74    1.42
  -3  -3 -12    0.94    0.94
   3   3  12    2.22    0.84
   3   3  12    1.17    1.20
  -3   3 -12    1.10    0.84
  -3   3 -12    2.24    1.38
   4  -3  12   22.44    2.41
   4  -3  12   15.61    1.72
  -4  -3 -12   20.49    2.18
  -4  -3 -12   19.03    1.59
  -4   3 -12   16.07    1.62
   4   3  12   21.63    2.10
   4   3  12   24.76    2.35
   4   3  12   19.48    1.57
  -4   3 -12   16.70    2.18
   5  -3  12    1.20    1.44
   5  -3  12    0.88    1.62
  -5  -3 -12   -1.14    0.89
  -5  -3 -12    0.28    1.43
  -5   3 -12   -1.03    1.47
   5   3  12    1.37    1.40
   5   3  12    0.31    0.99
  -5   3 -12    0.92    0.97
   6  -3  12   34.19    3.13
   6  -3  12   33.05    2.58
   6  -3  12   38.24    3.25
  -6  -3 -12   36.72    1.92
  -6  -3 -12   42.52    2.83
  -6   3 -12   35.19    2.51
  -6   3 -12   38.16    2.80
   6   3  12   36.57    2.10
   6   3  12   37.08    2.66
  -7  -3 -12    0.01    1.42
   7  -3  12    4.23    1.87
   7  -3  12   -1.75    1.44
  -7  -3 -12    1.14    1.60
   7  -3  12   -0.34    1.69
  -7   3 -12    0.76    1.63
   7   3  12    0.82    1.09
   7   3  12    2.44    1.55
   8  -3  12   -0.92    1.46
   8  -3  12   -1.10    1.68
   9   4 -12    3.17    1.45
   8  -4 -12   12.55    1.72
  -8  -4  12   21.58    3.04
   8  -4 -12   17.95    2.08
  -8   4  12   18.13    1.91
   8   4 -12   11.74    1.79
  -8   4  12   12.67    2.00
   8   4 -12   11.81    1.70
   8   4 -12   13.72    2.32
  -8   4  12   13.94    1.83
  -7  -4  12    2.92    1.93
   7  -4 -12   -0.74    1.34
   7  -4 -12   -0.64    1.48
  -7   4  12    0.55    1.31
   7   4 -12    3.67    1.35
  -7   4  12   -0.61    1.57
  -7   4  12   -0.39    1.00
   7   4 -12   -1.14    1.42
  -6  -4  12    9.62    1.94
   6  -4 -12    9.39    1.39
   6  -4 -12    7.18    1.47
  -6   4  12    7.12    1.12
   6   4 -12    8.05    1.33
  -6   4  12    6.61    1.40
  -6   4  12    7.81    1.60
   5  -4 -12   18.12    1.95
  -5  -4  12   16.28    2.43
   5  -4 -12   18.84    2.30
   5  -4 -12   18.35    1.99
  -5   4  12   19.66    1.82
   5   4 -12   19.63    1.99
  -5   4  12   19.23    2.17
  -5   4  12   17.34    1.67
   4  -4 -12    5.92    1.18
   4  -4 -12    8.12    1.44
  -4  -4  12    5.56    1.65
   4  -4 -12    6.29    1.19
  -4   4  12    6.01    1.37
  -4   4  12    9.17    1.31
  -4   4  12    6.85    1.15
   4   4 -12    5.63    1.17
   3  -4 -12    4.58    1.32
  -3  -4  12    3.34    1.47
   3  -4 -12    2.75    1.09
   3   4 -12    1.86    1.27
  -3   4  12    2.39    1.29
  -3   4  12    3.52    1.05
  -3   4  12    4.74    1.01
   3   4 -12    4.05    1.08
  -3   4  12    4.14    1.30
   2  -4 -12   39.20    2.03
   2  -4 -12   43.88    2.33
  -2  -4  12   37.89    2.56
   2  -4 -12   38.90    2.05
  -2   4  12   42.77    1.89
   2   4 -12   39.73    2.12
  -2   4  12   39.93    2.36
  -2   4  12   40.19    2.03
   2   4 -12   40.34    2.30
  -2   4  12   37.63    2.39
   1  -4 -12    4.32    0.99
  -1  -4  12    4.86    1.45
   1  -4 -12    4.40    0.97
   1  -4 -12    4.76    1.43
  -1   4  12    4.43    1.38
   1   4 -12    5.79    1.35
  -1   4  12    4.39    0.97
   1   4 -12    6.14    1.13
  -1   4  12    3.32    1.18
   0  -4 -12    8.37    1.08
   0  -4 -12    7.15    1.15
   0  -4 -12    8.89    1.47
   0  -4  12    9.66    1.67
   0   4  12    8.71    1.02
   0   4 -12    8.43    1.15
   0   4  12    8.56    1.40
   0   4 -12    9.59    1.44
   0   4  12    9.94    1.51
  -1  -4 -12   12.31    1.56
  -1  -4 -12   19.35    1.65
   1  -4  12   17.38    2.16
  -1  -4 -12   14.95    1.37
  -1   4 -12   13.59    1.61
  -1   4 -12   11.80    2.59
   1   4  12   13.15    2.00
   1   4  12   17.36    1.48
   1   4  12   16.82    1.91
   2  -4  12   25.70    1.81
  -2  -4 -12   27.01    1.82
   2  -4  12   21.06    2.30
  -2  -4 -12   25.58    2.30
  -2   4 -12   24.21    1.82
   2   4  12   25.03    1.67
  -2   4 -12   26.63    2.33
   2   4  12   26.58    2.20
   2   4  12   26.76    2.33
   3  -4  12   10.62    1.46
  -3  -4 -12   10.80    1.24
   3  -4  12    8.89    1.71
  -3  -4 -12    7.16    1.55
   3  -4  12    6.77    1.48
   3   4  12    9.56    1.64
  -3   4 -12   10.00    1.22
  -3   4 -12    8.56    1.61
   3   4  12    8.16    1.14
   4  -4  12    6.10    1.59
   4  -4  12   10.36    1.81
  -4  -4 -12    8.47    1.26
  -4  -4 -12    8.89    1.62
  -4   4 -12    8.49    1.73
  -4   4 -12    8.08    1.13
   4   4  12    9.59    1.67
   4   4  12    7.05    1.16
  -5  -4 -12   17.57    2.41
  -5  -4 -12   18.81    1.79
   5  -4  12   21.19    2.86
   5  -4  12   14.24    1.92
  -5   4 -12   17.54    2.19
   5   4  12   14.88    1.89
  -5   4 -12   17.70    1.74
   5   4  12   17.69    1.86
   6  -4  12    2.22    1.81
  -6  -4 -12    3.96    1.76
   6  -4  12    4.26    1.93
  -6   4 -12    5.91    1.89
  -6   4 -12    4.05    1.05
   6   4  12    4.81    1.73
   6   4  12    6.04    1.35
   7  -4  12   11.08    2.07
   7  -4  12    6.83    1.72
   8  -5 -12    2.08    1.54
   7  -5 -12    6.74    1.54
   7  -5 -12    8.33    1.69
  -7  -5  12   12.46    2.21
  -7   5  12   10.89    1.49
   7   5 -12   10.68    1.67
  -7   5  12   10.03    2.00
  -7   5  12   10.83    1.78
  -6  -5  12    8.24    2.04
   6  -5 -12    7.34    1.72
   6  -5 -12    7.18    1.46
  -6   5  12    7.32    1.59
   6   5 -12    4.52    1.47
  -6   5  12    2.42    1.70
  -6   5  12    6.31    1.32
   5  -5 -12    3.67    1.46
   5  -5 -12    3.52    1.39
  -5  -5  12    7.24    1.93
   5   5 -12    3.94    1.28
  -5   5  12    2.16    1.21
  -5   5  12    3.34    1.40
  -5   5  12    2.67    1.56
   4  -5 -12   35.96    3.13
   4  -5 -12   41.54    2.39
  -4  -5  12   43.11    2.91
   4  -5 -12   41.41    2.43
  -4   5  12   46.61    2.21
  -4   5  12   38.76    2.75
   4   5 -12   40.99    2.43
  -4   5  12   45.09    2.37
   3  -5 -12   11.14    1.63
   3  -5 -12   11.80    1.43
   3  -5 -12   12.88    1.75
  -3  -5  12   12.70    1.88
  -3   5  12   16.02    1.78
   3   5 -12   14.01    1.51
  -3   5  12   16.14    2.18
  -3   5  12   12.66    1.66
  -2  -5  12   12.16    1.87
   2  -5 -12   11.22    1.62
   2  -5 -12    8.89    1.54
   2  -5 -12    7.61    1.28
  -2   5  12    8.84    1.16
   2   5 -12    7.76    1.23
  -2   5  12    7.62    1.56
  -1  -5  12   24.85    2.39
   1  -5 -12   21.62    2.27
   1  -5 -12   21.12    1.90
   1  -5 -12   23.80    1.84
   1   5 -12   26.52    1.93
   1   5 -12   25.93    2.48
  -1   5  12   24.36    1.77
  -1   5  12   20.93    2.26
   0  -5 -12   11.33    1.37
   0  -5 -12   10.46    1.61
   0  -5 -12   10.86    1.27
   0  -5  12   13.79    1.96
   0   5 -12   12.99    1.71
   0   5 -12    9.61    1.71
   0   5  12   12.53    1.63
   0   5  12    9.54    1.23
   1  -5  12    8.47    1.73
  -1  -5 -12    8.30    1.68
  -1  -5 -12    6.66    1.16
   1  -5  12    8.57    1.30
  -1  -5 -12    8.78    1.28
   1   5  12    4.25    1.40
  -1   5 -12    7.57    1.21
   1   5  12    7.61    1.18
  -1   5 -12    6.02    1.54
   2  -5  12    2.87    1.60
   2  -5  12    2.54    1.52
  -2  -5 -12    6.62    1.61
  -2  -5 -12    1.47    1.12
  -2   5 -12    5.47    1.73
   2   5  12    3.03    1.11
  -2   5 -12    3.73    1.13
   2   5  12    2.60    1.50
  -3  -5 -12    1.87    1.12
   3  -5  12    0.06    1.48
  -3  -5 -12   -0.63    1.58
   3  -5  12    0.54    1.68
   3   5  12    0.66    1.51
   3   5  12   -0.01    1.00
  -3   5 -12    0.60    1.69
  -3   5 -12    0.13    1.06
  -4  -5 -12    2.21    1.73
   4  -5  12    1.87    1.83
   4  -5  12   -0.14    1.56
  -4  -5 -12    0.89    1.13
   4   5  12    1.71    1.59
   4   5  12    1.08    1.12
  -4   5 -12    2.40    1.74
  -4   5 -12   -0.58    1.06
   5  -5  12    2.28    1.90
  -5  -5 -12    2.50    1.78
  -5  -5 -12   -1.40    1.19
   5  -5  12    1.84    1.82
  -5   5 -12    3.56    1.15
  -5   5 -12    5.44    1.89
   5   5  12    2.51    1.17
   5   5  12   -0.51    1.67
   6  -5  12    4.08    1.90
   6  -5  12   -0.17    1.65
  -6   5 -12    2.25    1.07
   7  -6 -12    3.57    1.51
   7   6 -12    4.95    1.72
  -6  -6  12   21.75    2.95
   6  -6 -12   14.12    1.82
   6  -6 -12   14.82    1.81
   6   6 -12   15.24    1.77
  -6   6  12    9.89    1.40
  -6   6  12    9.73    2.01
  -6   6  12   12.19    1.66
   5  -6 -12   22.85    2.44
  -5  -6  12   23.86    3.03
   5  -6 -12   16.78    2.41
  -5   6  12   23.98    2.88
  -5   6  12   23.33    2.25
   5   6 -12   23.83    2.38
  -4  -6  12   19.89    2.37
   4  -6 -12   20.45    2.70
   4  -6 -12   21.90    2.26
   4   6 -12   15.88    1.77
  -4   6  12   15.89    2.09
  -4   6  12   13.58    1.88
  -4   6  12   16.93    1.90
   3  -6 -12    4.40    1.66
   3  -6 -12   -0.15    1.25
   3  -6 -12    0.53    1.32
  -3  -6  12   -0.90    1.72
   3   6 -12   -1.45    1.30
  -3   6  12   -2.05    1.45
  -3   6  12   -0.72    1.05
   2  -6 -12   -1.81    1.18
   2  -6 -12    1.49    1.57
  -2  -6  12    2.33    1.78
   2  -6 -12    0.73    1.29
  -2   6  12    2.22    1.57
   2   6 -12    0.05    1.23
  -2   6  12    1.16    1.20
   1  -6 -12   20.14    1.98
  -1  -6  12   25.45    2.34
  -1  -6  12   18.93    2.57
   1  -6 -12   22.41    2.13
  -1   6  12   20.70    2.55
  -1   6  12   24.41    1.99
   1   6 -12   21.46    2.11
   0  -6  12   16.36    2.09
   0  -6 -12   16.30    2.02
   0  -6 -12   21.36    2.63
   0  -6  12   18.17    2.14
   0  -6 -12   15.58    1.82
   0   6 -12   15.82    2.03
   0   6  12   19.70    1.92
   0   6  12   12.68    1.71
   1  -6  12    3.33    1.70
  -1  -6 -12    1.63    1.71
  -1  -6 -12    4.27    1.27
   1  -6  12    4.05    1.34
  -1   6 -12    2.44    1.84
  -1   6 -12    2.50    1.17
   1   6  12    2.67    1.14
   1   6  12    4.35    1.66
   2  -6  12   -1.83    1.57
  -2  -6 -12   -0.72    1.61
  -2  -6 -12    0.67    1.21
   2  -6  12    1.17    1.34
  -2   6 -12    1.38    1.76
   2   6  12    2.53    1.69
  -2   6 -12    3.22    1.27
   2   6  12    3.40    1.28
  -3  -6 -12    0.34    1.24
  -3  -6 -12    5.09    1.83
   3  -6  12    4.01    1.82
   3  -6  12    0.37    1.78
   3   6  12    3.17    1.27
   3   6  12    4.65    1.81
  -3   6 -12   -0.82    1.84
  -3   6 -12    1.76    1.27
  -4  -6 -12    4.17    1.33
   4  -6  12    4.54    1.81
  -4  -6 -12    6.70    1.81
   4  -6  12    6.07    2.02
  -4   6 -12    5.82    1.99
   4   6  12    5.23    1.66
  -4   6 -12    5.76    1.26
   4   6  12    5.15    1.19
  -5  -6 -12    6.87    1.29
   5  -6  12    7.59    1.95
  -5   6 -12    7.91    1.26
   5   7 -12   -1.35    2.00
  -4  -7  12    9.05    1.97
  -4  -7  12    7.73    1.76
   4  -7 -12    8.76    2.15
   4  -7 -12    6.09    1.54
  -4   7  12    6.93    1.81
   4   7 -12    9.71    1.64
  -3  -7  12    3.73    1.46
   3  -7 -12   -0.78    1.83
   3  -7 -12   -0.80    1.44
  -3  -7  12    0.92    1.91
   3   7 -12    0.87    1.39
  -3   7  12    0.06    1.15
  -3   7  12    2.46    1.64
  -2  -7  12    2.64    1.97
   2  -7 -12    1.96    1.43
  -2  -7  12    3.70    1.49
   2  -7 -12    3.69    1.87
  -2   7  12    3.57    1.27
  -2   7  12    0.91    1.64
   2   7 -12    1.13    1.35
   1  -7 -12    8.07    1.50
  -1  -7  12    7.77    2.00
   1  -7 -12    7.79    2.04
  -1  -7  12   10.31    1.58
   1   7 -12    9.46    1.53
  -1   7  12    9.42    1.96
  -1   7  12    9.78    1.47
   0  -7  12    3.94    1.80
   0  -7  12    2.77    1.52
   0  -7 -12    2.97    1.92
   0   7  12    5.73    1.79
   0   7  12    4.75    1.36
   0   7 -12    3.17    1.27
  -1  -7 -12    6.52    2.02
   1  -7  12    2.55    1.88
   1  -7  12    2.99    1.51
   1   7  12    3.70    1.76
   1   7  12    3.96    1.23
  -1   7 -12    4.36    1.32
   2  -7  12    3.61    1.66
   2  -7  12    1.91    1.93
  -2  -7 -12    4.69    1.24
  -2   7 -12    4.74    1.30
   2   7  12    3.04    2.34
   3  -7  12   24.09    2.91
  -2  -8  12    0.58    2.15
  -1  -8  12   -3.05    1.70
 -10   0  13   10.19    2.26
 -10   0  13    1.86    1.15
  10   0 -13    4.13    1.93
  -9   0  13    4.29    2.10
  -9   0  13    0.38    1.22
   9   0 -13    4.55    1.79
  -9   0  13    2.14    1.12
  -9   0  13   -0.79    1.58
  -8   0  13    2.11    1.15
   8   0 -13    0.95    1.58
  -8   0  13    2.97    1.02
  -8   0  13    4.47    1.48
   8   0 -13    3.69    1.36
  -8   0  13    5.94    2.02
  -7   0  13   -1.08    1.52
  -7   0  13   -0.66    1.22
   7   0 -13    0.70    1.20
  -7   0  13   -1.85    1.03
  -7   0  13   -1.32    0.78
  -6   0  13   -0.24    0.97
   6   0 -13   -0.75    1.29
   6   0 -13    1.30    1.19
  -6   0  13   -0.49    1.07
   6   0 -13   -0.16    1.04
  -6   0  13   -0.13    0.79
  -6   0  13    1.27    1.44
   5   0 -13    5.11    1.17
   5   0 -13    4.24    1.18
  -5   0  13    2.87    1.15
  -5   0  13    3.07    0.82
  -5   0  13    4.66    1.55
  -4   0  13    3.62    0.94
  -4   0  13    2.41    1.05
  -4   0  13    3.67    0.79
   4   0 -13    2.19    1.08
  -3   0  13    8.44    1.20
  -3   0  13    6.90    0.96
  -3   0  13    6.71    1.60
   3   0 -13    7.05    1.22
  -3   0  13    7.66    0.83
  -2   0  13    3.99    1.45
  -2   0  13    5.78    0.90
  -2   0  13    7.09    1.12
  -2   0  13    5.16    0.73
   2   0 -13    7.50    1.26
   1   0 -13    2.66    1.13
  -1   0  13    2.51    0.63
  -1   0  13    1.35    1.37
  -1   0  13    0.64    0.91
   0   0  13   57.01    2.31
   0   0 -13   57.40    2.56
   0   0  13   58.81    1.92
   0   0  13   59.65    2.92
   0   0 -13   58.64    3.30
  -1   0 -13    6.77    1.35
   1   0  13    3.31    0.87
   1   0  13    5.17    0.73
   1   0  13    4.47    0.99
  -2   0 -13   61.08    2.85
   2   0  13   59.54    2.49
  -2   0 -13   62.25    2.78
   2   0  13   60.78    2.97
   2   0  13   65.04    2.10
   3   0  13    1.21    0.97
  -3   0 -13    0.85    0.85
   3   0  13    0.66    0.72
  -3   0 -13    0.71    1.28
   3   0  13    0.86    1.48
  -4   0 -13    6.31    1.39
   4   0  13    8.39    0.94
  -4   0 -13    6.87    1.02
   4   0  13    7.25    1.71
  -5   0 -13    8.51    1.64
   5   0  13   10.48    1.37
   5   0  13   10.74    2.12
  -5   0 -13    6.69    1.06
  -6   0 -13    4.11    1.52
   6   0  13    3.99    1.35
   6   0  13    3.26    1.96
  -6   0 -13    4.16    0.94
  -7   0 -13    8.13    1.75
   7   0  13   11.24    1.66
   8   0  13   30.10    2.36
 -10  -1  13    3.54    1.84
 -10   1  13   24.00    3.12
  -9  -1  13   32.32    3.38
   9  -1 -13   31.52    2.51
  -9  -1  13   24.64    2.61
  -9  -1  13   26.94    2.28
  -9  -1  13   31.40    1.86
  -9   1  13   39.18    3.50
  -9   1  13   30.48    2.27
  -9   1  13   31.52    2.15
  -9   1  13   29.33    2.80
   9   1 -13   30.08    2.36
   9   1 -13   25.18    3.04
   8  -1 -13    3.33    1.34
  -8  -1  13    3.23    0.99
   8  -1 -13    4.49    1.42
  -8  -1  13    5.94    1.47
  -8  -1  13    3.15    1.20
  -8  -1  13    7.87    2.12
  -8   1  13    5.38    1.87
   8   1 -13    6.01    1.65
  -8   1  13    2.40    1.34
   8   1 -13    4.02    1.52
  -8   1  13    3.78    1.05
  -8   1  13    4.95    1.61
   8   1 -13    3.94    1.34
  -7  -1  13    1.80    0.99
   7  -1 -13    1.72    1.24
  -7  -1  13    2.53    1.72
  -7  -1  13    3.01    1.23
  -7  -1  13    2.13    1.10
   7  -1 -13    2.46    1.62
   7  -1 -13    2.87    1.26
   7   1 -13    1.63    1.22
  -7   1  13    3.69    1.69
  -7   1  13    1.03    0.90
  -7   1  13    1.62    1.09
  -7   1  13    2.63    1.33
   7   1 -13    4.73    1.54
   6  -1 -13   12.62    1.76
  -6  -1  13   11.37    1.78
  -6  -1  13   10.83    1.30
  -6  -1  13   12.71    1.56
   6  -1 -13   11.08    1.38
   6  -1 -13    9.76    1.45
   6   1 -13   11.05    1.37
  -6   1  13   11.50    1.73
  -6   1  13   12.35    1.55
  -6   1  13    9.58    1.07
  -6   1  13   10.21    1.27
   6   1 -13   11.12    1.93
  -5  -1  13   80.73    3.49
  -5  -1  13   85.02    3.00
   5  -1 -13   84.88    3.03
  -5  -1  13   85.52    2.58
  -5  -1  13   84.85    2.81
   5  -1 -13   82.35    3.01
  -5   1  13   82.10    2.71
   5   1 -13   82.06    3.02
  -5   1  13   87.18    3.18
  -5   1  13   82.95    2.87
   4  -1 -13   25.96    1.82
  -4  -1  13   25.15    1.35
  -4  -1  13   23.50    1.79
   4  -1 -13   26.41    1.81
   4  -1 -13   22.13    2.28
  -4  -1  13   27.40    1.54
  -4  -1  13   28.51    2.39
  -4   1  13   29.25    1.57
  -4   1  13   28.22    2.22
  -4   1  13   26.86    2.28
   4   1 -13   27.76    1.90
   3  -1 -13   30.59    1.75
   3  -1 -13   33.39    2.03
  -3  -1  13   29.65    1.32
  -3  -1  13   29.96    1.79
  -3  -1  13   29.10    1.50
   3  -1 -13   29.97    1.99
  -3  -1  13   26.48    2.70
   3   1 -13   34.92    3.09
  -3   1  13   29.54    1.96
  -3   1  13   32.47    1.72
  -3   1  13   29.60    1.51
  -3   1  13   30.61    2.29
   3   1 -13   31.51    1.97
   2  -1 -13   29.54    3.04
  -2  -1  13   37.56    1.87
   2  -1 -13   35.11    1.78
  -2  -1  13   36.76    1.58
  -2  -1  13   33.72    1.37
   2  -1 -13   36.52    2.14
   2   1 -13   33.77    2.07
  -2   1  13   33.61    1.69
  -2   1  13   32.74    1.50
  -2   1  13   34.78    2.39
  -2   1  13   32.13    1.99
  -1  -1  13   10.15    1.41
  -1  -1  13   11.05    0.93
   1  -1 -13   11.92    1.43
  -1   1  13    8.82    1.18
  -1   1  13   10.91    1.55
  -1   1  13    9.00    1.08
   1   1 -13   12.86    1.42
   0  -1  13    8.14    1.04
   0  -1 -13   12.33    1.48
   0  -1  13    8.39    0.89
   0   1 -13    9.34    1.35
   0   1  13    8.55    1.20
   0   1 -13    9.40    1.95
   0   1  13   11.51    1.71
   0   1  13    8.57    1.08
   1  -1  13   33.29    1.82
  -1  -1 -13   31.60    2.11
   1  -1  13   33.80    2.49
   1  -1  13   32.24    1.35
  -1  -1 -13   35.78    2.20
   1   1  13   33.06    3.02
  -1   1 -13   34.43    2.19
   1   1  13   31.62    1.94
   1   1  13   32.96    1.52
  -1   1 -13   28.74    2.09
   2  -1  13   14.92    1.93
   2  -1  13   11.81    1.33
  -2  -1 -13   14.76    1.94
  -2  -1 -13   16.01    1.53
   2  -1  13   14.81    1.03
   2  -1  13   11.36    1.50
   2   1  13   16.98    1.25
   2   1  13   15.95    1.94
  -2   1 -13   13.56    1.51
  -2   1 -13   15.64    1.92
   2   1  13   12.04    1.70
   3  -1  13    7.29    1.13
   3  -1  13    6.46    1.61
   3  -1  13    6.80    1.31
   3  -1  13    6.78    0.79
  -3  -1 -13    5.18    0.98
  -3  -1 -13    5.56    1.36
   3   1  13    7.97    1.53
   3   1  13    8.44    0.97
  -3   1 -13    6.46    1.10
   3   1  13    8.25    1.65
  -3   1 -13    9.36    1.52
   4  -1  13   20.52    1.76
   4  -1  13   26.17    2.57
   4  -1  13   18.85    2.20
  -4  -1 -13   21.85    1.73
  -4  -1 -13   24.23    2.25
   4   1  13   23.03    1.94
   4   1  13   24.17    2.54
  -4   1 -13   24.45    1.75
  -4   1 -13   26.14    2.35
   4   1  13   23.40    2.60
   5  -1  13    3.18    1.38
  -5  -1 -13    1.20    0.92
   5  -1  13    0.74    1.88
   5  -1  13    4.05    1.84
  -5  -1 -13    2.65    1.38
  -5   1 -13    1.77    1.50
   5   1  13    2.79    0.93
  -5   1 -13    1.92    0.96
   5   1  13    3.13    1.87
   5   1  13    2.02    1.16
   6  -1  13   -0.59    1.07
  -6  -1 -13   -0.10    0.83
  -6  -1 -13   -1.94    1.50
  -6  -1 -13   -0.52    1.30
   6  -1  13    1.49    1.93
  -6   1 -13    1.12    0.89
   6   1  13    1.14    1.27
   6   1  13    2.18    1.01
  -6   1 -13   -0.07    1.44
  -7  -1 -13   -1.12    1.42
  -7  -1 -13    5.38    1.45
  -7   1 -13    1.99    1.54
   7   1  13    1.61    1.47
 -10  -2  13   -1.31    1.41
   9  -2 -13   11.90    1.82
  -9  -2  13   10.60    1.70
  -9  -2  13   10.15    2.18
  -9  -2  13    7.82    1.45
  -9   2  13    8.30    1.26
   9   2 -13    7.24    1.93
  -9   2  13    9.14    1.42
  -9   2  13    5.60    1.68
   9   2 -13    8.50    1.54
  -8  -2  13   -1.19    1.15
   8  -2 -13    0.36    1.45
  -8  -2  13    4.52    2.06
  -8  -2  13    2.71    1.32
   8  -2 -13    0.33    1.40
   8   2 -13    0.54    1.33
   8   2 -13    1.09    1.36
  -8   2  13    3.03    1.82
   8   2 -13   -3.12    1.69
  -8   2  13   -1.25    1.02
  -8   2  13   -0.27    1.29
  -8   2  13   -0.26    1.52
  -7  -2  13    5.40    1.85
  -7  -2  13    1.37    1.05
   7  -2 -13    4.30    1.47
  -7  -2  13    5.16    1.27
   7  -2 -13    2.81    1.27
  -7   2  13    4.25    1.02
  -7   2  13    4.73    1.77
  -7   2  13    3.31    1.50
   7   2 -13    2.73    1.71
   7   2 -13    5.29    1.32
   7   2 -13    2.02    1.26
  -7   2  13    5.41    1.29
   6  -2 -13    1.91    1.24
   6  -2 -13    1.73    1.19
  -6  -2  13    1.99    1.12
  -6  -2  13    2.90    1.68
  -6  -2  13    1.40    1.66
  -6   2  13    2.97    1.41
  -6   2  13    4.11    1.02
   6   2 -13    1.92    1.18
  -6   2  13    0.26    1.06
   5  -2 -13    7.76    1.25
  -5  -2  13   13.00    1.41
  -5  -2  13   10.89    1.81
  -5  -2  13   14.21    1.69
   5  -2 -13   12.19    1.40
  -5   2  13   13.65    1.83
  -5   2  13   10.66    1.39
   5   2 -13   11.06    1.34
  -5   2  13   10.63    1.49
  -5   2  13   12.03    1.62
   4  -2 -13   18.29    1.81
   4  -2 -13   12.67    1.74
   4  -2 -13   14.21    1.63
  -4  -2  13   15.31    1.54
  -4  -2  13   17.99    2.15
  -4  -2  13   13.34    1.35
  -4   2  13   16.38    1.55
  -4   2  13   15.62    2.20
  -4   2  13   18.75    1.84
   4   2 -13   13.84    1.72
   3  -2 -13   13.79    1.65
  -3  -2  13   14.54    1.51
   3  -2 -13   17.61    1.62
  -3  -2  13   15.39    1.90
  -3  -2  13   14.09    1.24
   3  -2 -13   15.76    1.84
  -3   2  13   15.01    1.78
   3   2 -13   11.31    1.29
  -3   2  13   15.05    1.62
  -3   2  13   16.92    1.39
   3   2 -13   14.62    1.66
  -3   2  13   14.63    1.71
  -2  -2  13   10.17    1.09
   2  -2 -13    9.66    1.36
  -2  -2  13   11.77    1.26
  -2  -2  13   11.83    1.73
   2  -2 -13   11.48    1.39
   2  -2 -13    8.19    1.07
  -2   2  13   13.92    1.72
  -2   2  13    9.27    1.41
  -2   2  13   10.85    1.23
   2   2 -13   10.83    1.25
   2   2 -13    8.60    1.33
  -1  -2  13   34.00    2.48
   1  -2 -13   35.31    1.80
   1  -2 -13   36.57    2.13
   1  -2 -13   34.39    1.75
  -1  -2  13   33.09    1.71
  -1   2  13   30.05    2.36
   1   2 -13   34.95    1.97
  -1   2  13   35.14    1.65
   1   2 -13   35.28    2.20
  -1   2  13   31.03    2.28
   0  -2 -13    7.74    1.35
   0  -2 -13    7.86    0.96
   0  -2 -13    4.97    1.05
   0  -2  13    6.15    0.95
   0  -2  13    4.25    1.47
   0   2 -13    5.51    1.05
   0   2  13    5.72    1.49
   0   2  13    5.99    1.59
   0   2  13    5.74    0.84
   0   2 -13    5.54    1.32
  -1  -2 -13   15.79    1.94
   1  -2  13   16.12    2.13
  -1  -2 -13   14.40    1.57
   1  -2  13   13.64    1.38
   1   2  13   17.49    1.31
   1   2  13   15.95    2.20
   1   2  13   15.95    2.16
  -1   2 -13   17.42    2.25
  -1   2 -13   17.13    1.47
   2  -2  13   -0.02    1.15
  -2  -2 -13    1.37    0.93
  -2  -2 -13    0.31    1.18
   2  -2  13    0.80    0.80
   2  -2  13    1.92    1.50
   2   2  13    1.23    0.82
   2   2  13   -0.82    1.02
   2   2  13    0.61    1.44
  -2   2 -13    1.02    0.89
  -2   2 -13    0.70    1.33
   3  -2  13   11.61    1.56
  -3  -2 -13    9.22    1.52
  -3  -2 -13   10.40    1.21
   3  -2  13   14.48    1.89
  -3   2 -13   14.05    1.69
  -3   2 -13   10.21    1.16
   3   2  13   11.57    1.13
   3   2  13   16.15    1.90
   3   2  13   13.98    1.88
  -4  -2 -13   12.07    1.67
   4  -2  13   16.08    2.04
  -4  -2 -13   13.32    1.59
   4   2  13   15.94    1.53
   4   2  13   14.53    1.72
  -4   2 -13   15.68    1.68
  -4   2 -13   16.30    1.95
   4   2  13   17.94    2.19
   5  -2  13   79.23    3.68
   5  -2  13   75.38    3.26
  -5  -2 -13   83.35    2.89
   5  -2  13   85.55    3.89
  -5  -2 -13   82.93    3.53
  -5   2 -13   84.98    2.97
  -5   2 -13   82.10    3.69
   5   2  13   85.99    2.97
   5   2  13   83.57    3.87
   5   2  13   89.68    3.56
  -6  -2 -13    0.45    1.01
  -6  -2 -13    0.31    1.53
   6  -2  13   -1.79    1.58
   6  -2  13   -0.62    1.96
  -6   2 -13    1.03    1.54
   6   2  13   -1.62    1.39
   6   2  13    0.98    1.04
  -6   2 -13   -1.22    0.84
  -7  -2 -13    3.21    1.53
   7   2  13    0.44    1.40
   7   2  13    0.97    1.11
  -9  -3  13    8.78    1.35
   9   3 -13    9.14    2.19
   9   3 -13    7.02    1.61
  -8  -3  13    3.85    2.03
   8  -3 -13    0.53    1.53
   8  -3 -13    2.73    1.50
  -8  -3  13   -1.14    1.07
   8   3 -13   -2.32    1.44
  -8   3  13   -0.61    1.28
  -8   3  13   -2.24    1.61
   8   3 -13    1.17    1.44
   8   3 -13   -4.63    1.98
  -8   3  13    0.37    1.02
   7  -3 -13    6.70    1.56
  -7  -3  13    7.86    1.20
   7  -3 -13    7.65    1.52
  -7  -3  13    7.84    2.07
  -7   3  13    5.68    1.62
   7   3 -13    5.41    1.44
  -7   3  13    7.77    1.49
  -7   3  13    9.64    1.38
   6  -3 -13   17.72    2.04
   6  -3 -13   19.63    2.09
  -6  -3  13   18.27    1.88
  -6  -3  13   18.46    2.72
  -6   3  13   16.43    1.95
  -6   3  13   17.76    2.24
   6   3 -13   16.19    1.97
  -6   3  13   16.61    1.68
   5  -3 -13    8.18    1.40
  -5  -3  13    8.83    1.81
  -5  -3  13   10.06    1.32
   5  -3 -13    7.10    1.31
  -5   3  13    6.04    1.70
   5   3 -13    5.98    1.23
  -5   3  13    9.25    1.22
  -5   3  13    9.34    1.39
  -5   3  13   10.24    1.62
  -4  -3  13   18.44    1.38
  -4  -3  13   21.63    2.35
   4  -3 -13   19.89    1.90
   4  -3 -13   18.33    2.16
   4  -3 -13   18.95    1.81
  -4   3  13   20.68    1.75
  -4   3  13   18.33    1.62
   4   3 -13   21.51    1.94
  -4   3  13   16.77    2.10
  -4   3  13   17.55    2.00
   3  -3 -13   -0.23    1.01
   3  -3 -13    0.62    1.09
   3  -3 -13    1.25    1.30
  -3  -3  13   -0.46    1.33
  -3   3  13   -2.11    1.38
   3   3 -13    1.46    1.26
  -3   3  13   -0.34    1.15
   3   3 -13    1.00    1.07
  -3   3  13    0.23    0.81
  -3   3  13   -0.12    0.96
  -2  -3  13   35.50    2.56
   2  -3 -13   31.99    2.21
   2  -3 -13   36.14    2.09
   2  -3 -13   35.67    1.96
   2   3 -13   35.68    2.02
  -2   3  13   34.19    1.71
   2   3 -13   34.15    2.28
  -2   3  13   31.58    2.22
  -2   3  13   33.01    1.89
  -2   3  13   29.52    2.41
   1  -3 -13   38.21    2.11
  -1  -3  13   39.44    2.62
   1  -3 -13   40.25    2.45
   1  -3 -13   39.14    1.96
  -1   3  13   37.78    1.91
   1   3 -13   40.36    2.43
  -1   3  13   37.97    2.57
  -1   3  13   36.50    2.26
   1   3 -13   38.10    2.05
   0  -3 -13   15.54    1.41
   0  -3  13   12.56    1.84
   0  -3 -13   15.56    2.05
   0  -3 -13   13.02    1.48
   0   3  13   14.33    1.42
   0   3 -13   15.90    1.69
   0   3 -13   14.02    1.63
   0   3  13   15.09    2.16
   0   3  13   15.37    1.88
  -1  -3 -13    5.19    1.45
   1  -3  13    5.87    1.59
  -1  -3 -13    4.70    1.05
  -1  -3 -13    5.99    0.94
   1   3  13    5.70    0.95
  -1   3 -13    5.99    1.51
   1   3  13    5.97    1.33
   1   3  13    9.15    1.64
  -1   3 -13    5.42    1.13
  -2  -3 -13    0.33    0.95
   2  -3  13    0.34    1.70
  -2  -3 -13    2.18    1.39
   2  -3  13    2.30    1.52
   2   3  13    0.84    0.91
  -2   3 -13    1.67    0.93
   2   3  13    1.57    1.45
   2   3  13    1.24    1.28
  -2   3 -13   -1.12    1.45
   3  -3  13   14.94    2.03
   3  -3  13   15.21    1.73
  -3  -3 -13   14.50    1.71
  -3  -3 -13   15.81    1.87
   3   3  13   11.60    1.46
  -3   3 -13   15.20    1.90
   3   3  13   18.65    2.11
   3   3  13   16.90    2.38
  -3   3 -13   15.78    1.64
   4  -3  13    5.70    1.83
  -4  -3 -13    3.60    1.07
  -4  -3 -13    4.82    1.57
   4  -3  13    5.14    1.64
  -4   3 -13    4.44    1.06
   4   3  13    6.70    1.61
  -4   3 -13    3.37    1.73
   4   3  13    5.61    1.13
   4   3  13    9.88    1.91
  -5  -3 -13   18.78    2.10
  -5  -3 -13   23.00    1.82
   5  -3  13   20.11    2.09
   5  -3  13   21.12    2.81
  -5   3 -13   21.41    1.91
  -5   3 -13   21.06    2.64
   5   3  13   20.76    2.50
   5   3  13   24.08    1.84
   6  -3  13    3.94    2.10
   6  -3  13    2.24    1.85
  -6  -3 -13    1.14    1.50
   6  -3  13   -2.12    1.49
   6   3  13    2.91    1.19
  -6   3 -13    0.38    0.97
  -6   3 -13    3.86    1.73
   6   3  13    1.93    1.48
   7  -3  13    2.12    1.51
   7  -3  13    6.66    1.92
   8  -4 -13   16.31    1.86
  -7  -4  13    1.59    1.95
   7  -4 -13   -0.57    1.43
   7  -4 -13    0.56    1.46
  -7   4  13   -1.24    1.53
  -7   4  13    1.27    1.19
  -7   4  13    1.16    1.41
   7   4 -13    0.66    1.44
   6  -4 -13    4.18    1.43
  -6  -4  13    8.92    2.01
   6  -4 -13    8.38    1.70
  -6   4  13    7.90    1.74
   6   4 -13    6.76    1.55
  -6   4  13    6.47    1.38
  -6   4  13    4.61    1.28
   5  -4 -13   16.34    1.82
   5  -4 -13   15.07    2.08
  -5  -4  13   13.72    2.11
   5   4 -13   22.36    2.27
  -5   4  13   16.11    1.92
  -5   4  13   14.55    1.86
  -5   4  13   12.20    1.69
   4  -4 -13   -0.06    1.18
   4  -4 -13    4.47    1.63
  -4  -4  13    2.97    1.61
   4   4 -13    0.61    1.18
  -4   4  13    1.09    1.35
  -4   4  13    0.72    0.93
  -4   4  13    1.07    1.10
   3  -4 -13   40.48    2.31
  -3  -4  13   41.03    2.76
   3  -4 -13   38.01    2.25
   3   4 -13   43.14    2.36
  -3   4  13   41.86    2.59
  -3   4  13   42.54    2.09
  -3   4  13   41.44    2.20
   2  -4 -13    1.29    1.08
  -2  -4  13    0.44    1.59
   2  -4 -13    1.41    1.12
   2  -4 -13    0.78    1.40
  -2   4  13    2.46    1.00
   2   4 -13    1.02    1.11
   2   4 -13    3.01    1.44
  -2   4  13    3.40    1.40
  -2   4  13    1.38    1.27
   1  -4 -13   10.35    1.59
  -1  -4  13    8.84    1.80
   1  -4 -13    9.57    1.22
   1  -4 -13    7.81    1.21
   1   4 -13    8.66    1.30
  -1   4  13   10.22    1.15
  -1   4  13    9.98    1.55
  -1   4  13    8.60    1.66
   1   4 -13    6.04    1.56
   0  -4 -13    9.52    1.63
   0  -4  13    7.17    1.74
   0  -4 -13   10.37    1.52
   0  -4 -13   10.69    1.32
   0   4 -13    9.78    1.29
   0   4  13   12.92    1.63
   0   4  13   12.94    1.49
   0   4 -13    9.49    1.64
   0   4  13   12.19    1.73
   1  -4  13    7.40    1.80
  -1  -4 -13    7.61    1.24
  -1  -4 -13    8.34    1.63
   1   4  13    5.53    1.47
   1   4  13    6.52    1.05
  -1   4 -13    3.27    1.12
  -1   4 -13    6.80    1.68
   1   4  13    7.16    1.74
  -2  -4 -13    1.51    1.48
  -2  -4 -13    1.20    1.12
   2  -4  13    2.28    1.66
   2  -4  13    2.26    1.11
  -2   4 -13    1.81    1.12
   2   4  13   -0.34    1.28
   2   4  13    3.77    1.70
  -2   4 -13    2.48    1.61
   2   4  13    1.41    1.01
  -3  -4 -13   22.58    2.59
  -3  -4 -13   23.19    1.99
   3  -4  13   22.02    2.60
   3  -4  13   20.12    2.71
   3   4  13   20.20    1.78
  -3   4 -13   19.82    2.70
  -3   4 -13   23.75    2.00
   3   4  13   22.35    2.43
  -4  -4 -13   11.15    1.78
   4  -4  13   13.53    2.07
   4  -4  13   10.56    2.05
  -4  -4 -13   14.06    1.89
   4   4  13   13.85    1.46
  -4   4 -13   16.99    1.93
   4   4  13   11.63    1.76
  -4   4 -13   15.95    2.21
   5  -4  13   -1.25    1.70
  -5  -4 -13   -0.34    1.09
   5  -4  13    3.53    1.98
  -5  -4 -13   -1.74    1.51
  -5   4 -13   -0.38    1.65
   5   4  13    0.82    1.62
  -5   4 -13    0.70    1.09
   5   4  13    1.19    1.06
   6  -4  13    1.50    1.90
   6  -4  13    9.36    2.29
   8  -5 -13    5.27    2.01
   7  -5 -13    3.32    1.66
   7   5 -13    4.27    1.69
   6  -5 -13   29.30    2.60
   6  -5 -13   29.61    2.62
  -6   5  13   28.52    2.67
  -6   5  13   24.31    2.15
   6   5 -13   24.12    2.46
  -6   5  13   26.80    2.21
   5  -5 -13    2.69    1.33
  -5  -5  13    2.30    1.90
   5  -5 -13   -0.15    1.35
   5   5 -13    2.02    1.43
  -5   5  13    2.35    1.26
  -5   5  13    1.05    1.31
  -5   5  13    0.89    1.70
   4  -5 -13    5.13    1.70
   4  -5 -13    5.92    1.45
   4  -5 -13    4.48    1.42
  -4  -5  13    7.79    1.88
   4   5 -13    4.57    1.38
  -4   5  13    3.82    1.24
  -4   5  13    6.77    1.62
  -4   5  13    7.71    1.45
   3  -5 -13    5.35    1.70
   3  -5 -13    6.57    1.43
   3  -5 -13    5.29    1.36
  -3  -5  13    5.05    1.77
  -3   5  13    7.84    1.27
   3   5 -13    5.52    1.31
  -3   5  13   12.80    1.57
  -3   5  13    9.15    1.70
  -2  -5  13    6.23    1.90
   2  -5 -13    2.74    1.20
   2  -5 -13    6.02    1.31
   2  -5 -13    3.15    1.63
   2   5 -13    7.23    1.38
  -2   5  13    3.85    1.56
  -2   5  13    5.48    1.26
   1  -5 -13    5.13    1.26
  -1  -5  13    9.53    2.00
   1  -5 -13    6.80    1.74
   1  -5 -13    8.77    1.30
  -1   5  13    7.36    1.22
  -1   5  13    7.20    1.65
   1   5 -13    6.32    1.82
   1   5 -13   11.17    1.43
   0  -5 -13   16.03    1.95
   0  -5  13   15.95    2.08
   0  -5  13   17.38    2.21
   0  -5 -13   15.14    2.18
   0  -5 -13   19.40    2.00
   0   5 -13   17.97    2.07
   0   5  13   18.86    2.34
   0   5 -13   17.79    1.89
   0   5  13   20.46    1.83
  -1  -5 -13    5.00    1.28
   1  -5  13    7.19    1.41
  -1  -5 -13    6.01    1.72
   1  -5  13    2.10    1.81
  -1   5 -13    3.72    1.19
  -1   5 -13    4.49    1.71
   1   5  13    4.77    1.60
   1   5  13    7.32    1.23
  -2  -5 -13    4.64    1.87
  -2  -5 -13    1.98    1.20
   2  -5  13    4.44    1.29
   2  -5  13    2.57    1.69
   2   5  13    2.84    1.13
   2   5  13    3.59    1.56
  -2   5 -13    2.62    1.25
  -2   5 -13    2.39    1.81
   3  -5  13   11.25    1.87
  -3  -5 -13   12.87    2.05
  -3  -5 -13   10.94    1.45
   3  -5  13   15.77    2.23
   3   5  13   14.39    1.57
  -3   5 -13   12.11    2.08
  -3   5 -13   16.96    1.98
   3   5  13   16.73    2.08
  -4  -5 -13    3.40    1.34
  -4  -5 -13    5.90    1.91
   4  -5  13    5.35    1.98
   4  -5  13    8.60    2.24
   4   5  13    5.11    1.19
   4   5  13    8.23    1.86
  -4   5 -13    3.39    1.28
  -4   5 -13   11.22    2.14
   5  -5  13   -3.64    1.62
   5  -5  13    2.73    1.88
  -5  -5 -13   -0.72    1.06
  -5   5 -13    3.56    1.15
   6   6 -13    8.82    2.06
   5  -6 -13    0.05    1.39
   5  -6 -13   -1.54    1.27
  -5  -6  13    4.36    1.75
   5   6 -13    0.66    1.45
  -4  -6  13    4.50    2.00
   4  -6 -13    2.77    1.99
   4  -6 -13    1.93    1.49
   4  -6 -13    4.56    1.61
  -4   6  13    3.43    1.79
  -4   6  13    6.88    1.55
   4   6 -13    3.85    1.50
  -4   6  13    4.56    1.32
   3  -6 -13    6.42    2.00
  -3  -6  13    6.38    2.08
   3  -6 -13    4.76    1.52
   3  -6 -13    4.90    1.48
  -3   6  13    5.94    1.35
  -3   6  13    3.81    1.74
   3   6 -13    4.45    1.47
  -2  -6  13   -0.61    1.80
   2  -6 -13    0.41    1.33
   2  -6 -13    0.60    1.32
   2  -6 -13    3.16    1.93
  -2   6  13   -1.76    1.65
  -2   6  13   -2.11    1.26
   2   6 -13   -0.35    1.40
   1  -6 -13   23.03    2.79
  -1  -6  13   16.98    2.28
   1  -6 -13   17.82    2.01
  -1  -6  13   23.43    2.34
   1  -6 -13   20.56    2.25
   1   6 -13   21.78    2.36
  -1   6  13   25.20    2.14
  -1   6  13   20.88    2.77
   0  -6 -13   24.10    2.89
   0  -6  13   28.82    2.48
   0  -6 -13   21.04    2.24
   0  -6  13   19.22    2.34
   0   6  13   25.27    2.16
   0   6  13   25.20    2.73
   0   6 -13   22.68    2.31
  -1  -6 -13    0.76    1.30
  -1  -6 -13    0.62    1.87
   1  -6  13   -0.75    1.80
   1  -6  13    0.81    1.40
   1   6  13    3.76    1.25
  -1   6 -13   -1.56    1.99
  -1   6 -13    0.58    1.27
   1   6  13    1.36    1.74
  -2  -6 -13    0.80    1.27
  -2  -6 -13    5.15    1.85
   2  -6  13    4.01    1.43
   2  -6  13   -1.16    1.94
   2   6  13    1.22    1.76
  -2   6 -13    2.54    1.16
  -2   6 -13    0.29    1.90
   2   6  13    1.65    1.22
   3  -6  13   -0.17    1.62
  -3  -6 -13    2.84    1.28
   3  -6  13    1.75    1.86
  -3   6 -13    2.09    1.12
  -3   6 -13   -1.63    1.74
   4  -6  13    0.81    2.16
   3  -7 -13    1.10    1.92
   3  -7 -13   -1.13    1.35
  -2  -7  13    2.21    1.92
   2  -7 -13    1.71    1.42
   2  -7 -13    4.70    1.93
   1  -7 -13    3.09    2.37
  -1  -7  13    1.34    1.96
  -1  -7  13    1.22    1.25
   0  -7  13   -0.11    1.78
   0  -7  13    0.11    1.36
   1  -7  13   -0.30    1.41
   1  -7  13    0.84    1.76
  -9   0  14    3.70    1.52
  -9   0  14    1.53    0.98
  -9   0  14    2.88    1.99
  -8   0  14    1.34    0.94
  -8   0  14    0.17    1.22
  -8   0  14   -0.89    1.49
  -8   0  14    1.91    1.93
   8   0 -14   -2.18    1.46
  -7   0  14   -0.46    0.92
  -7   0  14   -1.61    1.34
  -7   0  14    0.23    1.79
   7   0 -14    0.95    1.33
  -7   0  14    0.15    1.17
   6   0 -14    8.18    1.43
  -6   0  14    8.65    1.10
  -6   0  14    6.91    1.21
  -6   0  14    6.11    1.79
  -6   0  14    7.75    1.43
  -5   0  14   10.05    1.99
   5   0 -14   11.74    1.39
  -5   0  14   10.68    1.09
  -5   0  14    8.44    1.37
  -5   0  14    8.59    1.18
  -4   0  14    0.85    0.94
  -4   0  14    0.64    0.76
  -4   0  14    1.00    1.53
   4   0 -14    0.20    1.02
  -4   0  14    1.91    1.56
   3   0 -14    0.66    1.00
  -3   0  14    0.36    0.67
  -3   0  14    1.58    1.08
  -3   0  14    0.03    1.45
  -3   0  14    0.03    0.85
   3   0 -14   -0.54    1.20
   2   0 -14    4.10    1.36
   2   0 -14    6.24    1.15
  -2   0  14    4.91    1.66
  -2   0  14    5.29    0.80
  -2   0  14    6.66    1.22
  -2   0  14    8.23    1.02
  -1   0  14    2.89    0.73
   1   0 -14    2.33    1.00
   1   0 -14    1.80    1.33
  -1   0  14    2.75    1.04
  -1   0  14    2.35    1.56
   0   0 -14    2.13    0.91
   0   0  14    2.53    0.99
   0   0  14    2.91    1.50
   0   0  14    2.86    0.75
   0   0 -14    3.23    2.26
  -1   0 -14   51.68    2.27
   1   0  14   53.01    1.90
  -1   0 -14   51.97    2.77
   1   0  14   52.42    2.39
   1   0  14   48.60    2.98
   2   0  14   70.93    2.32
  -2   0 -14   70.54    3.13
  -2   0 -14   66.99    2.61
   2   0  14   67.16    3.08
   2   0  14   69.48    3.40
   3   0  14   17.94    2.21
   3   0  14   18.77    1.37
  -3   0 -14   18.43    2.37
  -3   0 -14   17.60    1.71
   3   0  14   18.60    1.95
  -4   0 -14    3.26    1.02
  -4   0 -14    5.95    1.52
   4   0  14    4.38    1.27
   4   0  14    3.68    1.78
  -5   0 -14   -1.59    1.01
  -5   0 -14   -1.52    1.66
   5   0  14   -1.59    1.94
   5   0  14    3.03    1.26
   6   0  14    2.84    1.86
  -6   0 -14    3.53    1.54
   6   0  14    1.84    1.34
   7   0  14   -1.26    1.44
  -9  -1  14   19.10    2.40
  -9  -1  14   19.40    2.02
  -9   1  14   20.28    1.72
   9   1 -14   13.72    1.95
   8  -1 -14    2.01    1.52
  -8  -1  14    0.27    1.41
   8  -1 -14    2.25    1.53
  -8  -1  14    1.65    1.29
  -8  -1  14    4.90    2.03
  -8   1  14   -0.14    1.59
  -8   1  14    2.82    1.36
  -8   1  14    2.79    1.04
   8   1 -14   -0.38    1.78
  -8   1  14    3.61    2.06
   8   1 -14   -0.04    1.48
  -7  -1  14    3.40    1.80
   7  -1 -14    8.22    1.49
  -7  -1  14    3.29    1.39
   7  -1 -14    6.93    1.57
  -7  -1  14    3.88    1.23
  -7   1  14    5.43    1.33
  -7   1  14    5.85    1.64
  -7   1  14    5.99    1.97
  -7   1  14    4.12    1.06
   7   1 -14    4.64    1.39
  -6  -1  14   23.72    2.17
   6  -1 -14   23.47    2.29
   6  -1 -14   26.94    2.22
  -6  -1  14   28.11    2.88
  -6  -1  14   22.60    1.79
  -6   1  14   27.84    1.77
  -6   1  14   27.85    1.94
  -6   1  14   22.71    2.33
  -6   1  14   24.44    2.91
   6   1 -14   21.76    2.20
   5  -1 -14   15.13    1.91
   5  -1 -14   15.80    2.04
  -5  -1  14   16.16    2.10
  -5  -1  14   16.23    1.94
  -5  -1  14   18.03    1.64
  -5   1  14   15.53    1.73
  -5   1  14   17.73    1.71
  -5   1  14   20.38    2.57
   5   1 -14   18.09    2.02
  -5   1  14   19.33    2.13
  -4  -1  14   20.82    1.61
  -4  -1  14   21.24    2.47
   4  -1 -14   22.25    1.83
  -4  -1  14   18.33    1.89
   4  -1 -14   25.63    2.00
  -4   1  14   23.98    1.71
  -4   1  14   20.28    2.03
  -4   1  14   18.82    2.13
  -4   1  14   23.11    2.53
   4   1 -14   23.77    1.97
   3  -1 -14   15.59    2.00
  -3  -1  14   13.15    1.40
  -3  -1  14   16.02    2.04
  -3  -1  14   15.09    1.76
   3  -1 -14   14.67    1.67
   3  -1 -14   13.13    1.37
  -3   1  14   12.31    1.31
  -3   1  14   15.32    1.96
   3   1 -14   13.17    1.60
   3   1 -14   15.98    1.81
  -3   1  14   11.28    1.46
  -3   1  14   14.01    1.47
  -2  -1  14    7.67    0.95
  -2  -1  14    7.28    1.63
   2  -1 -14    7.51    1.17
   2  -1 -14    9.95    1.48
  -2  -1  14    8.03    1.18
  -2   1  14    6.67    0.91
   2   1 -14    8.23    1.20
  -2   1  14    5.09    1.46
  -2   1  14    6.15    1.35
   2   1 -14    9.80    1.53
  -2   1  14    7.03    1.71
  -1  -1  14   21.83    1.72
   1  -1 -14   23.08    2.08
   1  -1 -14   22.85    1.76
  -1  -1  14   18.30    2.41
   1   1 -14   20.29    2.10
  -1   1  14   20.82    2.39
   1   1 -14   19.70    1.78
  -1   1  14   22.70    1.62
   0  -1 -14    2.99    1.03
   0  -1  14    2.41    1.57
   0  -1 -14   -0.12    1.56
   0  -1  14    1.32    0.97
   0   1 -14    0.95    2.33
   0   1 -14    1.66    0.94
   0   1  14    3.66    2.01
   0   1  14    1.12    0.77
   0   1  14    1.84    1.60
  -1  -1 -14    8.98    1.22
   1  -1  14   10.18    1.84
   1  -1  14    8.54    1.20
   1  -1  14    6.69    1.21
  -1  -1 -14    8.79    1.49
  -1   1 -14    7.16    1.08
   1   1  14    7.62    1.80
  -1   1 -14    8.21    1.59
   1   1  14    6.99    1.26
   1   1  14    9.77    1.00
   2  -1  14   18.79    2.44
  -2  -1 -14   18.21    2.25
  -2  -1 -14   17.13    1.74
   2  -1  14   18.60    1.73
  -2   1 -14   22.38    2.35
   2   1  14   20.68    2.53
   2   1  14   17.82    1.44
   2   1  14   17.84    1.95
  -2   1 -14   20.61    1.78
  -3  -1 -14    8.88    1.24
  -3  -1 -14    8.98    1.64
   3  -1  14   10.04    2.00
   3  -1  14    7.78    1.27
  -3   1 -14    8.07    1.73
   3   1  14    9.08    1.43
   3   1  14   10.23    1.89
  -3   1 -14    6.88    1.15
   3   1  14   11.67    1.40
   4  -1  14    7.57    1.23
  -4  -1 -14    7.11    1.62
  -4  -1 -14   10.00    1.23
   4  -1  14   12.52    2.10
   4   1  14   12.01    1.50
  -4   1 -14    9.42    1.85
   4   1  14   13.14    2.16
  -4   1 -14   13.45    1.74
   4   1  14    8.28    1.45
  -5  -1 -14    2.77    1.55
  -5  -1 -14    3.99    1.10
   5  -1  14    7.48    1.99
   5   1  14    7.11    1.11
  -5   1 -14    2.72    1.78
   5   1  14    5.12    2.05
  -5   1 -14    5.38    1.17
   5   1  14    2.32    1.27
   6  -1  14    5.40    2.13
  -6  -1 -14    2.61    2.01
  -6  -1 -14    1.81    1.42
   6   1  14    3.67    1.08
  -6   1 -14   -0.25    1.66
   6   1  14    4.22    1.50
  -9  -2  14    4.89    1.26
  -8  -2  14    6.65    2.03
   8  -2 -14   -0.49    1.53
   8  -2 -14    4.36    1.48
   8   2 -14    1.63    1.99
  -8   2  14    0.95    1.10
  -8   2  14    5.84    1.70
   8   2 -14    4.41    1.54
  -8   2  14    0.31    1.27
  -7  -2  14    9.84    2.01
   7  -2 -14   10.45    1.77
  -7  -2  14    5.40    1.44
   7  -2 -14    8.16    1.63
  -7  -2  14    7.42    1.25
  -7   2  14    6.67    1.49
  -7   2  14    7.41    2.11
   7   2 -14    8.17    1.51
  -7   2  14    6.74    1.73
  -7   2  14    6.53    1.24
   6  -2 -14   28.87    2.26
  -6  -2  14   27.20    2.96
   6  -2 -14   24.41    2.38
  -6  -2  14   25.46    1.84
  -6  -2  14   29.40    2.04
  -6   2  14   23.94    2.86
  -6   2  14   27.19    2.14
  -6   2  14   29.71    1.95
   6   2 -14   23.60    2.26
  -6   2  14   25.93    2.55
   5  -2 -14   53.65    2.62
  -5  -2  14   52.88    3.27
  -5  -2  14   49.47    2.36
   5  -2 -14   52.20    2.60
  -5   2  14   51.28    2.82
   5   2 -14   52.34    2.61
  -5   2  14   54.33    2.33
  -5   2  14   52.01    2.40
  -5   2  14   52.92    3.10
  -4  -2  14    8.31    1.03
  -4  -2  14    9.67    1.95
   4  -2 -14    8.97    1.34
   4  -2 -14    8.37    1.38
  -4  -2  14   13.08    1.63
   4   2 -14    7.31    1.28
  -4   2  14    7.92    1.46
  -4   2  14    9.47    1.27
  -4   2  14    9.34    1.11
  -4   2  14    8.50    1.82
   3  -2 -14    1.78    1.40
   3  -2 -14    4.73    1.11
  -3  -2  14    4.47    0.87
  -3  -2  14    3.81    1.03
  -3  -2  14    4.34    1.60
   3  -2 -14    4.03    1.22
  -3   2  14    3.62    1.05
  -3   2  14    3.94    1.24
   3   2 -14    2.57    1.12
  -3   2  14    1.29    1.96
  -3   2  14    3.77    0.93
   2  -2 -14   13.65    1.71
   2  -2 -14    9.46    1.25
  -2  -2  14   13.13    1.61
   2  -2 -14   11.37    1.65
  -2  -2  14   15.68    2.02
  -2   2  14   10.98    1.15
  -2   2  14   11.85    1.49
   2   2 -14   10.21    1.35
  -2   2  14   10.20    1.42
  -2   2  14    7.18    2.23
   2   2 -14   12.84    1.61
   1  -2 -14    1.98    0.93
   1  -2 -14    0.34    0.95
  -1  -2  14   -0.39    1.56
  -1   2  14   -1.36    1.12
   1   2 -14    2.48    1.40
  -1   2  14   -0.25    1.32
  -1   2  14    1.20    1.49
   1   2 -14    0.62    1.06
   0  -2  14    3.77    1.63
   0  -2 -14    2.03    1.07
   0  -2 -14    2.69    1.42
   0   2  14   -0.35    1.54
   0   2 -14    3.79    1.77
   0   2  14    1.59    1.18
   0   2 -14    2.53    0.94
   0   2  14    2.14    0.95
  -1  -2 -14    3.76    1.53
   1  -2  14    3.03    1.61
  -1  -2 -14    4.82    1.12
  -1   2 -14    6.59    1.58
   1   2  14    3.38    0.88
   1   2  14    4.81    1.28
  -1   2 -14    3.85    1.02
   1   2  14    6.23    1.73
   2  -2  14    0.22    1.28
  -2  -2 -14    1.63    1.05
  -2  -2 -14   -0.34    1.33
   2  -2  14    1.41    1.70
   2   2  14    0.76    1.21
   2   2  14    2.85    0.91
  -2   2 -14   -0.03    1.01
  -2   2 -14    2.15    1.48
   2   2  14    3.86    1.71
  -3  -2 -14    6.69    1.73
   3  -2  14    7.64    2.02
   3  -2  14    4.92    1.61
  -3  -2 -14    9.76    1.28
  -3   2 -14    5.78    1.13
  -3   2 -14    9.21    1.77
   3   2  14    7.24    1.13
   3   2  14    6.11    1.44
  -4  -2 -14    6.53    1.73
   4  -2  14    4.48    1.54
  -4  -2 -14    5.34    1.19
   4  -2  14    3.49    1.82
  -4   2 -14    4.14    1.14
  -4   2 -14    4.87    1.73
   4   2  14    8.70    2.03
   4   2  14    3.84    1.51
   4   2  14    5.73    1.10
  -5  -2 -14    8.98    1.74
  -5  -2 -14   10.57    1.28
   5  -2  14   12.29    2.34
  -5   2 -14   11.45    1.91
   5   2  14   11.04    1.35
   5   2  14   12.12    1.80
   5   2  14   13.50    2.23
  -5   2 -14    9.22    1.24
  -6  -2 -14    1.53    1.48
   6   2  14   -0.88    1.36
   6   2  14    4.87    1.14
   8  -3 -14    1.83    1.56
   7  -3 -14    1.70    1.43
  -7  -3  14    5.87    2.11
   7  -3 -14    2.32    1.47
   7   3 -14   -0.81    1.47
  -7   3  14   -1.06    1.36
  -7   3  14    1.01    1.69
  -7   3  14    1.36    1.20
   6  -3 -14    3.39    1.41
  -6  -3  14    7.34    2.13
   6  -3 -14    3.60    1.56
  -6   3  14    6.82    1.52
   6   3 -14    4.26    1.50
  -6   3  14    7.79    1.34
  -6   3  14    7.62    1.76
   5  -3 -14    3.51    1.45
  -5  -3  14    9.06    2.05
   5  -3 -14    8.07    1.53
  -5   3  14    2.62    1.46
   5   3 -14    4.08    1.40
  -5   3  14    4.36    1.32
  -5   3  14    2.71    1.17
  -4  -3  14   32.05    2.88
   4  -3 -14   32.90    2.32
   4  -3 -14   35.07    2.23
   4   3 -14   35.40    2.33
  -4   3  14   38.69    1.98
  -4   3  14   33.05    3.18
  -4   3  14   30.05    2.84
   3  -3 -14   10.30    1.43
   3  -3 -14   13.13    1.92
   3  -3 -14   10.06    1.34
  -3  -3  14    9.59    1.87
  -3   3  14   12.72    1.65
  -3   3  14   12.78    2.92
   3   3 -14   11.32    1.39
  -3   3  14   10.12    1.20
  -3   3  14   13.23    1.71
   2  -3 -14   17.29    2.32
   2  -3 -14   18.83    1.80
  -2  -3  14   16.96    2.16
   2  -3 -14   18.48    1.98
   2   3 -14   14.67    1.77
  -2   3  14   18.26    1.57
  -2   3  14   17.02    2.12
   2   3 -14   19.63    1.96
   1  -3 -14    2.23    1.01
  -1  -3  14    2.41    1.77
   1  -3 -14    2.15    1.10
   1  -3 -14    3.10    1.40
   1   3 -14    3.83    1.16
  -1   3  14    2.23    1.35
  -1   3  14   -0.27    2.00
  -1   3  14    1.96    0.90
   0  -3 -14    2.67    0.93
   0  -3  14    2.14    1.61
   0  -3 -14    3.12    1.42
   0  -3 -14    1.48    1.14
   0   3 -14    2.12    1.57
   0   3  14    1.92    1.62
   0   3  14    2.30    1.29
   0   3  14    2.73    0.96
   0   3 -14    1.89    1.02
  -1  -3 -14   12.27    1.40
   1  -3  14   12.60    1.96
  -1  -3 -14   11.55    1.74
   1   3  14   13.09    1.52
  -1   3 -14   12.03    1.35
   1   3  14   13.69    1.94
  -1   3 -14   12.75    1.81
   1   3  14   14.45    1.76
   2  -3  14   13.29    2.16
  -2  -3 -14    9.92    1.28
   2  -3  14   11.15    1.67
  -2  -3 -14   11.88    1.79
   2   3  14   13.55    1.53
   2   3  14    8.57    1.62
  -2   3 -14   13.35    2.00
   2   3  14   15.41    2.08
  -2   3 -14   10.34    1.35
   3  -3  14    8.46    1.77
  -3  -3 -14    7.69    1.29
  -3  -3 -14   11.82    1.91
   3  -3  14   11.22    2.09
  -3   3 -14    8.54    1.25
  -3   3 -14    6.45    1.83
   3   3  14   10.75    1.66
   3   3  14   13.45    1.40
   3   3  14   10.29    2.02
   4  -3  14   25.62    3.11
  -4  -3 -14   26.27    2.17
  -4  -3 -14   24.62    2.66
   4  -3  14   22.75    3.09
  -4   3 -14   23.50    2.04
   4   3  14   26.56    1.99
  -4   3 -14   25.86    2.88
   4   3  14   25.84    2.62
   5  -3  14    6.04    2.01
   5  -3  14   12.54    2.17
  -5  -3 -14    9.09    1.28
  -5  -3 -14    6.51    1.82
  -5   3 -14    5.59    1.74
   5   3  14    7.59    1.73
   5   3  14    8.37    1.27
  -5   3 -14    8.38    1.26
   6  -3  14    2.41    2.04
   8  -4 -14    4.72    1.87
   7  -4 -14    3.48    1.65
   7   4 -14    6.26    1.59
   6  -4 -14    1.57    1.40
   6  -4 -14   -0.04    1.44
  -6  -4  14    4.71    2.02
  -6   4  14   -2.36    1.17
  -6   4  14   -1.02    1.40
   6   4 -14    1.32    1.56
  -6   4  14   -0.53    1.31
   5  -4 -14    5.62    1.44
   5  -4 -14    7.16    1.56
  -5  -4  14   10.53    2.13
  -5   4  14   10.15    1.37
   5   4 -14    8.00    1.67
  -5   4  14    6.54    1.77
  -5   4  14    9.94    1.47
   4  -4 -14    1.95    1.40
   4  -4 -14    2.64    1.35
  -4  -4  14    1.39    1.85
   4   4 -14    3.62    1.39
  -4   4  14    5.41    1.40
  -4   4  14    4.74    1.17
  -4   4  14    2.03    1.46
   3  -4 -14   12.41    1.61
   3  -4 -14   15.68    1.94
  -3  -4  14   13.36    2.09
   3  -4 -14   17.87    2.01
  -3   4  14   14.32    1.68
   3   4 -14   17.90    2.26
  -3   4  14   13.81    1.86
  -3   4  14   17.18    1.95
   2  -4 -14   45.94    2.36
   2  -4 -14   43.00    2.86
  -2  -4  14   42.86    3.13
   2  -4 -14   42.83    2.57
  -2   4  14   40.44    2.18
   2   4 -14   44.73    2.52
  -2   4  14   39.56    2.73
   1  -4 -14   38.58    2.12
   1  -4 -14   37.21    2.45
   1  -4 -14   40.18    2.86
  -1  -4  14   35.46    3.05
  -1   4  14   39.17    2.12
  -1   4  14   39.26    2.73
   1   4 -14   39.85    2.42
   1   4 -14   40.17    2.73
   0  -4 -14    0.90    1.55
   0  -4  14    1.60    1.71
   0  -4 -14   -0.80    1.15
   0   4  14    0.66    1.37
   0   4  14   -0.30    1.01
   0   4 -14    1.06    1.14
   0   4 -14    1.78    1.68
   0   4  14    0.16    1.61
  -1  -4 -14    0.20    1.74
   1  -4  14   -0.98    1.69
  -1  -4 -14    0.87    1.13
  -1   4 -14    2.29    1.17
   1   4  14    2.52    1.76
   1   4  14    1.54    1.10
  -1   4 -14    0.86    1.70
   1   4  14    1.81    1.39
  -2  -4 -14    4.68    1.31
   2  -4  14    6.69    1.67
   2  -4  14    7.24    1.99
  -2  -4 -14    6.14    1.87
  -2   4 -14    6.63    1.68
  -2   4 -14    5.58    1.91
   2   4  14    9.65    1.34
   2   4  14    7.85    1.77
   2   4  14    8.99    1.96
   3  -4  14    2.94    1.75
  -3  -4 -14    1.99    1.78
  -3  -4 -14   -0.08    1.20
   3  -4  14    4.41    2.07
   3   4  14    5.12    1.63
  -3   4 -14    1.60    1.97
  -3   4 -14    3.42    1.24
   3   4  14    1.36    1.13
   4  -4  14    4.34    1.93
  -4  -4 -14    0.76    1.54
  -4  -4 -14    2.29    1.25
   4  -4  14    3.98    1.98
  -4   4 -14    2.24    1.90
   4   4  14    3.25    1.65
   4   4  14    1.89    1.11
  -4   4 -14    2.58    1.22
  -5  -4 -14    4.19    1.19
   5  -4  14   -1.34    1.76
  -5   4 -14    4.50    1.17
   6  -5 -14   -1.34    1.52
   6   5 -14    4.49    1.45
   5  -5 -14    3.70    1.61
  -5  -5  14    7.07    2.12
   5  -5 -14    2.88    1.47
  -5   5  14    4.05    1.95
  -5   5  14    3.58    1.21
  -5   5  14    3.51    1.73
   5   5 -14    1.17    1.43
   4  -5 -14    6.91    1.45
  -4  -5  14    9.65    2.06
   4  -5 -14    5.05    1.59
  -4   5  14    5.63    1.83
   4   5 -14    7.63    1.55
  -4   5  14    7.88    1.45
  -4   5  14    6.50    1.35
   3  -5 -14   11.54    1.65
  -3  -5  14   10.86    2.07
   3  -5 -14   10.07    2.02
   3  -5 -14    7.25    1.52
  -3   5  14    9.75    1.95
  -3   5  14   12.49    1.51
   3   5 -14   11.37    1.52
   2  -5 -14    9.38    1.99
   2  -5 -14    7.61    1.49
  -2  -5  14    8.09    2.18
   2  -5 -14    8.15    1.44
   2   5 -14    9.81    1.56
  -2   5  14    7.10    1.71
  -2   5  14    7.04    1.31
   1  -5 -14   34.22    2.08
   1  -5 -14   28.60    2.36
   1  -5 -14   28.75    3.01
  -1  -5  14   30.44    3.14
  -1   5  14   30.91    2.85
   1   5 -14   29.93    3.00
   1   5 -14   38.48    2.44
  -1   5  14   33.27    2.16
   0  -5  14    8.43    1.61
   0  -5  14    3.03    1.80
   0  -5 -14    4.64    1.93
   0  -5 -14    6.14    1.48
   0   5  14   10.04    1.80
   0   5  14    8.82    1.46
   0   5 -14    6.71    1.34
   0   5 -14    8.61    2.09
  -1  -5 -14   -0.03    1.27
  -1  -5 -14    3.02    1.88
   1  -5  14    2.73    1.41
   1  -5  14   -0.27    1.87
   1   5  14    4.63    1.29
  -1   5 -14    2.69    2.00
   1   5  14    1.57    1.64
  -1   5 -14    3.16    1.27
   2  -5  14   10.36    1.94
   2  -5  14   15.95    2.37
  -2  -5 -14    6.33    1.43
  -2  -5 -14   10.59    2.03
  -2   5 -14   10.46    1.51
  -2   5 -14    9.44    2.06
   2   5  14   11.71    1.49
   2   5  14   11.09    1.96
   3  -5  14   -0.13    1.78
   3  -5  14    0.06    1.78
  -3  -5 -14   -0.19    1.23
  -3   5 -14   -0.36    1.12
   3   5  14    2.39    1.16
  -3   5 -14    1.68    1.83
  -4  -5 -14    5.62    1.51
   4  -6 -14   -2.82    1.62
   3  -6 -14    2.15    2.08
   3  -6 -14    0.98    1.36
   2  -6 -14    8.86    2.09
  -2  -6  14    6.51    2.00
   2  -6 -14   11.31    1.52
  -1  -6  14    2.16    1.45
  -1  -6  14    0.89    2.02
   1  -6 -14    2.06    1.83
   0  -6  14    2.10    1.91
   0  -6  14    5.44    1.59
   0  -6 -14   -0.55    1.69
   1  -6  14    5.40    2.09
   1  -6  14    7.33    1.61
  -1   6 -14    6.42    2.32
  -8   0  15    8.73    1.69
   8   0 -15   11.43    1.76
  -8   0  15   16.62    2.36
  -8   0  15   16.80    2.11
  -7   0  15    3.12    1.53
  -7   0  15    1.59    1.25
   7   0 -15    4.24    1.58
  -7   0  15    3.50    2.14
  -6   0  15   23.02    2.09
  -6   0  15   27.03    2.46
  -6   0  15   22.68    3.19
  -6   0  15   21.52    2.52
   6   0 -15   22.25    2.49
  -5   0  15    2.46    1.10
  -5   0  15    3.46    1.37
   5   0 -15    3.15    1.33
  -5   0  15    3.61    0.87
  -5   0  15    4.34    1.93
   4   0 -15    7.84    1.41
  -4   0  15    9.70    1.07
  -4   0  15   13.48    2.05
  -4   0  15   10.64    1.51
  -4   0  15   10.40    1.29
  -3   0  15    2.91    0.97
  -3   0  15    0.09    0.69
  -3   0  15    1.75    1.38
  -3   0  15   -1.23    1.61
   3   0 -15    0.78    1.11
  -2   0  15   70.98    3.04
   2   0 -15   77.27    3.26
  -2   0  15   68.70    3.67
   2   0 -15   74.35    2.92
  -2   0  15   79.12    2.45
  -1   0  15    2.03    0.82
  -1   0  15    1.14    1.74
   1   0 -15    2.40    1.11
   1   0 -15    1.57    1.53
  -1   0  15    2.38    1.17
   0   0 -15   -1.57    1.47
   0   0 -15    0.56    1.03
   0   0  15   -1.23    1.10
   0   0  15   -0.35    1.59
   1   0  15    0.12    1.77
  -1   0 -15    1.47    1.63
  -1   0 -15    5.00    2.35
   1   0  15    3.19    1.20
  -2   0 -15    3.62    1.66
   2   0  15    2.71    1.22
   2   0  15    3.23    1.88
  -2   0 -15    3.39    1.10
  -3   0 -15   -1.13    1.65
   3   0  15    2.18    1.85
  -3   0 -15   -0.87    1.06
   3   0  15    5.09    1.31
   4   0  15    3.28    1.22
  -4   0 -15    0.88    1.60
  -4   0 -15    1.33    1.13
   4   0  15    2.95    1.92
   5   0  15    4.85    1.56
  -5   0 -15    4.48    1.21
  -8  -1  15    2.23    1.18
  -8  -1  15   -2.57    1.41
   8  -1 -15   -0.10    1.50
  -8   1  15    2.24    1.08
  -8   1  15    3.20    2.28
   8   1 -15    1.83    1.47
   7  -1 -15   11.56    1.64
   7  -1 -15   13.04    1.75
  -7  -1  15   11.33    2.17
  -7  -1  15   12.63    1.48
  -7  -1  15   12.43    1.71
  -7   1  15   13.05    1.37
   7   1 -15    9.05    1.60
  -7   1  15    7.47    2.31
  -7   1  15    8.95    1.54
  -7   1  15   15.47    2.02
  -6  -1  15   12.98    2.29
  -6  -1  15   11.96    1.41
   6  -1 -15    9.84    1.55
   6  -1 -15   11.47    1.68
  -6  -1  15   10.77    1.62
  -6   1  15   10.75    1.31
   6   1 -15   12.16    1.71
  -6   1  15   12.49    2.04
  -6   1  15   12.20    2.23
  -6   1  15   11.60    1.53
  -5  -1  15   17.28    1.90
   5  -1 -15   27.18    2.33
  -5  -1  15   21.99    1.82
   5  -1 -15   19.25    2.24
  -5  -1  15   25.70    3.06
   5   1 -15   20.81    2.31
  -5   1  15   24.67    2.85
  -5   1  15   19.67    2.41
  -5   1  15   22.40    1.71
  -5   1  15   22.24    1.95
  -4  -1  15    5.20    1.97
  -4  -1  15    4.52    1.27
  -4  -1  15    2.97    1.04
   4  -1 -15    2.90    1.39
  -4   1  15    4.65    1.22
  -4   1  15    3.00    2.16
  -4   1  15    3.47    1.38
   4   1 -15    5.21    1.37
  -4   1  15    3.27    1.00
   3  -1 -15    4.22    1.32
  -3  -1  15    2.80    1.85
  -3  -1  15    4.09    1.66
  -3   1  15    4.85    1.39
  -3   1  15    4.22    0.95
  -3   1  15    1.03    1.84
  -3   1  15    4.50    1.13
   3   1 -15    2.30    1.27
  -2  -1  15    2.52    1.17
  -2  -1  15    0.78    1.66
   2  -1 -15    3.01    1.23
  -2   1  15    1.87    1.29
   2   1 -15    4.49    1.89
   2   1 -15    4.60    1.18
  -2   1  15    2.13    1.05
  -2   1  15    3.37    1.69
  -1  -1  15    2.28    1.08
   1  -1 -15    2.67    1.21
  -1  -1  15    3.38    1.75
   1  -1 -15    1.49    1.49
  -1   1  15    1.30    1.18
  -1   1  15    0.33    1.69
   1   1 -15    3.89    1.68
   1   1 -15    1.49    1.07
   0  -1  15   12.01    1.37
   0  -1  15   11.07    2.12
   0  -1 -15   10.41    1.72
   0  -1 -15   11.18    1.36
   0   1  15   10.81    2.10
   0   1 -15   10.94    1.41
   0   1  15   10.40    1.42
   0   1  15    9.51    1.47
   0   1 -15    9.35    1.74
  -1  -1 -15   36.18    2.63
   1  -1  15   32.04    2.95
  -1  -1 -15   34.15    2.68
   1  -1  15   37.21    2.09
   1   1  15   40.82    1.87
  -1   1 -15   40.80    2.79
   1   1  15   33.58    2.42
   1   1  15   38.97    3.02
  -1   1 -15   34.21    2.35
  -2  -1 -15    1.62    1.09
  -2  -1 -15    3.58    1.65
   2  -1  15    2.30    1.82
   2   1  15    2.47    0.92
  -2   1 -15    1.78    1.76
   2   1  15    2.37    1.98
  -2   1 -15   -0.04    1.19
   2   1  15    2.01    1.30
   3  -1  15   26.45    3.09
  -3  -1 -15   31.52    2.79
  -3  -1 -15   30.42    2.09
  -3   1 -15   28.46    2.19
   3   1  15   34.51    3.15
   3   1  15   29.95    1.73
   3   1  15   33.39    2.44
  -3   1 -15   28.39    2.80
   4  -1  15   16.76    2.38
  -4  -1 -15   11.83    1.40
  -4  -1 -15   16.33    2.10
  -4   1 -15   12.66    1.43
   4   1  15   17.00    2.26
   4   1  15   11.67    2.24
   4   1  15   11.42    1.26
  -4   1 -15   12.36    1.99
  -5  -1 -15    2.08    1.10
  -5   1 -15    2.47    1.09
   5   1  15    0.17    1.31
   8  -2 -15    3.75    1.38
  -7  -2  15    2.54    1.55
   7  -2 -15    4.31    1.82
   7  -2 -15   -0.36    1.55
  -7  -2  15    2.30    1.90
   7   2 -15    5.80    1.60
  -7   2  15    1.76    1.54
  -7   2  15    3.71    1.23
  -7   2  15    3.15    1.31
   6  -2 -15    5.36    1.57
  -6  -2  15    6.84    2.17
   6  -2 -15    5.07    1.51
  -6  -2  15    4.77    1.77
   6   2 -15    6.25    1.51
  -6   2  15    5.48    1.58
  -6   2  15    4.97    1.34
  -6   2  15    4.93    1.25
  -6   2  15    4.25    2.15
   5  -2 -15   33.38    2.49
   5  -2 -15   33.00    2.42
  -5  -2  15   32.28    3.22
  -5   2  15   29.81    2.01
  -5   2  15   29.34    3.06
   5   2 -15   30.10    2.44
  -5   2  15   31.24    2.72
  -5   2  15   32.00    2.21
   4  -2 -15    0.80    1.23
  -4  -2  15    1.70    1.83
   4  -2 -15    2.54    1.27
  -4   2  15   -3.72    1.88
  -4   2  15    3.34    1.55
  -4   2  15    2.24    1.23
   4   2 -15    1.69    1.26
  -4   2  15    2.25    1.04
  -3  -2  15    5.50    1.82
   3  -2 -15    6.02    1.31
   3  -2 -15    9.59    1.35
  -3   2  15    8.21    1.09
  -3   2  15    6.54    1.56
   3   2 -15    5.68    1.26
  -3   2  15    6.38    1.21
  -3   2  15    7.25    1.93
   2  -2 -15    5.80    1.31
  -2  -2  15    7.53    2.02
   2  -2 -15    4.56    1.14
   2  -2 -15    4.61    1.67
  -2   2  15    4.66    0.99
  -2   2  15    3.89    1.41
   2   2 -15    8.40    2.13
  -2   2  15    3.74    1.83
   2   2 -15    6.56    1.34
   1  -2 -15    1.66    1.16
   1  -2 -15    1.55    1.61
  -1  -2  15    1.41    1.72
  -1   2  15    1.74    1.79
  -1   2  15    1.65    0.91
   1   2 -15    1.28    1.13
  -1   2  15    0.66    1.31
   1   2 -15    1.55    1.60
   0  -2 -15    2.44    1.18
   0  -2  15    2.25    1.75
   0  -2 -15    1.52    1.58
   0   2  15    2.71    1.28
   0   2  15    4.13    0.96
   0   2  15    2.15    1.75
   0   2 -15    2.54    1.14
   0   2 -15    3.31    1.63
  -1  -2 -15    0.74    1.14
   1  -2  15   -1.21    1.62
  -1  -2 -15    0.94    1.56
   1   2  15    0.56    0.92
  -1   2 -15    0.37    1.81
   1   2  15   -3.32    1.72
   1   2  15    0.17    1.25
  -1   2 -15   -0.74    1.14
   2  -2  15   27.95    3.08
  -2  -2 -15   24.81    2.09
  -2  -2 -15   23.64    2.71
   2   2  15   23.63    1.79
  -2   2 -15   23.03    2.16
  -2   2 -15   24.22    2.77
   2   2  15   24.80    2.48
   2   2  15   31.68    3.05
   3  -2  15    6.69    1.98
  -3  -2 -15    5.91    1.35
  -3  -2 -15    4.91    1.83
  -3   2 -15    5.76    1.93
   3   2  15    2.62    2.86
  -3   2 -15    4.30    1.19
   3   2  15    6.25    2.09
   3   2  15    7.14    1.17
   4  -2  15   12.12    2.15
  -4  -2 -15   11.01    1.41
  -4  -2 -15    7.83    1.80
  -4   2 -15    7.95    1.32
  -4   2 -15   13.04    2.07
   4   2  15   13.29    2.30
   4   2  15    9.27    1.70
   4   2  15   12.74    1.32
  -5  -2 -15    3.21    1.10
   5   2  15    3.73    1.52
   5   2  15    5.58    1.12
  -5   2 -15    2.99    1.05
   7  -3 -15   -0.16    1.45
   7   3 -15   -2.28    1.48
  -6  -3  15    6.02    1.94
   6  -3 -15    3.10    1.53
   6  -3 -15    1.30    1.39
  -6   3  15    4.40    1.35
  -6   3  15    4.57    1.62
  -6   3  15    3.03    1.29
   6   3 -15    2.72    1.47
   5  -3 -15    7.34    1.47
  -5  -3  15    6.41    2.06
   5  -3 -15    9.77    1.72
  -5   3  15    7.51    1.81
  -5   3  15    6.75    1.25
   5   3 -15    6.92    1.49
  -5   3  15    9.41    1.45
  -4  -3  15   23.12    3.00
   4  -3 -15   19.73    2.35
   4  -3 -15   22.85    2.20
  -4   3  15   21.62    2.62
   4   3 -15   20.49    2.33
  -4   3  15   20.32    2.06
  -4   3  15   20.65    1.94
   3  -3 -15   -1.48    1.18
   3  -3 -15   -2.14    1.29
   3  -3 -15    2.87    1.96
  -3  -3  15    0.66    1.85
  -3   3  15   -0.23    1.79
  -3   3  15    1.21    1.06
  -3   3  15    0.77    1.28
  -3   3  15    0.94    1.55
   3   3 -15    0.66    1.29
  -2  -3  15   63.32    3.63
   2  -3 -15   67.65    2.71
   2  -3 -15   70.67    3.33
   2  -3 -15   60.64    2.84
  -2   3  15   63.92    3.66
  -2   3  15   66.46    3.38
   2   3 -15   72.39    3.05
  -2   3  15   66.10    2.61
   1  -3 -15    9.34    1.21
   1  -3 -15   11.72    1.80
  -1  -3  15    7.69    2.07
   1  -3 -15    6.21    1.29
  -1   3  15    9.42    1.63
  -1   3  15    8.80    1.17
  -1   3  15    9.66    1.98
   1   3 -15    9.76    1.90
   1   3 -15   10.65    1.48
   0  -3 -15    6.22    1.37
   0  -3  15    4.56    1.80
   0  -3 -15    4.88    1.76
   0   3 -15    6.19    1.90
   0   3 -15    4.04    1.22
   0   3  15    5.66    1.46
   0   3  15    6.90    2.06
   0   3  15    7.77    1.21
  -1  -3 -15   10.50    1.92
   1  -3  15    5.99    1.95
  -1  -3 -15    8.07    1.41
   1   3  15    9.49    2.07
   1   3  15    9.25    1.74
   1   3  15    5.55    1.11
  -1   3 -15   11.43    2.10
  -1   3 -15    6.63    1.27
   2  -3  15   -1.34    1.82
  -2  -3 -15    1.35    1.20
  -2  -3 -15   -1.10    1.66
   2  -3  15   -0.79    1.58
   2   3  15   -3.42    1.38
  -2   3 -15    2.34    1.23
   2   3  15    1.98    1.08
  -2   3 -15    0.42    1.87
   2   3  15    2.45    2.00
  -3  -3 -15   10.94    1.48
   3  -3  15    9.11    2.17
  -3  -3 -15    8.00    1.94
   3  -3  15    6.86    1.91
  -3   3 -15    8.76    1.41
   3   3  15   10.30    1.86
   3   3  15    9.42    1.36
  -3   3 -15   10.87    2.15
   3   3  15    9.13    2.14
  -4  -3 -15    2.90    1.17
   4   3  15    5.88    1.14
  -4   3 -15    4.91    1.22
   4   3  15    4.48    1.79
  -5  -3 -15    7.81    1.29
   5  -4 -15    5.41    1.44
   5  -4 -15    8.55    1.53
  -5   4  15    7.66    1.30
  -5   4  15    9.15    1.79
   5   4 -15    6.37    1.60
  -4  -4  15    3.59    1.99
   4  -4 -15    3.02    1.44
   4  -4 -15    3.33    1.39
  -4   4  15    0.22    1.54
   4   4 -15    2.97    1.51
  -4   4  15    4.92    1.47
  -4   4  15    1.39    1.17
   3  -4 -15   12.30    2.65
  -3  -4  15   11.23    2.28
   3  -4 -15   14.55    2.07
   3  -4 -15   13.81    1.67
   3   4 -15   14.89    1.80
  -3   4  15   11.40    1.42
  -3   4  15    8.50    1.75
   2  -4 -15    1.70    1.31
   2  -4 -15    1.56    1.89
   2  -4 -15    2.00    1.21
  -2  -4  15   -0.47    1.96
  -2   4  15   -0.10    1.11
  -2   4  15    0.11    1.64
   2   4 -15    1.27    1.29
   1  -4 -15    3.15    1.79
  -1  -4  15    1.72    1.96
   1  -4 -15    1.33    1.27
  -1   4  15    3.59    1.53
   1   4 -15    1.45    1.81
   1   4 -15    1.97    1.30
  -1   4  15    2.32    1.13
   0  -4 -15    7.58    1.86
   0  -4  15    5.41    1.97
   0  -4 -15    4.39    1.42
   0   4 -15    5.95    1.44
   0   4  15    7.26    1.24
   0   4  15    4.61    1.53
   0   4 -15    8.35    2.08
   1  -4  15    5.22    2.04
  -1  -4 -15    5.81    1.91
  -1  -4 -15    3.33    1.40
   1   4  15    5.01    1.27
  -1   4 -15    6.50    2.04
   1   4  15    4.36    2.30
   1   4  15    4.05    1.57
  -1   4 -15    3.25    1.37
  -2  -4 -15    0.63    1.18
   2  -4  15    1.98    1.88
  -2  -4 -15    0.26    1.68
   2  -4  15   -1.69    1.65
  -2   4 -15    1.00    1.23
   2   4  15   -2.28    1.42
  -2   4 -15    1.95    2.03
   2   4  15    1.28    1.13
   2   4  15    5.26    2.08
  -3  -4 -15    1.93    1.20
   3  -4  15    0.52    1.94
  -3   4 -15    2.77    2.25
  -3   4 -15    5.12    1.33
   3   4  15    5.73    1.19
   4  -4  15    0.37    1.81
   4  -5 -15    2.42    1.40
   3  -5 -15    3.10    1.41
   2  -5 -15   13.25    2.25
   2  -5 -15   11.53    1.49
  -2  -5  15    6.45    2.43
  -2   5  15   12.17    1.44
   1  -5 -15    3.82    2.03
  -1  -5  15    1.73    2.10
  -1   5  15    4.51    1.16
   0  -5  15    6.36    1.69
   0  -5  15    1.81    2.28
   0  -5 -15    5.34    2.01
   0   5 -15    5.77    2.21
   0   5  15    6.06    1.59
  -1   5 -15    5.57    2.15
  -7   0  16    9.89    1.67
  -6   0  16   42.42    2.91
  -6   0  16   45.53    2.38
   6   0 -16   46.10    2.90
  -6   0  16   52.22    3.68
  -5   0  16   -0.47    1.43
  -5   0  16    0.46    2.02
   5   0 -16    1.96    1.45
  -5   0  16    0.27    1.16
   4   0 -16   15.56    1.72
  -4   0  16   15.20    2.44
  -4   0  16   19.52    1.81
  -4   0  16   16.98    1.86
  -3   0  16   -1.49    2.01
  -3   0  16   -2.38    1.30
   3   0 -16   -0.51    1.22
  -3   0  16    2.70    1.07
  -2   0  16    1.51    1.97
  -2   0  16    2.30    1.28
   2   0 -16   -0.41    1.23
  -1   0  16    5.74    1.33
   1   0 -16    8.59    1.84
   1   0 -16    7.97    1.37
  -1   0  16    5.35    2.02
   0   0 -16    9.89    1.43
   0   0 -16    9.28    1.95
   0   0  16    8.18    1.41
   0   0  16    6.84    2.14
   1   0  16   26.15    2.29
  -1   0 -16   24.47    2.19
   1   0  16   17.27    2.35
  -1   0 -16   17.99    2.16
  -2   0 -16    9.30    1.41
  -2   0 -16   10.97    2.06
   2   0  16   13.57    2.42
   2   0  16   15.08    2.01
   3   0  16    3.90    1.99
  -3   0 -16   -0.36    1.15
  -3   0 -16    1.71    1.61
  -4   0 -16   -0.43    1.04
  -7  -1  16    6.03    1.19
  -7   1  16    2.96    2.04
   6  -1 -16   40.21    2.53
  -6  -1  16   31.95    3.37
  -6  -1  16   37.50    2.18
  -6   1  16   47.31    3.21
  -6   1  16   36.77    3.59
   6   1 -16   40.96    2.77
  -6   1  16   36.72    2.30
  -6   1  16   36.77    2.92
  -5  -1  16    2.56    1.09
  -5  -1  16    6.38    2.17
   5  -1 -16    2.14    1.47
  -5   1  16    1.33    1.02
  -5   1  16   -2.27    1.96
   5   1 -16    1.37    1.44
  -5   1  16    2.62    1.62
  -5   1  16    5.00    1.33
  -4  -1  16    1.93    0.98
   4  -1 -16    1.38    1.31
  -4  -1  16   -0.85    1.89
   4   1 -16    0.31    1.40
  -4   1  16   -2.34    2.05
  -4   1  16    2.91    1.61
  -4   1  16    2.38    0.91
  -4   1  16    4.89    1.29
  -3  -1  16    7.51    2.11
   3  -1 -16   10.28    1.60
  -3   1  16   14.02    2.33
   3   1 -16    9.10    1.50
  -3   1  16    7.63    1.02
  -3   1  16   10.44    1.77
   2  -1 -16    5.28    2.03
   2  -1 -16    3.82    1.29
  -2  -1  16    2.50    1.96
  -2   1  16    3.37    1.53
  -2   1  16    5.57    0.95
   2   1 -16    4.31    1.42
  -2   1  16    5.43    2.10
   1  -1 -16    3.65    1.29
  -1  -1  16    4.26    2.05
   1  -1 -16    4.99    1.80
   1   1 -16    3.12    1.84
  -1   1  16    4.16    2.03
   1   1 -16    2.29    1.27
  -1   1  16    4.41    1.41
  -1   1  16    5.09    0.92
   0  -1  16    4.99    2.00
   0  -1 -16    4.28    1.30
   0  -1 -16    6.75    1.94
   0   1  16    3.59    1.01
   0   1  16    1.84    2.03
   0   1  16    3.29    1.42
   0   1 -16    3.28    1.36
   0   1 -16    3.06    1.94
   1  -1  16   27.25    3.32
  -1  -1 -16   33.73    2.93
  -1  -1 -16   32.90    2.32
  -1   1 -16   30.01    2.39
   1   1  16   27.88    3.27
   1   1  16   31.82    2.55
  -1   1 -16   34.28    3.10
  -2  -1 -16    5.48    1.96
   2  -1  16    7.61    2.25
  -2  -1 -16    6.12    1.34
  -2   1 -16    8.43    2.12
  -2   1 -16    5.72    1.31
   2   1  16    3.95    2.10
   2   1  16    5.74    1.54
  -3  -1 -16    8.41    1.34
  -3  -1 -16    6.36    1.85
  -3   1 -16    7.70    1.93
  -3   1 -16    4.90    1.26
   3   1  16    7.60    1.59
   3   1  16   12.18    2.17
  -4  -1 -16    3.85    1.19
  -4   1 -16    0.17    1.14
   4   1  16    1.62    1.34
   6  -2 -16    0.35    1.97
  -6   2  16    2.16    1.12
   5  -2 -16    5.04    1.48
   5  -2 -16    5.35    1.40
  -5  -2  16    5.55    1.99
  -5   2  16    6.13    1.22
   5   2 -16    5.11    1.53
  -5   2  16    5.22    1.71
  -5   2  16    6.67    1.37
  -5   2  16    6.56    2.40
   4  -2 -16    2.87    1.45
  -4  -2  16    1.98    2.12
   4  -2 -16    2.66    1.28
   4   2 -16    1.47    1.33
  -4   2  16    0.89    1.60
  -4   2  16    1.28    2.09
  -4   2  16    2.90    1.09
   3  -2 -16   18.78    2.14
   3  -2 -16   12.18    1.59
  -3  -2  16   13.83    2.42
   3   2 -16   14.75    1.69
  -3   2  16   11.75    1.87
  -3   2  16   12.61    2.36
  -3   2  16   12.71    1.32
  -2  -2  16    4.97    2.24
   2  -2 -16    6.02    1.44
   2  -2 -16    0.94    1.71
  -2   2  16    3.06    2.09
  -2   2  16    3.88    1.65
   2   2 -16    3.05    1.29
  -2   2  16    5.02    1.09
   1  -2 -16    3.01    1.85
   1  -2 -16    0.46    1.23
  -1  -2  16    3.51    2.03
  -1   2  16    1.52    2.71
  -1   2  16   -1.75    2.04
   1   2 -16    1.42    1.19
   1   2 -16    0.24    1.76
  -1   2  16    0.11    0.99
   0  -2 -16    0.48    1.27
   0  -2  16   -0.76    1.97
   0  -2 -16    5.00    1.91
   0   2  16    4.03    1.06
   0   2 -16    0.65    1.91
   0   2  16    1.48    1.52
   0   2 -16    0.84    1.31
   0   2  16    2.72    2.11
  -1  -2 -16   10.71    1.54
  -1  -2 -16    8.47    1.92
   1  -2  16    9.08    2.13
  -1   2 -16   11.66    2.09
   1   2  16    8.06    1.68
  -1   2 -16    8.86    1.44
   1   2  16   13.47    1.64
   1   2  16   12.22    2.39
  -2  -2 -16   17.08    2.09
  -2  -2 -16   13.92    2.01
   2  -2  16   20.46    2.81
   2   2  16   25.72    3.31
   2   2  16   18.29    1.77
  -2   2 -16   22.50    2.92
  -2   2 -16   20.64    2.06
   2   2  16   20.01    2.49
  -3  -2 -16    3.29    1.20
  -3   2 -16    2.19    1.22
   3   2  16    3.83    2.00
   3   2  16    5.09    1.11
   3   2  16    4.38    1.54
  -3   2 -16    2.31    2.02
   5  -3 -16    0.46    1.36
  -5   3  16    1.17    1.10
   4  -3 -16   -0.76    1.32
   4  -3 -16    2.51    1.27
  -4   3  16    3.10    1.25
  -4   3  16    1.81    1.09
  -4   3  16    2.78    1.77
   4   3 -16    0.60    1.36
   3  -3 -16   11.73    1.51
  -3  -3  16   13.97    2.36
   3  -3 -16   13.38    1.65
   3   3 -16   12.94    1.64
  -3   3  16   11.73    1.86
  -3   3  16   11.68    1.37
  -2  -3  16   13.61    2.45
   2  -3 -16    7.24    1.40
   2  -3 -16   10.07    2.04
   2  -3 -16    8.45    1.31
  -2   3  16    8.83    1.26
  -2   3  16    8.68    2.48
   2   3 -16    9.58    1.55
  -2   3  16    8.10    1.79
   1  -3 -16    2.16    1.27
  -1  -3  16    2.11    1.81
   1  -3 -16   -0.97    1.85
  -1   3  16   -0.25    1.02
   1   3 -16    3.54    1.37
  -1   3  16   -0.44    1.55
  -1   3  16    3.26    2.20
   0  -3 -16   -0.16    1.85
   0  -3 -16    1.19    1.21
   0  -3  16    0.87    1.90
   0   3 -16    0.83    2.06
   0   3  16   -1.92    2.05
   0   3  16    2.32    1.08
   0   3  16    2.63    1.58
   0   3 -16    1.31    1.15
  -1  -3 -16    1.38    1.77
  -1  -3 -16    2.15    1.21
   1   3  16    5.19    1.68
  -1   3 -16    6.95    2.20
  -1   3 -16    2.69    1.14
   1   3  16    4.13    1.17
   1   3  16    9.88    2.21
   2   3  16    3.46    1.11
   2   3  16    5.87    2.26
  -2   3 -16    8.80    2.03
   2   3  16    8.18    2.44
   4  -4 -16   12.15    2.12
   3  -4 -16   38.66    2.38
   2  -4 -16    4.08    1.93
  -2   4  16    4.77    1.19
   1  -4 -16    8.82    2.02
  -1   4  16    8.11    1.20
   0  -4 -16    5.02    1.81
   0   4 -16    4.50    1.98
   0   4  16    3.60    1.21
   1  -4  16    0.27    1.68
  -1   4 -16    2.01    1.94
   2  -4  16   -2.63    2.62
  -5   0  17    1.86    1.82
  -5   0  17    1.08    1.08
  -4   0  17    0.95    1.54
  -4   0  17    2.18    1.12
  -4   0  17   -1.59    2.08
  -3   0  17    6.66    2.17
  -3   0  17    6.47    1.68
  -2   0  17    1.64    2.08
   2   0 -17    1.87    1.44
  -1   0  17   -0.70    1.97
   1   0 -17    1.55    1.40
   0   0 -17   10.76    2.19
   0   0  17   11.54    2.36
  -1   0 -17    6.28    2.09
  -4   1  17   -1.35    2.10
  -4   1  17    3.39    1.17
  -4   1  17    1.37    1.57
  -3  -1  17    1.31    2.64
  -3   1  17    8.80    1.72
  -3   1  17    6.58    2.36
  -2  -1  17   -0.29    1.89
  -2   1  17    0.45    2.12
  -2   1  17    0.91    1.39
  -1  -1  17   -1.53    2.08
   1  -1 -17    1.27    1.94
  -1   1  17    2.60    1.46
  -1   1  17    0.07    2.14
   0  -1 -17   -0.06    1.99
   0   1  17    0.63    1.86
   0   1 -17    2.21    2.12
   0   1  17    2.18    1.55
  -1  -1 -17   17.34    2.32
  -1   1 -17   16.75    2.38
   1   1  17   22.24    2.57
   2   1  17    7.35    1.52
  -4   2  17   -0.65    1.04
  -4   2  17   -1.16    2.09
  -3   2  17   23.93    3.45
  -3   2  17   33.27    3.24
  -3   2  17   34.36    2.15
  -2   2  17   -1.56    2.17
  -2   2  17    1.94    1.10
  -2   2  17    0.35    1.47
   1  -2 -17    5.19    1.95
  -1   2  17    0.59    1.15
  -1   2  17    4.97    1.49
  -1   2  17    2.57    2.10
   0  -2 -17    0.56    1.91
   0   2  17    0.90    2.08
   0   2 -17    2.18    2.02
   0   2  17    1.53    1.46
  -1   2 -17   -1.91    1.91
   3  -3 -17    8.77    1.34
  -2   3  17    5.38    1.32
   1  -3 -17   -0.92    1.72
  -1   3  17    2.76    1.18
   0   3  17    3.56    2.43
   0   0   0    0.00    0.00
;
_shelx_hkl_checksum              51053
_olex2_submission_special_instructions 'No special instructions were received'
loop_
_space_group_symop_operation_xyz
'x, y, z'
'-x, y+1/2, -z'
loop_
_atom_site_label
_atom_site_type_symbol
_atom_site_fract_x
_atom_site_fract_y
_atom_site_fract_z
_atom_site_U_iso_or_equiv
_atom_site_adp_type
_atom_site_occupancy
_atom_site_site_symmetry_order
_atom_site_calc_flag
_atom_site_refinement_flags_posn
_atom_site_refinement_flags_adp
_atom_site_refinement_flags_occupancy
_atom_site_disorder_assembly
_atom_site_disorder_group
S1 S -0.01782(9) 0.10112(13) 0.08554(8) 0.0192(2) Uani 0.605(3) 1 d . . P A 1
S1A S -0.12835(17) 0.2688(2) 0.15351(16) 0.0200(4) Uani 0.395(3) 1 d . . P A 2
O1 O 0.46731(15) 0.9053(2) 0.02239(13) 0.0250(3) Uani 1 1 d . . . . .
H1 H 0.513(3) 0.970(5) -0.041(3) 0.038 Uiso 1 1 d R . . . .
N1 N 0.38190(14) 0.6013(2) 0.16462(10) 0.0126(2) Uani 1 1 d . . . . .
H1A H 0.301(3) 0.668(4) 0.122(2) 0.015 Uiso 1 1 d R . . . .
C1 C 0.31520(15) 0.4750(2) 0.25761(12) 0.0119(2) Uani 1 1 d . . . . .
H1B H 0.277(2) 0.562(4) 0.327(2) 0.014 Uiso 1 1 d R . . . .
C2 C 0.45361(17) 0.3436(2) 0.31317(14) 0.0146(2) Uani 1 1 d . . . . .
H2A H 0.422(3) 0.254(4) 0.378(2) 0.018 Uiso 1 1 d R . . . .
H2B H 0.493(3) 0.255(4) 0.249(2) 0.018 Uiso 1 1 d R . . . .
C3 C 0.59104(16) 0.4744(2) 0.36870(12) 0.0135(2) Uani 1 1 d . . . . .
C4 C 0.69583(19) 0.4043(3) 0.46858(14) 0.0193(3) Uani 1 1 d . . . . .
H4 H 0.674(3) 0.282(4) 0.501(2) 0.023 Uiso 1 1 d R . . . .
C5 C 0.81732(19) 0.5263(3) 0.52519(15) 0.0236(3) Uani 1 1 d . . . . .
H5 H 0.882(3) 0.482(5) 0.595(2) 0.028 Uiso 1 1 d R . . . .
C6 C 0.8361(2) 0.7190(3) 0.48189(15) 0.0243(4) Uani 1 1 d . . . . .
H6 H 0.905(3) 0.801(4) 0.518(2) 0.029 Uiso 1 1 d R . . . .
C7 C 0.7330(2) 0.7911(3) 0.38302(15) 0.0210(3) Uani 1 1 d . . . . .
H7 H 0.739(3) 0.931(4) 0.353(2) 0.025 Uiso 1 1 d R . . . .
C8 C 0.60916(17) 0.6697(2) 0.32554(13) 0.0140(2) Uani 1 1 d . . . . .
C9 C 0.49394(17) 0.7561(2) 0.22155(13) 0.0133(2) Uani 1 1 d . . . . .
H9 H 0.429(3) 0.867(4) 0.251(2) 0.016 Uiso 1 1 d R . . . .
C10 C 0.58373(18) 0.8432(3) 0.11976(14) 0.0174(3) Uani 1 1 d . . . . .
H10A H 0.649(3) 0.953(4) 0.152(2) 0.021 Uiso 1 1 d R . . . .
H10B H 0.660(3) 0.740(4) 0.091(2) 0.021 Uiso 1 1 d R . . . .
C11 C 0.16954(16) 0.3617(2) 0.20222(13) 0.0127(2) Uani 1 1 d . . . . .
C12 C 0.17083(17) 0.1876(2) 0.13110(13) 0.0147(2) Uani 1 1 d . . . . .
C13 C -0.1037(6) 0.2994(9) 0.1619(5) 0.0192(2) Uani 0.605(3) 1 d . . P A 1
H13 H -0.213(6) 0.280(7) 0.148(4) 0.023 Uiso 0.605(3) 1 d R . P A 1
C13A C 0.0184(8) 0.1173(13) 0.0976(7) 0.0200(4) Uani 0.395(3) 1 d . . P A 2
H13A H -0.045(7) -0.004(12) 0.055(6) 0.024 Uiso 0.395(3) 1 d R . P A 2
C14 C 0.01166(19) 0.4216(3) 0.21889(15) 0.0177(3) Uani 1 1 d . . . . .
H12 H 0.261(3) 0.121(4) 0.106(2) 0.021 Uiso 0.605(3) 1 d R . P A 1
H12A H 0.261(3) 0.121(4) 0.106(2) 0.021 Uiso 0.395(3) 1 d R . P A 2
H14A H -0.015(3) 0.531(4) 0.260(2) 0.021 Uiso 0.395(3) 1 d R . P A 2
H14 H -0.015(3) 0.531(4) 0.260(2) 0.021 Uiso 0.605(3) 1 d R . P A 1
loop_
_atom_site_aniso_label
_atom_site_aniso_U_11
_atom_site_aniso_U_22
_atom_site_aniso_U_33
_atom_site_aniso_U_23
_atom_site_aniso_U_13
_atom_site_aniso_U_12
S1 0.0146(4) 0.0220(4) 0.0204(4) -0.0044(3) -0.0007(3) -0.0076(3)
S1A 0.0121(7) 0.0246(7) 0.0223(6) -0.0049(5) -0.0015(4) -0.0092(4)
O1 0.0205(6) 0.0302(7) 0.0251(6) 0.0151(5) 0.0060(4) 0.0014(5)
N1 0.0133(5) 0.0113(5) 0.0131(5) 0.0014(4) 0.0008(4) -0.0015(4)
C1 0.0109(5) 0.0126(5) 0.0121(5) 0.0000(4) 0.0013(4) -0.0011(4)
C2 0.0129(6) 0.0135(6) 0.0168(6) 0.0039(5) -0.0007(4) -0.0020(5)
C3 0.0101(5) 0.0182(6) 0.0123(5) 0.0001(5) 0.0014(4) 0.0005(5)
C4 0.0157(6) 0.0274(8) 0.0144(6) 0.0012(6) 0.0002(5) 0.0045(5)
C5 0.0127(6) 0.0437(10) 0.0143(6) -0.0057(6) 0.0002(5) 0.0035(6)
C6 0.0148(6) 0.0416(11) 0.0167(6) -0.0123(7) 0.0023(5) -0.0095(6)
C7 0.0191(7) 0.0255(8) 0.0193(6) -0.0075(6) 0.0054(5) -0.0094(6)
C8 0.0125(5) 0.0173(6) 0.0126(5) -0.0031(5) 0.0035(4) -0.0021(5)
C9 0.0150(6) 0.0094(5) 0.0161(6) -0.0005(5) 0.0045(4) -0.0016(4)
C10 0.0171(6) 0.0166(6) 0.0191(6) 0.0030(5) 0.0053(5) -0.0035(5)
C11 0.0124(5) 0.0138(6) 0.0114(5) 0.0005(4) -0.0002(4) -0.0020(4)
C12 0.0150(6) 0.0141(6) 0.0147(6) -0.0016(5) 0.0010(4) -0.0027(5)
C13 0.0146(4) 0.0220(4) 0.0204(4) -0.0044(3) -0.0007(3) -0.0076(3)
C13A 0.0121(7) 0.0246(7) 0.0223(6) -0.0049(5) -0.0015(4) -0.0092(4)
C14 0.0153(6) 0.0197(7) 0.0186(6) -0.0013(5) 0.0045(5) -0.0005(5)
loop_
_atom_type_symbol
_atom_type_description
_atom_type_scat_dispersion_real
_atom_type_scat_dispersion_imag
_atom_type_scat_source
C C 0.0033 0.0016 'International Tables Vol C Tables 4.2.6.8 and 6.1.1.4'
H H 0.0000 0.0000 'International Tables Vol C Tables 4.2.6.8 and 6.1.1.4'
N N 0.0061 0.0033 'International Tables Vol C Tables 4.2.6.8 and 6.1.1.4'
O O 0.0106 0.0060 'International Tables Vol C Tables 4.2.6.8 and 6.1.1.4'
S S 0.1246 0.1234 'International Tables Vol C Tables 4.2.6.8 and 6.1.1.4'
loop_
_exptl_crystal_face_index_h
_exptl_crystal_face_index_k
_exptl_crystal_face_index_l
_exptl_crystal_face_perp_dist
0.00 0.00 -1.00 0.0220
0.00 0.00 -1.00 0.042
0.00 0.00 1.00 0.030
-1.00 -1.00 1.00 0.115
1.00 1.00 -1.00 0.149
0.00 1.00 1.00 0.153
0.00 -1.00 -1.00 0.112
-1.00 0.00 1.00 0.069
1.00 0.00 -1.00 0.087
-1.00 1.00 1.00 0.159
1.00 -1.00 -1.00 0.145
4.00 1.00 -2.00 0.070
0.00 -3.00 -1.00 0.125
-5.00 5.00 -3.00 0.148
-4.00 -1.00 -1.00 0.082
5.00 -3.00 3.00 0.134
3.00 0.00 1.00 0.100
loop_
_geom_angle_atom_site_label_1
_geom_angle_atom_site_label_2
_geom_angle_atom_site_label_3
_geom_angle
_geom_angle_site_symmetry_1
_geom_angle_site_symmetry_3
_geom_angle_publ_flag
C12 S1 C13 91.08(18) . . ?
C14 S1A C13A 91.0(2) . . ?
C10 O1 H1 112.9(17) . . ?
C1 N1 H1A 108.6(14) . . ?
C1 N1 C9 112.10(10) . . ?
C9 N1 H1A 106.4(15) . . ?
N1 C1 H1B 110.5(13) . . ?
N1 C1 C2 106.04(11) . . ?
N1 C1 C11 111.07(11) . . ?
C2 C1 H1B 108.3(12) . . ?
C11 C1 H1B 106.3(12) . . ?
C11 C1 C2 114.61(12) . . ?
C1 C2 H2A 112.8(13) . . ?
C1 C2 H2B 110.8(13) . . ?
H2A C2 H2B 106(2) . . ?
C3 C2 C1 109.66(12) . . ?
C3 C2 H2A 108.2(13) . . ?
C3 C2 H2B 109.0(13) . . ?
C4 C3 C2 120.00(14) . . ?
C8 C3 C2 120.42(12) . . ?
C8 C3 C4 119.48(14) . . ?
C3 C4 H4 117.4(15) . . ?
C5 C4 C3 120.85(16) . . ?
C5 C4 H4 121.3(15) . . ?
C4 C5 H5 120.5(18) . . ?
C6 C5 C4 119.70(16) . . ?
C6 C5 H5 119.6(18) . . ?
C5 C6 H6 122.3(19) . . ?
C5 C6 C7 120.17(15) . . ?
C7 C6 H6 117.3(19) . . ?
C6 C7 H7 122.1(15) . . ?
C6 C7 C8 120.68(17) . . ?
C8 C7 H7 117.2(15) . . ?
C3 C8 C7 119.12(14) . . ?
C3 C8 C9 121.50(12) . . ?
C7 C8 C9 119.33(14) . . ?
N1 C9 C8 111.60(12) . . ?
N1 C9 H9 108.5(13) . . ?
N1 C9 C10 107.26(12) . . ?
C8 C9 H9 111.2(13) . . ?
C8 C9 C10 111.69(12) . . ?
C10 C9 H9 106.4(14) . . ?
O1 C10 C9 107.91(12) . . ?
O1 C10 H10A 111.9(15) . . ?
O1 C10 H10B 111.6(13) . . ?
C9 C10 H10A 109.0(14) . . ?
C9 C10 H10B 110.1(14) . . ?
H10A C10 H10B 106(2) . . ?
C12 C11 C1 125.94(13) . . ?
C12 C11 C14 111.87(13) . . ?
C14 C11 C1 122.19(13) . . ?
S1 C12 H12 119.9(15) . . ?
C11 C12 S1 112.40(11) . . ?
C11 C12 H12 127.7(16) . . ?
C11 C12 H12A 127.7(16) . . ?
C13A C12 C11 111.7(4) . . ?
C13A C12 H12A 120.6(16) . . ?
S1 C13 H13 105(3) . . ?
C14 C13 S1 111.3(4) . . ?
C14 C13 H13 143(3) . . ?
S1A C13A H13A 105(3) . . ?
C12 C13A S1A 112.0(5) . . ?
C12 C13A H13A 143(4) . . ?
S1A C14 H14A 120.7(15) . . ?
C11 C14 S1A 113.35(14) . . ?
C11 C14 H14A 125.9(15) . . ?
C11 C14 H14 125.9(15) . . ?
C13 C14 C11 113.4(3) . . ?
C13 C14 H14 120.7(15) . . ?
loop_
_geom_bond_atom_site_label_1
_geom_bond_atom_site_label_2
_geom_bond_distance
_geom_bond_site_symmetry_2
_geom_bond_publ_flag
S1 C12 1.6959(16) . ?
S1 C13 1.755(6) . ?
S1A C13A 1.746(9) . ?
S1A C14 1.6492(19) . ?
O1 H1 0.93(3) . ?
O1 C10 1.419(2) . ?
N1 H1A 0.90(2) . ?
N1 C1 1.4732(18) . ?
N1 C9 1.4799(19) . ?
C1 H1B 1.03(2) . ?
C1 C2 1.5193(19) . ?
C1 C11 1.4985(19) . ?
C2 H2A 0.98(2) . ?
C2 H2B 1.00(2) . ?
C2 C3 1.511(2) . ?
C3 C4 1.400(2) . ?
C3 C8 1.396(2) . ?
C4 H4 0.91(3) . ?
C4 C5 1.389(2) . ?
C5 H5 0.93(3) . ?
C5 C6 1.382(3) . ?
C6 H6 0.85(3) . ?
C6 C7 1.388(3) . ?
C7 H7 0.99(3) . ?
C7 C8 1.403(2) . ?
C8 C9 1.517(2) . ?
C9 H9 0.99(2) . ?
C9 C10 1.521(2) . ?
C10 H10A 0.96(3) . ?
C10 H10B 1.01(3) . ?
C11 C12 1.395(2) . ?
C11 C14 1.405(2) . ?
C12 C13A 1.365(6) . ?
C12 H12 0.94(2) . ?
C12 H12A 0.94(2) . ?
C13 H13 0.91(5) . ?
C13 C14 1.357(5) . ?
C13A H13A 1.04(8) . ?
C14 H14A 0.90(3) . ?
C14 H14 0.90(3) . ?
loop_
_geom_hbond_atom_site_label_D
_geom_hbond_atom_site_label_H
_geom_hbond_atom_site_label_A
_geom_hbond_distance_DH
_geom_hbond_distance_HA
_geom_hbond_distance_DA
_geom_hbond_angle_DHA
_geom_hbond_site_symmetry_A
_geom_hbond_publ_flag
O1 H1 N1 0.93(3) 1.90(3) 2.8310(18) 177(2) 2_655 yes
loop_
_geom_torsion_atom_site_label_1
_geom_torsion_atom_site_label_2
_geom_torsion_atom_site_label_3
_geom_torsion_atom_site_label_4
_geom_torsion
_geom_torsion_site_symmetry_1
_geom_torsion_site_symmetry_2
_geom_torsion_site_symmetry_3
_geom_torsion_site_symmetry_4
_geom_torsion_publ_flag
S1 C13 C14 C11 0.6(4) . . . . ?
N1 C1 C2 C3 58.56(14) . . . . ?
N1 C1 C11 C12 78.77(18) . . . . ?
N1 C1 C11 C14 -102.09(16) . . . . ?
N1 C9 C10 O1 52.73(16) . . . . ?
C1 N1 C9 C8 44.46(15) . . . . ?
C1 N1 C9 C10 167.09(12) . . . . ?
C1 C2 C3 C4 151.33(13) . . . . ?
C1 C2 C3 C8 -25.09(17) . . . . ?
C1 C11 C12 S1 179.50(12) . . . . ?
C1 C11 C12 C13A 178.1(4) . . . . ?
C1 C11 C14 S1A -177.87(13) . . . . ?
C1 C11 C14 C13 -179.8(3) . . . . ?
C2 C1 C11 C12 -41.36(19) . . . . ?
C2 C1 C11 C14 137.77(14) . . . . ?
C2 C3 C4 C5 -176.42(14) . . . . ?
C2 C3 C8 C7 176.81(13) . . . . ?
C2 C3 C8 C9 -0.66(19) . . . . ?
C3 C4 C5 C6 -0.5(2) . . . . ?
C3 C8 C9 N1 -7.99(18) . . . . ?
C3 C8 C9 C10 -128.05(14) . . . . ?
C4 C3 C8 C7 0.4(2) . . . . ?
C4 C3 C8 C9 -177.09(13) . . . . ?
C4 C5 C6 C7 0.7(2) . . . . ?
C5 C6 C7 C8 -0.3(2) . . . . ?
C6 C7 C8 C3 -0.3(2) . . . . ?
C6 C7 C8 C9 177.26(14) . . . . ?
C7 C8 C9 N1 174.55(12) . . . . ?
C7 C8 C9 C10 54.49(17) . . . . ?
C8 C3 C4 C5 0.0(2) . . . . ?
C8 C9 C10 O1 175.30(13) . . . . ?
C9 N1 C1 C2 -71.23(14) . . . . ?
C9 N1 C1 C11 163.67(12) . . . . ?
C11 C1 C2 C3 -178.55(11) . . . . ?
C11 C12 C13A S1A 0.4(6) . . . . ?
C12 S1 C13 C14 -0.3(4) . . . . ?
C12 C11 C14 S1A 1.37(18) . . . . ?
C12 C11 C14 C13 -0.6(3) . . . . ?
C13 S1 C12 C11 0.0(2) . . . . ?
C13A S1A C14 C11 -0.9(3) . . . . ?
C14 S1A C13A C12 0.3(5) . . . . ?
C14 C11 C12 S1 0.29(16) . . . . ?
C14 C11 C12 C13A -1.1(4) . . . . ?
