#------------------------------------------------------------------------------
#$Date: 2020-05-04 05:22:02 +0300 (Mon, 04 May 2020) $
#$Revision: 251419 $
#$URL: file:///home/coder/svn-repositories/cod/cif/4/51/75/4517569.cif $
#------------------------------------------------------------------------------
#
# This file is available in the Crystallography Open Database (COD),
# http://www.crystallography.net/
#
# All data on this site have been placed in the public domain by the
# contributors.
#
data_4517569
loop_
_publ_author_name
'Jin, Jianqun'
'Wu, Shanyu'
'Ma, Yudong'
'Dong, Caiqiao'
'Wang, Wei'
'Liu, Xitong'
'Xu, Haixiao'
'Long, Guankui'
'Zhang, Mingtao'
'Zhang, Jing'
'Huang, Wei'
_publ_section_title
;
 Nucleation Control-Triggering Cocrystal Polymorphism of Charge-Transfer
 Complexes Differing in Physical and Electronic Properties.
;
_journal_issue                   17
_journal_name_full               'ACS applied materials &amp; interfaces'
_journal_page_first              19718
_journal_page_last               19726
_journal_paper_doi               10.1021/acsami.9b23590
_journal_volume                  12
_journal_year                    2020
_chemical_formula_moiety         'C36 H16 N4 S2'
_chemical_formula_sum            'C36 H16 N4 S2'
_chemical_formula_weight         568.65
_space_group_crystal_system      triclinic
_space_group_IT_number           2
_space_group_name_Hall           '-P 1'
_space_group_name_H-M_alt        'P -1'
_atom_sites_solution_hydrogens   geom
_audit_creation_method           SHELXL-2016/6
_cell_angle_alpha                72.698(4)
_cell_angle_beta                 87.979(5)
_cell_angle_gamma                70.408(5)
_cell_formula_units_Z            1
_cell_length_a                   7.3777(16)
_cell_length_b                   9.654(2)
_cell_length_c                   10.051(2)
_cell_measurement_reflns_used    4419
_cell_measurement_temperature    295(2)
_cell_measurement_theta_max      36.26
_cell_measurement_theta_min      2.35
_cell_volume                     642.3(2)
_computing_cell_refinement       'Bruker SAINT'
_computing_data_collection       'Bruker APEX2'
_computing_data_reduction        'Bruker SAINT'
_computing_molecular_graphics    'Bruker SHELXTL'
_computing_publication_material  'Bruker SHELXTL'
_computing_structure_refinement  'SHELXL-2016/6 (Sheldrick, 2016)'
_computing_structure_solution    'SHELXL-2016/6 (Sheldrick, 2016)'
_diffrn_ambient_temperature      295(2)
_diffrn_measured_fraction_theta_full 0.977
_diffrn_measured_fraction_theta_max 0.977
_diffrn_measurement_device_type  'Bruker APEX-II CCD'
_diffrn_measurement_method       '\f and \w scans'
_diffrn_radiation_type           MoK\a
_diffrn_radiation_wavelength     0.71073
_diffrn_reflns_av_R_equivalents  0.0185
_diffrn_reflns_av_unetI/netI     0.0276
_diffrn_reflns_Laue_measured_fraction_full 0.977
_diffrn_reflns_Laue_measured_fraction_max 0.977
_diffrn_reflns_limit_h_max       8
_diffrn_reflns_limit_h_min       -8
_diffrn_reflns_limit_k_max       11
_diffrn_reflns_limit_k_min       -10
_diffrn_reflns_limit_l_max       11
_diffrn_reflns_limit_l_min       -11
_diffrn_reflns_number            4072
_diffrn_reflns_point_group_measured_fraction_full 0.977
_diffrn_reflns_point_group_measured_fraction_max 0.977
_diffrn_reflns_theta_full        24.996
_diffrn_reflns_theta_max         24.996
_diffrn_reflns_theta_min         2.938
_exptl_absorpt_coefficient_mu    0.244
_exptl_absorpt_correction_T_max  0.953
_exptl_absorpt_correction_T_min  0.905
_exptl_absorpt_correction_type   multi-scan
_exptl_crystal_colour            black
_exptl_crystal_density_diffrn    1.470
_exptl_crystal_description       block
_exptl_crystal_F_000             292
_exptl_crystal_size_max          0.420
_exptl_crystal_size_mid          0.210
_exptl_crystal_size_min          0.200
_refine_diff_density_max         0.491
_refine_diff_density_min         -0.711
_refine_diff_density_rms         0.068
_refine_ls_extinction_method     none
_refine_ls_goodness_of_fit_ref   0.868
_refine_ls_hydrogen_treatment    constr
_refine_ls_matrix_type           full
_refine_ls_number_parameters     196
_refine_ls_number_reflns         2211
_refine_ls_number_restraints     207
_refine_ls_restrained_S_all      0.839
_refine_ls_R_factor_all          0.0748
_refine_ls_R_factor_gt           0.0704
_refine_ls_shift/su_max          0.000
_refine_ls_shift/su_mean         0.000
_refine_ls_structure_factor_coef Fsqd
_refine_ls_weighting_details
'w=1/[\s^2^(Fo^2^)+(0.1479P)^2^+1.1917P] where P=(Fo^2^+2Fc^2^)/3'
_refine_ls_weighting_scheme      calc
_refine_ls_wR_factor_gt          0.2104
_refine_ls_wR_factor_ref         0.2137
_reflns_Friedel_coverage         0.000
_reflns_number_gt                2034
_reflns_number_total             2211
_reflns_threshold_expression     'I > 2\s(I)'
_cod_data_source_file            am9b23590_si_002.cif
_cod_data_source_block           P-1
_cod_depositor_comments
'Adding full bibliography for 4517569--4517570.cif.'
_cod_database_code               4517569
_shelx_shelxl_version_number     2016/6
_shelx_space_group_comment
;
The symmetry employed for this shelxl refinement is uniquely defined
by the following loop, which should always be used as a source of
symmetry information in preference to the above space-group names.
They are only intended as comments.
;
_shelx_estimated_absorpt_t_min   0.905
_shelx_estimated_absorpt_t_max   0.953
_shelx_res_file
;
TITL P-1 in P-1
    P-1.res
    created by SHELXL-2016/6 at 11:45:39 on 10-Jan-2019
CELL 0.71073   7.37770   9.65440  10.05130  72.6976  87.9785  70.4082
ZERR    1.00   0.00160   0.00200   0.00210   0.0042   0.0045   0.0045
LATT 1
SFAC C  H  N  S
UNIT 36  16  4  2
OMIT     1   5   1
OMIT     0   0   1
OMIT     0   7   0
OMIT     0  -3   2
OMIT     -1   0   4
OMIT      1   1   3
omit      1  -1   1
omit      0   3   1
OMIT 0 50
L.S. 10
ACTA
BOND $h
FMAP 2
PLAN 20
eadp s1a c8b
eadp s1b c8a
size 0.2 0.21 0.42
DELU
SIMU
TEMP 22.210
WGHT    0.147900    1.191700
FVAR       0.68277
PART 1
MOLE 1
S1A   4    0.783479    0.680729    0.484799    10.50000    0.02881    0.01598 =
         0.03249   -0.01016    0.00462    0.00338
C8A   1    0.352518    1.053446    0.778873    10.50000    0.06544    0.05318 =
         0.06927   -0.02241    0.00523   -0.01062
AFIX  43
H8A   2    0.370018    0.992553    0.871749    10.50000   -1.20000
PART 2
AFIX   0
C8B   1    0.761722    0.711188    0.468884    10.50000    0.02881    0.01598 =
         0.03249   -0.01016    0.00462    0.00338
AFIX  43
H8B   2    0.823529    0.614681    0.532335    10.50000   -1.20000
AFIX   0
S1B   4    0.332999    1.089375    0.751123    10.50000    0.06544    0.05318 =
         0.06927   -0.02241    0.00523   -0.01062
PART 0
N1    3    0.512763    0.762765    1.006801    11.00000    0.08834    0.06691 =
         0.04181   -0.01451    0.00925   -0.01251
N2    3    0.839315    0.479417    0.796835    11.00000    0.09157    0.04967 =
         0.06485   -0.00362    0.02119    0.01120
C4    1    0.561274    0.875354    0.634997    11.00000    0.02950    0.03941 =
         0.03815   -0.01663    0.00515   -0.01324
C5    1    0.429566    1.030084    0.624885    11.00000    0.02891    0.03696 =
         0.04148   -0.01788    0.00459   -0.01145
C6    1    0.627502    0.853475    0.502327    11.00000    0.02757    0.03226 =
         0.04195   -0.01773    0.00475   -0.00820
C3    1    0.615067    0.758723    0.760052    11.00000    0.03956    0.04045 =
         0.04081   -0.01295    0.00467   -0.00929
C7    1    0.774547    0.756789    0.315037    11.00000    0.05676    0.05645 =
         0.06403   -0.04026    0.02410   -0.01727
AFIX  43
H7    2    0.843958    0.692307    0.264417    11.00000   -1.20000
AFIX   0
C1    1    0.741292    0.605143    0.774644    11.00000    0.05359    0.04720 =
         0.04353   -0.00695    0.00852   -0.00481
C2    1    0.553354    0.768775    0.894773    11.00000    0.05329    0.04517 =
         0.03973   -0.00961    0.00068   -0.00815
MOLE 2
C14   1    0.955036    0.107637    0.362129    11.00000    0.03324    0.04403 =
         0.04093   -0.01485    0.00255   -0.01880
C15   1    1.088352   -0.044512    0.382425    11.00000    0.03352    0.04598 =
         0.04311   -0.01976    0.00389   -0.01891
C9    1    0.866069    0.154989    0.477462    11.00000    0.03005    0.03964 =
         0.04885   -0.01748    0.00266   -0.01457
C13   1    0.909360    0.215098    0.226295    11.00000    0.04393    0.05536 =
         0.04779   -0.00796   -0.00150   -0.02237
C10   1    0.738754    0.304615    0.450919    11.00000    0.04384    0.04199 =
         0.06721   -0.02048    0.00092   -0.01249
AFIX  43
H10   2    0.680707    0.337043    0.525169    11.00000   -1.20000
AFIX   0
C16   1    1.171492   -0.083208    0.266165    11.00000    0.04248    0.06509 =
         0.05323   -0.03186    0.01187   -0.01682
AFIX  43
H16   2    1.258618   -0.182046    0.277830    11.00000   -1.20000
AFIX   0
C17   1    1.127351    0.022524    0.132783    11.00000    0.05677    0.09409 =
         0.04232   -0.02965    0.01343   -0.03026
AFIX  43
H17   2    1.185923   -0.006439    0.057160    11.00000   -1.20000
AFIX   0
C18   1    1.000133    0.166994    0.111978    11.00000    0.06301    0.08498 =
         0.03660   -0.00877    0.00453   -0.03157
AFIX  43
H18   2    0.971481    0.235807    0.022069    11.00000   -1.20000
AFIX   0
C12   1    0.777343    0.364627    0.205510    11.00000    0.05701    0.05038 =
         0.06030    0.00049   -0.00672   -0.02019
AFIX  43
H12   2    0.746434    0.433790    0.115819    11.00000   -1.20000
AFIX   0
C11   1    0.694748    0.408621    0.315593    11.00000    0.05106    0.04048 =
         0.08038   -0.01123   -0.00510   -0.01385
AFIX  43
H11   2    0.608469    0.508265    0.301316    11.00000   -1.20000
AFIX   0
HKLF 4




REM  P-1 in P-1
REM R1 =  0.0704 for    2034 Fo > 4sig(Fo)  and  0.0748 for all    2211 data
REM    196 parameters refined using    207 restraints

END

WGHT      0.1126      0.6337

REM Highest difference peak  0.491,  deepest hole -0.711,  1-sigma level  0.068
Q1    1   0.7834  0.7083  0.4294  11.00000  0.05    0.49
Q2    1   0.3270  1.0272  0.6794  11.00000  0.05    0.22
Q3    1   1.0556  0.2268 -0.0358  11.00000  0.05    0.18
Q4    1   0.4680  1.0621  0.6986  11.00000  0.05    0.17
Q5    1   0.5042  1.0239  0.7383  11.00000  0.05    0.17
Q6    1   1.1665 -0.0875  0.0765  11.00000  0.05    0.17
Q7    1   0.9796  0.2374  0.1624  11.00000  0.05    0.16
Q8    1   0.7755  0.1980  0.4676  11.00000  0.05    0.15
Q9    1   0.5066  1.0628  0.7983  11.00000  0.05    0.15
Q10   1   0.6706  0.7035  0.7440  11.00000  0.05    0.15
Q11   1   0.6529  0.7786  0.8136  11.00000  0.05    0.15
Q12   1   0.6559  0.8159  0.7114  11.00000  0.05    0.15
Q13   1   0.9349  0.1346  0.4250  11.00000  0.05    0.15
Q14   1   0.7862  0.8432  0.6380  11.00000  0.05    0.14
Q15   1   0.8728  0.3740  0.7761  11.00000  0.05    0.14
Q16   1   0.5703  0.7472  1.1089  11.00000  0.05    0.14
Q17   1   0.5246  0.6473  0.1637  11.00000  0.05    0.14
Q18   1   0.6322  0.6058  0.9873  11.00000  0.05    0.14
Q19   1   1.2361 -0.0413  0.3570  11.00000  0.05    0.14
Q20   1   0.9581  0.3863  0.8111  11.00000  0.05    0.14
;
_shelx_res_checksum              69597
_shelx_hkl_file
;
  -1   0   0    2.89    0.13
   1   0   0    3.08    0.14
  -2   0   0  237.16    6.31
  -2   0   0  243.92    6.33
  -2   0   0  234.36    6.29
  -3   0   0   82.98    2.28
  -3   0   0   82.10    2.26
  -4   0   0    1.48    0.17
  -4   0   0    1.24    0.16
  -5   0   0   20.11    0.71
  -6   0   0   17.10    0.67
  -7   0   0    3.91    0.30
  -7   0   0    2.53    0.38
  -8   0   0    0.62    0.33
  -8   0   0    0.15    0.22
  -9   0   0    8.19    0.70
  -9   0   0    7.61    0.65
 -10   0   0    1.50    0.61
 -11   0   0   -0.43    0.76
 -11   1   0    0.56    0.89
 -10   1   0    0.43    0.64
  -9   1   0    0.92    0.40
  -9   1   0    1.11    0.57
  -8   1   0   21.20    1.01
  -8   1   0   21.41    0.85
  -7   1   0    1.02    0.27
  -7   1   0    1.16    0.20
  -6   1   0   33.35    1.11
  -6   1   0   34.13    1.25
  -5   1   0    4.46    0.35
  -4   1   0  566.07   14.94
  -3   1   0    8.16    0.33
   2  -1   0    2.20    0.14
   2  -1   0    2.23    0.13
  -2   1   0    2.54    0.15
  -1   1   0  192.91    5.09
  -1  -1   0  102.59    2.82
  -1  -1   0  110.36    2.81
   1   1   0  106.22    2.81
   1   1   0  105.10    2.83
   3   1   0   13.71    0.51
   4   1   0    0.83    0.16
  -5  -1   0   18.71    0.68
  -5  -1   0   18.55    0.66
  -6  -1   0   19.23    0.75
  -6  -1   0   19.05    0.76
  -7  -1   0    4.29    0.32
  -8  -1   0    3.68    0.36
  -8  -1   0    2.46    0.44
  -9  -1   0    0.59    0.30
  -9  -1   0    0.00    0.38
 -10  -1   0    4.48    0.83
 -11  -1   0   -0.15    0.71
 -12  -1   0    0.47    1.24
 -10   2   0    0.54    0.78
  -9   2   0    0.81    0.57
  -8   2   0    7.39    0.55
  -8   2   0    8.59    0.72
  -7   2   0   20.37    0.94
  -7   2   0   20.60    0.78
  -6   2   0    0.55    0.21
  -6   2   0    0.83    0.17
  -5   2   0   52.53    1.58
  -5   2   0   50.81    1.70
  -4   2   0   78.72    2.23
  -3   2   0   29.80    0.91
   1  -2   0  173.77    4.70
  -1   2   0  179.54    4.70
  -1   2   0  178.72    4.75
   0  -2   0  236.80    6.10
   0   2   0  226.18    6.10
  -1  -2   0   39.38    1.10
  -1  -2   0   39.33    1.09
   1   2   0   39.88    1.12
  -3  -2   0    0.41    0.08
   3   2   0    0.58    0.12
   4   2   0  185.88    5.08
   5   2   0    4.88    0.33
   6   2   0   42.17    1.44
  -7  -2   0    7.11    0.41
  -7  -2   0    7.00    0.40
  -8  -2   0    6.23    0.51
  -8  -2   0    6.97    0.44
  -8  -2   0    7.04    0.46
  -9  -2   0    0.22    0.27
 -10  -2   0    0.42    0.44
 -10  -2   0    0.19    0.49
 -11  -2   0    0.58    0.71
 -12  -2   0    0.26    0.88
 -10   3   0    1.93    0.92
  -9   3   0    3.55    0.75
  -8   3   0    0.01    0.49
  -8   3   0   -0.42    0.30
  -7   3   0    9.87    0.67
  -7   3   0    9.21    0.49
  -6   3   0   50.46    1.77
  -6   3   0   51.88    1.58
  -5   3   0    0.98    0.20
  -5   3   0    1.11    0.18
  -4   3   0  145.18    4.24
  -4   3   0  151.99    4.08
  -2   3   0  640.75   16.95
  -1   3   0  122.75    3.25
  -1   3   0  118.07    3.30
   0   3   0    0.78    0.10
   0   3   0    0.92    0.11
  -1  -3   0  111.81    3.14
  -1  -3   0  116.79    3.10
   1   3   0  124.92    3.10
   1   3   0  114.85    3.16
  -2  -3   0  137.36    3.54
  -2  -3   0  134.02    3.58
   2   3   0  129.20    3.63
  -3  -3   0   82.29    2.26
   3   3   0   82.02    2.34
  -4  -3   0    6.67    0.31
   4   3   0    6.77    0.37
  -5  -3   0   13.08    0.51
   5   3   0   12.87    0.59
  -6  -3   0    1.56    0.22
   6   3   0    1.94    0.32
  -7  -3   0    3.12    0.44
   7   3   0    2.79    0.37
  -8  -3   0    0.96    0.27
  -8  -3   0    0.67    0.20
  -8  -3   0    1.08    0.25
  -8  -3   0    0.65    0.22
  -9  -3   0    2.01    0.38
  -9  -3   0    2.18    0.36
  -9  -3   0    1.74    0.28
  -9  -3   0    2.20    0.34
 -10  -3   0    0.30    0.37
 -10  -3   0    0.62    0.43
 -10  -3   0    0.50    0.46
 -11  -3   0    0.43    0.67
 -12  -3   0   -0.01    1.30
 -10   4   0    9.48    1.80
  -9   4   0    1.61    0.82
  -8   4   0    2.60    0.46
  -7   4   0    0.65    0.25
  -7   4   0    0.86    0.41
  -6   4   0    1.17    0.29
  -6   4   0    0.61    0.19
  -5   4   0    3.02    0.33
  -5   4   0    3.10    0.27
  -4   4   0    9.59    0.50
  -4   4   0   10.52    0.46
  -3   4   0  101.21    3.02
  -3   4   0  105.21    2.89
  -2   4   0   53.26    1.65
  -2   4   0   54.53    1.57
  -1   4   0   34.11    1.01
  -1   4   0   32.76    1.05
   0   4   0    1.10    0.13
   0   4   0    1.17    0.12
   1   4   0  217.13    5.63
   1   4   0  208.74    5.69
  -2  -4   0   47.06    1.33
   2   4   0   45.83    1.38
  -3  -4   0  103.62    2.75
   3   4   0   96.56    2.82
  -4  -4   0    2.10    0.18
   4   4   0    1.76    0.25
  -5  -4   0    2.70    0.21
   5   4   0    2.46    0.39
  -6  -4   0   12.42    0.51
   6   4   0   11.96    0.60
  -7  -4   0    2.10    0.41
   7   4   0    2.16    0.36
  -8  -4   0   11.15    0.56
  -8  -4   0   12.82    0.65
   8   4   0   11.84    0.72
  -9  -4   0    1.06    0.36
  -9  -4   0    0.77    0.24
  -9  -4   0    0.70    0.30
  -9  -4   0    1.23    0.30
 -10  -4   0    3.08    0.52
 -10  -4   0    2.44    0.36
 -10  -4   0    3.19    0.55
 -10  -4   0    3.17    0.54
 -11  -4   0   -0.16    0.78
  -9   5   0   -0.42    0.90
  -8   5   0    3.95    0.82
  -7   5   0    4.07    0.50
  -7   5   0    4.94    0.82
  -6   5   0    6.09    0.57
  -6   5   0    5.36    0.40
  -5   5   0   10.41    0.60
  -5   5   0   11.12    0.50
  -4   5   0    4.24    0.35
  -4   5   0    3.60    0.28
  -3   5   0    7.66    0.37
  -3   5   0    7.17    0.52
  -2   5   0    4.06    0.32
  -2   5   0    4.51    0.31
  -1   5   0    2.03    0.20
  -1   5   0    1.78    0.20
   0   5   0   24.88    0.82
   0   5   0   26.16    0.82
   1   5   0   22.22    0.70
   1   5   0   24.25    0.77
  -2  -5   0  182.89    4.85
   2   5   0  178.19    4.92
  -4  -5   0    2.55    0.19
   4   5   0    2.32    0.32
  -5  -5   0   32.09    1.03
   5   5   0   33.46    1.17
  -6  -5   0    0.42    0.14
   6   5   0    0.38    0.18
  -7  -5   0    9.62    0.58
   7   5   0    8.72    0.55
  -8  -5   0   -0.04    0.19
  -8  -5   0    0.22    0.43
   8   5   0    0.33    0.29
  -9  -5   0    2.51    0.48
  -9  -5   0    2.87    0.41
   9   5   0    3.11    0.58
 -10  -5   0    0.08    0.32
 -10  -5   0    0.93    0.57
 -10  -5   0    0.24    0.43
 -10  -5   0    0.03    0.44
  -9   6   0    2.59    1.33
  -8   6   0   12.73    1.31
  -7   6   0   -0.20    0.35
  -7   6   0    0.23    0.59
  -6   6   0    8.57    0.55
  -6   6   0    8.49    0.75
  -5   6   0    6.08    0.54
  -5   6   0    5.39    0.39
  -3   6   0   10.70    0.61
  -3   6   0   11.02    0.48
  -2   6   0   21.67    0.76
  -2   6   0   20.05    0.82
  -1   6   0   20.51    0.72
  -1   6   0   19.81    0.75
   0   6   0    8.47    0.41
   0   6   0    9.33    0.41
   1   6   0   95.27    2.62
   1   6   0   95.44    2.70
   2   6   0    0.47    0.17
  -3  -6   0   43.69    1.32
   3   6   0   45.53    1.43
  -4  -6   0    0.36    0.10
   4   6   0    0.46    0.13
  -5  -6   0   22.06    0.75
   5   6   0   22.11    0.87
  -6  -6   0    1.71    0.25
   6   6   0    1.73    0.31
  -7  -6   0    0.03    0.29
  -8  -6   0    2.55    0.34
  -8  -6   0    2.50    0.48
   8   6   0    2.99    0.49
  -9  -6   0    0.90    0.25
   9   6   0    0.58    0.53
 -10  -6   0    0.10    0.44
  10   6   0   -0.23    0.66
 -11  -6   0   -0.29    0.62
 -11  -6   0   -0.30    0.59
  -8   7   0    0.97    0.97
  -7   7   0    6.45    1.05
  -6   7   0    2.75    0.44
  -6   7   0    3.17    0.68
  -5   7   0    2.91    0.43
  -5   7   0    3.35    0.58
  -4   7   0    0.43    0.30
  -4   7   0    0.09    0.20
  -3   7   0    2.49    0.28
  -3   7   0    2.68    0.37
  -1   7   0    1.19    0.24
  -1   7   0    0.92    0.16
   0   7   0   30.74    1.05
   0   7   0   33.59    1.07
   2   7   0   14.75    0.61
  -3  -7   0   15.35    0.57
   3   7   0   14.73    0.63
  -4  -7   0    4.63    0.28
   4   7   0    4.54    0.33
  -5  -7   0    0.21    0.13
   5   7   0    0.09    0.17
  -6  -7   0   21.52    0.83
   6   7   0   19.61    0.87
  -7  -7   0    1.49    0.23
   7   7   0    1.09    0.29
  -8  -7   0    2.28    0.34
   8   7   0    2.33    0.41
  -9  -7   0    0.55    0.25
   9   7   0    0.12    0.60
  10   7   0    6.63    1.01
  11   7   0   -0.43    0.91
  -7   8   0    1.97    0.94
  -6   8   0    0.45    0.70
  -6   8   0    0.69    0.42
  -5   8   0    2.02    0.37
  -5   8   0    2.14    0.62
  -4   8   0   11.27    0.58
  -4   8   0   10.53    0.76
  -3   8   0    0.27    0.32
  -3   8   0    1.09    0.21
  -2   8   0   39.92    1.43
  -2   8   0   40.28    1.33
  -1   8   0   13.52    0.58
  -1   8   0   13.64    0.69
   0   8   0    0.96    0.22
   0   8   0    0.62    0.15
   1   8   0   11.73    0.49
   1   8   0   11.68    0.53
   3   8   0    2.97    0.32
   4   8   0    0.74    0.18
  -5  -8   0    0.52    0.26
   5   8   0    1.04    0.21
  -6  -8   0   12.58    0.58
   6   8   0   12.57    0.70
  -7  -8   0    3.94    0.34
   7   8   0    3.71    0.51
  -8  -8   0    1.35    0.23
   8   8   0    2.28    0.47
  -9  -8   0    0.25    0.26
   9   8   0    0.56    0.58
  10   8   0    1.47    0.83
  11   8   0   -0.13    0.89
  -7   9   0    2.31    1.27
  -6   9   0    2.59    1.05
  -5   9   0    5.33    1.02
  -5   9   0    5.76    0.65
  -4   9   0    1.09    0.36
  -4   9   0    1.53    0.62
  -3   9   0    4.82    0.52
  -3   9   0    5.26    0.67
  -2   9   0    7.32    0.60
  -2   9   0    7.56    0.46
  -1   9   0    5.10    0.38
  -1   9   0    5.10    0.58
   0   9   0    2.83    0.30
   0   9   0    2.55    0.37
   1   9   0    0.15    0.21
   1   9   0   -0.07    0.16
   2   9   0   41.58    1.42
   3   9   0   35.84    1.31
   4   9   0    6.18    0.48
  -5  -9   0    0.09    0.15
   5   9   0   -0.08    0.23
  -6  -9   0    0.23    0.17
   6   9   0    0.27    0.28
  -7  -9   0    0.99    0.21
   7   9   0    1.56    0.37
  -8  -9   0   24.84    0.90
   8   9   0   24.61    1.35
   9   9   0    0.77    0.60
  10   9   0    1.21    0.93
  11   9   0    1.54    1.09
  -6  10   0   -1.26    0.99
  -5  10   0    0.65    0.99
  -5  10   0    0.73    0.47
  -4  10   0    6.03    0.66
  -4  10   0    4.86    1.04
  -3  10   0    0.91    0.56
  -3  10   0    0.72    0.34
  -2  10   0    5.29    0.64
  -2  10   0    6.15    0.56
  -1  10   0   17.70    0.84
  -1  10   0   18.96    0.85
   0  10   0    1.14    0.43
   0  10   0    0.55    0.23
   1  10   0    4.33    0.41
   2  10   0   14.32    0.72
   3  10   0    0.91    0.27
   4  10   0  130.22    3.92
   5  10   0    8.73    0.66
  -6 -10   0   -0.23    0.19
   6  10   0    0.07    0.36
  -7 -10   0   -0.31    0.21
   7  10   0    0.27    0.43
  -8 -10   0    2.67    0.44
   8  10   0    4.78    0.88
   9  10   0   -0.49    0.66
  10  10   0    1.44    0.95
  -5  11   0   -0.65    0.92
  -4  11   0    2.37    0.86
  -4  11   0    4.14    0.78
  -3  11   0    0.89    0.42
  -3  11   0    1.00    0.71
  -2  11   0    1.45    0.41
  -2  11   0    1.82    0.52
  -1  11   0    0.31    0.32
   0  11   0   28.13    1.17
   1  11   0    5.05    0.66
   2  11   0   -0.11    0.35
   3  11   0    3.70    0.66
   4  11   0    5.44    0.75
   5  11   0    0.67    0.43
   6  11   0   35.63    1.55
  -7 -11   0   -0.20    0.26
   7  11   0    0.05    0.51
  -8 -11   0   -0.44    0.54
   8  11   0    0.49    0.63
   9  11   0    1.19    0.73
  10  11   0    4.02    1.21
  -3  12   0    2.66    0.68
  -2  12   0    1.26    0.50
  -1  12   0    2.10    0.51
   0  12   0    0.58    0.41
   1  12   0    2.53    0.46
   2  12   0    7.81    0.79
   3  12   0   -0.31    0.42
   4  12   0    2.25    0.51
   5  12   0    3.98    0.80
   6  12   0   45.08    1.94
   7  12   0    0.14    0.64
   8  12   0    0.43    0.70
   9  12   0   -0.36    0.94
  -1  13   0    1.77    0.73
   0  13   0    9.00    1.00
   1  13   0    5.04    0.93
   2  13   0   12.05    1.12
   3  13   0    1.35    0.60
   4  13   0    0.35    0.57
   5  13   0    0.27    0.62
   6  13   0    0.77    0.67
   7  13   0    1.91    0.76
   8  13   0    8.36    1.68
   2  14   0    0.28    0.86
   3  14   0    0.10    0.74
   4  14   0    5.30    0.89
   5  14   0    0.25    0.80
   6  14   0    0.41    1.03
   7  13  -1    0.19    0.83
   6  13  -1    0.67    0.70
   5  13  -1    1.29    0.67
   4  13  -1    0.81    0.67
   3  13  -1    2.43    0.67
   2  13  -1    9.87    1.11
   1  13  -1    1.73    0.62
   0  13  -1    2.70    0.72
   9  12  -1   -0.40    1.08
   8  12  -1    0.25    0.75
   7  12  -1    0.87    0.68
   6  12  -1    4.97    0.76
   5  12  -1    0.35    0.53
   4  12  -1    0.05    0.45
   3  12  -1    1.28    0.54
   2  12  -1    4.05    0.77
   1  12  -1    0.72    0.47
   0  12  -1    0.12    0.45
  -1  12  -1    5.84    0.81
  -2  12  -1    1.32    0.62
  10  11  -1    1.79    1.14
   9  11  -1    1.06    0.85
   8  11  -1   -0.17    0.67
  -8 -11   1    0.82    0.38
   7  11  -1    1.94    0.57
  -7 -11   1    1.75    0.31
   6  11  -1   14.61    1.04
   5  11  -1    0.09    0.40
   4  11  -1    0.69    0.39
   3  11  -1    0.66    0.39
   2  11  -1    2.76    0.47
   1  11  -1    1.34    0.34
   0  11  -1   21.30    1.02
  -1  11  -1    1.24    0.36
  -2  11  -1   12.98    0.86
  -3  11  -1    0.03    0.43
  10  10  -1   -0.27    0.84
   9  10  -1    0.31    0.81
  -9 -10   1   -0.02    0.40
   8  10  -1    1.20    0.60
  -8 -10   1   -0.13    0.28
   7  10  -1   -0.02    0.47
  -7 -10   1   -0.27    0.24
   6  10  -1    3.21    0.55
  -6 -10   1    3.41    0.37
   5  10  -1    1.53    0.34
   4  10  -1  140.93    4.20
   3  10  -1    6.29    0.53
   2  10  -1    7.67    0.55
   1  10  -1    2.11    0.40
   0  10  -1    4.09    0.50
  -1  10  -1    3.48    0.53
  -1  10  -1    2.95    0.47
  -2  10  -1    0.19    0.43
  -2  10  -1    0.13    0.29
  -3  10  -1    7.00    0.64
  -3  10  -1    6.34    0.87
  -4  10  -1    0.66    0.43
  -4  10  -1    1.20    0.83
  -5  10  -1    4.01    1.16
  -5  10  -1    3.33    0.61
  -6  10  -1    0.59    1.26
  11   9  -1    1.46    1.11
  10   9  -1    0.86    0.91
   9   9  -1   -0.19    0.69
  -9  -9   1   -0.05    0.32
   8   9  -1   11.79    1.03
  -8  -9   1   10.75    0.59
   7   9  -1    0.29    0.40
  -7  -9   1    0.28    0.22
   6   9  -1    0.44    0.30
  -6  -9   1    0.57    0.18
   5   9  -1    2.61    0.41
  -5  -9   1    2.92    0.29
   4   9  -1   43.55    1.54
  -4  -9   1   43.48    1.39
   3   9  -1    0.89    0.21
   2   9  -1   38.98    1.36
   1   9  -1   15.17    0.67
   1   9  -1   14.15    0.55
   0   9  -1    1.20    0.20
   0   9  -1    1.19    0.27
  -1   9  -1    2.93    0.53
  -1   9  -1    2.32    0.34
  -2   9  -1   39.59    1.49
  -2   9  -1   40.17    1.41
  -3   9  -1    1.24    0.34
  -3   9  -1    1.90    0.52
  -4   9  -1    3.54    0.76
  -4   9  -1    3.84    0.55
  -5   9  -1    0.38    0.88
  -5   9  -1    0.23    0.40
  -6   9  -1    2.25    0.57
  -6   9  -1    3.78    1.25
  11   8  -1    0.15    0.85
  10   8  -1    0.16    0.81
 -10  -8   1   -0.29    0.59
   9   8  -1    1.26    0.69
  -9  -8   1    0.66    0.30
   8   8  -1    4.48    0.74
  -8  -8   1    4.40    0.41
   7   8  -1    0.13    0.32
  -7  -8   1    0.00    0.18
   6   8  -1   11.98    0.69
  -6  -8   1   13.35    0.55
   5   8  -1    0.17    0.21
  -5  -8   1   -0.09    0.15
   3   8  -1    2.91    0.31
   2   8  -1  316.71    8.60
   1   8  -1    0.07    0.18
   1   8  -1    0.16    0.13
   0   8  -1   39.78    1.31
   0   8  -1   39.21    1.28
  -1   8  -1    0.42    0.29
  -1   8  -1    0.39    0.17
  -2   8  -1    3.66    0.34
  -2   8  -1    2.96    0.48
  -3   8  -1   19.50    0.80
  -3   8  -1   19.33    0.93
  -4   8  -1   14.69    0.92
  -4   8  -1   12.46    0.73
  -5   8  -1    1.02    0.74
  -5   8  -1    0.00    0.34
  -6   8  -1    1.43    0.81
  -6   8  -1    0.58    0.42
  -7   8  -1   -0.48    0.90
  11   7  -1   -0.31    0.91
  10   7  -1    9.84    1.36
 -10  -7   1    9.26    0.74
   9   7  -1   -0.18    0.66
  -9  -7   1    0.56    0.27
   8   7  -1    4.54    0.63
  -8  -7   1    3.95    0.39
   7   7  -1    0.99    0.30
  -7  -7   1    0.44    0.17
   6   7  -1   89.70    2.76
  -6  -7   1   87.39    2.58
   5   7  -1    4.09    0.35
  -5  -7   1    3.35    0.41
   4   7  -1    0.58    0.16
  -4  -7   1    0.55    0.17
   3   7  -1    0.05    0.12
  -3  -7   1    0.08    0.14
   1   7  -1   82.56    2.29
   1   7  -1   80.99    2.39
   0   7  -1  191.16    5.19
   0   7  -1  188.54    5.21
  -1   7  -1   -0.12    0.11
  -1   7  -1    0.04    0.20
  -2   7  -1    3.58    0.30
  -2   7  -1    4.14    0.64
  -3   7  -1    7.82    0.55
  -3   7  -1    7.92    0.45
  -4   7  -1    2.53    0.46
  -4   7  -1    2.21    0.36
  -5   7  -1    8.31    0.76
  -5   7  -1    8.05    0.59
  -6   7  -1   -0.25    0.34
  -6   7  -1    0.36    0.59
  -7   7  -1    3.05    0.86
  -8   7  -1    2.04    1.08
  10   6  -1    8.50    1.35
 -10  -6   1   10.17    0.71
   9   6  -1   -0.19    0.47
  -9  -6   1   -0.10    0.25
   8   6  -1    4.39    0.61
  -8  -6   1    3.50    0.36
   7   6  -1    6.48    0.52
  -7  -6   1    6.81    0.40
   6   6  -1    0.42    0.21
  -6  -6   1    0.50    0.24
   5   6  -1   13.71    0.63
  -5  -6   1   13.48    0.55
   4   6  -1   84.57    2.54
  -4  -6   1   86.22    2.44
   3   6  -1    0.69    0.11
  -3  -6   1    0.88    0.16
   2   6  -1    8.78    0.39
  -2  -6   1    6.99    0.35
   1   6  -1   27.11    0.90
   1   6  -1   27.34    0.84
   0   6  -1   34.47    1.09
   0   6  -1   33.65    1.07
  -1   6  -1   51.14    1.61
  -1   6  -1   52.53    1.58
  -3   6  -1    6.59    0.37
  -3   6  -1    6.42    0.48
  -4   6  -1   33.81    1.14
  -4   6  -1   33.30    1.27
  -5   6  -1    0.58    0.23
  -5   6  -1    0.95    0.35
  -6   6  -1    8.37    0.62
  -6   6  -1    8.29    0.77
  -7   6  -1    1.41    0.41
  -7   6  -1    2.04    0.68
  -8   6  -1    1.07    0.86
 -10  -5   1    2.65    0.53
 -10  -5   1    2.70    0.52
 -10  -5   1    2.20    0.38
   9   5  -1    3.55    0.58
  -9  -5   1    3.80    0.62
  -9  -5   1    3.20    0.42
   8   5  -1   25.06    1.11
  -8  -5   1   24.67    1.03
  -8  -5   1   23.48    0.89
   7   5  -1    2.38    0.37
  -7  -5   1    1.91    0.29
  -7  -5   1    2.37    0.33
   6   5  -1    8.85    0.49
  -6  -5   1    7.94    0.38
  -6  -5   1    8.10    0.47
   5   5  -1   -0.05    0.16
  -5  -5   1    0.25    0.11
   4   5  -1  104.96    3.04
  -4  -5   1  104.98    2.93
   3   5  -1   18.43    0.72
  -3  -5   1   19.25    0.65
   2   5  -1    1.52    0.19
  -2  -5   1    1.37    0.15
   1   5  -1   23.94    0.72
   1   5  -1   23.57    0.78
   0   5  -1   18.36    0.64
   0   5  -1   19.26    0.66
  -1   5  -1    1.43    0.20
  -1   5  -1    1.66    0.23
  -2   5  -1    0.61    0.13
  -2   5  -1    0.52    0.16
  -3   5  -1    1.70    0.22
  -3   5  -1    2.10    0.42
  -4   5  -1    0.77    0.16
  -4   5  -1    0.62    0.22
  -5   5  -1    5.65    0.46
  -5   5  -1    4.45    0.35
  -6   5  -1    1.21    0.39
  -6   5  -1    1.44    0.25
  -7   5  -1    2.22    0.70
  -7   5  -1    1.67    0.38
  -8   5  -1   -0.14    0.76
  -9   5  -1    4.94    1.13
 -11  -4   1   -0.37    0.57
 -10  -4   1    0.63    0.48
 -10  -4   1    0.35    0.34
 -10  -4   1    0.77    0.48
 -10  -4   1    0.75    0.52
   9   4  -1    2.37    0.49
  -9  -4   1    1.53    0.37
   8   4  -1    0.53    0.33
  -8  -4   1    0.76    0.20
  -8  -4   1    0.85    0.33
   7   4  -1    8.84    0.55
  -7  -4   1    8.07    0.50
  -7  -4   1    8.90    0.46
   6   4  -1   17.88    0.77
  -6  -4   1   17.16    0.68
  -6  -4   1   17.28    0.66
   5   4  -1    7.93    0.51
  -5  -4   1    8.52    0.38
  -5  -4   1    8.60    0.39
   4   4  -1   28.59    0.99
  -4  -4   1   28.85    0.93
  -4  -4   1   29.68    0.86
   3   4  -1  112.96    3.18
  -3  -4   1  114.02    3.12
   2   4  -1   64.14    1.86
  -2  -4   1   66.27    1.84
   1   4  -1   42.90    1.25
  -1  -4   1   42.51    1.25
   0   4  -1    5.70    0.27
   0   4  -1    5.63    0.27
  -1   4  -1  129.77    3.52
  -1   4  -1  128.04    3.56
  -2   4  -1   20.90    0.73
  -3   4  -1   14.67    0.57
  -3   4  -1   14.55    0.65
  -4   4  -1    5.95    0.42
  -4   4  -1    7.15    0.36
  -5   4  -1    3.69    0.31
  -5   4  -1    4.18    0.37
  -6   4  -1    1.57    0.33
  -6   4  -1    2.33    0.36
  -7   4  -1    0.59    0.28
  -7   4  -1    0.74    0.42
  -8   4  -1    4.68    0.62
  -8   4  -1    6.03    0.91
  -9   4  -1    1.45    0.95
 -11  -3   1    2.57    0.57
 -11  -3   1    2.39    0.72
 -10  -3   1   10.84    0.79
 -10  -3   1   10.61    0.83
  -9  -3   1    0.94    0.33
  -9  -3   1    1.18    0.33
  -9  -3   1    1.04    0.27
  -9  -3   1    0.65    0.31
  -8  -3   1    5.92    0.46
  -8  -3   1    5.38    0.44
   7   3  -1    4.80    0.45
  -7  -3   1    5.09    0.42
  -7  -3   1    5.17    0.54
   6   3  -1    6.61    0.58
  -6  -3   1    6.70    0.41
  -6  -3   1    7.22    0.39
   5   3  -1   12.74    0.57
  -5  -3   1   12.65    0.51
   4   3  -1   10.24    0.44
  -4  -3   1    8.67    0.40
   3   3  -1   69.33    2.02
  -3  -3   1   71.86    1.92
  -3  -3   1   70.40    1.98
   2   3  -1   77.06    2.16
  -2  -3   1   78.16    2.15
   1   3  -1   75.14    1.97
  -1  -3   1   67.35    1.96
   0   3  -1  237.74    6.31
  -1   3  -1  122.34    3.32
  -2   3  -1   17.00    0.59
  -3   3  -1   19.93    0.70
  -4   3  -1    3.01    0.26
  -5   3  -1    4.81    0.31
  -5   3  -1    4.23    0.35
  -6   3  -1    5.14    0.45
  -6   3  -1    5.30    0.36
  -7   3  -1    8.52    0.66
  -7   3  -1    8.74    0.50
  -8   3  -1   -0.06    0.34
  -8   3  -1    0.41    0.61
  -9   3  -1    3.67    0.84
  -9   3  -1    2.36    0.65
 -10   3  -1    0.04    0.99
 -11  -2   1    1.61    0.55
 -11  -2   1    1.66    0.67
 -10  -2   1    7.75    0.83
 -10  -2   1   10.36    0.76
  -9  -2   1   -0.26    0.35
  -9  -2   1    0.53    0.28
  -8  -2   1    7.26    0.46
  -8  -2   1    6.74    0.46
  -8  -2   1    7.07    0.50
  -7  -2   1    8.74    0.45
  -7  -2   1    8.82    0.45
  -7  -2   1    8.54    0.61
   6   2  -1   29.42    1.11
  -6  -2   1   28.07    1.03
   5   2  -1   28.42    0.96
  -5  -2   1   27.01    0.94
   4   2  -1    1.12    0.17
  -4  -2   1    0.84    0.14
   3   2  -1   77.74    2.19
  -3  -2   1   77.77    2.17
   2   2  -1   59.62    1.62
  -2  -2   1   56.59    1.59
  -2  -2   1   58.95    1.61
  -2  -2   1   55.67    1.55
   0   2  -1  114.95    3.09
   0  -2   1  116.22    3.09
   0  -2   1  114.93    3.09
  -1   2  -1  204.61    5.44
  -2   2  -1  129.73    3.52
  -3   2  -1   10.24    0.41
  -4   2  -1    1.73    0.27
  -5   2  -1   33.91    1.10
  -6   2  -1    0.66    0.17
  -7   2  -1    0.67    0.30
  -7   2  -1    0.68    0.22
  -8   2  -1    2.52    0.58
  -8   2  -1    2.02    0.36
  -9   2  -1   -0.12    0.58
  -9   2  -1   -0.14    0.39
 -10   2  -1    1.02    0.89
 -12  -1   1    0.73    1.04
 -11  -1   1    0.88    0.71
 -11  -1   1    1.43    0.54
 -10  -1   1    0.64    0.57
  -9  -1   1    4.12    0.57
  -9  -1   1    4.05    0.49
  -8  -1   1    4.44    0.37
  -8  -1   1    3.58    0.45
  -7  -1   1    2.82    0.30
  -6  -1   1   18.37    0.75
  -6  -1   1   18.25    0.75
  -6  -1   1   19.07    0.81
   5   1  -1    1.37    0.21
  -5  -1   1    1.64    0.22
   4   1  -1    7.89    0.36
   3   1  -1    9.36    0.36
  -3  -1   1    7.31    0.35
  -3  -1   1    9.22    0.36
   2   1  -1   70.58    1.94
  -2  -1   1   71.90    1.92
  -2  -1   1   68.98    1.92
   1   1  -1   88.96    2.40
   1   1  -1   79.99    2.37
  -1  -1   1   94.58    2.39
  -1  -1   1   90.85    2.38
  -1  -1   1   95.78    2.42
   0   1  -1  161.34    4.40
   0   1  -1  167.10    4.41
   0  -1   1  166.62    4.41
   0  -1   1  173.38    4.41
  -1   1  -1   21.20    0.63
  -2   1  -1   20.59    0.65
  -3   1  -1  164.63    4.45
  -4   1  -1  215.83    5.83
  -5   1  -1    3.67    0.31
  -6   1  -1   47.85    1.50
  -7   1  -1    4.84    0.40
  -8   1  -1   18.76    0.82
  -8   1  -1   19.13    0.97
  -9   1  -1    2.51    0.47
  -9   1  -1    2.83    0.66
 -10   1  -1   -0.04    0.67
 -11   1  -1    1.71    1.04
 -11   0   1    0.13    0.72
 -10   0   1    2.82    0.64
  -9   0   1    0.86    0.42
  -9   0   1    0.01    0.43
  -8   0   1    6.75    0.53
  -8   0   1    6.45    0.45
  -7   0   1    0.88    0.27
  -7   0   1    0.63    0.17
  -6   0   1    9.11    0.52
  -6   0   1    8.60    0.56
  -5   0   1   51.45    1.54
  -5   0   1   53.20    1.67
  -4   0   1  110.78    3.00
  -4   0   1  111.05    3.12
  -4   0   1  108.06    3.01
  -3   0   1   36.04    1.08
  -3   0   1   35.98    1.12
  -3   0   1   36.61    1.04
  -3   0   1   37.59    1.06
   1   0  -1   77.59    2.10
  -1   0   1   78.88    2.10
   0   0  -1    0.02    0.02
   0   0  -1   -0.02    0.03
  -1   0  -1   16.77    0.49
  -1   0  -1   16.37    0.48
   1   0   1   15.56    0.49
   1   0   1   16.56    0.48
  -2   0  -1  167.02    4.17
  -2   0  -1  136.47    4.22
  -2   0  -1  165.01    4.18
  -3   0  -1   90.86    2.49
  -3   0  -1   89.15    2.48
  -4   0  -1  141.62    3.88
  -5   0  -1    3.26    0.33
  -6   0  -1   75.33    2.23
  -7   0  -1   14.82    0.63
  -8   0  -1    3.48    0.49
  -8   0  -1    4.33    0.43
  -9   0  -1    2.54    0.51
  -9   0  -1    2.59    0.45
 -10   0  -1    8.58    0.93
 -11   0  -1   -0.74    0.81
 -11   1   1    0.32    0.82
 -10   1   1   -0.18    0.58
  -9   1   1    1.73    0.55
  -8   1   1    8.87    0.63
  -8   1   1    8.10    0.50
  -7   1   1    4.68    0.45
  -7   1   1    5.97    0.37
  -6   1   1    9.10    0.52
  -6   1   1    9.01    0.56
  -5   1   1   -0.07    0.18
  -5   1   1   -0.12    0.11
  -4   1   1   56.69    1.63
  -4   1   1   57.90    1.77
  -3   1   1    5.73    0.24
  -3   1   1    5.67    0.30
   2  -1  -1  121.83    3.31
   2  -1  -1  124.78    3.30
  -2   1   1  123.58    3.31
  -2   1   1  126.43    3.39
   1  -1  -1    7.83    0.24
  -1   1   1    7.28    0.23
  -1   1   1    8.40    0.29
  -1  -1  -1   65.72    1.78
   1   1   1   65.30    1.78
   1   1   1   64.68    1.77
  -2  -1  -1 1000.00   26.22
   3   1   1  124.68    3.44
  -4  -1  -1    6.35    0.30
  -4  -1  -1    5.99    0.31
  -5  -1  -1    1.59    0.25
  -5  -1  -1    1.49    0.24
  -6  -1  -1  227.95    6.25
  -6  -1  -1  229.87    6.22
  -7  -1  -1    5.74    0.37
  -8  -1  -1    5.04    0.41
  -9  -1  -1    0.70    0.39
  -9  -1  -1    0.83    0.31
 -10  -1  -1    4.90    0.83
 -10  -1  -1    4.11    0.86
 -11  -1  -1    1.55    0.79
 -11   2   1   -0.21    1.22
 -10   2   1    0.81    0.75
  -9   2   1    0.33    0.53
  -8   2   1    0.08    0.25
  -8   2   1    0.02    0.39
  -7   2   1   14.05    0.59
  -7   2   1   14.66    0.76
  -6   2   1    7.23    0.39
  -6   2   1    6.57    0.45
  -5   2   1    5.09    0.32
  -5   2   1    4.76    0.38
  -4   2   1    1.51    0.16
  -4   2   1    1.51    0.23
  -3   2   1   42.87    1.21
  -3   2   1   41.08    1.33
   2  -2  -1    0.79    0.11
  -2   2   1    0.56    0.13
  -2   2   1    0.76    0.10
  -1   2   1  383.01   10.11
   0  -2  -1  269.05    6.79
   0   2   1  253.73    6.79
   0   2   1  252.47    6.81
  -1  -2  -1  210.17    5.51
  -1  -2  -1  206.17    5.46
   1   2   1  209.45    5.46
   1   2   1  209.54    5.50
   1   2   1  204.71    5.52
   3   2   1   65.09    1.89
   4   2   1   19.41    0.74
   5   2   1    0.42    0.18
  -6  -2  -1   -0.11    0.14
  -7  -2  -1    1.77    0.21
  -7  -2  -1    2.00    0.23
  -8  -2  -1   28.06    1.03
  -9  -2  -1    0.41    0.28
  -9  -2  -1    0.54    0.37
 -10  -2  -1    0.34    0.42
 -10  -2  -1    0.79    0.57
 -11  -2  -1    1.94    0.74
 -12  -2  -1    1.30    0.97
 -10   3   1    1.02    0.82
  -9   3   1    3.08    0.70
  -8   3   1    0.12    0.45
  -7   3   1    0.50    0.34
  -7   3   1   -0.06    0.19
  -6   3   1   46.81    1.42
  -6   3   1   45.44    1.63
  -5   3   1   23.00    0.83
  -5   3   1   21.82    0.89
  -4   3   1   67.18    1.90
  -4   3   1   65.97    2.08
  -2   3   1  686.43   18.13
  -1   3   1   62.58    1.70
  -1   3   1   61.05    1.76
   0  -3  -1   24.89    0.70
   0   3   1   24.09    0.70
   0   3   1   22.30    0.72
   1   3   1   21.36    0.67
   1   3   1   20.69    0.62
  -2  -3  -1   86.05    2.24
   2   3   1   83.99    2.34
   2   3   1   80.23    2.27
  -3  -3  -1    1.64    0.13
   3   3   1    1.54    0.19
  -5  -3  -1    0.15    0.10
   5   3   1    0.30    0.21
   6   3   1   11.14    0.57
   7   3   1    5.71    0.44
  -8  -3  -1    5.68    0.43
  -8  -3  -1    5.59    0.42
  -9  -3  -1    3.17    0.43
  -9  -3  -1    2.94    0.47
  -9  -3  -1    3.54    0.47
 -10  -3  -1   -0.64    0.47
 -10  -3  -1    0.81    0.38
 -10  -3  -1   -0.03    0.38
 -11  -3  -1    0.56    0.67
 -12  -3  -1    0.97    0.88
 -10   4   1    6.13    1.27
  -9   4   1    1.67    0.78
  -8   4   1    0.58    0.60
  -7   4   1    0.11    0.36
  -6   4   1    2.28    0.28
  -6   4   1    2.70    0.41
  -5   4   1   56.20    1.87
  -5   4   1   56.53    1.68
  -4   4   1   19.50    0.80
  -4   4   1   19.56    0.74
  -3   4   1   59.26    1.69
  -3   4   1   57.99    1.84
  -2   4   1   15.25    0.61
  -2   4   1   15.43    0.53
  -1   4   1   44.01    1.36
  -1   4   1   46.26    1.30
   1   4   1   81.98    2.31
   1   4   1   84.64    2.27
  -2  -4  -1   70.31    1.92
   2   4   1   69.19    2.02
   2   4   1   71.65    1.94
  -3  -4  -1   65.62    1.78
   3   4   1   63.53    1.81
   3   4   1   63.92    1.91
  -4  -4  -1  513.22   13.39
   4   4   1  503.24   13.56
  -5  -4  -1    8.53    0.36
   5   4   1    8.40    0.48
  -6  -4  -1    3.49    0.26
   6   4   1    3.08    0.31
  -7  -4  -1    0.08    0.15
   7   4   1    0.00    0.21
  -8  -4  -1    6.54    0.51
   8   4   1    6.81    0.56
  -9  -4  -1    0.39    0.24
  -9  -4  -1    0.56    0.29
  -9  -4  -1    0.24    0.28
 -10  -4  -1    3.48    0.66
 -10  -4  -1    4.29    0.68
 -10  -4  -1    4.11    0.60
 -11  -4  -1   -0.02    0.52
 -11  -4  -1    0.13    0.69
  -9   5   1    8.51    1.42
  -8   5   1    5.98    0.95
  -7   5   1    4.76    0.48
  -6   5   1    1.63    0.30
  -6   5   1    2.57    0.45
  -5   5   1   25.57    0.88
  -5   5   1   24.90    1.03
  -4   5   1   70.38    2.26
  -4   5   1   74.17    2.11
  -3   5   1   21.41    0.90
  -3   5   1   20.42    0.76
  -2   5   1  166.47    4.66
  -2   5   1  168.56    4.54
  -1   5   1   65.03    1.92
  -1   5   1   65.34    1.85
   0   5   1  623.91   16.43
   1   5   1   33.81    1.00
   2   5   1    5.88    0.28
   2   5   1    6.42    0.33
  -3  -5  -1   44.70    1.26
   3   5   1   43.66    1.39
   3   5   1   43.26    1.26
  -4  -5  -1   51.12    1.46
   4   5   1   50.30    1.64
  -5  -5  -1   17.91    0.62
   5   5   1   18.73    0.74
  -6  -5  -1   52.04    1.57
   6   5   1   53.86    1.75
  -7  -5  -1    2.34    0.25
   7   5   1    2.30    0.37
  -8  -5  -1    3.76    0.49
   8   5   1    4.36    0.52
  -9  -5  -1    1.12    0.24
   9   5   1    1.15    0.45
 -10  -5  -1    0.16    0.42
 -10  -5  -1    0.32    0.44
 -11  -5  -1    1.12    0.53
 -11  -5  -1    0.46    0.52
  -9   6   1    0.47    1.12
  -8   6   1   20.32    1.50
  -7   6   1    8.39    0.89
  -6   6   1    3.84    0.60
  -6   6   1    3.73    0.41
  -5   6   1    9.14    0.45
  -5   6   1    8.51    0.59
  -3   6   1   13.30    0.65
  -3   6   1   13.24    0.53
  -2   6   1   40.77    1.24
  -2   6   1   38.55    1.33
  -1   6   1   86.35    2.54
  -1   6   1   89.22    2.49
   0   6   1  132.96    3.67
   0   6   1  133.50    3.67
   1   6   1   12.87    0.46
   1   6   1   11.84    0.50
   2   6   1   99.62    2.73
   2   6   1   99.43    2.85
  -3  -6  -1   54.73    1.52
   3   6   1   50.00    1.65
   3   6   1   53.55    1.50
  -4  -6  -1   16.22    0.56
   4   6   1   16.44    0.67
  -5  -6  -1    3.41    0.23
   5   6   1    2.84    0.27
  -6  -6  -1   -0.09    0.12
   6   6   1   -0.07    0.19
  -7  -6  -1    1.82    0.24
   7   6   1    1.91    0.38
  -8  -6  -1    1.39    0.28
   8   6   1    1.85    0.36
  -9  -6  -1   -0.11    0.24
   9   6   1   -0.22    0.48
  10   6   1    2.14    0.76
 -11  -6  -1   -0.16    0.52
 -11  -6  -1    0.69    0.55
  -8   7   1    1.11    0.94
  -7   7   1    0.88    0.69
  -6   7   1   12.26    0.74
  -6   7   1   13.55    1.05
  -5   7   1    3.07    0.45
  -5   7   1    2.39    0.30
  -4   7   1   18.89    0.72
  -4   7   1   18.66    0.88
  -3   7   1    5.14    0.43
  -3   7   1    5.70    0.33
  -1   7   1    3.41    0.26
  -1   7   1    3.23    0.30
   0   7   1    3.49    0.28
   0   7   1    3.64    0.26
   1   7   1   16.80    0.65
   1   7   1   17.21    0.61
   2   7   1    9.34    0.41
   2   7   1    8.79    0.43
   3   7   1    0.41    0.16
   3   7   1    0.24    0.12
  -4  -7  -1   28.15    0.89
   4   7   1   27.22    1.01
  -5  -7  -1    3.96    0.26
   5   7   1    3.92    0.33
  -6  -7  -1    0.08    0.13
   6   7   1    0.38    0.21
  -7  -7  -1    6.94    0.47
   7   7   1    7.18    0.53
  -8  -7  -1    0.69    0.23
   8   7   1    1.27    0.36
   9   7   1    1.03    0.56
  10   7   1    0.98    0.79
 -11  -7  -1   -0.01    0.53
  -7   8   1    6.19    1.19
  -6   8   1   24.92    1.41
  -5   8   1    0.30    0.50
  -5   8   1    0.20    0.31
  -4   8   1    8.35    0.67
  -4   8   1    7.60    0.47
  -3   8   1   16.82    0.68
  -3   8   1   16.31    0.80
  -2   8   1    1.29    0.28
  -2   8   1    1.24    0.18
  -1   8   1   14.52    0.72
  -1   8   1   15.13    0.60
   0   8   1   16.04    0.63
   0   8   1   13.78    0.59
   1   8   1    6.72    0.36
   1   8   1    7.19    0.38
   2   8   1    1.02    0.21
   3   8   1   27.32    1.02
   3   8   1   27.34    0.86
  -4  -8  -1    3.92    0.29
   4   8   1    3.47    0.33
  -5  -8  -1   13.07    0.55
   5   8   1   12.98    0.64
  -6  -8  -1    4.68    0.36
   6   8   1    4.90    0.45
  -7  -8  -1    2.03    0.32
   7   8   1    2.65    0.48
  -8  -8  -1    0.20    0.21
   8   8   1   -0.09    0.36
   9   8   1    0.31    0.47
  10   8   1    0.97    0.78
  11   8   1    0.49    0.90
  -7   9   1    2.19    1.14
  -6   9   1    0.10    0.81
  -5   9   1    6.79    0.68
  -5   9   1    7.53    1.02
  -4   9   1    9.93    0.66
  -4   9   1    9.55    0.85
  -3   9   1    3.12    0.54
  -3   9   1    2.26    0.37
  -2   9   1    5.82    0.40
  -2   9   1    5.65    0.54
  -1   9   1    0.37    0.31
  -1   9   1    0.36    0.17
   0   9   1    1.38    0.22
   0   9   1    1.46    0.29
   1   9   1    1.37    0.22
   1   9   1    1.28    0.25
   2   9   1    0.65    0.19
   2   9   1    0.37    0.22
   4   9   1    5.16    0.44
  -5  -9  -1    9.16    0.57
   5   9   1    8.50    0.56
  -6  -9  -1    2.11    0.36
   6   9   1    1.32    0.32
  -7  -9  -1    0.87    0.19
   7   9   1    1.21    0.37
  -8  -9  -1    3.29    0.41
   8   9   1    2.61    0.54
   9   9   1    0.22    0.54
  10   9   1    0.48    0.76
  11   9   1   -0.28    1.09
  -6  10   1    3.81    1.10
  -5  10   1   -0.60    0.85
  -4  10   1    1.94    0.87
  -4  10   1    1.07    0.39
  -3  10   1    1.92    0.36
  -3  10   1    2.23    0.57
  -2  10   1    6.50    0.55
  -2  10   1    5.71    0.67
  -1  10   1    2.87    0.40
  -1  10   1    3.30    0.50
   0  10   1   14.16    0.84
   0  10   1   15.11    0.69
   1  10   1   13.05    0.58
   1  10   1   14.44    0.69
   2  10   1   -0.05    0.21
   3  10   1    0.89    0.24
   4  10   1    3.25    0.44
   5  10   1    0.46    0.31
   6  10   1   -0.31    0.33
  -7 -10  -1   -0.21    0.20
   7  10   1   -0.25    0.44
   8  10   1    1.89    0.52
   9  10   1   -0.38    0.62
  10  10   1    1.37    0.76
  -5  11   1    3.46    1.09
  -4  11   1    1.07    0.87
  -4  11   1    0.99    0.51
  -3  11   1    7.15    1.14
  -3  11   1    8.06    0.74
  -2  11   1    1.42    0.52
  -1  11   1    2.31    0.39
  -1  11   1    2.00    0.42
   0  11   1    8.55    0.70
   0  11   1    8.53    0.61
   1  11   1    0.18    0.32
   2  11   1    8.44    0.67
   3  11   1    2.79    0.56
   4  11   1    5.17    0.66
   5  11   1    7.87    0.82
   6  11   1    4.20    0.73
   7  11   1   -0.28    0.48
   8  11   1   -0.10    0.56
   9  11   1    1.41    0.69
  10  11   1    4.26    1.11
  -3  12   1    1.57    0.56
  -2  12   1    7.00    0.85
  -1  12   1    3.55    0.74
   0  12   1    1.61    0.43
   1  12   1    8.02    0.73
   2  12   1   -0.29    0.39
   3  12   1    2.74    0.47
   4  12   1    1.37    0.44
   5  12   1    1.19    0.47
   6  12   1   31.88    1.56
   7  12   1    4.67    0.77
   8  12   1    0.26    0.71
   9  12   1    1.07    0.86
  -2  13   1    2.52    0.88
  -1  13   1    2.05    0.59
   0  13   1    1.01    0.58
   1  13   1    1.04    0.55
   2  13   1   12.97    1.12
   3  13   1    3.19    0.63
   4  13   1    0.20    0.55
   5  13   1   -0.07    0.56
   6  13   1    1.62    0.65
   7  13   1    0.41    0.71
   8  13   1   14.39    1.71
   1  14   1    2.33    0.86
   2  14   1    1.29    0.73
   3  14   1    1.86    0.68
   4  14   1    7.55    1.19
   5  14   1    0.07    0.74
   6  14   1    1.15    0.91
   7  13  -2    1.03    1.10
   6  13  -2    0.15    0.74
   5  13  -2    0.82    0.70
   4  13  -2    0.29    0.64
   3  13  -2    0.98    0.73
   2  13  -2    1.67    0.71
   1  13  -2    0.13    0.73
   8  12  -2    1.59    0.99
  -8 -12   2    0.81    0.45
   7  12  -2    1.51    0.72
   6  12  -2   -0.43    0.60
   5  12  -2    0.31    0.57
   4  12  -2    0.08    0.52
   3  12  -2    1.97    0.58
   2  12  -2    1.13    0.52
   1  12  -2    5.60    0.86
   0  12  -2    0.86    0.48
  -1  12  -2    1.13    0.57
   9  11  -2    1.32    0.94
  -9 -11   2    0.45    0.48
   8  11  -2   -0.70    0.76
  -8 -11   2   -0.37    0.41
   7  11  -2    2.83    0.71
  -7 -11   2    2.86    0.55
   6  11  -2    0.71    0.52
  -6 -11   2    0.44    0.29
   5  11  -2    2.23    0.48
   4  11  -2    1.06    0.41
   3  11  -2    0.69    0.39
   2  11  -2    1.68    0.41
   1  11  -2    6.02    0.66
   0  11  -2   11.10    0.79
  -1  11  -2    4.18    0.66
  -2  11  -2    2.58    0.47
  -3  11  -2    1.22    0.60
  10  10  -2    0.30    0.86
   9  10  -2   -0.01    0.91
  -9 -10   2    0.79    0.44
   8  10  -2    1.47    0.74
  -8 -10   2    0.90    0.33
   7  10  -2    0.50    0.52
  -7 -10   2    0.85    0.27
   6  10  -2    3.65    0.56
  -6 -10   2    3.37    0.42
   5  10  -2    9.60    0.80
  -5 -10   2   10.15    0.52
   4  10  -2    4.30    0.60
   3  10  -2    5.70    0.57
   2  10  -2    0.32    0.28
   1  10  -2    0.82    0.30
   0  10  -2    0.97    0.32
  -1  10  -2    0.24    0.29
  -2  10  -2    3.96    0.94
  -2  10  -2    4.11    0.56
  -3  10  -2    3.60    0.81
  -3  10  -2    3.46    0.61
  -4  10  -2    1.26    0.82
  -4  10  -2   -0.20    0.44
  -5  10  -2    2.22    1.09
  10   9  -2    0.27    0.91
 -10  -9   2    0.13    0.53
   9   9  -2   -1.12    0.72
  -9  -9   2    0.18    0.36
   8   9  -2    1.46    0.68
  -8  -9   2    1.01    0.28
   7   9  -2   -0.06    0.44
  -7  -9   2   -0.03    0.22
   6   9  -2    0.73    0.35
  -6  -9   2    0.41    0.20
   5   9  -2    4.61    0.47
  -5  -9   2    3.80    0.35
   4   9  -2    7.44    0.53
  -4  -9   2    6.75    0.40
   3   9  -2    0.78    0.22
   2   9  -2    2.26    0.32
   1   9  -2    0.84    0.21
   0   9  -2    6.42    0.44
   0   9  -2    5.72    0.43
  -1   9  -2    2.79    0.40
  -1   9  -2    3.45    0.62
  -2   9  -2   21.99    1.04
  -2   9  -2   21.80    0.97
  -3   9  -2    0.08    0.50
  -3   9  -2    0.22    0.30
  -4   9  -2    8.51    0.69
  -4   9  -2    9.57    1.19
  -5   9  -2    0.71    0.44
  -5   9  -2    1.22    0.99
  -6   9  -2    2.81    1.27
  10   8  -2    1.17    0.85
 -10  -8   2    0.03    0.46
   9   8  -2    0.73    0.70
  -9  -8   2    0.03    0.31
   8   8  -2    0.37    0.55
  -8  -8   2    0.76    0.25
   7   8  -2    1.18    0.36
  -7  -8   2    0.65    0.21
   6   8  -2    1.86    0.32
  -6  -8   2    1.64    0.31
   5   8  -2    1.53    0.27
  -5  -8   2    1.95    0.27
   4   8  -2   21.38    0.89
  -4  -8   2   21.65    0.81
   3   8  -2   15.90    0.70
  -3  -8   2   16.47    0.65
   2   8  -2  253.71    6.96
   1   8  -2    2.83    0.24
   1   8  -2    2.92    0.28
   0   8  -2   10.76    0.53
   0   8  -2   10.59    0.53
  -1   8  -2    0.85    0.20
  -1   8  -2    1.33    0.40
  -2   8  -2    0.45    0.19
  -2   8  -2    0.34    0.32
  -3   8  -2    1.35    0.42
  -3   8  -2    1.45    0.32
  -4   8  -2    4.22    0.78
  -4   8  -2    3.06    0.50
  -5   8  -2    4.77    0.64
  -5   8  -2    5.79    1.05
  -6   8  -2    2.07    0.48
  -7   8  -2    1.43    1.15
  10   7  -2    1.81    0.79
 -10  -7   2    0.66    0.42
   9   7  -2    2.28    0.71
  -9  -7   2    0.89    0.30
   8   7  -2    1.83    0.48
  -8  -7   2    2.32    0.38
   7   7  -2    0.83    0.30
  -7  -7   2    0.66    0.19
   6   7  -2   26.23    1.07
  -6  -7   2   26.31    0.93
   5   7  -2   -0.19    0.19
  -5  -7   2    0.42    0.14
   3   7  -2   10.08    0.49
  -3  -7   2   10.92    0.50
   2   7  -2   10.72    0.48
   1   7  -2    0.58    0.20
   0   7  -2  152.46    4.28
   0   7  -2  154.59    4.24
  -1   7  -2   27.75    1.01
  -1   7  -2   27.64    0.98
  -2   7  -2    5.54    0.39
  -2   7  -2    6.59    0.69
  -3   7  -2    0.20    0.19
  -3   7  -2    0.26    0.31
  -4   7  -2   29.92    1.26
  -4   7  -2   30.30    1.14
  -5   7  -2    3.27    0.49
  -5   7  -2    3.08    0.69
  -6   7  -2    1.67    0.43
  -6   7  -2    1.77    0.65
  -7   7  -2    1.70    0.88
  -8   7  -2    0.08    1.29
 -11  -6   2   -0.40    0.51
  10   6  -2    1.14    0.72
 -10  -6   2    1.05    0.40
   9   6  -2    4.33    0.90
  -9  -6   2    4.44    0.48
   8   6  -2    1.16    0.42
   7   6  -2    3.66    0.47
  -7  -6   2    3.30    0.31
   6   6  -2    1.72    0.36
  -6  -6   2    1.95    0.28
   5   6  -2    0.76    0.18
  -5  -6   2    0.94    0.22
   4   6  -2   54.66    1.74
  -4  -6   2   55.77    1.69
   3   6  -2    0.73    0.13
  -3  -6   2    0.59    0.12
   2   6  -2   19.51    0.68
  -2  -6   2   17.13    0.67
   1   6  -2    6.24    0.32
   1   6  -2    6.37    0.31
   0   6  -2  444.33   11.98
   0   6  -2  458.35   12.02
  -1   6  -2    7.39    0.43
  -1   6  -2    6.72    0.38
  -2   6  -2   26.73    0.94
  -2   6  -2   26.93    1.03
  -3   6  -2    5.76    0.45
  -3   6  -2    5.52    0.36
  -4   6  -2    2.50    0.31
  -4   6  -2    2.56    0.40
  -5   6  -2    8.39    0.66
  -5   6  -2    8.16    0.55
  -6   6  -2   15.99    0.82
  -6   6  -2   16.85    1.14
  -7   6  -2    0.10    0.67
  -8   6  -2   -0.40    0.50
  -8   6  -2    0.22    0.90
 -11  -5   2    0.06    0.49
  10   5  -2    0.64    0.65
 -10  -5   2    0.84    0.37
   9   5  -2    0.01    0.48
  -9  -5   2    0.33    0.26
   8   5  -2   30.39    1.26
  -8  -5   2   30.29    1.09
   7   5  -2    3.77    0.46
  -7  -5   2    3.74    0.33
  -7  -5   2    4.38    0.35
   6   5  -2   22.81    0.93
  -6  -5   2   24.37    0.90
  -6  -5   2   23.49    0.76
   5   5  -2   12.07    0.61
  -5  -5   2   12.35    0.55
   4   5  -2  217.41    6.09
  -4  -5   2  226.86    6.03
   3   5  -2   14.78    0.62
  -3  -5   2   14.81    0.56
   1   5  -2    0.02    0.13
  -1  -5   2   -0.01    0.09
   0   5  -2    2.21    0.21
   0   5  -2    2.54    0.23
  -1   5  -2   69.98    2.03
  -2   5  -2  368.33    9.86
  -3   5  -2    2.27    0.47
  -3   5  -2    1.79    0.24
  -4   5  -2   18.38    0.84
  -4   5  -2   20.07    0.77
  -5   5  -2    2.19    0.41
  -5   5  -2    2.55    0.32
  -6   5  -2   -0.46    0.28
  -6   5  -2    0.01    0.37
  -7   5  -2    5.36    0.62
  -8   5  -2   -0.28    0.42
  -8   5  -2    1.01    0.88
  -9   5  -2    0.49    1.10
 -11  -4   2    2.26    0.53
 -10  -4   2    0.06    0.37
   9   4  -2    0.93    0.48
  -9  -4   2    1.00    0.36
  -9  -4   2    0.41    0.26
   8   4  -2   19.41    0.95
  -8  -4   2   19.53    0.95
  -8  -4   2   19.16    0.80
   7   4  -2    0.35    0.26
  -7  -4   2    0.33    0.17
  -7  -4   2    0.57    0.21
   6   4  -2   37.21    1.28
  -6  -4   2   34.07    1.22
  -6  -4   2   36.00    1.13
   5   4  -2   38.07    1.29
  -5  -4   2   37.12    1.21
  -5  -4   2   37.76    1.11
   4   4  -2    6.43    0.37
  -4  -4   2    6.54    0.33
   3   4  -2   12.87    0.53
  -3  -4   2   13.18    0.50
   2   4  -2  308.68    8.49
  -2  -4   2  329.43    8.50
   1   4  -2    1.65    0.18
  -1  -4   2    1.43    0.15
   0   4  -2   13.72    0.51
  -1   4  -2   47.92    1.43
  -2   4  -2   35.10    1.11
  -3   4  -2   81.55    2.36
  -4   4  -2   17.38    0.68
  -5   4  -2    1.95    0.35
  -5   4  -2    2.18    0.28
  -6   4  -2   12.61    0.74
  -6   4  -2   12.51    0.63
  -7   4  -2    0.12    0.44
  -7   4  -2   -0.25    0.31
  -8   4  -2    4.35    0.99
  -8   4  -2    3.27    0.50
  -9   4  -2    2.91    0.99
 -11  -3   2   -0.08    0.49
 -10  -3   2   14.55    0.91
 -10  -3   2   17.15    0.95
  -9  -3   2   -0.20    0.31
  -9  -3   2    0.00    0.27
  -9  -3   2    0.90    0.35
   8   3  -2    7.51    0.63
  -8  -3   2    6.76    0.47
  -8  -3   2    6.95    0.52
   7   3  -2    7.67    0.56
  -7  -3   2    8.28    0.47
  -7  -3   2    8.69    0.53
   6   3  -2   91.68    2.68
  -6  -3   2   89.03    2.62
  -6  -3   2   85.76    2.56
   5   3  -2   16.72    0.68
  -5  -3   2   17.28    0.62
  -5  -3   2   16.79    0.64
   4   3  -2   12.47    0.52
  -4  -3   2   12.62    0.50
  -4  -3   2   12.57    0.44
   3   3  -2   22.87    0.76
  -3  -3   2   22.29    0.74
   2   3  -2  304.13    8.27
  -2  -3   2  319.62    8.29
   1   3  -2   92.95    2.59
  -1  -3   2   97.04    2.61
   0   3  -2    7.47    0.31
  -1   3  -2   23.42    0.75
  -2   3  -2   11.62    0.48
  -3   3  -2   14.91    0.57
  -4   3  -2    6.39    0.35
  -5   3  -2    3.34    0.29
  -6   3  -2    0.18    0.19
  -7   3  -2    3.79    0.55
  -7   3  -2    2.82    0.44
  -8   3  -2    2.54    0.70
  -8   3  -2    1.74    0.40
  -9   3  -2    0.52    0.46
  -9   3  -2    1.06    0.86
 -10   3  -2   -0.18    1.18
 -12  -2   2   -0.73    1.08
 -11  -2   2    2.34    0.76
 -11  -2   2    2.66    0.57
 -10  -2   2   44.02    1.71
 -10  -2   2   45.90    1.74
  -9  -2   2    3.42    0.47
  -9  -2   2    2.38    0.52
  -9  -2   2    2.56    0.41
  -8  -2   2   -0.13    0.20
  -8  -2   2   -0.29    0.23
  -8  -2   2   -0.03    0.25
  -8  -2   2    0.00    0.28
   7   2  -2   13.51    0.70
  -7  -2   2   12.97    0.79
   6   2  -2   12.73    0.62
  -6  -2   2   12.01    0.56
   5   2  -2   56.72    1.68
  -5  -2   2   53.54    1.67
  -5  -2   2   55.58    1.67
   4   2  -2   89.56    2.52
  -4  -2   2   88.52    2.49
  -4  -2   2   89.20    2.53
   3   2  -2  101.65    2.81
  -3  -2   2   99.31    2.76
  -3  -2   2  105.05    2.83
   2   2  -2  133.27    3.60
  -2  -2   2  134.71    3.63
   1   2  -2  248.83    6.62
  -1  -2   2  252.29    6.65
   0   2  -2  422.60   11.29
   0  -2   2  435.80   11.30
  -1   2  -2    1.19    0.12
  -2   2  -2   15.90    0.56
  -3   2  -2   61.72    1.80
  -4   2  -2   19.20    0.70
  -5   2  -2    1.18    0.23
  -6   2  -2    0.38    0.18
  -7   2  -2    0.77    0.24
  -8   2  -2    2.17    0.38
  -8   2  -2    2.34    0.53
  -9   2  -2   -0.54    0.39
  -9   2  -2   -0.46    0.64
 -10   2  -2    0.78    0.94
 -12  -1   2   -1.19    1.06
 -12  -1   2   -0.47    0.81
 -11  -1   2    0.62    0.54
 -11  -1   2    0.04    0.69
 -10  -1   2    7.36    0.87
  -9  -1   2    9.53    0.69
  -8  -1   2   59.30    1.94
  -8  -1   2   56.58    1.76
  -7  -1   2    0.04    0.24
  -7  -1   2   -0.11    0.20
  -6  -1   2   40.53    1.38
   5   1  -2    0.48    0.16
   4   1  -2   31.83    0.98
  -4  -1   2   30.17    0.99
   3   1  -2    2.20    0.17
  -3  -1   2    2.37    0.17
  -3  -1   2    2.17    0.15
   2   1  -2   54.34    1.51
  -2  -1   2   54.82    1.49
  -2  -1   2   56.28    1.52
  -2  -1   2   53.86    1.55
  -1  -1   2    7.80    0.25
  -1  -1   2    6.86    0.28
  -1  -1   2    7.96    0.27
   0   1  -2  230.66    5.85
   0  -1   2  201.77    5.84
   0  -1   2  228.88    5.85
   0  -1   2  224.14    5.86
  -1   1  -2  169.32    4.52
  -2   1  -2   36.60    1.09
  -3   1  -2   87.01    2.45
  -4   1  -2    1.07    0.20
  -5   1  -2   22.69    0.82
  -6   1  -2    0.55    0.16
  -7   1  -2    0.26    0.22
  -8   1  -2    3.40    0.47
  -9   1  -2    3.75    0.87
  -9   1  -2    3.62    0.50
 -10   1  -2    0.13    0.76
 -10   1  -2   -0.24    0.54
 -11   1  -2    0.66    1.27
 -11   0   2   -0.37    0.72
 -10   0   2    2.89    0.67
  -9   0   2    5.25    0.64
  -8   0   2   24.51    1.03
  -8   0   2   22.19    0.86
  -7   0   2    0.36    0.19
  -7   0   2    0.26    0.24
  -6   0   2   11.14    0.50
  -6   0   2   13.24    0.70
  -5   0   2   20.88    0.81
  -5   0   2   21.63    0.70
   3   0  -2   94.58    2.49
  -3   0   2   92.10    2.47
  -3   0   2   85.93    2.53
  -2   0   2  131.00    3.54
  -1   0   2  178.30    4.72
   0   0  -2  191.36    5.21
   0   0   2  199.49    5.25
   0   0   2  197.16    5.21
   0   0   2  203.79    5.22
   1   0   2  494.20   13.01
  -2   0  -2  100.47    2.75
  -3   0  -2   40.18    1.21
  -4   0  -2   95.05    2.69
  -5   0  -2    1.22    0.21
  -6   0  -2    1.72    0.24
  -7   0  -2    2.53    0.32
  -8   0  -2    0.16    0.26
  -9   0  -2    0.49    0.51
  -9   0  -2    0.99    0.41
 -10   0  -2    2.55    0.74
 -10   0  -2    1.01    0.49
 -11   0  -2    0.97    0.86
 -11   1   2    1.12    0.84
 -10   1   2   -0.25    0.58
  -9   1   2    7.60    0.78
  -8   1   2    0.31    0.33
  -7   1   2   23.00    0.82
  -7   1   2   23.48    0.99
  -6   1   2   19.07    0.83
  -6   1   2   19.04    0.68
  -5   1   2    0.49    0.20
  -5   1   2    0.46    0.11
  -4   1   2  105.06    2.96
  -4   1   2  101.24    2.81
  -3   1   2    2.77    0.15
  -3   1   2    2.75    0.21
  -3   1   2    2.37    0.17
  -2   1   2  111.30    3.06
  -1   1   2    8.92    0.33
   0  -1  -2  122.74    3.03
   0   1   2  108.19    3.03
   0   1   2  111.73    3.06
  -1  -1  -2    8.85    0.33
   1   1   2    9.43    0.36
   1   1   2    8.89    0.34
   2   1   2   84.24    2.44
   2   1   2   91.38    2.46
  -3  -1  -2    3.26    0.20
  -3  -1  -2    3.52    0.21
  -4  -1  -2   19.28    0.68
  -4  -1  -2   19.21    0.69
  -5  -1  -2   81.10    2.30
  -5  -1  -2   77.64    2.31
  -6  -1  -2   32.72    1.12
  -7  -1  -2    4.02    0.32
  -8  -1  -2    4.91    0.42
  -9  -1  -2    2.82    0.58
 -10  -1  -2    4.39    0.81
 -10  -1  -2    6.22    0.89
 -11  -1  -2    0.41    0.80
 -11   2   2    0.22    1.28
 -10   2   2    7.42    1.07
  -9   2   2    0.52    0.53
  -8   2   2   15.61    0.89
  -7   2   2    1.64    0.32
  -7   2   2    1.32    0.21
  -6   2   2   38.08    1.21
  -6   2   2   36.09    1.33
  -5   2   2    0.94    0.22
  -5   2   2    0.86    0.17
  -4   2   2    3.82    0.21
  -4   2   2    3.78    0.31
  -3   2   2  148.82    3.99
  -3   2   2  150.17    4.14
   2  -2  -2   40.72    1.18
  -2   2   2   44.43    1.30
  -2   2   2   43.62    1.18
   1  -2  -2   90.15    2.43
  -1   2   2   92.58    2.43
  -1   2   2   91.91    2.52
  -1  -2  -2  172.20    4.50
   1   2   2  169.52    4.51
   1   2   2  163.13    4.50
   2   2   2   64.03    1.83
   2   2   2   63.75    1.81
   3   2   2   53.20    1.60
   4   2   2   32.61    1.13
   5   2   2   19.10    0.77
  -6  -2  -2    8.28    0.44
  -6  -2  -2    8.86    0.43
  -7  -2  -2    0.77    0.20
  -7  -2  -2    0.49    0.18
  -8  -2  -2   32.26    1.17
  -9  -2  -2    1.40    0.33
 -10  -2  -2    2.37    0.61
 -10  -2  -2    1.60    0.46
 -11  -2  -2   -0.41    0.72
 -11  -2  -2   -0.06    0.61
 -12  -2  -2    2.44    1.16
 -10   3   2    0.59    0.80
  -9   3   2    2.41    0.67
  -8   3   2   -0.46    0.40
  -7   3   2   11.04    0.70
  -7   3   2   10.81    0.51
  -6   3   2    1.51    0.29
  -6   3   2    1.10    0.21
  -5   3   2   21.85    0.73
  -5   3   2   20.35    0.85
  -4   3   2    0.61    0.22
  -4   3   2    0.75    0.16
  -3   3   2   11.74    0.40
  -3   3   2   10.93    0.51
  -2   3   2   92.32    2.67
  -2   3   2   95.72    2.54
   1  -3  -2   36.37    1.02
  -1   3   2   35.68    1.11
  -1   3   2   37.84    1.03
   0  -3  -2  306.93    7.75
   0   3   2  290.36    7.77
   0   3   2  285.78    7.80
   1   3   2   21.66    0.67
   1   3   2   20.28    0.67
   2   3   2    2.47    0.19
  -3  -3  -2    2.62    0.13
   3   3   2    2.50    0.22
  -4  -3  -2  382.97    9.86
   4   3   2  364.77   10.04
   5   3   2   10.78    0.53
   6   3   2    7.00    0.44
  -7  -3  -2    2.03    0.28
  -7  -3  -2    1.67    0.29
  -8  -3  -2   50.55    1.64
  -8  -3  -2   51.70    1.68
  -9  -3  -2    2.62    0.52
 -10  -3  -2    0.30    0.40
 -11  -3  -2    0.16    0.50
 -11  -3  -2    1.08    0.73
 -12  -3  -2    0.84    0.87
 -10   4   2    1.35    1.05
  -9   4   2    0.94    0.74
  -8   4   2    3.74    0.68
  -7   4   2    0.22    0.36
  -6   4   2    6.80    0.51
  -6   4   2    6.45    0.38
  -5   4   2    3.89    0.38
  -5   4   2    3.74    0.35
  -4   4   2   36.19    1.28
  -4   4   2   37.71    1.13
  -2   4   2   49.90    1.58
  -2   4   2   52.38    1.45
  -1   4   2   15.99    0.60
  -1   4   2   16.47    0.53
   0   4   2   17.17    0.56
   0   4   2   17.88    0.60
   1   4   2  221.33    6.02
   1   4   2  230.45    6.05
   2   4   2   28.87    0.95
   2   4   2   29.88    0.91
  -3  -4  -2  127.87    3.31
   3   4   2  120.49    3.40
   3   4   2  123.64    3.49
  -5  -4  -2   32.96    0.99
   5   4   2   32.92    1.15
  -6  -4  -2    7.79    0.35
   6   4   2    6.35    0.44
  -7  -4  -2    3.28    0.28
   7   4   2    3.25    0.37
  -8  -4  -2    0.93    0.33
   8   4   2    0.37    0.28
  -9  -4  -2   -0.15    0.33
  -9  -4  -2   -0.23    0.26
  -9  -4  -2   -0.23    0.33
 -10  -4  -2   14.43    0.89
 -11  -4  -2   -0.45    0.46
 -11  -4  -2   -1.04    0.67
 -12  -4  -2   -0.11    0.89
  -9   5   2    3.30    0.98
  -8   5   2    3.65    0.79
  -7   5   2    6.18    0.75
  -6   5   2   -0.24    0.30
  -6   5   2   -0.10    0.18
  -5   5   2    3.30    0.39
  -5   5   2    4.00    0.29
  -4   5   2   38.81    1.39
  -4   5   2   41.74    1.27
  -3   5   2   63.75    2.07
  -3   5   2   67.93    1.89
  -2   5   2   39.98    1.19
  -2   5   2   40.54    1.33
  -1   5   2   33.80    1.02
  -1   5   2   34.37    1.10
   0   5   2  277.11    7.39
   0   5   2  278.25    7.42
   1   5   2   52.82    1.59
   1   5   2   55.43    1.55
   2   5   2   11.71    0.45
   2   5   2   10.98    0.48
  -3  -5  -2    3.04    0.17
   3   5   2    3.08    0.28
   3   5   2    3.09    0.23
  -4  -5  -2    0.41    0.10
   4   5   2    0.76    0.27
  -5  -5  -2   10.16    0.39
   5   5   2   10.60    0.51
  -6  -5  -2  655.38   17.27
   6   5   2  655.49   17.55
  -7  -5  -2    1.92    0.23
   7   5   2    1.76    0.26
  -8  -5  -2    4.90    0.41
   8   5   2    4.20    0.53
   9   5   2    0.10    0.41
 -10  -5  -2    2.74    0.46
 -10  -5  -2    3.94    0.69
 -11  -5  -2    0.30    0.75
 -11  -5  -2    0.14    0.50
  -9   6   2   -0.14    0.99
  -8   6   2    6.29    1.18
  -7   6   2   11.91    1.01
  -6   6   2    3.31    0.57
  -5   6   2    1.73    0.30
  -5   6   2    1.69    0.28
  -4   6   2    1.06    0.16
  -4   6   2    0.97    0.25
  -3   6   2   52.64    1.73
  -3   6   2   51.23    1.55
  -2   6   2  101.11    2.80
  -2   6   2   98.12    2.92
  -1   6   2   14.72    0.59
  -1   6   2   13.75    0.53
   0   6   2   13.81    0.53
   0   6   2   13.90    0.54
   1   6   2    7.13    0.33
   1   6   2    6.56    0.34
   2   6   2  543.00   14.21
   2   6   2  525.55   14.10
   3   6   2   11.17    0.47
   3   6   2   11.77    0.57
  -4  -6  -2    5.66    0.26
   4   6   2    5.41    0.34
   4   6   2    5.58    0.33
  -5  -6  -2   27.53    0.85
   5   6   2   27.46    1.03
  -6  -6  -2  141.06    3.88
   6   6   2  144.20    4.17
  -7  -6  -2    3.53    0.26
   7   6   2    3.52    0.41
  -8  -6  -2    8.20    0.48
   8   6   2    8.43    0.63
   9   6   2    0.04    0.55
 -10  -6  -2    0.36    0.41
 -10  -6  -2    0.10    0.40
 -11  -6  -2    0.57    0.53
  -8   7   2    0.27    0.82
  -7   7   2    8.35    1.02
  -6   7   2   22.52    1.32
  -5   7   2    2.19    0.51
  -5   7   2    2.16    0.33
  -3   7   2   30.63    1.01
  -3   7   2   31.27    1.17
  -2   7   2   42.68    1.34
  -2   7   2   43.98    1.52
  -1   7   2   79.03    2.28
  -1   7   2   79.46    2.36
   0   7   2   42.58    1.33
   0   7   2   42.17    1.33
   1   7   2   99.35    2.81
   1   7   2   96.21    2.74
   2   7   2  196.60    5.33
   2   7   2  188.60    5.21
   3   7   2   10.26    0.49
   3   7   2   10.64    0.46
  -4  -7  -2   14.51    0.51
   4   7   2   14.15    0.63
   4   7   2   13.69    0.55
  -5  -7  -2    6.27    0.28
   5   7   2    5.15    0.37
  -6  -7  -2   11.77    0.46
   6   7   2   12.02    0.62
  -7  -7  -2    0.67    0.14
   7   7   2    0.95    0.27
  -8  -7  -2   44.01    1.60
   8   7   2   46.20    1.69
   9   7   2    0.14    0.46
  10   7   2    1.50    0.66
 -11  -7  -2    0.41    0.53
 -11  -7  -2    0.89    0.51
  -8   8   2   -0.30    1.38
  -7   8   2    0.63    0.78
  -6   8   2   22.49    1.27
  -5   8   2   29.07    1.31
  -5   8   2   28.33    1.08
  -4   8   2    0.31    0.34
  -4   8   2    0.27    0.21
  -3   8   2   19.83    0.74
  -3   8   2   19.29    0.87
  -2   8   2    4.51    0.39
  -2   8   2    4.10    0.30
  -1   8   2   23.06    0.96
  -1   8   2   22.21    0.80
   0   8   2   54.23    1.65
   0   8   2   51.92    1.63
   1   8   2   12.86    0.57
   1   8   2   12.98    0.54
   2   8   2   92.53    2.69
   2   8   2   98.30    2.82
   3   8   2    0.42    0.16
   3   8   2    0.53    0.20
   4   8   2  102.89    2.90
   4   8   2  105.45    3.13
  -5  -8  -2    3.05    0.23
   5   8   2    3.08    0.34
  -6  -8  -2    4.27    0.26
   6   8   2    3.04    0.42
  -7  -8  -2   -0.08    0.15
   7   8   2    0.17    0.28
   8   8   2    0.41    0.38
   9   8   2    1.11    0.51
  10   8   2    0.25    0.67
  11   8   2    0.69    0.93
  -7   9   2    1.50    0.95
  -6   9   2   -0.09    0.73
  -5   9   2   -0.20    0.56
  -4   9   2   30.59    1.32
  -4   9   2   29.47    1.13
  -3   9   2    0.52    0.22
  -3   9   2   -0.03    0.34
  -2   9   2   16.71    0.68
  -2   9   2   16.39    0.79
  -1   9   2    0.73    0.17
  -1   9   2    0.71    0.28
   0   9   2    3.07    0.37
   0   9   2    2.44    0.27
   1   9   2    0.72    0.22
   1   9   2    0.62    0.17
   2   9   2    0.51    0.17
   2   9   2    0.70    0.26
   3   9   2   17.52    0.67
   3   9   2   17.99    0.78
   4   9   2    0.95    0.22
   4   9   2    0.03    0.20
   5   9   2    2.13    0.37
  -6  -9  -2   -0.21    0.16
   6   9   2   -0.43    0.28
  -7  -9  -2    1.42    0.33
   7   9   2    2.10    0.40
   8   9   2   -0.31    0.42
   9   9   2    0.68    0.53
  10   9   2    1.47    0.72
  11   9   2   -0.23    1.11
  -6  10   2   -0.21    0.89
  -5  10   2    5.64    1.04
  -4  10   2   21.63    1.06
  -4  10   2   22.56    1.50
  -3  10   2    2.63    0.52
  -3  10   2    1.90    0.57
  -2  10   2    2.66    0.41
  -2  10   2    1.67    0.40
  -1  10   2   17.81    0.84
  -1  10   2   17.87    0.77
   0  10   2    4.40    0.39
   0  10   2    4.63    0.52
   1  10   2   10.73    0.59
   1  10   2   12.29    0.60
   2  10   2    4.79    0.43
   2  10   2    4.89    0.39
   3  10   2    1.59    0.26
   3  10   2    1.45    0.27
   4  10   2    2.21    0.40
   5  10   2    2.65    0.38
   6  10   2    4.33    0.56
   7  10   2    0.94    0.47
   8  10   2    1.08    0.51
   9  10   2   -0.14    0.61
  10  10   2    0.01    0.71
  -5  11   2    5.31    1.14
  -4  11   2    0.53    0.84
  -3  11   2   12.24    0.84
  -3  11   2    8.49    1.18
  -2  11   2   19.36    0.96
  -2  11   2   17.98    1.07
  -1  11   2    0.38    0.33
  -1  11   2    0.75    0.40
   0  11   2    8.68    0.57
   0  11   2   10.03    0.65
   1  11   2    1.61    0.30
   1  11   2    1.25    0.50
   2  11   2    0.07    0.28
   3  11   2    1.91    0.36
   4  11   2    0.44    0.34
   5  11   2    0.14    0.41
   6  11   2    0.15    0.45
   7  11   2    3.32    0.61
   8  11   2    0.78    0.62
   9  11   2   -0.34    0.67
  10  11   2   -0.02    0.93
  -4  12   2    3.35    0.97
  -3  12   2    0.07    0.68
  -3  12   2    0.93    0.73
  -2  12   2    2.05    0.52
  -2  12   2    1.39    0.60
  -1  12   2    2.15    0.50
   0  12   2    1.54    0.41
   1  12   2    3.28    0.69
   2  12   2    0.75    0.39
   3  12   2    7.18    0.74
   4  12   2    0.50    0.41
   5  12   2    0.24    0.42
   6  12   2    1.71    0.55
   7  12   2   -0.22    0.60
   8  12   2   -0.51    0.68
   9  12   2   -0.08    0.81
  -2  13   2    1.50    0.63
  -1  13   2    7.37    0.97
   0  13   2    1.93    0.55
   1  13   2    0.84    0.52
   2  13   2    5.50    0.83
   3  13   2    0.59    0.49
   4  13   2    2.49    0.57
   5  13   2    2.67    0.62
   6  13   2    0.37    0.63
   7  13   2    0.89    0.69
   8  13   2    1.98    0.89
   0  14   2    2.99    0.86
   1  14   2    5.98    1.18
   2  14   2    0.86    0.62
   3  14   2    2.34    0.65
   4  14   2    0.60    0.63
   5  14   2    0.13    0.69
   6  14   2    0.56    0.80
   7  14   2   -0.28    1.19
   5  13  -3    0.27    0.82
   4  13  -3    0.24    0.81
   3  13  -3    1.47    0.86
  -9 -12   3   -0.16    0.58
   8  12  -3    3.38    1.20
  -8 -12   3    1.36    0.51
   7  12  -3    1.32    0.87
   6  12  -3    0.12    0.65
   5  12  -3    1.45    0.60
   4  12  -3    6.35    1.09
   3  12  -3    1.17    0.58
   2  12  -3    2.01    0.61
   1  12  -3    0.52    0.51
   0  12  -3    0.93    0.58
   9  11  -3    0.43    1.00
  -9 -11   3   -0.53    0.49
   8  11  -3    2.22    0.99
  -8 -11   3    1.31    0.46
   7  11  -3    2.78    0.75
   6  11  -3    1.72    0.60
   5  11  -3    0.63    0.48
   4  11  -3   -0.08    0.47
   3  11  -3    6.87    0.81
   2  11  -3   -0.17    0.38
   1  11  -3    3.42    0.70
   0  11  -3    0.54    0.42
  -1  11  -3    0.80    0.44
  -2  11  -3    1.78    0.60
  10  10  -3    1.07    1.07
 -10 -10   3    1.48    0.58
   9  10  -3    0.58    0.95
  -9 -10   3    0.29    0.46
   8  10  -3   -0.52    0.85
  -8 -10   3   -0.50    0.39
   7  10  -3    0.63    0.60
  -7 -10   3    1.53    0.33
   6  10  -3    3.62    0.57
  -6 -10   3    2.92    0.48
   5  10  -3    5.34    0.75
  -5 -10   3    6.24    0.46
   4  10  -3   -0.22    0.38
   3  10  -3    0.77    0.39
   2  10  -3    2.80    0.56
   1  10  -3    0.54    0.30
   0  10  -3    3.13    0.50
  -1  10  -3    4.19    0.58
  -2  10  -3    1.60    0.41
  -3  10  -3    0.72    0.41
  -4  10  -3   -0.53    0.83
  10   9  -3    7.87    1.50
 -10  -9   3    6.18    0.84
   9   9  -3    1.22    0.81
  -9  -9   3    0.51    0.42
   8   9  -3    1.06    0.76
  -8  -9   3    1.34    0.33
   7   9  -3   -0.92    0.60
  -7  -9   3    0.04    0.25
   6   9  -3    1.74    0.44
  -6  -9   3    1.89    0.24
   5   9  -3    3.13    0.53
  -5  -9   3    2.90    0.36
   4   9  -3    7.42    0.56
  -4  -9   3    7.55    0.45
   3   9  -3    1.35    0.25
   2   9  -3    0.77    0.22
   1   9  -3    2.40    0.36
   0   9  -3    0.18    0.26
  -1   9  -3   11.77    0.87
  -1   9  -3   14.34    0.78
  -2   9  -3    5.14    0.55
  -2   9  -3    5.38    0.60
  -3   9  -3    6.83    0.66
  -3   9  -3    6.81    0.80
  -4   9  -3    0.87    0.39
  -4   9  -3    0.68    0.86
  -5   9  -3    1.23    1.05
  -5   9  -3    0.35    0.57
  -6   9  -3    1.22    1.11
 -11  -8   3    0.58    0.76
  10   8  -3    0.63    1.35
 -10  -8   3    0.79    0.45
   9   8  -3    0.72    0.76
  -9  -8   3    0.30    0.37
   8   8  -3    0.17    0.66
  -8  -8   3    0.32    0.27
   7   8  -3    3.35    0.53
  -7  -8   3    2.57    0.40
   6   8  -3    2.94    0.49
  -6  -8   3    2.60    0.34
   5   8  -3    7.95    0.56
  -5  -8   3    8.03    0.46
   4   8  -3    4.72    0.42
  -4  -8   3    5.80    0.35
   3   8  -3   28.27    1.06
  -3  -8   3   28.39    1.01
   2   8  -3    0.97    0.17
   1   8  -3   15.35    0.66
   0   8  -3    0.30    0.22
   0   8  -3    0.22    0.16
  -1   8  -3    0.64    0.50
  -2   8  -3   -0.08    0.37
  -2   8  -3    0.32    0.25
  -3   8  -3    0.96    0.30
  -3   8  -3    1.22    0.52
  -4   8  -3    7.13    0.62
  -4   8  -3    7.98    0.91
  -5   8  -3   -0.68    0.39
  -5   8  -3    0.65    0.88
  -6   8  -3    0.24    0.57
  -6   8  -3    1.38    1.07
  -7   8  -3    0.37    1.33
 -11  -7   3    0.82    0.55
 -10  -7   3   -0.08    0.42
   9   7  -3    0.18    0.68
  -9  -7   3    0.60    0.32
   8   7  -3    1.17    0.51
  -8  -7   3    1.10    0.26
   7   7  -3    1.77    0.41
  -7  -7   3    1.27    0.22
   6   7  -3    6.66    0.52
  -6  -7   3    7.15    0.40
   5   7  -3    0.53    0.21
   4   7  -3   14.96    0.66
  -4  -7   3   14.21    0.60
   3   7  -3    1.42    0.23
  -3  -7   3    1.03    0.20
   2   7  -3    0.38    0.13
   1   7  -3    3.21    0.25
   0   7  -3    2.87    0.25
   0   7  -3    2.92    0.36
  -1   7  -3    2.36    0.27
  -1   7  -3    3.06    0.38
  -2   7  -3    6.21    0.55
  -2   7  -3    5.98    0.42
  -3   7  -3    5.24    0.58
  -3   7  -3    5.43    0.45
  -4   7  -3   13.18    0.74
  -4   7  -3   13.54    0.89
  -5   7  -3    0.59    0.32
  -5   7  -3    0.93    0.60
  -6   7  -3    2.18    0.84
  -7   7  -3    1.15    0.72
  -7   7  -3    2.57    0.96
 -11  -6   3   -0.50    0.50
 -10  -6   3    2.07    0.47
   9   6  -3    0.71    0.53
  -9  -6   3   -0.11    0.28
   8   6  -3    3.89    0.71
  -8  -6   3    5.07    0.43
   7   6  -3    0.39    0.31
  -7  -6   3    0.03    0.18
   6   6  -3    1.36    0.27
  -6  -6   3    1.59    0.28
   5   6  -3    4.91    0.39
  -5  -6   3    4.62    0.33
   4   6  -3    2.34    0.27
   3   6  -3   18.54    0.70
  -3  -6   3   17.66    0.71
   2   6  -3   30.25    1.02
  -2  -6   3   31.64    1.07
   1   6  -3   57.89    1.74
   0   6  -3  278.85    7.47
   0   6  -3  273.73    7.43
  -1   6  -3    0.23    0.20
  -1   6  -3    0.13    0.12
  -2   6  -3    5.08    0.36
  -2   6  -3    5.94    0.58
  -3   6  -3   -0.05    0.17
  -4   6  -3    1.06    0.33
  -4   6  -3    0.91    0.22
  -5   6  -3    1.01    0.44
  -5   6  -3    0.65    0.30
  -6   6  -3    7.78    1.10
  -6   6  -3    7.03    0.64
  -7   6  -3    2.29    0.84
  -7   6  -3    1.16    0.44
  -8   6  -3    4.09    1.10
 -11  -5   3    1.11    0.50
 -10  -5   3   -0.33    0.40
   9   5  -3    1.78    0.49
  -9  -5   3    0.99    0.29
   8   5  -3    0.11    0.39
  -8  -5   3    0.21    0.22
   7   5  -3   11.21    0.72
  -7  -5   3   11.10    0.53
   6   5  -3    2.32    0.36
  -6  -5   3    2.25    0.27
   5   5  -3    4.19    0.37
  -5  -5   3    4.15    0.33
   4   5  -3   38.07    1.29
  -4  -5   3   38.03    1.25
   3   5  -3    4.48    0.38
  -3  -5   3    4.96    0.31
   2   5  -3    8.10    0.41
  -2  -5   3    8.19    0.39
   1   5  -3    3.16    0.21
  -1  -5   3    3.81    0.27
   0   5  -3    8.12    0.37
  -1   5  -3   13.30    0.54
  -2   5  -3  308.20    8.32
  -3   5  -3   14.07    0.62
  -4   5  -3    9.79    0.52
  -5   5  -3    0.07    0.32
  -5   5  -3    0.47    0.23
  -6   5  -3   12.08    0.82
  -6   5  -3   10.32    0.67
  -7   5  -3    4.33    0.91
  -8   5  -3    0.23    0.84
  -9   5  -3    1.43    1.72
 -12  -4   3    1.98    0.69
 -11  -4   3    0.63    0.50
 -10  -4   3    0.07    0.36
   9   4  -3    0.10    0.39
  -9  -4   3    0.36    0.27
   8   4  -3    0.17    0.35
  -8  -4   3    0.12    0.44
  -8  -4   3   -0.08    0.20
   7   4  -3   11.32    0.70
  -7  -4   3   13.28    0.56
  -7  -4   3   12.74    0.58
   6   4  -3    8.70    0.58
  -6  -4   3    7.83    0.38
  -6  -4   3    8.37    0.45
   5   4  -3    0.83    0.25
  -5  -4   3    0.65    0.19
  -5  -4   3    1.10    0.15
   4   4  -3    0.79    0.16
  -4  -4   3    0.67    0.14
   3   4  -3    4.96    0.31
  -3  -4   3    5.85    0.30
   2   4  -3  175.78    4.85
  -2  -4   3  183.18    4.89
   1   4  -3    1.60    0.19
  -1  -4   3    1.63    0.17
   0   4  -3   14.11    0.55
  -1   4  -3   54.63    1.62
  -2   4  -3  333.79    8.94
  -3   4  -3   10.09    0.47
  -4   4  -3    0.74    0.18
  -5   4  -3    9.03    0.52
  -6   4  -3   -0.24    0.25
  -7   4  -3    1.95    0.66
  -7   4  -3    1.45    0.35
  -8   4  -3    9.03    1.20
  -8   4  -3    8.59    0.76
  -9   4  -3   -0.69    0.62
  -9   4  -3    1.63    1.02
 -12  -3   3    0.03    0.65
 -11  -3   3    2.05    0.54
 -10  -3   3    1.62    0.42
  -9  -3   3    0.89    0.29
  -9  -3   3    1.66    0.38
   8   3  -3    1.59    0.35
  -8  -3   3    1.83    0.32
  -8  -3   3    1.22    0.23
   7   3  -3    2.50    0.42
  -7  -3   3    2.78    0.33
   6   3  -3   69.09    2.13
  -6  -3   3   68.37    2.02
  -6  -3   3   67.50    2.09
   5   3  -3   47.92    1.49
  -5  -3   3   46.02    1.48
  -5  -3   3   46.60    1.39
   4   3  -3   61.43    1.82
  -4  -3   3   63.29    1.73
  -4  -3   3   60.76    1.83
   3   3  -3   60.95    1.77
  -3  -3   3   61.06    1.78
   2   3  -3  399.40   10.62
  -2  -3   3  404.55   10.66
   1   3  -3   52.56    1.51
  -1  -3   3   53.39    1.54
   0   3  -3   19.74    0.64
   0  -3   3   17.95    0.63
  -1   3  -3    1.12    0.17
  -2   3  -3    1.86    0.21
  -3   3  -3   12.81    0.51
  -4   3  -3  368.35    9.89
  -5   3  -3    6.67    0.42
  -6   3  -3   15.75    0.70
  -7   3  -3    0.46    0.32
  -8   3  -3    0.86    0.59
  -8   3  -3   -0.07    0.36
  -9   3  -3    2.20    0.49
  -9   3  -3    2.72    0.93
 -10   3  -3    1.80    1.55
 -12  -2   3    0.13    0.72
 -11  -2   3    0.84    0.88
 -11  -2   3    0.89    0.55
 -10  -2   3   13.52    0.93
 -10  -2   3   13.53    0.98
  -9  -2   3   15.96    0.82
  -9  -2   3   16.49    0.84
  -8  -2   3    1.36    0.24
  -8  -2   3    2.53    0.42
  -8  -2   3    2.10    0.41
  -8  -2   3    1.73    0.28
   7   2  -3    5.69    0.67
  -7  -2   3    6.08    0.39
  -7  -2   3    5.46    0.65
   6   2  -3   27.01    0.98
  -6  -2   3   27.01    0.96
  -6  -2   3   26.10    0.97
   4   2  -3  209.06    5.58
  -4  -2   3  205.55    5.55
  -4  -2   3  204.32    5.61
   3   2  -3  100.03    2.78
  -3  -2   3   99.34    2.82
  -3  -2   3  104.00    2.75
   2   2  -3  137.59    3.76
  -2  -2   3  142.98    3.74
  -2  -2   3  139.74    3.81
   1   2  -3    2.39    0.16
  -1  -2   3    2.32    0.15
  -1  -2   3    3.05    0.18
  -1   2  -3    4.62    0.25
  -2   2  -3   11.35    0.46
  -3   2  -3   16.25    0.60
  -4   2  -3   22.81    0.81
  -5   2  -3   58.26    1.80
  -6   2  -3   25.73    0.97
  -7   2  -3    1.33    0.28
  -8   2  -3    1.49    0.39
  -9   2  -3    0.49    0.45
  -9   2  -3    0.16    0.76
 -10   2  -3    0.41    0.65
 -10   2  -3    0.88    1.01
 -12  -1   3   -0.21    1.11
 -11  -1   3    1.15    0.73
 -11  -1   3    0.93    0.58
 -10  -1   3    8.13    0.79
 -10  -1   3    6.54    0.94
  -9  -1   3    2.44    0.56
  -8  -1   3   61.13    2.01
  -7  -1   3    2.10    0.35
  -7  -1   3    1.73    0.34
  -6  -1   3   16.97    0.60
  -6  -1   3   16.75    0.59
  -6  -1   3   16.63    0.74
   5   1  -3   10.22    0.47
  -5  -1   3   11.02    0.49
   4   1  -3  255.61    6.81
  -4  -1   3  253.92    6.85
   3   1  -3   80.33    2.29
  -3  -1   3   84.48    2.25
  -3  -1   3   80.13    2.35
  -3  -1   3   88.25    2.33
   2   1  -3    0.26    0.07
  -2  -1   3    0.43    0.10
  -2  -1   3    0.11    0.07
  -2  -1   3    0.23    0.05
   1   1  -3  244.93    6.58
  -1  -1   3  255.73    6.64
  -1  -1   3  250.57    6.62
  -1  -1   3  248.14    6.58
   0   1  -3  294.49    7.89
   0  -1   3  301.77    7.92
   0  -1   3  300.45    7.90
  -1   1  -3  108.64    2.96
  -2   1  -3   44.51    1.32
  -3   1  -3    6.23    0.33
  -4   1  -3    3.89    0.25
  -5   1  -3   12.61    0.55
  -6   1  -3   16.04    0.68
  -7   1  -3    5.85    0.47
  -8   1  -3    0.26    0.33
  -9   1  -3    1.28    0.43
  -9   1  -3    1.49    0.62
 -10   1  -3    0.02    0.51
 -10   1  -3    1.37    0.87
 -11   0   3    0.82    0.57
 -11   0   3    0.62    0.75
 -10   0   3   -0.07    0.58
  -9   0   3    3.26    0.65
  -8   0   3   96.61    3.01
  -7   0   3   14.09    0.63
  -7   0   3   14.31    0.69
  -5   0   3   39.76    1.17
  -5   0   3   40.14    1.31
  -4   0   3  113.73    3.04
  -4   0   3  110.32    3.05
  -4   0   3  113.91    3.18
  -3   0   3  161.95    4.40
  -2   0   3  310.34    8.23
  -1   0   3  317.38    8.18
  -1   0   3  304.47    8.24
  -1   0   3  314.25    8.24
   0   0  -3  177.76    4.92
   0   0   3  190.75    4.93
   0   0   3  183.45    4.94
   0   0   3  193.28    4.99
  -1   0  -3   97.28    2.57
   1   0   3   88.38    2.61
   1   0   3   96.80    2.52
  -2   0  -3  445.35   11.77
  -3   0  -3   24.43    0.81
  -4   0  -3   11.05    0.49
  -5   0  -3    9.88    0.45
  -6   0  -3    9.04    0.46
  -7   0  -3    1.01    0.22
  -8   0  -3    1.01    0.30
  -9   0  -3    0.64    0.42
 -10   0  -3    0.91    0.49
 -10   0  -3    0.96    0.71
 -11   0  -3   -1.35    1.01
 -11   1   3    0.76    0.79
 -10   1   3    1.89    0.67
  -9   1   3    1.11    0.51
  -8   1   3    7.23    0.62
  -7   1   3   27.07    0.97
  -7   1   3   28.16    1.10
  -6   1   3  196.41    5.46
  -6   1   3  189.71    5.19
  -5   1   3    8.25    0.48
  -5   1   3    8.25    0.33
  -4   1   3   56.20    1.70
  -4   1   3   54.03    1.56
  -3   1   3   30.67    1.00
  -2   1   3    2.14    0.17
  -1   1   3   73.49    2.04
   0  -1  -3   51.23    1.41
   0  -1  -3   51.05    1.41
   0  -1  -3   54.37    1.44
   0   1   3   53.32    1.49
   0   1   3   50.39    1.42
  -1  -1  -3   35.69    1.05
  -1  -1  -3   35.10    1.02
  -1  -1  -3   35.52    0.96
  -1  -1  -3   34.22    1.00
   1   1   3   35.26    1.07
   1   1   3   35.07    0.95
  -2  -1  -3  111.95    3.00
  -2  -1  -3  111.52    3.02
   2   1   3  106.69    3.06
  -3  -1  -3  110.69    3.02
  -3  -1  -3  108.28    3.04
  -4  -1  -3    2.07    0.25
  -4  -1  -3    2.10    0.24
  -5  -1  -3   20.28    0.75
  -6  -1  -3    2.06    0.25
  -7  -1  -3    7.02    0.45
  -8  -1  -3    0.05    0.24
  -9  -1  -3    0.24    0.35
 -10  -1  -3    0.35    0.51
 -10  -1  -3    0.80    0.62
 -11  -1  -3    1.44    0.84
 -11  -1  -3    0.52    0.70
 -11   2   3    0.86    1.18
 -10   2   3    7.76    1.11
  -9   2   3    0.84    0.53
  -8   2   3    5.18    0.60
  -7   2   3    6.66    0.53
  -6   2   3   51.18    1.52
  -6   2   3   53.59    1.78
  -5   2   3    0.95    0.21
  -5   2   3    0.64    0.11
  -4   2   3    3.94    0.19
  -4   2   3    3.79    0.31
  -3   2   3   22.96    0.82
  -1   2   3   83.97    2.34
   0  -2  -3  271.05    7.21
   0   2   3  273.40    7.27
   0   2   3  276.59    7.22
  -1  -2  -3   61.70    1.72
   1   2   3   59.62    1.72
   1   2   3   61.30    1.74
   2   2   3   73.51    2.11
   2   2   3   74.42    2.12
   3   2   3   92.34    2.65
   3   2   3   92.89    2.65
   4   2   3   13.15    0.60
  -5  -2  -3    1.14    0.15
  -5  -2  -3    0.86    0.14
  -6  -2  -3   24.77    0.88
  -6  -2  -3   24.56    0.90
  -7  -2  -3    1.61    0.23
  -8  -2  -3    1.24    0.26
  -9  -2  -3    0.24    0.35
 -10  -2  -3   -0.46    0.44
 -11  -2  -3   -0.05    0.78
 -11  -2  -3   -0.26    0.62
 -10   3   3    1.13    0.78
  -9   3   3    0.91    0.60
  -8   3   3    2.46    0.51
  -7   3   3   19.84    0.96
  -6   3   3    4.08    0.35
  -6   3   3    5.14    0.42
  -5   3   3   67.14    1.89
  -5   3   3   67.78    2.14
  -4   3   3   51.30    1.67
  -4   3   3   50.60    1.43
  -3   3   3   14.69    0.45
  -3   3   3   13.51    0.59
  -2   3   3  198.27    5.45
  -2   3   3  202.56    5.29
   1  -3  -3   43.38    1.17
  -1   3   3   41.84    1.27
  -1   3   3   42.35    1.18
   0  -3  -3  193.66    5.08
   0   3   3  191.73    5.11
   0   3   3  189.86    5.14
   1   3   3   60.78    1.75
   1   3   3   62.01    1.76
   2   3   3   16.85    0.61
   2   3   3   17.20    0.62
   3   3   3    1.76    0.19
   3   3   3    1.51    0.19
   4   3   3   19.27    0.79
   5   3   3    1.11    0.21
   6   3   3    2.95    0.31
  -7  -3  -3   21.44    0.86
  -7  -3  -3   21.76    0.83
  -8  -3  -3    2.55    0.39
  -8  -3  -3    2.70    0.38
  -9  -3  -3    1.21    0.38
 -10  -3  -3   -0.15    0.40
 -11  -3  -3    0.52    0.54
 -11  -3  -3    1.25    0.72
 -12  -3  -3    2.05    1.08
 -10   4   3    0.40    0.92
  -9   4   3    4.43    0.85
  -8   4   3   15.90    1.15
  -7   4   3    5.15    0.56
  -6   4   3   33.16    1.09
  -6   4   3   34.60    1.33
  -5   4   3   29.85    0.95
  -5   4   3   31.82    1.17
  -4   4   3   65.91    1.84
  -4   4   3   65.20    2.07
  -3   4   3   19.93    0.81
  -3   4   3   20.52    0.64
  -2   4   3    2.66    0.24
  -2   4   3    2.35    0.15
  -1   4   3  126.12    3.37
  -1   4   3  124.36    3.47
   0   4   3    5.23    0.25
   0   4   3    6.21    0.29
   1   4   3   40.08    1.20
   1   4   3   39.28    1.19
   2   4   3   44.67    1.41
   2   4   3   47.72    1.39
   3   4   3   52.76    1.63
   3   4   3   52.55    1.58
   4   4   3    0.46    0.22
  -5  -4  -3   26.14    0.77
   5   4   3   25.25    0.96
  -6  -4  -3    2.89    0.22
  -7  -4  -3    4.32    0.29
   7   4   3    3.77    0.40
  -8  -4  -3    0.10    0.22
  -8  -4  -3    0.13    0.24
  -8  -4  -3    0.06    0.24
  -9  -4  -3    2.04    0.41
  -9  -4  -3    1.78    0.40
 -10  -4  -3    8.28    0.76
 -11  -4  -3   -0.08    0.49
 -12  -4  -3    0.33    0.87
  -9   5   3    0.79    0.79
  -8   5   3    0.10    0.57
  -7   5   3    1.29    0.48
  -6   5   3    4.91    0.52
  -5   5   3   15.37    0.63
  -5   5   3   14.99    0.73
  -4   5   3    9.58    0.52
  -4   5   3   10.16    0.41
  -3   5   3   18.66    0.61
  -3   5   3   17.66    0.82
  -2   5   3   21.32    0.82
  -2   5   3   21.47    0.68
  -1   5   3   15.30    0.59
  -1   5   3   14.28    0.50
   0   5   3   50.64    1.47
   0   5   3   49.77    1.49
   1   5   3   89.87    2.56
   1   5   3   93.16    2.59
   2   5   3  108.35    2.99
   2   5   3  106.60    3.04
   3   5   3   49.34    1.47
   3   5   3   47.81    1.54
  -4  -5  -3   21.81    0.68
   4   5   3   24.41    0.84
   4   5   3   24.77    0.91
  -5  -5  -3   18.93    0.57
   5   5   3   18.23    0.76
  -6  -5  -3   96.14    2.61
   6   5   3   93.65    2.89
  -7  -5  -3    0.14    0.14
   7   5   3    0.12    0.23
   8   5   3    1.92    0.35
  -9  -5  -3    1.11    0.39
  -9  -5  -3    0.65    0.36
 -10  -5  -3    8.34    0.75
 -10  -5  -3    7.07    0.72
 -11  -5  -3    1.08    0.51
  -9   6   3   -0.60    1.07
  -8   6   3   -0.81    0.69
  -7   6   3    2.26    0.59
  -6   6   3    5.88    0.60
  -5   6   3    1.84    0.38
  -5   6   3    1.73    0.27
  -4   6   3   18.49    0.68
  -4   6   3   18.90    0.83
  -2   6   3   47.69    1.42
  -2   6   3   48.28    1.58
  -1   6   3   19.88    0.68
  -1   6   3   20.69    0.76
   0   6   3   46.31    1.38
   0   6   3   44.90    1.40
   1   6   3    0.53    0.13
   2   6   3   23.36    0.80
   2   6   3   22.12    0.83
   3   6   3   34.84    1.10
   3   6   3   33.64    1.20
  -4  -6  -3    0.06    0.07
   4   6   3   -0.01    0.14
   4   6   3    0.09    0.15
  -5  -6  -3   25.47    0.77
   5   6   3   27.01    1.00
  -6  -6  -3  197.00    5.33
   6   6   3  202.16    5.68
  -7  -6  -3    5.00    0.29
   7   6   3    5.07    0.45
   8   6   3   13.06    0.79
   9   6   3    1.23    0.48
 -10  -6  -3    0.70    0.42
 -10  -6  -3    0.62    0.44
 -11  -6  -3    0.21    0.50
 -11  -6  -3   -0.17    0.52
  -8   7   3    0.65    0.87
  -7   7   3    1.53    0.70
  -6   7   3    9.11    0.93
  -5   7   3    6.10    0.43
  -5   7   3    6.24    0.57
  -4   7   3    2.43    0.27
  -4   7   3    2.28    0.39
  -3   7   3   10.75    0.57
  -3   7   3   11.52    0.47
  -2   7   3    4.70    0.33
  -2   7   3    5.16    0.42
  -1   7   3   59.66    1.87
  -1   7   3   67.23    1.96
   0   7   3    0.35    0.15
   0   7   3    0.34    0.21
   1   7   3   18.30    0.66
   1   7   3   15.81    0.70
   2   7   3   38.39    1.28
   2   7   3   37.78    1.22
   3   7   3   21.85    0.77
   3   7   3   20.58    0.82
   4   7   3    0.50    0.16
   4   7   3    0.71    0.19
  -5  -7  -3    5.57    0.27
   5   7   3    6.34    0.42
  -6  -7  -3   -0.08    0.11
   6   7   3   -0.08    0.21
   7   7   3   12.71    0.72
   8   7   3  178.72    5.29
   9   7   3    2.81    0.57
  10   7   3   -0.12    0.60
 -11  -7  -3    0.54    0.53
 -11  -7  -3    0.39    0.57
  -8   8   3    2.05    1.32
  -7   8   3   -0.08    0.77
  -6   8   3    3.76    0.70
  -5   8   3   24.33    1.15
  -4   8   3    0.13    0.20
  -4   8   3    0.11    0.32
  -3   8   3   10.70    0.60
  -3   8   3   10.40    0.47
  -2   8   3    2.74    0.25
  -2   8   3    2.64    0.34
  -1   8   3    8.10    0.60
  -1   8   3    7.42    0.38
   0   8   3  105.10    3.03
   0   8   3  105.53    3.02
   1   8   3    6.55    0.39
   1   8   3    8.34    0.41
   2   8   3   30.68    1.09
   2   8   3   30.75    1.05
   3   8   3    2.12    0.27
   3   8   3    2.54    0.30
   4   8   3  166.03    4.72
   4   8   3  162.66    4.52
   5   8   3    2.40    0.34
   5   8   3    2.41    0.34
  -6  -8  -3    0.05    0.13
   6   8   3   -0.12    0.24
   7   8   3    6.65    0.57
   8   8   3   32.20    1.48
   9   8   3    0.10    0.47
  10   8   3   11.48    1.26
  11   8   3    0.13    0.95
  -7   9   3    2.14    0.99
  -6   9   3    0.09    0.72
  -5   9   3    3.89    0.72
  -4   9   3   35.03    1.42
  -4   9   3   32.92    1.20
  -3   9   3    0.44    0.32
  -3   9   3    0.46    0.22
  -2   9   3   10.45    0.50
  -2   9   3   10.11    0.59
  -1   9   3   12.58    0.55
  -1   9   3   11.99    0.62
   0   9   3    9.73    0.50
   0   9   3    9.81    0.66
   1   9   3   63.93    1.98
   1   9   3   67.09    2.05
   2   9   3    0.38    0.18
   2   9   3    0.31    0.22
   3   9   3   38.67    1.28
   3   9   3   41.35    1.41
   4   9   3   17.22    0.69
   4   9   3   17.80    0.81
   5   9   3    4.33    0.44
   5   9   3    5.00    0.40
   6   9   3   15.00    0.82
   7   9   3    0.56    0.35
   8   9   3    1.65    0.45
   9   9   3    0.17    0.49
  10   9   3   22.34    1.51
  11   9   3    1.13    1.06
  -6  10   3    0.47    0.83
  -5  10   3    0.86    0.75
  -4  10   3   11.27    1.22
  -3  10   3   38.19    1.36
  -3  10   3   37.41    1.53
  -2  10   3    8.41    0.68
  -2  10   3    9.78    0.55
  -1  10   3   15.50    0.68
  -1  10   3   14.88    0.78
   0  10   3    4.46    0.40
   0  10   3    4.00    0.40
   1  10   3   17.28    0.85
   1  10   3   17.24    0.76
   2  10   3   34.37    1.27
   2  10   3   34.31    1.19
   3  10   3    1.13    0.27
   3  10   3    1.13    0.25
   4  10   3   28.31    0.95
   4  10   3   28.17    1.15
   5  10   3    5.57    0.53
   6  10   3   43.17    1.69
   7  10   3    0.19    0.47
   8  10   3    0.04    0.49
   9  10   3    0.47    0.62
  10  10   3    0.34    0.77
  -5  11   3    1.13    0.99
  -4  11   3   -0.18    0.79
  -3  11   3    1.08    0.53
  -3  11   3    0.59    0.80
  -2  11   3   33.69    1.36
  -2  11   3   34.88    1.44
  -1  11   3    6.07    0.63
  -1  11   3    6.28    0.57
   0  11   3    8.17    0.59
   0  11   3    7.30    0.56
   1  11   3   -0.05    0.28
   1  11   3    0.52    0.33
   2  11   3    2.41    0.46
   3  11   3    0.00    0.28
   4  11   3    1.56    0.33
   5  11   3    5.93    0.70
   6  11   3    0.09    0.44
   7  11   3    0.60    0.49
   8  11   3    1.85    0.65
   9  11   3    0.91    0.72
  10  11   3    0.44    0.89
  -5  12   3   -1.77    1.84
  -4  12   3    0.71    0.95
  -3  12   3    4.28    0.94
  -2  12   3   12.71    0.97
  -2  12   3   11.43    1.06
  -1  12   3    2.11    0.49
  -1  12   3    3.62    0.75
   0  12   3    0.66    0.35
   1  12   3    9.29    0.79
   2  12   3    5.84    0.71
   3  12   3    4.91    0.72
   4  12   3    3.99    0.67
   5  12   3    0.48    0.44
   6  12   3    2.03    0.52
   7  12   3   -0.07    0.61
   8  12   3    1.43    0.73
   9  12   3   -0.49    0.80
  -1  13   3    9.42    1.07
   0  13   3   17.62    1.14
   1  13   3    0.87    0.51
   2  13   3    5.94    0.82
   3  13   3    3.48    0.55
   4  13   3    0.42    0.48
   5  13   3    1.58    0.59
   6  13   3    0.21    0.60
   7  13   3   -0.23    0.69
   8  13   3    1.29    0.85
  -1  14   3    1.70    0.90
   0  14   3    2.31    0.69
   1  14   3    3.25    0.69
   2  14   3    1.32    0.64
   3  14   3    0.70    0.61
   4  14   3    0.12    0.62
   5  14   3    1.15    0.68
   6  14   3    0.07    0.76
   7  14   3    0.17    1.02
   3  15   3    0.55    1.61
  -9 -12   4   -0.13    0.64
  -8 -12   4    0.83    0.52
   7  12  -4    0.75    1.11
   6  12  -4    1.03    0.79
   5  12  -4    1.06    0.67
   4  12  -4    6.14    1.19
   3  12  -4   -0.55    0.57
   2  12  -4    0.39    0.60
   1  12  -4    0.60    0.64
 -10 -11   4    0.00    0.67
   9  11  -4   -0.21    1.23
   8  11  -4    2.52    0.99
  -8 -11   4    3.49    0.55
   7  11  -4    0.18    0.88
  -7 -11   4    0.10    0.43
   6  11  -4    1.01    0.65
  -6 -11   4    0.05    0.39
   5  11  -4    0.95    0.59
   4  11  -4    2.64    0.58
   3  11  -4    0.38    0.50
   2  11  -4    2.81    0.53
   1  11  -4    0.66    0.44
   0  11  -4    0.72    0.46
  -1  11  -4    1.50    0.57
 -10 -10   4    1.39    0.57
   9  10  -4    1.52    0.92
  -9 -10   4    0.11    0.49
   8  10  -4    4.54    1.03
  -8 -10   4    3.13    0.47
   7  10  -4    0.66    0.77
  -7 -10   4   -0.07    0.36
   6  10  -4   11.31    1.05
  -6 -10   4    8.15    0.69
   5  10  -4    0.21    0.47
  -5 -10   4    0.01    0.28
   4  10  -4    4.57    0.73
   3  10  -4    0.75    0.40
   2  10  -4   18.38    0.94
   1  10  -4    0.43    0.34
   0  10  -4    2.11    0.44
  -1  10  -4    0.65    0.39
  -2  10  -4    0.23    0.40
  -3  10  -4    3.07    0.65
 -11  -9   4    0.65    0.72
 -10  -9   4   15.25    1.02
   9   9  -4    1.01    0.81
  -9  -9   4    0.06    0.47
   8   9  -4    0.33    0.78
  -8  -9   4    1.26    0.42
   7   9  -4    0.53    0.70
  -7  -9   4   -0.18    0.30
   6   9  -4    3.65    0.72
  -6  -9   4    2.53    0.44
   5   9  -4    2.29    0.46
  -5  -9   4    1.26    0.24
   4   9  -4    4.88    0.58
  -4  -9   4    5.12    0.42
   3   9  -4    2.62    0.44
   2   9  -4    1.01    0.26
   1   9  -4   18.73    0.90
   0   9  -4    2.58    0.51
  -1   9  -4    3.73    0.49
  -2   9  -4    0.68    0.36
  -3   9  -4    0.85    0.40
  -3   9  -4    0.35    0.67
  -4   9  -4    1.25    0.82
  -4   9  -4    1.21    0.49
  -5   9  -4    1.94    1.07
  -6   9  -4    0.30    1.40
 -11  -8   4    0.13    0.59
 -10  -8   4   16.18    1.01
   9   8  -4    0.83    0.68
  -9  -8   4    0.54    0.40
   8   8  -4    7.84    1.34
  -8  -8   4    8.15    0.66
   7   8  -4    1.36    0.53
  -7  -8   4    0.92    0.28
   6   8  -4    1.04    0.39
  -6  -8   4    1.07    0.23
   5   8  -4    4.95    0.52
  -5  -8   4    4.90    0.38
   4   8  -4    1.99    0.30
  -4  -8   4    1.85    0.30
   3   8  -4   19.20    0.81
  -3  -8   4   19.23    0.78
   2   8  -4    0.10    0.17
   1   8  -4    5.58    0.40
   0   8  -4    5.07    0.41
  -1   8  -4    2.35    0.43
  -1   8  -4    2.36    0.53
  -2   8  -4    4.34    0.61
  -2   8  -4    5.59    0.51
  -3   8  -4    0.13    0.34
  -3   8  -4    0.83    0.55
  -4   8  -4    0.79    0.42
  -4   8  -4    1.12    0.70
  -5   8  -4    0.00    0.44
  -5   8  -4   -0.07    0.91
  -6   8  -4    1.07    1.18
 -11  -7   4    0.03    0.54
 -10  -7   4    1.85    0.50
   9   7  -4    5.13    1.07
  -9  -7   4    6.07    0.70
   8   7  -4   32.84    1.55
  -8  -7   4   35.10    1.27
   7   7  -4    6.31    0.75
  -7  -7   4    6.40    0.46
   6   7  -4    6.78    0.60
  -6  -7   4    5.89    0.43
   5   7  -4    1.75    0.29
  -5  -7   4    1.28    0.20
   4   7  -4    7.80    0.49
  -4  -7   4    8.64    0.44
   3   7  -4    0.21    0.15
  -3  -7   4    0.15    0.14
   2   7  -4   18.70    0.75
  -2  -7   4   18.57    0.72
   1   7  -4    1.91    0.24
   0   7  -4    0.34    0.25
   0   7  -4    0.31    0.15
  -1   7  -4    2.11    0.43
  -1   7  -4    2.35    0.29
  -2   7  -4    1.58    0.27
  -2   7  -4    1.46    0.37
  -3   7  -4    9.85    0.68
  -3   7  -4    9.89    0.73
  -4   7  -4    0.12    0.31
  -4   7  -4    0.26    0.50
  -5   7  -4    5.66    1.34
  -5   7  -4    5.16    0.64
  -6   7  -4    0.14    0.94
  -6   7  -4   -0.31    0.45
  -7   7  -4    0.04    1.13
 -12  -6   4    2.36    0.81
 -11  -6   4   -0.68    0.51
 -10  -6   4    0.25    0.41
   9   6  -4    0.35    0.74
  -9  -6   4   -0.40    0.32
   8   6  -4    0.94    0.47
  -8  -6   4    0.00    0.24
   7   6  -4   -0.11    0.37
  -7  -6   4    0.34    0.21
   6   6  -4    5.02    0.51
  -6  -6   4    4.76    0.37
   5   6  -4    6.49    0.46
  -5  -6   4    6.55    0.39
   4   6  -4    0.26    0.18
  -4  -6   4    0.33    0.13
   3   6  -4   16.61    0.67
  -3  -6   4   17.44    0.66
   2   6  -4    0.96    0.18
  -2  -6   4    0.58    0.12
   1   6  -4   43.17    1.37
   0   6  -4   14.34    0.59
  -1   6  -4   17.41    0.70
  -2   6  -4    0.08    0.17
  -3   6  -4    2.11    0.34
  -4   6  -4   -0.08    0.37
  -4   6  -4    0.60    0.34
  -5   6  -4    3.33    0.64
  -5   6  -4    2.72    0.52
  -6   6  -4    5.24    1.03
  -6   6  -4    3.88    0.63
  -7   6  -4   -0.76    0.51
  -7   6  -4   -0.12    0.88
  -8   6  -4   -0.45    1.19
 -12  -5   4    0.45    0.70
 -11  -5   4   -0.48    0.52
 -10  -5   4    1.08    0.43
  -9  -5   4    3.46    0.56
   8   5  -4    0.07    0.39
  -8  -5   4    0.30    0.23
   7   5  -4    4.25    0.58
  -7  -5   4    5.43    0.40
   6   5  -4   -0.18    0.25
  -6  -5   4    0.35    0.16
   5   5  -4   17.68    0.75
  -5  -5   4   17.33    0.70
   4   5  -4   14.34    0.63
  -4  -5   4   13.93    0.57
   3   5  -4   19.58    0.73
  -3  -5   4   18.60    0.74
   2   5  -4   51.58    1.57
  -2  -5   4   52.38    1.61
   1   5  -4    4.61    0.27
  -1  -5   4    5.02    0.37
   0   5  -4   13.47    0.54
  -1   5  -4   12.70    0.53
  -2   5  -4    1.33    0.21
  -3   5  -4    4.16    0.34
  -4   5  -4    2.34    0.34
  -5   5  -4    4.66    0.55
  -6   5  -4    3.60    0.69
  -6   5  -4    3.72    0.54
  -7   5  -4   -0.39    0.41
  -7   5  -4   -0.15    0.69
  -8   5  -4    0.62    0.94
  -8   5  -4   -1.01    0.66
 -12  -4   4    0.83    0.70
 -11  -4   4    0.26    0.53
 -10  -4   4    2.27    0.45
  -9  -4   4    0.41    0.30
   8   4  -4   14.49    0.81
  -8  -4   4   13.72    0.69
   7   4  -4    6.13    0.58
  -7  -4   4    6.14    0.41
  -7  -4   4    6.82    0.41
   6   4  -4   20.98    0.95
  -6  -4   4   22.21    0.74
  -6  -4   4   22.44    0.85
   5   4  -4    1.73    0.35
  -5  -4   4    1.56    0.23
   4   4  -4   23.69    0.87
  -4  -4   4   24.45    0.89
   3   4  -4    1.45    0.20
  -3  -4   4    1.60    0.21
   2   4  -4    0.52    0.13
  -2  -4   4    0.58    0.13
   1   4  -4   39.89    1.24
  -1  -4   4   40.88    1.26
   0   4  -4    5.32    0.28
  -1   4  -4   73.55    2.14
  -2   4  -4  126.21    3.55
  -3   4  -4    1.18    0.20
  -4   4  -4   -0.13    0.17
  -5   4  -4   -0.12    0.23
  -6   4  -4    0.74    0.32
  -7   4  -4    1.82    0.61
  -7   4  -4    1.87    0.41
  -8   4  -4    4.85    0.74
  -8   4  -4    5.94    1.27
  -9   4  -4    0.19    1.13
 -12  -3   4    0.51    0.76
 -11  -3   4   -0.07    0.51
 -10  -3   4    0.77    0.41
  -9  -3   4    1.23    0.32
  -9  -3   4    2.02    0.42
   8   3  -4    0.75    0.30
  -8  -3   4    0.68    0.31
   7   3  -4    7.92    0.71
  -7  -3   4    7.50    0.46
  -7  -3   4    7.65    0.44
   6   3  -4    6.23    0.50
  -6  -3   4    5.74    0.38
  -6  -3   4    6.57    0.36
   5   3  -4   22.04    0.83
  -5  -3   4   22.39    0.73
  -5  -3   4   21.63    0.82
   4   3  -4    3.45    0.28
  -4  -3   4    3.97    0.29
   3   3  -4    6.10    0.31
  -3  -3   4    6.48    0.33
  -3  -3   4    6.88    0.27
   1   3  -4   39.89    1.17
  -1  -3   4   38.71    1.20
   0   3  -4   19.47    0.67
   0  -3   4   19.13    0.67
  -1   3  -4    8.53    0.42
  -2   3  -4   32.62    1.06
  -3   3  -4   59.74    1.81
  -4   3  -4  265.72    7.25
  -5   3  -4    0.69    0.23
  -6   3  -4    5.10    0.47
  -7   3  -4   -0.28    0.30
  -8   3  -4    3.33    0.80
  -8   3  -4    1.67    0.46
  -9   3  -4    0.77    1.01
  -9   3  -4    0.21    0.60
 -12  -2   4    0.07    1.32
 -11  -2   4   -0.24    0.53
 -10  -2   4   -0.08    0.54
 -10  -2   4    0.57    0.40
  -9  -2   4    2.27    0.53
  -9  -2   4    2.30    0.34
  -8  -2   4    1.06    0.29
  -8  -2   4    0.06    0.25
   7   2  -4    5.50    0.64
  -7  -2   4    5.16    0.57
  -7  -2   4    4.94    0.39
   6   2  -4    2.81    0.36
  -6  -2   4    3.65    0.30
  -6  -2   4    3.44    0.30
   5   2  -4   18.41    0.69
  -5  -2   4   17.44    0.74
  -5  -2   4   18.21    0.67
   4   2  -4   28.51    0.92
  -4  -2   4   27.88    0.97
  -4  -2   4   28.55    0.90
   3   2  -4   11.12    0.42
  -3  -2   4   10.94    0.39
  -3  -2   4   10.20    0.44
   2   2  -4   10.12    0.37
  -2  -2   4    9.85    0.38
  -2  -2   4   10.39    0.41
   1   2  -4   12.87    0.45
  -1  -2   4   13.16    0.47
  -1  -2   4   13.59    0.49
   0   2  -4  270.06    7.16
   0  -2   4  268.28    7.20
   0  -2   4  269.66    7.17
  -1   2  -4    2.96    0.23
  -2   2  -4    4.20    0.31
  -3   2  -4   54.70    1.65
  -4   2  -4  123.02    3.49
  -5   2  -4    2.14    0.28
  -6   2  -4   15.48    0.73
  -7   2  -4    3.30    0.49
  -8   2  -4   -0.21    0.35
  -9   2  -4   -0.72    0.82
  -9   2  -4    0.30    0.45
 -10   2  -4    5.05    1.40
 -11  -1   4    1.60    0.83
 -11  -1   4    2.36    0.62
 -10  -1   4    0.23    0.59
 -10  -1   4   -0.15    0.43
  -9  -1   4    2.69    0.46
  -9  -1   4    3.70    0.55
  -8  -1   4    5.49    0.47
  -8  -1   4    4.75    0.48
  -7  -1   4    0.96    0.20
  -7  -1   4    1.07    0.25
  -7  -1   4    1.45    0.32
  -6  -1   4    3.03    0.26
  -6  -1   4    3.10    0.27
  -6  -1   4    3.98    0.40
   5   1  -4    9.69    0.44
  -5  -1   4    9.33    0.52
  -5  -1   4    9.54    0.46
   4   1  -4   76.43    2.11
  -4  -1   4   75.64    2.16
  -4  -1   4   73.33    2.20
   3   1  -4  219.81    5.78
  -3  -1   4  215.44    5.87
  -3  -1   4  215.39    5.73
  -3  -1   4  217.78    5.82
   2   1  -4   58.53    1.59
  -2  -1   4   57.32    1.58
  -2  -1   4   58.95    1.64
  -2  -1   4   57.20    1.68
   1   1  -4  107.84    2.96
  -1  -1   4  109.35    3.02
  -1  -1   4  114.07    3.02
   0   1  -4  341.07    9.10
   0  -1   4  339.39    9.11
   0  -1   4  352.90    9.16
  -1   1  -4   40.97    1.23
   1  -1   4   42.46    1.20
   1  -1   4   41.49    1.29
  -2   1  -4   36.72    1.14
  -3   1  -4    0.91    0.16
  -4   1  -4    5.02    0.29
  -5   1  -4    1.49    0.23
  -6   1  -4  228.01    6.32
  -7   1  -4    7.33    0.56
  -8   1  -4    4.32    0.60
 -10   1  -4   -0.73    0.64
 -10   1  -4    0.47    0.94
 -11   0   4    1.08    0.75
 -11   0   4    0.25    0.60
 -10   0   4    1.04    0.63
 -10   0   4    0.78    0.44
  -9   0   4    0.47    0.41
  -8   0   4   10.70    0.66
  -7   0   4   55.55    1.84
  -6   0   4   14.17    0.71
  -5   0   4   19.60    0.76
  -4   0   4   21.98    0.78
  -3   0   4   18.09    0.64
  -2   0   4  535.17   14.13
  -2   0   4  536.67   14.15
   1   0  -4   49.16    1.28
  -1   0   4   45.51    1.28
  -1   0   4   47.85    1.35
  -1   0   4   44.30    1.36
   0   0  -4  358.61    9.67
   0   0   4  369.46    9.69
   0   0   4  374.34    9.75
  -1   0  -4   69.32    1.95
   1   0   4   69.50    2.02
   1   0   4   70.48    1.91
  -2   0  -4  605.81   16.18
   2   0   4  621.23   16.27
  -3   0  -4    1.53    0.22
  -4   0  -4    5.06    0.28
  -5   0  -4    0.59    0.14
  -6   0  -4    7.87    0.44
  -7   0  -4   19.08    0.83
  -8   0  -4   31.87    1.28
  -9   0  -4    0.88    0.43
 -10   0  -4    2.14    0.91
 -10   0  -4    0.30    0.54
 -11   0  -4    0.28    1.41
 -11   1   4    2.37    0.84
 -10   1   4    0.52    0.62
  -9   1   4    3.17    0.63
  -8   1   4    3.28    0.53
  -7   1   4    3.38    0.40
  -6   1   4  114.38    3.39
  -5   1   4   33.87    1.21
  -4   1   4   11.67    0.52
  -3   1   4    3.90    0.25
  -2   1   4  383.16   10.18
  -1   1   4  113.50    3.11
   0  -1  -4   77.61    2.09
   0  -1  -4   73.79    2.05
   0   1   4   74.25    2.06
   0   1   4   77.58    2.15
  -1  -1  -4  320.38    8.53
   1   1   4  325.21    8.48
   1   1   4  321.96    8.61
  -2  -1  -4   26.79    0.85
  -2  -1  -4   27.58    0.87
   2   1   4   27.20    0.92
  -3  -1  -4   33.24    1.06
  -3  -1  -4   33.14    1.05
  -4  -1  -4   81.14    2.36
  -5  -1  -4    0.98    0.18
  -6  -1  -4    0.67    0.18
  -7  -1  -4    2.98    0.35
  -8  -1  -4   13.08    0.76
  -9  -1  -4    5.04    0.68
 -10  -1  -4    0.53    0.52
 -11  -1  -4    0.30    0.93
 -11   2   4   -0.41    1.36
 -10   2   4    3.65    0.81
  -9   2   4    0.50    0.50
  -8   2   4    2.59    0.54
  -7   2   4    8.65    0.60
  -6   2   4  134.58    3.96
  -5   2   4   32.27    1.17
  -4   2   4   78.72    2.36
  -3   2   4   37.54    1.21
  -2   2   4  293.88    7.87
  -1   2   4  167.73    4.54
   0  -2  -4  492.86   12.34
   0   2   4  439.60   12.39
   0   2   4  474.02   12.33
   1   2   4  243.67    6.58
   1   2   4  242.15    6.44
   1   2   4  249.01    6.55
   2   2   4   71.12    2.08
   2   2   4   71.37    2.06
  -3  -2  -4    0.23    0.13
  -3  -2  -4    0.13    0.13
  -4  -2  -4  141.36    4.04
  -4  -2  -4  148.88    4.02
  -5  -2  -4   21.41    0.79
  -5  -2  -4   21.76    0.77
  -6  -2  -4    1.93    0.25
  -6  -2  -4    2.32    0.26
  -7  -2  -4    1.08    0.22
  -8  -2  -4    2.15    0.34
  -9  -2  -4    1.09    0.34
 -10  -2  -4    0.85    0.49
 -11  -2  -4   -0.77    1.00
 -11  -2  -4    1.41    0.84
 -10   3   4    0.76    0.76
  -9   3   4    3.85    0.86
  -8   3   4    8.18    0.76
  -7   3   4    0.86    0.33
  -6   3   4    4.39    0.40
  -5   3   4   60.74    1.96
  -4   3   4  381.86   10.33
  -3   3   4   52.47    1.64
  -2   3   4   30.62    1.01
  -1   3   4   98.69    2.77
   0  -3  -4   62.98    1.77
   0   3   4   64.50    1.86
   0   3   4   65.52    1.80
   1   3   4   70.06    1.99
   1   3   4   70.36    2.03
   2   3   4   26.43    0.89
   2   3   4   25.62    0.87
   3   3   4   19.95    0.76
   3   3   4   20.21    0.76
   4   3   4   22.50    0.88
   5   3   4   27.31    1.01
  -6  -3  -4    9.69    0.48
  -6  -3  -4    9.34    0.46
  -7  -3  -4    2.69    0.33
  -7  -3  -4    2.02    0.33
  -8  -3  -4    1.76    0.30
  -9  -3  -4    1.14    0.34
 -10  -3  -4   -0.14    0.43
 -11  -3  -4    0.43    0.69
 -10   4   4   -0.04    0.95
  -9   4   4    5.80    1.07
  -8   4   4   16.54    1.06
  -7   4   4    6.96    0.62
  -6   4   4    4.86    0.44
  -5   4   4    3.41    0.24
  -5   4   4    3.98    0.34
  -4   4   4   80.99    2.48
  -3   4   4    0.34    0.18
  -2   4   4   83.80    2.26
  -2   4   4   82.69    2.43
   1  -4  -4    4.25    0.19
  -1   4   4    4.06    0.26
  -1   4   4    4.20    0.21
   0   4   4   24.53    0.81
   0   4   4   23.90    0.76
   1   4   4   18.90    0.66
   1   4   4   18.42    0.68
   2   4   4   66.89    1.93
   2   4   4   64.25    1.93
   3   4   4   11.00    0.49
   3   4   4   10.66    0.51
   4   4   4    6.53    0.39
   4   4   4    6.81    0.40
   5   4   4    7.52    0.41
  -6  -4  -4    0.11    0.10
   6   4   4   -0.12    0.18
  -7  -4  -4    0.76    0.18
  -7  -4  -4    1.31    0.24
  -7  -4  -4    0.93    0.23
  -8  -4  -4    2.98    0.43
  -8  -4  -4    3.88    0.45
  -9  -4  -4    1.10    0.36
  -9  -4  -4    0.55    0.34
 -10  -4  -4    0.53    0.42
 -11  -4  -4    0.25    0.58
 -12  -4  -4    0.35    1.04
  -9   5   4    1.68    0.84
  -8   5   4    0.82    0.61
  -7   5   4    0.76    0.47
  -6   5   4   20.37    0.97
  -5   5   4   17.67    0.81
  -5   5   4   17.84    0.70
  -4   5   4   33.18    0.98
  -4   5   4   32.55    1.19
  -3   5   4   87.51    2.41
  -3   5   4   87.86    2.63
  -2   5   4   78.42    2.15
  -2   5   4   77.51    2.33
  -1   5   4   49.31    1.41
  -1   5   4   47.61    1.51
   0   5   4  102.02    2.84
   0   5   4   99.18    2.79
   1   5   4   72.89    2.14
   1   5   4   75.00    2.14
   2   5   4   53.37    1.61
   2   5   4   53.02    1.63
   3   5   4   45.53    1.47
   3   5   4   44.55    1.41
   4   5   4    1.41    0.21
   4   5   4    1.30    0.22
   5   5   4    2.48    0.27
  -6  -5  -4    2.94    0.17
   6   5   4    2.37    0.32
   7   5   4   -0.35    0.24
  -9  -5  -4    3.92    0.59
  -9  -5  -4    3.87    0.54
 -10  -5  -4    0.28    0.44
 -10  -5  -4    0.22    0.42
 -11  -5  -4   -0.15    0.55
 -12  -5  -4    2.01    0.91
  -9   6   4    1.91    1.01
  -8   6   4   -0.15    0.68
  -7   6   4   12.44    1.00
  -6   6   4   17.39    0.93
  -5   6   4   27.28    1.12
  -4   6   4   20.68    0.71
  -4   6   4   19.87    0.86
  -3   6   4   88.10    2.68
  -3   6   4   88.79    2.46
  -2   6   4   22.45    0.72
  -2   6   4   21.73    0.90
  -1   6   4   61.62    1.89
  -1   6   4   62.49    1.79
   0   6   4    9.01    0.42
   0   6   4    8.21    0.39
   1   6   4   15.63    0.61
   1   6   4   15.30    0.60
   2   6   4   29.00    1.01
   2   6   4   28.93    0.99
   3   6   4    1.36    0.26
   3   6   4    1.21    0.23
   4   6   4    2.39    0.25
   4   6   4    2.45    0.25
   5   6   4    5.47    0.38
   5   6   4    5.79    0.38
   6   6   4    2.76    0.34
   7   6   4    5.59    0.48
   8   6   4   -0.28    0.33
   9   6   4    0.41    0.43
 -10  -6  -4    0.50    0.46
 -10  -6  -4    0.27    0.44
 -11  -6  -4    0.35    0.61
 -11  -6  -4    0.85    0.61
  -8   7   4    1.64    0.81
  -7   7   4   -0.51    0.60
  -6   7   4    0.96    0.55
  -5   7   4    0.22    0.33
  -4   7   4   23.09    0.99
  -4   7   4   24.01    0.81
  -3   7   4    3.03    0.34
  -3   7   4    3.47    0.38
  -2   7   4   45.65    1.53
  -2   7   4   46.26    1.42
  -1   7   4    1.40    0.24
   0   7   4   39.68    1.29
   0   7   4   40.15    1.29
   1   7   4    2.99    0.36
   2   7   4   10.35    0.50
   2   7   4   10.33    0.53
   3   7   4   51.12    1.64
   3   7   4   48.59    1.55
   4   7   4   14.22    0.67
   4   7   4   14.98    0.63
   5   7   4   26.67    1.06
   5   7   4   28.67    1.03
   6   7   4    3.56    0.39
   7   7   4   11.24    0.66
   8   7   4   19.33    1.07
   9   7   4    1.60    0.51
 -10  -7  -4    0.41    0.47
 -10  -7  -4    0.08    0.45
 -11  -7  -4    0.11    0.65
 -11  -7  -4    0.36    0.66
  -8   8   4    4.47    1.83
  -7   8   4    0.39    0.75
  -6   8   4   -0.61    0.51
  -5   8   4    3.96    0.64
  -4   8   4    4.14    0.49
  -3   8   4    7.67    0.52
  -3   8   4    8.12    0.41
  -2   8   4   10.85    0.47
  -2   8   4   10.88    0.57
  -1   8   4   36.29    1.26
  -1   8   4   34.80    1.16
   0   8   4   17.81    0.76
   0   8   4   18.27    0.72
   1   8   4   29.68    1.03
   1   8   4   28.54    1.03
   2   8   4    9.64    0.51
   2   8   4    9.14    0.49
   3   8   4    0.88    0.19
   3   8   4    1.20    0.27
   4   8   4   13.79    0.65
   4   8   4   13.85    0.62
   5   8   4    1.20    0.25
   5   8   4    1.29    0.25
   6   8   4    1.43    0.28
   7   8   4    2.41    0.41
   8   8   4   22.81    1.24
   9   8   4   -0.26    0.50
  10   8   4    7.19    1.18
 -11  -8  -4    0.00    0.77
 -11  -8  -4    0.46    0.72
  -7   9   4   12.68    1.46
  -6   9   4    0.08    0.66
  -5   9   4   -0.30    0.51
  -4   9   4    8.57    0.74
  -3   9   4    1.34    0.24
  -3   9   4    0.79    0.32
  -2   9   4    9.38    0.47
  -2   9   4    9.04    0.56
  -1   9   4    4.58    0.38
  -1   9   4    4.87    0.35
   0   9   4    5.34    0.37
   0   9   4    5.02    0.43
   1   9   4   20.80    0.87
   1   9   4   18.99    0.79
   2   9   4   11.25    0.56
   2   9   4   11.26    0.60
   3   9   4    2.91    0.34
   3   9   4    4.05    0.37
   4   9   4    1.54    0.24
   4   9   4    1.60    0.32
   5   9   4    6.11    0.46
   5   9   4    6.45    0.50
   6   9   4    0.39    0.30
   7   9   4    2.49    0.47
   8   9   4    0.66    0.43
   9   9   4    6.45    1.02
  10   9   4   36.90    1.87
  -6  10   4    7.00    1.18
  -5  10   4    0.05    0.65
  -4  10   4   -0.01    0.53
  -3  10   4   20.36    1.22
  -3  10   4   18.71    1.03
  -2  10   4    3.26    0.51
  -2  10   4    3.33    0.43
  -1  10   4   13.14    0.63
  -1  10   4   13.17    0.71
   0  10   4    0.16    0.25
   0  10   4    0.09    0.22
   1  10   4    1.35    0.24
   1  10   4    1.44    0.37
   2  10   4   36.13    1.32
   2  10   4   36.84    1.31
   3  10   4   21.53    0.92
   3  10   4   20.03    0.85
   4  10   4    7.97    0.52
   4  10   4    7.78    0.56
   5  10   4    5.60    0.43
   5  10   4    5.46    0.53
   6  10   4   40.59    1.61
   7  10   4    1.13    0.47
   8  10   4   -0.09    0.49
   9  10   4    0.93    0.62
  10  10   4    7.94    1.34
  -5  11   4    5.82    1.11
  -4  11   4    1.00    0.84
  -3  11   4   -0.46    0.78
  -2  11   4   22.02    1.06
  -2  11   4   21.77    1.13
  -1  11   4    6.27    0.60
  -1  11   4    5.54    0.58
   0  11   4    3.49    0.49
   1  11   4    1.06    0.31
   1  11   4    1.20    0.36
   2  11   4    1.00    0.29
   2  11   4    0.78    0.48
   3  11   4   17.95    0.85
   3  11   4   15.38    0.81
   4  11   4    8.31    0.64
   4  11   4    9.40    0.86
   5  11   4    5.60    0.70
   6  11   4    0.68    0.46
   7  11   4   -0.39    0.48
   8  11   4    9.16    1.09
   9  11   4   -0.18    0.67
  10  11   4   -0.40    0.99
  -5  12   4    0.84    1.40
  -4  12   4   -1.29    0.96
  -3  12   4    1.15    0.81
  -2  12   4    3.23    0.86
  -1  12   4   20.74    1.11
  -1  12   4   23.20    1.23
   0  12   4   14.48    0.87
   0  12   4   17.94    1.02
   1  12   4    4.12    0.52
   1  12   4    4.67    0.67
   2  12   4    4.21    0.71
   3  12   4    5.79    0.74
   4  12   4   13.27    0.94
   5  12   4    3.87    0.71
   6  12   4    2.89    0.59
   7  12   4    3.14    0.68
   8  12   4    9.36    1.29
   9  12   4   -0.29    0.82
  -4  13   4   -0.81    1.14
  -3  13   4    0.70    0.79
  -2  13   4   -0.29    0.66
  -1  13   4    2.16    0.72
   0  13   4   22.02    1.25
   1  13   4   12.54    1.02
   2  13   4    0.36    0.49
   3  13   4    0.81    0.46
   4  13   4    4.35    0.78
   5  13   4    0.40    0.53
   6  13   4    2.01    0.64
   7  13   4    0.11    0.70
   8  13   4    0.61    0.89
   0  14   4    6.83    1.13
   1  14   4    2.30    0.68
   2  14   4    7.49    0.99
   3  14   4    1.08    0.62
   4  14   4    2.69    0.66
   5  14   4    1.40    0.70
   6  14   4    1.24    0.79
   2  15   4    8.04    1.55
   3  15   4    1.51    0.90
   4  15   4    1.52    1.03
   6  12  -5    1.55    1.25
   5  12  -5    0.59    0.87
   4  12  -5    2.92    0.88
   3  12  -5    0.35    0.73
   2  12  -5    1.22    0.89
  -9 -11   5   -0.93    0.60
   8  11  -5    1.04    1.16
  -8 -11   5   -0.15    0.51
   7  11  -5    0.58    0.91
  -7 -11   5    1.01    0.49
   6  11  -5    0.59    0.80
  -6 -11   5   -0.30    0.41
   5  11  -5    1.88    0.68
   4  11  -5    2.10    0.66
   3  11  -5    0.40    0.52
   2  11  -5    0.87    0.51
   1  11  -5    0.78    0.52
   0  11  -5    1.35    0.58
 -10 -10   5    0.60    0.65
   8  10  -5    0.77    0.92
  -8 -10   5    0.36    0.47
   7  10  -5    0.43    0.85
  -7 -10   5   -0.42    0.38
   6  10  -5    1.11    0.72
  -6 -10   5    0.69    0.34
   5  10  -5    0.31    0.56
  -5 -10   5    0.23    0.35
   4  10  -5    1.64    0.55
   3  10  -5    3.41    0.53
   2  10  -5   10.23    0.83
   1  10  -5    0.32    0.38
   0  10  -5    0.27    0.39
  -1  10  -5    0.28    0.44
  -2  10  -5    1.25    0.55
 -10  -9   5    0.60    0.57
  -9  -9   5    0.59    0.49
   8   9  -5    0.78    0.80
  -8  -9   5    0.14    0.39
   7   9  -5    0.28    0.76
  -7  -9   5   -0.13    0.34
   6   9  -5    7.76    1.13
  -6  -9   5    7.72    0.66
   5   9  -5    0.38    0.54
  -5  -9   5    0.50    0.27
   4   9  -5   -0.45    0.42
  -4  -9   5   -0.02    0.25
   3   9  -5    5.05    0.67
   2   9  -5    2.54    0.53
   1   9  -5    0.34    0.29
   0   9  -5    3.97    0.53
  -1   9  -5    0.21    0.35
  -2   9  -5    0.25    0.41
  -3   9  -5    0.88    0.46
 -11  -8   5    0.19    0.67
 -10  -8   5    6.34    0.88
  -9  -8   5    0.73    0.44
   8   8  -5    3.19    0.83
  -8  -8   5    2.42    0.43
   7   8  -5    2.38    0.68
  -7  -8   5    1.50    0.32
   6   8  -5   11.17    0.95
  -6  -8   5   10.82    0.64
   5   8  -5    1.65    0.41
  -5  -8   5    1.02    0.24
   4   8  -5   24.94    1.03
  -4  -8   5   23.38    0.94
   3   8  -5    4.34    0.44
  -3  -8   5    3.23    0.39
   2   8  -5    9.05    0.52
   1   8  -5    0.21    0.21
   0   8  -5   29.70    1.18
  -1   8  -5   -0.17    0.27
  -2   8  -5    1.42    0.35
  -2   8  -5    1.31    0.42
  -3   8  -5    0.33    0.51
  -3   8  -5    0.25    0.39
  -4   8  -5   -0.32    0.43
  -4   8  -5    1.13    0.88
  -5   8  -5    1.88    1.05
  -5   8  -5    0.86    0.91
  -6   8  -5    2.90    1.20
 -11  -7   5    0.69    0.59
 -10  -7   5    5.42    0.84
  -9  -7   5    3.52    0.66
   8   7  -5   39.47    1.66
  -8  -7   5   41.02    1.51
   7   7  -5    6.60    0.84
  -7  -7   5    6.73    0.55
   6   7  -5    0.91    0.37
  -6  -7   5    0.95    0.25
   5   7  -5    4.18    0.53
  -5  -7   5    3.93    0.37
   4   7  -5    8.56    0.52
  -4  -7   5    9.00    0.49
   3   7  -5    0.51    0.19
  -3  -7   5    0.14    0.15
   2   7  -5   18.15    0.73
  -2  -7   5   17.41    0.71
   1   7  -5    0.84    0.18
   0   7  -5    8.30    0.46
   0   7  -5    9.40    0.50
  -1   7  -5   21.59    0.87
  -1   7  -5   20.13    1.02
  -2   7  -5   12.71    0.76
  -2   7  -5   11.36    0.75
  -3   7  -5    2.34    0.39
  -3   7  -5    2.90    0.55
  -4   7  -5    1.57    0.64
  -4   7  -5    0.93    0.38
  -5   7  -5   -0.39    0.42
  -5   7  -5   -0.23    0.83
  -6   7  -5    1.08    1.10
  -7   7  -5    1.00    1.40
 -11  -6   5    0.32    0.55
 -10  -6   5    0.34    0.45
  -9  -6   5    0.48    0.39
   8   6  -5   40.65    1.59
  -8  -6   5   42.82    1.50
  -7  -6   5    2.25    0.39
   6   6  -5   44.61    1.58
  -6  -6   5   43.65    1.49
   5   6  -5    0.27    0.24
  -5  -6   5   -0.05    0.16
   4   6  -5    7.17    0.45
  -4  -6   5    7.31    0.41
   3   6  -5    6.64    0.40
  -3  -6   5    6.37    0.36
   2   6  -5    0.06    0.13
  -2  -6   5   -0.23    0.13
   1   6  -5   27.38    0.96
   0   6  -5    1.72    0.23
  -1   6  -5   10.53    0.52
  -2   6  -5    1.83    0.31
  -3   6  -5    9.85    0.63
  -4   6  -5    2.21    0.38
  -5   6  -5    0.23    0.67
  -5   6  -5    0.29    0.36
  -6   6  -5   -0.49    0.82
  -6   6  -5    0.24    0.44
  -7   6  -5    0.49    1.05
 -11  -5   5   -0.40    0.54
 -10  -5   5    3.87    0.54
  -9  -5   5   -0.16    0.36
   8   5  -5    3.99    0.60
  -8  -5   5    3.13    0.48
   7   5  -5   18.17    0.95
  -7  -5   5   19.54    0.82
   6   5  -5   98.44    2.97
  -6  -5   5   98.87    2.93
   5   5  -5   31.20    1.16
  -5  -5   5   32.10    1.11
   4   5  -5    6.40    0.40
  -4  -5   5    5.77    0.33
   3   5  -5   10.44    0.48
  -3  -5   5   10.35    0.47
   2   5  -5    6.88    0.35
  -2  -5   5    6.44    0.34
   1   5  -5    7.60    0.38
  -1  -5   5    8.00    0.38
   0   5  -5   13.36    0.55
  -1   5  -5   11.88    0.52
  -2   5  -5    0.39    0.16
  -3   5  -5    0.41    0.19
  -4   5  -5    2.98    0.44
  -5   5  -5    1.79    0.38
  -6   5  -5   -0.09    0.40
  -7   5  -5    2.17    0.85
  -8   5  -5    1.02    1.09
 -11  -4   5    3.69    0.60
 -10  -4   5    9.27    0.82
  -9  -4   5    3.99    0.62
  -8  -4   5    0.97    0.27
   7   4  -5    0.42    0.32
  -7  -4   5    1.08    0.21
  -6  -4   5    5.33    0.35
   5   4  -5    0.63    0.41
  -5  -4   5    0.83    0.14
   4   4  -5   35.03    1.20
  -4  -4   5   34.30    1.15
   3   4  -5    2.62    0.31
  -3  -4   5    2.11    0.29
   2   4  -5   15.66    0.65
  -2  -4   5   17.90    0.70
   1   4  -5   10.23    0.44
  -1  -4   5    8.88    0.47
   0   4  -5    4.09    0.26
   0  -4   5    4.17    0.34
  -1   4  -5   27.98    0.95
  -2   4  -5   32.91    1.10
  -3   4  -5    8.44    0.46
  -5   4  -5    2.56    0.41
  -6   4  -5   -0.52    0.31
  -7   4  -5    2.67    0.49
  -8   4  -5    1.07    0.64
  -8   4  -5    2.29    0.95
 -11  -3   5    0.53    0.53
 -10  -3   5   -0.74    0.41
  -9  -3   5   -0.30    0.34
  -8  -3   5   13.31    0.72
  -8  -3   5   12.81    0.71
   7   3  -5    5.73    0.70
  -7  -3   5    6.34    0.43
  -7  -3   5    6.61    0.44
   6   3  -5   10.64    0.66
  -6  -3   5   15.02    0.55
  -6  -3   5   13.04    0.58
   5   3  -5    8.62    0.51
  -5  -3   5    9.89    0.40
  -5  -3   5    9.13    0.44
   4   3  -5   10.44    0.51
  -4  -3   5   12.57    0.56
  -4  -3   5   12.91    0.46
   3   3  -5   69.95    2.02
  -3  -3   5   69.64    2.10
  -3  -3   5   73.05    1.98
   2   3  -5    8.96    0.37
  -2  -3   5    9.00    0.42
  -2  -3   5    8.07    0.34
   1   3  -5   84.67    2.35
  -1  -3   5   83.52    2.38
  -1  -3   5   81.96    2.34
   0   3  -5   47.90    1.47
   0  -3   5   49.85    1.48
  -1   3  -5   30.90    1.00
  -2   3  -5   16.26    0.62
  -3   3  -5   25.60    0.91
  -4   3  -5    0.32    0.18
  -5   3  -5    4.07    0.42
  -6   3  -5    0.11    0.33
  -7   3  -5    1.46    0.41
  -8   3  -5   -0.56    0.46
  -9   3  -5    1.00    1.07
 -11  -2   5    0.60    0.57
 -10  -2   5   -0.39    0.40
  -9  -2   5    6.64    0.70
  -9  -2   5    6.53    0.61
  -8  -2   5    3.92    0.43
  -8  -2   5    3.56    0.45
   7   2  -5    3.38    0.44
  -7  -2   5    3.38    0.38
  -7  -2   5    3.84    0.51
   6   2  -5   26.44    0.92
  -6  -2   5   25.14    0.89
  -6  -2   5   25.20    0.95
   5   2  -5   75.06    2.14
  -5  -2   5   73.72    2.23
  -5  -2   5   72.31    2.13
   4   2  -5   23.67    0.81
  -4  -2   5   24.96    0.80
  -4  -2   5   23.80    0.89
   3   2  -5   23.93    0.77
  -3  -2   5   24.48    0.78
  -3  -2   5   23.75    0.84
   2   2  -5   47.53    1.34
  -2  -2   5   46.83    1.37
  -2  -2   5   45.51    1.41
   1   2  -5   12.16    0.44
  -1  -2   5   11.73    0.47
  -1  -2   5   11.83    0.47
   0   2  -5    6.63    0.30
   0  -2   5    5.80    0.28
   0  -2   5    4.88    0.31
  -1   2  -5   11.48    0.51
  -2   2  -5    7.63    0.35
  -3   2  -5   26.94    0.93
  -4   2  -5   15.73    0.65
  -5   2  -5    0.29    0.20
  -6   2  -5    0.37    0.26
  -7   2  -5   -0.35    0.33
  -8   2  -5   -0.35    0.41
  -9   2  -5    1.30    0.62
 -11  -1   5    1.87    0.61
 -10  -1   5    0.95    0.62
 -10  -1   5    1.45    0.48
  -9  -1   5   -0.60    0.39
  -9  -1   5    0.34    0.41
  -8  -1   5    3.16    0.43
  -8  -1   5    4.08    0.47
  -7  -1   5    1.64    0.28
  -7  -1   5    1.46    0.23
  -6  -1   5    7.09    0.56
  -6  -1   5    7.00    0.41
  -5  -1   5   13.67    0.57
  -5  -1   5   13.03    0.58
  -4  -1   5   66.30    2.02
  -4  -1   5   67.12    1.95
   3   1  -5    2.50    0.20
  -3  -1   5    2.55    0.23
  -3  -1   5    3.10    0.22
   2   1  -5   51.15    1.44
  -2  -1   5   50.33    1.53
  -2  -1   5   53.19    1.52
   1   1  -5    2.53    0.16
  -1  -1   5    2.42    0.22
  -1  -1   5    2.41    0.18
   0   1  -5    8.68    0.35
   0  -1   5    8.74    0.35
   0  -1   5    9.07    0.41
  -1   1  -5   46.05    1.38
   1  -1   5   46.95    1.35
   1  -1   5   46.42    1.46
  -2   1  -5    8.57    0.45
  -3   1  -5   31.60    1.04
  -4   1  -5   21.87    0.81
  -5   1  -5   69.39    2.13
  -6   1  -5  118.21    3.47
  -7   1  -5    0.03    0.37
  -8   1  -5    1.01    0.39
 -10   1  -5    1.26    1.14
 -11   0   5    1.77    0.66
 -11   0   5    0.91    0.76
 -10   0   5    1.66    0.64
 -10   0   5    2.03    0.51
  -9   0   5    0.95    0.40
  -9   0   5    1.09    0.46
  -8   0   5    2.44    0.36
  -7   0   5    4.65    0.41
  -6   0   5    1.69    0.33
  -5   0   5   27.62    1.00
  -4   0   5   12.02    0.51
  -4   0   5   11.54    0.54
  -3   0   5    9.11    0.43
  -3   0   5   10.34    0.43
  -2   0   5   28.90    0.91
  -2   0   5   27.71    0.91
   1   0  -5   65.50    1.82
  -1   0   5   67.85    1.84
  -1   0   5   68.03    1.94
  -1   0   5   66.92    1.90
   0   0  -5   12.71    0.43
   0   0   5   12.28    0.50
   0   0   5   12.24    0.44
  -1   0  -5   16.06    0.56
   1   0   5   16.02    0.63
   1   0   5   16.47    0.53
  -2   0  -5  138.96    3.87
   2   0   5  142.51    3.97
  -3   0  -5    2.20    0.19
  -5   0  -5   16.20    0.67
  -6   0  -5   44.48    1.50
  -7   0  -5    3.26    0.48
  -8   0  -5   22.90    1.08
  -9   0  -5    0.49    0.45
 -10   0  -5   -0.12    0.74
 -11   1   5    1.20    0.84
 -11   1   5    0.93    0.84
 -10   1   5    0.73    0.67
  -9   1   5    8.47    0.85
  -8   1   5   -0.22    0.33
  -6   1   5    4.87    0.40
  -5   1   5    0.47    0.27
  -4   1   5   12.31    0.54
  -3   1   5   11.01    0.48
  -2   1   5   13.22    0.51
  -1   1   5  331.04    8.96
  -1   1   5  341.42    8.93
   0  -1  -5    0.46    0.08
   0  -1  -5    0.18    0.13
   0   1   5    0.35    0.14
   0   1   5    0.35    0.08
  -1  -1  -5   49.06    1.42
   1   1   5   49.95    1.52
   1   1   5   49.11    1.37
  -2  -1  -5   58.21    1.72
   2   1   5   60.33    1.82
  -3  -1  -5    9.99    0.50
  -4  -1  -5   31.92    1.06
  -5  -1  -5    0.45    0.14
  -6  -1  -5    2.42    0.29
  -7  -1  -5    9.12    0.57
  -8  -1  -5   87.17    2.75
  -9  -1  -5    2.78    0.50
 -10  -1  -5    0.73    0.63
 -11  -1  -5   -0.19    1.29
 -10   2   5   -0.10    0.67
  -9   2   5    1.30    0.53
  -8   2   5    4.53    0.59
  -7   2   5    3.39    0.44
  -6   2   5    1.68    0.29
  -5   2   5   85.21    2.59
  -4   2   5   53.27    1.70
  -3   2   5   32.50    1.09
  -2   2   5   15.32    0.58
  -1   2   5   69.67    2.02
   0  -2  -5  448.62   12.02
   0  -2  -5  492.63   12.08
   0  -2  -5  451.47   12.03
   0   2   5  450.80   12.05
   0   2   5  445.57   12.16
  -1  -2  -5   36.63    1.08
  -1  -2  -5   35.29    1.06
   1   2   5   38.21    1.02
   1   2   5   34.64    1.16
  -2  -2  -5  164.21    4.47
  -2  -2  -5  164.48    4.49
   2   2   5  166.62    4.58
  -3  -2  -5  101.91    2.87
  -3  -2  -5  100.70    2.90
   3   2   5  104.45    2.99
  -4  -2  -5  263.45    6.89
  -4  -2  -5  245.18    6.90
  -5  -2  -5    0.37    0.13
  -5  -2  -5    0.13    0.15
  -6  -2  -5    0.60    0.18
  -7  -2  -5    0.00    0.23
  -8  -2  -5    1.50    0.42
  -9  -2  -5    2.52    0.45
 -10  -2  -5   13.32    1.05
 -10   3   5    0.38    0.74
  -9   3   5    3.65    0.66
  -8   3   5    0.89    0.49
  -7   3   5    8.53    0.62
  -6   3   5    2.51    0.37
  -5   3   5    2.01    0.31
  -4   3   5  114.09    3.32
  -3   3   5  116.72    3.34
  -2   3   5    2.92    0.23
  -1   3   5    0.67    0.15
   0  -3  -5  244.37    6.36
   0   3   5  246.22    6.37
   0   3   5  226.55    6.45
   1   3   5   28.40    0.82
   1   3   5   29.63    0.92
   1   3   5   28.77    0.98
   2   3   5  131.09    3.71
   2   3   5  132.98    3.68
   3   3   5   77.18    2.29
   3   3   5   75.87    2.30
   4   3   5    4.11    0.27
   4   3   5    3.25    0.37
  -5  -3  -5    2.94    0.27
  -6  -3  -5   62.94    1.99
  -6  -3  -5   63.57    1.95
  -7  -3  -5    1.03    0.26
  -7  -3  -5    1.04    0.24
  -8  -3  -5    0.02    0.32
  -9  -3  -5    0.33    0.38
 -10  -3  -5    6.12    0.83
 -10   4   5   -0.28    0.97
  -9   4   5    0.22    0.69
  -8   4   5    4.02    0.74
  -7   4   5    0.93    0.37
  -6   4   5    8.83    0.59
  -5   4   5    8.16    0.49
  -4   4   5  104.57    3.10
  -3   4   5   35.45    1.24
  -2   4   5  169.90    4.72
  -1   4   5    3.24    0.25
   0   4   5  204.14    5.67
   0   4   5  212.93    5.59
   1   4   5   74.58    2.17
   1   4   5   77.09    2.23
   2   4   5  229.48    6.36
   2   4   5  237.82    6.35
   3   4   5   75.20    2.24
   3   4   5   73.63    2.24
   4   4   5    9.73    0.48
   4   4   5    9.46    0.53
   5   4   5    8.49    0.46
  -7  -4  -5    8.40    0.52
  -7  -4  -5    8.90    0.50
  -8  -4  -5   -0.42    0.33
  -8  -4  -5   -0.03    0.29
  -9  -4  -5    0.43    0.37
 -10  -4  -5    0.54    0.47
 -11  -4  -5    0.33    0.93
  -9   5   5    1.83    0.76
  -8   5   5    0.41    0.58
  -7   5   5    7.04    0.83
  -6   5   5   16.06    0.84
  -5   5   5    1.44    0.33
  -4   5   5    0.25    0.19
  -3   5   5   90.35    2.70
  -2   5   5  390.30   10.51
  -1   5   5  101.42    2.74
  -1   5   5   96.94    2.85
   0   5   5    0.44    0.16
   0   5   5    0.07    0.11
   1   5   5   64.36    1.90
   1   5   5   64.07    1.94
   2   5   5   87.21    2.54
   2   5   5   86.27    2.53
   3   5   5   23.51    0.92
   3   5   5   22.46    0.86
   4   5   5   14.77    0.65
   4   5   5   15.79    0.68
   5   5   5    4.78    0.36
   5   5   5    5.14    0.48
   6   5   5    7.56    0.49
   7   5   5    2.60    0.43
  -8  -5  -5    7.11    0.60
  -8  -5  -5    8.18    0.65
  -9  -5  -5   -0.25    0.35
  -9  -5  -5    0.70    0.40
 -10  -5  -5    0.45    0.46
 -11  -5  -5    0.28    0.75
  -9   6   5   -0.21    1.04
  -8   6   5    0.38    0.68
  -7   6   5   13.80    1.02
  -6   6   5   13.09    0.83
  -5   6   5   19.65    0.91
  -4   6   5    0.19    0.22
  -3   6   5    1.26    0.19
  -3   6   5    1.50    0.24
  -2   6   5   77.96    2.38
  -2   6   5   79.72    2.22
  -1   6   5    7.97    0.48
  -1   6   5    7.50    0.37
   0   6   5  158.28    4.41
   0   6   5  158.75    4.35
   1   6   5    4.15    0.32
   1   6   5    3.61    0.28
   2   6   5   42.84    1.35
   2   6   5   39.28    1.35
   3   6   5    0.74    0.21
   3   6   5    0.78    0.18
   4   6   5    5.06    0.36
   5   6   5    2.52    0.38
   5   6   5    1.96    0.30
   6   6   5    0.73    0.23
   7   6   5    0.82    0.29
   8   6   5   -0.57    0.39
  -9  -6  -5    0.70    0.42
  -9  -6  -5    1.59    0.44
 -10  -6  -5    0.48    0.48
 -10  -6  -5   -0.95    0.50
 -11  -6  -5    1.06    0.80
  -8   7   5    0.53    0.82
  -7   7   5    0.56    0.61
  -6   7   5    3.57    0.74
  -5   7   5    3.08    0.51
  -4   7   5   46.56    1.65
  -3   7   5    2.56    0.29
  -3   7   5    1.97    0.26
  -2   7   5   45.48    1.37
  -2   7   5   44.94    1.51
  -1   7   5   48.57    1.48
  -1   7   5   48.52    1.59
   0   7   5   74.98    2.28
   0   7   5   77.19    2.24
   1   7   5   35.06    1.20
   1   7   5   35.24    1.21
   2   7   5    8.27    0.48
   2   7   5    8.27    0.50
   3   7   5   41.91    1.40
   3   7   5   43.21    1.45
   4   7   5    1.87    0.28
   4   7   5    1.47    0.22
   5   7   5   17.23    0.78
   5   7   5   17.20    0.80
   6   7   5    0.52    0.25
   7   7   5    2.30    0.48
   8   7   5    0.23    0.45
   9   7   5    0.07    0.50
 -10  -7  -5    0.04    0.55
 -10  -7  -5   -0.17    0.54
 -11  -7  -5   -0.17    0.79
 -11  -7  -5   -0.09    0.95
  -7   8   5    0.34    0.77
  -6   8   5    0.19    0.55
  -5   8   5   19.62    1.12
  -4   8   5    5.53    0.52
  -3   8   5   33.24    1.26
  -3   8   5   32.76    1.11
  -2   8   5    0.06    0.20
  -2   8   5    0.34    0.21
  -1   8   5   74.46    2.31
  -1   8   5   76.96    2.26
   0   8   5    1.91    0.32
   0   8   5    1.76    0.39
   1   8   5   52.86    1.71
   1   8   5   55.38    1.74
   2   8   5    9.86    0.51
   2   8   5    8.70    0.51
   3   8   5    1.12    0.28
   3   8   5    0.81    0.21
   4   8   5   15.17    0.70
   4   8   5   15.55    0.73
   5   8   5    1.96    0.45
   5   8   5    1.69    0.26
   6   8   5    2.56    0.44
   7   8   5    0.13    0.33
   8   8   5    1.31    0.48
   9   8   5    0.45    0.56
  10   8   5   -0.75    0.65
  -7   9   5    2.51    0.98
  -6   9   5    1.25    0.65
  -5   9   5    1.25    0.51
  -4   9   5   -0.26    0.38
  -3   9   5    4.17    0.47
  -2   9   5   33.88    1.26
  -2   9   5   33.65    1.15
  -1   9   5    2.01    0.31
  -1   9   5    2.43    0.32
   0   9   5   40.51    1.39
   0   9   5   41.67    1.36
   1   9   5    8.62    0.47
   2   9   5   11.66    0.72
   2   9   5   11.99    0.58
   3   9   5    1.13    0.22
   4   9   5    0.65    0.24
   5   9   5   14.06    0.75
   5   9   5   13.97    0.80
   6   9   5    0.88    0.41
   6   9   5    0.02    0.30
   7   9   5    6.51    0.81
   8   9   5    0.10    0.46
   9   9   5    3.17    0.73
  10   9   5    4.44    0.87
  -6  10   5    6.28    1.20
  -5  10   5    0.30    0.67
  -4  10   5    1.73    0.56
  -3  10   5    3.01    0.51
  -2  10   5    2.31    0.45
  -2  10   5    1.85    0.42
  -1  10   5   10.25    0.55
  -1  10   5    9.03    0.58
   0  10   5    0.11    0.24
   0  10   5   -0.07    0.24
   1  10   5   27.07    1.08
   1  10   5   28.51    1.05
   2  10   5    0.43    0.23
   2  10   5    0.29    0.33
   3  10   5   14.22    0.70
   3  10   5   11.61    0.82
   4  10   5    0.90    0.46
   4  10   5    0.53    0.27
   5  10   5    0.89    0.34
   5  10   5    0.96    0.50
   6  10   5    4.27    0.66
   6  10   5    5.17    0.67
   7  10   5    0.44    0.45
   8  10   5    0.23    0.54
   9  10   5    0.15    0.63
  10  10   5    3.86    0.94
  -5  11   5   20.59    1.50
  -4  11   5    1.92    0.78
  -3  11   5    2.09    0.73
  -2  11   5    3.12    0.65
  -1  11   5    0.86    0.42
  -1  11   5    0.88    0.33
   0  11   5    8.88    0.66
   0  11   5   10.56    0.61
   1  11   5    0.11    0.29
   1  11   5   -0.11    0.32
   2  11   5    8.64    0.59
   2  11   5    8.38    0.62
   3  11   5    0.54    0.35
   3  11   5    0.97    0.31
   4  11   5   10.43    0.70
   4  11   5   11.53    0.79
   5  11   5    0.29    0.42
   5  11   5    0.96    0.44
   6  11   5    0.38    0.45
   7  11   5    0.35    0.49
   8  11   5    0.45    0.65
   9  11   5   -0.10    0.70
  -5  12   5    0.01    1.60
  -4  12   5    7.47    1.34
  -3  12   5    2.98    0.86
  -2  12   5   -0.07    0.70
  -1  12   5    4.55    0.75
  -1  12   5    5.36    0.91
   0  12   5    6.04    0.72
   0  12   5    6.76    0.80
   1  12   5    5.26    0.69
   1  12   5    4.47    0.62
   2  12   5    1.54    0.44
   2  12   5    0.78    0.39
   3  12   5    2.46    0.47
   3  12   5    2.78    0.50
   4  12   5    3.98    0.67
   5  12   5   11.41    0.90
   6  12   5    0.43    0.57
   7  12   5    1.81    0.68
   8  12   5    6.17    1.21
   9  12   5    0.49    0.87
  -4  13   5   -0.13    1.61
  -3  13   5    5.16    1.02
  -2  13   5    1.95    0.80
  -1  13   5   -0.58    0.67
   0  13   5    3.39    0.72
   1  13   5    7.38    0.90
   2  13   5   -0.36    0.49
   3  13   5   -0.30    0.48
   4  13   5    0.33    0.47
   5  13   5    0.89    0.53
   6  13   5    3.76    0.77
   7  13   5   -0.65    0.67
   8  13   5   -0.56    0.86
   1  14   5    7.53    1.07
   2  14   5   11.26    1.11
   3  14   5    0.10    0.61
   4  14   5    2.40    0.67
   5  14   5    1.97    0.68
   6  14   5    2.31    0.84
   7  14   5    0.80    1.02
   1  15   5    2.73    1.05
   2  15   5    6.60    1.33
   3  15   5    7.79    1.42
   4  15   5   -0.13    0.86
   5  15   5    0.69    1.25
  -8 -11   6    0.82    0.65
   7  11  -6    0.73    1.16
  -7 -11   6    0.00    0.51
   6  11  -6    0.30    0.85
  -6 -11   6   -0.29    0.48
   5  11  -6    0.81    0.84
   4  11  -6   -0.05    0.69
   3  11  -6    1.30    0.62
   2  11  -6    1.06    0.61
   1  11  -6    1.02    0.68
  -9 -10   6    0.64    0.62
  -8 -10   6   -0.43    0.48
   7  10  -6   -0.41    0.86
  -7 -10   6    0.05    0.44
   6  10  -6   -0.07    0.77
  -6 -10   6    0.60    0.40
   5  10  -6    1.74    0.76
  -5 -10   6    1.63    0.42
   4  10  -6   -0.70    0.58
   3  10  -6    2.10    0.55
   2  10  -6    1.48    0.48
   1  10  -6    1.56    0.48
   0  10  -6    0.07    0.42
  -1  10  -6    0.62    0.55
 -10  -9   6   -0.21    0.69
  -9  -9   6    0.06    0.54
  -8  -9   6   -0.19    0.42
   7   9  -6   -0.21    0.81
  -7  -9   6   -0.04    0.38
   6   9  -6    1.44    0.68
  -6  -9   6    1.80    0.37
   5   9  -6    1.41    0.65
  -5  -9   6    0.77    0.38
   4   9  -6    0.13    0.44
  -4  -9   6    0.16    0.33
   3   9  -6    0.22    0.37
   2   9  -6    1.16    0.37
   1   9  -6    1.80    0.39
   0   9  -6    0.72    0.38
  -1   9  -6    0.22    0.39
  -2   9  -6    0.76    0.49
  -3   9  -6    1.49    0.78
 -10  -8   6    0.09    0.58
  -9  -8   6    0.75    0.49
  -8  -8   6    0.39    0.38
   7   8  -6    0.44    0.72
  -7  -8   6    0.05    0.35
   6   8  -6    0.85    0.58
  -6  -8   6    0.87    0.32
   5   8  -6    2.55    0.57
  -5  -8   6    3.31    0.43
   4   8  -6    0.28    0.36
  -4  -8   6    0.00    0.23
   3   8  -6    0.22    0.29
  -3  -8   6    0.00    0.23
   2   8  -6    2.36    0.39
   1   8  -6    7.88    0.63
   0   8  -6    8.68    0.62
  -1   8  -6   -0.02    0.30
  -2   8  -6    0.80    0.39
  -3   8  -6   -0.44    0.39
  -4   8  -6   -0.07    0.56
  -5   8  -6   -0.63    1.77
 -11  -7   6    0.51    0.89
 -10  -7   6   -0.10    0.52
  -9  -7   6    0.76    0.43
  -8  -7   6    0.54    0.35
   7   7  -6    4.09    0.79
  -7  -7   6    2.16    0.37
   6   7  -6    0.73    0.43
  -6  -7   6    0.03    0.25
   5   7  -6    0.43    0.35
  -5  -7   6    0.08    0.21
   4   7  -6    9.46    0.63
  -4  -7   6    9.07    0.52
  -3  -7   6    0.80    0.21
   2   7  -6    0.90    0.22
  -2  -7   6    1.09    0.20
   1   7  -6    8.97    0.50
   0   7  -6    0.45    0.23
  -1   7  -6    1.55    0.38
  -2   7  -6    5.56    0.56
  -3   7  -6    0.27    0.53
  -4   7  -6   -0.23    0.43
  -4   7  -6    0.33    0.76
  -5   7  -6   -0.33    0.54
  -5   7  -6    0.06    0.96
  -6   7  -6    5.81    1.34
 -11  -6   6   -0.93    0.64
 -10  -6   6   -0.68    0.49
  -9  -6   6    0.23    0.39
  -8  -6   6    5.25    0.74
   7   6  -6    2.08    0.44
  -7  -6   6    1.12    0.30
   6   6  -6    7.47    0.67
  -6  -6   6    6.35    0.48
   5   6  -6    2.78    0.47
  -5  -6   6    2.04    0.32
   4   6  -6   27.08    1.04
  -4  -6   6   27.23    1.00
   3   6  -6    0.97    0.21
  -3  -6   6    1.05    0.17
   2   6  -6   40.42    1.34
  -2  -6   6   41.47    1.36
   1   6  -6   13.05    0.59
   0   6  -6    7.57    0.44
  -1   6  -6    5.36    0.42
  -2   6  -6   26.63    1.07
  -3   6  -6    0.69    0.33
  -5   6  -6   -0.70    0.41
  -5   6  -6   -0.51    0.86
  -6   6  -6    0.44    0.57
  -6   6  -6    1.03    1.10
  -7   6  -6    1.17    1.31
 -11  -5   6   -0.91    0.61
 -10  -5   6    0.94    0.48
  -9  -5   6   -0.08    0.35
  -8  -5   6    7.77    0.62
   7   5  -6    5.28    0.61
  -7  -5   6    6.59    0.50
   6   5  -6   75.69    2.37
  -6  -5   6   75.35    2.36
   5   5  -6   19.43    0.84
  -5  -5   6   17.60    0.75
   4   5  -6    1.16    0.23
  -4  -5   6    1.19    0.18
   3   5  -6   15.28    0.64
  -3  -5   6   15.42    0.62
   2   5  -6   27.07    0.95
  -2  -5   6   28.06    0.96
   1   5  -6    0.36    0.14
  -1  -5   6    0.17    0.13
   0   5  -6   33.40    1.13
  -1   5  -6    0.41    0.16
  -2   5  -6   16.54    0.72
  -3   5  -6    6.99    0.52
  -4   5  -6   19.17    0.91
  -5   5  -6   -0.05    0.36
  -6   5  -6    0.43    0.44
  -7   5  -6   -0.49    0.96
  -8   5  -6    0.43    1.83
 -11  -4   6    0.33    0.61
 -10  -4   6    2.35    0.48
  -9  -4   6    1.26    0.40
  -8  -4   6    0.90    0.29
  -7  -4   6    0.80    0.24
   6   4  -6   94.02    2.77
  -6  -4   6   89.90    2.77
   5   4  -6    0.72    0.36
  -5  -4   6    0.42    0.15
   4   4  -6  142.33    3.98
  -4  -4   6  139.15    3.98
   3   4  -6    7.58    0.43
  -3  -4   6    7.33    0.38
   2   4  -6   12.61    0.52
  -2  -4   6   12.18    0.52
  -1  -4   6    0.96    0.18
   0   4  -6    0.64    0.13
   0  -4   6    0.37    0.14
  -1   4  -6   19.01    0.72
  -2   4  -6    3.91    0.31
  -3   4  -6    6.00    0.40
  -4   4  -6   -0.31    0.22
  -5   4  -6    9.48    0.66
  -6   4  -6    0.07    0.39
  -7   4  -6   -0.63    0.48
  -8   4  -6   -1.05    0.98
 -11  -3   6    0.05    0.60
 -10  -3   6    0.50    0.44
  -9  -3   6   -0.31    0.36
  -8  -3   6   22.83    1.00
  -7  -3   6    0.32    0.21
   6   3  -6    9.04    0.59
  -6  -3   6   10.20    0.51
  -6  -3   6    9.80    0.47
   5   3  -6   57.21    1.74
  -5  -3   6   55.35    1.65
  -5  -3   6   55.93    1.77
   4   3  -6  223.26    6.09
  -4  -3   6  222.89    6.16
  -4  -3   6  226.55    6.03
   3   3  -6   79.63    2.33
  -3  -3   6   84.45    2.42
  -3  -3   6   82.52    2.31
   2   3  -6    0.44    0.14
  -2  -3   6    0.27    0.18
  -2  -3   6    0.08    0.15
   1   3  -6   11.96    0.54
  -1  -3   6   12.35    0.51
  -1  -3   6   13.38    0.56
   0   3  -6    0.67    0.15
   0  -3   6    0.44    0.14
  -1   3  -6   15.38    0.60
  -2   3  -6    2.30    0.22
  -3   3  -6   17.93    0.72
  -4   3  -6    0.21    0.21
  -5   3  -6   -0.15    0.30
  -6   3  -6    2.43    0.42
  -7   3  -6   -0.59    0.44
  -8   3  -6   -0.49    0.56
  -9   3  -6   -0.89    1.31
 -11  -2   6    0.86    0.64
 -10  -2   6   -0.25    0.47
  -9  -2   6   10.67    0.80
  -8  -2   6   17.15    0.84
  -8  -2   6   15.65    0.75
  -7  -2   6   25.02    1.01
  -7  -2   6   25.04    0.98
  -6  -2   6    1.26    0.19
  -5  -2   6    3.93    0.29
  -5  -2   6    3.99    0.30
   4   2  -6    1.83    0.26
  -4  -2   6    2.71    0.22
  -4  -2   6    2.34    0.24
   3   2  -6   28.32    0.91
  -3  -2   6   29.68    0.95
  -3  -2   6   28.83    1.03
   2   2  -6  104.21    2.85
  -2  -2   6  103.13    2.90
  -2  -2   6  104.49    2.95
   1   2  -6    7.87    0.35
  -1  -2   6    7.51    0.37
  -1  -2   6    6.86    0.38
   0   2  -6   49.56    1.46
   0  -2   6   49.17    1.46
   0  -2   6   47.48    1.51
  -1   2  -6    0.35    0.11
  -2   2  -6   12.18    0.50
  -3   2  -6    5.84    0.33
  -4   2  -6   24.69    0.93
  -5   2  -6    2.57    0.37
  -6   2  -6   -0.20    0.34
  -7   2  -6    1.11    0.45
 -11  -1   6    0.92    0.69
 -10  -1   6    0.73    0.51
  -9  -1   6    0.05    0.37
  -9  -1   6    0.61    0.44
  -8  -1   6    0.86    0.29
  -7  -1   6    3.77    0.38
  -7  -1   6    3.74    0.42
  -6  -1   6   58.89    1.88
  -6  -1   6   57.04    1.86
  -5  -1   6    0.66    0.22
  -4  -1   6   48.23    1.52
  -4  -1   6   47.07    1.46
  -3  -1   6    4.49    0.34
  -3  -1   6    5.20    0.32
   2   1  -6   49.96    1.40
  -2  -1   6   48.36    1.50
  -2  -1   6   50.54    1.51
   1   1  -6   80.40    2.23
  -1  -1   6   81.20    2.33
  -1  -1   6   80.66    2.29
   0   1  -6    0.36    0.10
   0  -1   6    0.25    0.09
  -1   1  -6   87.95    2.54
   1  -1   6   91.67    2.51
   1  -1   6   90.17    2.64
  -3   1  -6   32.90    1.09
  -4   1  -6    3.62    0.26
  -5   1  -6   20.43    0.83
  -6   1  -6    1.82    0.34
  -7   1  -6    1.81    0.41
  -8   1  -6   -0.35    0.46
  -9   1  -6   -0.90    0.60
 -11   0   6    0.60    0.80
 -10   0   6    0.49    0.53
 -10   0   6   -0.09    0.60
  -9   0   6    1.83    0.43
  -9   0   6    1.40    0.48
  -8   0   6    0.63    0.30
  -8   0   6    0.27    0.32
  -7   0   6   23.74    0.93
  -7   0   6   22.81    0.95
  -6   0   6    1.06    0.23
  -6   0   6    0.67    0.18
  -5   0   6   14.10    0.68
  -5   0   6   12.58    0.57
  -4   0   6    5.41    0.38
  -4   0   6    6.84    0.37
  -3   0   6  198.87    5.42
  -3   0   6  195.87    5.38
  -2   0   6    1.03    0.17
   1   0  -6   51.40    1.41
  -1   0   6   49.45    1.48
  -1   0   6   50.30    1.53
   0   0  -6   13.78    0.47
   0   0   6   13.17    0.56
   0   0   6   13.19    0.48
  -1   0  -6   50.42    1.50
   1   0   6   50.85    1.61
   1   0   6   52.41    1.47
  -2   0  -6    6.41    0.38
   2   0   6    4.73    0.37
  -3   0  -6    1.94    0.19
  -5   0  -6    1.31    0.27
  -6   0  -6    0.45    0.24
  -7   0  -6    1.72    0.41
  -8   0  -6    0.49    0.44
  -9   0  -6   -0.32    0.50
 -11   1   6    0.32    0.89
 -10   1   6    1.82    0.68
 -10   1   6    2.40    0.57
  -9   1   6    5.75    0.82
  -9   1   6    8.24    0.74
  -8   1   6    2.58    0.39
  -7   1   6    6.37    0.48
  -6   1   6   10.85    0.56
  -5   1   6    1.21    0.26
  -4   1   6   27.35    0.98
  -3   1   6    6.56    0.35
  -3   1   6    5.64    0.36
  -2   1   6  172.86    4.68
  -2   1   6  168.93    4.69
   1  -1  -6   37.20    1.06
  -1   1   6   39.46    1.23
  -1   1   6   37.07    1.15
   0  -1  -6   77.21    2.11
   0   1   6   77.22    2.25
   0   1   6   75.45    2.13
  -1  -1  -6    4.51    0.25
   1   1   6    4.83    0.22
   1   1   6    4.46    0.32
  -2  -1  -6   24.24    0.83
   2   1   6   24.90    0.93
  -3  -1  -6   13.95    0.54
   3   1   6   13.68    0.68
  -4  -1  -6    0.57    0.13
  -5  -1  -6   18.45    0.74
  -6  -1  -6    3.24    0.37
  -7  -1  -6   35.31    1.37
  -8  -1  -6   26.12    1.20
  -9  -1  -6   -0.15    0.51
 -10  -1  -6    0.09    1.01
 -10   2   6    5.61    1.03
  -9   2   6    0.51    0.52
  -8   2   6    7.35    0.69
  -7   2   6    1.92    0.41
  -6   2   6   18.58    0.82
  -5   2   6    1.55    0.29
  -4   2   6    1.14    0.30
  -3   2   6   67.45    2.03
  -2   2   6    4.60    0.30
  -1   2   6    5.69    0.34
  -1   2   6    5.45    0.28
   0  -2  -6    0.48    0.09
   0   2   6    0.39    0.09
   0   2   6    0.53    0.16
  -1  -2  -6   76.54    2.13
   1   2   6   76.54    2.07
   1   2   6   74.62    2.24
  -2  -2  -6    1.67    0.18
   2   2   6    1.62    0.24
  -3  -2  -6   13.04    0.55
   3   2   6   13.25    0.64
  -4  -2  -6   27.89    0.96
  -5  -2  -6    1.59    0.23
  -6  -2  -6    0.53    0.20
  -7  -2  -6    2.38    0.40
  -8  -2  -6    7.13    0.65
  -9  -2  -6    5.47    0.78
 -10  -2  -6   11.38    1.19
 -10   3   6   -0.67    0.77
  -9   3   6    5.94    0.88
  -8   3   6    0.82    0.47
  -7   3   6   23.47    1.05
  -6   3   6    3.27    0.39
  -5   3   6   11.40    0.59
  -4   3   6   -0.13    0.16
  -3   3   6    1.83    0.30
  -2   3   6   26.49    0.94
  -1   3   6    1.18    0.21
   0  -3  -6    8.50    0.33
   0  -3  -6    8.23    0.31
   0   3   6    8.45    0.45
  -1  -3  -6  129.50    3.51
   1   3   6  128.49    3.63
   1   3   6  127.32    3.43
  -2  -3  -6   35.82    1.11
  -2  -3  -6   34.51    1.08
   2   3   6   34.95    1.20
   3   3   6    1.29    0.27
  -4  -3  -6    0.27    0.13
  -4  -3  -6    0.37    0.14
   4   3   6    0.98    0.36
  -5  -3  -6    3.78    0.29
  -5  -3  -6    3.73    0.29
  -6  -3  -6   17.95    0.76
  -6  -3  -6   17.81    0.74
  -7  -3  -6    0.71    0.25
  -8  -3  -6   -0.36    0.32
  -9  -3  -6    4.78    0.72
 -10  -3  -6   19.71    1.22
  -9   4   6    0.44    0.65
  -8   4   6    1.21    0.53
  -7   4   6   -0.10    0.37
  -6   4   6   15.58    0.79
  -5   4   6   15.98    0.74
  -4   4   6    1.72    0.25
  -3   4   6   53.46    1.71
  -2   4   6   71.87    2.17
  -1   4   6   22.95    0.85
   0   4   6   12.35    0.56
   0   4   6   11.80    0.45
   1   4   6   49.59    1.58
   1   4   6   49.56    1.49
   2   4   6  107.98    3.15
   2   4   6  109.90    3.11
   3   4   6   75.47    2.28
   3   4   6   72.21    2.25
   4   4   6   10.78    0.64
   4   4   6   10.29    0.52
  -5  -4  -6   51.71    1.64
  -5  -4  -6   53.20    1.67
  -6  -4  -6   53.11    1.69
  -6  -4  -6   52.49    1.74
  -7  -4  -6    0.75    0.27
  -7  -4  -6    0.80    0.24
  -8  -4  -6   -0.03    0.37
  -9  -4  -6    0.38    0.44
 -10  -4  -6    0.54    0.51
  -9   5   6    0.71    0.76
  -8   5   6    0.83    0.63
  -7   5   6    5.76    0.80
  -6   5   6    0.89    0.34
  -5   5   6   17.82    0.82
  -4   5   6    4.94    0.37
  -3   5   6    1.16    0.22
  -2   5   6   53.21    1.70
  -1   5   6  147.71    4.16
   0   5   6   33.36    1.09
   0   5   6   26.69    0.94
   1   5   6    1.49    0.22
   2   5   6   69.26    2.05
   2   5   6   67.05    2.09
   3   5   6    0.95    0.26
   3   5   6    1.17    0.23
   4   5   6   76.24    2.36
   4   5   6   75.79    2.38
   5   5   6    2.73    0.31
   5   5   6    2.27    0.36
   6   5   6    4.02    0.41
  -7  -5  -6    3.53    0.44
  -7  -5  -6    3.15    0.43
  -8  -5  -6   28.13    1.20
  -8  -5  -6   27.10    1.22
  -9  -5  -6    0.47    0.44
  -9  -5  -6    0.66    0.46
 -10  -5  -6   -0.31    0.51
  -9   6   6    1.62    1.72
  -8   6   6    0.37    0.69
  -7   6   6    0.80    0.49
  -6   6   6    4.86    0.65
  -5   6   6    3.73    0.45
  -4   6   6    6.06    0.45
  -3   6   6    2.02    0.26
  -2   6   6   42.51    1.42
  -1   6   6   20.16    0.82
  -1   6   6   20.66    0.70
   0   6   6  182.47    5.07
   0   6   6  189.05    5.18
   1   6   6    6.57    0.38
   1   6   6    6.62    0.48
   2   6   6   59.35    1.79
   2   6   6   51.56    1.75
   3   6   6   19.37    0.82
   3   6   6   19.97    0.81
   4   6   6   78.50    2.44
   4   6   6   78.65    2.43
   5   6   6   19.16    0.87
   5   6   6   19.18    0.84
   6   6   6   -0.25    0.24
   7   6   6    4.74    0.55
  -8  -6  -6    4.52    0.64
  -8  -6  -6    4.38    0.62
  -9  -6  -6    1.14    0.49
  -9  -6  -6    1.38    0.46
 -10  -6  -6    0.60    0.56
 -10  -6  -6    1.16    0.54
  -8   7   6   -0.54    0.79
  -7   7   6    1.65    0.67
  -6   7   6   -0.23    0.46
  -5   7   6    5.99    0.56
  -4   7   6   21.10    0.94
  -3   7   6    0.77    0.21
  -2   7   6    3.48    0.28
  -2   7   6    2.52    0.29
  -1   7   6   86.35    2.45
  -1   7   6   85.40    2.58
   0   7   6  236.13    6.49
   0   7   6  241.27    6.59
   1   7   6   88.32    2.62
   1   7   6   87.56    2.66
   2   7   6   13.26    0.66
   2   7   6   14.36    0.69
   3   7   6   14.13    0.64
   3   7   6   13.57    0.69
   4   7   6   44.64    1.53
   4   7   6   44.07    1.56
   5   7   6    6.89    0.52
   5   7   6    6.99    0.48
   6   7   6    9.84    0.62
   7   7   6    1.78    0.36
   8   7   6    1.44    0.49
  -9  -7  -6   -0.36    0.48
  -9  -7  -6    0.06    0.48
 -10  -7  -6    2.92    0.63
 -10  -7  -6    2.82    0.63
  -7   8   6    1.02    0.74
  -6   8   6   -0.53    0.55
  -5   8   6   14.72    1.02
  -4   8   6    3.98    0.47
  -3   8   6   24.47    1.03
  -2   8   6    6.51    0.45
  -2   8   6    8.08    0.57
  -1   8   6    0.41    0.32
   0   8   6   45.69    1.54
   0   8   6   46.43    1.55
   1   8   6   24.20    0.93
   1   8   6   23.90    1.00
   2   8   6  132.31    3.57
   2   8   6  110.52    3.53
   3   8   6   15.48    0.83
   3   8   6   16.23    0.72
   4   8   6   13.90    0.70
   4   8   6   14.31    0.83
   5   8   6    0.20    0.25
   5   8   6    0.58    0.26
   6   8   6    1.29    0.35
   6   8   6    1.32    0.29
   7   8   6    0.18    0.36
   8   8   6    0.51    0.45
   9   8   6   -0.66    0.57
 -10  -8  -6   -0.01    0.61
 -10  -8  -6    1.13    0.65
  -7   9   6    0.01    0.90
  -6   9   6   -0.59    0.69
  -5   9   6    0.09    0.51
  -4   9   6    3.81    0.68
  -3   9   6   14.07    0.74
  -2   9   6   34.98    1.30
  -1   9   6    6.82    0.46
  -1   9   6    5.22    0.43
   0   9   6   15.86    0.67
   0   9   6   16.47    0.75
   1   9   6   15.95    0.75
   1   9   6   16.10    0.68
   2   9   6   57.38    1.84
   2   9   6   56.00    1.86
   3   9   6    8.48    0.51
   3   9   6    7.57    0.59
   4   9   6    1.07    0.27
   5   9   6    7.53    0.61
   5   9   6    8.19    0.59
   6   9   6    1.06    0.34
   6   9   6    1.28    0.41
   7   9   6    3.52    0.59
   8   9   6   -0.18    0.48
   9   9   6    0.12    0.62
  10   9   6    0.01    0.78
  -6  10   6   -0.27    0.83
  -5  10   6    0.68    0.65
  -4  10   6    0.36    0.51
  -3  10   6   13.40    0.87
  -2  10   6    0.56    0.32
  -1  10   6   14.70    0.68
  -1  10   6   12.55    0.69
   0  10   6    6.19    0.47
   0  10   6    5.77    0.50
   1  10   6   20.87    0.94
   1  10   6   21.97    0.88
   2  10   6   13.02    0.66
   2  10   6   12.20    0.70
   3  10   6   21.08    0.91
   3  10   6   19.93    0.93
   4  10   6    8.27    0.58
   4  10   6    8.82    0.60
   5  10   6    3.61    0.49
   5  10   6    2.73    0.39
   6  10   6    3.63    0.74
   6  10   6    3.22    0.58
   7  10   6    2.40    0.53
   8  10   6    0.66    0.60
   9  10   6   -0.06    0.74
  10  10   6   -0.82    0.97
  -5  11   6    3.24    0.84
  -4  11   6    0.81    0.59
  -3  11   6    2.87    0.65
  -2  11   6   -0.42    0.43
  -1  11   6    8.93    0.71
   0  11   6   19.36    0.97
   0  11   6   20.67    0.91
   1  11   6    9.01    0.61
   1  11   6    9.41    0.68
   2  11   6   11.57    0.72
   2  11   6   11.43    0.68
   3  11   6    9.88    0.69
   3  11   6   11.03    0.68
   4  11   6    0.57    0.34
   4  11   6    0.46    0.33
   5  11   6    1.71    0.48
   5  11   6    2.45    0.46
   6  11   6    0.26    0.36
   7  11   6    2.32    0.56
   8  11   6   -0.10    0.60
   9  11   6    1.46    0.80
  -4  12   6    4.04    0.97
  -3  12   6    0.51    0.80
  -2  12   6    2.86    0.78
  -1  12   6    0.26    0.53
   0  12   6   -0.04    0.46
   0  12   6   -0.32    0.45
   1  12   6    2.77    0.47
   1  12   6    3.41    0.61
   2  12   6    2.48    0.49
   2  12   6    3.95    0.65
   3  12   6    8.22    0.77
   3  12   6    7.43    0.63
   4  12   6    2.72    0.48
   5  12   6    2.90    0.53
   6  12   6   -0.40    0.49
   7  12   6   -0.17    0.60
   8  12   6    2.17    0.74
   9  12   6    0.33    1.03
  -3  13   6    9.10    1.32
  -2  13   6    4.67    1.09
  -1  13   6    0.93    0.76
   0  13   6   -0.05    0.59
   1  13   6    2.04    0.59
   1  13   6    1.12    0.54
   2  13   6    4.14    0.63
   2  13   6    3.66    0.71
   3  13   6    2.19    0.55
   4  13   6    2.57    0.56
   5  13   6    1.26    0.60
   6  13   6    1.70    0.66
   7  13   6    1.05    0.71
   8  13   6    0.35    0.91
   1  14   6   -0.47    0.78
   2  14   6    5.93    1.06
   3  14   6    1.12    0.63
   4  14   6    2.32    0.66
   5  14   6    0.73    0.70
   6  14   6    0.10    0.75
   7  14   6    1.45    1.06
   2  15   6    1.35    0.82
   3  15   6    2.87    0.83
   4  15   6    0.05    0.88
   5  15   6    1.04    1.31
  -7 -11   7   -0.62    0.69
   5  11  -7    4.05    1.25
   4  11  -7    1.62    1.08
   3  11  -7    1.11    1.05
  -8 -10   7    0.25    0.61
  -7 -10   7   -0.69    0.53
   6  10  -7   -0.63    0.80
  -6 -10   7   -0.14    0.50
   5  10  -7    1.49    0.84
   4  10  -7    5.61    0.94
   3  10  -7    6.05    1.03
   2  10  -7    0.87    0.53
   1  10  -7    1.68    0.57
   0  10  -7    0.84    0.62
  -9  -9   7    0.93    0.66
  -8  -9   7    2.64    0.56
  -7  -9   7   -0.41    0.43
   6   9  -7    0.95    0.76
  -6  -9   7    0.64    0.41
   5   9  -7    0.34    0.71
   4   9  -7    3.09    0.72
  -4  -9   7    2.55    0.46
   3   9  -7    1.39    0.53
   2   9  -7    2.92    0.57
   1   9  -7   -0.10    0.39
   0   9  -7    0.96    0.44
  -1   9  -7    2.84    0.53
  -2   9  -7   -0.19    0.64
 -10  -8   7   -0.01    0.90
  -9  -8   7   -0.68    0.53
  -8  -8   7    1.24    0.51
  -7  -8   7    0.54    0.44
   6   8  -7    0.05    0.67
  -6  -8   7    0.43    0.35
   5   8  -7    0.09    0.68
  -5  -8   7   -0.05    0.34
   4   8  -7    0.34    0.58
  -4  -8   7    0.19    0.31
   3   8  -7    6.43    0.82
  -3  -8   7    6.57    0.57
   2   8  -7    2.28    0.42
   1   8  -7    3.71    0.55
   0   8  -7    0.69    0.34
  -1   8  -7    1.45    0.43
  -2   8  -7    0.65    0.42
  -3   8  -7    0.77    0.54
 -10  -7   7   -0.35    0.62
  -9  -7   7    0.74    0.47
  -8  -7   7   -0.27    0.39
  -7  -7   7    0.28    0.35
   6   7  -7    0.33    0.47
  -6  -7   7   -0.02    0.32
   5   7  -7    0.65    0.44
  -5  -7   7    1.00    0.27
   4   7  -7    6.06    0.67
  -4  -7   7    6.16    0.48
   3   7  -7    0.31    0.30
  -3  -7   7    0.34    0.22
   2   7  -7    0.33    0.23
  -2  -7   7    0.66    0.23
   1   7  -7    1.01    0.28
   0   7  -7    0.96    0.30
  -1   7  -7    2.07    0.38
  -2   7  -7    1.26    0.40
  -3   7  -7   -0.39    0.39
  -4   7  -7   -0.23    0.81
  -4   7  -7   -0.42    0.51
  -5   7  -7    4.97    1.13
  -6   7  -7    9.65    1.99
 -10  -6   7    0.70    0.53
  -9  -6   7    0.16    0.45
  -8  -6   7    1.86    0.41
  -7  -6   7    1.20    0.38
   6   6  -7    2.13    0.43
  -6  -6   7    2.47    0.42
   5   6  -7    0.17    0.34
  -5  -6   7    0.04    0.22
   4   6  -7   -0.06    0.26
  -4  -6   7   -0.09    0.19
   3   6  -7    9.40    0.56
  -3  -6   7    8.86    0.48
   2   6  -7    1.32    0.23
  -2  -6   7    0.89    0.19
   1   6  -7    1.02    0.21
   0   6  -7    1.90    0.31
  -1   6  -7    8.59    0.61
  -2   6  -7    5.74    0.55
  -3   6  -7   -0.14    0.35
  -4   6  -7    0.57    0.43
  -6   6  -7   -0.04    1.21
 -11  -5   7   -0.02    1.05
 -10  -5   7    0.01    0.51
  -9  -5   7    0.21    0.40
  -8  -5   7    0.74    0.37
  -7  -5   7    0.39    0.29
   6   5  -7    4.80    0.56
  -6  -5   7    4.33    0.43
   5   5  -7    7.14    0.59
  -5  -5   7    7.37    0.47
   4   5  -7    0.26    0.22
  -4  -5   7    0.27    0.17
   3   5  -7    0.81    0.20
  -3  -5   7    0.36    0.15
   2   5  -7    4.65    0.33
  -2  -5   7    3.90    0.31
   1   5  -7    0.25    0.15
  -1  -5   7   -0.05    0.15
   0   5  -7    2.25    0.29
  -1   5  -7    6.47    0.43
  -2   5  -7    0.41    0.22
  -3   5  -7    4.19    0.53
  -4   5  -7    7.62    0.68
  -5   5  -7   -0.10    0.42
  -6   5  -7    0.15    0.55
  -7   5  -7   -0.40    1.12
 -11  -4   7   -0.60    0.81
 -10  -4   7   -0.18    0.50
  -9  -4   7    0.42    0.42
  -8  -4   7   -0.39    0.38
  -7  -4   7    1.18    0.26
   6   4  -7    2.18    0.37
  -6  -4   7    2.30    0.36
   5   4  -7    0.08    0.26
  -5  -4   7   -0.31    0.17
   4   4  -7    5.39    0.40
  -4  -4   7    5.05    0.35
   3   4  -7    0.68    0.18
  -3  -4   7    0.64    0.15
   2   4  -7   37.79    1.22
  -2  -4   7   38.59    1.25
  -1  -4   7    1.67    0.22
   0   4  -7   38.11    1.27
   0  -4   7   40.20    1.28
  -1   4  -7   15.79    0.66
  -2   4  -7    1.32    0.28
  -3   4  -7   11.79    0.61
  -4   4  -7   10.51    0.68
  -5   4  -7    0.10    0.37
  -6   4  -7    0.04    0.47
  -7   4  -7   -0.95    0.65
  -8   4  -7    0.62    1.28
 -11  -3   7    0.50    0.80
 -10  -3   7   -0.13    0.51
  -9  -3   7   -0.53    0.39
  -8  -3   7    1.52    0.39
  -7  -3   7    1.24    0.28
  -6  -3   7    7.13    0.47
   5   3  -7    6.25    0.50
  -5  -3   7    6.40    0.39
  -5  -3   7    6.33    0.43
   4   3  -7   83.62    2.39
  -4  -3   7   78.23    2.43
  -4  -3   7   82.44    2.34
   3   3  -7   22.72    0.82
  -3  -3   7   22.53    0.79
  -3  -3   7   23.21    0.84
   2   3  -7   13.84    0.60
  -2  -3   7   13.30    0.55
  -2  -3   7   13.69    0.58
   1   3  -7   24.80    0.81
  -1  -3   7   21.14    0.81
  -1  -3   7   23.16    0.85
   0   3  -7   58.14    1.79
   0  -3   7   62.39    1.85
  -1   3  -7    1.45    0.22
  -2   3  -7   34.50    1.17
  -3   3  -7    4.16    0.35
  -4   3  -7   10.72    0.62
  -5   3  -7    0.39    0.35
  -6   3  -7   12.78    0.88
  -7   3  -7   -0.23    0.50
 -11  -2   7    0.41    0.81
 -10  -2   7    0.73    0.53
  -9  -2   7    0.60    0.42
  -8  -2   7    0.07    0.34
  -7  -2   7    3.25    0.41
  -7  -2   7    2.38    0.44
  -6  -2   7    1.80    0.41
  -6  -2   7    0.95    0.21
  -5  -2   7    0.47    0.21
  -5  -2   7   -0.02    0.15
   4   2  -7  149.39    4.01
  -4  -2   7  141.38    4.12
  -4  -2   7  146.48    4.06
   3   2  -7    1.16    0.21
  -3  -2   7    0.98    0.21
  -3  -2   7    1.50    0.19
   2   2  -7  244.70    6.58
  -2  -2   7  244.52    6.69
  -2  -2   7  248.97    6.66
   1   2  -7   36.67    1.15
  -1  -2   7   38.04    1.20
  -1  -2   7   35.87    1.22
   0   2  -7    6.76    0.37
   0  -2   7    6.55    0.36
   0  -2   7    5.62    0.40
  -1   2  -7    2.07    0.22
  -2   2  -7    2.06    0.23
  -3   2  -7    7.32    0.40
  -4   2  -7    4.58    0.38
  -5   2  -7    0.99    0.34
  -6   2  -7   -0.23    0.31
  -7   2  -7    3.42    0.58
  -8   2  -7    0.78    0.57
 -11  -1   7   -0.76    1.06
 -10  -1   7    1.27    0.56
  -9  -1   7    2.00    0.46
  -8  -1   7   -0.17    0.32
  -8  -1   7   -0.27    0.36
  -7  -1   7    1.66    0.39
  -7  -1   7    1.42    0.28
  -6  -1   7   43.61    1.53
  -6  -1   7   45.73    1.49
  -5  -1   7    1.60    0.21
  -4  -1   7   16.80    0.66
  -4  -1   7   15.41    0.64
  -3  -1   7   87.24    2.66
  -3  -1   7   95.84    2.66
   2   1  -7  326.65    8.91
  -2  -1   7  340.61    9.03
  -2  -1   7  342.85    9.05
   1   1  -7  102.66    2.88
  -1  -1   7  105.60    2.95
  -1  -1   7  106.07    3.00
   0   1  -7   36.44    1.08
   0  -1   7   35.20    1.08
   0  -1   7   30.38    1.14
  -1   1  -7    4.07    0.30
   1  -1   7    3.76    0.25
  -2   1  -7    5.25    0.30
  -3   1  -7    8.39    0.42
  -4   1  -7    0.20    0.17
  -5   1  -7   11.71    0.62
  -6   1  -7   -0.38    0.34
  -7   1  -7   -0.27    0.41
  -8   1  -7   -0.25    0.50
 -10   0   7    0.64    0.56
  -9   0   7    2.68    0.66
  -9   0   7    2.84    0.51
  -8   0   7    2.76    0.52
  -8   0   7    3.33    0.66
  -7   0   7   17.23    0.84
  -7   0   7   17.11    0.78
  -6   0   7    9.71    0.53
  -6   0   7   10.22    0.55
  -5   0   7   58.38    1.83
  -5   0   7   54.61    1.80
  -4   0   7   34.12    1.16
  -4   0   7   33.26    1.15
  -3   0   7    4.94    0.43
  -3   0   7    5.43    0.36
  -2   0   7    2.44    0.22
  -2   0   7    3.01    0.31
   1   0  -7  105.35    2.85
  -1   0   7  103.57    2.92
  -1   0   7  104.55    3.00
   0   0  -7  156.93    4.24
   0   0   7  157.87    4.26
   0   0   7  155.10    4.38
  -1   0  -7   62.84    1.82
   1   0   7   60.73    1.77
   1   0   7   62.13    1.94
  -2   0  -7   42.37    1.33
  -3   0  -7    7.62    0.39
  -4   0  -7    6.72    0.39
  -5   0  -7   -0.05    0.20
  -6   0  -7    9.14    0.65
  -7   0  -7   -0.23    0.34
  -8   0  -7   -0.57    0.47
  -9   0  -7    0.39    0.68
 -10   1   7    4.37    1.03
 -10   1   7    4.07    0.71
  -9   1   7    1.33    0.51
  -9   1   7    0.39    0.57
  -8   1   7    3.49    0.53
  -8   1   7    2.64    0.47
  -7   1   7    1.24    0.31
  -7   1   7    0.61    0.25
  -6   1   7    1.53    0.33
  -5   1   7   35.86    1.22
  -5   1   7   32.20    1.18
  -4   1   7  110.22    3.19
  -4   1   7  108.83    3.18
  -3   1   7   45.27    1.47
  -3   1   7   45.05    1.45
  -2   1   7   45.61    1.47
  -2   1   7   46.89    1.43
   1  -1  -7    0.76    0.14
  -1   1   7    0.50    0.12
   0  -1  -7   45.92    1.32
   0   1   7   45.58    1.34
   0   1   7   45.14    1.47
  -1  -1  -7   19.65    0.68
   1   1   7   19.71    0.64
   1   1   7   19.00    0.78
  -2  -1  -7    8.07    0.46
   2   1   7    7.53    0.49
  -3  -1  -7   22.84    0.84
   3   1   7   24.23    0.98
  -4  -1  -7    1.21    0.23
  -5  -1  -7   10.51    0.54
  -6  -1  -7   -0.04    0.24
  -7  -1  -7    7.75    0.67
  -8  -1  -7    1.51    0.47
  -9  -1  -7    0.16    0.55
 -10   2   7    5.07    0.86
 -10   2   7    5.58    1.06
  -9   2   7    0.48    0.59
  -8   2   7    0.54    0.47
  -7   2   7    1.11    0.34
  -6   2   7    1.99    0.35
  -5   2   7   44.08    1.49
  -4   2   7    4.87    0.37
  -3   2   7   12.32    0.63
  -2   2   7   10.68    0.52
  -2   2   7   10.19    0.46
  -1   2   7  163.03    4.48
  -1   2   7  165.09    4.59
   0  -2  -7   22.27    0.69
   0   2   7   21.41    0.84
   0   2   7   21.38    0.71
  -1  -2  -7   27.02    0.86
   1   2   7   26.58    0.81
   1   2   7   26.57    0.99
  -2  -2  -7    0.83    0.19
   2   2   7    0.36    0.22
  -3  -2  -7   36.59    1.16
   3   2   7   34.10    1.29
  -4  -2  -7    1.43    0.21
  -5  -2  -7    9.55    0.49
  -6  -2  -7    3.73    0.39
  -7  -2  -7    0.58    0.41
  -8  -2  -7    0.35    0.42
  -9  -2  -7    1.10    0.54
 -10   3   7   -0.20    0.88
  -9   3   7    4.63    0.80
  -8   3   7   11.95    0.90
  -7   3   7   19.93    0.95
  -6   3   7   -0.21    0.27
  -5   3   7   19.95    0.85
  -4   3   7   12.66    0.61
  -3   3   7   22.25    0.86
  -2   3   7   31.01    1.12
  -1   3   7    2.93    0.23
  -1   3   7    3.50    0.33
   0  -3  -7  143.21    3.83
   0   3   7  141.44    4.03
   0   3   7  141.76    3.86
  -1  -3  -7  107.80    2.98
  -1  -3  -7  108.91    2.97
   1   3   7  108.35    2.92
   1   3   7  107.13    3.14
  -2  -3  -7   32.53    1.03
  -2  -3  -7   31.27    1.04
   2   3   7   32.68    1.18
  -3  -3  -7    6.30    0.36
  -3  -3  -7    6.87    0.37
   3   3   7    6.20    0.50
  -4  -3  -7   10.26    0.47
  -4  -3  -7    9.65    0.45
   4   3   7    9.91    0.54
  -5  -3  -7    1.58    0.27
  -6  -3  -7    0.01    0.21
  -7  -3  -7    3.43    0.54
  -8  -3  -7    0.48    0.38
  -9  -3  -7    8.84    0.95
 -10  -3  -7    4.59    0.94
  -9   4   7    0.38    0.69
  -8   4   7   15.63    1.02
  -7   4   7    3.36    0.64
  -6   4   7   10.27    0.65
  -5   4   7    0.02    0.23
  -4   4   7   38.65    1.36
  -3   4   7   -0.01    0.15
  -2   4   7    4.03    0.30
  -1   4   7   51.34    1.66
   0   4   7    4.53    0.41
   1   4   7   22.88    0.71
   1   4   7   23.10    0.91
   2   4   7   18.28    0.82
   2   4   7   19.09    0.75
  -3  -4  -7   25.43    0.90
  -3  -4  -7   26.31    0.89
   3   4   7   23.64    1.01
  -4  -4  -7    0.96    0.17
  -4  -4  -7    1.22    0.23
   4   4   7    1.28    0.22
  -5  -4  -7    6.47    0.39
  -5  -4  -7    6.06    0.38
  -6  -4  -7    4.09    0.36
  -6  -4  -7    3.49    0.37
  -7  -4  -7    1.14    0.33
  -7  -4  -7    1.42    0.37
  -8  -4  -7    0.42    0.35
  -9  -4  -7   -0.51    0.46
 -10  -4  -7    1.46    0.65
  -9   5   7   -0.31    0.80
  -8   5   7    0.70    0.62
  -7   5   7    8.03    0.80
  -6   5   7    8.38    0.65
  -5   5   7   28.07    1.14
  -4   5   7   20.97    0.87
  -3   5   7   32.71    1.17
  -2   5   7   12.54    0.57
  -1   5   7    4.80    0.36
   0   5   7   17.19    0.62
   0   5   7   18.67    0.83
   1   5   7   17.88    0.68
   1   5   7   18.38    0.84
   2   5   7   14.99    0.69
   2   5   7   14.40    0.75
   3   5   7    3.69    0.41
   3   5   7    4.53    0.35
   4   5   7   18.76    0.79
   4   5   7   18.07    0.79
   5   5   7    3.95    0.39
   5   5   7    4.21    0.38
  -6  -5  -7    0.74    0.24
  -6  -5  -7    0.54    0.23
  -7  -5  -7    2.81    0.47
  -7  -5  -7    3.10    0.47
  -8  -5  -7    7.33    0.71
  -8  -5  -7    7.22    0.73
  -9  -5  -7    0.07    0.47
 -10  -5  -7    0.03    0.66
  -8   6   7   -0.44    0.71
  -7   6   7   -0.27    0.54
  -6   6   7    0.82    0.49
  -5   6   7    2.54    0.45
  -4   6   7   18.39    0.83
  -3   6   7   39.03    1.37
  -2   6   7   10.99    0.53
  -1   6   7    7.23    0.42
   0   6   7   43.85    1.37
   0   6   7   33.92    1.18
   1   6   7    5.17    0.37
   1   6   7    4.92    0.46
   2   6   7   10.66    0.67
   2   6   7   10.48    0.64
   3   6   7   12.63    0.59
   3   6   7   10.33    0.62
   4   6   7    7.73    0.49
   4   6   7    7.45    0.49
   5   6   7   31.92    1.21
   5   6   7   31.66    1.22
   6   6   7    0.80    0.29
  -7  -6  -7   12.49    0.72
  -7  -6  -7   13.54    0.76
  -8  -6  -7    8.80    0.75
  -8  -6  -7    7.81    0.71
  -9  -6  -7    0.21    0.46
  -9  -6  -7    0.15    0.51
 -10  -6  -7    0.66    0.67
  -8   7   7    1.09    0.90
  -7   7   7    1.57    0.68
  -6   7   7    1.37    0.54
  -5   7   7    5.09    0.63
  -4   7   7    0.16    0.27
  -3   7   7   21.09    0.89
  -2   7   7   13.36    0.63
  -1   7   7    1.06    0.21
  -1   7   7    1.02    0.20
   0   7   7   10.81    0.55
   0   7   7    9.70    0.49
   1   7   7   87.67    2.65
   1   7   7   84.57    2.57
   2   7   7   26.07    0.99
   2   7   7   25.41    1.03
   3   7   7    1.69    0.31
   3   7   7    1.83    0.34
   4   7   7   17.67    0.82
   4   7   7   18.72    0.80
   5   7   7    0.60    0.25
   5   7   7    0.37    0.25
   6   7   7   25.57    1.10
   6   7   7   25.72    1.11
   7   7   7    1.11    0.43
  -9  -7  -7    3.50    0.61
  -9  -7  -7    2.98    0.61
 -10  -7  -7    5.82    1.05
 -10  -7  -7    6.52    1.10
  -7   8   7    4.21    0.98
  -6   8   7    2.53    0.67
  -5   8   7    0.79    0.46
  -4   8   7    2.81    0.49
  -3   8   7    6.63    0.49
  -2   8   7    1.70    0.32
  -1   8   7    2.87    0.37
  -1   8   7    2.54    0.29
   0   8   7   12.09    0.76
   0   8   7   12.43    0.62
   1   8   7    3.05    0.41
   1   8   7    3.83    0.39
   2   8   7   94.41    2.79
   2   8   7   91.51    2.82
   3   8   7   13.50    0.65
   3   8   7   12.72    0.68
   4   8   7    5.10    0.44
   4   8   7    4.85    0.44
   5   8   7    4.77    0.46
   5   8   7    3.68    0.43
   6   8   7   23.53    1.07
   6   8   7   24.73    1.10
   7   8   7    4.11    0.80
   8   8   7    1.59    0.53
  -9  -8  -7    0.71    0.59
  -9  -8  -7    0.56    0.61
 -10  -8  -7    1.85    0.76
 -10  -8  -7    1.83    0.77
  -7   9   7   -1.06    1.48
  -6   9   7    1.36    0.71
  -5   9   7    4.25    0.78
  -4   9   7   -0.64    0.44
  -3   9   7    3.11    0.46
  -2   9   7   15.59    0.77
  -1   9   7   -0.20    0.23
  -1   9   7    0.17    0.31
   0   9   7    2.22    0.39
   0   9   7    2.10    0.34
   1   9   7   40.26    1.45
   1   9   7   39.01    1.35
   2   9   7   78.56    2.52
   2   9   7   82.82    2.50
   3   9   7   37.32    1.33
   3   9   7   36.09    1.34
   4   9   7   21.88    0.96
   4   9   7   22.25    0.96
   5   9   7    0.88    0.31
   5   9   7    0.53    0.31
   6   9   7   14.76    0.90
   6   9   7   16.48    0.91
   7   9   7    1.91    0.52
   8   9   7    5.04    0.89
   9   9   7    0.01    0.68
 -10  -9  -7    0.16    0.83
 -10  -9  -7   -0.90    0.85
  -6  10   7    0.41    0.83
  -5  10   7    2.40    0.68
  -4  10   7    0.16    0.49
  -3  10   7    3.57    0.73
  -2  10   7   -0.03    0.33
  -1  10   7   13.36    0.75
   0  10   7   13.56    0.74
   0  10   7   15.01    0.70
   1  10   7    0.74    0.28
   1  10   7    0.82    0.31
   2  10   7   17.75    0.81
   2  10   7   18.32    0.87
   3  10   7   20.05    0.95
   3  10   7   21.61    0.95
   4  10   7   54.23    1.93
   4  10   7   59.74    1.98
   5  10   7   14.74    0.83
   5  10   7   14.23    0.81
   6  10   7    1.59    0.52
   6  10   7    1.29    0.47
   7  10   7    0.37    0.48
   8  10   7    3.36    0.71
   9  10   7    1.39    0.74
  -5  11   7   -0.16    0.77
  -4  11   7   -0.55    0.61
  -3  11   7    0.95    0.53
  -2  11   7    0.89    0.55
  -1  11   7   15.59    0.92
   0  11   7   12.22    0.79
   0  11   7   12.69    0.75
   1  11   7    8.53    0.64
   1  11   7    8.04    0.70
   2  11   7    0.59    0.34
   2  11   7    0.56    0.39
   3  11   7    4.80    0.59
   3  11   7    6.04    0.57
   4  11   7   29.74    1.29
   4  11   7   28.34    1.22
   5  11   7    0.97    0.42
   5  11   7    0.66    0.49
   6  11   7    4.86    0.72
   6  11   7    4.05    0.75
   7  11   7   -0.05    0.55
   8  11   7    1.59    0.66
   9  11   7    0.48    0.87
  -4  12   7   -0.23    0.80
  -3  12   7   -0.65    0.74
  -2  12   7    0.37    0.65
  -1  12   7    5.44    0.94
   0  12   7    0.28    0.51
   1  12   7    1.05    0.49
   1  12   7    2.01    0.47
   2  12   7    8.02    0.79
   2  12   7    8.45    0.77
   3  12   7    2.32    0.50
   3  12   7    2.11    0.50
   4  12   7    8.14    0.88
   4  12   7    8.51    0.72
   5  12   7    7.49    0.87
   5  12   7    7.01    0.66
   6  12   7    6.82    0.92
   7  12   7    1.25    0.66
   8  12   7   -0.35    0.75
  -3  13   7    0.27    0.77
  -2  13   7   -0.24    0.84
  -1  13   7    1.99    0.80
   0  13   7   -0.56    0.80
   1  13   7    8.03    0.91
   2  13   7    3.88    0.71
   2  13   7    4.74    0.71
   3  13   7    7.03    0.70
   3  13   7    5.73    0.90
   4  13   7    1.56    0.57
   5  13   7    3.22    0.65
   6  13   7    1.66    0.64
   7  13   7    1.31    0.70
   8  13   7    0.08    1.09
  -1  14   7    1.75    0.85
   0  14   7    0.00    0.95
   2  14   7    0.03    0.69
   3  14   7   -0.32    0.62
   4  14   7    2.41    0.73
   5  14   7   -0.33    0.68
   6  14   7    2.05    0.83
   7  14   7   -0.19    1.46
   3  15   7    3.21    0.91
   4  15   7   -0.08    0.92
  -7 -10   8    0.86    0.67
  -6 -10   8    2.20    0.60
   5  10  -8    1.87    0.95
   4  10  -8   11.98    1.61
   3  10  -8    1.38    0.89
   2  10  -8    1.79    0.77
  -8  -9   8    2.01    0.62
  -7  -9   8    0.19    0.51
  -6  -9   8   -0.09    0.49
   5   9  -8    0.94    0.81
  -5  -9   8   -0.39    0.44
   4   9  -8    6.88    1.32
  -4  -9   8    6.47    0.76
   3   9  -8    8.48    1.21
   2   9  -8    6.54    0.97
   1   9  -8    0.78    0.46
   0   9  -8    0.51    0.50
  -9  -8   8    0.80    0.66
  -8  -8   8    1.20    0.54
  -7  -8   8    0.18    0.46
  -6  -8   8    1.54    0.41
   5   8  -8    1.94    0.70
  -5  -8   8    1.54    0.40
   4   8  -8    0.83    0.58
  -4  -8   8   -0.04    0.32
   3   8  -8    0.08    0.53
  -3  -8   8    0.12    0.33
   2   8  -8   12.76    0.96
   1   8  -8   12.00    0.89
   0   8  -8   -0.12    0.41
  -1   8  -8   -0.04    0.40
  -2   8  -8    1.33    0.55
  -9  -7   8    0.37    0.59
  -8  -7   8    0.05    0.48
  -7  -7   8   -0.10    0.40
  -6  -7   8    6.86    0.64
   5   7  -8    2.76    0.58
  -5  -7   8    3.27    0.64
   4   7  -8    1.42    0.49
  -4  -7   8    1.28    0.33
   3   7  -8    1.14    0.50
  -3  -7   8    1.07    0.26
   2   7  -8    8.65    0.82
   1   7  -8    0.95    0.33
   0   7  -8    9.34    0.72
  -1   7  -8   -0.31    0.34
  -2   7  -8   -0.40    0.41
  -3   7  -8    2.46    0.55
 -10  -6   8   -0.49    0.69
  -9  -6   8   -0.31    0.53
  -8  -6   8    1.02    0.45
  -7  -6   8    0.15    0.35
  -6  -6   8    0.46    0.35
   5   6  -8    3.30    0.65
  -5  -6   8    2.86    0.47
   4   6  -8    2.20    0.41
  -4  -6   8    2.74    0.38
   3   6  -8    0.20    0.30
  -3  -6   8   -0.04    0.21
   2   6  -8    1.03    0.27
  -2  -6   8    1.09    0.22
   1   6  -8    8.60    0.54
   0   6  -8    6.87    0.64
  -1   6  -8    2.63    0.48
  -2   6  -8   -0.03    0.32
  -3   6  -8    1.05    0.44
  -4   6  -8   -0.47    0.45
  -6   6  -8   -0.24    1.19
 -10  -5   8    1.46    0.65
  -9  -5   8    0.98    0.50
  -8  -5   8   -0.17    0.39
  -7  -5   8    2.35    0.43
  -6  -5   8    0.38    0.27
   5   5  -8    1.91    0.36
  -5  -5   8    2.75    0.38
   4   5  -8    0.36    0.26
  -4  -5   8   -0.10    0.20
   3   5  -8    0.15    0.22
  -3  -5   8   -0.26    0.18
   2   5  -8   10.80    0.57
  -2  -5   8   10.56    0.53
   1   5  -8   -0.01    0.19
  -1  -5   8   -0.06    0.18
   0   5  -8    1.18    0.26
  -1   5  -8    5.15    0.46
  -2   5  -8    0.90    0.32
  -3   5  -8    2.14    0.41
  -4   5  -8    0.70    0.42
  -5   5  -8    0.19    0.50
  -7   5  -8    1.61    1.59
 -10  -4   8    0.01    0.57
  -9  -4   8    0.07    0.45
  -8  -4   8    0.85    0.39
  -7  -4   8    1.40    0.37
  -6  -4   8    4.73    0.47
   5   4  -8    0.56    0.27
  -5  -4   8    0.32    0.21
   4   4  -8    7.08    0.49
  -4  -4   8    7.78    0.44
  -3  -4   8    0.93    0.18
   2   4  -8    0.33    0.17
  -2  -4   8    0.22    0.16
   1   4  -8   15.46    0.64
  -1  -4   8   16.18    0.66
   0   4  -8    9.44    0.49
  -1   4  -8    1.47    0.25
  -2   4  -8    0.14    0.20
  -3   4  -8    5.83    0.57
  -4   4  -8    2.65    0.54
  -5   4  -8    0.31    0.44
  -6   4  -8   -0.55    0.55
 -10  -3   8    0.23    0.58
  -9  -3   8    0.64    0.45
  -8  -3   8    0.82    0.36
  -7  -3   8    0.44    0.30
  -6  -3   8    3.04    0.41
  -5  -3   8    0.47    0.19
   4   3  -8   30.50    1.13
  -4  -3   8   31.59    1.29
  -4  -3   8   28.55    1.07
   3   3  -8   13.80    0.63
  -3  -3   8   13.40    0.57
  -3  -3   8   14.39    0.59
   2   3  -8    3.12    0.31
  -2  -3   8    3.87    0.32
  -2  -3   8    3.48    0.28
   1   3  -8    0.78    0.18
  -1  -3   8    0.77    0.23
  -1  -3   8    0.58    0.15
   0   3  -8    0.86    0.16
   0  -3   8    0.86    0.15
  -1   3  -8    3.48    0.32
  -2   3  -8    1.31    0.22
  -3   3  -8    0.99    0.24
  -4   3  -8    0.71    0.31
  -5   3  -8    5.73    0.66
  -6   3  -8    4.07    0.61
  -7   3  -8    0.12    0.72
 -10  -2   8    0.97    0.57
  -9  -2   8   -0.44    0.43
  -8  -2   8   -0.09    0.35
  -7  -2   8    2.99    0.47
  -6  -2   8    1.86    0.35
  -6  -2   8    1.14    0.45
  -5  -2   8    3.29    0.42
  -5  -2   8    3.99    0.34
  -4  -2   8    0.14    0.15
  -4  -2   8   -0.31    0.21
   3   2  -8    3.19    0.29
  -3  -2   8    2.83    0.28
  -3  -2   8    2.98    0.31
   2   2  -8    0.88    0.21
  -2  -2   8    0.74    0.20
   1   2  -8    1.22    0.25
  -1  -2   8    1.11    0.23
  -1  -2   8    0.79    0.18
   0   2  -8   24.83    0.88
   0  -2   8   26.35    0.96
   0  -2   8   26.49    1.02
  -1   2  -8    1.34    0.24
  -2   2  -8   23.52    0.88
  -3   2  -8    6.17    0.43
  -4   2  -8   -0.07    0.23
  -5   2  -8    6.67    0.61
  -6   2  -8    1.41    0.45
  -7   2  -8   -0.01    0.51
 -10  -1   8   -1.00    0.59
  -9  -1   8    1.65    0.52
  -8  -1   8   -0.70    0.37
  -7  -1   8   -0.17    0.27
  -7  -1   8   -0.33    0.31
  -6  -1   8    0.84    0.30
  -6  -1   8    0.96    0.22
  -5  -1   8    2.19    0.31
  -5  -1   8    2.69    0.55
  -4  -1   8    2.02    0.34
  -4  -1   8    2.08    0.27
  -3  -1   8    3.62    0.29
  -3  -1   8    3.48    0.34
   2   1  -8   44.78    1.32
  -2  -1   8   43.94    1.45
  -2  -1   8   46.64    1.47
   1   1  -8   10.65    0.45
  -1  -1   8   10.08    0.54
  -1  -1   8   10.26    0.51
   0   1  -8   23.66    0.83
   0  -1   8   23.48    0.81
   0  -1   8   23.01    0.92
  -1   1  -8   12.14    0.53
   1  -1   8   12.41    0.52
   1  -1   8   12.83    0.75
  -2   1  -8   63.91    1.93
  -3   1  -8    1.37    0.26
  -4   1  -8   23.58    0.92
  -5   1  -8    4.35    0.55
  -6   1  -8    2.52    0.43
  -7   1  -8    0.97    0.51
  -8   1  -8    3.67    0.73
 -10   0   8   -0.27    0.62
  -9   0   8    0.94    0.71
  -9   0   8    0.53    0.47
  -8   0   8    2.55    0.49
  -8   0   8    2.81    0.47
  -7   0   8    0.08    0.30
  -7   0   8    0.25    0.28
  -6   0   8    1.65    0.28
  -6   0   8    1.92    0.38
  -5   0   8    1.08    0.19
  -5   0   8    1.63    0.30
  -4   0   8    3.52    0.56
  -4   0   8    3.89    0.32
  -3   0   8    3.37    0.30
  -3   0   8    4.22    0.44
  -2   0   8  147.83    4.10
  -2   0   8  145.16    4.13
   1   0  -8    7.02    0.34
  -1   0   8    6.11    0.46
  -1   0   8    7.17    0.38
   0   0  -8  253.44    6.73
   0   0   8  253.33    6.75
   0   0   8  246.31    6.89
  -1   0  -8   50.80    1.53
   1   0   8   50.83    1.49
   1   0   8   49.09    1.69
  -2   0  -8    0.79    0.16
   2   0   8    1.12    0.32
  -3   0  -8    3.16    0.28
  -4   0  -8   10.87    0.54
  -5   0  -8    3.32    0.38
  -6   0  -8    3.68    0.55
  -7   0  -8    0.05    0.42
  -8   0  -8    0.18    0.52
 -10   1   8    1.51    1.19
 -10   1   8    1.30    0.73
  -9   1   8   -0.08    0.50
  -9   1   8   -0.30    0.59
  -8   1   8   -0.15    0.37
  -8   1   8    0.20    0.45
  -7   1   8    9.94    0.66
  -7   1   8   10.75    0.67
  -6   1   8   -0.21    0.22
  -6   1   8   -0.35    0.25
  -5   1   8   13.79    0.65
  -5   1   8   14.80    0.66
  -4   1   8   38.43    1.33
  -4   1   8   40.18    1.37
  -3   1   8    6.52    0.43
  -3   1   8    7.03    0.58
  -2   1   8   14.01    0.70
  -2   1   8   13.48    0.59
   1  -1  -8   70.36    1.91
  -1   1   8   68.55    2.13
  -1   1   8   68.36    2.01
   0  -1  -8  320.88    8.46
   0   1   8  318.38    8.65
   0   1   8  315.41    8.48
  -1  -1  -8   56.92    1.67
   1   1   8   56.21    1.61
   1   1   8   54.08    1.83
  -2  -1  -8   83.88    2.43
   2   1   8   84.04    2.60
  -3  -1  -8    0.39    0.15
   3   1   8    0.19    0.23
  -4  -1  -8    9.15    0.49
  -5  -1  -8    1.57    0.26
  -6  -1  -8    0.15    0.35
  -7  -1  -8    4.24    0.65
  -8  -1  -8   -0.47    0.49
  -9  -1  -8   -0.21    0.91
 -10   2   8    2.48    0.98
 -10   2   8    0.19    0.78
  -9   2   8    2.68    0.66
  -9   2   8    2.69    0.66
  -8   2   8    1.53    0.44
  -8   2   8    2.17    0.56
  -7   2   8    4.13    0.55
  -7   2   8    4.71    0.57
  -6   2   8   12.11    0.65
  -6   2   8   11.09    0.64
  -5   2   8    7.65    0.47
  -5   2   8    7.78    0.47
  -4   2   8    0.54    0.16
  -4   2   8    0.65    0.21
  -3   2   8   41.95    1.42
  -3   2   8   40.54    1.37
  -2   2   8  106.53    3.09
  -2   2   8  109.89    3.19
  -1   2   8    0.89    0.31
  -1   2   8    0.75    0.14
   0  -2  -8   24.99    0.78
   0   2   8   24.39    0.80
   0   2   8   24.27    0.98
  -1  -2  -8  118.21    3.26
   1   2   8  114.79    3.20
   1   2   8  119.76    3.46
  -2  -2  -8  129.57    3.66
   2   2   8  132.46    3.83
  -3  -2  -8   81.94    2.40
   3   2   8   81.32    2.55
  -4  -2  -8    1.51    0.25
  -5  -2  -8    7.46    0.46
  -6  -2  -8    0.73    0.29
  -7  -2  -8    0.04    0.37
  -8  -2  -8    1.69    0.53
  -9  -2  -8   -0.53    0.62
 -10   3   8    1.96    1.30
  -9   3   8    0.74    0.65
  -9   3   8    0.38    0.62
  -8   3   8   10.87    0.88
  -7   3   8    0.76    0.40
  -6   3   8    2.63    0.42
  -5   3   8    5.37    0.41
  -4   3   8    0.13    0.20
  -3   3   8   83.31    2.53
  -2   3   8   83.97    2.51
  -2   3   8   81.78    2.42
  -1   3   8  117.13    3.60
  -1   3   8  130.68    3.47
   0  -3  -8    4.26    0.25
   0   3   8    3.66    0.45
   0   3   8    3.68    0.26
  -1  -3  -8    2.22    0.23
   1   3   8    2.24    0.21
   1   3   8    2.28    0.37
  -2  -3  -8    3.06    0.40
   2   3   8    2.83    0.19
   2   3   8    2.84    0.29
  -3  -3  -8    0.07    0.15
   3   3   8    0.18    0.18
  -4  -3  -8   13.11    0.58
   4   3   8   13.21    0.68
  -5  -3  -8    0.12    0.20
  -6  -3  -8    2.18    0.40
  -7  -3  -8    1.07    0.37
  -8  -3  -8    0.36    0.46
  -9  -3  -8    1.90    0.63
  -9   4   8    5.06    0.88
  -8   4   8    4.40    0.81
  -7   4   8    1.15    0.44
  -6   4   8    0.61    0.35
  -5   4   8    0.14    0.25
  -4   4   8    5.54    0.41
  -3   4   8   31.30    1.15
  -2   4   8   20.51    0.84
  -1   4   8    2.44    0.28
   0  -4  -8   56.14    1.60
   0   4   8   55.26    1.64
   0   4   8   56.72    1.82
  -1  -4  -8   29.02    0.90
  -1  -4  -8   27.70    0.92
   1   4   8   28.38    0.86
   1   4   8   27.58    1.06
  -2  -4  -8   24.21    0.93
  -2  -4  -8   24.50    0.91
   2   4   8   24.93    0.97
  -3  -4  -8    5.11    0.33
  -3  -4  -8    5.15    0.34
   3   4   8    5.09    0.37
  -4  -4  -8    1.41    0.22
  -4  -4  -8    1.16    0.19
   4   4   8    1.18    0.22
  -5  -4  -8   14.01    0.66
  -5  -4  -8   14.48    0.66
   5   4   8   14.20    0.73
  -6  -4  -8    0.26    0.25
  -7  -4  -8    5.35    0.63
  -8  -4  -8    0.15    0.41
  -9  -4  -8   -0.07    0.54
  -9   5   8    0.74    0.99
  -8   5   8    7.88    0.97
  -7   5   8    3.24    0.68
  -6   5   8   39.98    1.58
  -5   5   8   22.17    0.98
  -4   5   8    1.59    0.32
  -3   5   8   19.42    0.82
  -2   5   8    4.22    0.33
  -1   5   8   63.61    2.01
   0   5   8    8.50    0.50
   1   5   8   19.18    0.81
   1   5   8   18.95    0.70
   1   5   8   19.04    0.64
   2   5   8   33.46    1.21
   2   5   8   33.28    1.22
   3   5   8   78.95    2.46
  -4  -5  -8    3.62    0.34
  -4  -5  -8    3.78    0.33
   4   5   8    3.62    0.35
  -5  -5  -8    3.81    0.37
  -5  -5  -8    3.50    0.37
   5   5   8    3.77    0.42
  -6  -5  -8    2.08    0.39
  -6  -5  -8    1.44    0.30
  -7  -5  -8    0.57    0.37
  -7  -5  -8   -0.07    0.39
  -8  -5  -8    0.44    0.44
  -9  -5  -8    0.11    0.55
  -8   6   8    3.68    0.83
  -7   6   8    5.88    0.91
  -6   6   8   13.15    0.91
  -5   6   8   20.38    0.97
  -4   6   8    3.73    0.40
  -3   6   8   10.29    0.57
  -2   6   8   26.40    1.02
  -1   6   8    8.02    0.46
   0   6   8   10.56    0.56
   0   6   8   10.73    0.45
   1   6   8    6.94    0.44
   1   6   8    6.61    0.40
   2   6   8   15.81    0.73
   2   6   8   15.08    0.71
   3   6   8    7.28    0.44
   3   6   8    7.47    0.46
   4   6   8   25.23    1.04
   4   6   8   26.67    1.02
   5   6   8    1.14    0.29
   5   6   8    1.40    0.28
  -6  -6  -8    1.62    0.32
  -6  -6  -8    1.86    0.32
  -7  -6  -8    1.48    0.41
  -7  -6  -8    1.05    0.41
  -8  -6  -8   -0.05    0.46
  -8  -6  -8    0.13    0.42
  -9  -6  -8    0.56    0.58
 -10  -6  -8    0.12    0.92
  -8   7   8    2.01    1.21
  -7   7   8    0.92    0.70
  -6   7   8    2.20    0.56
  -5   7   8    4.27    0.70
  -4   7   8   33.62    1.32
  -3   7   8    9.21    0.56
  -2   7   8   33.90    1.24
  -1   7   8   18.89    0.82
   0   7   8   24.44    0.85
   0   7   8   24.84    0.99
   1   7   8    2.51    0.40
   1   7   8    2.29    0.30
   2   7   8    1.41    0.25
   2   7   8    1.29    0.28
   3   7   8   17.54    0.75
   3   7   8   17.11    0.79
   4   7   8    3.19    0.39
   4   7   8    2.15    0.36
   5   7   8    3.46    0.44
   5   7   8    2.36    0.41
   6   7   8    1.91    0.37
   6   7   8    1.84    0.38
  -8  -7  -8   -0.02    0.47
  -8  -7  -8    0.74    0.48
  -9  -7  -8    1.25    0.68
  -9  -7  -8    2.85    0.68
 -10  -7  -8    2.46    1.46
  -7   8   8    5.92    1.23
  -6   8   8    0.11    0.59
  -5   8   8    1.94    0.53
  -4   8   8    0.39    0.38
  -3   8   8   10.95    0.66
  -2   8   8    5.49    0.44
  -1   8   8   48.86    1.69
   0   8   8    0.23    0.22
   0   8   8    0.37    0.34
   1   8   8    0.81    0.25
   1   8   8    0.31    0.27
   2   8   8    5.55    0.43
   2   8   8    6.40    0.47
   3   8   8    0.07    0.24
   3   8   8   -0.40    0.24
   4   8   8    6.36    0.49
   4   8   8    5.87    0.49
   5   8   8    0.57    0.31
   5   8   8    0.79    0.29
   6   8   8    0.53    0.36
   6   8   8   -0.24    0.35
   7   8   8    5.37    0.76
   8   8   8    2.37    0.62
  -9  -8  -8    2.04    0.68
  -9  -8  -8    1.26    0.64
  -6   9   8   -0.41    0.66
  -5   9   8    3.34    0.66
  -4   9   8    0.18    0.41
  -3   9   8    2.91    0.49
  -2   9   8    1.09    0.33
  -1   9   8    9.70    0.61
   0   9   8   18.77    0.87
   0   9   8   18.61    0.83
   1   9   8    1.97    0.37
   1   9   8    1.45    0.29
   2   9   8    2.03    0.36
   3   9   8   22.30    0.99
   3   9   8   22.89    0.95
   4   9   8   12.46    0.71
   4   9   8   12.88    0.73
   5   9   8    0.39    0.34
   5   9   8    1.39    0.34
   6   9   8    5.46    0.74
   6   9   8    5.24    0.81
   7   9   8    1.32    0.50
   8   9   8    6.98    1.02
  -6  10   8    1.09    1.01
  -5  10   8    3.09    0.75
  -4  10   8    5.20    0.78
  -3  10   8    0.85    0.43
  -2  10   8    1.20    0.40
  -1  10   8    7.68    0.63
   0  10   8    0.96    0.35
   1  10   8   10.07    0.66
   1  10   8    9.74    0.63
   2  10   8    6.17    0.52
   2  10   8    4.49    0.53
   3  10   8    0.48    0.30
   3  10   8   -0.26    0.32
   4  10   8   29.20    1.22
   4  10   8   28.28    1.22
   5  10   8    9.44    0.78
   5  10   8    9.64    0.79
   6  10   8    0.68    0.43
   6  10   8    0.56    0.49
   7  10   8   -0.62    0.51
   8  10   8    6.67    1.10
   9  10   8    0.61    0.85
  -5  11   8   -0.21    0.82
  -4  11   8    0.46    0.67
  -3  11   8    6.72    0.82
  -2  11   8    0.86    0.51
  -1  11   8    0.71    0.44
   0  11   8    5.72    0.64
   1  11   8   -0.10    0.39
   1  11   8    0.08    0.41
   2  11   8    0.01    0.38
   2  11   8    0.41    0.39
   3  11   8    7.85    0.73
   3  11   8    7.46    0.69
   4  11   8   21.37    1.07
   4  11   8   20.96    1.07
   5  11   8    8.74    0.86
   5  11   8    8.37    0.84
   6  11   8   14.88    1.05
   6  11   8   14.06    1.02
   7  11   8    0.58    0.62
   8  11   8    3.72    0.78
   9  11   8    0.58    1.09
  -4  12   8   -0.78    0.82
  -3  12   8   -0.63    0.65
  -2  12   8    1.10    0.71
  -1  12   8    0.03    0.62
   0  12   8   -0.35    0.61
   1  12   8    3.90    0.74
   2  12   8    9.34    0.91
   2  12   8    8.84    0.80
   3  12   8   -0.07    0.46
   3  12   8   -0.31    0.50
   4  12   8    6.77    0.86
   4  12   8    6.35    0.87
   5  12   8    8.76    0.89
   5  12   8   10.96    0.98
   6  12   8   20.62    1.11
   6  12   8   19.66    1.28
   7  12   8    7.97    1.13
   8  12   8   -0.06    0.79
  -3  13   8   -1.05    0.95
  -2  13   8   -0.62    0.86
  -1  13   8    1.00    0.81
   0  13   8   -0.63    0.76
   1  13   8    7.56    1.18
   2  13   8    3.36    0.78
   2  13   8    2.47    0.66
   3  13   8    3.53    0.66
   4  13   8   -0.65    0.58
   5  13   8    1.54    0.64
   6  13   8   10.71    1.20
   7  13   8    1.10    0.81
  -2  14   8    0.42    1.05
   0  14   8   -0.40    0.81
   1  14   8   -0.23    0.66
   3  14   8    0.63    0.75
   4  14   8    2.70    0.74
   5  14   8    0.61    0.71
   6  14   8    1.79    0.89
   4  15   8   -0.86    0.95
  -7  -9   9    0.18    0.69
  -6  -9   9    0.32    0.56
  -5  -9   9    1.50    0.59
   4   9  -9   12.38    1.35
   3   9  -9    1.45    0.74
   2   9  -9    2.05    0.79
   1   9  -9    0.42    0.69
  -8  -8   9    0.36    0.65
  -7  -8   9   -0.38    0.52
  -6  -8   9    0.60    0.51
  -5  -8   9    0.05    0.43
   4   8  -9    5.64    1.17
  -4  -8   9    5.15    0.70
   3   8  -9    2.82    0.80
   2   8  -9   17.16    1.30
   1   8  -9    1.81    0.55
   0   8  -9    0.94    0.49
  -1   8  -9    1.42    0.64
  -9  -7   9    0.45    0.85
  -8  -7   9   -0.14    0.53
  -7  -7   9    2.26    0.53
  -6  -7   9    4.42    0.68
  -5  -7   9    1.08    0.37
   4   7  -9    0.89    0.59
  -4  -7   9    0.56    0.32
   3   7  -9    0.18    0.54
  -3  -7   9   -0.30    0.31
   2   7  -9    8.31    0.88
   1   7  -9    7.14    0.85
   0   7  -9    9.04    0.84
  -1   7  -9    0.13    0.41
  -2   7  -9    0.57    0.50
  -9  -6   9   -0.27    0.62
  -8  -6   9    1.60    0.52
  -7  -6   9    0.67    0.45
  -6  -6   9    0.75    0.37
  -5  -6   9    0.28    0.34
   4   6  -9    6.70    0.69
  -4  -6   9    6.72    0.64
   3   6  -9    2.18    0.45
  -3  -6   9    2.30    0.44
   2   6  -9    1.73    0.45
  -2  -6   9    1.08    0.27
   1   6  -9    0.27    0.40
   0   6  -9   13.88    0.80
  -1   6  -9   22.10    1.08
  -2   6  -9    0.87    0.44
  -3   6  -9   -0.18    0.46
  -9  -5   9    0.12    0.54
  -8  -5   9    2.02    0.51
  -7  -5   9    2.44    0.45
  -6  -5   9    0.22    0.33
  -5  -5   9    2.62    0.47
   4   5  -9   10.63    0.67
  -4  -5   9   11.84    0.62
   3   5  -9   10.76    0.68
  -3  -5   9   11.33    0.61
   2   5  -9    0.63    0.28
  -2  -5   9    0.13    0.21
   1   5  -9    5.88    0.53
  -1  -5   9    4.98    0.46
   0   5  -9    5.74    0.56
  -1   5  -9    0.12    0.30
  -2   5  -9   10.35    0.74
  -3   5  -9    1.55    0.44
  -4   5  -9    0.14    0.47
 -10  -4   9    0.07    0.86
  -9  -4   9   -0.44    0.52
  -8  -4   9    1.21    0.46
  -7  -4   9    0.36    0.36
  -6  -4   9    3.69    0.55
  -5  -4   9    0.17    0.24
   4   4  -9    1.54    0.27
  -4  -4   9    1.09    0.23
   3   4  -9    3.62    0.41
  -3  -4   9    3.36    0.37
   2   4  -9   12.23    0.61
  -2  -4   9   12.65    0.59
   1   4  -9    1.60    0.28
  -1  -4   9    1.02    0.21
   0   4  -9    1.92    0.30
  -1   4  -9    3.40    0.42
  -2   4  -9    8.18    0.65
  -3   4  -9    1.20    0.33
  -4   4  -9    0.84    0.42
  -5   4  -9   -0.33    0.47
 -10  -3   9    0.31    0.75
  -9  -3   9    0.05    0.49
  -8  -3   9    5.16    0.74
  -7  -3   9    1.10    0.40
  -6  -3   9    1.43    0.29
  -5  -3   9    8.45    0.54
   4   3  -9    0.17    0.31
  -4  -3   9   -0.26    0.19
   3   3  -9    3.99    0.35
  -3  -3   9    3.58    0.33
   2   3  -9    0.34    0.18
  -2  -3   9    0.30    0.16
  -2  -3   9    0.08    0.27
   1   3  -9    3.48    0.35
  -1  -3   9    3.82    0.33
   0   3  -9    5.28    0.40
   0  -3   9    5.67    0.38
  -1   3  -9    0.63    0.21
  -2   3  -9    0.42    0.24
  -3   3  -9    7.28    0.59
  -4   3  -9    0.99    0.35
  -5   3  -9    0.80    0.46
  -6   3  -9   -0.28    0.54
 -10  -2   9    1.54    0.75
  -9  -2   9    1.12    0.55
  -8  -2   9   -0.12    0.42
  -7  -2   9    2.82    0.47
  -6  -2   9    0.93    0.27
  -5  -2   9    7.10    0.46
  -4  -2   9    4.12    0.47
  -4  -2   9    3.36    0.33
   3   2  -9    0.89    0.26
  -3  -2   9    0.56    0.17
   2   2  -9   12.09    0.53
  -2  -2   9   11.54    0.54
  -2  -2   9   12.28    0.59
   1   2  -9    3.71    0.34
  -1  -2   9    2.78    0.46
  -1  -2   9    3.28    0.29
   0   2  -9    0.06    0.16
   0  -2   9    0.36    0.40
   0  -2   9    0.20    0.15
  -1   2  -9    7.99    0.44
  -2   2  -9   16.39    0.71
  -3   2  -9    0.62    0.24
  -4   2  -9    0.50    0.32
  -5   2  -9    0.92    0.42
  -6   2  -9    0.13    0.48
  -7   2  -9   -0.50    0.76
 -10  -1   9    0.58    0.78
  -9  -1   9    0.90    0.54
  -8  -1   9    0.61    0.42
  -7  -1   9    0.14    0.37
  -6  -1   9    2.15    0.44
  -5  -1   9   -0.08    0.20
  -5  -1   9    0.11    0.31
  -4  -1   9   11.87    0.81
  -4  -1   9   11.82    0.57
  -3  -1   9    1.43    0.41
   2   1  -9   56.87    1.64
  -2  -1   9   56.72    1.83
  -2  -1   9   55.86    1.74
   1   1  -9    9.57    0.52
  -1  -1   9    9.94    0.69
  -1  -1   9    9.67    0.49
   0   1  -9    9.94    0.48
   0  -1   9   10.91    0.58
   0  -1   9   10.20    0.72
  -1   1  -9    0.13    0.16
   1  -1   9    0.07    0.28
   1  -1   9    0.17    0.29
  -2   1  -9   -0.01    0.17
  -3   1  -9    6.13    0.43
  -4   1  -9   -0.24    0.25
  -5   1  -9   -0.21    0.32
  -6   1  -9    0.55    0.44
  -7   1  -9    4.08    0.69
 -10   0   9    0.96    0.88
  -9   0   9   -0.24    0.56
  -8   0   9    0.79    0.57
  -8   0   9    1.31    0.44
  -7   0   9   -0.06    0.36
  -6   0   9   -0.13    0.30
  -6   0   9    0.21    0.25
  -5   0   9    7.71    0.51
  -5   0   9    8.39    0.51
  -4   0   9    5.65    0.37
  -4   0   9    4.72    0.47
  -3   0   9    5.75    0.58
  -3   0   9    5.84    0.38
  -2   0   9    0.32    0.42
  -2   0   9    0.45    0.16
   1   0  -9    6.10    0.33
  -1   0   9    6.42    0.49
  -1   0   9    6.50    0.62
   0   0  -9   10.24    0.55
   0   0   9   10.67    0.49
   0   0   9   10.69    0.66
  -1   0  -9    1.79    0.26
   1   0   9    1.71    0.34
   1   0   9    1.57    0.26
  -2   0  -9    5.46    0.36
   2   0   9    5.30    0.45
  -3   0  -9   -0.23    0.19
  -4   0  -9    7.59    0.49
  -5   0  -9    1.34    0.39
  -6   0  -9    0.62    0.41
  -7   0  -9    1.73    0.53
  -8   0  -9   -0.92    0.71
  -9   1   9    1.28    0.78
  -9   1   9    1.86    0.63
  -8   1   9    0.06    0.56
  -8   1   9    0.05    0.43
  -7   1   9    4.38    0.66
  -7   1   9    3.47    0.54
  -6   1   9    0.74    0.27
  -6   1   9    0.43    0.30
  -5   1   9    0.50    0.22
  -5   1   9   -0.30    0.25
  -4   1   9   -0.07    0.18
  -4   1   9   -0.08    0.23
  -3   1   9    0.99    0.18
  -3   1   9    1.72    0.34
  -2   1   9    0.10    0.27
  -2   1   9    0.10    0.20
   1  -1  -9    0.65    0.15
  -1   1   9    0.52    0.30
  -1   1   9    0.51    0.16
   0  -1  -9    8.43    0.41
   0   1   9    8.21    0.40
   0   1   9    8.74    0.54
  -1  -1  -9    0.96    0.20
   1   1   9    1.13    0.20
   1   1   9    1.42    0.28
  -2  -1  -9   14.69    0.62
   2   1   9   15.63    0.73
  -3  -1  -9    2.12    0.30
   3   1   9    2.82    0.39
  -4  -1  -9   34.81    1.23
  -5  -1  -9    0.63    0.29
  -6  -1  -9    9.47    0.70
  -7  -1  -9    2.63    0.52
  -8  -1  -9   -0.06    0.58
  -9   2   9    2.31    0.68
  -9   2   9   -0.27    0.62
  -8   2   9    0.08    0.44
  -8   2   9    0.67    0.56
  -7   2   9    0.10    0.39
  -7   2   9   -0.13    0.36
  -6   2   9    5.66    0.50
  -6   2   9    6.02    0.54
  -5   2   9    0.51    0.22
  -5   2   9    0.33    0.26
  -4   2   9   11.05    0.59
  -4   2   9   10.87    0.55
  -3   2   9    0.50    0.17
  -3   2   9    0.35    0.22
  -2   2   9    5.06    0.50
  -2   2   9    5.02    0.43
  -1   2   9    9.30    0.56
  -1   2   9    8.43    0.43
   0  -2  -9   83.78    2.36
   0   2   9   84.89    2.40
   0   2   9   84.80    2.59
  -1  -2  -9   15.21    0.72
   1   2   9   15.90    0.57
   1   2   9   16.09    0.74
  -2  -2  -9  121.31    3.42
   2   2   9  120.44    3.60
  -3  -2  -9   32.03    1.11
   3   2   9   32.00    1.23
  -4  -2  -9    0.58    0.22
  -5  -2  -9    1.46    0.27
  -6  -2  -9   13.47    0.80
  -7  -2  -9    0.47    0.42
  -8  -2  -9    2.15    0.62
  -9   3   9    0.15    0.65
  -9   3   9   -0.26    0.66
  -8   3   9    4.27    0.81
  -8   3   9    4.48    0.78
  -7   3   9    0.39    0.36
  -7   3   9   -0.10    0.46
  -6   3   9    0.43    0.28
  -6   3   9    0.46    0.35
  -5   3   9   22.63    0.93
  -5   3   9   22.53    0.95
  -4   3   9    2.45    0.35
  -4   3   9    3.23    0.35
  -3   3   9   25.07    1.02
  -3   3   9   26.26    0.96
  -2   3   9    7.95    0.60
  -2   3   9    7.61    0.50
  -1   3   9    5.63    0.37
  -1   3   9    5.99    0.45
   0  -3  -9    3.33    0.26
   0   3   9    3.11    0.33
  -1  -3  -9   23.75    0.84
   1   3   9   22.62    0.75
   1   3   9   22.92    0.94
  -2  -3  -9  194.07    5.16
   2   3   9  184.68    5.35
   2   3   9  185.34    5.01
  -3  -3  -9    8.23    0.45
   3   3   9    7.99    0.52
  -4  -3  -9   73.72    2.28
   4   3   9   75.34    2.46
  -5  -3  -9    3.74    0.40
  -6  -3  -9    5.49    0.66
  -7  -3  -9    0.08    0.42
  -8  -3  -9    1.45    0.54
  -9  -3  -9    1.19    0.81
  -9   4   9    1.32    0.82
  -9   4   9    0.72    0.79
  -8   4   9   -0.71    0.55
  -7   4   9    6.68    0.72
  -6   4   9    5.64    0.57
  -5   4   9    3.68    0.44
  -4   4   9   16.47    0.77
  -3   4   9    1.29    0.27
  -2   4   9    0.50    0.25
  -2   4   9    0.16    0.21
  -1   4   9    3.60    0.35
  -1   4   9    3.25    0.34
   0  -4  -9  102.33    2.75
   0   4   9   97.21    2.78
   0   4   9   99.12    3.00
  -1  -4  -9    5.74    0.37
   1   4   9    6.45    0.33
   1   4   9    5.55    0.41
  -2  -4  -9   35.19    1.16
   2   4   9   34.23    1.27
  -3  -4  -9   60.18    1.84
   3   4   9   58.93    1.98
  -4  -4  -9   76.83    2.31
   4   4   9   73.08    2.43
  -5  -4  -9   44.33    1.51
   5   4   9   42.97    1.63
  -6  -4  -9    2.91    0.54
  -7  -4  -9    1.78    0.41
  -8  -4  -9    0.44    0.50
  -9  -4  -9   -0.61    0.72
  -8   5   9    7.92    0.99
  -7   5   9   -0.65    0.46
  -6   5   9   17.49    1.03
  -5   5   9    0.96    0.32
  -4   5   9    1.82    0.33
  -3   5   9   15.67    0.76
  -2   5   9    8.85    0.52
  -1   5   9   79.85    2.51
   0  -5  -9   26.46    0.85
   0   5   9   26.45    1.05
   0   5   9   26.65    0.89
  -1  -5  -9  102.28    2.82
  -1  -5  -9   99.35    2.80
   1   5   9  101.47    3.04
   1   5   9   96.41    2.74
  -2  -5  -9    7.13    0.46
  -2  -5  -9    6.99    0.44
   2   5   9    6.76    0.45
  -3  -5  -9   -0.15    0.19
  -3  -5  -9   -0.04    0.21
   3   5   9    0.32    0.21
  -4  -5  -9    5.42    0.42
  -4  -5  -9    5.53    0.42
   4   5   9    5.73    0.45
  -5  -5  -9    0.77    0.26
  -5  -5  -9    0.95    0.29
  -6  -5  -9   11.67    0.72
  -6  -5  -9   11.92    0.72
  -7  -5  -9    3.21    0.62
  -8  -5  -9    0.42    0.52
  -9  -5  -9    0.78    0.67
  -8   6   9    4.51    0.92
  -7   6   9   10.70    1.01
  -6   6   9    0.02    0.45
  -5   6   9    3.51    0.62
  -4   6   9    5.10    0.49
  -3   6   9    2.40    0.37
  -2   6   9    5.30    0.43
  -1   6   9    6.47    0.45
   0   6   9   12.17    0.64
   1   6   9    9.58    0.56
   1   6   9   13.55    0.47
   2   6   9   51.75    1.76
   2   6   9   51.72    1.65
   3   6   9    1.64    0.27
  -4  -6  -9    8.57    0.53
  -4  -6  -9    8.24    0.51
   4   6   9    9.36    0.56
  -5  -6  -9    0.18    0.28
  -5  -6  -9    0.11    0.27
  -6  -6  -9    0.25    0.34
  -6  -6  -9    0.09    0.32
  -7  -6  -9    3.32    0.64
  -8  -6  -9   -0.16    0.52
  -9  -6  -9    1.16    0.64
  -7   7   9   -0.75    0.65
  -6   7   9   21.15    1.22
  -5   7   9   -0.41    0.42
  -4   7   9   58.01    2.05
  -3   7   9    5.56    0.49
  -2   7   9    5.37    0.47
  -1   7   9    6.09    0.45
   0   7   9    0.47    0.23
   0   7   9    0.73    0.32
   1   7   9   49.20    1.67
   1   7   9   51.15    1.74
   2   7   9   -0.21    0.23
   3   7   9   15.53    0.69
   3   7   9   15.01    0.77
   4   7   9    0.92    0.29
   4   7   9    1.48    0.29
   5   7   9   22.47    0.99
   5   7   9   22.25    1.02
  -6  -7  -9    0.36    0.37
  -6  -7  -9    0.27    0.39
   6   7   9    0.19    0.41
  -7  -7  -9    1.17    0.46
  -7  -7  -9    0.61    0.43
  -8  -7  -9    1.39    0.53
  -8  -7  -9   -0.04    0.57
  -9  -7  -9   -0.34    0.60
  -9  -7  -9   -0.04    0.68
  -7   8   9    3.61    0.98
  -6   8   9    0.95    0.68
  -5   8   9   10.54    0.93
  -4   8   9    1.72    0.51
  -3   8   9   26.98    1.16
  -2   8   9    6.81    0.55
  -1   8   9   17.82    0.85
   0   8   9    3.35    0.40
   1   8   9   10.64    0.61
   1   8   9   11.45    0.66
   2   8   9    4.26    0.43
   2   8   9    3.51    0.42
   3   8   9    1.36    0.31
   3   8   9    0.81    0.28
   4   8   9    9.49    0.61
   4   8   9    9.16    0.63
   5   8   9    0.73    0.33
   5   8   9    0.66    0.35
   6   8   9    8.37    0.84
   6   8   9   11.04    0.85
  -8  -8  -9    0.12    0.60
  -8  -8  -9    0.12    0.60
  -9  -8  -9    1.08    0.69
  -9  -8  -9    0.74    0.75
  -6   9   9    1.89    0.82
  -5   9   9    2.58    0.71
  -4   9   9    4.20    0.69
  -3   9   9    0.05    0.45
  -2   9   9   43.80    1.66
  -1   9   9    0.00    0.29
   0   9   9   23.37    1.06
   1   9   9    2.00    0.31
   1   9   9    1.80    0.39
   2   9   9   14.55    0.71
   2   9   9   15.21    0.80
   3   9   9    0.33    0.31
   3   9   9    0.54    0.32
   4   9   9    0.17    0.32
   4   9   9   -0.13    0.33
   5   9   9    6.33    0.62
   6   9   9    0.16    0.46
   6   9   9   -0.05    0.44
   7   9   9    2.27    0.54
  -9  -9  -9    2.15    0.82
  -9  -9  -9    0.67    0.77
  -5  10   9    2.97    0.77
  -4  10   9    0.25    0.59
  -3  10   9    2.29    0.55
  -2  10   9   -0.10    0.46
  -1  10   9   13.01    0.79
   0  10   9    0.40    0.35
   1  10   9   26.07    1.17
   2  10   9    2.66    0.54
   2  10   9    2.22    0.47
   3  10   9    3.30    0.56
   3  10   9    2.43    0.38
   4  10   9    1.49    0.41
   4  10   9    0.88    0.39
   5  10   9    0.58    0.47
   5  10   9    0.13    0.47
   6  10   9    0.37    0.50
   6  10   9    1.99    0.64
   7  10   9   -0.05    0.57
   8  10   9    0.82    0.68
  -9 -10  -9    0.02    1.02
  -9 -10  -9   -0.07    1.01
  -5  11   9    0.82    1.44
  -4  11   9    0.66    0.67
  -3  11   9    3.81    0.82
  -2  11   9   -0.32    0.48
  -1  11   9    0.34    0.55
   0  11   9    1.81    0.51
   1  11   9    0.33    0.41
   2  11   9    9.79    0.77
   2  11   9   10.63    0.78
   3  11   9    3.26    0.71
   3  11   9    2.82    0.48
   4  11   9    1.56    0.53
   5  11   9    4.57    0.88
   5  11   9    3.59    0.59
   6  11   9    4.35    0.69
   6  11   9    6.61    1.06
   7  11   9    1.19    0.89
   7  11   9   -0.32    0.64
   8  11   9    1.34    0.77
  -4  12   9    2.12    1.05
  -3  12   9   -0.58    0.68
  -2  12   9    2.89    0.71
  -1  12   9    0.26    0.57
   0  12   9   -0.06    0.66
   1  12   9    5.78    0.97
   2  12   9    1.91    0.60
   3  12   9    8.56    0.98
   3  12   9    6.46    0.97
   4  12   9    6.24    1.02
   4  12   9    5.22    0.90
   5  12   9    0.60    0.60
   5  12   9    1.05    0.66
   6  12   9    4.88    0.77
   7  12   9    3.93    0.81
   7  12   9    4.01    0.96
   8  12   9   -0.69    0.99
  -3  13   9   -1.02    1.18
  -2  13   9   -1.12    0.82
  -1  13   9    5.97    1.08
   0  13   9    1.90    0.85
   1  13   9   -0.37    0.71
   2  13   9    2.01    0.86
   3  13   9    0.15    0.73
   3  13   9    1.37    0.82
   4  13   9    1.53    0.76
   4  13   9   -0.09    0.61
   5  13   9    0.43    0.68
   5  13   9    1.85    0.70
   6  13   9    6.61    1.12
   7  13   9    1.15    0.97
   0  14   9   -0.10    0.93
   1  14   9   -0.31    0.81
   2  14   9    1.60    0.73
   3  14   9    1.07    1.18
   4  14   9    2.93    0.79
   5  14   9    0.91    0.75
   6  14   9    1.23    1.04
  -5  -9  10    0.17    0.65
  -7  -8  10    0.80    0.83
  -6  -8  10    0.87    0.58
  -5  -8  10    0.02    0.52
  -4  -8  10    2.93    0.55
   3   8 -10    5.71    1.14
   2   8 -10    1.31    0.69
   1   8 -10    1.16    0.68
  -8  -7  10    0.24    0.92
  -7  -7  10    0.08    0.58
  -6  -7  10    0.91    0.50
  -5  -7  10    0.35    0.46
  -4  -7  10   -0.45    0.42
   3   7 -10    5.52    1.05
  -3  -7  10    3.46    0.68
   2   7 -10   11.73    1.15
   1   7 -10    0.88    0.60
   0   7 -10    1.09    0.55
  -1   7 -10    0.12    0.57
  -8  -6  10    1.16    0.66
  -7  -6  10    0.05    0.53
  -6  -6  10    0.54    0.41
  -5  -6  10    0.02    0.36
  -4  -6  10    3.04    0.44
   3   6 -10    0.89    0.51
  -3  -6  10    0.13    0.33
   2   6 -10    6.02    0.83
  -2  -6  10    4.29    0.62
   1   6 -10    8.11    0.90
   0   6 -10   13.86    1.04
  -1   6 -10    1.03    0.47
  -2   6 -10   -0.33    0.47
  -9  -5  10   -0.27    0.77
  -8  -5  10    0.34    0.53
  -7  -5  10    0.56    0.46
  -6  -5  10    1.67    0.43
  -5  -5  10    8.64    0.66
  -4  -5  10    2.60    0.47
  -3  -5  10    1.67    0.31
   2   5 -10    0.29    0.32
  -2  -5  10    0.01    0.29
   1   5 -10    0.42    0.45
   0   5 -10   10.66    0.83
  -1   5 -10    1.33    0.44
  -2   5 -10    9.49    0.85
  -3   5 -10   -0.68    0.45
  -4   5 -10    0.42    0.76
  -9  -4  10    0.20    0.66
  -8  -4  10    3.55    0.62
  -7  -4  10   -0.76    0.40
  -6  -4  10    2.18    0.37
  -5  -4  10    1.36    0.39
  -4  -4  10    0.46    0.25
   3   4 -10    2.87    0.41
  -3  -4  10    3.74    0.43
   2   4 -10   11.12    0.64
  -2  -4  10   10.59    0.59
   1   4 -10    0.82    0.30
  -1  -4  10    0.50    0.22
   0   4 -10    5.03    0.61
  -1   4 -10   -0.37    0.35
  -2   4 -10   11.00    0.77
  -3   4 -10   17.97    1.02
  -4   4 -10    0.99    0.50
  -9  -3  10    0.18    0.64
  -8  -3  10    8.32    0.93
  -7  -3  10    0.51    0.39
  -6  -3  10    5.17    0.67
  -5  -3  10    3.94    0.49
  -4  -3  10    1.14    0.24
   3   3 -10    9.15    0.49
  -3  -3  10    9.45    0.54
   2   3 -10    8.46    0.50
  -2  -3  10    8.62    0.50
   1   3 -10   13.83    0.67
  -1  -3  10   13.84    0.63
   0   3 -10    3.06    0.44
   0  -3  10    2.04    0.39
  -1   3 -10    8.02    0.58
  -2   3 -10    0.74    0.34
  -3   3 -10   -0.22    0.33
  -4   3 -10    6.42    0.71
  -5   3 -10    3.24    0.61
  -9  -2  10    3.18    0.71
  -8  -2  10    0.41    0.48
  -7  -2  10    0.35    0.38
  -6  -2  10    7.54    0.73
  -5  -2  10    0.12    0.24
  -4  -2  10    9.40    0.53
  -3  -2  10    4.24    0.38
  -3  -2  10    5.19    0.62
   2   2 -10    1.20    0.20
  -2  -2  10    1.80    0.43
  -2  -2  10    1.09    0.21
   1   2 -10    1.26    0.24
  -1  -2  10    1.06    0.33
   0   2 -10   22.68    0.88
   0  -2  10   23.50    0.88
   0  -2  10   22.83    0.94
  -1   2 -10    6.71    0.51
  -2   2 -10    0.42    0.23
  -3   2 -10    0.28    0.35
  -4   2 -10    4.38    0.61
  -5   2 -10    0.70    0.49
  -6   2 -10    0.97    0.62
  -9  -1  10    0.14    0.61
  -8  -1  10    8.49    0.90
  -7  -1  10    0.86    0.38
  -6  -1  10   15.23    0.86
  -5  -1  10    1.07    0.26
  -5  -1  10    0.86    0.36
  -4  -1  10    4.86    0.42
  -4  -1  10    4.79    0.47
  -3  -1  10   11.82    0.64
  -3  -1  10   11.96    0.58
   2   1 -10    1.88    0.30
  -2  -1  10    2.07    0.41
  -2  -1  10    1.64    0.28
   1   1 -10    1.87    0.29
  -1  -1  10    1.58    0.23
  -1  -1  10    1.89    0.37
   0   1 -10    0.37    0.20
   0  -1  10    0.77    0.27
   0  -1  10    0.44    0.18
  -1   1 -10    8.29    0.50
   1  -1  10    8.34    0.55
  -2   1 -10    0.10    0.23
  -3   1 -10    0.73    0.27
  -4   1 -10   -0.11    0.31
  -5   1 -10    3.57    0.62
  -6   1 -10   -0.08    0.48
  -9   0  10    3.68    0.70
  -8   0  10    4.02    0.80
  -7   0  10    4.77    0.67
  -7   0  10    4.13    0.71
  -6   0  10   -0.39    0.29
  -5   0  10    4.29    0.52
  -5   0  10    5.52    0.47
  -4   0  10    0.20    0.20
  -4   0  10    0.03    0.27
  -3   0  10   14.29    0.69
  -3   0  10   13.74    0.63
  -2   0  10    1.26    0.28
  -2   0  10    1.16    0.20
   1   0 -10    5.88    0.47
  -1   0  10    6.07    0.38
  -1   0  10    5.71    0.43
   0   0 -10    5.58    0.38
   0   0  10    5.69    0.45
   0   0  10    5.90    0.43
  -1   0 -10    4.03    0.39
   1   0  10    4.36    0.49
   1   0  10    4.88    0.43
  -2   0 -10    0.04    0.20
   2   0  10    0.07    0.31
  -3   0 -10    0.94    0.25
  -4   0 -10   10.91    0.75
  -5   0 -10   -0.28    0.35
  -6   0 -10    0.33    0.48
  -7   0 -10   -0.05    0.58
  -9   1  10    0.07    0.68
  -8   1  10    2.10    0.57
  -8   1  10    2.89    0.75
  -7   1  10    0.74    0.38
  -7   1  10    0.64    0.50
  -6   1  10    0.19    0.31
  -6   1  10   -0.41    0.37
  -5   1  10   -0.20    0.25
  -5   1  10   -0.29    0.30
  -4   1  10    4.60    0.43
  -4   1  10    3.67    0.44
  -3   1  10    4.99    0.42
  -3   1  10    4.54    0.38
  -2   1  10   17.51    0.72
  -2   1  10   18.40    0.80
   1  -1 -10    4.79    0.30
  -1   1  10    4.83    0.41
   0  -1 -10   43.09    1.35
   0   1  10   41.59    1.47
   0   1  10   42.66    1.35
  -1  -1 -10    1.65    0.33
   1   1  10    2.25    0.29
   1   1  10    2.97    0.35
  -2  -1 -10   10.02    0.52
   2   1  10    9.36    0.58
  -3  -1 -10    0.17    0.22
   3   1  10    0.24    0.32
  -4  -1 -10   -0.11    0.24
  -5  -1 -10    3.08    0.54
  -6  -1 -10    0.50    0.43
  -7  -1 -10   -0.12    0.51
  -9   2  10   -0.18    0.66
  -8   2  10    4.10    0.73
  -8   2  10    3.35    0.60
  -7   2  10    0.39    0.38
  -7   2  10    0.32    0.52
  -6   2  10    2.70    0.50
  -6   2  10    3.52    0.58
  -5   2  10   -0.35    0.29
  -4   2  10    0.36    0.23
  -4   2  10   -0.21    0.26
  -3   2  10   14.95    0.66
  -3   2  10   15.17    0.75
  -2   2  10    8.51    0.47
  -2   2  10    8.88    0.53
  -1   2  10    3.66    0.38
  -1   2  10    3.70    0.51
   0  -2 -10    0.11    0.18
   0   2  10    0.30    0.24
   0   2  10    0.07    0.15
  -1  -2 -10    2.71    0.31
   1   2  10    3.56    0.35
   1   2  10    2.78    0.26
  -2  -2 -10   16.55    0.70
   2   2  10   16.79    0.79
  -3  -2 -10    1.15    0.25
  -4  -2 -10   -0.34    0.25
  -5  -2 -10    0.77    0.40
  -6  -2 -10    1.78    0.42
  -7  -2 -10    0.01    0.49
  -8  -2 -10    1.15    0.62
  -9   3  10   -0.83    0.74
  -9   3  10    1.13    0.98
  -8   3  10   -0.43    0.62
  -8   3  10    0.64    0.56
  -7   3  10    3.39    0.70
  -7   3  10    3.98    0.74
  -6   3  10    1.21    0.44
  -6   3  10    1.49    0.49
  -5   3  10    2.72    0.50
  -5   3  10    3.60    0.48
  -4   3  10    2.60    0.41
  -3   3  10    0.62    0.27
  -3   3  10    0.79    0.20
  -2   3  10    1.58    0.35
  -1   3  10    0.24    0.24
  -1   3  10    0.73    0.24
   0  -3 -10    1.38    0.22
   0   3  10    1.80    0.28
   0   3  10    1.42    0.27
  -1  -3 -10    0.13    0.23
   1   3  10    0.31    0.15
   1   3  10    0.18    0.23
  -2  -3 -10   -0.26    0.21
   2   3  10   -0.04    0.23
  -3  -3 -10   -0.12    0.22
   3   3  10    0.20    0.27
  -4  -3 -10    4.66    0.46
   4   3  10    5.83    0.57
  -6  -3 -10   10.43    0.77
  -7  -3 -10    0.83    0.52
  -8  -3 -10    2.48    0.66
  -8   4  10   -0.18    0.61
  -8   4  10   -0.04    0.59
  -7   4  10    2.59    0.60
  -7   4  10    2.51    0.50
  -6   4  10    0.45    0.38
  -6   4  10    0.38    0.46
  -5   4  10    5.51    0.55
  -5   4  10    5.80    0.57
  -4   4  10    3.85    0.42
  -4   4  10    3.04    0.43
  -3   4  10    4.95    0.43
  -3   4  10    3.69    0.43
  -2   4  10    9.77    0.61
  -2   4  10    9.72    0.54
  -1   4  10    0.66    0.26
  -1   4  10    0.73    0.26
   0  -4 -10    4.07    0.28
   0   4  10    4.24    0.33
   0   4  10    4.38    0.39
  -1  -4 -10    6.80    0.54
   1   4  10    6.89    0.33
   1   4  10    6.98    0.47
  -2  -4 -10   28.47    1.03
   2   4  10   29.87    1.16
  -3  -4 -10   13.00    0.62
   3   4  10   12.41    0.68
  -4  -4 -10   33.01    1.20
   4   4  10   32.09    1.31
  -5  -4 -10   10.57    0.65
  -6  -4 -10    1.84    0.42
  -7  -4 -10   -0.15    0.46
  -8  -4 -10    7.08    0.98
  -8   5  10    0.88    0.79
  -8   5  10    1.69    0.68
  -7   5  10    0.08    0.53
  -6   5  10    6.08    0.70
  -5   5  10    1.24    0.46
  -4   5  10    2.29    0.39
  -3   5  10   14.91    0.78
  -2   5  10    9.04    0.55
  -2   5  10    8.98    0.59
  -1   5  10   13.16    0.74
  -1   5  10   13.81    0.73
   0   5  10    0.35    0.22
   0   5  10    0.57    0.18
  -1  -5 -10    1.37    0.35
   1   5  10    1.39    0.26
   1   5  10    1.14    0.14
  -2  -5 -10   -0.13    0.21
   2   5  10    0.00    0.23
  -3  -5 -10    4.69    0.42
   3   5  10    4.67    0.42
  -4  -5 -10   81.70    2.49
   4   5  10   80.30    2.63
  -5  -5 -10   -0.19    0.30
   5   5  10    0.46    0.36
  -6  -5 -10   33.14    1.37
  -7  -5 -10    4.63    0.74
  -8  -5 -10    2.42    0.62
  -7   6  10    1.34    0.69
  -6   6  10    1.58    0.57
  -5   6  10    7.85    0.74
  -4   6  10   12.07    0.77
  -3   6  10    2.37    0.42
  -2   6  10    7.82    0.56
  -1   6  10   13.13    0.76
  -1   6  10   12.89    0.71
   0   6  10    0.15    0.20
   0   6  10    0.33    0.25
  -1  -6 -10    3.53    0.54
  -1  -6 -10    3.52    0.54
   1   6  10    3.28    0.38
   1   6  10    2.94    0.41
  -2  -6 -10   38.35    1.25
  -2  -6 -10   38.91    1.28
   2   6  10   36.30    1.40
  -3  -6 -10    7.63    0.52
  -3  -6 -10    7.25    0.51
   3   6  10    6.35    0.51
  -4  -6 -10   16.36    0.80
  -4  -6 -10   16.61    0.79
   4   6  10   15.35    0.82
  -5  -6 -10   21.34    0.95
  -5  -6 -10   21.55    0.95
   5   6  10   21.83    1.06
  -6  -6 -10   37.63    1.50
  -6  -6 -10   36.42    1.49
  -7  -6 -10   12.85    0.94
  -8  -6 -10    3.22    0.69
  -9  -6 -10    0.55    0.96
  -7   7  10   -0.09    0.78
  -6   7  10   11.02    1.04
  -5   7  10    2.69    0.59
  -4   7  10   13.16    0.95
  -3   7  10    5.15    0.57
  -2   7  10    1.25    0.35
  -1   7  10   11.45    0.70
   0   7  10   19.21    0.91
   1   7  10   29.70    1.20
   2   7  10    4.33    0.44
   3   7  10   27.23    1.14
  -4  -7 -10   12.19    0.75
  -4  -7 -10   13.10    0.74
   4   7  10   12.46    0.75
  -5  -7 -10    0.32    0.37
  -5  -7 -10    0.71    0.36
   5   7  10    1.22    0.39
  -6  -7 -10   11.72    0.88
  -6  -7 -10   10.65    0.85
   6   7  10   11.63    0.91
  -7  -7 -10    1.63    0.50
  -7  -7 -10    1.17    0.54
  -8  -7 -10    8.42    1.02
  -8  -7 -10    8.18    1.00
  -9  -7 -10    0.87    0.97
  -6   8  10    1.32    0.71
  -5   8  10   11.77    1.00
  -4   8  10    5.29    0.72
  -3   8  10    2.40    0.63
  -2   8  10   15.32    0.85
  -1   8  10    1.84    0.42
   0   8  10    2.40    0.41
   1   8  10    0.16    0.29
   2   8  10    0.18    0.28
   2   8  10    0.55    0.32
   3   8  10   14.96    0.74
   3   8  10   15.36    0.85
   4   8  10   20.34    1.02
   4   8  10   20.75    0.93
   5   8  10    6.97    0.74
   5   8  10    7.25    0.71
  -6  -8 -10    1.15    0.51
  -6  -8 -10    0.79    0.46
   6   8  10    1.89    0.54
  -7  -8 -10    0.39    0.53
  -7  -8 -10   -0.13    0.57
  -8  -8 -10    0.17    0.60
  -8  -8 -10    1.20    0.66
  -9  -8 -10    0.61    1.33
  -6   9  10    1.95    1.05
  -5   9  10   -0.57    0.65
  -4   9  10   22.06    1.26
  -3   9  10    5.79    0.70
  -2   9  10   32.06    1.44
  -1   9  10   -0.34    0.33
   0   9  10    1.31    0.39
   1   9  10   -0.04    0.32
   2   9  10    2.89    0.51
   2   9  10    3.39    0.47
   3   9  10   16.87    0.85
   3   9  10   18.10    0.96
   4   9  10    0.14    0.38
   4   9  10    0.62    0.39
   5   9  10    3.75    0.75
   5   9  10    5.26    0.73
   6   9  10    1.40    0.51
   6   9  10    2.11    0.60
  -7  -9 -10    1.47    0.68
  -7  -9 -10    2.21    0.62
  -8  -9 -10    1.79    0.71
  -8  -9 -10    1.36    0.71
  -5  10  10    1.73    0.86
  -4  10  10   -0.55    0.63
  -3  10  10    7.52    0.86
  -2  10  10    2.89    0.58
  -1  10  10    9.19    0.87
   0  10  10   27.47    1.26
   1  10  10    6.71    0.66
   2  10  10    1.34    0.42
   3  10  10    4.87    0.67
   3  10  10    5.65    0.74
   4  10  10    0.58    0.46
   4  10  10    0.28    0.46
   5  10  10    3.09    0.61
   5  10  10    4.47    0.83
   6  10  10    1.83    0.59
   7  10  10    1.16    0.62
  -8 -10 -10   -0.02    0.80
  -8 -10 -10    0.34    0.74
  -4  11  10    4.71    1.11
  -3  11  10    3.31    0.73
  -2  11  10    1.86    0.62
  -1  11  10    2.65    0.61
   0  11  10   21.56    1.29
   1  11  10    3.27    0.67
   2  11  10    4.44    0.65
   3  11  10   -0.85    0.50
   3  11  10    1.11    0.53
   4  11  10    4.84    0.95
   4  11  10    3.17    0.61
   5  11  10   -0.24    0.74
   5  11  10    0.34    0.60
   6  11  10   -0.11    0.62
   6  11  10    1.24    0.99
   7  11  10    0.31    0.73
   7  11  10    1.81    1.05
   8  11  10    1.27    1.04
  -3  12  10    0.06    0.79
  -2  12  10   -0.21    0.68
  -1  12  10   -0.10    0.61
   0  12  10   -0.31    0.63
   1  12  10    6.17    0.98
   2  12  10    6.37    1.12
   3  12  10    7.67    1.48
   4  12  10    3.15    0.99
   4  12  10    2.96    0.67
   5  12  10   -0.21    0.61
   5  12  10    1.17    1.07
   6  12  10   -0.08    0.70
   6  12  10    1.09    0.93
   7  12  10   -0.23    0.81
   7  12  10    0.63    0.96
  -2  13  10    4.14    1.09
  -1  13  10    2.58    0.99
   0  13  10   -0.13    0.88
   1  13  10   -0.28    0.79
   2  13  10    1.93    0.77
   3  13  10    2.23    0.93
   4  13  10    3.00    0.95
   4  13  10    1.94    0.95
   5  13  10    3.50    0.93
   5  13  10    2.46    0.76
   6  13  10    1.79    0.98
   6  13  10    1.66    0.82
  -1  14  10   -0.99    1.12
   0  14  10   -0.36    0.89
   1  14  10    0.45    0.91
   2  14  10    1.33    0.87
   3  14  10    8.34    1.49
   5  14  10    2.26    0.92
  -5  -8  11   -0.47    0.71
  -4  -8  11   -0.94    0.56
  -6  -7  11   -0.05    0.58
  -5  -7  11    0.81    0.52
  -4  -7  11   -0.20    0.48
  -3  -7  11   -0.06    0.47
   2   7 -11    1.69    0.59
   1   7 -11    1.15    0.56
   0   7 -11    0.90    0.85
  -7  -6  11    0.71    0.58
  -6  -6  11    0.80    0.51
  -5  -6  11    0.48    0.48
  -4  -6  11    1.12    0.41
  -3  -6  11    0.22    0.40
   2   6 -11    6.86    0.86
   1   6 -11    1.04    0.61
   0   6 -11    0.18    0.56
  -1   6 -11    0.54    0.65
  -8  -5  11    0.54    0.69
  -7  -5  11    0.17    0.54
  -6  -5  11    0.83    0.47
  -5  -5  11    0.53    0.41
  -4  -5  11   -0.21    0.35
  -3  -5  11    1.41    0.36
   2   5 -11    0.63    0.41
  -2  -5  11    0.15    0.34
   1   5 -11    2.76    0.56
   0   5 -11    8.81    0.91
  -1   5 -11    0.28    0.54
  -2   5 -11    0.01    0.53
  -8  -4  11    0.00    0.59
  -7  -4  11   -0.05    0.49
  -6  -4  11    0.11    0.41
  -5  -4  11    1.22    0.37
  -4  -4  11    0.03    0.32
  -3  -4  11    0.35    0.38
   2   4 -11    5.75    0.53
  -2  -4  11    5.24    0.57
   1   4 -11    1.25    0.46
  -1  -4  11    0.97    0.33
   0   4 -11    4.98    0.75
  -1   4 -11   10.03    0.92
  -2   4 -11    8.90    0.92
  -3   4 -11   -0.42    0.47
  -4   4 -11   -0.51    1.02
  -8  -3  11    2.16    0.62
  -7  -3  11    0.74    0.50
  -6  -3  11    0.12    0.40
  -5  -3  11    0.06    0.32
  -4  -3  11    4.99    0.61
  -3  -3  11   10.80    0.65
   2   3 -11    2.11    0.37
   1   3 -11    2.79    0.48
  -1  -3  11    3.05    0.49
   0   3 -11    1.06    0.37
  -1   3 -11    0.35    0.46
  -2   3 -11   10.24    0.84
  -3   3 -11   -0.18    0.43
  -4   3 -11    6.13    0.83
  -9  -2  11    0.29    1.12
  -8  -2  11    0.73    0.55
  -7  -2  11    1.07    0.45
  -6  -2  11    5.23    0.68
  -5  -2  11   -0.25    0.37
  -4  -2  11    2.02    0.32
  -3  -2  11    0.43    0.23
  -2  -2  11    0.88    0.25
  -2  -2  11    1.29    0.39
   1   2 -11   12.53    0.63
  -1  -2  11   13.59    0.71
  -1  -2  11   13.58    0.68
   0   2 -11    8.12    0.58
   0  -2  11    8.26    0.55
  -1   2 -11    0.49    0.31
  -2   2 -11    2.95    0.52
  -3   2 -11   -0.42    0.37
  -4   2 -11    5.00    0.77
  -5   2 -11    6.23    0.91
  -9  -1  11    0.59    0.86
  -8  -1  11    5.32    0.96
  -7  -1  11    1.30    0.49
  -6  -1  11   13.14    0.84
  -5  -1  11    0.19    0.28
  -4  -1  11    8.71    0.60
  -4  -1  11    9.40    0.65
  -3  -1  11    5.40    0.50
  -3  -1  11    3.49    0.42
  -2  -1  11    5.70    0.48
  -2  -1  11    5.29    0.44
   1   1 -11   11.79    0.56
  -1  -1  11   12.40    0.64
  -1  -1  11   11.61    0.60
   0   1 -11    2.46    0.40
   0  -1  11    3.05    0.48
   0  -1  11    2.97    0.38
  -1   1 -11    5.36    0.50
  -2   1 -11    4.67    0.58
  -3   1 -11    3.66    0.61
  -4   1 -11    0.14    0.40
  -5   1 -11   -0.29    0.49
  -6   1 -11    1.98    0.67
  -9   0  11    0.42    0.96
  -8   0  11    4.36    0.66
  -7   0  11    7.27    0.84
  -6   0  11    1.77    0.41
  -5   0  11    0.77    0.32
  -5   0  11    0.79    0.40
  -4   0  11   22.30    0.97
  -4   0  11   22.75    0.96
  -3   0  11    0.34    0.22
  -3   0  11    0.67    0.32
  -2   0  11   12.06    0.62
  -2   0  11   12.00    0.63
   1   0 -11    8.65    0.44
  -1   0  11    9.11    0.54
  -1   0  11    8.05    0.52
   0   0 -11   -0.21    0.21
   0   0  11    0.05    0.19
  -1   0 -11    0.82    0.26
   1   0  11    0.67    0.35
   1   0  11    0.81    0.22
  -2   0 -11   16.14    0.79
  -3   0 -11    9.08    0.71
  -4   0 -11    0.03    0.34
  -5   0 -11    0.33    0.44
  -6   0 -11   -0.86    0.50
  -8   1  11    8.47    1.03
  -7   1  11    0.43    0.44
  -7   1  11   -0.27    0.66
  -6   1  11   17.57    1.01
  -6   1  11   19.52    1.02
  -5   1  11    9.51    0.70
  -5   1  11    9.94    0.67
  -4   1  11   19.43    0.91
  -4   1  11   20.87    0.89
  -3   1  11    0.05    0.31
  -3   1  11    0.28    0.22
  -2   1  11    2.45    0.37
  -2   1  11    2.05    0.39
  -1   1  11    6.64    0.46
  -1   1  11    7.18    0.51
   0  -1 -11    4.32    0.37
   0   1  11    4.48    0.38
   0   1  11    4.69    0.45
  -1  -1 -11   -0.04    0.24
   1   1  11    0.06    0.31
   1   1  11   -0.16    0.26
  -2  -1 -11    1.21    0.29
   2   1  11    1.29    0.37
  -3  -1 -11    4.89    0.53
  -4  -1 -11    1.25    0.40
  -5  -1 -11   -0.58    0.39
  -6  -1 -11    0.28    0.50
  -7  -1 -11   -0.17    0.65
  -8   2  11    4.76    0.87
  -8   2  11    5.61    1.03
  -7   2  11    3.80    0.80
  -6   2  11    7.38    0.78
  -6   2  11    5.97    0.71
  -5   2  11    9.53    0.69
  -5   2  11    9.62    0.72
  -4   2  11    5.11    0.52
  -4   2  11    6.37    0.51
  -3   2  11    2.07    0.39
  -3   2  11    2.09    0.41
  -2   2  11    5.99    0.48
  -2   2  11    6.49    0.50
  -1   2  11    8.92    0.50
  -1   2  11    9.83    0.58
   0  -2 -11    6.31    0.49
   0   2  11    6.52    0.56
   0   2  11    7.03    0.50
  -1  -2 -11    6.81    0.44
   1   2  11    5.77    0.38
   1   2  11    6.89    0.51
  -2  -2 -11    0.03    0.23
   2   2  11    0.53    0.34
  -3  -2 -11    4.02    0.47
   3   2  11    2.69    0.57
  -4  -2 -11   -0.07    0.33
  -5  -2 -11    0.42    0.37
  -6  -2 -11    3.43    0.72
  -7  -2 -11    0.49    0.55
  -8   3  11    0.59    0.60
  -8   3  11   -0.85    0.67
  -7   3  11    0.71    0.52
  -7   3  11    0.44    0.59
  -6   3  11    7.96    0.78
  -6   3  11    7.69    0.79
  -5   3  11    1.91    0.36
  -5   3  11    1.31    0.42
  -4   3  11    1.56    0.30
  -4   3  11    0.91    0.36
  -3   3  11    3.74    0.45
  -3   3  11    3.21    0.44
  -2   3  11    2.67    0.40
  -2   3  11    2.76    0.41
  -1   3  11   10.08    0.60
  -1   3  11   10.07    0.55
   0  -3 -11   11.70    0.53
   0   3  11   11.55    0.66
   0   3  11   11.27    0.59
  -1  -3 -11    7.77    0.45
   1   3  11    7.83    0.37
   1   3  11    7.94    0.55
  -2  -3 -11   12.73    0.63
   2   3  11   12.68    0.71
  -3  -3 -11    0.15    0.28
   3   3  11    0.48    0.35
  -4  -3 -11    2.99    0.50
   4   3  11    3.08    0.63
  -5  -3 -11    0.23    0.36
  -6  -3 -11   -0.45    0.44
  -7  -3 -11    0.87    0.57
  -8   4  11   -0.72    0.73
  -8   4  11    0.57    0.69
  -7   4  11    0.69    0.62
  -7   4  11    0.81    0.54
  -6   4  11    5.27    0.79
  -6   4  11    4.59    0.72
  -5   4  11   -0.43    0.41
  -5   4  11    0.38    0.38
  -4   4  11    1.20    0.36
  -4   4  11    1.57    0.36
  -3   4  11   -0.23    0.31
  -3   4  11    0.18    0.27
  -2   4  11    0.36    0.25
  -2   4  11    0.12    0.31
  -1   4  11   12.53    0.69
  -1   4  11   11.10    0.61
   0   4  11    7.55    0.56
   0   4  11    8.30    0.46
  -1  -4 -11    1.25    0.26
   1   4  11    1.26    0.30
  -2  -4 -11    2.17    0.39
   2   4  11    2.31    0.42
  -3  -4 -11    0.40    0.29
   3   4  11    0.43    0.32
  -4  -4 -11    9.38    0.68
   4   4  11   12.50    0.80
  -5  -4 -11    0.49    0.44
  -6  -4 -11   -0.25    0.46
  -7  -4 -11   -0.18    0.53
  -8  -4 -11    0.24    0.71
  -8   5  11   -1.45    1.59
  -7   5  11    1.07    0.58
  -6   5  11    2.04    0.49
  -6   5  11    1.72    0.54
  -5   5  11    3.14    0.56
  -5   5  11    2.81    0.61
  -4   5  11    6.71    0.66
  -4   5  11    4.82    0.60
  -3   5  11    1.56    0.40
  -3   5  11    2.25    0.36
  -2   5  11    7.30    0.54
  -2   5  11    6.80    0.58
  -1   5  11    1.50    0.33
  -1   5  11    1.20    0.29
   0   5  11    0.07    0.19
   0   5  11    0.19    0.28
  -1  -5 -11    2.81    0.42
   1   5  11    3.18    0.42
  -2  -5 -11    1.56    0.29
   2   5  11    1.65    0.33
  -3  -5 -11    1.69    0.31
   3   5  11    1.87    0.40
  -4  -5 -11    0.24    0.33
   4   5  11    0.85    0.37
  -5  -5 -11   -0.31    0.47
   5   5  11    0.70    0.48
  -6  -5 -11    1.39    0.48
  -7  -5 -11   -0.06    0.53
  -8  -5 -11    2.95    0.76
  -7   6  11   -0.40    0.74
  -7   6  11   -0.08    0.62
  -5   6  11    3.92    0.63
  -4   6  11    0.09    0.49
  -3   6  11   12.82    0.76
  -3   6  11   12.47    0.79
  -2   6  11    0.35    0.28
  -2   6  11   -0.29    0.32
  -1   6  11    8.07    0.54
  -1   6  11    7.77    0.59
   0   6  11    1.60    0.24
   0   6  11    1.82    0.39
  -1  -6 -11    0.31    0.25
   1   6  11    0.13    0.30
  -2  -6 -11    2.12    0.41
   2   6  11    2.32    0.39
  -3  -6 -11    2.62    0.48
   3   6  11    2.11    0.48
  -4  -6 -11    7.62    0.69
   4   6  11    9.31    0.70
  -5  -6 -11    4.30    0.85
   5   6  11    5.23    0.73
  -6  -6 -11    9.51    0.82
  -7  -6 -11    1.84    0.59
  -8  -6 -11    2.03    0.73
  -5   7  11   -0.53    0.54
  -4   7  11    2.73    0.64
  -3   7  11    1.20    0.49
  -2   7  11    3.25    0.54
  -1   7  11    3.13    0.42
  -1   7  11    2.40    0.49
   0   7  11    8.26    0.62
   1   7  11    1.24    0.32
  -2  -7 -11    2.15    0.43
  -2  -7 -11    1.36    0.32
   2   7  11    2.31    0.38
  -3  -7 -11   -0.31    0.35
   3   7  11    0.12    0.34
  -4  -7 -11    1.40    0.41
  -4  -7 -11    2.17    0.48
   4   7  11    2.24    0.45
  -5  -7 -11    0.86    0.63
  -5  -7 -11    0.09    0.69
  -6  -7 -11   27.08    1.32
  -6  -7 -11   25.76    1.33
   6   7  11   28.50    1.59
  -7  -7 -11    0.69    0.61
  -8  -7 -11   10.58    1.23
  -6   8  11   -0.88    0.81
  -4   8  11    2.50    0.60
  -3   8  11    3.26    0.63
  -2   8  11   11.54    0.94
  -1   8  11    0.59    0.39
   0   8  11    1.23    0.40
   1   8  11   12.62    0.79
  -2  -8 -11    1.95    0.34
  -2  -8 -11    3.05    0.45
   2   8  11    2.41    0.45
  -3  -8 -11    7.04    0.63
  -3  -8 -11    6.33    0.65
   3   8  11    5.68    0.67
  -4  -8 -11    8.31    0.76
  -4  -8 -11    6.44    0.75
   4   8  11    9.60    0.81
  -5  -8 -11    2.40    0.72
  -5  -8 -11    2.68    0.78
   5   8  11    3.51    0.60
  -6  -8 -11    3.39    0.76
  -6  -8 -11    3.23    0.69
   6   8  11    4.98    0.88
  -7  -8 -11    7.78    1.00
  -7  -8 -11    5.71    1.03
  -8  -8 -11   11.52    1.31
  -4   9  11    4.44    0.82
  -3   9  11    4.30    0.73
  -2   9  11    3.64    0.62
  -1   9  11    8.48    0.88
   0   9  11    1.69    0.47
   1   9  11    4.60    0.58
   2   9  11   12.80    0.88
   3   9  11    5.41    0.64
   3   9  11    5.43    0.71
   4   9  11    0.59    0.46
   4   9  11    1.32    0.54
   5   9  11    5.01    1.02
  -6  -9 -11    7.38    1.15
  -6  -9 -11    7.17    1.10
   6   9  11    6.79    1.10
  -7  -9 -11    1.22    0.72
  -7  -9 -11    1.72    0.66
  -8  -9 -11    6.51    1.29
  -8  -9 -11    4.77    1.00
  -4  10  11    0.28    0.70
  -3  10  11    4.56    0.84
  -2  10  11   14.25    1.04
  -1  10  11   -0.48    0.49
   0  10  11   19.14    1.14
   1  10  11    0.09    0.47
   2  10  11    0.62    0.48
   3  10  11    2.58    0.63
   4  10  11    1.61    0.58
   4  10  11    1.95    0.68
   5  10  11    9.13    0.96
   5  10  11   10.92    1.18
   6  10  11    5.04    0.74
   6  10  11    5.25    0.99
  -7 -10 -11    3.71    0.85
  -7 -10 -11    3.14    0.79
  -8 -10 -11   -0.59    1.01
  -8 -10 -11    0.92    1.11
  -4  11  11    3.14    1.54
  -3  11  11   -0.42    0.63
  -2  11  11    9.27    0.98
  -1  11  11   14.23    1.07
   0  11  11    6.01    0.81
   1  11  11    3.03    0.63
   2  11  11    0.63    0.60
   3  11  11    0.06    0.73
   4  11  11    1.95    0.70
   4  11  11    2.91    0.88
   5  11  11    3.71    0.98
   5  11  11    3.13    0.68
   6  11  11   -0.27    0.65
   6  11  11    1.22    1.00
   7  11  11    0.28    0.79
   7  11  11    2.16    1.17
  -3  12  11   -1.52    1.04
  -1  12  11    2.44    0.82
   0  12  11    7.84    0.98
   1  12  11    0.47    0.62
   2  12  11   21.20    1.37
   3  12  11    1.54    0.98
   4  12  11    2.86    0.92
   5  12  11    2.28    0.96
   5  12  11    0.12    0.70
   6  12  11    0.28    0.74
   6  12  11    1.42    1.02
   7  12  11    2.59    1.11
   7  12  11    1.94    1.28
  -2  13  11    2.28    1.63
  -1  13  11    0.04    0.92
   0  13  11    0.94    0.91
   1  13  11    3.23    1.00
   2  13  11    4.12    1.02
   3  13  11    7.41    1.74
   4  13  11    2.23    0.99
   5  13  11    1.29    1.17
   6  13  11    1.50    1.04
   6  13  11    1.12    0.95
   0  14  11    0.53    1.09
   1  14  11    0.21    0.98
   2  14  11    0.99    1.01
   4  14  11   12.76    1.76
  -4  -7  12   -0.18    0.62
  -6  -6  12    0.52    0.72
  -5  -6  12    0.27    0.56
  -4  -6  12    0.57    0.50
  -3  -6  12   -0.24    0.49
   1   6 -12    1.48    0.59
   0   6 -12    2.25    0.78
  -7  -5  12    0.31    0.77
  -6  -5  12    0.25    0.52
  -5  -5  12   -0.15    0.48
  -4  -5  12   -0.16    0.46
  -3  -5  12   -0.18    0.44
  -2  -5  12    0.16    0.47
   1   5 -12    1.48    0.55
   0   5 -12    0.79    0.57
  -1   5 -12   -0.26    0.61
  -7  -4  12    1.35    0.61
  -6  -4  12    0.62    0.50
  -5  -4  12    0.20    0.45
  -4  -4  12    1.11    0.43
  -3  -4  12    0.09    0.39
  -2  -4  12    0.70    0.46
   1   4 -12    0.66    0.45
   0   4 -12    3.01    0.57
  -1   4 -12   -0.37    0.56
  -2   4 -12    0.80    0.57
  -8  -3  12    0.08    1.10
  -7  -3  12   -0.05    0.54
  -6  -3  12    1.74    0.48
  -5  -3  12    0.23    0.41
  -4  -3  12    1.71    0.41
  -3  -3  12    0.37    0.42
  -2  -3  12    0.13    0.44
   1   3 -12    1.18    0.59
  -1  -3  12    0.69    0.39
   0   3 -12    0.23    0.44
  -1   3 -12    1.28    0.52
  -2   3 -12    5.38    0.93
  -3   3 -12    0.31    0.58
  -8  -2  12   -0.29    0.68
  -7  -2  12    1.44    0.53
  -6  -2  12    0.25    0.43
  -5  -2  12    0.61    0.41
  -4  -2  12   -0.34    0.35
  -3  -2  12    5.33    0.64
  -2  -2  12    0.36    0.33
  -1  -2  12    1.11    0.34
   0   2 -12    3.11    0.53
   0  -2  12    3.22    0.56
  -1   2 -12    1.54    0.51
  -2   2 -12    1.60    0.52
  -3   2 -12    6.46    0.91
  -4   2 -12    4.86    0.93
  -8  -1  12    0.95    0.69
  -7  -1  12   -0.17    0.47
  -6  -1  12    0.93    0.44
  -5  -1  12    4.34    0.66
  -4  -1  12    1.49    0.41
  -3  -1  12    0.42    0.31
  -2  -1  12    8.37    0.62
  -2  -1  12    6.40    0.58
  -1  -1  12    3.64    0.52
  -1  -1  12    3.97    0.57
   0  -1  12    0.14    0.27
   0  -1  12    0.15    0.44
  -1   1 -12    0.42    0.36
  -2   1 -12    1.61    0.50
  -3   1 -12    0.86    0.52
  -4   1 -12    7.27    0.91
  -5   1 -12    1.30    0.66
  -8   0  12    0.00    0.64
  -7   0  12    0.62    0.55
  -6   0  12    1.41    0.47
  -5   0  12    0.98    0.40
  -4   0  12    8.65    0.70
  -4   0  12    9.01    0.69
  -3   0  12    0.42    0.31
  -3   0  12    0.19    0.38
  -2   0  12    0.55    0.36
  -2   0  12    0.25    0.26
  -1   0  12   -0.19    0.26
  -1   0  12    0.19    0.37
   0   0 -12    2.42    0.37
   0   0  12    2.61    0.43
   0   0  12    2.99    0.45
  -1   0 -12   15.83    0.80
   1   0  12   18.51    0.96
  -2   0 -12    3.57    0.63
  -3   0 -12    1.06    0.50
  -4   0 -12    0.48    0.50
  -5   0 -12   -0.21    0.49
  -8   1  12    2.14    0.67
  -7   1  12    0.17    0.52
  -6   1  12    8.03    0.87
  -6   1  12    8.36    1.15
  -5   1  12    5.87    0.75
  -5   1  12    5.36    0.72
  -4   1  12    7.70    0.66
  -4   1  12    7.40    0.67
  -3   1  12    1.57    0.39
  -3   1  12    1.59    0.34
  -2   1  12    9.38    0.59
  -2   1  12    9.01    0.62
  -1   1  12    1.68    0.37
  -1   1  12    1.71    0.29
   0  -1 -12    7.94    0.64
   0   1  12    7.78    0.62
   0   1  12    7.63    0.49
  -1  -1 -12    7.84    0.55
   1   1  12    7.99    0.68
   1   1  12    7.19    0.46
  -2  -1 -12    0.59    0.34
   2   1  12   -0.01    0.47
  -3  -1 -12    0.79    0.53
  -4  -1 -12    3.70    0.76
  -5  -1 -12   -0.25    0.49
  -6  -1 -12    0.50    0.61
  -8   2  12    2.17    0.78
  -7   2  12    0.08    0.53
  -7   2  12   -0.33    0.77
  -6   2  12    4.11    0.80
  -6   2  12    3.57    0.78
  -5   2  12    5.47    0.76
  -5   2  12    5.43    0.83
  -4   2  12   11.26    0.77
  -4   2  12   12.20    0.80
  -3   2  12    0.34    0.36
  -3   2  12   -0.12    0.30
  -2   2  12   39.59    1.41
  -2   2  12   42.06    1.53
  -1   2  12    0.12    0.24
  -1   2  12    0.40    0.34
   0   2  12    7.93    0.47
   0   2  12    7.87    0.61
  -1  -2 -12    9.05    0.52
   1   2  12    8.82    0.67
  -2  -2 -12    0.43    0.31
   2   2  12    1.94    0.44
  -3  -2 -12    3.92    0.60
   3   2  12    3.66    0.72
  -4  -2 -12    4.69    0.76
  -5  -2 -12    4.73    0.82
  -6  -2 -12   -0.84    0.51
  -8   3  12   -1.09    0.76
  -8   3  12    0.88    1.26
  -7   3  12    0.56    0.60
  -7   3  12   -0.56    0.62
  -6   3  12   11.17    0.98
  -6   3  12   14.06    1.05
  -5   3  12    2.24    0.59
  -5   3  12    0.82    0.56
  -4   3  12   21.31    1.08
  -4   3  12   22.68    1.08
  -3   3  12   23.99    1.04
  -3   3  12   23.83    1.10
  -2   3  12   10.55    0.67
  -2   3  12   10.72    0.70
  -1   3  12    2.45    0.45
  -1   3  12    1.66    0.28
   0   3  12    1.67    0.27
   0   3  12    1.63    0.38
  -1  -3 -12    1.62    0.25
   1   3  12    2.25    0.51
  -2  -3 -12    4.50    0.50
   2   3  12    4.95    0.62
  -3  -3 -12    0.36    0.35
   3   3  12    1.36    0.46
  -4  -3 -12    0.57    0.57
   4   3  12    0.87    0.60
  -5  -3 -12    0.82    0.51
  -6  -3 -12    2.18    0.57
  -7  -3 -12    1.12    0.69
  -7   4  12    0.14    0.65
  -7   4  12    0.79    0.60
  -6   4  12    4.29    0.65
  -6   4  12    3.56    0.76
  -5   4  12    7.77    0.98
  -5   4  12    5.74    0.78
  -4   4  12   10.51    0.87
  -4   4  12   10.01    0.88
  -3   4  12    6.09    0.62
  -3   4  12    8.00    0.66
  -2   4  12   15.67    0.77
  -2   4  12   16.01    0.84
  -1   4  12    0.29    0.23
  -1   4  12    0.48    0.36
   0   4  12   15.21    0.81
   0   4  12   14.07    0.88
  -1  -4 -12    1.63    0.37
   1   4  12    2.04    0.38
  -2  -4 -12    4.91    0.49
   2   4  12    6.00    0.62
  -3  -4 -12    3.50    0.56
   3   4  12    4.59    0.69
  -4  -4 -12    0.31    0.52
   4   4  12    0.13    0.56
  -5  -4 -12    0.24    0.50
  -6  -4 -12   -0.08    0.53
  -7  -4 -12   -0.50    0.63
  -7   5  12    0.88    0.70
  -6   5  12   -0.57    0.57
  -6   5  12    0.05    0.61
  -5   5  12    2.04    0.60
  -4   5  12   16.91    1.03
  -4   5  12   16.63    1.05
  -3   5  12    3.48    0.61
  -3   5  12    3.84    0.64
  -2   5  12    1.71    0.43
  -2   5  12    1.81    0.35
  -1   5  12   11.11    0.73
  -1   5  12   10.78    0.57
   0   5  12    0.04    0.34
   1   5  12    8.77    0.69
  -2  -5 -12    2.02    0.42
   2   5  12    2.35    0.43
  -3  -5 -12    4.28    0.57
   3   5  12    5.00    0.67
   4   5  12    3.98    0.82
  -5  -5 -12   -0.23    0.54
   5   5  12    0.80    0.68
  -6  -5 -12   -0.09    0.59
  -7  -5 -12    0.15    0.63
  -7   6  12    2.44    0.97
  -6   6  12   -0.40    0.64
  -6   6  12    1.19    0.70
  -5   6  12    1.60    0.57
  -5   6  12    2.93    0.68
  -4   6  12    4.80    0.70
  -4   6  12    4.84    0.72
  -3   6  12   -0.32    0.50
  -3   6  12   -0.34    0.40
  -2   6  12   -0.46    0.40
  -2   6  12    0.49    0.32
  -1   6  12    0.69    0.39
  -1   6  12    0.25    0.25
   0   6  12    0.76    0.36
   1   6  12    3.38    0.57
  -2  -6 -12    5.42    0.45
   2   6  12    4.40    0.64
  -3  -6 -12   -0.27    0.34
   3   6  12   -0.03    0.41
  -4  -6 -12    2.78    0.50
   4   6  12    2.84    0.60
  -5  -6 -12    0.52    0.56
   5   6  12    1.63    0.71
  -6  -6 -12    2.96    0.71
  -7  -6 -12   -0.73    0.58
  -6   7  12   -0.78    0.74
  -6   7  12    0.45    0.71
  -5   7  12    0.24    0.62
  -5   7  12   -0.51    0.60
  -4   7  12    2.41    0.65
  -4   7  12    2.58    0.70
  -3   7  12    0.47    0.43
  -3   7  12    0.34    0.52
  -2   7  12   10.46    0.71
  -2   7  12   10.84    0.96
  -1   7  12   -0.06    0.41
   0   7  12    5.67    0.63
   1   7  12    0.52    0.40
   2   7  12    0.15    0.43
  -3  -7 -12    3.52    0.57
   3   7  12    4.16    0.70
  -4  -7 -12    1.48    0.50
   4   7  12    2.02    0.57
  -5  -7 -12    1.19    0.61
   5   7  12    0.99    0.61
  -6  -7 -12   -0.33    0.61
   6   7  12    0.52    0.70
  -7  -7 -12    0.53    0.65
  -5   8  12   -0.17    0.67
  -4   8  12   -0.66    0.58
  -3   8  12    2.32    0.63
  -2   8  12   -0.19    0.34
  -2   8  12   -0.26    0.51
  -1   8  12    9.73    0.91
   0   8  12    1.02    0.54
   1   8  12    4.42    0.66
   2   8  12    0.42    0.48
  -3  -8 -12    0.42    0.37
   3   8  12    1.17    0.51
  -4  -8 -12    0.89    0.57
  -4  -8 -12    0.31    0.61
   4   8  12    2.17    0.71
  -5  -8 -12   -0.05    0.69
  -5  -8 -12    0.29    0.61
   5   8  12    0.31    0.61
  -6  -8 -12    2.05    0.90
  -6  -8 -12    1.60    0.79
   6   8  12    3.02    0.80
  -7  -8 -12    1.74    0.78
  -5   9  12   -1.27    0.99
  -4   9  12   -0.03    0.67
  -3   9  12    0.24    0.63
  -2   9  12    0.65    0.56
  -1   9  12    1.22    0.53
   0   9  12    1.80    0.54
   1   9  12   -0.09    0.53
   2   9  12    4.70    0.86
   3   9  12    1.18    0.67
  -4  -9 -12    0.62    0.62
  -4  -9 -12   -0.35    0.66
   4   9  12    1.18    0.64
  -5  -9 -12   -0.35    0.71
  -5  -9 -12    0.12    0.67
   5   9  12    1.17    0.68
  -6  -9 -12    0.76    0.85
  -6  -9 -12    0.93    0.72
   6   9  12    1.91    0.85
  -7  -9 -12    0.72    0.81
  -7  -9 -12   -0.70    0.90
  -2  10  12    2.77    0.77
  -1  10  12    0.28    0.60
   0  10  12    6.66    0.81
   1  10  12   -0.04    0.52
   2  10  12   -0.29    0.55
   3  10  12    6.79    1.04
  -4 -10 -12    2.20    0.62
  -5 -10 -12    2.49    0.75
  -5 -10 -12    2.38    0.82
  -6 -10 -12    1.27    0.94
  -6 -10 -12    1.22    0.88
   6  10  12    2.34    0.93
  -7 -10 -12    0.83    1.04
  -7 -10 -12    0.89    0.93
  -2  11  12   -0.92    0.70
  -1  11  12    3.13    0.74
   0  11  12   -0.46    0.55
   1  11  12    4.26    0.86
   2  11  12    2.22    0.68
   3  11  12    2.50    0.79
   4  11  12    5.79    1.02
   5  11  12   -0.12    0.87
  -6 -11 -12    0.63    0.80
  -6 -11 -12    0.88    0.92
   6  11  12    1.40    1.16
  -7 -11 -12    1.42    1.31
  -7 -11 -12    0.33    1.16
   7  11  12    0.12    1.29
  -2  12  12   -0.06    0.90
   0  12  12    9.65    1.15
   1  12  12    1.82    0.76
   2  12  12   13.37    1.36
   3  12  12    2.84    1.01
   4  12  12    2.06    1.15
   5  12  12    1.14    1.20
   6  12  12    3.42    1.26
   6  12  12    2.36    0.92
   7  12  12    2.70    1.31
  -1  13  12   -0.85    1.14
   0  13  12    2.18    0.95
   1  13  12    8.94    1.31
   2  13  12    1.34    1.07
   3  13  12    3.41    1.30
   4  13  12    6.33    1.36
   5  13  12    0.70    1.25
   6  13  12    3.06    1.25
   7  13  12    0.31    1.51
   1  14  12    0.90    1.17
   2  14  12   11.01    1.86
   4  14  12   16.07    2.01
   5  14  12    2.27    1.19
  -4  -6  13    1.39    1.14
  -3  -6  13   -0.72    0.71
  -5  -5  13    2.62    0.69
  -4  -5  13    0.20    0.56
  -3  -5  13    0.18    0.59
  -6  -4  13    0.95    0.66
  -5  -4  13    0.30    0.52
  -4  -4  13    1.73    0.56
  -3  -4  13    0.87    0.57
  -2  -4  13    0.81    0.59
  -1   4 -13    0.56    0.64
  -6  -3  13    0.46    0.58
  -5  -3  13   -0.36    0.48
  -4  -3  13    0.17    0.52
  -3  -3  13    0.93    0.55
  -2  -3  13    0.59    0.47
  -1  -3  13    0.19    0.49
  -1   3 -13    0.25    0.52
  -2   3 -13    0.29    0.53
  -7  -2  13    0.04    0.65
  -6  -2  13    0.21    0.52
  -5  -2  13    2.95    0.55
  -4  -2  13   -0.14    0.47
  -3  -2  13   -0.46    0.47
  -2  -2  13    0.61    0.51
  -1  -2  13   -0.32    0.47
  -1   2 -13   -0.39    0.44
  -2   2 -13    0.76    0.57
  -3   2 -13   -0.83    0.59
  -7  -1  13    1.06    0.68
  -6  -1  13    0.08    0.53
  -5  -1  13   -0.20    0.47
  -4  -1  13    5.14    0.86
  -3  -1  13    0.60    0.56
  -2  -1  13    2.32    0.45
  -1  -1  13    0.78    0.63
  -1  -1  13    0.50    0.37
   0  -1  13    2.45    0.63
   0  -1  13    1.35    0.33
  -1   1 -13    0.28    0.38
  -2   1 -13    0.26    0.50
  -3   1 -13   -0.57    0.58
  -4   1 -13    2.45    0.75
  -7   0  13   -0.12    0.59
  -6   0  13    0.01    0.51
  -5   0  13    1.48    0.53
  -4   0  13    0.93    0.51
  -3   0  13    2.07    0.58
  -3   0  13    1.40    0.47
  -2   0  13    1.72    0.40
  -1   0  13    6.10    0.63
  -1   0  13    8.36    0.79
   0   0  13    1.76    0.56
   0   0  13    0.80    0.27
  -1   0 -13   -0.45    0.35
   1   0  13    0.72    0.61
  -2   0 -13   -0.39    0.42
  -3   0 -13    0.47    0.57
  -4   0 -13    0.89    0.60
  -5   0 -13    2.10    0.86
  -7   1  13    0.68    0.63
  -6   1  13   -0.32    0.51
  -5   1  13   -0.25    0.50
  -4   1  13    1.20    0.59
  -4   1  13    0.30    0.56
  -3   1  13    7.47    0.73
  -3   1  13    9.36    0.76
  -2   1  13    3.28    0.65
  -1   1  13    0.22    0.44
  -1   1  13    0.05    0.28
   0   1  13    3.65    0.45
   1   1  13    0.97    0.56
  -2  -1 -13    0.13    0.46
   2   1  13    0.33    0.65
  -3  -1 -13   -0.35    0.48
  -4  -1 -13    1.34    0.60
  -5  -1 -13    0.96    0.65
  -7   2  13    3.30    0.71
  -6   2  13   -0.39    0.85
  -6   2  13    0.87    0.60
  -5   2  13   -0.58    0.52
  -5   2  13   -0.13    0.64
  -4   2  13    5.78    0.82
  -4   2  13    4.60    0.73
  -3   2  13    0.30    0.50
  -3   2  13    0.33    0.38
  -2   2  13    8.38    0.71
  -2   2  13    7.27    0.66
  -1   2  13    1.12    0.28
  -1   2  13    1.04    0.45
   0   2  13    0.18    0.47
   1   2  13    0.05    0.50
  -2  -2 -13    3.58    0.54
   2   2  13    4.36    0.87
  -3  -2 -13    7.83    0.88
   3   2  13   10.95    1.08
  -4  -2 -13    0.66    0.57
  -5  -2 -13    0.61    0.65
  -6  -2 -13   -0.69    0.81
  -7   3  13    4.60    0.96
  -7   3  13    4.18    0.85
  -6   3  13    5.14    0.80
  -6   3  13    4.01    0.84
  -5   3  13   -0.80    0.59
  -5   3  13   -0.32    0.54
  -4   3  13    4.45    0.73
  -4   3  13    4.03    0.71
  -3   3  13    9.32    0.78
  -3   3  13    9.25    0.82
  -2   3  13    1.13    0.50
  -2   3  13    1.00    0.34
  -1   3  13    1.03    0.26
   0   3  13    8.50    0.73
   1   3  13    0.58    0.46
  -2  -3 -13    5.09    0.51
   2   3  13    4.36    0.89
  -3  -3 -13    2.47    0.57
   3   3  13    3.89    0.90
  -4  -3 -13    0.03    0.55
  -5  -3 -13   -0.04    0.65
  -6  -3 -13    1.54    0.80
  -7   4  13    0.72    0.88
  -6   4  13   -0.50    0.69
  -6   4  13    1.08    0.74
  -5   4  13    3.45    0.70
  -5   4  13    2.40    0.71
  -4   4  13    2.23    0.65
  -4   4  13    2.28    0.64
  -3   4  13    1.34    0.44
  -3   4  13    1.98    0.59
  -2   4  13   19.03    0.91
  -2   4  13   19.92    1.09
  -1   4  13    3.32    0.60
   0   4  13   34.24    1.44
   1   4  13    0.69    0.45
   2   4  13    4.77    0.86
  -3  -4 -13    2.34    0.46
  -4  -4 -13    2.19    0.59
   4   4  13    2.98    0.77
  -5  -4 -13    3.06    0.71
  -6  -4 -13    0.09    0.66
  -6   5  13    4.39    0.82
  -6   5  13    6.85    1.34
  -5   5  13   -0.39    0.65
  -5   5  13    1.15    0.68
  -4   5  13   14.77    1.03
  -4   5  13   15.79    1.33
  -3   5  13    0.98    0.52
  -2   5  13   12.96    0.96
  -2   5  13   12.98    0.72
  -1   5  13   25.36    1.30
   0   5  13    1.91    0.50
   1   5  13    1.43    0.52
   2   5  13    8.96    0.97
  -3  -5 -13    0.69    0.38
   3   5  13    1.29    0.71
  -4  -5 -13    1.96    0.58
   4   5  13    2.80    0.70
  -5  -5 -13    0.80    0.64
   5   5  13    0.78    0.74
  -6  -5 -13   -0.21    0.68
  -6   6  13    0.88    0.70
  -6   6  13   -0.73    0.86
  -5   6  13    1.55    0.74
  -5   6  13    1.18    0.69
  -4   6  13    1.79    0.63
  -4   6  13    0.95    0.61
  -3   6  13    5.12    0.80
  -3   6  13    5.42    0.80
  -2   6  13   12.61    0.93
  -2   6  13   12.41    0.86
  -1   6  13    2.18    0.64
   0   6  13   18.22    1.18
   1   6  13    6.18    0.94
   2   6  13   14.10    1.12
  -3  -6 -13    0.02    0.39
   3   6  13    0.12    0.60
  -4  -6 -13    0.16    0.58
   4   6  13    0.80    0.64
  -5  -6 -13    0.80    0.65
   5   6  13    1.53    0.82
  -6  -6 -13    0.51    0.71
  -7  -6 -13   -0.73    0.94
  -6   7  13   -0.64    0.87
  -5   7  13   -0.64    0.69
  -4   7  13    2.19    0.64
  -4   7  13    0.93    0.72
  -3   7  13    3.46    0.77
  -3   7  13    1.90    0.53
  -2   7  13   19.71    1.16
  -1   7  13    4.48    0.74
   0   7  13    3.49    0.66
   1   7  13   12.44    1.09
   2   7  13    0.62    0.65
   3   7  13    4.21    0.82
  -4  -7 -13    0.11    0.54
   4   7  13    0.65    0.64
  -5  -7 -13    0.39    0.65
   5   7  13    0.76    0.79
  -6  -7 -13   -0.66    0.70
  -7  -7 -13    0.14    0.89
  -5   8  13    3.05    0.76
  -5   8  13    2.84    1.11
  -4   8  13   -0.75    0.67
  -4   8  13    0.51    0.62
  -3   8  13    3.68    0.81
  -2   8  13    0.52    0.55
  -1   8  13    0.42    0.50
   0   8  13    3.41    0.67
   1   8  13    0.53    0.56
   2   8  13    1.04    0.62
   3   8  13    0.62    0.63
  -4  -8 -13    2.00    0.58
  -5  -8 -13    0.96    0.69
   5   8  13    1.92    0.82
  -6  -8 -13    0.35    0.78
   6   8  13    0.60    0.94
  -7  -8 -13    0.91    0.92
  -5   9  13    0.54    0.88
  -3   9  13   -0.64    0.70
  -2   9  13    2.81    0.78
  -1   9  13    0.42    0.62
   0   9  13    8.46    0.93
   1   9  13    0.55    0.58
   2   9  13    2.28    0.68
   3   9  13    0.41    0.67
   4   9  13    1.43    0.77
  -5  -9 -13    1.68    0.70
   5   9  13    1.02    0.77
  -6  -9 -13    1.70    0.80
   6   9  13    2.58    1.06
  -7  -9 -13    0.29    1.55
  -3  10  13   -0.84    0.82
  -2  10  13   -0.90    0.67
  -1  10  13    1.43    0.72
   0  10  13    0.95    0.67
   1  10  13    4.11    0.81
   2  10  13    4.09    0.91
   3  10  13    2.05    0.78
   4  10  13    1.44    0.84
  -5 -10 -13    0.83    1.02
  -5 -10 -13   -0.35    0.80
   5  10  13    2.22    0.93
  -6 -10 -13    0.94    0.92
  -6 -10 -13    0.57    0.80
   6  10  13    0.99    1.02
  -2  11  13   -0.77    0.81
  -1  11  13   -0.33    0.70
   0  11  13   -0.04    0.65
   1  11  13    1.02    0.66
   2  11  13    2.71    0.88
   3  11  13    1.14    0.89
   4  11  13    1.10    0.98
   5  11  13    6.84    1.55
  -6 -11 -13    0.16    1.09
  -6 -11 -13   -1.04    0.96
   6  11  13   -0.14    1.13
  -1  12  13   -0.85    0.93
   0  12  13    1.02    0.79
   1  12  13    1.38    0.76
   2  12  13    7.89    1.49
   3  12  13    2.00    1.00
   4  12  13    1.38    1.28
   5  12  13    3.78    1.28
   6  12  13    4.10    1.46
   7  12  13    1.63    2.02
   1  13  13    1.79    1.07
   2  13  13    2.68    1.23
   3  13  13    3.51    1.29
   4  13  13    4.19    1.52
   5  13  13    3.13    1.46
   6  13  13    1.49    1.71
   3  14  13    3.77    2.17
  -4  -4  14    3.42    0.84
  -3  -4  14   -0.31    0.58
  -2  -4  14    0.82    0.60
  -5  -3  14    0.66    0.79
  -4  -3  14    3.61    0.75
  -3  -3  14    2.77    0.67
  -2  -3  14    0.53    0.63
  -6  -2  14   -0.58    0.77
  -5  -2  14    3.45    0.72
  -4  -2  14    2.38    0.70
  -3  -2  14    0.37    0.64
  -2  -2  14    2.11    0.58
  -1  -2  14    0.61    0.46
  -6  -1  14    0.70    0.75
  -5  -1  14    1.75    0.67
  -4  -1  14    0.31    0.62
  -3  -1  14    0.44    0.56
  -2  -1  14    0.21    0.50
  -1  -1  14    0.46    0.43
  -3   1 -14   -0.95    0.67
  -6   0  14   -0.31    0.68
  -5   0  14   -0.26    0.66
  -4   0  14    0.53    0.56
  -3   0  14    1.79    0.58
  -2   0  14   -0.10    0.48
  -1   0  14    0.92    0.77
  -1   0  14   -0.11    0.37
   0   0  14    1.09    0.85
  -4   0 -14   -1.35    0.83
  -6   1  14    0.15    0.64
  -5   1  14    2.26    0.68
  -4   1  14    0.20    0.56
  -3   1  14    0.69    0.74
  -3   1  14   -0.33    0.51
  -2   1  14    5.53    0.97
  -1   1  14    5.90    0.98
   0   1  14    1.56    0.73
   1   1  14    1.49    0.79
  -3  -1 -14   -0.92    0.54
  -4  -1 -14   -0.88    0.54
  -6   2  14    1.06    0.68
  -5   2  14    0.37    0.62
  -4   2  14    2.29    0.74
  -4   2  14    1.90    0.60
  -3   2  14    0.48    0.56
  -3   2  14    1.57    0.65
  -2   2  14    1.82    0.37
  -1   2  14    2.44    0.69
   0   2  14    6.30    0.99
   1   2  14    2.61    0.73
   2   2  14    2.25    0.75
  -5  -2 -14   -0.49    0.73
  -6   3  14    0.57    0.95
  -6   3  14    1.40    0.69
  -5   3  14    1.78    0.72
  -5   3  14    0.41    0.68
  -4   3  14    1.65    0.62
  -4   3  14    1.35    0.68
  -3   3  14    0.17    0.51
  -3   3  14    1.31    0.62
  -2   3  14    0.67    0.55
  -2   3  14   -0.42    0.40
  -1   3  14    7.87    0.94
   0   3  14    1.49    0.61
   1   3  14    1.61    0.65
   2   3  14    1.16    0.68
   3   3  14    0.14    0.75
  -4  -3 -14    0.09    0.59
  -5  -3 -14   -0.10    0.62
  -6   4  14    0.43    0.82
  -6   4  14    1.50    0.75
  -5   4  14    8.58    1.25
  -5   4  14    6.76    0.97
  -4   4  14    0.21    0.56
  -4   4  14    0.77    0.68
  -3   4  14    0.14    0.59
  -3   4  14   -0.45    0.48
  -2   4  14    3.98    0.79
  -1   4  14    1.21    0.59
   0   4  14    5.81    0.87
   1   4  14    2.65    0.62
   2   4  14   -0.37    0.66
   3   4  14    0.77    0.76
  -4  -4 -14    1.89    0.62
  -5  -4 -14    2.44    0.67
  -6   5  14    1.90    0.89
  -6   5  14    0.75    1.27
  -5   5  14    2.93    0.74
  -5   5  14    3.48    0.78
  -4   5  14   10.03    1.04
  -4   5  14    8.53    0.99
  -3   5  14    1.09    0.62
  -3   5  14    2.15    0.63
  -2   5  14    0.46    0.54
  -1   5  14    4.28    0.78
   0   5  14    2.21    0.64
   1   5  14    1.56    0.60
   2   5  14    6.93    1.03
   3   5  14    0.39    0.75
  -4  -5 -14    1.73    0.62
   4   5  14    2.34    0.89
  -5  -5 -14   -0.24    0.67
  -6  -5 -14    0.65    0.88
  -5   6  14    0.62    0.75
  -5   6  14    0.50    0.88
  -4   6  14    0.23    0.61
  -4   6  14   -0.83    0.65
  -3   6  14    7.67    0.92
  -2   6  14    3.80    0.70
  -1   6  14   -0.52    0.56
   0   6  14   14.86    1.09
   1   6  14    8.32    1.04
   2   6  14   14.87    1.21
   3   6  14    1.48    0.77
   4   6  14    2.91    0.92
  -5  -6 -14    0.54    0.62
   5   6  14    1.71    1.00
  -6  -6 -14    1.46    0.85
  -5   7  14    0.61    0.76
  -4   7  14    5.03    0.99
  -3   7  14    0.33    0.71
  -2   7  14   11.61    1.05
  -1   7  14    0.14    0.63
   0   7  14    5.53    0.96
   1   7  14   11.38    1.18
   2   7  14    2.15    0.74
   3   7  14    0.82    0.78
   4   7  14    7.84    1.37
  -5  -7 -14   -0.51    0.65
   5   7  14    1.20    0.99
  -6  -7 -14   -0.09    0.87
  -4   8  14    0.45    0.97
  -3   8  14    1.20    0.76
  -2   8  14    0.96    0.69
  -1   8  14    4.33    0.97
   0   8  14   12.13    1.17
   1   8  14    0.64    0.71
   2   8  14   11.97    1.35
   3   8  14    9.11    1.25
   4   8  14    6.35    1.14
   5   8  14    1.12    0.98
  -6  -8 -14    0.12    0.83
   6   8  14    0.97    1.12
  -3   9  14    0.18    0.85
  -2   9  14    2.46    0.82
  -1   9  14    6.07    1.07
   0   9  14   12.83    1.22
   1   9  14    4.25    0.90
   2   9  14    3.70    0.97
   3   9  14    7.78    1.36
   4   9  14    2.87    0.97
   5   9  14    2.72    1.00
  -6  -9 -14    1.06    1.00
   6   9  14    1.74    1.20
  -2  10  14    0.24    0.95
  -1  10  14    3.00    0.83
   0  10  14    1.16    0.78
   1  10  14    5.85    1.24
   2  10  14    7.63    1.39
   3  10  14    0.86    0.99
   4  10  14    6.60    1.41
   5  10  14    0.25    0.97
   6  10  14    1.29    1.31
  -1  11  14    1.18    0.97
   0  11  14    1.24    0.86
   1  11  14    2.46    0.92
   2  11  14    8.43    1.53
   3  11  14    6.53    1.48
   4  11  14    2.66    1.09
   5  11  14   -0.08    1.16
   6  11  14    0.60    1.53
   1  12  14    1.00    1.09
   2  12  14    2.24    1.25
   4  12  14    4.64    1.53
   5  12  14    3.65    1.66
  -3  -3  15   -0.46    0.79
  -2  -3  15    0.84    0.77
  -4  -2  15    4.92    0.88
  -3  -2  15   -0.71    0.59
  -2  -2  15    2.25    0.96
  -5  -1  15    2.08    0.87
  -4  -1  15    6.98    1.06
  -3  -1  15    0.91    0.64
  -5   0  15    1.89    0.76
  -4   0  15    0.24    0.63
  -3   0  15    7.28    1.03
  -5   1  15    0.03    0.62
  -4   1  15    0.78    0.64
  -3   1  15    3.80    0.65
  -1   1  15    1.80    0.96
   0   1  15    2.65    0.97
   1   1  15    1.65    0.95
  -5   2  15    0.71    0.62
  -4   2  15   -0.26    0.61
  -3   2  15    0.79    0.88
  -2   2  15    2.24    0.78
  -1   2  15    2.17    0.81
   0   2  15    1.92    0.89
   1   2  15    1.91    0.96
   2   2  15   -0.17    0.92
  -5   3  15   -0.09    0.63
  -4   3  15   -0.08    0.61
  -4   3  15    2.36    0.83
  -3   3  15    5.32    1.06
  -2   3  15    1.62    0.74
  -1   3  15    1.98    0.73
   0   3  15    2.03    0.75
   1   3  15    6.34    1.28
   2   3  15    0.68    0.96
   3   3  15    1.75    0.96
  -5   4  15   -0.73    0.63
  -5   4  15    0.01    0.88
  -4   4  15    0.74    0.76
  -3   4  15    2.07    0.76
  -2   4  15    1.65    0.69
  -1   4  15    0.99    0.74
   0   4  15    1.54    0.77
   1   4  15    1.98    0.78
   2   4  15    7.52    1.30
   3   4  15    0.14    0.98
  -5   5  15    0.09    1.70
  -4   5  15    1.22    0.82
  -3   5  15    0.03    0.72
  -2   5  15    4.26    0.81
  -1   5  15    1.43    0.74
   0   5  15    0.85    0.71
   1   5  15    4.92    1.14
   2   5  15    0.71    0.86
   3   5  15    2.77    1.03
   4   5  15    1.07    1.02
  -4   6  15    0.17    0.94
  -3   6  15    8.56    1.16
  -2   6  15    1.17    0.75
  -1   6  15    2.58    0.72
   0   6  15    0.62    0.80
   1   6  15    0.87    0.78
   2   6  15    0.71    0.86
   3   6  15    5.94    1.36
   4   6  15    0.83    1.05
  -3   7  15    1.31    0.83
  -2   7  15    8.42    1.18
  -1   7  15    5.88    1.16
   0   7  15    0.25    0.80
   1   7  15    1.93    0.90
   2   7  15    2.77    0.99
   3   7  15    1.79    0.98
   4   7  15    5.12    1.18
   5   7  15    0.24    1.22
  -3   8  15    0.81    1.09
  -2   8  15    0.83    0.88
  -1   8  15    8.13    1.21
   0   8  15    9.40    1.37
   1   8  15    0.20    0.93
   2   8  15    8.22    1.44
   3   8  15    7.14    1.50
   4   8  15    7.19    1.61
   5   8  15    1.21    1.24
  -2   9  15    5.60    1.80
  -1   9  15    2.66    0.94
   0   9  15   10.82    1.51
   1   9  15    2.32    1.06
   2   9  15    8.20    1.61
   3   9  15    4.77    1.15
   4   9  15    4.40    1.22
   5   9  15    2.14    1.28
   0  10  15    1.70    1.02
   1  10  15    8.41    1.57
   2  10  15   12.39    1.70
   3  10  15    0.55    1.19
   4  10  15    5.67    1.41
   5  10  15    5.75    2.35
   1  11  15    5.53    1.88
   2  11  15   11.17    2.12
   3  11  15    3.15    1.57
   4  11  15    2.64    2.05
  -1   2  16   12.90    1.67
   0   2  16   12.08    1.58
   1   2  16    0.79    1.08
  -3   3  16    1.70    0.99
  -2   3  16    6.60    1.35
  -1   3  16    9.75    1.40
   0   3  16    0.87    0.98
   1   3  16    4.34    1.17
   2   3  16   -0.60    1.10
  -4   4  16    1.96    1.29
  -2   4  16    5.42    1.29
  -1   4  16    2.91    0.90
   0   4  16    1.81    0.96
   1   4  16    0.18    1.07
   2   4  16    2.18    1.12
   3   4  16   -0.41    1.27
  -3   5  16    2.57    1.00
  -2   5  16    7.35    1.31
  -1   5  16    6.04    1.38
   0   5  16    2.66    0.98
   1   5  16    0.84    0.95
   2   5  16    2.13    1.07
   3   5  16    2.06    1.23
  -2   6  16    1.75    1.01
  -1   6  16    7.15    1.45
   0   6  16    1.91    0.93
   1   6  16    2.50    1.01
   2   6  16    1.81    1.05
   3   6  16    1.17    1.15
   4   6  16    2.00    1.68
  -2   7  16    2.26    1.33
  -1   7  16    2.07    0.98
   0   7  16    3.58    1.08
   1   7  16    2.22    1.06
   2   7  16    1.67    1.20
   3   7  16    1.67    1.28
   4   7  16    2.16    2.19
  -1   8  16    4.52    1.98
   0   8  16    2.84    1.24
   1   8  16    2.96    1.24
   2   8  16    3.36    1.27
   3   8  16    1.19    1.40
   1   9  16    7.32    2.00
   2   9  16    1.58    1.63
  -1   3  17    2.67    1.63
   0   3  17    6.71    1.97
   0   4  17    1.93    1.71
   0   0   0    0.00    0.00
;
_shelx_hkl_checksum              27081
loop_
_space_group_symop_operation_xyz
'x, y, z'
'-x, -y, -z'
loop_
_atom_site_label
_atom_site_type_symbol
_atom_site_fract_x
_atom_site_fract_y
_atom_site_fract_z
_atom_site_U_iso_or_equiv
_atom_site_adp_type
_atom_site_occupancy
_atom_site_site_symmetry_order
_atom_site_calc_flag
_atom_site_refinement_flags_posn
_atom_site_refinement_flags_adp
_atom_site_refinement_flags_occupancy
_atom_site_disorder_assembly
_atom_site_disorder_group
S1A S 0.7835(5) 0.6807(3) 0.4848(4) 0.0281(6) Uani 0.5 1 d . U P A 1
C8A C 0.353(3) 1.053(2) 0.779(3) 0.0643(9) Uani 0.5 1 d . U P B 1
H8A H 0.370018 0.992553 0.871749 0.077 Uiso 0.5 1 calc R U P B 1
C8B C 0.762(2) 0.7112(17) 0.4689(19) 0.0281(6) Uani 0.5 1 d . U P A 2
H8B H 0.823529 0.614681 0.532335 0.034 Uiso 0.5 1 calc R U P A 2
S1B S 0.3330(7) 1.0894(4) 0.7511(5) 0.0643(9) Uani 0.5 1 d . U P B 2
N1 N 0.5128(6) 0.7628(4) 1.0068(3) 0.0700(10) Uani 1 1 d . U . . .
N2 N 0.8393(6) 0.4794(4) 0.7968(4) 0.0816(13) Uani 1 1 d . U . . .
C4 C 0.5613(4) 0.8754(3) 0.6350(3) 0.0342(7) Uani 1 1 d . U . . .
C5 C 0.4296(4) 1.0301(3) 0.6249(3) 0.0344(7) Uani 1 1 d . U . . .
C6 C 0.6275(4) 0.8535(3) 0.5023(3) 0.0330(7) Uani 1 1 d . U . . .
C3 C 0.6151(5) 0.7587(4) 0.7601(3) 0.0413(7) Uani 1 1 d . U . . .
C7 C 0.7745(5) 0.7568(5) 0.3150(4) 0.0550(10) Uani 1 1 d . U . . .
H7 H 0.843958 0.692307 0.264417 0.066 Uiso 1 1 calc R U . A 1
C1 C 0.7413(6) 0.6051(4) 0.7746(4) 0.0531(9) Uani 1 1 d . U . . .
C2 C 0.5534(5) 0.7688(4) 0.8948(4) 0.0490(8) Uani 1 1 d . U . . .
C14 C 0.9550(4) 0.1076(4) 0.3621(3) 0.0374(7) Uani 1 1 d . U . . .
C15 C 1.0884(4) -0.0445(4) 0.3824(3) 0.0380(7) Uani 1 1 d . U . . .
C9 C 0.8661(4) 0.1550(4) 0.4775(3) 0.0379(7) Uani 1 1 d . U . . .
C13 C 0.9094(5) 0.2151(4) 0.2263(4) 0.0492(8) Uani 1 1 d . U . . .
C10 C 0.7388(5) 0.3046(4) 0.4509(4) 0.0506(9) Uani 1 1 d . U . . .
H10 H 0.680707 0.337043 0.525169 0.061 Uiso 1 1 calc R U . . .
C16 C 1.1715(5) -0.0832(5) 0.2662(4) 0.0510(9) Uani 1 1 d . U . . .
H16 H 1.258618 -0.182046 0.277830 0.061 Uiso 1 1 calc R U . . .
C17 C 1.1274(6) 0.0225(6) 0.1328(4) 0.0614(10) Uani 1 1 d . U . . .
H17 H 1.185923 -0.006439 0.057160 0.074 Uiso 1 1 calc R U . . .
C18 C 1.0001(6) 0.1670(6) 0.1120(4) 0.0621(10) Uani 1 1 d . U . . .
H18 H 0.971481 0.235807 0.022069 0.075 Uiso 1 1 calc R U . . .
C12 C 0.7773(6) 0.3646(5) 0.2055(4) 0.0591(10) Uani 1 1 d . U . . .
H12 H 0.746434 0.433790 0.115819 0.071 Uiso 1 1 calc R U . . .
C11 C 0.6947(6) 0.4086(4) 0.3156(5) 0.0592(10) Uani 1 1 d . U . . .
H11 H 0.608469 0.508265 0.301316 0.071 Uiso 1 1 calc R U . . .
loop_
_atom_site_aniso_label
_atom_site_aniso_U_11
_atom_site_aniso_U_22
_atom_site_aniso_U_33
_atom_site_aniso_U_23
_atom_site_aniso_U_13
_atom_site_aniso_U_12
S1A 0.0288(10) 0.0160(13) 0.0325(12) -0.0102(11) 0.0046(7) 0.0034(9)
C8A 0.0654(16) 0.053(2) 0.069(2) -0.0224(17) 0.0052(15) -0.0106(17)
C8B 0.0288(10) 0.0160(13) 0.0325(12) -0.0102(11) 0.0046(7) 0.0034(9)
S1B 0.0654(16) 0.053(2) 0.069(2) -0.0224(17) 0.0052(15) -0.0106(17)
N1 0.088(3) 0.067(2) 0.0418(18) -0.0145(16) 0.0093(17) -0.0125(19)
N2 0.092(3) 0.050(2) 0.065(2) -0.0036(17) 0.021(2) 0.0112(19)
C4 0.0295(14) 0.0394(16) 0.0382(16) -0.0166(12) 0.0052(12) -0.0132(12)
C5 0.0289(14) 0.0370(16) 0.0415(16) -0.0179(13) 0.0046(12) -0.0115(12)
C6 0.0276(13) 0.0323(14) 0.0419(16) -0.0177(12) 0.0048(11) -0.0082(11)
C3 0.0396(16) 0.0405(16) 0.0408(16) -0.0129(13) 0.0047(13) -0.0093(13)
C7 0.057(2) 0.056(2) 0.064(2) -0.0403(19) 0.0241(17) -0.0173(18)
C1 0.054(2) 0.047(2) 0.0435(18) -0.0069(15) 0.0085(15) -0.0048(16)
C2 0.053(2) 0.0452(19) 0.0397(18) -0.0096(14) 0.0007(14) -0.0082(15)
C14 0.0332(15) 0.0440(17) 0.0409(16) -0.0149(13) 0.0026(12) -0.0188(13)
C15 0.0335(15) 0.0460(17) 0.0431(17) -0.0198(14) 0.0039(12) -0.0189(13)
C9 0.0300(14) 0.0396(16) 0.0489(18) -0.0175(14) 0.0027(12) -0.0146(12)
C13 0.0439(18) 0.055(2) 0.0478(19) -0.0080(15) -0.0015(14) -0.0224(15)
C10 0.0438(18) 0.0420(18) 0.067(2) -0.0205(16) 0.0009(16) -0.0125(15)
C16 0.0425(18) 0.065(2) 0.053(2) -0.0319(17) 0.0119(15) -0.0168(16)
C17 0.057(2) 0.094(3) 0.0423(19) -0.0296(19) 0.0134(16) -0.030(2)
C18 0.063(2) 0.085(3) 0.0366(18) -0.0088(18) 0.0045(16) -0.032(2)
C12 0.057(2) 0.050(2) 0.060(2) 0.0005(17) -0.0067(17) -0.0202(17)
C11 0.051(2) 0.0405(19) 0.080(3) -0.0112(18) -0.0051(18) -0.0138(16)
loop_
_atom_type_symbol
_atom_type_description
_atom_type_scat_dispersion_real
_atom_type_scat_dispersion_imag
_atom_type_scat_source
C C 0.0033 0.0016 'International Tables Vol C Tables 4.2.6.8 and 6.1.1.4'
H H 0.0000 0.0000 'International Tables Vol C Tables 4.2.6.8 and 6.1.1.4'
N N 0.0061 0.0033 'International Tables Vol C Tables 4.2.6.8 and 6.1.1.4'
S S 0.1246 0.1234 'International Tables Vol C Tables 4.2.6.8 and 6.1.1.4'
loop_
_geom_angle_atom_site_label_1
_geom_angle_atom_site_label_2
_geom_angle_atom_site_label_3
_geom_angle
_geom_angle_site_symmetry_1
_geom_angle_site_symmetry_3
_geom_angle_publ_flag
C7 S1A C6 91.20(18) . . ?
C5 C8A C7 86.3(11) . 2_676 ?
C5 C8A H8A 136.8 . . ?
C7 C8A H8A 136.8 2_676 . ?
C7 C8B C6 106.5(9) . . ?
C7 C8B H8B 126.7 . . ?
C6 C8B H8B 126.7 . . ?
C7 S1B C5 102.8(3) 2_676 . ?
C3 C4 C6 122.8(3) . . ?
C3 C4 C5 122.5(3) . . ?
C6 C4 C5 114.6(3) . . ?
C6 C5 C4 122.2(3) 2_676 . ?
C6 C5 S1B 111.4(3) 2_676 . ?
C4 C5 S1B 126.4(3) . . ?
C6 C5 C8A 123.6(7) 2_676 . ?
C4 C5 C8A 114.1(7) . . ?
C5 C6 C4 123.2(3) 2_676 . ?
C5 C6 C8B 106.3(7) 2_676 . ?
C4 C6 C8B 130.6(7) . . ?
C5 C6 S1A 112.9(2) 2_676 . ?
C4 C6 S1A 124.0(3) . . ?
C4 C3 C1 124.5(3) . . ?
C4 C3 C2 126.6(3) . . ?
C1 C3 C2 108.9(3) . . ?
S1B C7 C8B 113.0(7) 2_676 . ?
S1A C7 C8A 126.0(9) . 2_676 ?
S1A C7 H7 117.0 . . ?
C8A C7 H7 117.0 2_676 . ?
N2 C1 C3 174.8(4) . . ?
N1 C2 C3 173.8(4) . . ?
C13 C14 C15 120.2(3) . . ?
C13 C14 C9 118.8(3) . . ?
C15 C14 C9 121.0(3) . . ?
C16 C15 C14 118.3(3) . . ?
C16 C15 C9 121.8(3) . 2_756 ?
C14 C15 C9 119.9(3) . 2_756 ?
C10 C9 C14 118.2(3) . . ?
C10 C9 C15 122.7(3) . 2_756 ?
C14 C9 C15 119.1(3) . 2_756 ?
C12 C13 C14 120.5(4) . . ?
C12 C13 C18 121.2(4) . . ?
C14 C13 C18 118.4(4) . . ?
C9 C10 C11 122.0(4) . . ?
C9 C10 H10 119.0 . . ?
C11 C10 H10 119.0 . . ?
C15 C16 C17 121.6(4) . . ?
C15 C16 H16 119.2 . . ?
C17 C16 H16 119.2 . . ?
C18 C17 C16 120.7(4) . . ?
C18 C17 H17 119.6 . . ?
C16 C17 H17 119.6 . . ?
C17 C18 C13 120.9(4) . . ?
C17 C18 H18 119.6 . . ?
C13 C18 H18 119.6 . . ?
C11 C12 C13 120.2(4) . . ?
C11 C12 H12 119.9 . . ?
C13 C12 H12 119.9 . . ?
C12 C11 C10 120.3(4) . . ?
C12 C11 H11 119.9 . . ?
C10 C11 H11 119.9 . . ?
loop_
_geom_bond_atom_site_label_1
_geom_bond_atom_site_label_2
_geom_bond_distance
_geom_bond_site_symmetry_2
_geom_bond_publ_flag
S1A C7 1.639(5) . ?
S1A C6 1.735(4) . ?
C8A C5 1.68(3) . ?
C8A C7 1.734(19) 2_676 ?
C8A H8A 0.9300 . ?
C8B C7 1.485(19) . ?
C8B C6 1.523(16) . ?
C8B H8B 0.9300 . ?
S1B C7 1.392(5) 2_676 ?
S1B C5 1.594(6) . ?
N1 C2 1.145(5) . ?
N2 C1 1.144(5) . ?
C4 C3 1.378(5) . ?
C4 C6 1.454(4) . ?
C4 C5 1.459(4) . ?
C5 C6 1.393(5) 2_676 ?
C3 C1 1.429(5) . ?
C3 C2 1.434(5) . ?
C7 H7 0.9300 . ?
C14 C13 1.418(5) . ?
C14 C15 1.426(5) . ?
C14 C9 1.430(5) . ?
C15 C16 1.392(5) . ?
C15 C9 1.461(5) 2_756 ?
C9 C10 1.385(5) . ?
C13 C12 1.403(6) . ?
C13 C18 1.428(6) . ?
C10 C11 1.401(6) . ?
C10 H10 0.9300 . ?
C16 C17 1.393(6) . ?
C16 H16 0.9300 . ?
C17 C18 1.354(7) . ?
C17 H17 0.9300 . ?
C18 H18 0.9300 . ?
C12 C11 1.354(6) . ?
C12 H12 0.9300 . ?
C11 H11 0.9300 . ?
