#------------------------------------------------------------------------------
#$Date: 2020-10-04 06:07:32 +0300 (Sun, 04 Oct 2020) $
#$Revision: 257055 $
#$URL: file:///home/coder/svn-repositories/cod/cif/4/51/77/4517732.cif $
#------------------------------------------------------------------------------
#
# This file is available in the Crystallography Open Database (COD),
# http://www.crystallography.net/
#
# All data on this site have been placed in the public domain by the
# contributors.
#
data_4517732
loop_
_publ_author_name
'Zhang, Caiyun'
'Wang, Gendi'
'Zhan, Licheng'
'Yang, Xueyan'
'Wang, Jiwei'
'Wei, Yin'
'Xu, Sheng'
'Shi, Min'
'Zhang, Jun'
_publ_section_title
;
 Gold(I) or Gold(III) as Real Intermediate Species in Gold-Catalyzed
 Cycloaddition Reactions of Enynal/Enynone?
;
_journal_name_full               'ACS Catalysis'
_journal_page_first              6682
_journal_page_last               6690
_journal_paper_doi               10.1021/acscatal.0c00220
_journal_year                    2020
_chemical_formula_sum            'C21 H14 Au Cl O'
_chemical_formula_weight         514.74
_space_group_crystal_system      triclinic
_space_group_IT_number           2
_space_group_name_Hall           '-P 1'
_space_group_name_H-M_alt        'P -1'
_atom_sites_solution_hydrogens   geom
_audit_creation_method           SHELXL-2014/7
_cell_angle_alpha                72.8440(10)
_cell_angle_beta                 89.113(2)
_cell_angle_gamma                80.4970(10)
_cell_formula_units_Z            2
_cell_length_a                   7.9594(8)
_cell_length_b                   9.7061(10)
_cell_length_c                   11.5124(12)
_cell_measurement_reflns_used    3793
_cell_measurement_temperature    223(2)
_cell_measurement_theta_max      26.84
_cell_measurement_theta_min      2.23
_cell_volume                     837.63(15)
_computing_cell_refinement       'Bruker SAINT'
_computing_data_collection       'Bruker APEX2'
_computing_data_reduction        'Bruker SAINT'
_computing_molecular_graphics    'Bruker SHELXTL'
_computing_publication_material  'Bruker SHELXTL'
_computing_structure_refinement  'SHELXL-2014/7 (Sheldrick, 2014)'
_computing_structure_solution    'SHELXS-97 (Sheldrick, 2008)'
_diffrn_ambient_temperature      223(2)
_diffrn_measured_fraction_theta_full 0.970
_diffrn_measured_fraction_theta_max 0.971
_diffrn_measurement_device_type  'Bruker APEX-II CCD'
_diffrn_measurement_method       '\f and \w scans'
_diffrn_radiation_type           MoK\a
_diffrn_radiation_wavelength     0.71073
_diffrn_reflns_av_R_equivalents  0.0169
_diffrn_reflns_av_unetI/netI     0.0325
_diffrn_reflns_Laue_measured_fraction_full 0.970
_diffrn_reflns_Laue_measured_fraction_max 0.971
_diffrn_reflns_limit_h_max       10
_diffrn_reflns_limit_h_min       -7
_diffrn_reflns_limit_k_max       12
_diffrn_reflns_limit_k_min       -12
_diffrn_reflns_limit_l_max       14
_diffrn_reflns_limit_l_min       -14
_diffrn_reflns_number            5788
_diffrn_reflns_point_group_measured_fraction_full 0.970
_diffrn_reflns_point_group_measured_fraction_max 0.971
_diffrn_reflns_theta_full        25.242
_diffrn_reflns_theta_max         26.853
_diffrn_reflns_theta_min         1.852
_exptl_absorpt_coefficient_mu    8.944
_exptl_absorpt_correction_T_max  0.491
_exptl_absorpt_correction_T_min  0.360
_exptl_absorpt_correction_type   multi-scan
_exptl_absorpt_process_details   sadabs
_exptl_crystal_colour            orange
_exptl_crystal_density_diffrn    2.041
_exptl_crystal_description       block
_exptl_crystal_F_000             488
_exptl_crystal_size_max          0.170
_exptl_crystal_size_mid          0.130
_exptl_crystal_size_min          0.080
_refine_diff_density_max         1.211
_refine_diff_density_min         -1.047
_refine_diff_density_rms         0.133
_refine_ls_extinction_method     none
_refine_ls_goodness_of_fit_ref   0.896
_refine_ls_hydrogen_treatment    constr
_refine_ls_matrix_type           full
_refine_ls_number_parameters     217
_refine_ls_number_reflns         3487
_refine_ls_number_restraints     0
_refine_ls_restrained_S_all      0.896
_refine_ls_R_factor_all          0.0251
_refine_ls_R_factor_gt           0.0215
_refine_ls_shift/su_max          0.002
_refine_ls_shift/su_mean         0.000
_refine_ls_structure_factor_coef Fsqd
_refine_ls_weighting_details
'w=1/[\s^2^(Fo^2^)+(0.0578P)^2^+0.2009P] where P=(Fo^2^+2Fc^2^)/3'
_refine_ls_weighting_scheme      calc
_refine_ls_wR_factor_gt          0.0667
_refine_ls_wR_factor_ref         0.0693
_reflns_Friedel_coverage         0.000
_reflns_number_gt                3227
_reflns_number_total             3487
_reflns_threshold_expression     'I > 2\s(I)'
_cod_data_source_file            cs0c00220_si_003.cif
_cod_data_source_block           mo_60413b
_cod_depositor_comments
'Adding full bibliography for 4517732--4517734.cif.'
_cod_database_code               4517732
_shelx_shelxl_version_number     2014/7
_shelx_space_group_comment
; 
The symmetry employed for this shelxl refinement is uniquely defined 
by the following loop, which should always be used as a source of 
symmetry information in preference to the above space-group names. 
They are only intended as comments. 
;
_shelx_estimated_absorpt_t_min   0.312
_shelx_estimated_absorpt_t_max   0.535
_shelx_res_file
; 
  
    mo_60413b.res created by SHELXL-2014/7 
  
TITL mo_60413b in P-1 
CELL 0.71073   7.9594   9.7061  11.5124  72.844  89.113  80.497 
ZERR    2.00   0.0008   0.0010   0.0012   0.001   0.002   0.001 
LATT 1 
SFAC C  H  O  Cl Au 
UNIT 42 28 2 2 2 
OMIT 1 6 6 
OMIT 0 4 6 
OMIT 0 0 5 
OMIT 3 7 2 
OMIT 2 6 5 
OMIT 1 4 4 
OMIT 0 3 5 
OMIT 0 5 8 
OMIT -1 2 4 
OMIT 0 2 3 
OMIT 1 6 7 
OMIT 5 0 4 
OMIT 0 -1 5 
OMIT 1 5 5 
OMIT 3 6 2 
L.S. 5 
ACTA 
BOND 
FMAP 2 
PLAN 5 
SIZE 0.08 0.13 0.17 
CONF 
TEMP -50 
WGHT    0.057800    0.200900 
FVAR       0.13659 
MOLE 1 
AU1   5   -0.132606    0.151824    0.396353    11.00000    0.02247    0.02654 = 
         0.02594   -0.00868    0.00145   -0.00695 
CL1   4   -0.188165    0.089947    0.222813    11.00000    0.03347    0.04019 = 
         0.02956   -0.01510    0.00335   -0.01172 
O1    3    0.095668    0.297082    0.661553    11.00000    0.02187    0.03230 = 
         0.02345   -0.00948    0.00433   -0.00795 
C1    1   -0.084058    0.207506    0.546786    11.00000    0.02091    0.01870 = 
         0.02611   -0.00466   -0.00128   -0.00115 
C2    1    0.059166    0.261490    0.558521    11.00000    0.02361    0.02254 = 
         0.02280   -0.00630    0.00044   -0.00263 
C3    1    0.001056    0.274279    0.758515    11.00000    0.02287    0.02580 = 
         0.02859   -0.00605    0.00375   -0.00257 
C4    1   -0.152060    0.221647    0.755720    11.00000    0.02299    0.02625 = 
         0.02679   -0.00771    0.00566   -0.00417 
C5    1   -0.265669    0.208120    0.853921    11.00000    0.03068    0.04379 = 
         0.03013   -0.01059    0.00703   -0.01020 
AFIX  43 
H5    2   -0.235292    0.229300    0.924581    11.00000   -1.20000 
AFIX   0 
C6    1   -0.416134    0.165162    0.845777    11.00000    0.03363    0.04384 = 
         0.03945   -0.01308    0.01753   -0.01100 
AFIX  43 
H6    2   -0.490351    0.155847    0.910928    11.00000   -1.20000 
AFIX   0 
C7    1   -0.462893    0.134018    0.739594    11.00000    0.02482    0.03750 = 
         0.04868   -0.01522    0.01003   -0.01006 
AFIX  43 
H7    2   -0.568209    0.103945    0.734535    11.00000   -1.20000 
AFIX   0 
C8    1   -0.355631    0.147305    0.643444    11.00000    0.02270    0.03050 = 
         0.03686   -0.01113    0.00285   -0.00760 
AFIX  43 
H8    2   -0.389725    0.127307    0.573123    11.00000   -1.20000 
AFIX   0 
C9    1   -0.195457    0.190331    0.648135    11.00000    0.02195    0.01912 = 
         0.02826   -0.00509    0.00127   -0.00100 
C10   1    0.197061    0.295850    0.473008    11.00000    0.01768    0.02527 = 
         0.02415   -0.00584   -0.00226   -0.00054 
C11   1    0.268252    0.420642    0.461160    11.00000    0.02334    0.02838 = 
         0.03397   -0.00973    0.00337   -0.00610 
AFIX  43 
H11   2    0.226256    0.484769    0.506154    11.00000   -1.20000 
AFIX   0 
C12   1    0.401473    0.451057    0.382950    11.00000    0.02507    0.02760 = 
         0.03527   -0.00421    0.00351   -0.01180 
AFIX  43 
H12   2    0.446739    0.537120    0.373382    11.00000   -1.20000 
AFIX   0 
C13   1    0.466573    0.355931    0.320031    11.00000    0.02365    0.03978 = 
         0.02595   -0.00201    0.00016   -0.00794 
AFIX  43 
H13   2    0.556970    0.376549    0.267708    11.00000   -1.20000 
AFIX   0 
C14   1    0.399168    0.228067    0.333230    11.00000    0.02427    0.03863 = 
         0.03173   -0.01584    0.00501   -0.00382 
AFIX  43 
H14   2    0.445918    0.161698    0.291404    11.00000   -1.20000 
AFIX   0 
C15   1    0.264101    0.199766    0.407705    11.00000    0.02871    0.02870 = 
         0.02984   -0.01351    0.00353   -0.00767 
AFIX  43 
H15   2    0.216634    0.115307    0.414703    11.00000   -1.20000 
AFIX   0 
C16   1    0.075680    0.315591    0.857226    11.00000    0.02979    0.03384 = 
         0.02709   -0.01035    0.00377   -0.00895 
C17   1    0.133379    0.450042    0.829570    11.00000    0.03927    0.03762 = 
         0.02912   -0.01140    0.00790   -0.01635 
AFIX  43 
H17   2    0.121322    0.513853    0.749807    11.00000   -1.20000 
AFIX   0 
C18   1    0.208147    0.487876    0.920678    11.00000    0.05016    0.04994 = 
         0.03888   -0.01777    0.01203   -0.02595 
AFIX  43 
H18   2    0.246039    0.578371    0.902708    11.00000   -1.20000 
AFIX   0 
C19   1    0.227910    0.393966    1.038212    11.00000    0.04808    0.06081 = 
         0.03303   -0.02129    0.00193   -0.02169 
AFIX  43 
H19   2    0.279433    0.420333    1.099607    11.00000   -1.20000 
AFIX   0 
C20   1    0.171157    0.260654    1.064789    11.00000    0.04449    0.05900 = 
         0.02862   -0.00087   -0.00394   -0.01477 
AFIX  43 
H20   2    0.186867    0.195807    1.144078    11.00000   -1.20000 
AFIX   0 
C21   1    0.092189    0.222599    0.976216    11.00000    0.04339    0.03822 = 
         0.02994   -0.00619   -0.00027   -0.01440 
AFIX  43 
H21   2    0.049435    0.134147    0.995792    11.00000   -1.20000 
AFIX   0 
HKLF 4 
  
REM  mo_60413b in P-1 
REM R1 =  0.0215 for    3227 Fo > 4sig(Fo)  and  0.0251 for all    3487 data 
REM    217 parameters refined using      0 restraints 
  
END 
  
WGHT      0.0360      0.1605 
  
REM Highest difference peak  1.211,  deepest hole -1.047,  1-sigma level  0.133 
Q1    1  -0.1949  0.2351  0.3865  11.00000  0.05    1.21 
Q2    1  -0.0809  0.0526  0.4119  11.00000  0.05    0.87 
Q3    1  -0.2051  0.1189  0.4546  11.00000  0.05    0.78 
Q4    1  -0.0524  0.1821  0.3420  11.00000  0.05    0.73 
Q5    1  -0.3032  0.2410  0.2385  11.00000  0.05    0.57 
;
_shelx_res_checksum              39659
_shelx_hkl_file
; 
   1   0   0  359.80    9.40 
   2   0   0   33.26    1.02 
   2   0   0   35.51    1.07 
   3   0   0  412.35   10.87 
   4   0   0  230.55    6.18 
   4   0   0  225.96    6.14 
   5   0   0   17.95    0.76 
   5   0   0   16.74    0.88 
   6   0   0    3.11    0.51 
   6   0   0    2.90    0.41 
   7   0   0   53.38    1.77 
   7   0   0   53.40    1.96 
   8   0   0   41.88    1.74 
   9   0   0    2.94    0.68 
   9  -1   0   14.20    1.15 
   8  -1   0    0.86    0.52 
   7  -1   0   36.24    1.53 
   6  -1   0  123.95    3.64 
   6  -1   0  118.69    3.42 
   5  -1   0   65.26    2.07 
   5  -1   0   61.89    1.89 
   4  -1   0   12.80    0.58 
   4  -1   0   15.14    0.72 
   1  -1   0   13.64    0.47 
  -1   1   0   13.34    0.41 
   0  -1   0  123.08    3.18 
   0  -1   0  121.28    3.21 
   0   1   0  125.08    3.21 
   0   1   0  124.59    3.26 
  -1  -1   0  306.71    7.75 
   1   1   0  303.09    7.88 
   2   1   0  132.00    3.53 
   2   1   0  133.29    3.57 
   3   1   0    9.42    0.50 
   3   1   0    9.97    0.50 
   4   1   0  207.48    5.49 
   4   1   0  197.86    5.50 
   5   1   0  191.24    5.33 
   5   1   0  196.85    5.35 
   6   1   0   27.86    1.08 
   6   1   0   27.83    1.21 
   7   1   0    6.06    0.66 
   7   1   0    6.63    0.59 
   8   1   0   30.85    1.44 
   9   1   0   40.98    1.76 
  10   1   0    7.45    0.90 
   9  -2   0   25.06    1.46 
   8  -2   0   15.03    1.10 
   7  -2   0   -0.46    0.43 
   6  -2   0   63.13    2.18 
   4  -2   0  106.02    2.88 
   3  -2   0   39.36    1.31 
  -3   2   0   39.37    1.12 
   2  -2   0  432.38   11.30 
  -2   2   0  431.90   11.30 
   1  -2   0  980.60   25.67 
   1  -2   0  995.86   25.17 
  -1   2   0 1000.00   26.00 
   0  -2   0  295.21    7.61 
   0  -2   0  297.81    7.71 
   0   2   0  299.98    7.83 
  -2  -2   0  317.37    8.05 
   2   2   0  308.15    8.31 
   2   2   0  316.02    8.16 
   3   2   0  212.98    5.62 
   3   2   0  211.28    5.72 
   4   2   0    0.73    0.25 
   4   2   0    0.52    0.26 
   5   2   0   42.67    1.45 
   5   2   0   42.87    1.44 
   6   2   0   82.14    2.50 
   6   2   0   78.69    2.47 
   7   2   0   28.89    1.24 
   7   2   0   28.35    1.21 
   8   2   0    0.27    0.42 
   8   2   0   -0.24    0.47 
   9   2   0   24.82    1.31 
  10   2   0   20.54    1.29 
   9  -3   0    1.85    0.69 
   8  -3   0   35.94    1.66 
   7  -3   0   52.16    2.00 
   6  -3   0    1.51    0.48 
   5  -3   0   54.05    1.90 
   4  -3   0  189.52    5.31 
  -4   3   0  191.80    5.06 
   3  -3   0   56.83    1.71 
   3  -3   0   53.97    1.76 
  -3   3   0   55.11    1.54 
   2  -3   0    7.44    0.49 
  -2   3   0    7.01    0.32 
   1  -3   0  184.51    4.82 
   1  -3   0  180.24    4.88 
  -1   3   0  186.81    4.89 
   0  -3   0  553.80   14.23 
   0  -3   0  560.17   14.43 
   0   3   0  561.72   14.65 
  -2  -3   0  145.24    3.85 
   2   3   0  145.04    3.81 
  -3  -3   0  319.10    8.28 
   3   3   0  322.33    8.38 
   3   3   0  319.84    8.57 
   5   3   0    1.85    0.38 
   5   3   0    2.55    0.37 
   6   3   0   14.79    0.82 
   6   3   0   14.28    0.83 
   7   3   0   69.49    2.31 
   7   3   0   72.05    2.32 
   8   3   0   52.17    1.90 
   8   3   0   52.90    1.93 
   9   3   0    1.51    0.55 
  10   3   0   11.86    1.02 
   8  -4   0   12.35    1.08 
   7  -4   0   38.34    1.69 
   6  -4   0   59.35    2.15 
   6  -4   0   58.16    2.06 
   5  -4   0    1.47    0.47 
   5  -4   0    0.59    0.42 
   4  -4   0   53.75    1.85 
   4  -4   0   55.25    1.80 
  -4   4   0   53.69    1.53 
   3  -4   0  240.88    6.65 
   3  -4   0  246.87    6.51 
  -3   4   0  247.06    6.49 
   2  -4   0  130.50    3.64 
   2  -4   0  129.59    3.58 
  -2   4   0  132.13    3.54 
   1  -4   0   10.57    0.50 
   1  -4   0   11.39    0.56 
  -1   4   0   11.93    0.49 
   0  -4   0  119.96    3.25 
   0  -4   0  118.13    3.20 
   0   4   0  121.26    3.30 
  -1  -4   0  108.77    2.87 
  -2  -4   0   94.44    2.60 
   2   4   0   94.95    2.48 
   2   4   0   89.74    2.65 
  -3  -4   0    3.58    0.37 
   3   4   0    4.06    0.28 
  -4  -4   0   78.72    2.32 
   4   4   0   81.69    2.26 
   4   4   0   78.57    2.41 
   5   4   0   99.89    2.84 
   5   4   0   98.37    2.97 
   6   4   0   11.44    0.79 
   6   4   0   12.22    0.73 
   7   4   0   13.54    0.90 
   7   4   0   14.79    0.89 
   8   4   0   35.55    1.48 
   8   4   0   34.32    1.51 
   9   4   0   35.31    1.57 
   9   4   0   34.47    1.51 
   8  -5   0   12.99    1.22 
   7  -5   0    4.94    0.81 
   6  -5   0   61.79    2.17 
   6  -5   0   62.49    2.31 
   5  -5   0   75.34    2.56 
   5  -5   0   79.01    2.49 
   4  -5   0    4.89    0.61 
   4  -5   0    5.14    0.58 
   3  -5   0   81.44    2.48 
   3  -5   0   81.36    2.52 
  -3   5   0   83.08    2.30 
   2  -5   0  103.32    2.86 
   2  -5   0  104.74    2.86 
  -2   5   0   90.38    2.74 
   1  -5   0  105.26    2.94 
   1  -5   0  106.05    2.98 
   0  -5   0    0.09    0.16 
   0  -5   0    0.30    0.23 
   0   5   0    0.14    0.21 
  -1  -5   0  213.60    5.65 
  -1  -5   0  208.25    5.55 
   1   5   0  215.63    5.78 
  -2  -5   0  135.10    4.33 
   2   5   0  187.96    4.52 
  -3  -5   0   81.30    2.37 
   3   5   0   81.41    2.19 
   3   5   0   78.03    2.41 
  -4  -5   0    6.30    0.51 
   4   5   0    6.05    0.53 
   4   5   0    6.25    0.41 
  -5  -5   0   58.45    1.87 
   5   5   0   57.49    1.96 
   5   5   0   58.19    1.76 
   6   5   0   53.70    1.94 
   6   5   0   58.15    1.81 
   7   5   0   43.09    1.54 
   7   5   0   41.34    1.67 
   8   5   0    2.08    0.57 
   9   5   0   41.85    1.82 
   7  -6   0    7.94    0.98 
   6  -6   0    8.03    0.87 
   6  -6   0    6.37    0.76 
   5  -6   0   55.73    2.06 
   5  -6   0   56.01    2.01 
   4  -6   0   74.68    2.49 
   4  -6   0   77.18    2.45 
   3  -6   0   12.33    0.78 
   3  -6   0   13.65    0.78 
   2  -6   0   13.52    0.70 
   2  -6   0   12.20    0.73 
  -2   6   0   12.83    0.60 
   1  -6   0   59.78    1.82 
   1  -6   0   62.00    1.92 
  -1   6   0   60.53    1.83 
   0  -6   0   71.31    2.03 
   0  -6   0   69.47    2.18 
   0   6   0   73.88    2.16 
  -1  -6   0    4.08    0.29 
  -1  -6   0    3.51    0.44 
   1   6   0    3.84    0.42 
  -3  -6   0  101.76    2.95 
   3   6   0  100.83    3.00 
   3   6   0   99.83    2.70 
  -5  -6   0    1.83    0.41 
   5   6   0    2.46    0.51 
   6   6   0   38.95    1.56 
   7   6   0   51.24    1.95 
   8   6   0   24.89    1.35 
   9   6   0    2.82    0.73 
   6  -7   0   11.85    1.08 
   5  -7   0    2.15    0.60 
   5  -7   0    3.48    0.65 
   4  -7   0   49.60    1.85 
   4  -7   0   49.27    1.86 
   3  -7   0   45.32    1.65 
   3  -7   0   46.93    1.72 
   2  -7   0    6.46    0.64 
   2  -7   0    5.23    0.51 
  -2   7   0    6.33    0.48 
   1  -7   0   14.16    0.81 
   1  -7   0   14.59    0.69 
  -1   7   0   14.31    0.72 
   0  -7   0   89.37    2.67 
   0  -7   0   88.67    2.47 
   0   7   0   85.98    2.61 
  -1  -7   0   75.73    2.33 
  -1  -7   0   74.45    2.06 
   1   7   0   72.91    2.29 
  -3  -7   0   10.17    0.72 
   3   7   0   11.97    0.76 
  -4  -7   0   83.55    2.60 
   4   7   0   84.75    2.67 
  -5  -7   0   54.12    1.83 
   5   7   0   51.44    1.91 
  -6  -7   0    1.42    0.45 
   6   7   0    0.54    0.47 
   7   7   0   22.83    1.24 
   8   7   0   55.34    2.21 
   9   7   0   20.56    1.37 
   6  -8   0   30.11    1.64 
   5  -8   0   14.21    1.07 
   5  -8   0   16.47    1.10 
   4  -8   0    0.33    0.47 
   4  -8   0   -0.51    0.43 
   3  -8   0   37.41    1.58 
   3  -8   0   38.88    1.49 
   2  -8   0   22.73    1.12 
   2  -8   0   22.31    1.01 
   1  -8   0   17.65    0.95 
   1  -8   0   17.23    0.78 
  -1   8   0   17.21    0.84 
   0  -8   0    1.04    0.45 
   0   8   0    0.70    0.36 
  -1  -8   0   30.52    1.27 
   1   8   0   31.26    1.23 
  -2  -8   0   52.13    1.83 
   2   8   0   51.62    1.79 
  -3  -8   0   28.71    1.20 
   3   8   0   26.81    1.18 
  -4  -8   0    6.05    0.64 
   4   8   0    6.86    0.71 
  -5  -8   0   48.87    1.81 
   5   8   0   51.78    1.90 
  -6  -8   0   40.07    1.58 
   6   8   0   37.31    1.62 
   7   8   0    6.94    0.83 
   8   8   0    9.76    1.02 
   5  -9   0   17.13    1.23 
   5  -9   0   16.74    1.20 
   4  -9   0    9.20    0.91 
   4  -9   0    8.48    0.84 
   3  -9   0    0.36    0.47 
   2  -9   0   15.30    0.96 
   1  -9   0   47.40    1.80 
  -1   9   0   47.23    1.65 
   0  -9   0   20.34    1.10 
   0   9   0   20.03    0.97 
  -1  -9   0    0.08    0.39 
   1   9   0    0.34    0.40 
  -2  -9   0   24.78    1.23 
   2   9   0   27.10    1.19 
  -3  -9   0   52.17    1.88 
   3   9   0   51.38    1.90 
  -4  -9   0   18.43    1.05 
   4   9   0   21.58    1.13 
  -5  -9   0    4.23    0.65 
   5   9   0    4.09    0.67 
  -6  -9   0   52.76    2.03 
   6   9   0   52.67    2.07 
   7   9   0   38.17    1.77 
   3 -10   0   13.06    1.09 
   2 -10   0   -0.16    0.46 
   1 -10   0    3.82    0.66 
   0 -10   0   26.72    1.34 
   0  10   0   29.62    1.27 
  -1 -10   0   16.62    1.00 
   1  10   0   15.14    0.91 
  -2 -10   0    2.92    0.56 
   2  10   0    2.98    0.55 
  -3 -10   0   14.70    0.98 
   3  10   0   17.46    1.03 
  -4 -10   0   52.13    1.99 
   4  10   0   53.65    2.04 
  -5 -10   0   17.89    1.17 
   5  10   0   15.70    1.10 
  -6 -10   0    2.22    0.66 
   6  10   0    2.98    0.70 
   2 -11   0   17.80    1.23 
   1 -11   0    4.86    0.76 
   0 -11   0    3.16    0.63 
  -1 -11   0   24.97    1.34 
   1  11   0   29.12    1.31 
  -2 -11   0   23.04    1.24 
   2  11   0   21.34    1.17 
  -3 -11   0    1.01    0.53 
   3  11   0    1.50    0.57 
  -4 -11   0   16.44    1.08 
   4  11   0   15.21    1.10 
  -5 -11   0   43.75    1.91 
   5  11   0   43.58    1.92 
   4  11  -1    0.13    0.50 
  -4 -11   1    0.20    0.53 
   3  11  -1   16.58    1.07 
  -3 -11   1   15.37    1.05 
   2  11  -1   21.02    1.18 
  -2 -11   1   21.35    1.29 
   1  11  -1    4.59    0.64 
  -1 -11   1    3.64    0.71 
   0 -11   1    1.01    0.57 
   1 -11   1   17.05    1.26 
   6  10  -1   10.43    1.06 
  -6 -10   1   10.24    0.99 
   5  10  -1   27.06    1.41 
  -5 -10   1   24.99    1.40 
   4  10  -1   21.89    1.23 
  -4 -10   1   22.39    1.23 
   3  10  -1    1.31    0.50 
  -3 -10   1    1.71    0.51 
   2  10  -1   17.27    1.01 
  -2 -10   1   16.47    1.03 
   1  10  -1   26.94    1.25 
  -1 -10   1   29.53    1.40 
   0  10  -1   14.01    0.88 
   0 -10   1   12.83    1.02 
   1 -10   1   -0.16    0.45 
   2 -10   1    8.64    0.92 
   3 -10   1    7.35    0.92 
   7   9  -1   26.21    1.42 
  -7  -9   1   25.51    1.40 
   6   9  -1    4.81    0.76 
  -6  -9   1    4.10    0.69 
   5   9  -1   11.26    0.96 
  -5  -9   1   11.23    0.96 
   4   9  -1   44.21    1.73 
  -4  -9   1   40.66    1.67 
   3   9  -1   25.28    1.23 
  -3  -9   1   25.36    1.22 
   2   9  -1    1.74    0.50 
  -2  -9   1    2.39    0.54 
   1   9  -1   14.20    0.87 
  -1  -9   1   13.68    0.89 
   0   9  -1   45.12    1.61 
   0  -9   1   42.26    1.69 
   1  -9   1   45.19    1.78 
   2  -9   1    0.88    0.55 
   3  -9   1   23.07    1.27 
   4  -9   1   36.17    1.71 
   8   8  -1   -0.73    0.59 
   7   8  -1   27.33    1.50 
  -7  -8   1   31.00    1.43 
   6   8  -1   32.56    1.52 
  -6  -8   1   33.54    1.43 
   5   8  -1   13.11    0.89 
  -5  -8   1   12.80    0.90 
   4   8  -1    1.38    0.51 
  -4  -8   1    0.74    0.44 
   3   8  -1   40.98    1.56 
  -3  -8   1   39.08    1.53 
   2   8  -1   68.42    2.24 
  -2  -8   1   66.62    2.22 
   1   8  -1    7.41    0.64 
  -1  -8   1    7.98    0.70 
   0   8  -1    8.15    0.62 
   0  -8   1    6.26    0.66 
  -1   8  -1   63.22    1.99 
   1  -8   1   62.88    2.16 
   2  -8   1   16.74    1.02 
   2  -8   1   17.67    0.88 
   3  -8   1    1.22    0.45 
   3  -8   1    0.03    0.47 
   4  -8   1   15.30    1.01 
   4  -8   1   15.13    1.13 
   5  -8   1   38.12    1.77 
   5  -8   1   39.05    1.76 
   8   7  -1   18.74    1.28 
   7   7  -1   -0.05    0.56 
   6   7  -1   38.91    1.63 
  -6  -7   1   37.57    1.51 
   5   7  -1   56.57    2.00 
  -5  -7   1   54.06    1.89 
   4   7  -1   23.81    1.13 
  -4  -7   1   25.89    1.15 
   3   7  -1    0.16    0.38 
  -3  -7   1    0.80    0.37 
   0   7  -1   60.50    1.91 
   0  -7   1   60.07    1.75 
   0  -7   1   61.47    2.00 
  -1   7  -1    4.35    0.44 
   1  -7   1    3.28    0.52 
   1  -7   1    4.76    0.43 
   2  -7   1  110.50    3.35 
   2  -7   1  113.18    3.25 
   3  -7   1   83.04    2.69 
   3  -7   1   82.96    2.62 
   4  -7   1   13.74    0.95 
   4  -7   1   15.39    0.99 
   5  -7   1   10.05    0.91 
   5  -7   1    9.83    0.91 
   6  -7   1   30.95    1.58 
   6  -7   1   32.01    1.56 
   9   6  -1    1.64    0.71 
   8   6  -1   30.45    1.52 
   7   6  -1   27.14    1.33 
   6   6  -1   10.40    0.84 
  -6  -6   1    9.71    0.76 
   5   6  -1   19.53    1.02 
  -5  -6   1   18.27    0.91 
   3   6  -1   79.72    2.49 
  -3  -6   1   79.27    2.42 
   2   6  -1    2.87    0.41 
  -2  -6   1    3.20    0.44 
   1   6  -1   69.48    2.14 
  -1  -6   1   70.90    1.90 
   0   6  -1  108.66    3.17 
   0  -6   1  114.39    3.03 
   0  -6   1  110.39    3.20 
  -1   6  -1   59.59    1.83 
   1  -6   1   60.94    1.97 
   1  -6   1   61.58    1.82 
  -2   6  -1   26.77    0.93 
   2  -6   1   27.02    1.05 
   2  -6   1   25.60    1.12 
   3  -6   1  104.97    3.16 
   3  -6   1  104.82    3.16 
   4  -6   1   91.02    2.87 
   4  -6   1   87.84    2.86 
   5  -6   1    6.15    0.73 
   5  -6   1    6.97    0.78 
   6  -6   1   10.54    1.02 
   6  -6   1   11.30    0.98 
   7  -6   1   33.47    1.71 
   9   5  -1    4.49    0.76 
   8   5  -1    7.78    0.83 
   7   5  -1   71.90    2.48 
   6   5  -1   55.49    1.98 
   5   5  -1    2.78    0.48 
  -5  -5   1    2.44    0.40 
   4   5  -1   17.32    0.62 
  -4  -5   1   17.45    0.83 
   3   5  -1  152.45    4.28 
   3   5  -1  149.81    3.93 
  -3  -5   1  150.11    4.13 
   2   5  -1  155.31    4.38 
  -2  -5   1  157.68    4.27 
   1   5  -1   26.84    0.97 
  -1  -5   1   26.70    0.77 
   0   5  -1   65.73    1.97 
   0  -5   1   67.34    2.02 
   0  -5   1   66.85    1.86 
   1  -5   1  367.47    9.68 
   1  -5   1  369.99    9.64 
  -2   5  -1   98.20    2.79 
   2  -5   1  101.79    2.94 
   2  -5   1  102.85    2.92 
   3  -5   1    0.51    0.37 
   3  -5   1    0.07    0.33 
   4  -5   1   47.47    1.70 
   4  -5   1   45.10    1.69 
   5  -5   1   77.69    2.53 
   5  -5   1   73.61    2.56 
   6  -5   1    6.58    0.80 
   6  -5   1    6.55    0.82 
   7  -5   1    4.61    0.83 
   7  -5   1    3.57    0.74 
   8  -5   1   26.12    1.62 
   9   4  -1   26.23    1.38 
   8   4  -1   12.42    0.88 
   8   4  -1   12.22    0.94 
   7   4  -1    0.24    0.38 
   7   4  -1    1.12    0.47 
   6   4  -1   19.19    0.99 
   6   4  -1   18.88    0.86 
   5   4  -1  145.45    4.00 
   5   4  -1  147.04    4.23 
  -5  -4   1  145.33    4.02 
   4   4  -1   60.05    1.90 
   4   4  -1   56.82    1.67 
  -4  -4   1   57.68    1.78 
   3   4  -1    1.28    0.28 
   3   4  -1    1.60    0.18 
  -3  -4   1    1.42    0.28 
   2   4  -1  245.39    6.70 
  -2  -4   1  249.74    6.50 
   1   4  -1  216.12    5.89 
  -1  -4   1  220.43    5.65 
   0   4  -1   30.32    1.02 
   0  -4   1   32.12    0.94 
   0  -4   1   33.00    1.08 
  -1   4  -1  114.81    3.17 
   1  -4   1  114.71    3.17 
   1  -4   1  118.19    3.21 
  -2   4  -1  399.73   10.64 
   2  -4   1  408.62   10.53 
   2  -4   1  406.06   10.68 
  -3   4  -1  146.94    3.97 
   3  -4   1  154.24    4.18 
   3  -4   1  147.56    4.22 
   4  -4   1    1.09    0.43 
   4  -4   1    0.50    0.40 
   5  -4   1   80.03    2.67 
   5  -4   1   83.08    2.63 
   6  -4   1   77.94    2.68 
   7  -4   1   14.40    1.14 
   8  -4   1   -0.36    0.59 
   9   3  -1   13.47    0.98 
   9   3  -1   15.21    1.03 
   8   3  -1   54.27    1.96 
   8   3  -1   54.86    2.01 
   7   3  -1   44.55    1.69 
   7   3  -1   44.49    1.61 
   6   3  -1    0.78    0.35 
   6   3  -1    0.64    0.39 
   5   3  -1   98.75    2.97 
   5   3  -1   98.15    2.82 
   4   3  -1  195.66    5.26 
   4   3  -1  197.61    5.46 
  -4  -3   1  197.24    5.21 
   3   3  -1  103.86    2.94 
   3   3  -1  100.90    2.75 
  -3  -3   1  101.43    2.79 
   2   3  -1   17.75    0.54 
  -2  -3   1   19.27    0.71 
   1   3  -1  244.93    6.54 
  -1  -3   1  243.95    6.35 
   0   3  -1  455.36   11.89 
   0  -3   1  448.94   11.69 
  -1   3  -1  149.99    3.96 
   1  -3   1  145.88    3.97 
  -2   3  -1   87.91    2.37 
   2  -3   1   87.59    2.53 
   2  -3   1   89.10    2.51 
  -3   3  -1  143.81    3.74 
   3  -3   1  139.67    3.99 
   4  -3   1   79.06    2.48 
   5  -3   1   -0.11    0.39 
   6  -3   1   41.54    1.67 
   7  -3   1   42.15    1.77 
   8  -3   1   15.55    1.15 
   9  -3   1    0.11    0.62 
  10   2  -1   10.37    1.01 
   9   2  -1    2.36    0.60 
   8   2  -1    8.72    0.79 
   8   2  -1    9.31    0.80 
   7   2  -1   49.11    1.75 
   7   2  -1   47.92    1.74 
   6   2  -1   83.11    2.50 
   6   2  -1   79.07    2.53 
   5   2  -1   10.34    0.67 
   5   2  -1    9.83    0.61 
   3   2  -1  315.59    8.41 
   3   2  -1  327.32    8.61 
  -3  -2   1  321.88    8.27 
   2   2  -1  226.31    5.96 
  -2  -2   1  232.38    5.92 
   1   2  -1   32.39    1.04 
  -1  -2   1   33.50    0.99 
   0   2  -1  308.78    7.96 
   0  -2   1  296.03    7.82 
  -1   2  -1  899.46   23.33 
   1  -2   1  902.19   22.61 
   1  -2   1  872.47   23.02 
  -2   2  -1   35.65    0.96 
   2  -2   1   34.95    1.17 
   3  -2   1   51.27    1.65 
   4  -2   1  225.39    6.19 
   6  -2   1    5.21    0.65 
   7  -2   1   11.23    0.91 
   8  -2   1   32.79    1.57 
   9  -2   1   20.52    1.30 
  10   1  -1   17.91    1.22 
   9   1  -1   40.95    1.75 
   8   1  -1    7.37    0.80 
   8   1  -1    7.67    0.72 
   7   1  -1   13.07    0.89 
   7   1  -1   13.33    0.81 
   6   1  -1   98.63    2.94 
   6   1  -1   96.36    2.94 
   5   1  -1  206.74    5.57 
   5   1  -1  199.98    5.61 
   4   1  -1   22.29    0.85 
   4   1  -1   20.98    0.87 
   3   1  -1  124.73    3.44 
   3   1  -1  129.28    3.53 
   2   1  -1  534.39   14.13 
   2   1  -1  548.58   14.38 
  -2  -1   1  555.94   13.86 
   1   1  -1  379.56    9.85 
   1   1  -1  376.30   10.06 
  -1  -1   1  391.94    9.71 
   0   1  -1   24.04    0.73 
   0  -1   1   25.12    0.69 
  -1   1  -1   62.65    1.64 
   1  -1   1   61.23    1.71 
   2  -1   1  345.56    9.07 
   3  -1   1   58.41    1.59 
   4  -1   1   11.36    0.46 
   5  -1   1  108.73    2.99 
   6  -1   1   70.89    2.37 
   7  -1   1    4.73    0.68 
   8  -1   1    3.48    0.68 
   9  -1   1   16.77    1.14 
   9   0  -1   12.76    1.06 
   8   0  -1   50.41    1.95 
   7   0  -1   19.41    0.96 
   7   0  -1   20.42    1.11 
   6   0  -1   13.39    0.81 
   6   0  -1   13.48    0.77 
   5   0  -1  190.28    5.28 
   5   0  -1  191.45    5.29 
   4   0  -1  139.02    3.86 
   4   0  -1  138.95    3.88 
   3   0  -1    7.67    0.46 
   3   0  -1    7.99    0.47 
   2   0  -1  396.69   10.64 
   2   0  -1  410.93   10.50 
   1   0  -1  245.00    6.46 
   1   0  -1  252.96    6.30 
  -1   0   1  247.70    6.29 
   0   0  -1  322.07    8.42 
  -1   0  -1    3.30    0.14 
   1   0   1    3.42    0.13 
   2   0   1  395.07   10.25 
   2   0   1  389.34   10.23 
   4   0   1  138.00    3.84 
   4   0   1  135.50    3.72 
   5   0   1    4.93    0.39 
   5   0   1    4.26    0.52 
   6   0   1   48.03    1.70 
   6   0   1   44.66    1.49 
   7   0   1   62.15    2.18 
   8   0   1   21.29    1.22 
   9   0   1    1.19    0.58 
   9  -1  -1    0.62    0.54 
   8  -1  -1   43.04    1.80 
   7  -1  -1   76.70    2.57 
   6  -1  -1   55.39    1.92 
   6  -1  -1   54.52    1.79 
   5  -1  -1   -0.29    0.29 
   5  -1  -1    0.65    0.30 
   4  -1  -1  193.08    5.10 
   4  -1  -1  177.58    5.05 
   3  -1  -1  381.84   10.12 
   2  -1  -1  209.69    5.70 
   2  -1  -1  219.01    5.68 
   1  -1  -1   48.97    1.32 
   1  -1  -1   51.82    1.40 
   0  -1  -1  218.32    5.59 
   0   1   1  222.25    5.79 
   1   1   1  201.45    5.31 
   2   1   1    3.87    0.29 
   2   1   1    4.38    0.29 
   3   1   1   68.35    1.93 
   3   1   1   68.75    1.97 
   4   1   1  133.28    3.68 
   4   1   1  129.47    3.61 
   5   1   1   83.92    2.55 
   5   1   1   85.10    2.46 
   6   1   1    0.33    0.30 
   6   1   1    0.05    0.38 
   7   1   1   28.94    1.34 
   7   1   1   29.50    1.14 
   8   1   1   44.28    1.79 
   9   1   1   21.73    1.23 
  10   1   1    1.04    0.63 
   9  -2  -1   22.28    1.36 
   8  -2  -1    0.29    0.50 
   7  -2  -1   51.33    1.95 
   6  -2  -1  114.95    3.31 
   6  -2  -1  119.87    3.57 
   5  -2  -1   51.14    1.53 
   5  -2  -1   46.65    1.70 
   4  -2  -1   42.13    1.31 
   4  -2  -1   42.94    1.48 
   2  -2  -1  301.42    7.73 
   2  -2  -1  297.01    7.94 
  -2   2   1  306.61    7.96 
   1  -2  -1    2.94    0.24 
   1  -2  -1    2.75    0.20 
  -1   2   1    2.82    0.21 
   0  -2  -1    6.71    0.29 
   0  -2  -1    7.24    0.31 
   0   2   1    6.60    0.31 
   2   2   1  197.96    5.15 
   2   2   1  193.08    5.23 
   3   2   1   81.08    2.28 
   3   2   1   79.70    2.26 
   4   2   1   11.09    0.60 
   4   2   1   12.66    0.58 
   5   2   1  135.25    3.82 
   5   2   1  134.95    3.80 
   6   2   1   81.62    2.48 
   6   2   1   80.90    2.54 
   7   2   1    2.10    0.43 
   7   2   1    1.58    0.51 
   8   2   1   17.49    1.11 
   9   2   1   36.00    1.59 
  10   2   1   19.36    1.28 
   9  -3  -1   31.07    1.63 
   8  -3  -1   40.03    1.75 
   7  -3  -1    4.92    0.70 
   6  -3  -1   36.69    1.53 
   4  -3  -1  105.28    3.14 
  -4   3   1  108.20    2.95 
   3  -3  -1    0.57    0.19 
   3  -3  -1    0.71    0.27 
  -3   3   1    0.40    0.18 
   2  -3  -1  175.72    4.71 
   2  -3  -1  174.62    4.56 
  -2   3   1  172.23    4.65 
   1  -3  -1   86.81    2.38 
   1  -3  -1   88.39    2.43 
  -1   3   1   88.58    2.42 
   0  -3  -1   22.28    0.73 
   0  -3  -1   21.94    0.69 
   0   3   1   20.94    0.71 
  -1  -3  -1   29.61    0.95 
   1   3   1   31.29    0.97 
   2   3   1  192.49    5.19 
  -3  -3  -1   73.71    2.10 
   3   3   1   73.82    2.07 
   3   3   1   73.56    2.15 
   4   3   1   54.38    1.62 
   4   3   1   50.72    1.64 
   5   3   1   12.51    0.69 
   5   3   1   12.66    0.70 
   6   3   1   79.90    2.47 
   6   3   1   79.78    2.48 
   7   3   1   67.85    2.22 
   7   3   1   67.98    2.26 
   8   3   1   11.14    0.85 
   8   3   1   12.72    0.89 
   9   3   1   20.43    1.15 
  10   3   1   50.62    2.07 
   8  -4  -1   78.70    2.85 
   7  -4  -1   37.50    1.65 
   6  -4  -1    4.10    0.55 
   6  -4  -1    2.73    0.57 
   5  -4  -1   45.92    1.58 
   5  -4  -1   45.50    1.70 
   4  -4  -1  138.55    4.02 
   4  -4  -1  140.96    3.85 
  -4   4   1  138.07    3.78 
   3  -4  -1  101.13    2.82 
   3  -4  -1  100.57    2.95 
  -3   4   1  101.08    2.78 
   2  -4  -1    3.20    0.32 
   2  -4  -1    3.72    0.36 
  -2   4   1    3.37    0.27 
   1  -4  -1  106.35    2.93 
  -1   4   1  106.11    2.92 
   0  -4  -1  174.87    4.15 
   0   4   1  136.16    4.20 
  -1  -4  -1  110.65    2.96 
  -3  -4  -1   29.96    1.03 
   3   4   1   30.53    0.96 
   3   4   1   29.69    1.06 
   4   4   1   89.77    2.54 
   5   4   1   71.29    2.24 
   5   4   1   72.49    2.17 
   6   4   1    2.48    0.44 
   6   4   1    2.58    0.45 
   7   4   1   90.81    2.84 
   7   4   1   89.66    2.80 
   8   4   1   35.74    1.52 
   8   4   1   37.77    1.54 
   9   4   1    9.98    0.89 
   8  -5  -1    3.07    0.73 
   7  -5  -1   38.70    1.78 
   6  -5  -1   63.60    2.31 
   6  -5  -1   61.95    2.12 
   5  -5  -1    6.73    0.62 
   5  -5  -1    6.39    0.69 
   4  -5  -1   27.95    1.14 
   4  -5  -1   27.06    1.17 
   3  -5  -1  125.84    3.45 
   3  -5  -1  121.25    3.55 
   2  -5  -1   40.62    1.37 
   2  -5  -1   42.27    1.36 
   1  -5  -1    9.51    0.56 
   1  -5  -1    9.92    0.51 
  -1   5   1    9.01    0.49 
   0  -5  -1   41.13    1.36 
   0  -5  -1   44.26    1.30 
   0   5   1   44.78    1.37 
  -1  -5  -1  153.61    4.08 
  -1  -5  -1  146.30    4.00 
   1   5   1  151.48    4.16 
  -2  -5  -1   59.12    1.77 
   2   5   1   57.58    1.81 
  -3  -5  -1    0.11    0.23 
   3   5   1    0.34    0.17 
   3   5   1   -0.01    0.08 
  -4  -5  -1   34.33    1.23 
   4   5   1   34.45    1.26 
   5   5   1  156.46    4.50 
   5   5   1  159.05    4.34 
   6   5   1   38.74    1.46 
   6   5   1   38.51    1.40 
   7   5   1    0.49    0.42 
   7   5   1    1.60    0.49 
   8   5   1   55.65    2.01 
   8   5   1   55.74    2.06 
   9   5   1   70.62    2.52 
   7  -6  -1    1.76    0.70 
   6  -6  -1   36.39    1.67 
   5  -6  -1   63.48    2.28 
   5  -6  -1   67.53    2.18 
   4  -6  -1   11.11    0.81 
   4  -6  -1   10.12    0.74 
   3  -6  -1    5.49    0.56 
   3  -6  -1    4.85    0.50 
  -3   6   1    4.85    0.41 
   2  -6  -1   87.88    2.61 
   2  -6  -1   87.70    2.61 
  -2   6   1   90.15    2.55 
   1  -6  -1   80.40    2.31 
   1  -6  -1   80.18    2.37 
  -1   6   1   78.75    2.33 
   0  -6  -1   36.54    1.29 
   0  -6  -1   36.16    1.16 
   0   6   1   38.23    1.26 
  -1  -6  -1   13.52    0.69 
  -1  -6  -1   13.60    0.54 
   1   6   1   13.90    0.67 
  -2  -6  -1   77.93    2.32 
   2   6   1   77.49    2.36 
   3   6   1  103.57    2.77 
   3   6   1   97.66    2.97 
  -5  -6  -1   29.45    1.23 
   5   6   1   33.17    1.32 
   5   6   1   33.69    1.15 
   6   6   1  125.25    3.82 
   6   6   1  128.18    3.61 
   7   6   1   45.70    1.77 
   8   6   1    0.23    0.51 
   9   6   1   28.13    1.47 
   7  -7  -1   10.50    1.14 
   6  -7  -1    0.19    0.61 
   5  -7  -1   27.94    1.29 
   5  -7  -1   25.45    1.33 
   4  -7  -1   46.67    1.70 
   4  -7  -1   45.95    1.75 
   3  -7  -1   15.23    0.88 
   3  -7  -1   14.99    0.86 
   2  -7  -1    4.33    0.47 
   2  -7  -1    3.53    0.50 
  -2   7   1    3.85    0.42 
   1  -7  -1   66.34    2.10 
   1  -7  -1   66.76    2.03 
  -1   7   1   67.89    2.06 
   0  -7  -1   91.54    2.71 
   0  -7  -1   91.12    2.58 
   0   7   1   90.94    2.70 
  -1  -7  -1   22.25    0.97 
  -1  -7  -1   21.88    0.78 
   1   7   1   21.50    0.94 
  -2  -7  -1    6.16    0.52 
  -4  -7  -1   89.84    2.73 
  -5  -7  -1   14.28    0.87 
   5   7   1   13.73    0.84 
   6   7   1   31.07    1.39 
   7   7   1   82.80    2.79 
   8   7   1   30.15    1.50 
   9   7   1   -0.51    0.64 
   6  -8  -1   17.03    1.22 
   5  -8  -1    0.79    0.53 
   5  -8  -1   -0.27    0.52 
   4  -8  -1   14.91    1.00 
   4  -8  -1   15.93    0.99 
   3  -8  -1   53.43    1.86 
   3  -8  -1   48.10    1.79 
   2  -8  -1   20.50    0.95 
   2  -8  -1   18.82    1.00 
  -2   8   1   22.25    0.93 
   1  -8  -1    0.61    0.30 
   1  -8  -1    0.30    0.40 
  -1   8   1    0.30    0.35 
   0  -8  -1   18.56    0.94 
   0  -8  -1   19.01    0.79 
   0   8   1   18.39    0.92 
  -1  -8  -1   89.05    2.78 
   1   8   1   92.79    2.78 
  -2  -8  -1   28.16    1.20 
   2   8   1   29.09    1.21 
  -3  -8  -1    1.02    0.40 
   3   8   1    1.55    0.46 
  -4  -8  -1   75.86    2.44 
   4   8   1   76.63    2.49 
  -5  -8  -1  109.43    3.29 
   5   8   1  106.67    3.36 
  -6  -8  -1   12.61    0.93 
   6   8   1   13.09    0.91 
   7   8   1   13.21    1.06 
   8   8   1   39.67    1.78 
   5  -9  -1   16.69    1.22 
   4  -9  -1    2.35    0.58 
   4  -9  -1    2.21    0.60 
   3  -9  -1    4.19    0.65 
   3  -9  -1    6.55    0.67 
   2  -9  -1   34.40    1.32 
   2  -9  -1   31.42    1.42 
   1  -9  -1   52.55    1.90 
  -1   9   1   54.55    1.82 
   0  -9  -1    1.85    0.51 
   0   9   1    0.84    0.40 
  -1  -9  -1   33.65    1.44 
   1   9   1   35.58    1.39 
  -2  -9  -1   71.24    2.38 
   2   9   1   71.81    2.36 
  -3  -9  -1   26.27    1.21 
   3   9   1   27.33    1.26 
  -4  -9  -1    0.46    0.43 
   4   9   1    1.07    0.45 
  -5  -9  -1   38.51    1.60 
   5   9   1   39.56    1.61 
  -6  -9  -1   66.73    2.42 
   6   9   1   71.47    2.50 
   7   9   1   11.67    1.07 
   4 -10  -1   16.41    1.15 
   3 -10  -1    5.34    0.75 
   2 -10  -1    9.61    0.87 
   1 -10  -1   26.95    1.31 
   0 -10  -1   33.36    1.46 
   0  10   1   37.12    1.43 
  -1 -10  -1    2.72    0.56 
   1  10   1    2.46    0.52 
  -2 -10  -1   24.11    1.18 
   2  10   1   22.02    1.13 
  -3 -10  -1   60.74    2.15 
   3  10   1   59.81    2.13 
  -4 -10  -1   40.32    1.64 
   4  10   1   39.68    1.66 
  -5 -10  -1   -0.53    0.41 
   5  10   1    0.08    0.45 
  -6 -10  -1   26.79    1.46 
   6  10   1   28.46    1.42 
   2 -11  -1    8.43    0.88 
   1 -11  -1    1.18    0.53 
   0 -11  -1   27.84    1.41 
   0  11   1   28.46    1.31 
  -1 -11  -1   35.65    1.58 
   1  11   1   37.16    1.53 
  -2 -11  -1    3.63    0.65 
   2  11   1    3.65    0.58 
  -3 -11  -1   14.41    1.03 
   3  11   1   12.43    0.99 
  -4 -11  -1   41.37    1.78 
   4  11   1   42.56    1.79 
  -5 -11  -1   34.90    1.58 
   5  11   1   32.82    1.62 
  -2 -12  -1   24.89    1.46 
   3  11  -2   17.09    1.13 
  -3 -11   2   15.54    1.14 
   2  11  -2    9.83    0.90 
  -2 -11   2    8.24    0.90 
  -1 -11   2    0.08    0.57 
   0 -11   2    9.12    1.01 
   5  10  -2   19.51    1.20 
  -5 -10   2   18.36    1.26 
   4  10  -2    4.91    0.75 
  -4 -10   2    3.18    0.70 
   3  10  -2    4.24    0.67 
  -3 -10   2    3.80    0.64 
   2  10  -2   33.22    1.47 
  -2 -10   2   35.43    1.57 
   1  10  -2   32.46    1.38 
  -1 -10   2   31.38    1.46 
   0 -10   2    1.77    0.56 
   1 -10   2    6.98    0.83 
   2 -10   2   32.43    1.64 
   7   9  -2    4.15    0.79 
  -7  -9   2    4.23    0.78 
   6   9  -2    1.12    0.60 
  -6  -9   2    0.08    0.54 
   5   9  -2   15.08    1.04 
  -5  -9   2   15.51    1.08 
   4   9  -2   30.63    1.44 
  -4  -9   2   33.80    1.47 
   3   9  -2    7.55    0.76 
  -3  -9   2    8.13    0.80 
   2   9  -2    3.22    0.57 
  -2  -9   2    3.70    0.60 
   1   9  -2   37.10    1.47 
  -1  -9   2   36.77    1.56 
   0   9  -2   42.70    1.56 
   0  -9   2   40.82    1.68 
   1  -9   2    3.90    0.65 
   2  -9   2   12.58    1.05 
   3  -9   2   76.07    2.74 
   4  -9   2   24.48    1.45 
   7   8  -2   37.07    1.72 
  -7  -8   2   39.94    1.67 
   6   8  -2   21.39    1.25 
  -6  -8   2   21.09    1.16 
   5   8  -2   -0.22    0.46 
  -5  -8   2    0.02    0.43 
   4   8  -2   20.86    1.14 
  -4  -8   2   20.26    1.06 
   3   8  -2   56.50    2.04 
  -3  -8   2   57.59    2.01 
   2   8  -2   39.82    1.50 
  -2  -8   2   35.21    1.48 
   1   8  -2    0.28    0.38 
  -1  -8   2   -0.24    0.38 
   0   8  -2   36.58    1.35 
   0  -8   2   34.78    1.49 
   1  -8   2   57.03    2.05 
   2  -8   2   16.52    1.06 
   3  -8   2   10.05    0.94 
   4  -8   2   30.37    1.56 
   4  -8   2   29.92    1.45 
   5  -8   2   22.12    1.39 
   5  -8   2   20.71    1.36 
   8   7  -2    0.65    0.70 
   7   7  -2    8.52    0.92 
  -7  -7   2    8.81    0.80 
   6   7  -2   34.48    1.57 
  -6  -7   2   34.67    1.43 
   5   7  -2   28.02    1.35 
  -5  -7   2   29.59    1.27 
   4   7  -2    1.09    0.49 
  -4  -7   2    2.05    0.48 
   3   7  -2   37.60    1.48 
  -3  -7   2   40.23    1.49 
   2   7  -2  107.91    3.28 
  -2  -7   2  110.84    3.25 
   1   7  -2   59.17    1.95 
   0   7  -2    2.82    0.43 
   0  -7   2    2.46    0.48 
  -1   7  -2   85.00    2.51 
   1  -7   2   82.63    2.67 
   2  -7   2  137.57    3.87 
   2  -7   2  132.54    4.00 
   3  -7   2   28.59    1.36 
   3  -7   2   30.47    1.28 
   4  -7   2    7.53    0.80 
   4  -7   2    8.13    0.81 
   5  -7   2   31.36    1.56 
   5  -7   2   33.74    1.56 
   6  -7   2   31.23    1.65 
   6  -7   2   27.16    1.53 
   9   6  -2   20.51    1.31 
   8   6  -2   27.04    1.48 
   7   6  -2    8.75    0.86 
   6   6  -2    4.19    0.66 
  -6  -6   2    4.22    0.55 
   5   6  -2   34.52    1.45 
  -5  -6   2   36.74    1.38 
   4   6  -2  116.81    3.44 
  -4  -6   2  107.24    3.25 
   3   6  -2   11.65    0.77 
  -3  -6   2   11.55    0.76 
   2   6  -2   21.00    0.96 
  -2  -6   2   21.61    0.99 
   0   6  -2   60.92    1.93 
   0  -6   2   62.83    1.76 
  -1   6  -2    2.29    0.34 
   1  -6   2    1.69    0.41 
   1  -6   2    1.87    0.32 
  -2   6  -2   45.44    1.46 
   2  -6   2   47.93    1.71 
   2  -6   2   50.41    1.63 
   3  -6   2  101.08    3.06 
   3  -6   2  100.12    3.14 
   4  -6   2   17.42    1.11 
   4  -6   2   16.36    1.01 
   5  -6   2    9.61    0.91 
   5  -6   2    9.51    0.94 
   6  -6   2   35.06    1.65 
   6  -6   2   35.28    1.67 
   7  -6   2   21.93    1.42 
   7  -6   2   22.79    1.40 
   9   5  -2    1.79    0.70 
   8   5  -2   17.00    1.15 
   7   5  -2   56.02    2.10 
   6   5  -2   18.79    1.04 
  -6  -5   2   19.85    0.95 
   5   5  -2   17.28    0.95 
  -5  -5   2   17.52    0.87 
   3   5  -2  165.20    4.76 
  -3  -5   2  169.71    4.59 
   2   5  -2   22.69    0.93 
  -2  -5   2   21.83    0.92 
   1   5  -2   56.87    1.77 
  -1  -5   2   55.00    1.77 
   0   5  -2  201.81    5.58 
   0  -5   2  206.00    5.40 
   0  -5   2  207.59    5.53 
   1  -5   2  156.97    4.28 
   1  -5   2  158.60    4.37 
  -2   5  -2   13.41    0.57 
   2  -5   2   13.80    0.84 
   2  -5   2   13.73    0.72 
   3  -5   2   50.83    1.80 
   3  -5   2   50.80    1.76 
   4  -5   2   54.32    1.95 
   4  -5   2   52.91    1.92 
   5  -5   2   36.99    1.60 
   5  -5   2   33.94    1.53 
   6  -5   2   -0.11    0.53 
   6  -5   2   -0.44    0.53 
   7  -5   2   18.00    1.24 
   7  -5   2   17.22    1.19 
   9   4  -2   15.44    1.13 
   8   4  -2    1.18    0.54 
   7   4  -2   39.07    1.62 
   6   4  -2   52.35    1.67 
   6   4  -2   54.13    1.93 
   5   4  -2   61.40    2.08 
  -5  -4   2   59.89    1.88 
   4   4  -2    1.74    0.22 
  -4  -4   2    1.57    0.33 
   3   4  -2  202.02    5.17 
   3   4  -2  196.45    5.54 
  -3  -4   2  199.36    5.32 
   2   4  -2  224.78    6.22 
  -2  -4   2  229.91    6.02 
   1   4  -2   43.24    1.39 
  -1  -4   2   43.44    1.40 
  -1   4  -2  141.61    3.86 
   1  -4   2  142.49    3.91 
   1  -4   2  140.94    3.86 
  -2   4  -2  119.60    3.26 
   2  -4   2  122.73    3.45 
   2  -4   2  119.88    3.41 
   3  -4   2    0.82    0.37 
   3  -4   2    0.91    0.41 
   4  -4   2   58.47    2.03 
   4  -4   2   59.68    2.03 
   5  -4   2   88.37    2.86 
   6  -4   2   28.03    1.36 
   7  -4   2    0.44    0.60 
   8  -4   2   11.88    1.16 
   9   3  -2   36.10    1.63 
   9   3  -2   36.97    1.54 
   8   3  -2   42.44    1.72 
   8   3  -2   42.62    1.64 
   7   3  -2    2.36    0.47 
   7   3  -2    3.12    0.56 
   6   3  -2   60.50    2.06 
   6   3  -2   57.54    1.87 
   5   3  -2  153.25    4.18 
   5   3  -2  152.23    4.41 
   4   3  -2  132.99    3.77 
   4   3  -2  127.80    3.50 
  -4  -3   2  128.27    3.52 
   3   3  -2    0.29    0.14 
   3   3  -2   -0.11    0.10 
  -3  -3   2    0.09    0.21 
   2   3  -2  201.23    5.56 
  -2  -3   2  205.84    5.35 
  -1  -3   2  324.73    8.40 
   0   3  -2   68.48    1.95 
   0  -3   2   67.19    1.85 
  -1   3  -2    0.98    0.19 
   1  -3   2    2.06    0.29 
   1  -3   2    1.00    0.24 
  -2   3  -2   79.25    2.11 
   2  -3   2   77.27    2.30 
   2  -3   2   76.15    2.28 
   3  -3   2  100.20    2.95 
   4  -3   2   13.19    0.80 
   5  -3   2    2.60    0.55 
   6  -3   2   52.82    2.00 
   7  -3   2   27.45    1.38 
   8  -3   2    2.22    0.66 
   9   2  -2    5.93    0.73 
   9   2  -2    5.97    0.75 
   8   2  -2   48.40    1.81 
   8   2  -2   48.69    1.87 
   7   2  -2   80.26    2.66 
   7   2  -2   84.86    2.60 
   6   2  -2    1.08    0.37 
   6   2  -2    1.01    0.41 
   5   2  -2   81.83    2.45 
   5   2  -2   86.64    2.61 
   4   2  -2  289.40    7.83 
  -4  -2   2  286.00    7.45 
   3   2  -2  124.53    3.49 
   3   2  -2  120.18    3.28 
  -3  -2   2  122.79    3.26 
   2   2  -2    4.90    0.24 
  -2  -2   2    5.39    0.35 
   1   2  -2  367.14    9.81 
  -1  -2   2  372.79    9.47 
   0   2  -2  246.99    6.71 
   0  -2   2  255.11    6.54 
   0  -2   2  255.04    6.57 
  -1   2  -2   73.82    2.04 
   1  -2   2   75.84    2.10 
   2  -2   2   43.31    1.38 
   3  -2   2  194.40    5.32 
   4  -2   2   98.15    2.95 
   5  -2   2   28.20    1.26 
   6  -2   2    5.69    0.66 
   7  -2   2   33.55    1.50 
   8  -2   2   24.47    1.32 
   9  -2   2    1.60    0.64 
   9   1  -2   18.09    1.13 
   8   1  -2    4.11    0.63 
   8   1  -2    4.42    0.63 
   7   1  -2  124.73    3.73 
   7   1  -2  123.07    3.68 
   6   1  -2  120.34    3.50 
   6   1  -2  113.52    3.40 
   5   1  -2   33.12    1.20 
   5   1  -2   33.33    1.27 
   4   1  -2   34.17    1.14 
   4   1  -2   33.83    1.23 
   3   1  -2  427.32   11.30 
   3   1  -2  435.14   11.54 
  -3  -1   2  438.25   11.04 
   2   1  -2  224.59    5.94 
  -2  -1   2  229.99    5.83 
   1   1  -2    3.01    0.18 
   1   1  -2    2.71    0.29 
  -1  -1   2    3.25    0.23 
   0   1  -2  333.01    8.84 
   0  -1   2  338.10    8.58 
  -1   1  -2   66.16    1.81 
   1  -1   2   67.16    1.86 
   2  -1   2   21.88    0.78 
   3  -1   2    2.14    0.34 
   4  -1   2   36.38    1.30 
   7  -1   2    1.93    0.53 
   8  -1   2   38.92    1.69 
   9  -1   2   25.43    1.46 
   9   0  -2   40.05    1.72 
   8   0  -2   26.20    1.30 
   7   0  -2    9.95    0.77 
   7   0  -2   10.71    0.80 
   6   0  -2  159.59    4.60 
   6   0  -2  163.68    4.63 
   5   0  -2  176.01    4.98 
   5   0  -2  178.65    4.93 
   4   0  -2   11.53    0.66 
   4   0  -2   11.65    0.62 
   3   0  -2   63.93    1.85 
   3   0  -2   64.17    1.94 
   2   0  -2  212.76    5.54 
   2   0  -2  207.68    5.68 
   1   0  -2  211.51    5.43 
  -1   0   2  204.72    5.28 
   0   0  -2    5.37    0.30 
   1   0   2    6.58    0.27 
   1   0   2    6.22    0.31 
   4   0   2    4.29    0.31 
   4   0   2    4.05    0.42 
   5   0   2   42.38    1.27 
   5   0   2   40.34    1.49 
   6   0   2   85.81    2.72 
   7   0   2   28.55    1.37 
   8   0   2    0.97    0.52 
   9   0   2   29.99    1.54 
   9  -1  -2   14.66    1.06 
   8  -1  -2   95.47    3.12 
   7  -1  -2   74.68    2.50 
   7  -1  -2   73.71    2.37 
   6  -1  -2    6.25    0.62 
   6  -1  -2    5.32    0.56 
   5  -1  -2  121.26    3.58 
   5  -1  -2  126.49    3.59 
   4  -1  -2  255.06    7.28 
   4  -1  -2  282.81    7.23 
   3  -1  -2   37.64    1.26 
   3  -1  -2   38.86    1.23 
   2  -1  -2  145.83    3.87 
   2  -1  -2  141.66    3.93 
   1  -1  -2  427.36   11.35 
   1  -1  -2  435.64   11.19 
   0  -1  -2  205.02    5.40 
   0  -1  -2  208.30    5.48 
   1   1   2   20.64    0.65 
   2   1   2   28.06    0.83 
   2   1   2   26.45    0.88 
   3   1   2  117.61    3.19 
   4   1   2   82.13    2.31 
   4   1   2   83.26    2.43 
   5   1   2   29.53    1.18 
   5   1   2   31.70    1.04 
   6   1   2   19.92    0.97 
   6   1   2   17.53    0.79 
   7   1   2  107.53    3.35 
   8   1   2   42.28    1.73 
   9   1   2    0.11    0.53 
   9  -2  -2    2.24    0.68 
   8  -2  -2   21.74    1.22 
   7  -2  -2  137.15    4.15 
   6  -2  -2   47.17    1.74 
   6  -2  -2   47.11    1.58 
   5  -2  -2    0.56    0.35 
   5  -2  -2    0.10    0.28 
   4  -2  -2   84.53    2.54 
   4  -2  -2   85.48    2.48 
   3  -2  -2  142.37    3.91 
   3  -2  -2  141.79    3.93 
   2  -2  -2  104.94    2.87 
   2  -2  -2  102.83    2.70 
   1  -2  -2    0.45    0.13 
  -1   2   2    0.60    0.20 
   0  -2  -2  157.52    4.03 
   0  -2  -2  156.20    4.13 
   0   2   2  155.96    4.19 
   1   2   2  265.70    7.04 
   2   2   2   86.13    2.43 
   2   2   2   89.32    2.43 
   4   2   2  100.12    2.83 
   4   2   2  101.27    2.87 
   5   2   2  136.51    3.87 
   5   2   2  135.98    3.80 
   6   2   2   23.80    1.12 
   6   2   2   25.58    1.00 
   7   2   2   24.50    1.21 
   7   2   2   25.57    1.05 
   8   2   2  104.57    3.33 
   9   2   2   35.82    1.66 
  10   2   2    1.86    0.68 
   9  -3  -2   35.74    1.73 
   8  -3  -2   13.70    1.10 
   7  -3  -2   11.45    0.95 
   6  -3  -2  112.88    3.26 
   6  -3  -2  116.27    3.53 
   4  -3  -2    0.21    0.21 
   4  -3  -2    0.91    0.25 
   4  -3  -2    0.03    0.10 
  -4   3   2    0.13    0.16 
   3  -3  -2  140.40    3.92 
   3  -3  -2  141.53    3.72 
  -3   3   2  140.25    3.86 
   2  -3  -2  219.79    5.70 
   2  -3  -2  218.06    5.90 
  -2   3   2  224.16    5.91 
   1  -3  -2   49.32    1.43 
   1  -3  -2   47.58    1.35 
  -1   3   2   47.75    1.41 
   0  -3  -2    1.60    0.21 
   0  -3  -2    1.45    0.20 
   0   3   2    1.40    0.21 
   4   3   2    8.57    0.50 
   4   3   2    8.04    0.51 
   5   3   2  101.54    2.97 
   5   3   2  104.37    2.99 
   6   3   2  137.32    3.86 
   6   3   2  132.69    3.91 
   7   3   2   11.33    0.77 
   7   3   2   11.29    0.86 
   8   3   2   11.08    0.91 
   8   3   2   12.87    0.83 
   9   3   2   47.13    1.92 
  10   3   2   28.19    1.51 
   8  -4  -2   63.48    2.42 
   7  -4  -2   14.38    0.99 
   6  -4  -2   25.26    1.22 
   5  -4  -2   72.11    2.37 
   5  -4  -2   73.94    2.17 
  -5   4   2   69.97    2.13 
   4  -4  -2  100.54    2.79 
   4  -4  -2  100.51    3.01 
  -4   4   2   98.82    2.82 
   3  -4  -2   -0.28    0.11 
   3  -4  -2    1.67    0.34 
  -3   4   2   -0.10    0.13 
   2  -4  -2   18.79    0.68 
   2  -4  -2   17.31    0.74 
   1  -4  -2  204.01    5.30 
   1  -4  -2  202.16    5.43 
   1   4   2    3.91    0.32 
  -3  -4  -2   79.51    2.28 
   4   4   2  115.26    3.33 
   4   4   2  118.59    3.26 
   5   4   2    0.80    0.32 
   5   4   2    1.14    0.34 
   6   4   2   64.93    2.13 
   6   4   2   68.16    2.15 
   7   4   2  189.47    5.40 
   7   4   2  191.49    5.40 
   8   4   2   36.37    1.47 
   8   4   2   32.74    1.49 
   9   4   2    7.08    0.80 
   8  -5  -2   13.22    1.15 
   7  -5  -2   29.36    1.49 
   6  -5  -2   16.02    1.01 
   5  -5  -2    4.62    0.59 
   5  -5  -2    4.65    0.50 
   4  -5  -2   57.39    1.98 
   4  -5  -2   60.73    1.84 
  -4   5   2   59.20    1.79 
   3  -5  -2  101.95    2.85 
   3  -5  -2  100.43    3.00 
  -3   5   2  102.42    2.87 
   2  -5  -2   25.90    0.98 
   2  -5  -2   25.88    0.95 
  -2   5   2   27.86    0.93 
   1  -5  -2   10.25    0.55 
   1  -5  -2   11.00    0.54 
  -1   5   2    9.88    0.52 
   0  -5  -2   99.56    2.73 
   0  -5  -2   97.07    2.72 
   0   5   2   97.73    2.79 
  -1  -5  -2  186.98    4.95 
  -1  -5  -2  184.14    4.94 
   1   5   2  186.84    5.09 
  -2  -5  -2   41.91    1.38 
   2   5   2   45.47    1.44 
   4   5   2  185.28    5.17 
   4   5   2  185.14    5.01 
   5   5   2   89.53    2.60 
   5   5   2   87.02    2.69 
   6   5   2    1.60    0.44 
   6   5   2    1.95    0.42 
   7   5   2   60.08    2.07 
   7   5   2   61.53    2.08 
   8   5   2   52.52    1.95 
   8   5   2   54.36    1.96 
   9   5   2   12.79    1.01 
   9   5   2   12.42    0.99 
   7  -6  -2   20.44    1.35 
   6  -6  -2   47.40    1.94 
   5  -6  -2   27.78    1.16 
   5  -6  -2   26.62    1.26 
   4  -6  -2    2.06    0.40 
   4  -6  -2    0.85    0.41 
   3  -6  -2   63.40    1.92 
   3  -6  -2   61.35    2.00 
  -3   6   2   59.45    1.86 
   2  -6  -2  100.59    2.89 
   2  -6  -2   97.03    2.81 
  -2   6   2   98.31    2.82 
   1  -6  -2   36.13    1.23 
   1  -6  -2   37.51    1.25 
  -1   6   2   37.03    1.24 
   0  -6  -2    6.60    0.50 
   0  -6  -2    6.63    0.44 
   0   6   2    5.76    0.47 
  -1  -6  -2  122.45    3.42 
  -1  -6  -2  121.41    3.35 
   1   6   2  124.53    3.50 
  -2  -6  -2  165.95    4.58 
   2   6   2  170.28    4.71 
  -3  -6  -2    0.23    0.14 
   3   6   2    0.12    0.11 
   4   6   2   27.91    1.13 
   4   6   2   27.50    0.99 
   5   6   2  144.24    3.94 
   5   6   2  137.62    4.11 
   6   6   2  102.56    3.01 
   6   6   2  101.18    3.14 
   7   6   2    8.91    0.79 
   7   6   2   10.16    0.76 
   8   6   2   34.31    1.51 
   9   6   2   39.23    1.73 
   7  -7  -2    1.55    0.77 
   6  -7  -2    9.43    0.95 
   5  -7  -2   27.83    1.36 
   4  -7  -2   35.71    1.38 
   4  -7  -2   35.80    1.44 
   3  -7  -2    1.90    0.44 
   3  -7  -2    1.42    0.41 
  -3   7   2    1.72    0.35 
   2  -7  -2   23.64    0.98 
   2  -7  -2   22.07    1.00 
  -2   7   2   23.18    0.94 
   1  -7  -2   90.35    2.65 
   1  -7  -2   90.72    2.68 
  -1   7   2   92.43    2.70 
   0  -7  -2   82.55    2.50 
   0  -7  -2   82.12    2.41 
   0   7   2   87.08    2.53 
  -1  -7  -2    1.50    0.38 
  -1  -7  -2    1.26    0.26 
   1   7   2    1.43    0.38 
  -2  -7  -2  129.73    3.66 
   2   7   2  127.83    3.74 
  -3  -7  -2   -0.06    0.14 
  -5  -7  -2   21.68    1.05 
   5   7   2   21.00    1.03 
   6   7   2   75.96    2.53 
   7   7   2   53.02    2.00 
   8   7   2    0.93    0.57 
   9   7   2   15.82    1.20 
   6  -8  -2    3.83    0.81 
   5  -8  -2    3.80    0.69 
   4  -8  -2   37.64    1.59 
   4  -8  -2   40.21    1.57 
   3  -8  -2   45.79    1.68 
   3  -8  -2   44.79    1.66 
   2  -8  -2    2.98    0.44 
   2  -8  -2    3.53    0.52 
  -2   8   2    2.92    0.45 
   1  -8  -2   48.82    1.61 
   1  -8  -2   46.38    1.67 
  -1   8   2   50.80    1.67 
   0  -8  -2   70.19    2.05 
   0  -8  -2   64.82    2.14 
   0   8   2   67.35    2.14 
  -1  -8  -2   65.25    1.91 
  -1  -8  -2   65.79    2.10 
   1   8   2   61.75    2.08 
  -2  -8  -2   -0.14    0.37 
   2   8   2    0.21    0.36 
  -3  -8  -2   75.97    2.39 
   3   8   2   72.56    2.39 
  -4  -8  -2   98.31    2.99 
   4   8   2   98.10    3.06 
  -5  -8  -2   24.56    1.15 
   5   8   2   25.06    1.17 
   6   8   2    5.99    0.70 
   7   8   2   41.58    1.74 
   8   8   2   20.01    1.28 
   5  -9  -2    5.50    0.84 
   4  -9  -2    1.99    0.52 
   4  -9  -2    0.82    0.51 
   3  -9  -2   37.98    1.53 
   3  -9  -2   35.44    1.47 
   2  -9  -2   33.23    1.40 
   2  -9  -2   33.28    1.30 
  -2   9   2   33.16    1.30 
   1  -9  -2   11.88    0.71 
   1  -9  -2   12.27    0.85 
  -1   9   2   10.45    0.74 
   0  -9  -2   16.21    0.92 
   0  -9  -2   16.53    0.77 
   0   9   2   16.13    0.89 
  -1  -9  -2  105.12    3.24 
   1   9   2  109.77    3.27 
  -2  -9  -2   66.76    2.25 
   2   9   2   69.07    2.26 
  -3  -9  -2    0.36    0.42 
   3   9   2    0.22    0.44 
  -4  -9  -2   52.69    1.90 
   4   9   2   52.68    1.92 
  -5  -9  -2   56.65    2.05 
   5   9   2   58.39    2.08 
   6   9   2   18.80    1.09 
   7   9   2    1.11    0.66 
   4 -10  -2   10.26    0.96 
   3 -10  -2    0.57    0.50 
   2 -10  -2   40.38    1.64 
   1 -10  -2   42.55    1.70 
  -1  10   2   45.02    1.64 
   0 -10  -2    3.49    0.59 
   0  10   2    3.47    0.56 
  -1 -10  -2   13.11    0.88 
   1  10   2   13.54    0.89 
  -2 -10  -2   64.32    2.21 
   2  10   2   62.59    2.19 
  -3 -10  -2   29.07    1.31 
   3  10   2   26.63    1.28 
  -4 -10  -2    0.58    0.48 
   4  10   2    0.09    0.43 
  -5 -10  -2   18.65    1.11 
   5  10   2   18.07    1.06 
  -6 -10  -2   27.43    1.40 
   6  10   2   24.02    1.35 
   7  10   2   12.18    1.09 
   2 -11  -2    1.32    0.57 
   1 -11  -2   25.31    1.31 
   0 -11  -2   40.62    1.74 
   0  11   2   43.65    1.66 
  -1 -11  -2    9.23    0.85 
   1  11   2   11.47    0.85 
  -2 -11  -2    4.56    0.68 
   2  11   2    5.52    0.69 
  -3 -11  -2   39.45    1.71 
   3  11   2   42.19    1.71 
  -4 -11  -2   27.57    1.39 
   4  11   2   27.61    1.37 
  -5 -11  -2    1.67    0.60 
   5  11   2    2.08    0.58 
   0 -12  -2   16.22    1.10 
  -1 -12  -2   30.67    1.56 
   1  12   2   33.78    1.48 
  -2 -12  -2    4.34    0.77 
   2  12   2    6.02    0.76 
  -3 -12  -2    2.94    0.74 
   3  12   2    3.00    0.66 
   5  10  -3    5.55    0.92 
  -5 -10   3    2.69    0.76 
   4  10  -3    1.19    0.61 
  -4 -10   3    1.29    0.61 
   3  10  -3   13.34    1.07 
  -3 -10   3   13.70    1.11 
   2  10  -3   28.01    1.36 
  -2 -10   3   26.76    1.40 
  -1 -10   3    6.34    0.78 
   0 -10   3    6.61    0.82 
   1 -10   3   26.69    1.45 
   2 -10   3   21.75    1.50 
   6   9  -3   12.51    1.11 
  -6  -9   3   12.53    1.07 
   5   9  -3   24.53    1.38 
  -5  -9   3   25.63    1.37 
   4   9  -3   13.70    1.04 
  -4  -9   3   14.61    1.01 
   3   9  -3    0.52    0.45 
  -3  -9   3    1.00    0.53 
   2   9  -3   40.79    1.64 
  -2  -9   3   41.14    1.67 
   1   9  -3   38.76    1.53 
  -1  -9   3   35.82    1.57 
   0  -9   3    9.73    0.89 
   1  -9   3    7.29    0.83 
   2  -9   3   22.84    1.36 
   3  -9   3   27.15    1.54 
   7   8  -3   20.65    1.32 
  -7  -8   3   22.55    1.26 
   6   8  -3    3.92    0.67 
  -6  -8   3    2.03    0.60 
   5   8  -3   19.70    1.19 
  -5  -8   3   18.12    1.10 
   4   8  -3   39.85    1.69 
  -4  -8   3   43.37    1.65 
   3   8  -3   41.20    1.65 
  -3  -8   3   39.85    1.59 
   2   8  -3    0.37    0.43 
  -2  -8   3   -0.57    0.40 
   1   8  -3   44.73    1.68 
  -1  -8   3   45.23    1.71 
   0   8  -3   86.86    2.70 
   0  -8   3   87.50    2.83 
   1  -8   3   17.93    1.06 
   2  -8   3    4.02    0.69 
   3  -8   3   32.68    1.61 
   4  -8   3   18.65    1.26 
   5  -8   3    0.59    0.67 
   8   7  -3    5.37    0.94 
   7   7  -3   31.63    1.54 
  -7  -7   3   32.12    1.41 
   6   7  -3   49.25    1.97 
  -6  -7   3   51.07    1.82 
   5   7  -3    1.27    0.54 
  -5  -7   3    0.88    0.46 
   4   7  -3   37.81    1.61 
  -4  -7   3   38.61    1.51 
   3   7  -3   80.04    2.65 
  -3  -7   3   81.49    2.56 
   2   7  -3   51.32    1.82 
  -2  -7   3   49.93    1.78 
   1   7  -3    0.47    0.38 
  -1  -7   3    0.67    0.38 
   0   7  -3   37.90    1.38 
   0  -7   3   38.02    1.52 
  -1   7  -3   62.52    1.98 
   1  -7   3   62.96    2.17 
   2  -7   3   17.62    1.07 
   3  -7   3    1.49    0.56 
   3  -7   3    0.32    0.43 
   4  -7   3   25.17    1.39 
   4  -7   3   24.99    1.29 
   5  -7   3   19.58    1.27 
   5  -7   3   21.32    1.31 
   6  -7   3    7.86    1.01 
   6  -7   3    6.35    0.95 
   8   6  -3   10.69    1.07 
   7   6  -3    1.11    0.60 
   6   6  -3   68.01    2.38 
  -6  -6   3   65.43    2.17 
   5   6  -3   58.87    2.15 
  -5  -6   3   59.99    1.97 
   4   6  -3   30.80    1.33 
  -4  -6   3   29.58    1.24 
   3   6  -3   19.16    1.02 
  -3  -6   3   20.23    0.95 
   2   6  -3  161.95    4.67 
  -2  -6   3  163.63    4.56 
   1   6  -3  112.17    3.32 
  -1  -6   3  113.64    3.32 
   0   6  -3    2.54    0.40 
  -1   6  -3   77.11    2.31 
   1  -6   3   79.17    2.28 
   1  -6   3   75.46    2.49 
   2  -6   3   60.62    2.13 
   2  -6   3   63.37    2.01 
   3  -6   3   23.85    1.13 
   3  -6   3   21.75    1.18 
   4  -6   3    0.56    0.48 
   4  -6   3    0.61    0.57 
   5  -6   3   21.43    1.32 
   5  -6   3   22.64    1.27 
   6  -6   3   24.79    1.44 
   6  -6   3   22.95    1.36 
   9   5  -3   12.43    1.16 
   8   5  -3   51.59    2.07 
   7   5  -3   34.84    1.57 
   6   5  -3    1.09    0.51 
  -6  -5   3    1.47    0.41 
   5   5  -3  178.26    5.16 
  -5  -5   3  175.29    4.85 
   4   5  -3  112.49    3.66 
  -4  -5   3  133.23    3.51 
   3   5  -3   18.95    0.95 
  -3  -5   3   19.14    0.89 
   2   5  -3   32.98    1.25 
  -2  -5   3   32.69    1.24 
   1   5  -3  135.27    3.87 
  -1  -5   3  135.74    3.81 
   0   5  -3   77.74    2.35 
   0  -5   3   79.89    2.18 
  -1   5  -3    8.35    0.50 
   1  -5   3    7.10    0.51 
  -2   5  -3   27.09    0.93 
   2  -5   3   26.66    1.09 
   2  -5   3   27.31    1.21 
   3  -5   3   74.41    2.43 
   3  -5   3   77.40    2.50 
   4  -5   3   28.23    1.30 
   4  -5   3   28.77    1.36 
   5  -5   3    0.29    0.56 
   5  -5   3    0.56    0.50 
   6  -5   3    4.80    0.79 
   6  -5   3    4.31    0.76 
   7  -5   3   22.30    1.39 
   7  -5   3   23.15    1.47 
   9   4  -3    2.13    0.73 
   8   4  -3   15.54    1.04 
   7   4  -3   82.19    2.76 
   6   4  -3   67.68    2.34 
  -6  -4   3   67.59    2.09 
   5   4  -3    5.15    0.61 
  -5  -4   3    5.88    0.51 
   4   4  -3   81.84    2.18 
  -4  -4   3   78.26    2.35 
   3   4  -3  207.52    5.86 
  -3  -4   3  212.00    5.60 
   2   4  -3   39.68    1.37 
  -2  -4   3   37.66    1.30 
   1   4  -3   22.67    0.93 
  -1  -4   3   23.24    0.91 
   0   4  -3  175.20    4.78 
   0  -4   3  174.47    4.72 
   0  -4   3  172.32    4.61 
  -1   4  -3   91.65    2.58 
   1  -4   3   87.60    2.58 
   1  -4   3   93.79    2.69 
  -2   4  -3    2.74    0.27 
   2  -4   3    2.19    0.42 
   2  -4   3    3.03    0.41 
   3  -4   3   14.33    0.93 
   3  -4   3   15.92    0.83 
   4  -4   3   55.16    1.99 
   4  -4   3   54.82    1.95 
   5  -4   3   40.96    1.64 
   6  -4   3    3.26    0.67 
   7  -4   3    6.23    0.90 
   8  -4   3   24.97    1.50 
   9   3  -3   42.29    1.84 
   8   3  -3    9.27    0.89 
   7   3  -3   25.99    1.27 
   7   3  -3   24.30    1.08 
   6   3  -3  224.92    6.33 
   6   3  -3  219.47    6.01 
   5   3  -3  169.97    4.92 
   5   3  -3  168.51    4.60 
  -5  -3   3  171.85    4.58 
   4   3  -3   -0.12    0.31 
   4   3  -3    0.34    0.18 
  -4  -3   3   -0.08    0.23 
   3   3  -3  143.58    3.73 
   3   3  -3  140.01    4.05 
  -3  -3   3  140.96    3.82 
   2   3  -3  304.72    8.30 
  -2  -3   3  309.71    7.98 
   1   3  -3   65.92    1.98 
  -1  -3   3   68.48    1.94 
  -1  -3   3   64.33    1.75 
   0   3  -3    6.62    0.43 
   0  -3   3    6.38    0.46 
   0  -3   3    6.60    0.35 
  -1   3  -3  161.83    4.33 
   1  -3   3  158.31    4.33 
  -2   3  -3  123.40    3.33 
   2  -3   3  123.80    3.49 
   2  -3   3  125.30    3.53 
   3  -3   3   32.64    1.25 
   4  -3   3    6.54    0.65 
   5  -3   3   35.69    1.50 
   6  -3   3   38.92    1.63 
   7  -3   3   10.98    0.99 
   8  -3   3    4.28    0.79 
   9   2  -3   38.27    1.61 
   9   2  -3   40.41    1.72 
   8   2  -3   45.57    1.73 
   8   2  -3   46.77    1.84 
   7   2  -3   20.43    1.11 
   7   2  -3   19.26    0.98 
   6   2  -3   30.06    1.16 
   6   2  -3   31.07    1.30 
   5   2  -3  186.24    5.07 
   5   2  -3  187.56    5.32 
   4   2  -3   89.65    2.73 
  -4  -2   3   89.31    2.46 
   3   2  -3    3.43    0.25 
  -3  -2   3    3.40    0.29 
   2   2  -3  136.34    3.88 
   2   2  -3  136.56    3.61 
  -2  -2   3  140.44    3.66 
   1   2  -3  136.25    4.02 
  -1  -2   3  155.65    3.89 
   0   2  -3   49.94    1.49 
   0  -2   3   49.73    1.40 
   0  -2   3   50.48    1.50 
  -1   2  -3    0.31    0.17 
   1  -2   3    0.39    0.20 
  -2   2  -3   46.12    1.26 
   2  -2   3   44.96    1.45 
   3  -2   3  182.35    5.03 
   4  -2   3   36.16    1.36 
   5  -2   3    0.60    0.44 
   6  -2   3   49.57    1.90 
   7  -2   3   51.73    2.03 
   8  -2   3   12.62    1.05 
   9  -2   3    5.85    0.89 
   9   1  -3   -0.15    0.47 
   8   1  -3   57.17    2.07 
   8   1  -3   58.35    2.11 
   7   1  -3  167.44    4.86 
   7   1  -3  163.33    4.73 
   6   1  -3   78.08    2.44 
   6   1  -3   80.82    2.58 
   5   1  -3   32.66    1.20 
   5   1  -3   35.49    1.33 
   4   1  -3  157.28    4.42 
   4   1  -3  152.45    4.21 
   3   1  -3  299.75    7.72 
   3   1  -3  288.43    7.96 
  -3  -1   3  293.37    7.52 
   2   1  -3   22.54    0.70 
  -2  -1   3   21.52    0.70 
   1   1  -3   84.80    2.22 
   1   1  -3   81.76    2.38 
  -1  -1   3   81.99    2.23 
   0   1  -3  277.21    7.37 
  -1   1  -3  210.37    5.59 
   1  -1   3  211.37    5.57 
   2  -1   3    3.11    0.20 
   2  -1   3    2.97    0.31 
   3  -1   3   25.68    0.97 
   4  -1   3  120.55    3.49 
   5  -1   3   17.90    0.89 
   6  -1   3    0.30    0.42 
   7  -1   3   38.84    1.65 
   8  -1   3   71.66    2.60 
   9  -1   3   11.62    1.06 
   9   0  -3   24.98    1.32 
   8   0  -3    2.01    0.54 
   8   0  -3    2.52    0.57 
   7   0  -3   33.14    1.40 
   7   0  -3   33.21    1.37 
   6   0  -3  129.68    3.89 
   6   0  -3  132.92    3.82 
   5   0  -3   43.64    1.49 
   5   0  -3   44.02    1.59 
   4   0  -3   38.87    1.39 
   4   0  -3   39.51    1.28 
   3   0  -3  251.90    6.86 
   2   0  -3  207.43    5.31 
   2   0  -3  192.37    5.47 
  -2   0   3  201.38    5.11 
   1   0  -3   23.73    0.74 
   1   0  -3   23.67    0.87 
  -1   0   3   23.49    0.70 
   0   0  -3   50.32    1.48 
  -1   0  -3   51.13    1.45 
   2   0   3  317.01    8.59 
   2   0   3  335.88    8.57 
   3   0   3   57.69    1.59 
   3   0   3   58.64    1.78 
   6   0   3   84.33    2.70 
   7   0   3    0.59    0.52 
   8   0   3   26.52    1.39 
   9   0   3   51.76    2.14 
   9  -1  -3   52.29    2.08 
   8  -1  -3   43.27    1.74 
   7  -1  -3    7.91    0.75 
   7  -1  -3    8.13    0.73 
   6  -1  -3   38.54    1.49 
   6  -1  -3   40.20    1.52 
   5  -1  -3  107.88    3.26 
   5  -1  -3  110.01    3.19 
   4  -1  -3   38.12    1.27 
   4  -1  -3   36.42    1.35 
   3  -1  -3    2.81    0.32 
   3  -1  -3    2.01    0.34 
   2  -1  -3  105.88    2.85 
   2  -1  -3  100.94    2.93 
   0  -1  -3  132.43    3.59 
   0  -1  -3  132.24    3.53 
   1   1   3    5.39    0.32 
   3   1   3  226.89    6.05 
   3   1   3  229.81    6.12 
   4   1   3   24.16    0.81 
   4   1   3   25.50    1.00 
   5   1   3   56.28    1.87 
   5   1   3   55.92    1.65 
   6   1   3  128.06    3.57 
   6   1   3  127.99    3.81 
   7   1   3   74.19    2.50 
   8   1   3    2.88    0.62 
   9   1   3   20.15    1.28 
   9  -2  -3   12.47    1.10 
   8  -2  -3   39.28    1.69 
   7  -2  -3   60.41    2.13 
   7  -2  -3   58.70    1.99 
   6  -2  -3    4.10    0.52 
   6  -2  -3    3.72    0.55 
   5  -2  -3   69.49    2.25 
   5  -2  -3   75.35    2.31 
   4  -2  -3  193.84    5.41 
   4  -2  -3  197.21    5.37 
   3  -2  -3  210.47    5.73 
   3  -2  -3  213.37    5.42 
   3  -2  -3  214.61    5.81 
   2  -2  -3   -0.13    0.11 
   2  -2  -3    0.30    0.09 
   2  -2  -3    0.45    0.22 
   1  -2  -3  104.10    2.86 
   1  -2  -3  102.61    2.66 
  -1   2   3  102.22    2.87 
   0  -2  -3    0.05    0.05 
   1   2   3  155.74    4.20 
   2   2   3    8.86    0.44 
   3   2   3  124.53    3.48 
   3   2   3  130.82    3.54 
   4   2   3  224.99    6.16 
   4   2   3  234.59    6.22 
   5   2   3   72.47    2.14 
   5   2   3   74.85    2.30 
   6   2   3   11.31    0.63 
   6   2   3   12.58    0.84 
   7   2   3   82.76    2.70 
   8   2   3   78.99    2.68 
   9   2   3    2.40    0.66 
   9  -3  -3    5.79    0.84 
   8  -3  -3    3.88    0.68 
   7  -3  -3   11.80    0.88 
   6  -3  -3   29.71    1.30 
   6  -3  -3   29.57    1.15 
   5  -3  -3   11.24    0.54 
   5  -3  -3    8.77    0.63 
   4  -3  -3    6.87    0.52 
   4  -3  -3    5.96    0.37 
   4  -3  -3    5.65    0.51 
   3  -3  -3   64.08    1.95 
   3  -3  -3   64.77    1.77 
  -3   3   3   66.78    1.97 
   1  -3  -3    8.54    0.36 
   1  -3  -3    8.62    0.43 
   0  -3  -3   77.83    2.07 
   0  -3  -3   74.93    2.13 
   2   3   3  235.64    6.32 
   3   3   3    1.80    0.28 
   3   3   3    0.92    0.24 
   4   3   3  213.88    5.89 
   4   3   3  221.05    5.89 
   5   3   3  189.01    5.26 
   5   3   3  194.84    5.30 
   6   3   3   45.10    1.64 
   6   3   3   45.28    1.53 
   7   3   3   10.95    0.81 
   7   3   3   10.29    0.71 
   8   3   3   38.23    1.62 
   9   3   3   31.97    1.55 
   8  -4  -3    7.16    0.86 
   7  -4  -3   -0.13    0.45 
   6  -4  -3   77.85    2.59 
  -5   4   3   85.57    2.55 
   4  -4  -3   38.47    1.21 
  -4   4   3   40.50    1.33 
   3  -4  -3    7.52    0.42 
   3  -4  -3    5.89    0.50 
  -3   4   3    6.98    0.51 
   2  -4  -3  124.34    3.45 
   2  -4  -3  121.76    3.27 
  -2   4   3  123.70    3.44 
   1  -4  -3  151.11    4.12 
   1  -4  -3  154.67    3.99 
  -1   4   3  148.95    4.15 
   0  -4  -3   48.12    1.47 
   0  -4  -3   49.77    1.44 
   0   4   3   51.56    1.53 
   1   4   3   37.19    1.19 
  -2  -4  -3  323.57    8.46 
   2   4   3  328.22    8.72 
   3   4   3  179.30    4.93 
   4   4   3    5.33    0.44 
   4   4   3    5.09    0.45 
   5   4   3  100.07    2.93 
   5   4   3  100.26    2.94 
   6   4   3  136.45    3.95 
   6   4   3  135.93    3.91 
   7   4   3   38.02    1.40 
   7   4   3   36.22    1.50 
   8   4   3    0.76    0.51 
   8   4   3    2.20    0.50 
   9   4   3   53.07    2.07 
   8  -5  -3   13.60    1.14 
   7  -5  -3    4.67    0.72 
   6  -5  -3    0.42    0.43 
   5  -5  -3   20.08    1.02 
  -5   5   3   19.46    0.88 
   4  -5  -3   57.00    1.94 
   4  -5  -3   57.08    1.72 
  -4   5   3   57.08    1.78 
   3  -5  -3   65.87    2.09 
   3  -5  -3   68.04    1.94 
  -3   5   3   66.29    2.00 
   2  -5  -3    0.36    0.27 
   2  -5  -3    0.34    0.22 
  -2   5   3    0.62    0.25 
   1  -5  -3  183.59    4.80 
   1  -5  -3  179.76    4.92 
  -1   5   3  181.50    4.97 
   0  -5  -3  201.06    5.34 
   0  -5  -3  202.43    5.44 
   0   5   3  205.15    5.53 
  -1  -5  -3   37.26    1.19 
  -1  -5  -3   37.33    1.21 
   1   5   3   38.00    1.26 
  -3  -5  -3  236.06    6.32 
   3   5   3  239.24    6.50 
   4   5   3  154.21    4.28 
   4   5   3  156.27    4.39 
   5   5   3    5.32    0.53 
   5   5   3    4.96    0.50 
   6   5   3   34.63    1.35 
   6   5   3   37.08    1.38 
   7   5   3   74.24    2.39 
   7   5   3   71.86    2.39 
   8   5   3   18.87    1.11 
   8   5   3   18.89    1.03 
   9   5   3    0.07    0.52 
   7  -6  -3   22.82    1.32 
   6  -6  -3   32.77    1.53 
   5  -6  -3    1.33    0.51 
   4  -6  -3   13.99    0.73 
   4  -6  -3   12.59    0.84 
  -4   6   3   12.65    0.70 
   3  -6  -3   87.96    2.69 
   3  -6  -3   89.58    2.53 
  -3   6   3   85.57    2.57 
   2  -6  -3   62.42    1.85 
   2  -6  -3   60.28    1.93 
  -2   6   3   61.66    1.89 
   1  -6  -3    1.00    0.30 
   1  -6  -3    0.79    0.26 
  -1   6   3    0.68    0.28 
   0  -6  -3  139.11    3.82 
   0  -6  -3  139.13    3.80 
   0   6   3  138.32    3.90 
  -1  -6  -3  181.48    4.90 
  -1  -6  -3  180.94    4.91 
   1   6   3  184.01    5.06 
  -2  -6  -3   65.70    2.02 
   2   6   3   67.67    2.08 
   4   6   3  153.31    4.19 
   4   6   3  149.76    4.34 
   5   6   3  101.14    3.00 
   5   6   3  105.61    3.13 
   6   6   3    1.42    0.42 
   6   6   3    0.84    0.42 
   7   6   3   24.20    1.16 
   7   6   3   26.83    1.22 
   8   6   3   43.43    1.74 
   8   6   3   45.97    1.76 
   9   6   3   17.05    1.16 
   7  -7  -3    1.92    0.77 
   6  -7  -3   26.83    1.45 
   5  -7  -3   26.36    1.32 
   4  -7  -3    4.19    0.60 
   4  -7  -3    3.99    0.49 
   3  -7  -3   18.09    0.91 
   3  -7  -3   18.62    0.90 
  -3   7   3   18.80    0.87 
   2  -7  -3  124.45    3.57 
   2  -7  -3  121.71    3.48 
  -2   7   3  125.50    3.55 
   1  -7  -3   77.04    2.33 
   1  -7  -3   78.04    2.32 
  -1   7   3   77.53    2.35 
   0  -7  -3    0.50    0.26 
   0  -7  -3    0.04    0.27 
   0   7   3    0.14    0.33 
  -1  -7  -3  113.80    3.17 
  -1  -7  -3  108.36    3.08 
   1   7   3  107.50    3.22 
  -2  -7  -3  182.59    4.94 
   2   7   3  176.84    5.06 
   4   7   3    8.93    0.71 
   4   7   3    8.88    0.58 
   5   7   3   72.83    2.42 
   5   7   3   76.72    2.29 
   6   7   3   55.86    1.85 
   6   7   3   55.42    1.99 
   7   7   3    7.60    0.77 
   8   7   3    5.23    0.73 
   9   7   3   29.95    1.53 
   6  -8  -3    0.83    0.69 
   5  -8  -3   17.73    1.10 
   4  -8  -3   39.13    1.57 
   3  -8  -3   12.19    0.77 
   3  -8  -3    9.73    0.77 
  -3   8   3   10.61    0.73 
   2  -8  -3   13.62    0.78 
   2  -8  -3   13.04    0.80 
  -2   8   3   13.79    0.80 
   1  -8  -3  151.01    4.29 
   1  -8  -3  151.28    4.28 
  -1   8   3  156.54    4.37 
   0  -8  -3   70.54    2.23 
   0  -8  -3   72.91    2.17 
   0   8   3   71.49    2.25 
  -1  -8  -3   -0.15    0.25 
  -1  -8  -3    0.17    0.35 
   1   8   3   -0.14    0.37 
  -2  -8  -3   45.55    1.64 
   2   8   3   48.33    1.69 
  -3  -8  -3  108.45    3.24 
   3   8   3  109.25    3.30 
  -4  -8  -3   22.81    1.07 
   4   8   3   22.74    1.07 
   5   8   3    0.72    0.46 
   6   8   3   37.01    1.53 
   7   8   3   31.99    1.50 
   8   8   3    7.35    0.89 
   5  -9  -3    1.62    0.65 
   4  -9  -3   25.11    1.23 
   3  -9  -3   51.16    1.85 
   3  -9  -3   53.73    1.89 
   2  -9  -3    9.41    0.76 
   2  -9  -3    9.35    0.72 
  -2   9   3   11.81    0.78 
   1  -9  -3   17.79    0.87 
   1  -9  -3   16.42    0.95 
  -1   9   3   16.66    0.90 
   0  -9  -3   71.70    2.37 
   0  -9  -3   75.17    2.28 
   0   9   3   77.81    2.42 
  -1  -9  -3   77.17    2.27 
  -1  -9  -3   72.74    2.40 
   1   9   3   76.12    2.43 
  -2  -9  -3    0.89    0.46 
   2   9   3    1.34    0.45 
  -3  -9  -3   46.09    1.73 
   3   9   3   46.05    1.75 
  -4  -9  -3   77.18    2.53 
   4   9   3   76.84    2.57 
  -5  -9  -3   23.88    1.20 
   5   9   3   23.55    1.20 
   6   9   3   -0.01    0.52 
   7   9   3   16.44    1.17 
   8   9   3   30.41    1.60 
   4 -10  -3   -0.32    0.52 
   3 -10  -3   23.46    1.18 
   3 -10  -3   23.57    1.17 
   2 -10  -3   58.42    2.00 
   2 -10  -3   56.30    2.02 
   1 -10  -3   26.15    1.23 
  -1  10   3   24.58    1.18 
   0 -10  -3    9.70    0.81 
   0  10   3   11.07    0.82 
  -1 -10  -3   41.81    1.65 
   1  10   3   42.76    1.63 
  -2 -10  -3   46.14    1.76 
   2  10   3   46.59    1.76 
  -3 -10  -3    2.14    0.50 
   3  10   3    2.03    0.50 
  -4 -10  -3    9.76    0.86 
   4  10   3    9.40    0.83 
  -5 -10  -3   26.40    1.30 
   5  10   3   27.31    1.35 
   6  10   3   19.31    1.13 
   7  10   3    1.24    0.71 
   2 -11  -3   22.47    1.23 
   1 -11  -3   44.39    1.79 
  -1  11   3   44.80    1.72 
   0 -11  -3   10.70    0.88 
   0  11   3   10.37    0.85 
  -1 -11  -3    5.15    0.67 
   1  11   3    4.95    0.66 
  -2 -11  -3   36.63    1.55 
   2  11   3   35.74    1.54 
  -3 -11  -3   32.66    1.48 
   3  11   3   35.20    1.53 
  -4 -11  -3    3.80    0.65 
   4  11   3    5.68    0.74 
  -5 -11  -3    2.56    0.64 
   5  11   3    3.42    0.68 
   0 -12  -3   19.38    1.23 
   0  12   3   22.99    1.19 
  -1 -12  -3   15.44    1.05 
   1  12   3   14.24    1.01 
  -2 -12  -3    0.19    0.53 
   2  12   3    0.42    0.52 
  -3 -12  -3   19.35    1.21 
   3  12   3   20.81    1.17 
   3  10  -4   31.06    1.50 
  -3 -10   4   29.31    1.53 
   2  10  -4   11.72    0.96 
  -2 -10   4    9.29    0.97 
  -1 -10   4    1.35    0.62 
   0 -10   4   23.08    1.35 
   5   9  -4   18.83    1.23 
  -5  -9   4   17.21    1.21 
   4   9  -4    1.29    0.59 
  -4  -9   4    2.03    0.62 
   3   9  -4   35.24    1.54 
  -3  -9   4   34.57    1.57 
   2   9  -4   50.92    1.94 
  -2  -9   4   51.11    1.98 
   1   9  -4   10.66    0.87 
  -1  -9   4   11.55    0.98 
   0  -9   4    4.37    0.72 
   1  -9   4   26.00    1.40 
   2  -9   4   24.21    1.44 
   3  -9   4    2.03    0.83 
   7   8  -4    4.73    0.79 
  -7  -8   4    4.07    0.74 
   6   8  -4    2.94    0.68 
  -6  -8   4    2.73    0.64 
   5   8  -4   70.53    2.54 
  -5  -8   4   67.28    2.36 
   4   8  -4   53.21    2.07 
  -4  -8   4   54.22    2.02 
   3   8  -4    1.47    0.53 
  -3  -8   4    1.34    0.52 
   2   8  -4   26.02    1.26 
  -2  -8   4   24.76    1.23 
   1   8  -4   53.23    1.92 
  -1  -8   4   53.25    1.96 
   0  -8   4   14.15    0.99 
   1  -8   4    2.75    0.63 
   2  -8   4   22.48    1.32 
   3  -8   4   26.04    1.46 
   4  -8   4    5.56    0.91 
   7   7  -4   42.99    1.90 
  -7  -7   4   40.80    1.66 
   6   7  -4    9.51    0.94 
  -6  -7   4   11.52    0.81 
   5   7  -4   11.33    0.98 
  -5  -7   4   11.98    0.89 
   4   7  -4  132.49    4.07 
  -4  -7   4  131.20    3.89 
   3   7  -4   65.98    2.24 
  -3  -7   4   61.47    2.13 
   2   7  -4    4.24    0.61 
  -2  -7   4    4.93    0.62 
   1   7  -4   33.85    1.36 
  -1  -7   4   32.58    1.39 
   0   7  -4   77.26    2.38 
   0  -7   4   71.27    2.46 
   1  -7   4   32.65    1.46 
   2  -7   4    0.62    0.48 
   3  -7   4   15.60    1.08 
   4  -7   4   23.76    1.37 
   5  -7   4    7.89    0.93 
   5  -7   4   10.87    1.12 
   8   6  -4    0.68    0.65 
   7   6  -4   31.20    1.53 
  -7  -6   4   31.90    1.37 
   6   6  -4   81.54    2.83 
  -6  -6   4   81.06    2.56 
   5   6  -4   29.93    1.43 
  -5  -6   4   30.56    1.27 
   4   6  -4   12.86    0.89 
  -4  -6   4   13.44    0.85 
   3   6  -4   67.59    2.28 
  -3  -6   4   65.95    2.15 
   2   6  -4   69.86    2.27 
  -2  -6   4   68.58    2.22 
   1   6  -4    0.17    0.36 
  -1  -6   4    0.36    0.40 
   0   6  -4   31.88    1.20 
   0  -6   4   31.02    1.30 
  -1   6  -4   73.56    2.20 
   1  -6   4   68.36    2.34 
   2  -6   4   23.96    1.22 
   2  -6   4   25.21    1.08 
   3  -6   4    0.27    0.49 
   3  -6   4    0.91    0.47 
   4  -6   4   10.91    0.90 
   4  -6   4   10.81    0.98 
   5  -6   4   36.07    1.60 
   5  -6   4   28.20    1.59 
   6  -6   4   13.77    1.19 
   6  -6   4   14.28    1.21 
   8   5  -4   31.51    1.63 
   7   5  -4    0.46    0.58 
   6   5  -4   30.88    1.47 
  -6  -5   4   32.15    1.25 
   5   5  -4  162.58    4.85 
  -5  -5   4  162.88    4.52 
   4   5  -4   96.26    3.03 
  -4  -5   4   94.26    2.82 
   3   5  -4   12.68    0.84 
  -3  -5   4   11.52    0.70 
   2   5  -4   91.10    2.84 
  -2  -5   4   93.45    2.75 
   1   5  -4  144.99    4.22 
  -1  -5   4  150.96    4.16 
   0   5  -4   15.42    0.77 
   0  -5   4   15.26    0.62 
   0  -5   4   15.67    0.84 
  -1   5  -4    7.46    0.52 
   1  -5   4    6.24    0.50 
   2  -5   4   46.71    1.60 
   2  -5   4   44.52    1.73 
   3  -5   4   51.66    1.95 
   3  -5   4   51.01    1.82 
   4  -5   4    6.75    0.81 
   4  -5   4    7.90    0.78 
   5  -5   4    9.39    0.89 
   5  -5   4   10.25    0.98 
   6  -5   4   21.71    1.30 
   6  -5   4   16.38    1.24 
   7  -5   4   15.65    1.28 
   7  -5   4   18.78    1.31 
   9   4  -4    4.76    0.88 
   8   4  -4   60.75    2.35 
   7   4  -4   44.05    1.81 
   6   4  -4    5.58    0.69 
  -6  -4   4    5.33    0.53 
   5   4  -4   53.52    1.95 
  -5  -4   4   54.29    1.74 
   3   4  -4   28.81    1.20 
  -3  -4   4   28.79    1.09 
   2   4  -4    5.58    0.55 
  -2  -4   4    5.00    0.47 
   1   4  -4   94.11    2.81 
  -1  -4   4   97.23    2.75 
  -1  -4   4   93.07    2.51 
   0   4  -4  103.73    2.94 
   0  -4   4   97.90    2.79 
   0  -4   4  103.40    2.95 
  -2   4  -4    3.40    0.31 
   2  -4   4    2.99    0.43 
   3  -4   4   47.83    1.77 
   3  -4   4   47.25    1.69 
   4  -4   4   72.82    2.40 
   4  -4   4   70.24    2.48 
   5  -4   4   14.83    0.96 
   6  -4   4    6.84    0.83 
   7  -4   4   31.26    1.64 
   9   3  -4    6.11    0.89 
   8   3  -4   14.28    1.12 
   7   3  -4   84.19    2.85 
   6   3  -4   81.12    2.71 
   6   3  -4   80.83    2.39 
   5   3  -4   24.41    1.14 
   5   3  -4   24.46    0.87 
  -5  -3   4   22.76    0.92 
   4   3  -4   60.43    1.74 
  -4  -3   4   61.61    1.83 
   3   3  -4  153.71    4.03 
   3   3  -4  154.66    4.41 
  -3  -3   4  151.34    4.12 
   2   3  -4  139.03    4.00 
  -2  -3   4  140.00    3.79 
   1   3  -4    1.37    0.32 
  -1  -3   4    1.44    0.30 
  -1  -3   4    1.76    0.18 
   0  -3   4   71.64    2.03 
   0  -3   4   73.39    2.16 
  -1   3  -4   90.12    2.60 
   1  -3   4   93.49    2.72 
   1  -3   4   94.12    2.63 
  -2   3  -4   40.50    1.21 
   2  -3   4   41.05    1.39 
   3  -3   4    0.26    0.33 
   4  -3   4   37.94    1.47 
   5  -3   4   75.00    2.53 
   6  -3   4   17.89    1.09 
   7  -3   4    1.42    0.67 
   8  -3   4   31.24    1.65 
   9   2  -4   45.83    1.98 
   8   2  -4   19.92    1.04 
   8   2  -4   20.50    1.20 
   7   2  -4    8.59    0.84 
   7   2  -4    8.45    0.67 
   6   2  -4   34.57    1.23 
   6   2  -4   31.85    1.44 
   5   2  -4   86.04    2.75 
   5   2  -4   86.20    2.49 
  -5  -2   4   85.66    2.41 
   4   2  -4   10.16    0.73 
  -4  -2   4   10.38    0.52 
   3   2  -4   41.79    1.48 
   3   2  -4   41.21    1.21 
  -3  -2   4   40.56    1.25 
   2   2  -4  136.46    3.98 
   2   2  -4  140.36    3.70 
  -2  -2   4  143.15    3.75 
   1   2  -4  157.14    4.36 
  -1  -2   4  156.26    4.18 
   0   2  -4   24.09    0.90 
   0  -2   4   24.34    0.90 
   0  -2   4   25.10    0.80 
  -1   2  -4   36.46    1.13 
   1  -2   4   35.64    1.15 
  -2   2  -4   97.69    2.59 
   2  -2   4   92.11    2.73 
   3  -2   4  167.46    4.67 
   4  -2   4    1.48    0.44 
   5  -2   4   60.39    2.09 
   6  -2   4   84.45    2.81 
   7  -2   4   19.88    1.17 
   8  -2   4    2.61    0.64 
   9   1  -4   32.55    1.60 
   9   1  -4   33.07    1.48 
   8   1  -4   69.64    2.46 
   8   1  -4   69.31    2.34 
   7   1  -4   21.08    1.14 
   7   1  -4   19.02    0.98 
   6   1  -4    2.28    0.53 
   6   1  -4    2.31    0.42 
   5   1  -4   89.16    2.83 
   5   1  -4   89.30    2.61 
   4   1  -4  101.14    3.05 
   4   1  -4   99.55    2.82 
  -4  -1   4  100.57    2.69 
   3   1  -4   27.81    1.22 
   3   1  -4   36.74    1.10 
  -3  -1   4   38.42    1.05 
   2   1  -4    2.14    0.35 
   2   1  -4    2.23    0.22 
  -2  -1   4    3.47    0.27 
   0   1  -4  130.50    3.61 
  -1   1  -4   45.37    1.34 
   1  -1   4   44.36    1.36 
  -2   1  -4   76.28    2.07 
   2  -1   4   74.90    2.21 
   3  -1   4  130.64    3.76 
   3  -1   4  135.85    3.52 
   4  -1   4   96.64    2.90 
   5  -1   4    5.62    0.62 
   6  -1   4   37.55    1.53 
   7  -1   4   63.46    2.31 
   8  -1   4   28.70    1.45 
   9  -1   4    0.77    0.62 
   9   0  -4    2.72    0.62 
   8   0  -4   25.15    1.33 
   8   0  -4   24.66    1.22 
   7   0  -4   39.34    1.64 
   7   0  -4   40.98    1.56 
   6   0  -4   15.51    0.86 
   6   0  -4   18.19    1.02 
   5   0  -4    0.15    0.29 
   5   0  -4    0.23    0.38 
   4   0  -4   76.47    2.43 
   4   0  -4   77.16    2.26 
   3   0  -4  152.06    4.18 
   3   0  -4  131.74    3.94 
  -3   0   4  153.17    3.75 
   2   0  -4  101.80    2.79 
  -2   0   4  102.11    2.66 
   1   0  -4    1.03    0.18 
   1   0  -4    0.43    0.23 
  -1   0   4    1.84    0.20 
   0   0  -4  204.84    5.52 
  -1   0  -4  185.11    4.96 
   2   0   4   59.10    1.66 
   2   0   4   58.69    1.76 
   3   0   4    6.37    0.31 
   3   0   4    6.45    0.50 
   4   0   4  252.96    6.70 
   4   0   4  255.98    6.92 
   5   0   4    0.14    0.14 
   6   0   4   11.14    0.80 
   7   0   4   40.55    1.66 
   8   0   4   50.93    2.02 
   9   0   4   18.79    1.24 
   9  -1  -4   26.93    1.37 
   8  -1  -4    1.10    0.50 
   8  -1  -4    0.96    0.51 
   7  -1  -4   20.07    1.11 
   7  -1  -4   23.53    1.14 
   6  -1  -4   46.09    1.74 
   6  -1  -4   46.71    1.68 
   5  -1  -4   76.65    2.49 
   5  -1  -4   77.96    2.38 
   4  -1  -4    7.74    0.55 
   4  -1  -4    7.72    0.64 
   3  -1  -4    9.50    0.50 
   3  -1  -4    9.15    0.65 
   0  -1  -4    0.25    0.21 
   1   1   4  192.68    5.17 
   2   1   4  286.63    7.30 
   2   1   4  263.21    7.30 
   4   1   4   15.40    0.79 
   4   1   4   15.14    0.59 
   5   1   4   89.26    3.12 
   5   1   4  122.76    2.98 
   6   1   4   74.33    2.45 
   7   1   4    4.28    0.67 
   8   1   4   14.18    1.00 
   9   1   4   25.20    1.44 
   9  -2  -4   21.45    1.30 
   8  -2  -4   25.14    1.31 
   7  -2  -4    0.72    0.45 
   7  -2  -4    0.49    0.45 
   6  -2  -4   18.74    0.96 
   6  -2  -4   17.18    0.96 
   5  -2  -4   98.81    3.10 
   5  -2  -4  105.98    3.07 
   4  -2  -4   50.01    1.72 
   4  -2  -4   51.02    1.65 
   3  -2  -4    6.53    0.46 
   3  -2  -4    6.26    0.50 
   2  -2  -4   35.47    1.13 
   2  -2  -4   33.04    1.18 
   1  -2  -4    0.09    0.11 
   1  -2  -4   -0.01    0.11 
   0   2   4  312.76    8.33 
   1   2   4    0.43    0.22 
   2   2   4  245.53    6.56 
   3   2   4  439.82   11.69 
   3   2   4  445.85   11.66 
   4   2   4  101.23    2.96 
   4   2   4  101.75    2.85 
   5   2   4    7.27    0.50 
   5   2   4    7.70    0.64 
   6   2   4  107.35    3.05 
   6   2   4  106.72    3.25 
   7   2   4   79.49    2.66 
   8   2   4   10.01    0.92 
   9   2   4    5.45    0.83 
   9  -3  -4    0.17    0.65 
   8  -3  -4   25.43    1.35 
   7  -3  -4   38.03    1.48 
   7  -3  -4   38.46    1.59 
   6  -3  -4   13.61    0.81 
   6  -3  -4   15.31    0.90 
   5  -3  -4    4.11    0.54 
   5  -3  -4    4.56    0.51 
   4  -3  -4   59.28    1.62 
   4  -3  -4   62.10    1.96 
   4  -3  -4   62.13    1.97 
   3  -3  -4  117.90    3.39 
   3  -3  -4  120.10    3.05 
   3  -3  -4  116.77    3.36 
   2  -3  -4   85.41    2.53 
   2  -3  -4   87.70    2.27 
   2  -3  -4   84.80    2.49 
  -2   3   4   89.51    2.56 
   1   3   4  166.06    4.53 
   2   3   4    0.89    0.25 
   3   3   4   79.33    2.32 
   3   3   4   77.25    2.27 
   4   3   4  230.40    6.30 
   4   3   4  235.76    6.33 
   5   3   4   42.55    1.38 
   5   3   4   40.53    1.48 
   6   3   4    5.77    0.64 
   6   3   4    5.28    0.47 
   7   3   4   68.38    2.35 
   7   3   4   68.97    2.15 
   8   3   4   43.75    1.79 
   9   3   4    3.46    0.70 
   8  -4  -4    2.14    0.61 
   7  -4  -4   18.32    1.08 
   6  -4  -4   65.42    2.27 
  -6   4   4   66.99    2.16 
   5  -4  -4   30.38    1.30 
  -5   4   4   31.25    1.23 
   4  -4  -4   10.03    0.46 
  -4   4   4   10.27    0.66 
   3  -4  -4   86.93    2.33 
  -3   4   4   87.31    2.58 
   2  -4  -4  213.90    5.74 
   2  -4  -4  206.59    5.45 
  -2   4   4  213.85    5.78 
   1  -4  -4   62.23    1.85 
   1  -4  -4   61.73    1.72 
  -1   4   4   60.86    1.86 
   0  -4  -4   37.80    1.15 
   0  -4  -4   37.92    1.21 
   0   4   4   36.28    1.22 
   1   4   4   -0.08    0.06 
   2   4   4  313.87    8.41 
   3   4   4    7.62    0.54 
   4   4   4  105.10    3.08 
   4   4   4  108.10    3.09 
   5   4   4  114.44    3.26 
   5   4   4  108.39    3.22 
   6   4   4   46.62    1.67 
   6   4   4   47.02    1.59 
   7   4   4   -0.16    0.43 
   7   4   4    0.17    0.37 
   8   4   4    8.12    0.80 
   9   4   4   32.79    1.57 
   8  -5  -4   24.20    1.40 
   7  -5  -4    0.53    0.48 
   6  -5  -4    9.88    0.83 
   5  -5  -4   54.30    1.90 
  -5   5   4   52.38    1.77 
   4  -5  -4   43.53    1.58 
  -4   5   4   43.74    1.50 
   3  -5  -4    0.39    0.32 
   3  -5  -4    0.17    0.14 
  -3   5   4    0.31    0.30 
   2  -5  -4   67.73    2.08 
  -2   5   4   68.51    2.07 
   1  -5  -4  258.02    6.91 
  -1   5   4  257.95    6.99 
   0  -5  -4  104.66    2.84 
   0  -5  -4  102.30    2.91 
   0   5   4  103.02    2.97 
  -1  -5  -4   32.57    1.10 
   1   5   4   32.75    1.14 
   2   5   4  198.69    5.46 
   3   5   4  181.64    5.04 
   4   5   4   12.56    0.71 
   4   5   4   13.22    0.75 
   5   5   4   70.13    2.20 
   5   5   4   68.61    2.17 
   6   5   4  106.51    3.18 
   6   5   4  106.13    3.20 
   7   5   4   54.72    1.97 
   7   5   4   55.16    1.89 
   8   5   4   -0.16    0.45 
   8   5   4    0.50    0.42 
   9   5   4   13.84    1.08 
   7  -6  -4   23.04    1.28 
   6  -6  -4    7.64    0.79 
   5  -6  -4   16.19    0.99 
   4  -6  -4   92.92    2.90 
  -4   6   4   93.38    2.78 
   3  -6  -4   86.25    2.68 
   3  -6  -4   91.41    2.50 
  -3   6   4   86.40    2.62 
   2  -6  -4    2.02    0.36 
   2  -6  -4    1.85    0.32 
  -2   6   4    1.40    0.35 
   1  -6  -4   99.87    2.86 
   1  -6  -4   96.90    2.75 
  -1   6   4   99.11    2.88 
   0  -6  -4  315.67    8.37 
   0  -6  -4  312.44    8.20 
   0   6   4  316.02    8.49 
  -1  -6  -4   64.01    1.92 
  -1  -6  -4   64.76    1.93 
   1   6   4   62.60    1.98 
   3   6   4  119.04    3.48 
   4   6   4   90.71    2.79 
   4   6   4   92.60    2.71 
   5   6   4    6.89    0.59 
   5   6   4    6.84    0.64 
   6   6   4    2.02    0.47 
   6   6   4    2.28    0.48 
   7   6   4   29.14    1.28 
   7   6   4   25.95    1.24 
   8   6   4   24.04    1.23 
   8   6   4   22.87    1.17 
   9   6   4    6.33    0.80 
   7  -7  -4   16.81    1.24 
   6  -7  -4   33.25    1.62 
   5  -7  -4    7.26    0.78 
   4  -7  -4   23.46    1.17 
  -4   7   4   26.87    1.07 
   3  -7  -4   81.47    2.57 
   3  -7  -4   83.03    2.41 
  -3   7   4   81.18    2.49 
   2  -7  -4   73.65    2.33 
   2  -7  -4   75.23    2.24 
  -2   7   4   76.48    2.32 
   1  -7  -4    2.95    0.39 
   1  -7  -4    2.61    0.38 
  -1   7   4    2.95    0.43 
   0  -7  -4   47.93    1.55 
   0  -7  -4   47.59    1.55 
   0   7   4   47.38    1.60 
  -1  -7  -4  148.99    4.15 
  -1  -7  -4  147.96    4.14 
   1   7   4  152.74    4.28 
  -2  -7  -4   77.31    2.32 
   2   7   4   74.74    2.36 
  -3  -7  -4    3.58    0.47 
   4   7   4  121.38    3.61 
   5   7   4  108.35    3.16 
   5   7   4  106.44    3.29 
   6   7   4   17.77    0.96 
   6   7   4   18.31    1.00 
   7   7   4    4.73    0.63 
   7   7   4    4.28    0.61 
   8   7   4   24.83    1.29 
   9   7   4   30.17    1.54 
   6  -8  -4   20.42    1.30 
   5  -8  -4   43.31    1.80 
   4  -8  -4   16.71    0.96 
   3  -8  -4    9.26    0.66 
   3  -8  -4    9.93    0.75 
  -3   8   4    8.87    0.68 
   2  -8  -4   81.80    2.42 
   2  -8  -4   78.83    2.49 
  -2   8   4   77.53    2.46 
   1  -8  -4  112.08    3.16 
   1  -8  -4  107.49    3.18 
  -1   8   4  107.33    3.23 
   0  -8  -4   16.94    0.84 
   0  -8  -4   17.75    0.84 
   0   8   4   15.96    0.88 
  -1  -8  -4   61.46    1.94 
  -1  -8  -4   62.62    2.00 
   1   8   4   62.75    2.05 
  -2  -8  -4   69.06    2.19 
   2   8   4   68.16    2.24 
  -3  -8  -4   55.85    1.90 
   3   8   4   56.74    1.94 
  -4  -8  -4    0.23    0.38 
   4   8   4    0.42    0.40 
   5   8   4   14.61    0.83 
   5   8   4   12.92    0.90 
   6   8   4   30.39    1.39 
   7   8   4   25.91    1.31 
   8   8   4    1.06    0.62 
   5  -9  -4   26.87    1.44 
   4  -9  -4   47.29    1.85 
   3  -9  -4   11.64    0.82 
  -3   9   4   10.81    0.78 
   2  -9  -4    6.73    0.64 
   2  -9  -4    5.74    0.60 
  -2   9   4    5.27    0.61 
   1  -9  -4   50.08    1.69 
   1  -9  -4   48.44    1.72 
  -1   9   4   48.01    1.74 
   0  -9  -4   39.27    1.49 
   0  -9  -4   38.35    1.39 
   0   9   4   40.19    1.51 
  -1  -9  -4    8.62    0.73 
   1   9   4    7.68    0.69 
  -2  -9  -4   13.14    0.87 
   2   9   4   12.08    0.86 
  -3  -9  -4   68.09    2.29 
   3   9   4   71.12    2.36 
  -4  -9  -4   54.37    1.98 
   4   9   4   56.60    2.00 
   5   9   4    2.62    0.54 
   6   9   4   11.39    0.94 
   7   9   4   32.73    1.57 
   4 -10  -4   15.72    1.09 
   3 -10  -4   46.96    1.80 
   2 -10  -4   19.55    1.07 
   2 -10  -4   20.20    1.02 
  -2  10   4   18.78    1.05 
   1 -10  -4    0.96    0.47 
   1 -10  -4    0.13    0.35 
  -1  10   4    0.47    0.44 
   0 -10  -4   39.56    1.45 
   0 -10  -4   39.30    1.56 
   0  10   4   39.25    1.56 
  -1 -10  -4   53.97    1.88 
   1  10   4   49.27    1.84 
  -2 -10  -4   19.82    1.05 
   2  10   4   16.98    1.02 
  -3 -10  -4   -0.08    0.39 
   3  10   4    0.54    0.47 
  -4 -10  -4   34.18    1.49 
   4  10   4   36.33    1.51 
   5  10   4   26.65    1.30 
   6  10   4    7.63    0.84 
   7  10   4    7.86    0.95 
   2 -11  -4   18.02    1.07 
   1 -11  -4   10.01    0.85 
  -1  11   4    8.86    0.81 
   0 -11  -4   -0.54    0.43 
   0  11   4    0.52    0.45 
  -1 -11  -4   20.06    1.08 
   1  11   4   19.45    1.10 
  -2 -11  -4   23.90    1.26 
   2  11   4   25.41    1.26 
  -3 -11  -4   17.77    1.12 
   3  11   4   20.89    1.16 
  -4 -11  -4    1.25    0.53 
   4  11   4   -0.04    0.46 
  -5 -11  -4   13.45    0.98 
   5  11   4   14.57    1.00 
   0 -12  -4   14.74    1.05 
   0  12   4   13.79    0.99 
  -1 -12  -4    1.90    0.60 
   1  12   4    2.19    0.59 
  -2 -12  -4    1.74    0.56 
   2  12   4    1.62    0.55 
  -3 -12  -4   22.21    1.32 
   3  12   4   23.76    1.32 
   4   9  -5    6.65    0.84 
  -4  -9   5    9.78    1.00 
   3   9  -5   35.41    1.64 
  -3  -9   5   38.36    1.71 
   2   9  -5   14.08    1.01 
  -2  -9   5   14.61    1.13 
  -1  -9   5    0.22    0.57 
   0  -9   5   20.80    1.29 
   1  -9   5   23.94    1.42 
   2  -9   5    6.45    1.04 
   6   8  -5   38.10    1.80 
  -6  -8   5   39.03    1.68 
   5   8  -5   38.95    1.75 
  -5  -8   5   37.85    1.65 
   4   8  -5    9.57    0.91 
  -4  -8   5   10.55    0.94 
   3   8  -5   10.20    0.91 
  -3  -8   5   10.70    0.93 
   2   8  -5   34.42    1.49 
  -2  -8   5   32.47    1.53 
   1   8  -5   24.89    1.21 
  -1  -8   5   23.00    1.28 
   0  -8   5    1.10    0.53 
   1  -8   5   11.03    0.98 
   2  -8   5   22.09    1.36 
   3  -8   5    7.97    0.98 
   7   7  -5   13.13    1.12 
   6   7  -5    5.53    0.79 
  -6  -7   5    4.62    0.65 
   5   7  -5   29.29    1.47 
  -5  -7   5   28.41    1.32 
   4   7  -5   57.24    2.13 
  -4  -7   5   53.50    1.95 
   3   7  -5    6.99    0.77 
  -3  -7   5    5.53    0.65 
   2   7  -5   30.01    1.37 
  -2  -7   5   30.70    1.37 
   1   7  -5   56.30    1.98 
  -1  -7   5   54.97    2.02 
   0   7  -5   45.73    1.67 
   0  -7   5   45.97    1.80 
   1  -7   5    0.92    0.48 
   2  -7   5    7.26    0.82 
   3  -7   5   22.79    1.33 
   4  -7   5   16.46    1.31 
   5  -7   5    0.91    0.68 
   8   6  -5   23.29    1.45 
   7   6  -5   55.62    2.25 
   6   6  -5   21.27    1.25 
  -6  -6   5   19.96    1.03 
   5   6  -5    0.72    0.51 
  -5  -6   5    0.07    0.40 
   4   6  -5   21.76    1.22 
  -4  -6   5   21.59    1.06 
   3   6  -5   22.16    1.14 
  -3  -6   5   23.36    1.10 
   2   6  -5   20.07    1.06 
  -2  -6   5   20.46    1.05 
   1   6  -5   -0.04    0.37 
  -1  -6   5    0.21    0.38 
   0   6  -5   29.57    1.19 
   0  -6   5   27.70    1.27 
   1  -6   5   45.34    1.76 
   2  -6   5    7.51    0.80 
   3  -6   5    9.07    0.92 
   3  -6   5    9.24    0.81 
   4  -6   5   21.34    1.25 
   4  -6   5   22.62    1.37 
   5  -6   5   22.11    1.32 
   5  -6   5   18.56    1.29 
   6  -6   5    0.72    0.65 
   6  -6   5    0.72    0.74 
   8   5  -5   -0.01    0.68 
   7   5  -5   24.01    1.36 
   6   5  -5   71.47    2.54 
  -6  -5   5   69.14    2.22 
   5   5  -5   16.65    1.07 
  -5  -5   5   17.97    0.91 
   4   5  -5    0.38    0.44 
  -4  -5   5    0.33    0.36 
   3   5  -5  102.91    3.22 
  -3  -5   5  103.48    3.05 
   2   5  -5   99.20    3.06 
  -2  -5   5   97.98    2.94 
   1   5  -5   34.19    1.32 
  -1  -5   5   33.79    1.32 
   0   5  -5    1.08    0.36 
   0  -5   5    1.07    0.43 
  -1   5  -5   53.16    1.68 
   1  -5   5   51.21    1.85 
   1  -5   5   50.60    1.68 
   2  -5   5   48.53    1.71 
   2  -5   5   48.67    1.86 
   3  -5   5   15.50    1.06 
   3  -5   5   18.33    1.02 
   4  -5   5    2.50    0.57 
   4  -5   5    1.79    0.59 
   5  -5   5   37.07    1.78 
   5  -5   5   38.35    1.68 
   6  -5   5   26.32    1.49 
   6  -5   5   25.55    1.53 
   8   4  -5   43.93    1.94 
   7   4  -5    6.61    0.85 
   6   4  -5   11.52    0.89 
  -6  -4   5   13.25    0.76 
   5   4  -5   35.63    1.51 
  -5  -4   5   35.47    1.30 
   4   4  -5   28.33    1.31 
  -4  -4   5   27.86    1.10 
   3   4  -5    1.51    0.45 
  -3  -4   5    1.91    0.38 
   2   4  -5    8.74    0.68 
  -2  -4   5    8.45    0.62 
   1   4  -5   58.91    1.92 
  -1  -4   5   57.88    1.65 
  -1  -4   5   59.70    1.91 
   0   4  -5   55.39    1.78 
   0  -4   5   53.20    1.65 
   0  -4   5   57.75    1.87 
  -1   4  -5    1.50    0.31 
   1  -4   5    0.90    0.33 
   1  -4   5    1.17    0.39 
   3  -4   5   67.59    2.25 
   3  -4   5   69.18    2.36 
   4  -4   5   23.67    1.34 
   4  -4   5   25.76    1.23 
   5  -4   5    2.76    0.62 
   6  -4   5   36.71    1.71 
   7  -4   5   35.99    1.80 
   9   3  -5    7.54    0.98 
   8   3  -5   37.78    1.77 
   7   3  -5   55.09    2.13 
   6   3  -5    2.35    0.55 
   5   3  -5   27.96    1.29 
  -5  -3   5   25.92    1.00 
   4   3  -5  101.82    2.75 
  -4  -3   5   99.13    2.83 
   3   3  -5   92.63    2.93 
   3   3  -5   95.79    2.57 
  -3  -3   5   97.06    2.71 
   2   3  -5   15.60    0.83 
  -2  -3   5   15.41    0.73 
   1   3  -5    4.00    0.44 
  -1  -3   5    3.78    0.43 
  -1  -3   5    4.51    0.30 
   0   3  -5  128.62    3.64 
   0  -3   5  128.75    3.61 
   0  -3   5  127.49    3.49 
   1  -3   5  119.40    3.29 
   1  -3   5  114.55    3.38 
  -2   3  -5    4.31    0.34 
   2  -3   5    3.69    0.46 
   3  -3   5   68.21    2.20 
   4  -3   5   91.83    2.89 
   5  -3   5   30.66    1.38 
   6  -3   5    3.55    0.67 
   7  -3   5   25.07    1.42 
   8  -3   5   20.82    1.47 
   9   2  -5   14.41    1.20 
   8   2  -5   -0.50    0.54 
   7   2  -5   41.25    1.75 
   7   2  -5   43.48    1.53 
   6   2  -5   44.52    1.74 
   6   2  -5   42.77    1.48 
   5   2  -5    9.66    0.81 
   5   2  -5   10.01    0.57 
  -5  -2   5    9.88    0.56 
   4   2  -5    2.05    0.26 
  -4  -2   5    2.48    0.31 
   3   2  -5   93.30    2.92 
   3   2  -5   95.60    2.60 
  -3  -2   5   95.89    2.63 
   2   2  -5   96.22    2.85 
  -2  -2   5   91.72    2.61 
   1   2  -5   11.26    0.65 
  -1  -2   5   10.46    0.58 
   0   2  -5   26.63    0.99 
   0  -2   5   25.55    0.99 
   0  -2   5   27.34    0.90 
  -1   2  -5  210.66    5.70 
   1  -2   5  211.04    5.66 
  -2   2  -5   94.07    2.52 
   2  -2   5   87.01    2.64 
   3  -2   5    6.54    0.56 
   3  -2   5    7.18    0.32 
   4  -2   5   33.42    1.33 
   5  -2   5  128.82    3.88 
   6  -2   5   34.14    1.52 
   7  -2   5   -0.01    0.54 
   8  -2   5   28.44    1.60 
   9   1  -5   34.44    1.74 
   9   1  -5   34.48    1.49 
   8   1  -5   13.98    1.07 
   8   1  -5   14.24    0.92 
   7   1  -5    0.21    0.49 
   7   1  -5    0.56    0.39 
   6   1  -5   42.79    1.69 
   6   1  -5   40.98    1.45 
   5   1  -5   93.21    3.00 
   5   1  -5   94.62    2.73 
   4   1  -5   64.63    2.23 
   4   1  -5   69.84    2.00 
  -4  -1   5   68.36    1.88 
   3   1  -5    0.00    0.21 
   3   1  -5    0.06    0.11 
  -3  -1   5    0.11    0.17 
   2   1  -5   15.91    0.84 
   2   1  -5   18.57    0.64 
  -2  -1   5   17.59    0.65 
   1   1  -5  184.00    5.07 
  -1  -1   5  181.33    4.82 
   0   1  -5    0.27    0.16 
  -1   1  -5    2.72    0.29 
   1  -1   5    2.81    0.32 
  -2   1  -5  313.85    8.19 
   2  -1   5  305.32    8.24 
   3  -1   5  226.46    6.26 
   3  -1   5  232.60    6.07 
   4  -1   5    2.43    0.47 
   5  -1   5   41.62    1.60 
   6  -1   5   76.82    2.61 
   7  -1   5   15.65    1.04 
   8  -1   5    0.61    0.53 
   9   0  -5    8.65    0.82 
   9   0  -5    9.28    0.96 
   8   0  -5   34.06    1.46 
   8   0  -5   35.64    1.61 
   7   0  -5   40.35    1.69 
   7   0  -5   38.17    1.51 
   6   0  -5   -0.79    0.43 
   6   0  -5   -0.11    0.30 
   5   0  -5   30.53    1.15 
   5   0  -5   30.18    1.35 
   4   0  -5  123.68    3.37 
   4   0  -5  115.64    3.59 
   3   0  -5   91.28    2.59 
   3   0  -5   89.87    2.80 
  -3   0   5   93.33    2.40 
   2   0  -5    7.96    0.61 
  -2   0   5    7.80    0.37 
   1   0  -5  169.90    4.52 
   1   0  -5  167.91    4.70 
   0   0  -5   -0.20    0.13 
  -1   0  -5  123.36    3.40 
   2   0   5   62.83    1.79 
   2   0   5   61.18    1.90 
   3   0   5  141.01    3.77 
   3   0   5  138.60    3.93 
   4   0   5  186.33    4.96 
   4   0   5  187.42    5.23 
   5   0   5   13.76    0.87 
   6   0   5   30.84    1.35 
   7   0   5   62.12    2.26 
   8   0   5   33.92    1.62 
   9   0   5    0.50    0.59 
   9  -1  -5    2.90    0.61 
   8  -1  -5    6.38    0.72 
   8  -1  -5    4.55    0.70 
   7  -1  -5   44.82    1.74 
   7  -1  -5   41.59    1.62 
   6  -1  -5   61.01    2.20 
   6  -1  -5   63.36    2.07 
   5  -1  -5   18.42    1.05 
   5  -1  -5   21.63    0.94 
   4  -1  -5   11.57    0.81 
   4  -1  -5   11.38    0.64 
   3  -1  -5  161.23    4.68 
   3  -1  -5  167.88    4.50 
   2  -1  -5  133.22    3.64 
  -2   1   5  133.34    3.42 
   1  -1  -5   30.12    1.10 
   1   1   5  472.25   12.48 
   2   1   5  237.86    6.36 
   3   1   5    3.68    0.40 
   3   1   5    3.77    0.31 
   6   1   5    8.73    0.77 
   7   1   5   10.03    0.87 
   8   1   5   31.86    1.55 
   9   1   5   16.18    1.23 
   9  -2  -5   17.38    1.13 
   8  -2  -5   11.66    0.93 
   8  -2  -5   13.05    0.96 
   7  -2  -5    0.62    0.46 
   7  -2  -5    0.99    0.50 
   6  -2  -5   32.05    1.32 
   6  -2  -5   30.27    1.36 
   5  -2  -5  103.92    3.25 
   5  -2  -5  106.95    3.15 
   4  -2  -5   31.00    1.28 
   4  -2  -5   30.72    1.15 
   3  -2  -5   55.30    1.70 
   3  -2  -5   52.40    1.79 
   2  -2  -5  259.17    6.89 
   2  -2  -5  257.33    7.05 
   1  -2  -5  213.00    5.77 
   1  -2  -5  209.31    5.64 
   0  -2  -5    3.61    0.33 
   0  -2  -5    3.48    0.35 
   0   2   5    3.83    0.38 
   1   2   5  161.16    4.42 
   2   2   5  420.29   11.13 
   3   2   5   86.20    2.47 
   3   2   5   87.92    2.58 
   4   2   5   15.01    0.82 
   4   2   5   14.49    0.64 
   5   2   5  130.83    3.84 
   5   2   5  132.37    3.65 
   6   2   5   89.22    2.84 
   7   2   5   17.91    1.10 
   8   2   5    0.78    0.55 
   9   2   5   12.11    1.09 
   8  -3  -5   37.64    1.64 
   7  -3  -5   36.69    1.51 
   7  -3  -5   36.13    1.52 
   6  -3  -5    3.43    0.55 
   6  -3  -5    3.61    0.55 
   5  -3  -5   46.24    1.66 
   5  -3  -5   45.99    1.69 
   4  -3  -5  134.58    3.95 
   4  -3  -5  136.85    3.90 
   3  -3  -5   66.42    2.04 
   3  -3  -5   65.30    2.08 
   2  -3  -5   18.07    0.76 
   2  -3  -5   19.28    0.85 
   1  -3  -5  187.52    5.15 
  -1   3   5  194.53    5.27 
   0   3   5    0.03    0.11 
   1   3   5  108.13    3.07 
   2   3   5   63.29    1.90 
   3   3   5  153.16    4.23 
   4   3   5  132.51    3.79 
   4   3   5  131.52    3.69 
   5   3   5    2.25    0.36 
   5   3   5    2.29    0.47 
   6   3   5   58.20    1.99 
   6   3   5   53.71    1.75 
   7   3   5   48.45    1.86 
   8   3   5   23.32    1.29 
   9   3   5    1.59    0.65 
   8  -4  -5    5.16    0.75 
   7  -4  -5   24.15    1.27 
   6  -4  -5   38.28    1.50 
   6  -4  -5   39.47    1.57 
  -6   4   5   38.77    1.54 
   5  -4  -5    8.66    0.69 
   5  -4  -5    8.87    0.72 
  -5   4   5    7.94    0.70 
   4  -4  -5   93.83    2.84 
  -4   4   5   94.11    2.87 
   3  -4  -5  209.23    5.42 
  -3   4   5  215.13    5.89 
   2  -4  -5   78.36    2.11 
  -2   4   5   79.63    2.40 
   1  -4  -5   60.16    1.86 
  -1   4   5   62.48    1.92 
   0  -4  -5  214.64    5.76 
   0   4   5  213.43    5.85 
   1   4   5  237.37    6.44 
   2   4   5   17.92    0.76 
   3   4   5   60.33    1.88 
   4   4   5  195.08    5.37 
   4   4   5  192.72    5.35 
   5   4   5  103.17    3.08 
   5   4   5  108.74    3.18 
   6   4   5    7.74    0.60 
   6   4   5    6.98    0.70 
   7   4   5   11.15    0.91 
   7   4   5   11.56    0.75 
   8   4   5   29.68    1.40 
   9   4   5   24.27    1.39 
   8  -5  -5    6.02    0.88 
   7  -5  -5    9.97    0.90 
   6  -5  -5   68.98    2.39 
  -6   5   5   67.25    2.25 
   5  -5  -5   50.60    1.86 
  -5   5   5   51.79    1.78 
   4  -5  -5    3.01    0.45 
  -4   5   5    5.76    0.58 
   3  -5  -5   74.14    1.95 
   3  -5  -5   60.93    2.18 
  -3   5   5   75.89    2.24 
   2  -5  -5  170.86    4.45 
   2  -5  -5  167.34    4.72 
  -2   5   5  171.32    4.77 
   1  -5  -5   98.11    2.86 
  -1   5   5  100.47    2.90 
   0  -5  -5    0.75    0.24 
   0  -5  -5    0.62    0.25 
   0   5   5    0.64    0.29 
   1   5   5    0.23    0.12 
   2   5   5  144.17    4.07 
   3   5   5   18.33    0.83 
   4   5   5    3.98    0.47 
   4   5   5    5.72    0.53 
   5   5   5   87.98    2.69 
   5   5   5   88.23    2.71 
   6   5   5   48.73    1.77 
   6   5   5   46.85    1.66 
   7   5   5    4.96    0.69 
   7   5   5    4.58    0.57 
   8   5   5    7.63    0.81 
   9   5   5   34.64    1.63 
   7  -6  -5    7.20    0.83 
   6  -6  -5    6.97    0.78 
   5  -6  -5   65.79    2.26 
  -5   6   5   64.71    2.15 
   4  -6  -5   83.73    2.69 
  -4   6   5   85.31    2.61 
   3  -6  -5    4.50    0.51 
   3  -6  -5    4.29    0.37 
  -3   6   5    3.84    0.48 
   2  -6  -5   70.41    2.20 
   2  -6  -5   68.98    2.01 
  -2   6   5   71.31    2.20 
   1  -6  -5  159.64    4.47 
   1  -6  -5  163.25    4.31 
  -1   6   5  159.18    4.52 
   0  -6  -5   80.71    2.32 
   0  -6  -5   80.64    2.39 
   0   6   5   80.83    2.45 
  -1  -6  -5    0.51    0.28 
   1   6   5    0.22    0.29 
   2   6   5   -0.03    0.10 
   3   6   5  124.13    3.63 
   4   6   5  115.09    3.42 
   5   6   5    2.51    0.47 
   5   6   5    2.02    0.44 
   6   6   5   30.12    1.28 
   6   6   5   27.90    1.23 
   7   6   5   55.22    2.01 
   7   6   5   55.64    1.96 
   8   6   5   20.07    1.15 
   8   6   5   19.53    1.10 
   9   6   5    0.64    0.53 
   7  -7  -5   27.47    1.53 
   6  -7  -5   10.59    0.98 
   5  -7  -5    1.59    0.55 
   4  -7  -5   67.14    2.27 
  -4   7   5   66.65    2.16 
   3  -7  -5   72.79    2.40 
  -3   7   5   77.64    2.39 
   2  -7  -5    8.77    0.67 
   2  -7  -5    8.42    0.58 
  -2   7   5    7.90    0.64 
   1  -7  -5   33.14    1.15 
   1  -7  -5   30.29    1.21 
  -1   7   5   32.96    1.25 
   0  -7  -5   64.50    2.05 
   0  -7  -5   66.89    2.02 
   0   7   5   68.23    2.14 
  -1  -7  -5   24.28    1.00 
   1   7   5   27.33    1.11 
  -2  -7  -5    0.26    0.31 
   2   7   5    0.27    0.17 
   3   7   5   26.85    1.13 
   4   7   5   57.87    1.99 
   5   7   5   35.73    1.37 
   5   7   5   34.77    1.40 
   6   7   5    0.89    0.45 
   6   7   5    0.34    0.43 
   7   7   5   25.97    1.27 
   7   7   5   27.93    1.30 
   8   7   5   40.77    1.73 
   8   7   5   43.16    1.74 
   6  -8  -5   38.04    1.78 
   5  -8  -5   12.64    1.03 
   4  -8  -5    4.45    0.62 
  -4   8   5    4.81    0.59 
   3  -8  -5   47.85    1.75 
  -3   8   5   47.82    1.70 
   2  -8  -5   68.31    2.22 
   2  -8  -5   68.02    2.10 
  -2   8   5   68.13    2.21 
   1  -8  -5    8.87    0.65 
   1  -8  -5    9.54    0.64 
  -1   8   5   11.28    0.75 
   0  -8  -5    1.98    0.42 
   0  -8  -5    1.99    0.39 
   0   8   5    2.68    0.48 
  -1  -8  -5   98.09    2.86 
   1   8   5   94.32    2.95 
  -2  -8  -5   86.81    2.67 
   2   8   5   87.81    2.75 
  -3  -8  -5   24.05    1.09 
   3   8   5   24.20    1.10 
   4   8   5    0.92    0.42 
   5   8   5   60.86    2.13 
   5   8   5   58.58    1.99 
   6   8   5   35.65    1.46 
   6   8   5   35.08    1.52 
   7   8   5    6.32    0.75 
   8   8   5   11.29    1.00 
   5  -9  -5   26.80    1.40 
   4  -9  -5   20.92    1.17 
   3  -9  -5    1.45    0.49 
  -3   9   5    0.15    0.42 
   2  -9  -5   27.79    1.21 
   2  -9  -5   27.92    1.18 
  -2   9   5   27.66    1.21 
   1  -9  -5   40.63    1.48 
   1  -9  -5   39.93    1.48 
  -1   9   5   39.27    1.52 
   0  -9  -5    3.13    0.50 
   0  -9  -5    2.84    0.44 
   0   9   5    2.90    0.53 
  -1  -9  -5    4.70    0.58 
   1   9   5    4.88    0.62 
  -2  -9  -5   24.44    1.14 
   2   9   5   23.61    1.12 
  -3  -9  -5   26.73    1.21 
   3   9   5   26.57    1.24 
   4   9   5   16.14    0.95 
   5   9   5    2.33    0.58 
   6   9   5   50.87    1.96 
   7   9   5   43.75    1.83 
   4 -10  -5   27.13    1.42 
   3 -10  -5   14.58    0.99 
   2 -10  -5   -0.30    0.39 
  -2  10   5    1.06    0.48 
   1 -10  -5   18.84    1.02 
   1 -10  -5   17.95    0.96 
  -1  10   5   19.58    1.04 
   0 -10  -5   39.71    1.47 
   0 -10  -5   38.89    1.52 
   0  10   5   36.80    1.53 
  -1 -10  -5   32.22    1.37 
   1  10   5   32.48    1.39 
  -2 -10  -5    0.25    0.42 
   2  10   5    0.76    0.47 
  -3 -10  -5    7.82    0.77 
   3  10   5    9.77    0.85 
  -4 -10  -5   32.82    1.43 
   4  10   5   32.14    1.46 
   5  10   5   15.01    1.03 
   6  10   5    2.43    0.70 
   7  10   5   24.04    1.42 
   2 -11  -5    9.82    0.84 
  -2  11   5   11.22    0.86 
   1 -11  -5    0.43    0.45 
  -1  11   5    0.33    0.48 
   0 -11  -5    7.25    0.75 
   0  11   5    6.22    0.72 
  -1 -11  -5   29.65    1.37 
   1  11   5   31.61    1.41 
  -2 -11  -5   16.79    1.05 
   2  11   5   17.54    1.08 
  -3 -11  -5    0.06    0.44 
   3  11   5    0.15    0.50 
  -4 -11  -5    9.41    0.87 
   4  11   5    8.76    0.85 
   5  11   5   47.79    1.96 
   0 -12  -5    2.53    0.61 
   0  12   5    2.39    0.61 
  -1 -12  -5    1.92    0.55 
   1  12   5    3.47    0.67 
  -2 -12  -5   13.44    1.05 
   2  12   5   13.69    1.03 
  -3 -12  -5   13.04    1.06 
   3  12   5   13.63    1.03 
   3   9  -6   10.68    0.98 
  -3  -9   6   10.32    1.01 
   2   9  -6    0.48    0.51 
  -2  -9   6    0.93    0.62 
  -1  -9   6    9.52    1.05 
   0  -9   6   22.20    1.40 
   5   8  -6    1.74    0.65 
  -5  -8   6    1.18    0.62 
   4   8  -6    5.50    0.75 
  -4  -8   6    5.00    0.77 
   3   8  -6   19.11    1.15 
  -3  -8   6   17.80    1.17 
   2   8  -6   17.34    1.07 
  -2  -8   6   14.20    1.06 
  -1  -8   6    1.72    0.65 
   0  -8   6    2.61    0.68 
   1  -8   6   14.61    1.08 
   2  -8   6   15.88    1.29 
   6   7  -6   18.26    1.26 
  -6  -7   6   18.65    1.15 
   5   7  -6   28.27    1.50 
  -5  -7   6   30.60    1.37 
   4   7  -6    3.04    0.62 
  -4  -7   6    3.47    0.62 
   3   7  -6    0.90    0.50 
  -3  -7   6    0.35    0.49 
   2   7  -6   41.18    1.68 
  -2  -7   6   42.66    1.71 
   1   7  -6   29.23    1.32 
  -1  -7   6   27.13    1.38 
   0  -7   6    6.47    0.77 
   1  -7   6    3.28    0.65 
   2  -7   6   28.50    1.46 
   3  -7   6   22.10    1.40 
   4  -7   6    0.71    0.65 
   7   6  -6   21.49    1.36 
   6   6  -6    0.43    0.55 
   5   6  -6   25.13    1.33 
  -5  -6   6   26.86    1.20 
   4   6  -6   54.15    2.09 
  -4  -6   6   57.43    1.96 
   3   6  -6   13.48    0.97 
  -3  -6   6   11.98    0.86 
   2   6  -6    0.38    0.46 
  -2  -6   6    0.25    0.40 
   1   6  -6   18.05    1.00 
  -1  -6   6   16.58    0.98 
   0   6  -6   41.26    1.51 
   0  -6   6   38.58    1.64 
   1  -6   6   17.55    1.09 
   2  -6   6    0.86    0.50 
   3  -6   6   42.21    1.84 
   4  -6   6   32.46    1.68 
   5  -6   6    2.89    0.80 
   8   5  -6   13.09    1.23 
   7   5  -6   25.94    1.42 
   6   5  -6   17.71    1.17 
   5   5  -6    1.19    0.51 
  -5  -5   6    1.41    0.44 
   4   5  -6   10.98    0.91 
  -4  -5   6   10.74    0.74 
   3   5  -6   43.21    1.73 
  -3  -5   6   44.74    1.60 
   2   5  -6   45.54    1.68 
  -2  -5   6   44.65    1.64 
   1   5  -6    0.23    0.38 
  -1  -5   6   -0.16    0.35 
   0   5  -6   24.21    1.06 
   0  -5   6   23.67    1.14 
   1  -5   6   81.11    2.67 
   2  -5   6   28.13    1.38 
   2  -5   6   29.27    1.24 
   3  -5   6    2.89    0.62 
   3  -5   6    4.26    0.60 
   4  -5   6   50.34    2.11 
   4  -5   6   52.63    2.01 
   5  -5   6   45.11    1.97 
   5  -5   6   43.48    1.86 
   6  -5   6    4.11    0.82 
   6  -5   6    3.95    0.81 
   8   4  -6   10.62    1.11 
   7   4  -6    3.65    0.73 
   6   4  -6   54.82    2.14 
   5   4  -6   72.88    2.53 
  -5  -4   6   71.82    2.23 
   4   4  -6   16.56    1.04 
  -4  -4   6   16.16    0.82 
   3   4  -6   15.01    0.95 
  -3  -4   6   15.48    0.82 
   2   4  -6   79.37    2.52 
  -2  -4   6   76.10    2.37 
   1   4  -6   60.69    2.02 
  -1  -4   6   61.57    2.02 
   0   4  -6    2.14    0.42 
   0  -4   6    2.53    0.48 
   0  -4   6    2.33    0.34 
  -1   4  -6   24.52    0.99 
   1  -4   6   26.17    1.04 
   1  -4   6   25.02    1.17 
   2  -4   6  100.86    3.15 
   2  -4   6  101.11    3.02 
   3  -4   6   50.81    1.92 
   3  -4   6   49.13    1.79 
   4  -4   6    0.17    0.51 
   4  -4   6    0.52    0.49 
   5  -4   6   29.62    1.42 
   6  -4   6   38.04    1.78 
   7  -4   6    2.83    0.85 
   8   3  -6   32.06    1.68 
   7   3  -6    3.41    0.74 
   6   3  -6    1.07    0.51 
   5   3  -6   40.86    1.68 
  -5  -3   6   39.53    1.34 
   4   3  -6   59.15    2.13 
  -4  -3   6   60.66    1.85 
   3   3  -6   30.42    1.30 
  -3  -3   6   30.73    1.13 
   2   3  -6   14.15    0.82 
  -2  -3   6   15.97    0.77 
   1   3  -6  105.74    3.13 
  -1  -3   6  101.61    3.01 
  -1  -3   6  106.72    2.88 
   0   3  -6  137.46    3.85 
   0  -3   6  132.41    3.83 
   0  -3   6  135.04    3.70 
  -1   3  -6   14.33    0.69 
   1  -3   6   13.13    0.68 
   1  -3   6   15.33    0.87 
  -2   3  -6   40.68    1.28 
   2  -3   6   39.92    1.56 
   2  -3   6   41.89    1.45 
   3  -3   6  167.09    4.76 
   4  -3   6   57.40    2.04 
   5  -3   6   -0.13    0.48 
   6  -3   6   25.67    1.40 
   7  -3   6   33.36    1.67 
   9   2  -6    0.69    0.76 
   8   2  -6   16.36    1.16 
   7   2  -6   53.87    2.12 
   6   2  -6   40.86    1.71 
   5   2  -6    0.27    0.28 
   5   2  -6   -0.13    0.43 
   4   2  -6   34.83    1.14 
  -4  -2   6   34.97    1.16 
   3   2  -6  115.65    3.53 
  -3  -2   6  117.11    3.20 
   2   2  -6   65.32    2.13 
  -2  -2   6   63.75    1.92 
   1   2  -6   20.35    0.93 
  -1  -2   6   21.03    0.87 
   0   2  -6  129.71    3.68 
   0  -2   6  127.35    3.62 
   0  -2   6  130.01    3.55 
  -1   2  -6  144.33    3.98 
   1  -2   6  141.99    3.96 
  -2   2  -6   24.03    0.85 
   2  -2   6   23.00    0.98 
   3  -2   6   41.78    1.53 
   4  -2   6   72.89    2.40 
   5  -2   6   56.06    2.03 
   6  -2   6    0.06    0.54 
   7  -2   6   33.14    1.68 
   8  -2   6   31.01    1.68 
   9   1  -6   18.80    1.34 
   8   1  -6    1.54    0.49 
   8   1  -6    1.72    0.68 
   7   1  -6   12.96    0.84 
   7   1  -6   14.10    1.10 
   6   1  -6   53.31    2.01 
   6   1  -6   52.14    1.74 
   5   1  -6   77.94    2.61 
   5   1  -6   77.25    2.32 
   4   1  -6    7.00    0.51 
  -4  -1   6    6.97    0.43 
   3   1  -6  101.40    3.15 
   3   1  -6  100.79    2.86 
  -3  -1   6  106.83    2.80 
   2   1  -6  245.87    6.97 
  -2  -1   6  258.31    6.58 
   1   1  -6  115.24    3.25 
  -1  -1   6  105.03    3.02 
   0   1  -6    4.83    0.45 
   1  -1   6  177.92    4.86 
  -2   1  -6  210.36    5.70 
   2  -1   6  214.19    5.79 
   3  -1   6   76.96    2.45 
   3  -1   6   82.16    2.23 
   4  -1   6   24.52    1.15 
   5  -1   6   64.62    2.22 
   6  -1   6   54.66    2.05 
   7  -1   6    2.86    0.69 
   8  -1   6    3.26    0.75 
   9   0  -6   16.08    1.23 
   9   0  -6   16.56    1.04 
   8   0  -6   31.26    1.54 
   8   0  -6   28.56    1.32 
   7   0  -6   11.85    0.83 
   7   0  -6   14.48    1.05 
   6   0  -6    8.10    0.65 
   6   0  -6    8.50    0.86 
   5   0  -6   65.17    2.02 
   5   0  -6   62.98    2.29 
   4   0  -6   76.66    2.55 
   4   0  -6   76.10    2.26 
   3   0  -6   12.62    0.61 
  -3   0   6   13.79    0.50 
   2   0  -6   74.90    2.14 
   2   0  -6   73.86    2.35 
  -2   0   6   74.77    2.05 
   1   0  -6  271.99    7.42 
   0   0  -6  101.95    2.95 
  -1   0  -6    1.38    0.26 
   2   0   6  165.06    4.62 
   2   0   6  168.38    4.55 
   3   0   6  148.05    3.98 
   3   0   6  144.78    4.16 
   4   0   6   12.85    0.53 
   4   0   6   12.32    0.83 
   5   0   6   10.31    0.83 
   6   0   6   80.15    2.69 
   7   0   6   40.21    1.72 
   8   0   6    6.56    0.84 
   9  -1  -6    0.15    0.52 
   8  -1  -6   27.19    1.40 
   8  -1  -6   26.37    1.29 
   7  -1  -6   48.67    1.83 
   7  -1  -6   53.62    2.01 
   6  -1  -6   25.31    1.12 
   6  -1  -6   26.69    1.30 
   5  -1  -6   14.40    0.79 
   5  -1  -6   14.65    0.93 
   4  -1  -6  134.24    3.99 
   4  -1  -6  131.26    3.74 
   3  -1  -6  235.84    6.68 
   3  -1  -6  243.06    6.44 
   2  -1  -6   24.95    1.04 
   2  -1  -6   26.54    0.92 
  -2   1   6   24.47    0.76 
   1  -1  -6   97.04    2.87 
   1  -1  -6   96.93    2.73 
   0  -1  -6  301.99    8.14 
  -1  -1  -6  155.15    4.29 
   1   1   6  156.36    4.32 
   2   1   6    5.26    0.41 
   3   1   6   77.41    2.20 
   3   1   6   75.16    2.35 
   4   1   6  108.24    3.01 
   4   1   6  108.65    3.23 
   5   1   6   45.58    1.67 
   6   1   6    0.44    0.45 
   7   1   6   26.08    1.31 
   8   1   6   23.87    1.33 
   9   1   6    5.98    0.91 
   8  -2  -6    0.01    0.48 
   8  -2  -6   -0.22    0.50 
   7  -2  -6   26.02    1.28 
   7  -2  -6   21.93    1.16 
   6  -2  -6   61.04    2.18 
   6  -2  -6   59.63    2.07 
   5  -2  -6   39.38    1.65 
   5  -2  -6   43.49    1.52 
   4  -2  -6    4.03    0.54 
   4  -2  -6    3.95    0.46 
   3  -2  -6  181.37    5.25 
   3  -2  -6  188.31    5.08 
   2  -2  -6  187.68    5.10 
   1  -2  -6   23.71    0.96 
   1  -2  -6   24.77    0.89 
   0  -2  -6  107.44    3.07 
   0   2   6  106.07    3.09 
   1   2   6  126.74    3.57 
   2   2   6   98.05    2.80 
   3   2   6    1.43    0.29 
   5   2   6   93.10    2.67 
   6   2   6   52.04    1.92 
   7   2   6    1.60    0.56 
   8   2   6   12.19    1.03 
   9   2   6   26.89    1.54 
   8  -3  -6   27.16    1.39 
   7  -3  -6    1.00    0.50 
   7  -3  -6    1.23    0.54 
   6  -3  -6   48.98    1.79 
   6  -3  -6   48.12    1.85 
   5  -3  -6  115.59    3.63 
   5  -3  -6  121.93    3.53 
   4  -3  -6   38.93    1.50 
   4  -3  -6   39.21    1.43 
   3  -3  -6    1.41    0.32 
   3  -3  -6    1.57    0.42 
   2  -3  -6  185.68    5.19 
   2  -3  -6  184.13    5.06 
   1  -3  -6  222.16    5.97 
  -1   3   6  221.07    6.11 
   0  -3  -6   50.19    1.60 
   0   3   6   53.42    1.68 
   1   3   6   32.60    1.16 
   2   3   6  177.47    4.89 
   3   3   6   96.86    2.80 
   4   3   6    7.49    0.63 
   4   3   6    8.16    0.57 
   5   3   6    0.38    0.31 
   5   3   6    1.38    0.43 
   6   3   6   59.48    2.11 
   6   3   6   58.72    1.85 
   7   3   6   32.62    1.49 
   8   3   6    1.95    0.62 
   9   3   6   16.81    1.25 
   8  -4  -6   28.24    1.44 
   7  -4  -6   40.55    1.70 
   7  -4  -6   42.07    1.69 
  -7   4   6   42.78    1.73 
   6  -4  -6    0.93    0.45 
   6  -4  -6    1.09    0.47 
   5  -4  -6   23.89    1.13 
   5  -4  -6   22.65    1.08 
  -5   4   6   23.23    1.16 
   4  -4  -6  138.71    4.05 
   4  -4  -6  134.41    3.97 
  -4   4   6  138.58    4.07 
   3  -4  -6   60.71    2.01 
  -3   4   6   66.99    2.11 
   2  -4  -6    2.12    0.33 
  -2   4   6    1.95    0.40 
   0   4   6   -0.13    0.08 
   1   4   6   11.58    0.66 
   2   4   6    5.59    0.49 
   3   4   6   92.60    2.73 
   4   4   6   92.22    2.78 
   4   4   6   95.67    2.85 
   5   4   6   37.19    1.43 
   5   4   6   35.18    1.32 
   6   4   6    1.23    0.39 
   6   4   6    1.10    0.46 
   7   4   6   41.38    1.67 
   8   4   6   42.37    1.80 
   9   4   6    8.80    0.97 
   8  -5  -6    3.25    0.78 
   7  -5  -6   41.43    1.75 
   6  -5  -6   63.09    2.20 
  -6   5   6   59.80    2.16 
   5  -5  -6    3.27    0.53 
  -5   5   6    2.98    0.55 
   4  -5  -6   35.83    1.39 
  -4   5   6   35.49    1.42 
   2  -5  -6   27.80    1.06 
   1  -5  -6    0.33    0.29 
  -1   5   6    1.21    0.34 
   0  -5  -6   76.01    2.29 
   0   5   6   76.26    2.34 
   2   5   6   48.98    1.63 
   3   5   6    0.12    0.32 
   4   5   6   19.34    0.91 
   4   5   6   17.82    0.97 
   5   5   6   44.09    1.62 
   5   5   6   43.59    1.56 
   6   5   6   34.44    1.38 
   6   5   6   40.01    1.51 
   7   5   6    2.83    0.60 
   7   5   6    3.58    0.51 
   8   5   6   32.35    1.52 
   9   5   6   41.22    1.85 
   7  -6  -6    2.76    0.64 
   6  -6  -6   45.41    1.82 
   5  -6  -6   47.27    1.78 
  -5   6   6   47.33    1.75 
   4  -6  -6    5.50    0.59 
  -4   6   6    6.54    0.65 
   3  -6  -6   23.49    1.09 
  -3   6   6   25.46    1.12 
   2  -6  -6   81.89    2.51 
   2  -6  -6   79.93    2.26 
  -2   6   6   81.83    2.53 
   1  -6  -6   72.82    2.26 
   1  -6  -6   75.21    2.12 
  -1   6   6   71.91    2.31 
   0  -6  -6    0.22    0.30 
   0   6   6    0.96    0.36 
   1   6   6   -0.17    0.12 
   2   6   6  161.88    4.60 
   3   6   6   57.71    1.93 
   4   6   6   -0.08    0.35 
   5   6   6   20.98    1.02 
   5   6   6   20.63    1.02 
   6   6   6   72.00    2.41 
   6   6   6   72.04    2.36 
   7   6   6   28.86    1.35 
   7   6   6   28.23    1.24 
   8   6   6   -0.14    0.50 
   6  -7  -6    2.33    0.61 
   5  -7  -6   32.29    1.45 
  -5   7   6   33.74    1.40 
   4  -7  -6   60.59    2.10 
  -4   7   6   59.45    2.06 
   3  -7  -6   15.12    0.89 
  -3   7   6   14.81    0.86 
   2  -7  -6   10.96    0.61 
   2  -7  -6   12.59    0.74 
  -2   7   6   10.81    0.77 
   1  -7  -6   50.38    1.74 
   1  -7  -6   51.34    1.61 
  -1   7   6   53.09    1.79 
   0  -7  -6   58.28    1.78 
   0  -7  -6   57.10    1.84 
   0   7   6   53.61    1.87 
  -1  -7  -6    3.78    0.45 
   1   7   6    3.29    0.47 
   2   7   6   -0.11    0.15 
   3   7   6   30.89    1.30 
   4   7   6   36.72    1.45 
   5   7   6    9.48    0.77 
   5   7   6   10.93    0.81 
   6   7   6   14.36    0.94 
   6   7   6   15.82    0.99 
   7   7   6   65.92    2.30 
   7   7   6   68.86    2.33 
   8   7   6   25.65    1.33 
   8   7   6   23.84    1.28 
   6  -8  -6   13.84    1.14 
   5  -8  -6    0.88    0.55 
   4  -8  -6   30.06    1.36 
  -4   8   6   30.69    1.31 
   3  -8  -6   44.83    1.69 
  -3   8   6   43.59    1.64 
   2  -8  -6   14.86    0.87 
  -2   8   6   15.38    0.89 
   1  -8  -6    4.35    0.53 
   1  -8  -6    4.63    0.47 
  -1   8   6    3.46    0.54 
   0  -8  -6   51.44    1.77 
   0  -8  -6   52.53    1.73 
   0   8   6   54.26    1.86 
  -1  -8  -6   92.15    2.81 
   1   8   6   96.93    2.94 
   2   8   6   38.43    1.50 
   3   8   6   23.87    1.13 
   4   8   6   52.43    1.91 
   5   8   6   56.52    2.04 
   5   8   6   55.50    1.94 
   6   8   6    7.47    0.73 
   6   8   6    5.55    0.72 
   7   8   6    9.44    0.84 
   7   8   6    8.32    0.84 
   8   8   6   29.22    1.44 
   5  -9  -6   12.91    1.05 
   4  -9  -6    1.95    0.60 
   3  -9  -6   15.04    0.93 
  -3   9   6   15.49    0.94 
   2  -9  -6   31.83    1.33 
  -2   9   6   29.88    1.32 
   1  -9  -6   24.85    1.05 
   1  -9  -6   23.24    1.09 
  -1   9   6   22.75    1.09 
   0  -9  -6    0.46    0.37 
   0  -9  -6    0.30    0.38 
   0   9   6    0.66    0.45 
  -1  -9  -6   16.15    0.91 
   1   9   6   18.64    1.02 
  -2  -9  -6   38.71    1.48 
   2   9   6   35.45    1.47 
   3   9   6   21.06    1.06 
   4   9   6    4.51    0.62 
   5   9   6   35.92    1.45 
   5   9   6   36.44    1.58 
   6   9   6   58.44    2.20 
   7   9   6    5.13    0.80 
   4 -10  -6   17.17    1.12 
   3 -10  -6    1.17    0.53 
  -3  10   6    1.07    0.49 
   2 -10  -6    7.82    0.74 
  -2  10   6    7.29    0.73 
   1 -10  -6   37.59    1.50 
   1 -10  -6   38.61    1.48 
  -1  10   6   39.87    1.57 
   0 -10  -6   31.68    1.36 
   0 -10  -6   35.62    1.37 
   0  10   6   32.64    1.43 
  -1 -10  -6    2.64    0.54 
   1  10   6    3.17    0.57 
  -2 -10  -6   21.38    1.08 
   2  10   6   18.25    1.07 
   3  10   6   58.30    2.13 
   4  10   6   22.42    1.22 
   5  10   6    0.41    0.50 
   6  10   6   24.73    1.41 
   2 -11  -6    4.15    0.66 
  -2  11   6    4.21    0.65 
   1 -11  -6    4.97    0.63 
  -1  11   6    3.40    0.62 
   0 -11  -6   25.87    1.22 
   0 -11  -6   24.58    1.18 
   0  11   6   26.29    1.28 
  -1 -11  -6   27.41    1.27 
   1  11   6   25.16    1.25 
  -2 -11  -6    1.80    0.51 
   2  11   6    2.20    0.56 
  -3 -11  -6   34.92    1.52 
   3  11   6   32.16    1.53 
   4  11   6   48.20    1.92 
   5  11   6   21.23    1.22 
   0 -12  -6    0.76    0.53 
   0  12   6    0.29    0.54 
  -1 -12  -6   20.95    1.18 
   1  12   6   20.22    1.20 
  -2 -12  -6   28.98    1.41 
   2  12   6   26.63    1.42 
  -3 -12  -6    2.67    0.62 
   3  12   6    3.71    0.76 
   4   8  -7   12.76    1.08 
  -4  -8   7   14.09    1.12 
   3   8  -7   23.75    1.30 
  -3  -8   7   21.39    1.32 
   2   8  -7    8.72    0.85 
  -2  -8   7    6.94    0.91 
  -1  -8   7    2.55    0.71 
   0  -8   7   16.00    1.26 
   1  -8   7   17.06    1.26 
   5   7  -7   10.80    1.04 
  -5  -7   7    9.06    0.86 
   4   7  -7    0.92    0.53 
  -4  -7   7    0.62    0.54 
   3   7  -7    9.34    0.87 
  -3  -7   7    8.25    0.84 
   2   7  -7   34.38    1.52 
  -2  -7   7   35.23    1.55 
   1   7  -7   14.29    0.99 
  -1  -7   7   13.51    1.08 
   0  -7   7    3.46    0.76 
   1  -7   7   27.67    1.50 
   2  -7   7   24.02    1.38 
   3  -7   7    4.19    0.79 
   6   6  -7    7.42    0.90 
   5   6  -7   29.99    1.48 
  -5  -6   7   27.61    1.27 
   4   6  -7   30.13    1.46 
  -4  -6   7   31.24    1.34 
   3   6  -7    0.96    0.47 
  -3  -6   7    0.97    0.49 
   2   6  -7   20.22    1.14 
  -2  -6   7   21.04    1.14 
   1   6  -7   39.41    1.56 
  -1  -6   7   35.43    1.54 
   0  -6   7   24.96    1.29 
   1  -6   7   -0.32    0.46 
   2  -6   7   24.01    1.33 
   3  -6   7   46.24    2.02 
   4  -6   7   14.00    1.22 
   7   5  -7   22.25    1.35 
   6   5  -7    6.58    0.85 
   5   5  -7    1.82    0.58 
  -5  -5   7    2.06    0.49 
   4   5  -7   32.54    1.50 
  -4  -5   7   34.13    1.34 
   3   5  -7   37.70    1.61 
  -3  -5   7   40.50    1.52 
   2   5  -7   17.45    1.02 
  -2  -5   7   16.92    0.97 
   1   5  -7   31.47    1.33 
  -1  -5   7   30.94    1.36 
   0   5  -7   78.08    2.48 
   0  -5   7   77.39    2.57 
   1  -5   7   35.91    1.58 
   2  -5   7   -0.17    0.45 
   3  -5   7   25.83    1.36 
   4  -5   7   39.55    1.69 
   4  -5   7   35.76    1.76 
   5  -5   7    7.41    0.91 
   5  -5   7    7.40    0.94 
   8   4  -7    1.17    0.79 
   7   4  -7   20.28    1.27 
   6   4  -7   38.33    1.72 
   5   4  -7    9.25    0.88 
   4   4  -7    5.10    0.71 
  -4  -4   7    4.93    0.53 
   3   4  -7   63.66    2.28 
  -3  -4   7   64.68    2.07 
   2   4  -7   75.80    2.54 
  -2  -4   7   78.68    2.42 
   1   4  -7   13.57    0.84 
  -1  -4   7   11.77    0.79 
   0   4  -7   26.82    1.15 
   0  -4   7   28.75    1.27 
  -1   4  -7   94.20    2.80 
   1  -4   7   94.59    2.79 
   1  -4   7   92.92    2.98 
   2  -4   7   51.89    1.95 
   2  -4   7   49.20    1.75 
   3  -4   7    2.69    0.60 
   3  -4   7    2.22    0.53 
   4  -4   7   22.13    1.20 
   4  -4   7   20.91    1.24 
   5  -4   7   27.61    1.42 
   5  -4   7   27.77    1.49 
   6  -4   7   11.59    1.12 
   6  -4   7   12.08    1.14 
   8   3  -7   21.03    1.45 
   7   3  -7    2.55    0.69 
   6   3  -7   14.47    1.02 
   5   3  -7   62.08    2.30 
   4   3  -7   41.47    1.72 
  -4  -3   7   41.24    1.40 
   3   3  -7    1.22    0.50 
  -3  -3   7    1.91    0.39 
   2   3  -7   94.64    2.96 
  -2  -3   7   92.99    2.76 
   1   3  -7  123.13    3.48 
  -1  -3   7  112.46    3.34 
  -1  -3   7  112.05    3.20 
   0   3  -7   18.53    0.92 
   0  -3   7   19.96    0.97 
   0  -3   7   18.44    0.80 
  -1   3  -7   23.60    0.97 
   1  -3   7   22.21    0.96 
   1  -3   7   20.51    1.07 
   2  -3   7   88.63    2.70 
   2  -3   7   87.51    2.84 
   3  -3   7   57.74    1.99 
   4  -3   7    2.54    0.57 
   5  -3   7   26.56    1.36 
   6  -3   7   33.00    1.60 
   7  -3   7   21.94    1.49 
   8   2  -7   24.17    1.52 
   7   2  -7   32.83    1.62 
   6   2  -7    1.01    0.56 
   5   2  -7   47.71    1.90 
   4   2  -7   97.88    2.71 
   4   2  -7   93.57    3.08 
  -4  -2   7   94.31    2.67 
   3   2  -7   59.55    2.12 
  -3  -2   7   61.98    1.85 
   2   2  -7    1.00    0.42 
  -2  -2   7    0.74    0.33 
   1   2  -7  115.59    3.39 
  -1  -2   7  111.65    3.23 
   0   2  -7  174.35    4.87 
   0  -2   7  172.02    4.79 
   0  -2   7  173.03    4.73 
  -1   2  -7   21.92    0.89 
   1  -2   7   20.48    0.91 
  -2   2  -7   15.72    0.69 
   2  -2   7   16.87    0.86 
   3  -2   7   66.02    2.18 
   4  -2   7   18.95    1.04 
   5  -2   7    3.05    0.59 
   6  -2   7    1.33    0.63 
   7  -2   7   16.38    1.22 
   8   1  -7   -0.46    0.66 
   7   1  -7   46.21    1.97 
   6   1  -7   56.58    1.83 
   6   1  -7   55.04    2.18 
   5   1  -7    4.65    0.69 
   5   1  -7    4.72    0.47 
   3   1  -7  164.50    4.53 
   3   1  -7  167.15    4.89 
  -3  -1   7  169.48    4.43 
   2   1  -7   81.04    2.58 
  -2  -1   7   78.81    2.27 
   1   1  -7    6.58    0.58 
  -1  -1   7    7.51    0.54 
   0   1  -7   85.47    2.57 
  -1   1  -7  167.73    4.68 
   1  -1   7  169.99    4.67 
  -2   1  -7   32.47    1.06 
   2  -1   7   29.69    1.20 
   3  -1   7    0.57    0.26 
   3  -1   7    0.86    0.41 
   4  -1   7   85.94    2.75 
   5  -1   7   75.97    2.55 
   6  -1   7   17.98    1.12 
   7  -1   7    1.10    0.64 
   8  -1   7   19.93    1.46 
   8   0  -7   13.25    1.16 
   8   0  -7   11.94    0.85 
   7   0  -7    1.14    0.62 
   7   0  -7    0.93    0.43 
   6   0  -7   68.67    2.28 
   6   0  -7   77.33    2.64 
   5   0  -7  115.86    3.66 
   5   0  -7  115.49    3.34 
   3   0  -7   34.50    1.19 
  -3   0   7   34.32    1.04 
   2   0  -7  180.13    5.09 
   2   0  -7  175.03    4.82 
  -2   0   7  178.62    4.68 
   1   0  -7  119.27    3.50 
   0   0  -7    0.23    0.29 
  -1   0  -7   91.63    2.67 
   2   0   7   79.69    2.40 
   2   0   7   75.48    2.28 
   3   0   7   15.03    0.65 
   3   0   7   14.73    0.83 
   4   0   7    6.96    0.67 
   5   0   7   13.28    0.94 
   6   0   7   22.60    1.24 
   7   0   7   11.91    1.02 
   8   0   7    1.13    0.63 
   8  -1  -7   34.92    1.51 
   8  -1  -7   38.20    1.75 
   7  -1  -7   21.98    1.10 
   7  -1  -7   24.03    1.32 
   6  -1  -7    6.23    0.63 
   6  -1  -7    6.49    0.76 
   5  -1  -7  119.65    3.48 
   5  -1  -7  119.71    3.75 
   4  -1  -7  119.96    3.69 
   4  -1  -7  120.30    3.44 
   2  -1  -7   47.16    1.52 
   2  -1  -7   48.89    1.70 
  -2   1   7   47.63    1.36 
   1  -1  -7  186.10    5.23 
   0  -1  -7  118.47    3.42 
  -1  -1  -7   12.09    0.63 
   1   1   7   10.96    0.65 
   2   1   7   56.10    1.75 
   3   1   7  116.54    3.31 
   3   1   7  120.01    3.48 
   4   1   7   78.59    2.55 
   4   1   7   81.31    2.31 
   5   1   7    3.03    0.54 
   6   1   7    3.27    0.62 
   7   1   7   38.09    1.67 
   8   1   7   15.16    1.11 
   8  -2  -7   11.22    0.85 
   8  -2  -7   11.06    1.03 
   7  -2  -7   57.57    2.09 
   7  -2  -7   61.23    2.27 
   6  -2  -7   51.01    1.97 
   6  -2  -7   48.52    1.79 
   5  -2  -7    0.00    0.47 
   5  -2  -7    0.95    0.39 
   4  -2  -7   62.71    2.01 
   4  -2  -7   62.42    2.21 
   3  -2  -7  184.67    5.12 
   3  -2  -7  187.03    5.35 
   1  -2  -7   37.41    1.35 
   1  -2  -7   36.75    1.25 
   0  -2  -7  148.24    4.18 
   0   2   7  147.04    4.21 
   1   2   7   87.74    2.61 
   2   2   7    1.23    0.31 
   3   2   7   15.39    0.74 
   3   2   7   17.38    0.87 
   5   2   7   43.24    1.67 
   5   2   7   43.58    1.41 
   6   2   7    3.61    0.59 
   7   2   7   11.12    0.97 
   8   2   7   39.91    1.78 
   8  -3  -7    2.65    0.60 
   8  -3  -7    2.16    0.69 
   7  -3  -7   18.79    1.15 
   7  -3  -7   15.53    1.01 
   6  -3  -7   89.50    2.84 
   6  -3  -7   88.12    2.97 
   5  -3  -7   77.61    2.65 
   5  -3  -7   79.09    2.51 
   4  -3  -7    8.97    0.67 
   4  -3  -7    8.87    0.77 
   3  -3  -7   90.02    2.85 
   3  -3  -7   90.07    2.70 
   2  -3  -7  134.25    3.79 
   1  -3  -7   28.53    1.11 
   1  -3  -7   27.01    1.05 
   0   3   7    2.97    0.44 
   1   3   7   62.70    1.98 
   2   3   7  109.39    3.16 
   3   3   7   41.26    1.40 
   4   3   7    4.46    0.46 
   5   3   7   24.93    1.17 
   5   3   7   22.79    0.96 
   6   3   7   33.55    1.50 
   7   3   7   13.68    1.03 
   8   3   7    7.07    0.86 
   8  -4  -7   22.89    1.29 
   7  -4  -7    7.16    0.80 
   7  -4  -7    7.02    0.78 
   6  -4  -7   18.36    1.09 
   6  -4  -7   18.12    1.01 
   5  -4  -7   64.02    2.13 
   5  -4  -7   58.63    2.16 
   4  -4  -7   51.09    1.88 
   4  -4  -7   51.04    1.77 
  -4   4   7   52.23    1.92 
   3  -4  -7    4.53    0.49 
   3  -4  -7    4.12    0.57 
  -3   4   7    3.28    0.53 
   2  -4  -7   84.01    2.54 
  -2   4   7   84.14    2.66 
   1  -4  -7  135.63    3.79 
  -1   4   7  131.97    3.88 
   0   4   7   81.39    2.50 
   1   4   7    2.93    0.43 
   2   4   7   76.23    2.33 
   3   4   7  127.37    3.66 
   4   4   7   51.57    1.71 
   4   4   7   50.47    1.80 
   5   4   7    4.78    0.64 
   5   4   7    6.11    0.54 
   6   4   7   60.94    1.96 
   6   4   7   58.96    2.13 
   7   4   7   70.01    2.49 
   8   4   7   11.89    1.03 
   7  -5  -7   40.75    1.72 
   6  -5  -7   13.69    0.95 
  -6   5   7   12.38    0.98 
   5  -5  -7   13.57    0.89 
  -5   5   7   12.73    0.94 
   4  -5  -7   74.32    2.40 
  -4   5   7   73.78    2.48 
   3  -5  -7   56.88    1.96 
  -3   5   7   62.69    2.06 
  -2   5   7    4.84    0.58 
   1   5   7   67.36    2.15 
   2   5   7    5.93    0.55 
   3   5   7   15.29    0.80 
   4   5   7   89.06    2.72 
   5   5   7   24.60    1.11 
   5   5   7   25.43    1.23 
   6   5   7    0.94    0.41 
   6   5   7    0.26    0.45 
   7   5   7   37.54    1.60 
   8   5   7   40.13    1.74 
   7  -6  -7   13.15    1.00 
   6  -6  -7   36.69    1.57 
  -6   6   7   35.54    1.56 
   5  -6  -7   11.34    0.81 
  -5   6   7   11.62    0.91 
   4  -6  -7    5.98    0.63 
  -4   6   7    5.40    0.66 
   3  -6  -7   61.09    2.03 
  -3   6   7   59.54    2.08 
   2  -6  -7   87.63    2.67 
  -2   6   7   84.08    2.71 
   1  -6  -7   15.25    0.84 
  -1   6   7   16.99    0.87 
   0  -6  -7    9.99    0.63 
   0   6   7    7.00    0.58 
   1   6   7    0.02    0.13 
   2   6   7  115.45    3.43 
   3   6   7   19.42    0.98 
   4   6   7   49.70    1.78 
   5   6   7   99.87    3.11 
   5   6   7   98.60    3.05 
   6   6   7   50.69    1.92 
   6   6   7   51.14    1.82 
   7   6   7    0.04    0.49 
   7   6   7    0.34    0.43 
   8   6   7   29.48    1.45 
   6  -7  -7   18.15    1.14 
   5  -7  -7   30.74    1.41 
  -5   7   7   31.80    1.42 
   4  -7  -7   17.32    1.02 
  -4   7   7   18.77    1.04 
   3  -7  -7    3.11    0.52 
  -3   7   7    2.48    0.53 
   2  -7  -7   37.21    1.44 
  -2   7   7   36.51    1.46 
   1  -7  -7   63.12    2.11 
  -1   7   7   66.80    2.16 
   0  -7  -7   45.03    1.58 
   0   7   7   44.98    1.62 
   1   7   7    4.53    0.54 
   2   7   7   75.13    2.41 
   3   7   7   75.53    2.46 
   4   7   7   19.94    1.01 
   5   7   7   29.95    1.31 
   5   7   7   28.38    1.31 
   6   7   7   63.70    2.24 
   6   7   7   63.71    2.21 
   7   7   7   43.33    1.80 
   7   7   7   45.30    1.76 
   8   7   7    0.38    0.51 
   5  -8  -7    8.53    0.86 
   4  -8  -7   30.21    1.41 
  -4   8   7   32.83    1.39 
   3  -8  -7   26.71    1.25 
  -3   8   7   26.62    1.24 
   2  -8  -7    0.48    0.38 
  -2   8   7    0.92    0.46 
   1  -8  -7   19.88    0.99 
   1  -8  -7   20.89    0.91 
  -1   8   7   19.67    1.01 
   0  -8  -7   52.86    1.83 
   0   8   7   53.97    1.90 
   1   8   7   31.18    1.33 
   2   8   7    2.39    0.50 
   3   8   7   65.59    2.24 
   4   8   7  100.67    3.17 
   5   8   7   15.55    1.00 
   5   8   7   15.82    1.02 
   6   8   7   11.42    0.87 
   6   8   7    9.58    0.84 
   7   8   7   54.99    2.09 
   7   8   7   54.79    2.07 
   5  -9  -7    3.09    0.74 
   4  -9  -7    0.96    0.52 
  -4   9   7    0.57    0.49 
   3  -9  -7   20.62    1.15 
  -3   9   7   21.90    1.12 
   2  -9  -7   47.24    1.77 
  -2   9   7   46.91    1.77 
   1  -9  -7    3.81    0.56 
  -1   9   7    4.23    0.60 
   0  -9  -7   19.87    0.99 
   0  -9  -7   20.22    1.02 
   0   9   7   20.08    1.03 
   1   9   7   94.36    3.00 
   2   9   7   36.07    1.48 
   3   9   7   -0.11    0.40 
   4   9   7   60.00    2.18 
   5   9   7   59.74    2.23 
   5   9   7   63.45    2.18 
   6   9   7    9.83    0.87 
   6   9   7   12.85    1.03 
   7   9   7    4.43    0.78 
   3 -10  -7   -0.41    0.49 
  -3  10   7    0.55    0.51 
   2 -10  -7   19.93    1.13 
  -2  10   7   22.27    1.15 
   1 -10  -7   31.11    1.34 
  -1  10   7   29.36    1.33 
   0 -10  -7    9.52    0.77 
   0 -10  -7    9.31    0.77 
   0  10   7    8.76    0.82 
  -1 -10  -7    9.59    0.78 
   1  10   7    9.07    0.83 
   2  10   7   47.63    1.83 
   3  10   7   46.08    1.82 
   4  10   7    0.41    0.48 
   5  10   7   25.87    1.35 
   6  10   7   41.13    1.84 
   2 -11  -7    0.99    0.55 
  -2  11   7   -0.08    0.50 
   1 -11  -7   28.99    1.36 
  -1  11   7   30.33    1.42 
   0 -11  -7   34.78    1.41 
   0 -11  -7   33.08    1.41 
   0  11   7   29.84    1.46 
  -1 -11  -7    4.86    0.65 
   1  11   7    4.61    0.67 
   2  11   7    7.13    0.81 
   3  11   7   45.92    1.88 
   4  11   7   29.48    1.44 
   5  11   7   -0.44    0.51 
  -1 -12  -7   37.96    1.61 
   1  12   7   37.57    1.68 
  -2 -12  -7    6.20    0.74 
   2  12   7    5.94    0.85 
   4   7  -8    6.73    0.88 
  -4  -7   8    6.82    0.82 
   3   7  -8   20.06    1.21 
  -3  -7   8   17.71    1.19 
   2   7  -8   12.82    0.97 
  -2  -7   8   13.11    1.08 
  -1  -7   8    3.32    0.75 
   0  -7   8   21.73    1.40 
   1  -7   8   25.74    1.52 
   2  -7   8    7.35    0.98 
   5   6  -8   31.72    1.64 
   4   6  -8    4.20    0.73 
  -4  -6   8    2.71    0.57 
   3   6  -8   15.27    1.05 
  -3  -6   8   14.44    1.00 
   2   6  -8   68.31    2.38 
  -2  -6   8   64.68    2.33 
   1   6  -8   23.50    1.19 
  -1  -6   8   22.55    1.28 
   0  -6   8    0.76    0.55 
   1  -6   8   20.10    1.32 
   2  -6   8   31.42    1.59 
   3  -6   8    8.79    1.03 
   6   5  -8    0.12    0.60 
   5   5  -8   30.80    1.54 
   4   5  -8   49.68    2.03 
  -4  -5   8   50.47    1.79 
   3   5  -8    2.83    0.58 
  -3  -5   8    3.10    0.55 
   2   5  -8    7.18    0.77 
  -2  -5   8    7.77    0.76 
   1   5  -8   58.78    2.07 
  -1  -5   8   55.94    2.06 
   0   5  -8   44.23    1.63 
   0  -5   8   41.08    1.73 
   1  -5   8    0.70    0.55 
   2  -5   8   16.97    1.18 
   3  -5   8   37.83    1.74 
   4  -5   8    9.37    1.03 
   7   4  -8   16.36    1.25 
   6   4  -8   24.40    1.41 
   5   4  -8    0.06    0.47 
   4   4  -8   50.20    2.05 
  -4  -4   8   54.75    1.81 
   3   4  -8   81.52    2.73 
  -3  -4   8   78.92    2.49 
   2   4  -8   17.54    1.05 
  -2  -4   8   18.24    0.98 
   1   4  -8   19.90    1.02 
  -1  -4   8   17.00    1.01 
   0   4  -8   78.52    2.41 
   0  -4   8   68.72    2.42 
   1  -4   8   41.16    1.71 
   2  -4   8   -0.14    0.47 
   3  -4   8   15.19    0.97 
   3  -4   8   15.06    1.06 
   4  -4   8   22.78    1.37 
   4  -4   8   25.16    1.29 
   5  -4   8    9.52    1.04 
   5  -4   8   10.05    1.00 
   7   3  -8   12.74    1.15 
   6   3  -8   64.31    2.44 
   5   3  -8   36.14    1.67 
   4   3  -8    1.15    0.55 
   3   3  -8   68.49    2.43 
  -3  -3   8   72.15    2.20 
   2   3  -8  100.93    3.18 
  -2  -3   8  100.87    2.98 
   1   3  -8   20.25    1.04 
  -1  -3   8   20.71    1.02 
   0   3  -8   18.40    0.91 
   0  -3   8   16.29    0.79 
   0  -3   8   16.63    0.98 
  -1   3  -8   54.23    1.75 
   1  -3   8   52.57    1.76 
   1  -3   8   51.00    1.92 
   2  -3   8   56.19    1.94 
   2  -3   8   59.62    2.13 
   3  -3   8    4.13    0.60 
   4  -3   8    4.48    0.67 
   5  -3   8   36.55    1.66 
   6  -3   8   16.03    1.20 
   8   2  -8   21.92    1.53 
   7   2  -8    6.19    0.95 
   6   2  -8    6.49    0.85 
   5   2  -8   97.95    3.28 
   4   2  -8   77.77    2.70 
   3   2  -8    0.09    0.48 
  -3  -2   8    0.50    0.32 
   2   2  -8   56.92    2.07 
  -2  -2   8   59.93    1.87 
   1   2  -8  106.72    3.25 
  -1  -2   8  105.90    3.10 
   0   2  -8   31.01    1.23 
   0  -2   8   31.97    1.27 
   0  -2   8   31.11    1.16 
  -1   2  -8    7.90    0.60 
   1  -2   8    8.83    0.64 
   1  -2   8    6.65    0.68 
   2  -2   8   47.95    1.69 
   3  -2   8   51.73    1.85 
   4  -2   8    7.38    0.76 
   5  -2   8    2.81    0.61 
   6  -2   8   10.54    1.05 
   7  -2   8   13.64    1.21 
   8   1  -8   37.69    1.91 
   7   1  -8   47.76    2.11 
   6   1  -8    8.62    0.95 
   5   1  -8   20.54    0.92 
   5   1  -8   20.22    1.22 
   4   1  -8  104.33    3.37 
   4   1  -8  102.56    2.97 
   3   1  -8   77.78    2.35 
   3   1  -8   83.39    2.70 
  -3  -1   8   80.88    2.30 
   2   1  -8    2.60    0.53 
  -2  -1   8    2.20    0.35 
   1   1  -8   90.47    2.85 
  -1  -1   8   94.61    2.70 
   0   1  -8  112.95    3.33 
  -1   1  -8   38.00    1.32 
   1  -1   8   35.55    1.34 
  -2   1  -8    0.71    0.30 
   2  -1   8    0.70    0.39 
   3  -1   8   37.05    1.47 
   4  -1   8   38.87    1.58 
   5  -1   8   23.39    1.22 
   6  -1   8    2.82    0.71 
   7  -1   8   11.09    1.13 
   8   0  -8    0.40    0.71 
   7   0  -8   37.77    1.75 
   7   0  -8   35.81    1.44 
   6   0  -8   65.91    2.51 
   6   0  -8   69.89    2.21 
   5   0  -8   31.64    1.51 
   5   0  -8   30.99    1.22 
   4   0  -8   15.97    1.01 
   4   0  -8   19.44    0.84 
   3   0  -8  103.08    3.00 
   3   0  -8  107.25    3.31 
   2   0  -8   90.58    2.87 
  -2   0   8   91.03    2.54 
   1   0  -8    8.61    0.65 
  -1   0   8    6.46    0.51 
   0   0  -8   32.10    1.21 
  -1   0  -8   86.62    2.58 
   2   0   8   68.43    2.20 
   2   0   8   68.04    2.10 
   3   0   8   10.58    0.76 
   3   0   8    9.47    0.59 
   4   0   8   19.70    1.05 
   5   0   8   55.16    2.06 
   6   0   8   17.81    1.13 
   7   0   8    0.57    0.63 
   8  -1  -8   20.64    1.40 
   8  -1  -8   19.74    1.10 
   7  -1  -8   -0.38    0.59 
   7  -1  -8    0.25    0.40 
   6  -1  -8   34.08    1.38 
   6  -1  -8   36.28    1.62 
   5  -1  -8   83.69    2.61 
   5  -1  -8   86.35    2.90 
   4  -1  -8   36.08    1.55 
   4  -1  -8   35.61    1.31 
   2  -1  -8  102.81    3.05 
   2  -1  -8   93.46    2.80 
  -2   1   8   96.21    2.64 
   1  -1  -8  150.94    4.37 
   0  -1  -8    9.41    0.62 
  -1  -1  -8   15.24    0.77 
   1   1   8   15.88    0.81 
   2   1   8   79.06    2.38 
   3   1   8   63.85    1.97 
   3   1   8   65.45    2.18 
   4   1   8    8.58    0.78 
   5   1   8   15.87    0.99 
   6   1   8   46.34    1.90 
   7   1   8   23.74    1.32 
   8   1   8    1.61    0.68 
   8  -2  -8   50.35    2.11 
   8  -2  -8   46.48    1.88 
   7  -2  -8   24.68    1.41 
   7  -2  -8   24.16    1.19 
   6  -2  -8    0.26    0.39 
   6  -2  -8   -1.07    0.49 
   5  -2  -8   38.49    1.70 
   5  -2  -8   40.32    1.50 
   4  -2  -8   55.44    1.85 
   4  -2  -8   55.65    2.08 
   2  -2  -8    0.96    0.30 
   2  -2  -8    0.35    0.25 
   1  -2  -8   75.69    2.40 
   0  -2  -8  105.19    3.13 
   0   2   8  105.48    3.17 
   1   2   8   57.81    1.90 
   2   2   8    3.90    0.44 
   3   2   8   62.86    1.98 
   3   2   8   64.23    2.16 
   4   2   8   95.16    2.95 
   4   2   8   90.01    2.69 
   5   2   8   21.55    1.11 
   6   2   8   21.73    1.18 
   7   2   8   54.74    2.15 
   8   2   8   26.33    1.50 
   8  -3  -8    3.52    0.64 
   8  -3  -8    3.65    0.81 
   7  -3  -8   37.00    1.59 
   7  -3  -8   42.49    1.82 
   6  -3  -8   28.95    1.44 
   6  -3  -8   30.86    1.32 
   5  -3  -8    8.89    0.73 
   5  -3  -8    7.20    0.81 
   4  -3  -8   38.87    1.62 
   4  -3  -8   37.17    1.41 
   3  -3  -8  102.12    3.26 
   3  -3  -8  106.83    3.11 
   1  -3  -8    7.91    0.56 
   1  -3  -8    9.56    0.71 
  -1   3   8    5.85    0.60 
   0   3   8   49.27    1.73 
   1   3   8   78.24    2.44 
   2   3   8   84.16    2.56 
   3   3   8    1.52    0.38 
   4   3   8   53.19    1.77 
   4   3   8   57.17    1.98 
   5   3   8  102.34    2.99 
   5   3   8  100.50    3.21 
   6   3   8   17.20    1.06 
   7   3   8    2.48    0.61 
   8   3   8   37.16    1.73 
   7  -4  -8    6.50    0.88 
   7  -4  -8    5.67    0.71 
   6  -4  -8   27.10    1.27 
   6  -4  -8   26.30    1.37 
   5  -4  -8   30.89    1.31 
   5  -4  -8   30.80    1.45 
   4  -4  -8    1.17    0.43 
   4  -4  -8    1.20    0.47 
  -4   4   8    0.58    0.50 
   3  -4  -8    5.10    0.64 
   3  -4  -8    4.79    0.53 
  -3   4   8    5.20    0.69 
   2  -4  -8   58.15    1.88 
  -2   4   8   55.61    1.99 
   0   4   8    6.84    0.61 
   1   4   8   37.81    1.42 
   2   4   8  136.33    3.94 
   3   4   8   69.58    2.20 
   4   4   8    0.25    0.40 
   4   4   8    0.43    0.36 
   5   4   8   69.98    2.18 
   5   4   8   65.69    2.32 
   6   4   8   92.68    3.02 
   7   4   8   16.68    1.14 
   8   4   8    5.61    0.83 
   7  -5  -8    6.51    0.78 
  -7   5   8    7.09    0.84 
   6  -5  -8    1.54    0.49 
  -6   5   8    2.74    0.63 
   5  -5  -8   24.58    1.18 
  -5   5   8   25.34    1.30 
   4  -5  -8   57.99    2.03 
  -4   5   8   60.30    2.17 
   3  -5  -8   29.55    1.21 
  -3   5   8   28.39    1.30 
   2  -5  -8    4.08    0.48 
  -2   5   8    3.57    0.55 
   0   5   8   -0.01    0.15 
   1   5   8   30.49    1.25 
   2   5   8   15.48    0.87 
   3   5   8   99.49    3.02 
   4   5   8   82.08    2.57 
   5   5   8    3.70    0.62 
   5   5   8    5.34    0.59 
   6   5   8   40.95    1.69 
   6   5   8   38.62    1.48 
   7   5   8   57.53    2.21 
   8   5   8   17.46    1.17 
   6  -6  -8    3.69    0.62 
  -6   6   8    5.24    0.72 
   5  -6  -8    0.58    0.42 
  -5   6   8   -0.19    0.46 
   4  -6  -8   25.20    1.16 
  -4   6   8   25.06    1.28 
   3  -6  -8   32.72    1.32 
  -3   6   8   32.27    1.43 
   2  -6  -8   19.78    0.99 
  -2   6   8   21.68    1.07 
   1  -6  -8    0.47    0.32 
  -1   6   8    0.92    0.42 
   0   6   8   36.46    1.41 
   1   6   8  105.45    3.21 
   2   6   8   35.37    1.40 
   3   6   8   10.10    0.77 
   4   6   8  128.29    3.81 
   5   6   8   77.20    2.48 
   5   6   8   75.60    2.55 
   6   6   8    2.35    0.51 
   6   6   8    2.19    0.55 
   7   6   8   21.78    1.25 
   7   6   8   25.18    1.19 
   8   6   8   38.01    1.76 
   6  -7  -8   19.13    1.14 
   5  -7  -8   22.55    1.18 
  -5   7   8   24.02    1.25 
   4  -7  -8    1.66    0.47 
  -4   7   8    1.41    0.52 
   3  -7  -8    2.38    0.48 
  -3   7   8    3.15    0.59 
   2  -7  -8   39.34    1.52 
  -2   7   8   40.70    1.58 
   1  -7  -8   56.50    1.92 
  -1   7   8   54.95    1.98 
   0  -7  -8   -0.17    0.32 
   0   7   8    0.66    0.40 
   1   7   8   50.46    1.80 
   2   7   8  119.23    3.60 
   3   7   8    9.78    0.74 
   4   7   8    8.81    0.79 
   5   7   8   62.51    2.18 
   5   7   8   65.36    2.23 
   6   7   8   49.22    1.87 
   6   7   8   44.41    1.76 
   7   7   8    3.74    0.63 
   7   7   8    1.22    0.59 
   5  -8  -8   16.13    1.05 
  -5   8   8   15.08    1.06 
   4  -8  -8   19.41    1.10 
  -4   8   8   19.70    1.11 
   3  -8  -8    1.33    0.51 
  -3   8   8    0.90    0.50 
   2  -8  -8    8.46    0.75 
  -2   8   8    9.55    0.81 
   1  -8  -8   66.24    2.18 
  -1   8   8   63.30    2.23 
   0  -8  -8   64.82    2.16 
   0   8   8   62.83    2.19 
   1   8   8    1.32    0.44 
   2   8   8   29.75    1.28 
   3   8   8   99.02    3.12 
   4   8   8   37.66    1.58 
   5   8   8    4.16    0.65 
   5   8   8    5.30    0.73 
   6   8   8   35.72    1.60 
   6   8   8   38.96    1.63 
   7   8   8   28.90    1.45 
   7   8   8   31.64    1.49 
   4  -9  -8   15.97    1.09 
  -4   9   8   12.26    0.95 
   3  -9  -8   12.79    0.97 
  -3   9   8   13.66    0.95 
   2  -9  -8    4.47    0.65 
  -2   9   8    6.40    0.73 
   1  -9  -8   14.73    0.88 
  -1   9   8   11.80    0.91 
   0  -9  -8   54.48    1.93 
   0   9   8   52.99    1.95 
   1   9   8   35.77    1.48 
   2   9   8    0.24    0.42 
   3   9   8   42.80    1.71 
   4   9   8   53.60    2.03 
   5   9   8   18.02    1.11 
   5   9   8   18.23    1.16 
   6   9   8    3.29    0.60 
   6   9   8    3.12    0.71 
   3 -10  -8   18.46    1.17 
  -3  10   8   18.28    1.13 
   2 -10  -8   37.91    1.57 
  -2  10   8   36.33    1.59 
   1 -10  -8   14.68    0.96 
  -1  10   8   13.38    0.97 
   0 -10  -8    2.82    0.56 
   0  10   8    2.72    0.60 
   1  10   8   46.70    1.84 
   2  10   8   45.97    1.84 
   3  10   8    1.14    0.52 
   4  10   8   13.87    0.99 
   5  10   8   30.87    1.55 
   5  10   8   29.04    1.42 
   6  10   8   12.38    1.12 
   1 -11  -8   29.36    1.39 
  -1  11   8   32.29    1.49 
   0  11   8    4.52    0.71 
   1  11   8    7.93    0.84 
   2  11   8   30.25    1.47 
   3  11   8   26.59    1.38 
   4  11   8    3.78    0.69 
  -2  -7   9    0.17    0.67 
  -1  -7   9    8.04    1.01 
   4   6  -9    5.04    0.78 
   3   6  -9   37.50    1.68 
  -3  -6   9   34.03    1.57 
   2   6  -9   37.78    1.67 
  -2  -6   9   39.44    1.72 
  -1  -6   9    0.81    0.63 
   0  -6   9   21.99    1.40 
   1  -6   9   30.58    1.66 
   2  -6   9   11.37    1.15 
   5   5  -9   40.93    1.90 
   4   5  -9   16.51    1.17 
   3   5  -9    7.03    0.82 
  -3  -5   9    6.52    0.73 
   2   5  -9   45.99    1.84 
  -2  -5   9   45.42    1.79 
   1   5  -9   28.81    1.36 
  -1  -5   9   29.36    1.41 
   0  -5   9    2.75    0.68 
   1  -5   9   18.56    1.22 
   2  -5   9   26.25    1.47 
   3  -5   9   18.20    1.31 
   6   4  -9    0.98    0.64 
   5   4  -9   21.35    1.33 
   4   4  -9   62.09    2.36 
   3   4  -9   24.45    1.30 
  -3  -4   9   24.34    1.14 
   2   4  -9    3.05    0.61 
  -2  -4   9    2.26    0.54 
   1   4  -9   40.19    1.59 
  -1  -4   9   35.62    1.54 
   0   4  -9   52.01    1.87 
   0  -4   9   51.80    1.95 
   1  -4   9    9.30    0.89 
   2  -4   9    3.88    0.75 
   3  -4   9   18.52    1.22 
   4  -4   9   17.71    1.20 
   5  -4   9    3.21    0.78 
   7   3  -9   39.79    1.93 
   6   3  -9   28.47    1.56 
   5   3  -9    0.88    0.60 
   4   3  -9   20.57    1.24 
   3   3  -9   63.81    2.31 
  -3  -3   9   63.25    2.05 
   2   3  -9   23.26    1.18 
  -2  -3   9   21.76    1.08 
   1   3  -9    1.54    0.50 
  -1  -3   9    2.72    0.51 
   0   3  -9   62.87    2.07 
   0  -3   9   59.02    2.10 
   1  -3   9   53.05    1.99 
   2  -3   9   13.61    1.05 
   2  -3   9   11.68    0.82 
   3  -3   9    2.46    0.63 
   3  -3   9    1.04    0.51 
   4  -3   9   22.03    1.22 
   5  -3   9   26.78    1.47 
   7   2  -9    6.53    1.00 
   6   2  -9   51.98    2.19 
   5   2  -9   44.98    1.92 
   4   2  -9    8.02    0.87 
   3   2  -9   23.66    1.25 
   2   2  -9   54.14    1.99 
  -2  -2   9   54.47    1.81 
   1   2  -9   36.20    1.48 
  -1  -2   9   37.44    1.41 
   0   2  -9    9.79    0.75 
   0  -2   9    9.35    0.75 
   0  -2   9    9.82    0.69 
  -1   2  -9   19.83    0.91 
   1  -2   9   18.08    0.92 
   1  -2   9   19.61    1.08 
   2  -2   9   42.79    1.61 
   3  -2   9   21.39    1.12 
   4  -2   9   -0.35    0.46 
   5  -2   9   22.96    1.33 
   6  -2   9   18.82    1.35 
   7   1  -9   10.33    1.14 
   6   1  -9    8.34    0.92 
   5   1  -9   50.88    2.07 
   4   1  -9   44.26    1.82 
   3   1  -9    3.40    0.65 
   2   1  -9   19.63    1.10 
  -2  -1   9   20.36    0.89 
   1   1  -9   70.14    2.32 
  -1  -1   9   70.55    2.19 
   0   1  -9   79.50    2.52 
   0  -1   9   80.21    2.50 
  -1   1  -9    5.18    0.52 
   1  -1   9    4.19    0.53 
  -2   1  -9    8.27    0.60 
   2  -1   9    8.60    0.64 
   2  -1   9    8.21    0.71 
   3  -1   9   53.13    1.90 
   4  -1   9   35.44    1.54 
   5  -1   9    6.09    0.82 
   6  -1   9   15.65    1.24 
   7   0  -9   47.94    2.13 
   6   0  -9   12.54    1.09 
   6   0  -9   11.71    0.82 
   5   0  -9    1.23    0.56 
   5   0  -9    1.02    0.40 
   4   0  -9   31.99    1.18 
   4   0  -9   28.27    1.42 
   3   0  -9   51.28    1.97 
   3   0  -9   51.67    1.69 
   2   0  -9   19.08    1.09 
  -2   0   9   22.15    0.87 
   1   0  -9    0.24    0.40 
  -1   0   9    0.57    0.34 
   0   0  -9   50.32    1.75 
  -1   0  -9   79.12    2.43 
   2   0   9    8.00    0.69 
   2   0   9    7.26    0.60 
   3   0   9   21.92    1.13 
   4   0   9   71.82    2.45 
   5   0   9   37.56    1.67 
   6   0   9    0.01    0.61 
   7   0   9   21.48    1.47 
   7  -1  -9   16.79    0.98 
   7  -1  -9   17.64    1.34 
   6  -1  -9   51.77    1.84 
   6  -1  -9   52.24    2.14 
   5  -1  -9   15.84    1.08 
   5  -1  -9   16.96    0.90 
   4  -1  -9   -0.19    0.33 
   4  -1  -9    0.42    0.44 
   3  -1  -9   64.11    2.26 
   3  -1  -9   61.21    1.98 
   2  -1  -9   61.71    2.17 
   1  -1  -9   37.54    1.49 
   0  -1  -9    6.73    0.62 
  -1  -1  -9   33.15    1.26 
   1   1   9   33.89    1.31 
   2   1   9   67.81    2.15 
   3   1   9   55.21    1.79 
   3   1   9   55.68    1.99 
   4   1   9    0.86    0.51 
   5   1   9   45.93    1.88 
   6   1   9   42.66    1.84 
   7   1   9    1.35    0.64 
   7  -2  -9    0.52    0.46 
   7  -2  -9    0.28    0.67 
   6  -2  -9   10.61    0.79 
   6  -2  -9   12.25    1.10 
   5  -2  -9   34.51    1.63 
   5  -2  -9   34.13    1.37 
   4  -2  -9   20.73    1.16 
   4  -2  -9   21.34    1.00 
   3  -2  -9    1.62    0.48 
   3  -2  -9    1.45    0.39 
   2  -2  -9    6.35    0.55 
   2  -2  -9    5.32    0.63 
   1  -2  -9   62.62    2.12 
   0  -2  -9   59.43    2.01 
   0   2   9   61.60    2.05 
   1   2   9   -0.03    0.38 
   2   2   9   97.55    2.94 
   3   2   9  120.70    3.49 
   3   2   9  120.47    3.65 
   4   2   9   20.37    1.10 
   4   2   9   21.54    0.92 
   5   2   9    4.61    0.68 
   6   2   9   53.33    2.11 
   7   2   9   49.80    2.10 
   7  -3  -9   24.92    1.26 
   7  -3  -9   24.39    1.48 
   6  -3  -9    2.67    0.53 
   6  -3  -9    2.24    0.71 
   5  -3  -9    7.93    0.90 
   5  -3  -9    7.70    0.71 
   4  -3  -9   43.50    1.60 
   4  -3  -9   44.63    1.80 
   3  -3  -9   87.59    2.73 
   3  -3  -9   91.08    2.93 
   2  -3  -9    4.05    0.47 
   2  -3  -9    4.18    0.58 
   1  -3  -9    2.12    0.46 
  -1   3   9    3.15    0.54 
   0   3   9   78.84    2.53 
   1   3   9   85.99    2.69 
   2   3   9    7.15    0.62 
   3   3   9   28.85    1.18 
   4   3   9  104.07    3.06 
   4   3   9  102.20    3.24 
   5   3   9   34.10    1.52 
   6   3   9    4.25    0.68 
   7   3   9   31.93    1.56 
   8   3   9   21.88    1.37 
   7  -4  -9   15.55    1.05 
   7  -4  -9   16.63    1.28 
   6  -4  -9   19.88    1.28 
   6  -4  -9   19.25    1.09 
   5  -4  -9    8.37    0.73 
   5  -4  -9    7.96    0.89 
   4  -4  -9    3.59    0.52 
   4  -4  -9    2.36    0.63 
  -4   4   9    2.06    0.60 
   3  -4  -9   31.47    1.25 
   3  -4  -9   28.49    1.36 
  -3   4   9   26.45    1.34 
   2  -4  -9   26.60    1.12 
  -2   4   9   28.05    1.28 
   1  -4  -9   11.58    0.71 
  -1   4   9    8.79    0.76 
   0   4   9   12.35    0.81 
   1   4   9  112.54    3.39 
   2   4   9  105.94    3.19 
   3   4   9    5.49    0.57 
   4   4   9   42.06    1.67 
   4   4   9   43.74    1.57 
   5   4   9   80.61    2.74 
   5   4   9   83.43    2.55 
   6   4   9   32.68    1.54 
   7   4   9    0.00    0.56 
   8   4   9   21.32    1.46 
   6  -5  -9   16.66    1.02 
  -6   5   9   17.19    1.17 
   5  -5  -9   38.45    1.54 
  -5   5   9   36.89    1.68 
   4  -5  -9   36.00    1.44 
  -4   5   9   35.32    1.60 
   3  -5  -9    0.94    0.40 
  -3   5   9    0.46    0.48 
   2  -5  -9   42.72    1.58 
  -2   5   9   42.01    1.70 
   1  -5  -9   80.64    2.53 
  -1   5   9   80.35    2.64 
   0   5   9   43.54    1.64 
   1   5   9   12.28    0.79 
   2   5   9   91.63    2.84 
   3   5   9   82.36    2.60 
   4   5   9    1.32    0.44 
   5   5   9   30.57    1.30 
   5   5   9   28.80    1.37 
   6   5   9   51.98    1.85 
   6   5   9   54.93    2.09 
   7   5   9   13.28    1.11 
   6  -6  -9    0.51    0.47 
  -6   6   9    1.06    0.60 
   5  -6  -9    5.10    0.65 
  -5   6   9    4.23    0.72 
   4  -6  -9   29.10    1.27 
  -4   6   9   26.26    1.37 
   3  -6  -9   24.17    1.13 
  -3   6   9   25.07    1.28 
   2  -6  -9    2.93    0.47 
  -2   6   9    4.00    0.64 
   1  -6  -9   44.11    1.60 
  -1   6   9   43.30    1.71 
   0   6   9   95.77    3.02 
   1   6   9   33.83    1.40 
   2   6   9    7.77    0.71 
   3   6   9   55.18    1.95 
   4   6   9   86.65    2.76 
   5   6   9    9.98    0.88 
   5   6   9    9.33    0.78 
   6   6   9   16.75    0.98 
   6   6   9   16.98    1.12 
   7   6   9   34.03    1.63 
   5  -7  -9    7.13    0.75 
  -5   7   9    6.91    0.82 
   4  -7  -9   10.50    0.87 
  -4   7   9    9.71    0.91 
   3  -7  -9   53.19    1.96 
  -3   7   9   55.37    2.04 
   2  -7  -9   28.00    1.25 
  -2   7   9   30.24    1.34 
   1  -7  -9    2.95    0.50 
  -1   7   9    3.93    0.59 
   0   7   9   38.41    1.55 
   1   7   9   83.32    2.69 
   2   7   9   33.33    1.41 
   3   7   9   11.03    0.86 
   4   7   9   67.34    2.30 
   5   7   9   36.65    1.60 
   5   7   9   37.43    1.55 
   6   7   9    4.37    0.71 
   6   7   9    5.05    0.68 
   7   7   9    6.58    0.85 
   7   7   9    7.67    0.82 
   5  -8  -9   14.62    1.00 
  -5   8   9   15.44    1.08 
   4  -8  -9    5.42    0.68 
  -4   8   9    6.75    0.79 
   3  -8  -9   18.27    1.06 
  -3   8   9   17.05    1.09 
   2  -8  -9   79.20    2.63 
  -2   8   9   79.53    2.69 
   1  -8  -9   43.70    1.68 
  -1   8   9   44.32    1.75 
   0   8   9    0.90    0.43 
   1   8   9   43.93    1.70 
   2   8   9   59.28    2.11 
   3   8   9   22.21    1.19 
   4   8   9    0.83    0.50 
   5   8   9   30.69    1.42 
   5   8   9   29.44    1.40 
   6   8   9   39.73    1.67 
   6   8   9   36.91    1.68 
   7   8   9   11.97    1.02 
   7   8   9   11.98    1.05 
   4  -9  -9   31.51    1.50 
  -4   9   9   30.34    1.48 
   3  -9  -9    9.66    0.89 
  -3   9   9   11.08    0.95 
   2  -9  -9    5.41    0.72 
  -2   9   9    6.46    0.76 
   1  -9  -9   32.04    1.41 
  -1   9   9   29.37    1.42 
   0   9   9   37.78    1.60 
   1   9   9    0.16    0.47 
   2   9   9   17.93    1.07 
   3   9   9   50.73    1.96 
   4   9   9   20.90    1.19 
   5   9   9   -0.19    0.53 
   5   9   9    0.30    0.53 
   6   9   9   16.91    1.22 
   6   9   9   21.16    1.22 
   3 -10  -9   47.17    1.92 
  -3  10   9   44.77    1.88 
   2 -10  -9    8.58    0.88 
  -2  10   9    8.82    0.90 
   1 -10  -9    8.36    0.83 
  -1  10   9    6.88    0.81 
   0  10   9   42.85    1.77 
   1  10   9   34.32    1.51 
   2  10   9    3.07    0.63 
   3  10   9    6.56    0.79 
   4  10   9   24.74    1.32 
   5  10   9   22.56    1.33 
   5  10   9   25.25    1.34 
   1 -11  -9    9.28    0.93 
  -1  11   9    9.35    0.92 
   0  11   9    2.00    0.63 
   1  11   9   30.60    1.50 
   2  11   9   20.10    1.19 
   3  11   9    3.91    0.68 
   2   6 -10    5.45    0.78 
  -2  -6  10    4.72    0.83 
  -1  -6  10    3.99    0.84 
   0  -6  10   22.65    1.49 
   4   5 -10    3.56    0.76 
   3   5 -10   16.00    1.14 
   2   5 -10   24.76    1.34 
  -2  -5  10   21.11    1.25 
  -1  -5  10    0.98    0.63 
   0  -5  10    1.03    0.65 
   1  -5  10   16.23    1.30 
   2  -5  10   16.64    1.32 
   5   4 -10   33.06    1.73 
   4   4 -10   16.08    1.18 
   3   4 -10    0.91    0.57 
   2   4 -10   21.93    1.23 
  -2  -4  10   20.77    1.14 
   1   4 -10   35.87    1.53 
  -1  -4  10   33.54    1.53 
   0  -4  10   18.84    1.19 
   1  -4  10    1.29    0.60 
   2  -4  10   12.94    1.12 
   3  -4  10   20.11    1.41 
   6   3 -10    2.22    0.69 
   5   3 -10   14.00    1.22 
   4   3 -10   32.80    1.60 
   3   3 -10    8.28    0.88 
   2   3 -10   -0.07    0.46 
  -2  -3  10    0.35    0.42 
   1   3 -10   13.03    0.93 
  -1  -3  10   12.04    0.89 
   0   3 -10   19.98    1.03 
   0  -3  10   20.34    1.15 
   1  -3  10   15.69    1.09 
   2  -3  10   -0.17    0.52 
   3  -3  10    9.78    0.87 
   3  -3  10   10.83    1.07 
   4  -3  10   24.30    1.36 
   4  -3  10   21.04    1.41 
   6   2 -10   29.05    1.56 
   5   2 -10    3.75    0.77 
   4   2 -10    4.88    0.75 
   3   2 -10   37.16    1.62 
   2   2 -10   55.67    2.02 
  -2  -2  10   49.34    1.79 
   1   2 -10    5.60    0.67 
  -1  -2  10    6.14    0.66 
   0   2 -10    0.41    0.43 
   0  -2  10    1.29    0.39 
   0  -2  10    1.75    0.50 
   1  -2  10   26.23    1.16 
   1  -2  10   25.96    1.29 
   2  -2  10   40.18    1.58 
   3  -2  10    1.56    0.53 
   4  -2  10   11.88    0.99 
   5  -2  10   41.20    1.87 
   7   1 -10    1.33    0.81 
   6   1 -10   15.69    1.21 
   5   1 -10   33.02    1.60 
   4   1 -10    2.57    0.62 
   3   1 -10    5.42    0.70 
   2   1 -10   35.96    1.54 
   1   1 -10   29.99    1.34 
  -1  -1  10   31.07    1.27 
   0   1 -10    8.87    0.73 
   0  -1  10    8.99    0.75 
  -1   1 -10    6.19    0.61 
   1  -1  10    7.16    0.66 
   2  -1  10   57.50    2.02 
   3  -1  10   46.03    1.78 
   4  -1  10    3.94    0.65 
   5  -1  10   11.82    1.04 
   6  -1  10   27.82    1.62 
   7   0 -10   11.80    1.21 
   6   0 -10   -0.45    0.51 
   5   0 -10   19.82    1.20 
   4   0 -10   43.40    1.54 
   4   0 -10   44.17    1.85 
   3   0 -10   32.19    1.47 
   2   0 -10    0.38    0.45 
   1   0 -10   17.49    1.02 
  -1   0  10   20.66    0.93 
   0   0 -10   30.44    1.28 
  -1   0 -10   19.76    0.96 
   2   0  10    1.79    0.51 
   2   0  10    2.14    0.46 
   3   0  10   42.79    1.70 
   4   0  10   39.74    1.67 
   5   0  10    4.99    0.80 
   6   0  10   16.13    1.22 
   7  -1 -10   18.14    1.40 
   6  -1 -10   14.82    1.27 
   6  -1 -10   17.19    0.97 
   5  -1 -10    0.22    0.43 
   5  -1 -10    0.14    0.54 
   4  -1 -10   14.61    0.86 
   4  -1 -10   16.17    1.08 
   3  -1 -10   60.29    2.20 
   3  -1 -10   58.93    1.96 
   2  -1 -10   71.31    2.44 
   1  -1 -10    2.38    0.50 
   0  -1 -10   43.91    1.60 
  -1  -1 -10  139.14    4.03 
   1   1  10  138.20    4.08 
   2   1  10   48.35    1.70 
   3   1  10    1.62    0.41 
   3   1  10    2.16    0.51 
   4   1  10   52.29    2.02 
   5   1  10   56.30    2.21 
   6   1  10    4.16    0.80 
   7   1  10    8.23    1.02 
   7  -2 -10    2.89    0.89 
   7  -2 -10    3.01    0.59 
   6  -2 -10   26.34    1.23 
   6  -2 -10   27.07    1.58 
   5  -2 -10   36.61    1.47 
   5  -2 -10   38.77    1.77 
   4  -2 -10    8.06    0.86 
   4  -2 -10    6.86    0.66 
   3  -2 -10    9.03    0.70 
   3  -2 -10    9.14    0.88 
   2  -2 -10   32.58    1.46 
   1  -2 -10   23.36    1.16 
   0  -2 -10    1.57    0.46 
   0   2  10    0.34    0.45 
   1   2  10   23.89    1.13 
   2   2  10   74.38    2.38 
   3   2  10   29.02    1.18 
   3   2  10   30.85    1.36 
   4   2  10    3.96    0.65 
   5   2  10   45.08    1.89 
   6   2  10   42.22    1.85 
   7   2  10    6.08    0.91 
   7  -3 -10    4.42    0.67 
   7  -3 -10    3.44    0.89 
   6  -3 -10    0.17    0.44 
   6  -3 -10   -0.35    0.67 
   5  -3 -10   31.21    1.37 
   5  -3 -10   35.12    1.63 
   4  -3 -10   46.78    1.71 
   4  -3 -10   45.78    1.92 
   3  -3 -10   44.89    1.82 
   3  -3 -10   45.15    1.64 
   2  -3 -10   16.03    0.89 
   2  -3 -10   16.06    1.03 
   1  -3 -10  158.60    4.64 
  -1   3  10  155.64    4.68 
   0   3  10  112.89    3.49 
   1   3  10   13.50    0.87 
   2   3  10   45.28    1.66 
   3   3  10   75.70    2.40 
   4   3  10   33.81    1.52 
   4   3  10   34.37    1.33 
   5   3  10   -0.15    0.45 
   6   3  10   25.82    1.37 
   7   3  10   26.72    1.47 
   6  -4 -10   16.12    1.20 
   6  -4 -10   16.50    0.99 
   5  -4 -10    0.40    0.40 
   5  -4 -10    0.12    0.63 
   4  -4 -10   21.50    1.04 
   4  -4 -10   20.16    1.21 
  -4   4  10   19.76    1.20 
   3  -4 -10   48.41    1.89 
   3  -4 -10   47.38    1.73 
  -3   4  10   48.13    1.94 
   2  -4 -10   12.17    0.78 
  -2   4  10   12.51    0.90 
  -1   4  10   15.87    0.97 
   0   4  10   74.07    2.49 
   1   4  10   66.89    2.27 
   2   4  10    4.59    0.58 
   3   4  10   35.46    1.40 
   4   4  10   76.97    2.42 
   4   4  10   72.94    2.55 
   5   4  10   39.58    1.68 
   6   4  10    0.10    0.49 
   7   4  10   15.78    1.25 
   6  -5 -10   24.93    1.28 
  -6   5  10   23.20    1.40 
   5  -5 -10   30.53    1.36 
  -5   5  10   28.63    1.49 
   4  -5 -10    0.57    0.44 
  -4   5  10    0.43    0.56 
   3  -5 -10   30.19    1.31 
  -3   5  10   32.06    1.52 
   2  -5 -10  119.10    3.50 
  -2   5  10  110.58    3.62 
   1  -5 -10   40.25    1.53 
  -1   5  10   40.95    1.66 
   0   5  10    2.96    0.56 
   1   5  10   74.04    2.45 
   2   5  10   65.24    2.21 
   3   5  10    4.99    0.60 
   4   5  10   16.64    0.94 
   5   5  10   36.37    1.48 
   5   5  10   36.24    1.59 
   6   5  10   28.17    1.46 
   7   5  10    0.72    0.65 
   6  -6 -10    3.15    0.71 
   5  -6 -10   29.64    1.37 
  -5   6  10   28.57    1.50 
   4  -6 -10   24.00    1.21 
  -4   6  10   24.52    1.36 
   3  -6 -10    4.49    0.59 
  -3   6  10    3.12    0.63 
   2  -6 -10   47.69    1.74 
  -2   6  10   43.87    1.81 
   1  -6 -10  112.72    3.40 
  -1   6  10  109.83    3.52 
   0   6  10   28.83    1.29 
   1   6  10    5.26    0.64 
   2   6  10   84.43    2.75 
   3   6  10   52.22    1.88 
   4   6  10   10.61    0.84 
   5   6  10    1.03    0.50 
   5   6  10    0.50    0.49 
   6   6  10   34.66    1.46 
   6   6  10   31.97    1.54 
   7   6  10   27.74    1.49 
   5  -7 -10    1.56    0.57 
  -5   7  10    3.66    0.73 
   4  -7 -10   38.47    1.60 
  -4   7  10   38.51    1.74 
   3  -7 -10   50.67    1.85 
  -3   7  10   44.98    1.90 
   2  -7 -10    4.84    0.60 
  -2   7  10    3.99    0.67 
   1  -7 -10   19.71    1.06 
  -1   7  10   19.85    1.14 
   0   7  10   52.08    1.96 
   1   7  10   29.37    1.32 
   2   7  10    0.85    0.50 
   3   7  10   27.91    1.29 
   4   7  10   48.13    1.85 
   5   7  10    9.50    0.89 
   5   7  10   10.70    0.90 
   6   7  10   -0.37    0.50 
   6   7  10    0.66    0.53 
   4  -8 -10    5.99    0.72 
  -4   8  10    4.12    0.75 
   3  -8 -10   35.45    1.52 
  -3   8  10   36.13    1.64 
   2  -8 -10   49.70    1.91 
  -2   8  10   54.36    2.03 
   1  -8 -10    2.17    0.53 
  -1   8  10    2.64    0.62 
   0   8  10   21.65    1.14 
   1   8  10   61.04    2.21 
   2   8  10   33.75    1.50 
   3   8  10    0.44    0.49 
   4   8  10    9.90    0.91 
   5   8  10   30.04    1.45 
   5   8  10   28.27    1.43 
   6   8  10   20.26    1.25 
   6   8  10   21.53    1.29 
   3  -9 -10    0.13    0.56 
  -3   9  10   -0.11    0.53 
   2  -9 -10   28.85    1.39 
  -2   9  10   24.39    1.35 
   1  -9 -10   29.06    1.41 
  -1   9  10   28.64    1.42 
   0   9  10    7.08    0.79 
   1   9  10    6.81    0.75 
   2   9  10   32.49    1.46 
   3   9  10   23.16    1.30 
   4   9  10    4.27    0.77 
   5   9  10    1.60    0.62 
   5   9  10    0.30    0.63 
   2 -10 -10    1.17    0.62 
  -2  10  10    2.52    0.68 
   1 -10 -10   20.62    1.23 
  -1  10  10   19.20    1.22 
   0  10  10   24.94    1.31 
   1  10  10    8.73    0.89 
   2  10  10    1.01    0.56 
   3  10  10   21.85    1.29 
   4  10  10   21.37    1.34 
   1  11  10   23.89    1.41 
   2  11  10   11.05    0.99 
  -1  -5  11    0.40    0.66 
   4   4 -11   -0.04    0.60 
   3   4 -11    9.34    0.96 
   2   4 -11   28.73    1.45 
   1   4 -11   20.57    1.15 
  -1  -4  11   20.86    1.27 
   0  -4  11    0.63    0.64 
   1  -4  11    6.21    0.87 
   2  -4  11   14.88    1.28 
   5   3 -11   14.22    1.29 
   4   3 -11   23.10    1.35 
   3   3 -11    2.03    0.61 
   2   3 -11    3.71    0.67 
   1   3 -11   23.47    1.20 
  -1  -3  11   24.48    1.24 
   0  -3  11   19.80    1.18 
   1  -3  11   -0.39    0.56 
   2  -3  11   15.88    1.16 
   3  -3  11   29.89    1.65 
   5   2 -11    2.95    0.76 
   4   2 -11   21.53    1.32 
   3   2 -11   32.51    1.56 
   2   2 -11   13.05    0.96 
   1   2 -11    4.57    0.66 
  -1  -2  11    3.97    0.61 
   0   2 -11   41.79    1.64 
   0  -2  11   41.33    1.68 
   1  -2  11   20.96    1.21 
   2  -2  11    6.04    0.83 
   2  -2  11    3.98    0.63 
   3  -2  11    9.97    0.90 
   4  -2  11   22.39    1.34 
   6   1 -11   20.25    1.32 
   5   1 -11   15.59    1.13 
   4   1 -11    0.65    0.54 
   3   1 -11   19.23    1.17 
   2   1 -11   43.73    1.79 
   1   1 -11   22.36    1.20 
  -1  -1  11   24.65    1.13 
   0   1 -11    7.94    0.76 
   0  -1  11    8.84    0.79 
  -1   1 -11   57.19    1.94 
   1  -1  11   55.88    1.99 
   2  -1  11   57.60    2.07 
   3  -1  11    4.44    0.70 
   4  -1  11    7.97    0.91 
   5  -1  11   29.30    1.55 
   6   0 -11    9.60    1.03 
   5   0 -11   35.35    1.70 
   4   0 -11   30.27    1.52 
   3   0 -11    2.11    0.60 
   2   0 -11   17.42    1.08 
   1   0 -11   61.07    2.20 
  -1   0  11   64.44    2.07 
   0   0 -11   37.17    1.50 
  -1   0 -11    1.50    0.47 
   1   0  11    1.06    0.47 
   2   0  11   38.54    1.59 
   3   0  11   54.32    2.05 
   4   0  11    2.28    0.68 
   5   0  11    9.50    1.04 
   6  -1 -11    4.79    0.91 
   5  -1 -11    2.48    0.69 
   5  -1 -11    2.67    0.50 
   4  -1 -11   41.78    1.81 
   4  -1 -11   40.88    1.58 
   3  -1 -11   40.77    1.76 
   2  -1 -11    8.67    0.85 
   1  -1 -11   53.34    1.98 
   0  -1 -11  112.03    3.44 
   1   1  11   30.28    1.32 
   2   1  11    2.31    0.50 
   2   1  11    1.60    0.48 
   3   1  11   51.93    2.00 
   4   1  11   40.36    1.77 
   5   1  11    9.34    1.01 
   6   1  11    1.99    0.77 
   6  -2 -11   36.56    1.83 
   6  -2 -11   35.00    1.49 
   5  -2 -11   15.73    0.94 
   5  -2 -11   15.74    1.14 
   4  -2 -11    0.18    0.40 
   4  -2 -11    0.71    0.57 
   3  -2 -11   54.17    1.91 
   3  -2 -11   55.75    2.12 
   2  -2 -11   59.51    2.19 
   1  -2 -11   17.77    1.02 
   0  -2 -11   13.09    0.90 
   0   2  11   13.71    0.94 
   1   2  11   79.46    2.60 
   2   2  11   43.04    1.64 
   3   2  11   -0.16    0.37 
   3   2  11   -0.03    0.48 
   4   2  11   37.07    1.64 
   5   2  11   32.75    1.65 
   6   2  11    6.56    0.99 
   6  -3 -11   13.41    1.26 
   6  -3 -11   13.24    0.94 
   5  -3 -11   38.85    1.82 
   5  -3 -11   38.92    1.58 
   4  -3 -11   15.30    0.94 
   4  -3 -11   17.91    1.18 
   3  -3 -11    8.12    0.71 
   3  -3 -11    6.92    0.82 
   2  -3 -11   61.65    2.24 
  -2   3  11   59.62    2.26 
   1  -3 -11  103.78    3.27 
  -1   3  11  101.48    3.29 
   0   3  11    3.34    0.62 
   1   3  11   24.65    1.20 
   2   3  11   80.39    2.61 
   3   3  11   36.41    1.46 
   4   3  11    0.11    0.52 
   5   3  11   14.73    1.16 
   6   3  11   24.08    1.37 
   6  -4 -11    2.21    0.83 
   6  -4 -11    2.03    0.57 
  -6   4  11    2.51    0.71 
   5  -4 -11    9.55    0.83 
   5  -4 -11    9.79    1.09 
  -5   4  11   10.27    1.05 
   4  -4 -11   50.75    1.86 
   4  -4 -11   49.61    2.05 
  -4   4  11   49.29    2.07 
   3  -4 -11   36.46    1.48 
   3  -4 -11   37.38    1.63 
  -3   4  11   34.62    1.62 
   2  -4 -11    0.09    0.37 
  -2   4  11    1.10    0.49 
  -1   4  11   45.19    1.83 
   0   4  11   71.21    2.47 
   1   4  11    6.85    0.72 
   2   4  11   13.32    0.90 
   3   4  11   54.82    1.94 
   4   4  11   27.36    1.23 
   4   4  11   25.85    1.32 
   5   4  11    1.97    0.59 
   6   4  11    1.79    0.62 
   5  -5 -11    2.30    0.56 
  -5   5  11    2.23    0.72 
   4  -5 -11   20.76    1.13 
  -4   5  11   20.93    1.27 
   3  -5 -11   65.84    2.24 
  -3   5  11   64.17    2.45 
   2  -5 -11   29.00    1.29 
  -2   5  11   30.95    1.48 
  -1   5  11    0.46    0.45 
   0   5  11   39.28    1.65 
   1   5  11   56.96    2.07 
   2   5  11   21.97    1.14 
   3   5  11    2.11    0.52 
   4   5  11   35.99    1.48 
   4   5  11   36.73    1.61 
   5   5  11   32.37    1.40 
   5   5  11   32.16    1.56 
   6   5  11    4.97    0.81 
   5  -6 -11   28.64    1.40 
  -5   6  11   26.62    1.53 
   4  -6 -11    2.27    0.56 
  -4   6  11    0.13    0.56 
   3  -6 -11   14.16    0.95 
  -3   6  11   13.94    1.14 
   2  -6 -11   42.10    1.65 
  -2   6  11   42.73    1.83 
  -1   6  11   32.98    1.52 
   0   6  11    1.77    0.55 
   1   6  11   32.47    1.47 
   2   6  11   43.57    1.73 
   3   6  11   15.51    1.00 
   4   6  11    1.07    0.52 
   5   6  11    7.25    0.77 
   5   6  11    5.19    0.77 
   6   6  11   23.00    1.32 
   4  -7 -11   33.18    1.48 
  -4   7  11   30.84    1.62 
   3  -7 -11    6.30    0.70 
  -3   7  11    5.43    0.82 
   2  -7 -11   10.35    0.87 
  -2   7  11    9.11    0.93 
  -1   7  11   38.44    1.65 
   0   7  11   25.94    1.28 
   1   7  11    5.26    0.68 
   2   7  11    6.89    0.77 
   3   7  11   34.12    1.53 
   4   7  11   33.38    1.50 
   5   7  11   -0.08    0.54 
   5   7  11    0.05    0.55 
   6   7  11    7.69    0.95 
   6   7  11    8.37    0.86 
   3  -8 -11   23.72    1.22 
  -3   8  11   22.57    1.35 
   2  -8 -11    3.76    0.62 
  -2   8  11    2.73    0.64 
   1  -8 -11    7.59    0.76 
  -1   8  11    7.05    0.84 
   0   8  11   33.95    1.55 
   1   8  11   23.38    1.22 
   2   8  11    5.15    0.77 
   3   8  11    4.08    0.70 
   4   8  11   21.98    1.28 
   5   8  11   17.25    1.19 
   5   8  11   16.09    1.18 
   2  -9 -11   20.21    1.23 
  -2   9  11   19.83    1.27 
   1  -9 -11   10.99    0.95 
  -1   9  11    8.76    0.93 
   0   9  11    0.05    0.53 
   1   9  11   11.36    0.98 
   2   9  11   30.80    1.48 
   3   9  11   13.48    1.10 
   4   9  11    0.53    0.59 
  -1  10  11   20.33    1.34 
   0  10  11   12.00    1.08 
   1  10  11    0.07    0.54 
   2  10  11    6.90    0.86 
   3  10  11   19.57    1.31 
   3   3 -12    0.37    0.57 
   2   3 -12   23.27    1.29 
   1   3 -12   20.55    1.21 
   0  -3  12    4.55    0.80 
   1  -3  12    9.85    1.04 
   4   2 -12   24.93    1.41 
   3   2 -12   15.72    1.13 
   2   2 -12    0.31    0.48 
   1   2 -12   24.16    1.25 
   0  -2  12   43.56    1.79 
   1  -2  12    6.50    0.85 
   2  -2  12    4.90    0.80 
   3  -2  12   17.88    1.38 
   5   1 -12    1.45    0.80 
   4   1 -12    8.85    0.95 
   3   1 -12   46.14    1.96 
   2   1 -12   21.13    1.18 
   1   1 -12    0.94    0.51 
   0   1 -12   41.47    1.67 
   0  -1  12   42.73    1.69 
   1  -1  12   50.52    1.95 
   1  -1  12   49.96    1.87 
   2  -1  12    7.47    0.79 
   3  -1  12   11.13    0.99 
   4  -1  12   29.45    1.52 
   5   0 -12   27.93    1.57 
   4   0 -12    4.80    0.81 
   3   0 -12    8.40    0.89 
   2   0 -12   53.63    2.08 
   1   0 -12   27.33    1.32 
   0   0 -12    0.68    0.47 
   0   0  12    1.08    0.47 
  -1   0 -12   22.61    1.12 
   1   0  12   23.75    1.19 
   1   0  12   21.67    1.15 
   2   0  12   31.54    1.45 
   3   0  12   10.64    0.98 
   4   0  12    2.10    0.73 
   5  -1 -12   26.39    1.53 
   4  -1 -12   33.52    1.68 
   3  -1 -12    6.81    0.85 
   2  -1 -12   10.27    0.93 
   1  -1 -12   53.70    2.01 
   0  -1 -12   47.18    1.81 
   0   1  12   48.67    1.88 
   1   1  12    0.06    0.45 
   2   1  12   25.37    1.25 
   2   1  12   28.21    1.35 
   3   1  12   49.67    1.99 
   4   1  12   11.50    1.07 
   5   1  12    0.80    0.69 
   5  -2 -12    0.36    0.57 
   5  -2 -12    0.37    0.44 
   4  -2 -12   28.68    1.31 
   4  -2 -12   32.49    1.61 
   3  -2 -12   61.07    2.32 
   2  -2 -12    7.83    0.81 
   1  -2 -12   28.31    1.37 
  -1   2  12   28.98    1.44 
   0   2  12   43.50    1.77 
   1   2  12   27.89    1.31 
   2   2  12    0.31    0.47 
   3   2  12    8.46    0.89 
   4   2  12   30.37    1.57 
   5   2  12   22.03    1.43 
   5  -3 -12   12.15    1.19 
   5  -3 -12   12.79    0.91 
   4  -3 -12    0.46    0.44 
   4  -3 -12    0.14    0.52 
   3  -3 -12   26.86    1.24 
   3  -3 -12   26.39    1.43 
   2  -3 -12   32.96    1.55 
  -2   3  12   32.24    1.59 
  -1   3  12   17.62    1.15 
   0   3  12    4.65    0.70 
   1   3  12   38.04    1.60 
   2   3  12   36.88    1.55 
   3   3  12    6.37    0.68 
   3   3  12    6.14    0.79 
   4   3  12    8.04    0.91 
   5   3  12   21.59    1.40 
   5  -4 -12   40.56    1.68 
   5  -4 -12   41.67    2.01 
  -5   4  12   39.20    1.92 
   4  -4 -12   19.28    1.28 
   4  -4 -12   16.74    1.00 
  -4   4  12   18.67    1.30 
   3  -4 -12    0.30    0.44 
  -3   4  12    1.01    0.59 
  -2   4  12   44.34    1.87 
  -1   4  12   53.42    2.11 
   0   4  12    9.10    0.86 
   1   4  12    4.19    0.68 
   2   4  12   20.74    1.12 
   3   4  12   27.04    1.29 
   4   4  12   10.31    0.97 
   5   4  12   -0.22    0.50 
   5  -5 -12    7.93    0.84 
   4  -5 -12   21.33    1.16 
  -4   5  12   17.92    1.32 
   3  -5 -12   26.36    1.27 
  -3   5  12   24.70    1.43 
  -2   5  12    0.21    0.48 
  -1   5  12   17.72    1.16 
   0   5  12   39.03    1.71 
   1   5  12   15.19    1.04 
   2   5  12    0.38    0.50 
   3   5  12   15.07    0.98 
   4   5  12   29.93    1.52 
   4   5  12   31.73    1.39 
   5   5  12   20.42    1.29 
   4  -6 -12   10.73    0.92 
  -4   6  12   12.02    1.16 
   3  -6 -12   30.08    1.39 
  -3   6  12   31.16    1.62 
   2  -6 -12   20.22    1.10 
  -2   6  12   19.93    1.26 
  -1   6  12    2.79    0.62 
   0   6  12    8.77    0.88 
   1   6  12   30.42    1.47 
   2   6  12   22.33    1.19 
   3   6  12    3.19    0.65 
   4   6  12   11.05    0.94 
   5   6  12   19.75    1.30 
   5   6  12   21.56    1.23 
   3  -7 -12    0.91    0.50 
  -3   7  12    1.12    0.62 
   2  -7 -12   26.19    1.31 
  -2   7  12   24.12    1.41 
  -1   7  12   32.35    1.53 
   0   7  12    4.75    0.72 
   1   7  12    3.37    0.70 
   2   7  12   21.10    1.25 
   3   7  12   28.72    1.44 
   4   7  12    8.28    0.87 
   5   7  12    4.61    0.77 
   5   7  12    3.96    0.82 
   2  -8 -12   -1.20    0.40 
  -2   8  12   -0.41    0.57 
  -1   8  12    9.27    0.93 
   0   8  12   27.37    1.39 
   1   8  12   12.04    1.03 
   2   8  12    0.73    0.64 
   3   8  12   20.20    1.28 
   4   8  12   31.14    1.56 
  -1   9  12    0.70    0.70 
   0   9  12   10.77    1.02 
   1   9  12   22.05    1.31 
   2   9  12   19.62    1.26 
   3   9  12   -0.35    0.64 
   1   2 -13   28.68    1.44 
   3   1 -13   16.22    1.19 
   2   1 -13    0.42    0.55 
   1   1 -13   19.90    1.18 
   0   1 -13   29.26    1.36 
   1  -1  13    5.83    0.82 
   2  -1  13    1.74    0.71 
   3   0 -13   31.52    1.60 
   2   0 -13   29.66    1.49 
   1   0 -13    0.19    0.50 
   0   0 -13   20.97    1.15 
   1   0  13   30.92    1.46 
   2   0  13   12.54    1.03 
   3   0  13    0.49    0.64 
   4  -1 -13    3.21    0.84 
   3  -1 -13    8.68    0.92 
   2  -1 -13   28.86    1.42 
   1  -1 -13   20.13    1.17 
   0  -1 -13    5.11    0.68 
   0   1  13    6.15    0.78 
   1   1  13   14.21    1.00 
   2   1  13   22.15    1.29 
   3   1  13   14.84    1.17 
   4  -2 -13   33.47    1.74 
   3  -2 -13    5.68    0.84 
   2  -2 -13    2.31    0.64 
   1  -2 -13   36.11    1.61 
  -1   2  13   35.96    1.69 
   0   2  13   25.36    1.36 
   1   2  13    4.55    0.70 
   2   2  13    2.41    0.59 
   3   2  13   17.88    1.19 
   4   2  13   17.27    1.24 
   4  -3 -13   23.81    1.46 
   4  -3 -13   23.96    1.19 
   3  -3 -13   40.03    1.78 
  -3   3  13   35.24    1.74 
   2  -3 -13   11.41    0.99 
  -2   3  13   11.33    1.09 
  -1   3  13   -0.10    0.55 
   0   3  13   16.97    1.15 
   1   3  13   36.05    1.60 
   2   3  13   10.14    0.90 
   3   3  13    1.90    0.68 
   4   3  13   15.78    1.26 
   4  -4 -13   -0.24    0.46 
   4  -4 -13    0.40    0.65 
  -4   4  13    0.01    0.64 
  -3   4  13   15.00    1.12 
  -2   4  13   18.53    1.22 
  -1   4  13   15.13    1.10 
   0   4  13    0.71    0.62 
   1   4  13   12.51    1.02 
   2   4  13   31.69    1.47 
   3   4  13   14.60    0.99 
   4   4  13    0.55    0.68 
   3  -5 -13    3.35    0.62 
  -3   5  13    1.99    0.71 
  -2   5  13    3.81    0.73 
  -1   5  13   21.95    1.31 
   0   5  13   22.42    1.29 
   1   5  13    2.72    0.69 
   2   5  13    3.59    0.70 
   3   5  13   27.93    1.38 
   4   5  13   23.07    1.36 
   3  -6 -13   21.29    1.20 
  -3   6  13   18.24    1.40 
  -2   6  13    5.36    0.82 
  -1   6  13    0.35    0.57 
   0   6  13   13.62    1.12 
   1   6  13   35.09    1.61 
   2   6  13    5.65    0.80 
   3   6  13    3.33    0.71 
   4   6  13   32.66    1.55 
  -2   7  13   14.88    1.24 
  -1   7  13    9.16    0.97 
   0   7  13   -0.06    0.55 
   1   7  13   18.49    1.27 
   2   7  13   31.41    1.58 
   3   7  13   12.53    1.09 
  -1   8  13   17.11    1.18 
   0   8  13   15.89    1.16 
   1   8  13   -0.72    0.63 
   2   8  13   17.19    1.25 
   2  -1 -14   22.66    1.33 
   1  -1 -14    2.68    0.63 
  -1   1  14    2.42    0.76 
   0   1  14    0.08    0.62 
   1   1  14   11.69    1.05 
   2  -2 -14   11.97    1.08 
  -2   2  14   13.78    1.23 
  -1   2  14   21.75    1.39 
   0   2  14    9.20    0.98 
   1   2  14   -0.37    0.58 
   2   2  14    8.72    0.95 
  -2   3  14   -0.14    0.71 
  -1   3  14    6.69    0.96 
   0   3  14   12.22    1.10 
   1   3  14   18.26    1.21 
   2   3  14    0.49    0.59 
  -2   4  14   19.03    1.34 
  -1   4  14    3.34    0.81 
   0   4  14    2.30    0.74 
   1   4  14   17.07    1.21 
   2   4  14   18.47    1.21 
  -2   5  14   11.70    1.17 
  -1   5  14   18.64    1.36 
   0   5  14    5.82    0.85 
   1   5  14    3.65    0.78 
   2   5  14   31.28    1.57 
  -1   6  14   11.50    1.12 
   0   6  14   14.63    1.23 
   1   6  14    8.66    1.00 
   2   6  14    0.66    0.68 
   0   0   0    0.00    0.00 
;
_shelx_hkl_checksum              40695
loop_
_space_group_symop_operation_xyz
'x, y, z'
'-x, -y, -z'
loop_
_atom_site_label
_atom_site_type_symbol
_atom_site_fract_x
_atom_site_fract_y
_atom_site_fract_z
_atom_site_U_iso_or_equiv
_atom_site_adp_type
_atom_site_occupancy
_atom_site_site_symmetry_order
_atom_site_calc_flag
_atom_site_refinement_flags_posn
_atom_site_refinement_flags_adp
_atom_site_refinement_flags_occupancy
_atom_site_disorder_assembly
_atom_site_disorder_group
Au1 Au -0.13261(2) 0.15182(2) 0.39635(2) 0.02446(8) Uani 1 1 d . . . . .
Cl1 Cl -0.18817(15) 0.08995(13) 0.22281(10) 0.0327(2) Uani 1 1 d . . . . .
O1 O 0.0957(4) 0.2971(3) 0.6616(3) 0.0252(6) Uani 1 1 d . . . . .
C1 C -0.0841(5) 0.2075(4) 0.5468(4) 0.0226(8) Uani 1 1 d . . . . .
C2 C 0.0592(5) 0.2615(4) 0.5585(4) 0.0232(8) Uani 1 1 d . . . . .
C3 C 0.0011(6) 0.2743(5) 0.7585(4) 0.0264(9) Uani 1 1 d . . . . .
C4 C -0.1521(5) 0.2216(5) 0.7557(4) 0.0254(8) Uani 1 1 d . . . . .
C5 C -0.2657(6) 0.2081(5) 0.8539(4) 0.0345(10) Uani 1 1 d . . . . .
H5 H -0.2353 0.2293 0.9246 0.041 Uiso 1 1 calc R U . . .
C6 C -0.4161(7) 0.1652(6) 0.8458(5) 0.0385(11) Uani 1 1 d . . . . .
H6 H -0.4904 0.1558 0.9109 0.046 Uiso 1 1 calc R U . . .
C7 C -0.4629(6) 0.1340(5) 0.7396(5) 0.0360(11) Uani 1 1 d . . . . .
H7 H -0.5682 0.1039 0.7345 0.043 Uiso 1 1 calc R U . . .
C8 C -0.3556(6) 0.1473(5) 0.6434(5) 0.0294(9) Uani 1 1 d . . . . .
H8 H -0.3897 0.1273 0.5731 0.035 Uiso 1 1 calc R U . . .
C9 C -0.1955(5) 0.1903(4) 0.6481(4) 0.0238(8) Uani 1 1 d . . . . .
C10 C 0.1971(5) 0.2958(4) 0.4730(4) 0.0230(8) Uani 1 1 d . . . . .
C11 C 0.2683(6) 0.4206(5) 0.4612(4) 0.0283(9) Uani 1 1 d . . . . .
H11 H 0.2263 0.4848 0.5062 0.034 Uiso 1 1 calc R U . . .
C12 C 0.4015(6) 0.4511(5) 0.3829(4) 0.0296(9) Uani 1 1 d . . . . .
H12 H 0.4467 0.5371 0.3734 0.036 Uiso 1 1 calc R U . . .
C13 C 0.4666(6) 0.3559(5) 0.3200(4) 0.0312(10) Uani 1 1 d . . . . .
H13 H 0.5570 0.3765 0.2677 0.037 Uiso 1 1 calc R U . . .
C14 C 0.3992(6) 0.2281(5) 0.3332(4) 0.0306(9) Uani 1 1 d . . . . .
H14 H 0.4459 0.1617 0.2914 0.037 Uiso 1 1 calc R U . . .
C15 C 0.2641(6) 0.1998(5) 0.4077(4) 0.0277(9) Uani 1 1 d . . . . .
H15 H 0.2166 0.1153 0.4147 0.033 Uiso 1 1 calc R U . . .
C16 C 0.0757(6) 0.3156(5) 0.8572(4) 0.0296(9) Uani 1 1 d . . . . .
C17 C 0.1334(6) 0.4500(5) 0.8296(4) 0.0339(10) Uani 1 1 d . . . . .
H17 H 0.1213 0.5139 0.7498 0.041 Uiso 1 1 calc R U . . .
C18 C 0.2081(7) 0.4879(6) 0.9207(5) 0.0434(12) Uani 1 1 d . . . . .
H18 H 0.2460 0.5784 0.9027 0.052 Uiso 1 1 calc R U . . .
C19 C 0.2279(7) 0.3940(6) 1.0382(5) 0.0442(13) Uani 1 1 d . . . . .
H19 H 0.2794 0.4203 1.0996 0.053 Uiso 1 1 calc R U . . .
C20 C 0.1712(7) 0.2607(7) 1.0648(5) 0.0459(13) Uani 1 1 d . . . . .
H20 H 0.1869 0.1958 1.1441 0.055 Uiso 1 1 calc R U . . .
C21 C 0.0922(7) 0.2226(6) 0.9762(5) 0.0371(11) Uani 1 1 d . . . . .
H21 H 0.0494 0.1341 0.9958 0.045 Uiso 1 1 calc R U . . .
loop_
_atom_site_aniso_label
_atom_site_aniso_U_11
_atom_site_aniso_U_22
_atom_site_aniso_U_33
_atom_site_aniso_U_23
_atom_site_aniso_U_13
_atom_site_aniso_U_12
Au1 0.02247(11) 0.02654(10) 0.02594(11) -0.00868(7) 0.00145(6) -0.00695(6)
Cl1 0.0335(6) 0.0402(6) 0.0296(5) -0.0151(5) 0.0034(4) -0.0117(5)
O1 0.0219(15) 0.0323(15) 0.0235(15) -0.0095(12) 0.0043(12) -0.0079(12)
C1 0.021(2) 0.0187(17) 0.026(2) -0.0047(15) -0.0013(16) -0.0011(15)
C2 0.024(2) 0.0225(18) 0.023(2) -0.0063(15) 0.0004(16) -0.0026(15)
C3 0.023(2) 0.026(2) 0.029(2) -0.0061(17) 0.0037(17) -0.0026(16)
C4 0.023(2) 0.0262(19) 0.027(2) -0.0077(17) 0.0057(17) -0.0042(16)
C5 0.031(2) 0.044(3) 0.030(2) -0.011(2) 0.0070(19) -0.010(2)
C6 0.034(3) 0.044(3) 0.039(3) -0.013(2) 0.018(2) -0.011(2)
C7 0.025(2) 0.038(2) 0.049(3) -0.015(2) 0.010(2) -0.0101(19)
C8 0.023(2) 0.031(2) 0.037(2) -0.0111(19) 0.0029(18) -0.0076(17)
C9 0.022(2) 0.0191(18) 0.028(2) -0.0051(16) 0.0013(16) -0.0010(15)
C10 0.0177(19) 0.0253(19) 0.024(2) -0.0058(16) -0.0023(15) -0.0005(15)
C11 0.023(2) 0.028(2) 0.034(2) -0.0097(18) 0.0034(18) -0.0061(17)
C12 0.025(2) 0.028(2) 0.035(2) -0.0042(18) 0.0035(18) -0.0118(17)
C13 0.024(2) 0.040(2) 0.026(2) -0.0020(18) 0.0002(17) -0.0079(18)
C14 0.024(2) 0.039(2) 0.032(2) -0.0158(19) 0.0050(18) -0.0038(18)
C15 0.029(2) 0.029(2) 0.030(2) -0.0135(18) 0.0035(18) -0.0077(17)
C16 0.030(2) 0.034(2) 0.027(2) -0.0103(18) 0.0038(18) -0.0089(18)
C17 0.039(3) 0.038(2) 0.029(2) -0.0114(19) 0.008(2) -0.016(2)
C18 0.050(3) 0.050(3) 0.039(3) -0.018(2) 0.012(2) -0.026(3)
C19 0.048(3) 0.061(3) 0.033(3) -0.021(2) 0.002(2) -0.022(3)
C20 0.044(3) 0.059(3) 0.029(3) -0.001(2) -0.004(2) -0.015(3)
C21 0.043(3) 0.038(3) 0.030(2) -0.006(2) 0.000(2) -0.014(2)
loop_
_atom_type_symbol
_atom_type_description
_atom_type_scat_dispersion_real
_atom_type_scat_dispersion_imag
_atom_type_scat_source
C C 0.0033 0.0016 'International Tables Vol C Tables 4.2.6.8 and 6.1.1.4'
H H 0.0000 0.0000 'International Tables Vol C Tables 4.2.6.8 and 6.1.1.4'
O O 0.0106 0.0060 'International Tables Vol C Tables 4.2.6.8 and 6.1.1.4'
Cl Cl 0.1484 0.1585 'International Tables Vol C Tables 4.2.6.8 and 6.1.1.4'
Au Au -2.0133 8.8022 'International Tables Vol C Tables 4.2.6.8 and 6.1.1.4'
loop_
_geom_angle_atom_site_label_1
_geom_angle_atom_site_label_2
_geom_angle_atom_site_label_3
_geom_angle
_geom_angle_site_symmetry_1
_geom_angle_site_symmetry_3
_geom_angle_publ_flag
C1 Au1 Cl1 179.52(11) . . ?
C3 O1 C2 123.4(4) . . ?
C2 C1 C9 116.0(4) . . ?
C2 C1 Au1 121.1(3) . . ?
C9 C1 Au1 122.9(3) . . ?
C1 C2 O1 121.7(4) . . ?
C1 C2 C10 130.4(4) . . ?
O1 C2 C10 107.8(3) . . ?
O1 C3 C4 119.7(4) . . ?
O1 C3 C16 111.6(4) . . ?
C4 C3 C16 128.7(4) . . ?
C3 C4 C9 117.5(4) . . ?
C3 C4 C5 121.5(4) . . ?
C9 C4 C5 120.8(4) . . ?
C6 C5 C4 120.2(5) . . ?
C5 C6 C7 120.2(5) . . ?
C8 C7 C6 120.6(5) . . ?
C7 C8 C9 121.4(5) . . ?
C4 C9 C8 116.8(4) . . ?
C4 C9 C1 121.4(4) . . ?
C8 C9 C1 121.7(4) . . ?
C15 C10 C11 119.0(4) . . ?
C15 C10 C2 120.6(4) . . ?
C11 C10 C2 120.3(4) . . ?
C12 C11 C10 120.3(4) . . ?
C13 C12 C11 120.1(4) . . ?
C12 C13 C14 120.3(4) . . ?
C15 C14 C13 119.8(4) . . ?
C14 C15 C10 120.4(4) . . ?
C21 C16 C17 119.8(4) . . ?
C21 C16 C3 121.3(4) . . ?
C17 C16 C3 118.9(4) . . ?
C18 C17 C16 119.3(5) . . ?
C17 C18 C19 120.7(5) . . ?
C18 C19 C20 119.6(5) . . ?
C21 C20 C19 120.6(5) . . ?
C20 C21 C16 119.8(5) . . ?
loop_
_geom_bond_atom_site_label_1
_geom_bond_atom_site_label_2
_geom_bond_distance
_geom_bond_site_symmetry_2
_geom_bond_publ_flag
Au1 C1 2.021(4) . ?
Au1 Cl1 2.3175(11) . ?
O1 C3 1.321(5) . ?
O1 C2 1.377(5) . ?
C1 C2 1.355(6) . ?
C1 C9 1.441(6) . ?
C2 C10 1.476(6) . ?
C3 C4 1.401(6) . ?
C3 C16 1.474(7) . ?
C4 C9 1.420(6) . ?
C4 C5 1.426(6) . ?
C5 C6 1.345(7) . ?
C6 C7 1.412(8) . ?
C7 C8 1.376(7) . ?
C8 C9 1.412(6) . ?
C10 C15 1.399(6) . ?
C10 C11 1.391(6) . ?
C11 C12 1.393(6) . ?
C12 C13 1.368(7) . ?
C13 C14 1.399(7) . ?
C14 C15 1.377(6) . ?
C16 C21 1.395(7) . ?
C16 C17 1.401(6) . ?
C17 C18 1.381(7) . ?
C18 C19 1.385(8) . ?
C19 C20 1.388(8) . ?
C20 C21 1.375(8) . ?
loop_
_geom_torsion_atom_site_label_1
_geom_torsion_atom_site_label_2
_geom_torsion_atom_site_label_3
_geom_torsion_atom_site_label_4
_geom_torsion
_geom_torsion_site_symmetry_1
_geom_torsion_site_symmetry_2
_geom_torsion_site_symmetry_3
_geom_torsion_site_symmetry_4
_geom_torsion_publ_flag
C9 C1 C2 O1 0.2(6) . . . . ?
Au1 C1 C2 O1 -178.6(3) . . . . ?
C9 C1 C2 C10 -178.4(4) . . . . ?
Au1 C1 C2 C10 2.7(6) . . . . ?
C3 O1 C2 C1 3.9(6) . . . . ?
C3 O1 C2 C10 -177.2(4) . . . . ?
C2 O1 C3 C4 -5.1(6) . . . . ?
C2 O1 C3 C16 176.9(4) . . . . ?
O1 C3 C4 C9 2.1(6) . . . . ?
C16 C3 C4 C9 179.7(4) . . . . ?
O1 C3 C4 C5 -174.2(4) . . . . ?
C16 C3 C4 C5 3.4(7) . . . . ?
C3 C4 C5 C6 176.2(5) . . . . ?
C9 C4 C5 C6 0.1(7) . . . . ?
C4 C5 C6 C7 -0.4(8) . . . . ?
C5 C6 C7 C8 -0.1(8) . . . . ?
C6 C7 C8 C9 0.8(7) . . . . ?
C3 C4 C9 C8 -175.7(4) . . . . ?
C5 C4 C9 C8 0.7(6) . . . . ?
C3 C4 C9 C1 1.9(6) . . . . ?
C5 C4 C9 C1 178.2(4) . . . . ?
C7 C8 C9 C4 -1.1(6) . . . . ?
C7 C8 C9 C1 -178.6(4) . . . . ?
C2 C1 C9 C4 -3.0(6) . . . . ?
Au1 C1 C9 C4 175.9(3) . . . . ?
C2 C1 C9 C8 174.4(4) . . . . ?
Au1 C1 C9 C8 -6.7(5) . . . . ?
C1 C2 C10 C15 -43.4(7) . . . . ?
O1 C2 C10 C15 137.8(4) . . . . ?
C1 C2 C10 C11 140.0(5) . . . . ?
O1 C2 C10 C11 -38.8(5) . . . . ?
C15 C10 C11 C12 1.6(7) . . . . ?
C2 C10 C11 C12 178.3(4) . . . . ?
C10 C11 C12 C13 -2.0(7) . . . . ?
C11 C12 C13 C14 0.4(7) . . . . ?
C12 C13 C14 C15 1.5(7) . . . . ?
C13 C14 C15 C10 -1.9(7) . . . . ?
C11 C10 C15 C14 0.3(7) . . . . ?
C2 C10 C15 C14 -176.3(4) . . . . ?
O1 C3 C16 C21 -132.3(5) . . . . ?
C4 C3 C16 C21 49.9(7) . . . . ?
O1 C3 C16 C17 46.6(6) . . . . ?
C4 C3 C16 C17 -131.2(5) . . . . ?
C21 C16 C17 C18 0.8(7) . . . . ?
C3 C16 C17 C18 -178.1(5) . . . . ?
C16 C17 C18 C19 0.6(8) . . . . ?
C17 C18 C19 C20 -0.3(9) . . . . ?
C18 C19 C20 C21 -1.5(9) . . . . ?
C19 C20 C21 C16 2.9(9) . . . . ?
C17 C16 C21 C20 -2.6(8) . . . . ?
C3 C16 C21 C20 176.3(5) . . . . ?
