#------------------------------------------------------------------------------
#$Date: 2020-05-04 05:25:00 +0300 (Mon, 04 May 2020) $
#$Revision: 251429 $
#$URL: file:///home/coder/svn-repositories/cod/cif/4/51/75/4517561.cif $
#------------------------------------------------------------------------------
#
# This file is available in the Crystallography Open Database (COD),
# http://www.crystallography.net/
#
# All data on this site have been placed in the public domain by the
# contributors.
#
data_4517561
loop_
_publ_author_name
'Spektor, Kristina'
'Crichton, Wilson A.'
'Filippov, Stanislav'
'Klarbring, Johan'
'Simak, Sergei I.'
'Fischer, Andreas'
'H\"aussermann, Ulrich'
_publ_section_title
;
 Na-Ni-H Phase Formation at High Pressures and High Temperatures: Hydrido
 Complexes [NiH<sub>5</sub>]<sup>3-</sup><i>Versus</i> the Perovskite
 NaNiH<sub>3</sub>.
;
_journal_issue                   15
_journal_name_full               'ACS omega'
_journal_page_first              8730
_journal_page_last               8743
_journal_paper_doi               10.1021/acsomega.0c00239
_journal_volume                  5
_journal_year                    2020
_chemical_formula_sum            'H3 Na Ni'
_chemical_formula_weight         84.7
_space_group_IT_number           221
_space_group_name_Hall           '-P 4 2 3'
_space_group_name_H-M_alt        'P m -3 m'
_symmetry_cell_setting           cubic
_symmetry_Int_Tables_number      221
_symmetry_space_group_name_Hall  '-P 4 2 3'
_symmetry_space_group_name_H-M   'P m -3 m'
_cell_angle_alpha                90
_cell_angle_beta                 90
_cell_angle_gamma                90
_cell_formula_units_Z            1
_cell_length_a                   3.43235(3)
_cell_length_b                   3.43235(3)
_cell_length_c                   3.43235(3)
_cell_measurement_temperature    293
_cell_volume                     40.4366(6)
_diffrn_ambient_temperature      293
_diffrn_measurement_device_type
'high resolution PXRD diffractomerer at ID22, ESRF'
_diffrn_radiation_probe          x-ray
_diffrn_radiation_type           synchrotron
_diffrn_radiation_wavelength     0.3544
_exptl_absorpt_coefficient_mu    1.635
_exptl_crystal_density_diffrn    3.4784
_exptl_crystal_F_000             42
_pd_instr_location               ' ?'
_pd_meas_2theta_range_inc        0.004
_pd_meas_2theta_range_max        32.928
_pd_meas_2theta_range_min        0.504
_pd_meas_number_of_points        8107
_pd_proc_2theta_range_inc        0.004
_pd_proc_2theta_range_max        32.928
_pd_proc_2theta_range_min        0.504
_pd_proc_ls_background_function
'Manual background combined with 8 Chebyshev polynoms'
_pd_proc_ls_pref_orient_corr     none
_pd_proc_ls_profile_function     Lorentzian
_pd_proc_ls_prof_R_factor        0.0743
_pd_proc_ls_prof_wR_expected     0.0821
_pd_proc_ls_prof_wR_factor       0.1050
_refine_diff_density_max         1.11
_refine_diff_density_min         -1.45
_refine_ls_goodness_of_fit_all   1.28
_refine_ls_hydrogen_treatment    constr
_refine_ls_number_constraints    0
_refine_ls_number_parameters     15
_refine_ls_number_restraints     0
_refine_ls_R_factor_all          0.0239
_refine_ls_R_factor_gt           0.0239
_refine_ls_shift/su_max          0.0403
_refine_ls_shift/su_mean         0.0101
_refine_ls_weighting_scheme      sigma
_refine_ls_wR_factor_all         0.0351
_refine_ls_wR_factor_gt          0.0351
_cod_data_source_file            ao0c00239_si_006.cif
_cod_data_source_block           I
_cod_depositor_comments
;
The following automatic conversions were performed:

data item '_diffrn_radiation_probe' value 'X-ray' was changed to
'x-ray' in accordance with the
/home/data/users/saulius/crontab/automatic-downloads/rss-feeds/ACS/lib/dictionaries/cif_core.dic
dictionary named 'cif_core.dic' version 2.4.2 last updated on
2011-04-26.

Automatic conversion script
Id: cif_fix_values 7556 2019-12-06 15:28:31Z antanas 

 Adding full bibliography for 4517557--4517561.cif.
;
_cod_original_cell_volume        40.4365(6)
_cod_original_formula_sum        'H3 Na1 Ni1'
_cod_database_code               4517561
loop_
_space_group_symop_id
_space_group_symop_operation_xyz
1 x,y,z
2 -x,-y,z
3 -x,y,-z
4 x,-y,-z
5 z,x,y
6 z,-x,-y
7 -z,-x,y
8 -z,x,-y
9 y,z,x
10 -y,z,-x
11 y,-z,-x
12 -y,-z,x
13 y,x,-z
14 -y,-x,-z
15 y,-x,z
16 -y,x,z
17 x,z,-y
18 -x,z,y
19 -x,-z,-y
20 x,-z,y
21 z,y,-x
22 z,-y,x
23 -z,y,x
24 -z,-y,-x
25 -x,-y,-z
26 x,y,-z
27 x,-y,z
28 -x,y,z
29 -z,-x,-y
30 -z,x,y
31 z,x,-y
32 z,-x,y
33 -y,-z,-x
34 y,-z,x
35 -y,z,x
36 y,z,-x
37 -y,-x,z
38 y,x,z
39 -y,x,-z
40 y,-x,-z
41 -x,-z,y
42 x,-z,-y
43 x,z,y
44 -x,z,-y
45 -z,-y,x
46 -z,y,-x
47 z,-y,-x
48 z,y,x
loop_
_atom_site_label
_atom_site_type_symbol
_atom_site_fract_x
_atom_site_fract_y
_atom_site_fract_z
_atom_site_adp_type
_atom_site_U_iso_or_equiv
_atom_site_site_symmetry_multiplicity
_atom_site_occupancy
_atom_site_calc_flag
_atom_site_refinement_flags
_atom_site_disorder_assembly
_atom_site_disorder_group
Ni1 Ni 0 0 0 Uiso 0.00451(11) 1 1 d . . .
Na1 Na 0.5 0.5 0.5 Uiso 0.0103(3) 1 1 d . . .
H1 H 0.5 0 0 Uiso 0.038 3 1 d . . .
loop_
_atom_type_symbol
_atom_type_scat_dispersion_real
_atom_type_scat_dispersion_imag
_atom_type_scat_source
H 0.0000 0.0000 'International Tables Vol C tables 4.2.6.8 and 6.1.1.1'
Na 0.0055 0.0057 'International Tables Vol C tables 4.2.6.8 and 6.1.1.1'
Ni 0.1849 0.3077 'International Tables Vol C tables 4.2.6.8 and 6.1.1.1'
loop_
_exptl_crystal_face_index_h
_exptl_crystal_face_index_k
_exptl_crystal_face_index_l
_exptl_crystal_face_perp_dist
? ? ? ?
loop_
_geom_angle_atom_site_label_1
_geom_angle_atom_site_label_2
_geom_angle_atom_site_label_3
_geom_angle_site_symmetry_1
_geom_angle_site_symmetry_2
_geom_angle_site_symmetry_3
_geom_angle
_geom_angle_publ_flag
Na1 Ni1 Na1 1_444 . 1_445 70.5288(5) ?
Na1 Ni1 Na1 1_444 . 1_454 70.5288(5) ?
Na1 Ni1 Na1 1_444 . 1_455 109.4712(5) ?
Na1 Ni1 Na1 1_444 . 1_544 70.5288(5) ?
Na1 Ni1 Na1 1_444 . 1_545 109.4712(5) ?
Na1 Ni1 Na1 1_444 . 1_554 109.4712(5) ?
Na1 Ni1 Na1 1_444 . . 180.0(5) ?
Na1 Ni1 H1 1_444 . 1_455 54.7356 ?
Na1 Ni1 H1 1_444 . . 125.2644 ?
Na1 Ni1 H1 1_444 . 5_545 54.7356 ?
Na1 Ni1 H1 1_444 . 5_555 125.2644 ?
Na1 Ni1 H1 1_444 . 9_554 54.7356 ?
Na1 Ni1 H1 1_444 . 9_555 125.2644 ?
Na1 Ni1 Na1 1_445 . 1_454 109.4712(5) ?
Na1 Ni1 Na1 1_445 . 1_455 70.5288(5) ?
Na1 Ni1 Na1 1_445 . 1_544 109.4712(5) ?
Na1 Ni1 Na1 1_445 . 1_545 70.5288(5) ?
Na1 Ni1 Na1 1_445 . 1_554 180.0(5) ?
Na1 Ni1 Na1 1_445 . . 109.4712(5) ?
Na1 Ni1 H1 1_445 . 1_455 54.7356 ?
Na1 Ni1 H1 1_445 . . 125.2644 ?
Na1 Ni1 H1 1_445 . 5_545 54.7356 ?
Na1 Ni1 H1 1_445 . 5_555 125.2644 ?
Na1 Ni1 H1 1_445 . 9_554 125.2644 ?
Na1 Ni1 H1 1_445 . 9_555 54.7356 ?
Na1 Ni1 Na1 1_454 . 1_455 70.5288(5) ?
Na1 Ni1 Na1 1_454 . 1_544 109.4712(5) ?
Na1 Ni1 Na1 1_454 . 1_545 180.0(5) ?
Na1 Ni1 Na1 1_454 . 1_554 70.5288(5) ?
Na1 Ni1 Na1 1_454 . . 109.4712(5) ?
Na1 Ni1 H1 1_454 . 1_455 54.7356 ?
Na1 Ni1 H1 1_454 . . 125.2644 ?
Na1 Ni1 H1 1_454 . 5_545 125.2644 ?
Na1 Ni1 H1 1_454 . 5_555 54.7356 ?
Na1 Ni1 H1 1_454 . 9_554 54.7356 ?
Na1 Ni1 H1 1_454 . 9_555 125.2644 ?
Na1 Ni1 Na1 1_455 . 1_544 180.0(5) ?
Na1 Ni1 Na1 1_455 . 1_545 109.4712(5) ?
Na1 Ni1 Na1 1_455 . 1_554 109.4712(5) ?
Na1 Ni1 Na1 1_455 . . 70.5288(5) ?
Na1 Ni1 H1 1_455 . 1_455 54.7356 ?
Na1 Ni1 H1 1_455 . . 125.2644 ?
Na1 Ni1 H1 1_455 . 5_545 125.2644 ?
Na1 Ni1 H1 1_455 . 5_555 54.7356 ?
Na1 Ni1 H1 1_455 . 9_554 125.2644 ?
Na1 Ni1 H1 1_455 . 9_555 54.7356 ?
Na1 Ni1 Na1 1_544 . 1_545 70.5288(5) ?
Na1 Ni1 Na1 1_544 . 1_554 70.5288(5) ?
Na1 Ni1 Na1 1_544 . . 109.4712(5) ?
Na1 Ni1 H1 1_544 . 1_455 125.2644 ?
Na1 Ni1 H1 1_544 . . 54.7356 ?
Na1 Ni1 H1 1_544 . 5_545 54.7356 ?
Na1 Ni1 H1 1_544 . 5_555 125.2644 ?
Na1 Ni1 H1 1_544 . 9_554 54.7356 ?
Na1 Ni1 H1 1_544 . 9_555 125.2644 ?
Na1 Ni1 Na1 1_545 . 1_554 109.4712(5) ?
Na1 Ni1 Na1 1_545 . . 70.5288(5) ?
Na1 Ni1 H1 1_545 . 1_455 125.2644 ?
Na1 Ni1 H1 1_545 . . 54.7356 ?
Na1 Ni1 H1 1_545 . 5_545 54.7356 ?
Na1 Ni1 H1 1_545 . 5_555 125.2644 ?
Na1 Ni1 H1 1_545 . 9_554 125.2644 ?
Na1 Ni1 H1 1_545 . 9_555 54.7356 ?
Na1 Ni1 Na1 1_554 . . 70.5288(5) ?
Na1 Ni1 H1 1_554 . 1_455 125.2644 ?
Na1 Ni1 H1 1_554 . . 54.7356 ?
Na1 Ni1 H1 1_554 . 5_545 125.2644 ?
Na1 Ni1 H1 1_554 . 5_555 54.7356 ?
Na1 Ni1 H1 1_554 . 9_554 54.7356 ?
Na1 Ni1 H1 1_554 . 9_555 125.2644 ?
Na1 Ni1 H1 . . 1_455 125.2644 ?
Na1 Ni1 H1 . . . 54.7356 ?
Na1 Ni1 H1 . . 5_545 125.2644 ?
Na1 Ni1 H1 . . 5_555 54.7356 ?
Na1 Ni1 H1 . . 9_554 125.2644 ?
Na1 Ni1 H1 . . 9_555 54.7356 ?
H1 Ni1 H1 1_455 . . 180.0 ?
H1 Ni1 H1 1_455 . 5_545 90 ?
H1 Ni1 H1 1_455 . 5_555 90 ?
H1 Ni1 H1 1_455 . 9_554 90 ?
H1 Ni1 H1 1_455 . 9_555 90 ?
H1 Ni1 H1 . . 5_545 90 ?
H1 Ni1 H1 . . 5_555 90 ?
H1 Ni1 H1 . . 9_554 90 ?
H1 Ni1 H1 . . 9_555 90 ?
H1 Ni1 H1 5_545 . 5_555 180.0 ?
H1 Ni1 H1 5_545 . 9_554 90 ?
H1 Ni1 H1 5_545 . 9_555 90 ?
H1 Ni1 H1 5_555 . 9_554 90 ?
H1 Ni1 H1 5_555 . 9_555 90 ?
H1 Ni1 H1 9_554 . 9_555 180.0 ?
Ni1 Na1 Ni1 . . 1_556 70.5288(5) ?
Ni1 Na1 Ni1 . . 1_565 70.5288(5) ?
Ni1 Na1 Ni1 . . 1_566 109.4712(5) ?
Ni1 Na1 Ni1 . . 1_655 70.5288(5) ?
Ni1 Na1 Ni1 . . 1_656 109.4712(5) ?
Ni1 Na1 Ni1 . . 1_665 109.4712(5) ?
Ni1 Na1 Ni1 . . 1_666 180.0(5) ?
Ni1 Na1 Na1 . . 1_455 54.7356(3) ?
Ni1 Na1 Na1 . . 1_545 54.7356(3) ?
Ni1 Na1 Na1 . . 1_554 54.7356(3) ?
Ni1 Na1 Na1 . . 1_556 125.2644(3) ?
Ni1 Na1 Na1 . . 1_565 125.2644(3) ?
Ni1 Na1 Na1 . . 1_655 125.2644(3) ?
Ni1 Na1 H1 . . . 35.2644 ?
Ni1 Na1 H1 . . 1_556 90.0000 ?
Ni1 Na1 H1 . . 1_565 90.0000 ?
Ni1 Na1 H1 . . 1_566 144.7356 ?
Ni1 Na1 H1 . . 5_555 35.2644 ?
Ni1 Na1 H1 . . 5_556 90.0000 ?
Ni1 Na1 H1 . . 5_655 90.0000 ?
Ni1 Na1 H1 . . 5_656 144.7356 ?
Ni1 Na1 H1 . . 9_555 35.2644 ?
Ni1 Na1 H1 . . 9_565 90.0000 ?
Ni1 Na1 H1 . . 9_655 90.0000 ?
Ni1 Na1 H1 . . 9_665 144.7356 ?
Ni1 Na1 Ni1 1_556 . 1_565 109.4712(5) ?
Ni1 Na1 Ni1 1_556 . 1_566 70.5288(5) ?
Ni1 Na1 Ni1 1_556 . 1_655 109.4712(5) ?
Ni1 Na1 Ni1 1_556 . 1_656 70.5288(5) ?
Ni1 Na1 Ni1 1_556 . 1_665 180.0(5) ?
Ni1 Na1 Ni1 1_556 . 1_666 109.4712(5) ?
Ni1 Na1 Na1 1_556 . 1_455 54.7356(3) ?
Ni1 Na1 Na1 1_556 . 1_545 54.7356(3) ?
Ni1 Na1 Na1 1_556 . 1_554 125.2644(3) ?
Ni1 Na1 Na1 1_556 . 1_556 54.7356(3) ?
Ni1 Na1 Na1 1_556 . 1_565 125.2644(3) ?
Ni1 Na1 Na1 1_556 . 1_655 125.2644(3) ?
Ni1 Na1 H1 1_556 . . 90.0000 ?
Ni1 Na1 H1 1_556 . 1_556 35.2644 ?
Ni1 Na1 H1 1_556 . 1_565 144.7356 ?
Ni1 Na1 H1 1_556 . 1_566 90.0000 ?
Ni1 Na1 H1 1_556 . 5_555 90.0000 ?
Ni1 Na1 H1 1_556 . 5_556 35.2644 ?
Ni1 Na1 H1 1_556 . 5_655 144.7356 ?
Ni1 Na1 H1 1_556 . 5_656 90.0000 ?
Ni1 Na1 H1 1_556 . 9_555 35.2644 ?
Ni1 Na1 H1 1_556 . 9_565 90.0000 ?
Ni1 Na1 H1 1_556 . 9_655 90.0000 ?
Ni1 Na1 H1 1_556 . 9_665 144.7356 ?
Ni1 Na1 Ni1 1_565 . 1_566 70.5288(5) ?
Ni1 Na1 Ni1 1_565 . 1_655 109.4712(5) ?
Ni1 Na1 Ni1 1_565 . 1_656 180.0(5) ?
Ni1 Na1 Ni1 1_565 . 1_665 70.5288(5) ?
Ni1 Na1 Ni1 1_565 . 1_666 109.4712(5) ?
Ni1 Na1 Na1 1_565 . 1_455 54.7356(3) ?
Ni1 Na1 Na1 1_565 . 1_545 125.2644(3) ?
Ni1 Na1 Na1 1_565 . 1_554 54.7356(3) ?
Ni1 Na1 Na1 1_565 . 1_556 125.2644(3) ?
Ni1 Na1 Na1 1_565 . 1_565 54.7356(3) ?
Ni1 Na1 Na1 1_565 . 1_655 125.2644(3) ?
Ni1 Na1 H1 1_565 . . 90.0000 ?
Ni1 Na1 H1 1_565 . 1_556 144.7356 ?
Ni1 Na1 H1 1_565 . 1_565 35.2644 ?
Ni1 Na1 H1 1_565 . 1_566 90.0000 ?
Ni1 Na1 H1 1_565 . 5_555 35.2644 ?
Ni1 Na1 H1 1_565 . 5_556 90.0000 ?
Ni1 Na1 H1 1_565 . 5_655 90.0000 ?
Ni1 Na1 H1 1_565 . 5_656 144.7356 ?
Ni1 Na1 H1 1_565 . 9_555 90.0000 ?
Ni1 Na1 H1 1_565 . 9_565 35.2644 ?
Ni1 Na1 H1 1_565 . 9_655 144.7356 ?
Ni1 Na1 H1 1_565 . 9_665 90.0000 ?
Ni1 Na1 Ni1 1_566 . 1_655 180.0(5) ?
Ni1 Na1 Ni1 1_566 . 1_656 109.4712(5) ?
Ni1 Na1 Ni1 1_566 . 1_665 109.4712(5) ?
Ni1 Na1 Ni1 1_566 . 1_666 70.5288(5) ?
Ni1 Na1 Na1 1_566 . 1_455 54.7356(3) ?
Ni1 Na1 Na1 1_566 . 1_545 125.2644(3) ?
Ni1 Na1 Na1 1_566 . 1_554 125.2644(3) ?
Ni1 Na1 Na1 1_566 . 1_556 54.7356(3) ?
Ni1 Na1 Na1 1_566 . 1_565 54.7356(3) ?
Ni1 Na1 Na1 1_566 . 1_655 125.2644(3) ?
Ni1 Na1 H1 1_566 . . 144.7356 ?
Ni1 Na1 H1 1_566 . 1_556 90.0000 ?
Ni1 Na1 H1 1_566 . 1_565 90.0000 ?
Ni1 Na1 H1 1_566 . 1_566 35.2644 ?
Ni1 Na1 H1 1_566 . 5_555 90.0000 ?
Ni1 Na1 H1 1_566 . 5_556 35.2644 ?
Ni1 Na1 H1 1_566 . 5_655 144.7356 ?
Ni1 Na1 H1 1_566 . 5_656 90.0000 ?
Ni1 Na1 H1 1_566 . 9_555 90.0000 ?
Ni1 Na1 H1 1_566 . 9_565 35.2644 ?
Ni1 Na1 H1 1_566 . 9_655 144.7356 ?
Ni1 Na1 H1 1_566 . 9_665 90.0000 ?
Ni1 Na1 Ni1 1_655 . 1_656 70.5288(5) ?
Ni1 Na1 Ni1 1_655 . 1_665 70.5288(5) ?
Ni1 Na1 Ni1 1_655 . 1_666 109.4712(5) ?
Ni1 Na1 Na1 1_655 . 1_455 125.2644(3) ?
Ni1 Na1 Na1 1_655 . 1_545 54.7356(3) ?
Ni1 Na1 Na1 1_655 . 1_554 54.7356(3) ?
Ni1 Na1 Na1 1_655 . 1_556 125.2644(3) ?
Ni1 Na1 Na1 1_655 . 1_565 125.2644(3) ?
Ni1 Na1 Na1 1_655 . 1_655 54.7356(3) ?
Ni1 Na1 H1 1_655 . . 35.2644 ?
Ni1 Na1 H1 1_655 . 1_556 90.0000 ?
Ni1 Na1 H1 1_655 . 1_565 90.0000 ?
Ni1 Na1 H1 1_655 . 1_566 144.7356 ?
Ni1 Na1 H1 1_655 . 5_555 90.0000 ?
Ni1 Na1 H1 1_655 . 5_556 144.7356 ?
Ni1 Na1 H1 1_655 . 5_655 35.2644 ?
Ni1 Na1 H1 1_655 . 5_656 90.0000 ?
Ni1 Na1 H1 1_655 . 9_555 90.0000 ?
Ni1 Na1 H1 1_655 . 9_565 144.7356 ?
Ni1 Na1 H1 1_655 . 9_655 35.2644 ?
Ni1 Na1 H1 1_655 . 9_665 90.0000 ?
Ni1 Na1 Ni1 1_656 . 1_665 109.4712(5) ?
Ni1 Na1 Ni1 1_656 . 1_666 70.5288(5) ?
Ni1 Na1 Na1 1_656 . 1_455 125.2644(3) ?
Ni1 Na1 Na1 1_656 . 1_545 54.7356(3) ?
Ni1 Na1 Na1 1_656 . 1_554 125.2644(3) ?
Ni1 Na1 Na1 1_656 . 1_556 54.7356(3) ?
Ni1 Na1 Na1 1_656 . 1_565 125.2644(3) ?
Ni1 Na1 Na1 1_656 . 1_655 54.7356(3) ?
Ni1 Na1 H1 1_656 . . 90.0000 ?
Ni1 Na1 H1 1_656 . 1_556 35.2644 ?
Ni1 Na1 H1 1_656 . 1_565 144.7356 ?
Ni1 Na1 H1 1_656 . 1_566 90.0000 ?
Ni1 Na1 H1 1_656 . 5_555 144.7356 ?
Ni1 Na1 H1 1_656 . 5_556 90.0000 ?
Ni1 Na1 H1 1_656 . 5_655 90.0000 ?
Ni1 Na1 H1 1_656 . 5_656 35.2644 ?
Ni1 Na1 H1 1_656 . 9_555 90.0000 ?
Ni1 Na1 H1 1_656 . 9_565 144.7356 ?
Ni1 Na1 H1 1_656 . 9_655 35.2644 ?
Ni1 Na1 H1 1_656 . 9_665 90.0000 ?
Ni1 Na1 Ni1 1_665 . 1_666 70.5288(5) ?
Ni1 Na1 Na1 1_665 . 1_455 125.2644(3) ?
Ni1 Na1 Na1 1_665 . 1_545 125.2644(3) ?
Ni1 Na1 Na1 1_665 . 1_554 54.7356(3) ?
Ni1 Na1 Na1 1_665 . 1_556 125.2644(3) ?
Ni1 Na1 Na1 1_665 . 1_565 54.7356(3) ?
Ni1 Na1 Na1 1_665 . 1_655 54.7356(3) ?
Ni1 Na1 H1 1_665 . . 90.0000 ?
Ni1 Na1 H1 1_665 . 1_556 144.7356 ?
Ni1 Na1 H1 1_665 . 1_565 35.2644 ?
Ni1 Na1 H1 1_665 . 1_566 90.0000 ?
Ni1 Na1 H1 1_665 . 5_555 90.0000 ?
Ni1 Na1 H1 1_665 . 5_556 144.7356 ?
Ni1 Na1 H1 1_665 . 5_655 35.2644 ?
Ni1 Na1 H1 1_665 . 5_656 90.0000 ?
Ni1 Na1 H1 1_665 . 9_555 144.7356 ?
Ni1 Na1 H1 1_665 . 9_565 90.0000 ?
Ni1 Na1 H1 1_665 . 9_655 90.0000 ?
Ni1 Na1 H1 1_665 . 9_665 35.2644 ?
Ni1 Na1 Na1 1_666 . 1_455 125.2644(3) ?
Ni1 Na1 Na1 1_666 . 1_545 125.2644(3) ?
Ni1 Na1 Na1 1_666 . 1_554 125.2644(3) ?
Ni1 Na1 Na1 1_666 . 1_556 54.7356(3) ?
Ni1 Na1 Na1 1_666 . 1_565 54.7356(3) ?
Ni1 Na1 Na1 1_666 . 1_655 54.7356(3) ?
Ni1 Na1 H1 1_666 . . 144.7356 ?
Ni1 Na1 H1 1_666 . 1_556 90.0000 ?
Ni1 Na1 H1 1_666 . 1_565 90.0000 ?
Ni1 Na1 H1 1_666 . 1_566 35.2644 ?
Ni1 Na1 H1 1_666 . 5_555 144.7356 ?
Ni1 Na1 H1 1_666 . 5_556 90.0000 ?
Ni1 Na1 H1 1_666 . 5_655 90.0000 ?
Ni1 Na1 H1 1_666 . 5_656 35.2644 ?
Ni1 Na1 H1 1_666 . 9_555 144.7356 ?
Ni1 Na1 H1 1_666 . 9_565 90.0000 ?
Ni1 Na1 H1 1_666 . 9_655 90.0000 ?
Ni1 Na1 H1 1_666 . 9_665 35.2644 ?
Na1 Na1 Na1 1_455 . 1_545 90 ?
Na1 Na1 Na1 1_455 . 1_554 90 ?
Na1 Na1 Na1 1_455 . 1_556 90 ?
Na1 Na1 Na1 1_455 . 1_565 90 ?
Na1 Na1 Na1 1_455 . 1_655 180.0(5) ?
Na1 Na1 H1 1_455 . . 90 ?
Na1 Na1 H1 1_455 . 1_556 90 ?
Na1 Na1 H1 1_455 . 1_565 90 ?
Na1 Na1 H1 1_455 . 1_566 90 ?
Na1 Na1 H1 1_455 . 5_555 45.0000 ?
Na1 Na1 H1 1_455 . 5_556 45.0000 ?
Na1 Na1 H1 1_455 . 5_655 135.0000 ?
Na1 Na1 H1 1_455 . 5_656 135.0000 ?
Na1 Na1 H1 1_455 . 9_555 45.0000 ?
Na1 Na1 H1 1_455 . 9_565 45.0000 ?
Na1 Na1 H1 1_455 . 9_655 135.0000 ?
Na1 Na1 H1 1_455 . 9_665 135.0000 ?
Na1 Na1 Na1 1_545 . 1_554 90 ?
Na1 Na1 Na1 1_545 . 1_556 90 ?
Na1 Na1 Na1 1_545 . 1_565 180.0(5) ?
Na1 Na1 Na1 1_545 . 1_655 90 ?
Na1 Na1 H1 1_545 . . 45.0000 ?
Na1 Na1 H1 1_545 . 1_556 45.0000 ?
Na1 Na1 H1 1_545 . 1_565 135.0000 ?
Na1 Na1 H1 1_545 . 1_566 135.0000 ?
Na1 Na1 H1 1_545 . 5_555 90 ?
Na1 Na1 H1 1_545 . 5_556 90 ?
Na1 Na1 H1 1_545 . 5_655 90 ?
Na1 Na1 H1 1_545 . 5_656 90 ?
Na1 Na1 H1 1_545 . 9_555 45.0000 ?
Na1 Na1 H1 1_545 . 9_565 135.0000 ?
Na1 Na1 H1 1_545 . 9_655 45.0000 ?
Na1 Na1 H1 1_545 . 9_665 135.0000 ?
Na1 Na1 Na1 1_554 . 1_556 180.0(5) ?
Na1 Na1 Na1 1_554 . 1_565 90 ?
Na1 Na1 Na1 1_554 . 1_655 90 ?
Na1 Na1 H1 1_554 . . 45.0000 ?
Na1 Na1 H1 1_554 . 1_556 135.0000 ?
Na1 Na1 H1 1_554 . 1_565 45.0000 ?
Na1 Na1 H1 1_554 . 1_566 135.0000 ?
Na1 Na1 H1 1_554 . 5_555 45.0000 ?
Na1 Na1 H1 1_554 . 5_556 135.0000 ?
Na1 Na1 H1 1_554 . 5_655 45.0000 ?
Na1 Na1 H1 1_554 . 5_656 135.0000 ?
Na1 Na1 H1 1_554 . 9_555 90 ?
Na1 Na1 H1 1_554 . 9_565 90 ?
Na1 Na1 H1 1_554 . 9_655 90 ?
Na1 Na1 H1 1_554 . 9_665 90 ?
Na1 Na1 Na1 1_556 . 1_565 90 ?
Na1 Na1 Na1 1_556 . 1_655 90 ?
Na1 Na1 H1 1_556 . . 135.0000 ?
Na1 Na1 H1 1_556 . 1_556 45.0000 ?
Na1 Na1 H1 1_556 . 1_565 135.0000 ?
Na1 Na1 H1 1_556 . 1_566 45.0000 ?
Na1 Na1 H1 1_556 . 5_555 135.0000 ?
Na1 Na1 H1 1_556 . 5_556 45.0000 ?
Na1 Na1 H1 1_556 . 5_655 135.0000 ?
Na1 Na1 H1 1_556 . 5_656 45.0000 ?
Na1 Na1 H1 1_556 . 9_555 90 ?
Na1 Na1 H1 1_556 . 9_565 90 ?
Na1 Na1 H1 1_556 . 9_655 90 ?
Na1 Na1 H1 1_556 . 9_665 90 ?
Na1 Na1 Na1 1_565 . 1_655 90 ?
Na1 Na1 H1 1_565 . . 135.0000 ?
Na1 Na1 H1 1_565 . 1_556 135.0000 ?
Na1 Na1 H1 1_565 . 1_565 45.0000 ?
Na1 Na1 H1 1_565 . 1_566 45.0000 ?
Na1 Na1 H1 1_565 . 5_555 90 ?
Na1 Na1 H1 1_565 . 5_556 90 ?
Na1 Na1 H1 1_565 . 5_655 90 ?
Na1 Na1 H1 1_565 . 5_656 90 ?
Na1 Na1 H1 1_565 . 9_555 135.0000 ?
Na1 Na1 H1 1_565 . 9_565 45.0000 ?
Na1 Na1 H1 1_565 . 9_655 135.0000 ?
Na1 Na1 H1 1_565 . 9_665 45.0000 ?
Na1 Na1 H1 1_655 . . 90 ?
Na1 Na1 H1 1_655 . 1_556 90 ?
Na1 Na1 H1 1_655 . 1_565 90 ?
Na1 Na1 H1 1_655 . 1_566 90 ?
Na1 Na1 H1 1_655 . 5_555 135.0000 ?
Na1 Na1 H1 1_655 . 5_556 135.0000 ?
Na1 Na1 H1 1_655 . 5_655 45.0000 ?
Na1 Na1 H1 1_655 . 5_656 45.0000 ?
Na1 Na1 H1 1_655 . 9_555 135.0000 ?
Na1 Na1 H1 1_655 . 9_565 135.0000 ?
Na1 Na1 H1 1_655 . 9_655 45.0000 ?
Na1 Na1 H1 1_655 . 9_665 45.0000 ?
H1 Na1 H1 . . 1_556 90.0000 ?
H1 Na1 H1 . . 1_565 90.0000 ?
H1 Na1 H1 . . 1_566 180.0 ?
H1 Na1 H1 . . 5_555 60.0000 ?
H1 Na1 H1 . . 5_556 120.0000 ?
H1 Na1 H1 . . 5_655 60.0000 ?
H1 Na1 H1 . . 5_656 120.0000 ?
H1 Na1 H1 . . 9_555 60.0000 ?
H1 Na1 H1 . . 9_565 120.0000 ?
H1 Na1 H1 . . 9_655 60.0000 ?
H1 Na1 H1 . . 9_665 120.0000 ?
H1 Na1 H1 1_556 . 1_565 180.0 ?
H1 Na1 H1 1_556 . 1_566 90.0000 ?
H1 Na1 H1 1_556 . 5_555 120.0000 ?
H1 Na1 H1 1_556 . 5_556 60.0000 ?
H1 Na1 H1 1_556 . 5_655 120.0000 ?
H1 Na1 H1 1_556 . 5_656 60.0000 ?
H1 Na1 H1 1_556 . 9_555 60.0000 ?
H1 Na1 H1 1_556 . 9_565 120.0000 ?
H1 Na1 H1 1_556 . 9_655 60.0000 ?
H1 Na1 H1 1_556 . 9_665 120.0000 ?
H1 Na1 H1 1_565 . 1_566 90.0000 ?
H1 Na1 H1 1_565 . 5_555 60.0000 ?
H1 Na1 H1 1_565 . 5_556 120.0000 ?
H1 Na1 H1 1_565 . 5_655 60.0000 ?
H1 Na1 H1 1_565 . 5_656 120.0000 ?
H1 Na1 H1 1_565 . 9_555 120.0000 ?
H1 Na1 H1 1_565 . 9_565 60.0000 ?
H1 Na1 H1 1_565 . 9_655 120.0000 ?
H1 Na1 H1 1_565 . 9_665 60.0000 ?
H1 Na1 H1 1_566 . 5_555 120.0000 ?
H1 Na1 H1 1_566 . 5_556 60.0000 ?
H1 Na1 H1 1_566 . 5_655 120.0000 ?
H1 Na1 H1 1_566 . 5_656 60.0000 ?
H1 Na1 H1 1_566 . 9_555 120.0000 ?
H1 Na1 H1 1_566 . 9_565 60.0000 ?
H1 Na1 H1 1_566 . 9_655 120.0000 ?
H1 Na1 H1 1_566 . 9_665 60.0000 ?
H1 Na1 H1 5_555 . 5_556 90.0000 ?
H1 Na1 H1 5_555 . 5_655 90.0000 ?
H1 Na1 H1 5_555 . 5_656 180.0 ?
H1 Na1 H1 5_555 . 9_555 60.0000 ?
H1 Na1 H1 5_555 . 9_565 60.0000 ?
H1 Na1 H1 5_555 . 9_655 120.0000 ?
H1 Na1 H1 5_555 . 9_665 120.0000 ?
H1 Na1 H1 5_556 . 5_655 180.0 ?
H1 Na1 H1 5_556 . 5_656 90.0000 ?
H1 Na1 H1 5_556 . 9_555 60.0000 ?
H1 Na1 H1 5_556 . 9_565 60.0000 ?
H1 Na1 H1 5_556 . 9_655 120.0000 ?
H1 Na1 H1 5_556 . 9_665 120.0000 ?
H1 Na1 H1 5_655 . 5_656 90.0000 ?
H1 Na1 H1 5_655 . 9_555 120.0000 ?
H1 Na1 H1 5_655 . 9_565 120.0000 ?
H1 Na1 H1 5_655 . 9_655 60.0000 ?
H1 Na1 H1 5_655 . 9_665 60.0000 ?
H1 Na1 H1 5_656 . 9_555 120.0000 ?
H1 Na1 H1 5_656 . 9_565 120.0000 ?
H1 Na1 H1 5_656 . 9_655 60.0000 ?
H1 Na1 H1 5_656 . 9_665 60.0000 ?
H1 Na1 H1 9_555 . 9_565 90.0000 ?
H1 Na1 H1 9_555 . 9_655 90.0000 ?
H1 Na1 H1 9_555 . 9_665 180.0 ?
H1 Na1 H1 9_565 . 9_655 180.0 ?
H1 Na1 H1 9_565 . 9_665 90.0000 ?
H1 Na1 H1 9_655 . 9_665 90.0000 ?
Ni1 H1 Ni1 . . 1_655 180.0 ?
Ni1 H1 Na1 . . 1_544 90 ?
Ni1 H1 Na1 . . 1_545 90 ?
Ni1 H1 Na1 . . 1_554 90 ?
Ni1 H1 Na1 . . . 90 ?
Ni1 H1 Na1 1_655 . 1_544 90 ?
Ni1 H1 Na1 1_655 . 1_545 90 ?
Ni1 H1 Na1 1_655 . 1_554 90 ?
Ni1 H1 Na1 1_655 . . 90 ?
Na1 H1 Na1 1_544 . 1_545 90.0000 ?
Na1 H1 Na1 1_544 . 1_554 90.0000 ?
Na1 H1 Na1 1_544 . . 180.0 ?
Na1 H1 Na1 1_545 . 1_554 180.0 ?
Na1 H1 Na1 1_545 . . 90.0000 ?
Na1 H1 Na1 1_554 . . 90.0000 ?
loop_
_geom_bond_atom_site_label_1
_geom_bond_atom_site_label_2
_geom_bond_site_symmetry_1
_geom_bond_site_symmetry_2
_geom_bond_distance
_geom_bond_publ_flag
Ni1 Na1 . 1_444 2.97250(3) ?
Ni1 Na1 . 1_445 2.97250(3) ?
Ni1 Na1 . 1_454 2.97250(3) ?
Ni1 Na1 . 1_455 2.97250(3) ?
Ni1 Na1 . 1_544 2.97250(3) ?
Ni1 Na1 . 1_545 2.97250(3) ?
Ni1 Na1 . 1_554 2.97250(3) ?
Ni1 Na1 . . 2.97250(3) ?
Ni1 H1 . 1_455 1.71617 ?
Ni1 H1 . . 1.71617 ?
Ni1 H1 . 5_545 1.71617 ?
Ni1 H1 . 5_555 1.71617 ?
Ni1 H1 . 9_554 1.71617 ?
Ni1 H1 . 9_555 1.71617 ?
Na1 Na1 . 1_455 3.43235(6) ?
Na1 Na1 . 1_545 3.43235(6) ?
Na1 Na1 . 1_554 3.43235(6) ?
Na1 Na1 . 1_556 3.43235(6) ?
Na1 Na1 . 1_565 3.43235(6) ?
Na1 Na1 . 1_655 3.43235(6) ?
Na1 H1 . . 2.42704 ?
Na1 H1 . 1_556 2.42704 ?
Na1 H1 . 1_565 2.42704 ?
Na1 H1 . 1_566 2.42704 ?
Na1 H1 . 5_555 2.42704 ?
Na1 H1 . 5_556 2.42704 ?
Na1 H1 . 5_655 2.42704 ?
Na1 H1 . 5_656 2.42704 ?
Na1 H1 . 9_555 2.42704 ?
Na1 H1 . 9_565 2.42704 ?
Na1 H1 . 9_655 2.42704 ?
Na1 H1 . 9_665 2.42704 ?
loop_
_geom_hbond_atom_site_label_D
_geom_hbond_atom_site_label_H
_geom_hbond_atom_site_label_A
_geom_hbond_site_symmetry_D
_geom_hbond_site_symmetry_H
_geom_hbond_site_symmetry_A
_geom_hbond_distance_DH
_geom_hbond_distance_HA
_geom_hbond_distance_DA
_geom_hbond_angle_DHA
_geom_hbond_publ_flag
? ? ? ? ? ? ? ? ? ? ?
loop_
_geom_torsion_atom_site_label_1
_geom_torsion_atom_site_label_2
_geom_torsion_atom_site_label_3
_geom_torsion_atom_site_label_4
_geom_torsion_site_symmetry_1
_geom_torsion_site_symmetry_2
_geom_torsion_site_symmetry_3
_geom_torsion_site_symmetry_4
_geom_torsion
_geom_torsion_publ_flag
? ? ? ? ? ? ? ? ? ?
loop_
_pd_proc_point_id
_pd_proc_2theta_corrected
_pd_proc_intensity_net
_pd_calc_intensity_net
_pd_proc_ls_weight
1 0.5040 34.80 39.73 5.90
2 0.5080 33.31 39.82 5.77
3 0.5120 37.74 39.92 6.14
4 0.5160 32.98 40.01 5.74
5 0.5200 33.60 40.10 5.80
6 0.5240 37.17 40.19 6.10
7 0.5280 37.10 40.28 6.09
8 0.5320 37.68 40.37 6.14
9 0.5360 36.37 40.46 6.03
10 0.5400 34.95 40.55 5.91
11 0.5440 36.08 40.65 6.01
12 0.5480 38.26 40.74 6.19
13 0.5520 39.94 40.83 6.32
14 0.5560 38.30 40.92 6.19
15 0.5600 40.52 41.01 6.37
16 0.5640 42.03 41.10 6.48
17 0.5680 42.32 41.19 6.51
18 0.5720 41.64 41.28 6.45
19 0.5760 36.90 41.38 6.07
20 0.5800 41.53 41.47 6.44
21 0.5840 38.75 41.56 6.22
22 0.5880 43.74 41.65 6.61
23 0.5920 45.31 41.74 6.73
24 0.5960 42.88 41.83 6.55
25 0.6000 44.02 41.92 6.64
26 0.6040 44.00 42.01 6.63
27 0.6080 42.03 42.11 6.48
28 0.6120 43.26 42.20 6.58
29 0.6160 43.33 42.29 6.58
30 0.6200 39.63 42.38 6.29
31 0.6240 44.66 42.47 6.68
32 0.6280 41.45 42.56 6.44
33 0.6320 38.08 42.65 6.17
34 0.6360 38.35 42.74 6.19
35 0.6400 42.19 42.83 6.50
36 0.6440 44.33 42.93 6.66
37 0.6480 44.68 43.02 6.68
38 0.6520 39.41 43.11 6.28
39 0.6560 47.75 43.20 6.91
40 0.6600 46.87 43.29 6.85
41 0.6640 46.28 43.38 6.80
42 0.6680 48.07 43.47 6.93
43 0.6720 47.86 43.56 6.92
44 0.6760 44.99 43.65 6.71
45 0.6800 45.88 43.74 6.77
46 0.6840 42.41 43.84 6.51
47 0.6880 42.55 43.93 6.52
48 0.6920 40.19 44.02 6.34
49 0.6960 47.28 44.11 6.88
50 0.7000 45.83 44.20 6.77
51 0.7040 45.11 44.29 6.72
52 0.7080 46.34 44.38 6.81
53 0.7120 43.94 44.47 6.63
54 0.7160 49.12 44.56 7.01
55 0.7200 48.33 44.65 6.95
56 0.7240 47.30 44.75 6.88
57 0.7280 49.21 44.84 7.02
58 0.7320 51.00 44.93 7.14
59 0.7360 48.14 45.02 6.94
60 0.7400 45.24 45.11 6.73
61 0.7440 47.52 45.20 6.89
62 0.7480 52.40 45.29 7.24
63 0.7520 48.65 45.38 6.97
64 0.7560 48.62 45.47 6.97
65 0.7600 50.24 45.56 7.09
66 0.7640 48.18 45.65 6.94
67 0.7680 50.53 45.75 7.11
68 0.7720 48.90 45.84 6.99
69 0.7760 50.79 45.93 7.13
70 0.7800 48.07 46.02 6.93
71 0.7840 43.70 46.11 6.61
72 0.7880 46.08 46.20 6.79
73 0.7920 51.21 46.29 7.16
74 0.7960 46.74 46.38 6.84
75 0.8000 46.18 46.47 6.80
76 0.8040 50.28 46.56 7.09
77 0.8080 51.14 46.65 7.15
78 0.8120 48.02 46.74 6.93
79 0.8160 49.91 46.83 7.06
80 0.8200 49.71 46.93 7.05
81 0.8240 51.05 47.02 7.14
82 0.8280 50.11 47.11 7.08
83 0.8320 47.48 47.20 6.89
84 0.8360 52.25 47.29 7.23
85 0.8400 51.36 47.38 7.17
86 0.8440 50.50 47.47 7.11
87 0.8480 50.91 47.56 7.14
88 0.8520 49.37 47.65 7.03
89 0.8560 54.10 47.74 7.36
90 0.8600 50.76 47.83 7.12
91 0.8640 55.07 47.92 7.42
92 0.8680 54.03 48.01 7.35
93 0.8720 55.91 48.11 7.48
94 0.8760 53.12 48.20 7.29
95 0.8800 50.73 48.29 7.12
96 0.8840 49.75 48.38 7.05
97 0.8880 50.92 48.47 7.14
98 0.8920 49.84 48.56 7.06
99 0.8960 51.58 48.65 7.18
100 0.9000 53.92 48.74 7.34
101 0.9040 49.29 48.83 7.02
102 0.9080 48.53 48.92 6.97
103 0.9120 53.64 49.01 7.32
104 0.9160 51.11 49.10 7.15
105 0.9200 47.37 49.19 6.88
106 0.9240 50.59 49.28 7.11
107 0.9280 52.20 49.37 7.22
108 0.9320 50.55 49.47 7.11
109 0.9360 53.17 49.56 7.29
110 0.9400 47.99 49.65 6.93
111 0.9440 49.45 49.74 7.03
112 0.9480 52.90 49.83 7.27
113 0.9520 49.78 49.92 7.06
114 0.9560 50.99 50.01 7.14
115 0.9600 51.96 50.10 7.21
116 0.9640 49.33 50.19 7.02
117 0.9680 39.41 50.28 6.28
118 0.9720 47.22 50.37 6.87
119 0.9760 43.59 50.46 6.60
120 0.9800 47.93 50.55 6.92
121 0.9840 47.70 50.64 6.91
122 0.9880 47.35 50.73 6.88
123 0.9920 49.51 50.82 7.04
124 0.9960 47.21 51.29 6.87
125 1.0000 49.64 51.76 7.05
126 1.0040 44.98 52.23 6.71
127 1.0080 50.43 52.70 7.10
128 1.0120 50.75 53.16 7.12
129 1.0160 50.50 53.63 7.11
130 1.0200 53.74 54.10 7.33
131 1.0240 52.11 54.57 7.22
132 1.0280 51.59 55.04 7.18
133 1.0320 53.81 55.51 7.34
134 1.0360 50.63 55.97 7.12
135 1.0400 50.77 56.44 7.13
136 1.0440 54.94 56.91 7.41
137 1.0480 53.45 57.38 7.31
138 1.0520 51.63 57.85 7.19
139 1.0560 56.53 58.31 7.52
140 1.0600 56.79 58.78 7.54
141 1.0640 57.32 59.25 7.57
142 1.0680 53.63 59.72 7.32
143 1.0720 56.05 60.19 7.49
144 1.0760 56.76 60.65 7.53
145 1.0800 57.55 61.12 7.59
146 1.0840 57.40 61.59 7.58
147 1.0880 53.84 62.06 7.34
148 1.0920 55.78 62.53 7.47
149 1.0960 60.09 63.00 7.75
150 1.1000 57.03 63.46 7.55
151 1.1040 54.43 63.93 7.38
152 1.1080 60.06 64.40 7.75
153 1.1120 59.70 64.87 7.73
154 1.1160 63.06 65.34 7.94
155 1.1200 61.05 65.80 7.81
156 1.1240 60.80 66.27 7.80
157 1.1280 63.42 66.74 7.96
158 1.1320 64.79 67.21 8.05
159 1.1360 60.72 67.68 7.79
160 1.1400 62.00 68.14 7.87
161 1.1440 62.47 68.61 7.90
162 1.1480 62.80 69.08 7.92
163 1.1520 65.46 69.55 8.09
164 1.1560 63.20 70.02 7.95
165 1.1600 64.01 70.48 8.00
166 1.1640 65.22 70.95 8.08
167 1.1680 66.37 71.42 8.15
168 1.1720 66.82 71.89 8.17
169 1.1760 65.70 72.36 8.11
170 1.1800 67.88 72.82 8.24
171 1.1840 68.95 73.29 8.30
172 1.1880 66.83 73.76 8.18
173 1.1920 70.36 74.23 8.39
174 1.1960 71.01 74.70 8.43
175 1.2000 66.62 75.16 8.16
176 1.2040 71.60 75.63 8.46
177 1.2080 72.50 76.10 8.51
178 1.2120 71.25 76.57 8.44
179 1.2160 73.94 77.04 8.60
180 1.2200 72.89 77.50 8.54
181 1.2240 71.84 77.97 8.48
182 1.2280 78.81 78.44 8.88
183 1.2320 70.57 78.91 8.40
184 1.2360 79.75 79.38 8.93
185 1.2400 79.29 79.84 8.90
186 1.2440 75.25 80.31 8.67
187 1.2480 86.16 80.78 9.28
188 1.2520 80.71 81.25 8.98
189 1.2560 79.35 81.71 8.91
190 1.2600 81.00 82.18 9.00
191 1.2640 79.43 82.65 8.91
192 1.2680 84.92 83.12 9.22
193 1.2720 89.47 83.59 9.46
194 1.2760 87.74 84.05 9.37
195 1.2800 88.83 84.52 9.43
196 1.2840 86.47 84.99 9.30
197 1.2880 86.22 85.46 9.29
198 1.2920 92.75 85.93 9.63
199 1.2960 89.83 86.39 9.48
200 1.3000 84.78 86.86 9.21
201 1.3040 88.60 87.33 9.41
202 1.3080 86.53 87.80 9.30
203 1.3120 87.46 88.06 9.35
204 1.3160 87.23 88.25 9.34
205 1.3200 86.91 88.45 9.32
206 1.3240 90.01 88.64 9.49
207 1.3280 94.48 88.84 9.72
208 1.3320 93.97 89.03 9.69
209 1.3360 92.28 89.23 9.61
210 1.3400 85.11 89.42 9.23
211 1.3440 88.30 89.62 9.40
212 1.3480 93.99 89.81 9.69
213 1.3520 90.87 90.00 9.53
214 1.3560 88.50 90.20 9.41
215 1.3600 90.73 90.39 9.53
216 1.3640 86.11 90.59 9.28
217 1.3680 91.07 90.78 9.54
218 1.3720 89.62 90.98 9.47
219 1.3760 89.55 91.17 9.46
220 1.3800 86.85 91.37 9.32
221 1.3840 89.44 91.56 9.46
222 1.3880 92.86 91.75 9.64
223 1.3920 96.69 91.95 9.83
224 1.3960 87.30 92.14 9.34
225 1.4000 89.26 92.34 9.45
226 1.4040 89.28 92.53 9.45
227 1.4080 92.61 92.73 9.62
228 1.4120 94.53 92.92 9.72
229 1.4160 96.96 93.11 9.85
230 1.4200 93.03 93.31 9.65
231 1.4240 96.20 93.50 9.81
232 1.4280 96.34 93.70 9.82
233 1.4320 94.74 93.89 9.73
234 1.4360 92.23 94.09 9.60
235 1.4400 95.76 94.28 9.79
236 1.4440 93.25 94.47 9.66
237 1.4480 96.61 94.67 9.83
238 1.4520 94.68 94.86 9.73
239 1.4560 98.24 95.06 9.91
240 1.4600 96.73 95.25 9.84
241 1.4640 92.57 95.45 9.62
242 1.4680 97.39 95.64 9.87
243 1.4720 95.84 95.84 9.79
244 1.4760 90.27 96.03 9.50
245 1.4800 97.25 96.22 9.86
246 1.4840 93.64 96.42 9.68
247 1.4880 96.16 96.61 9.81
248 1.4920 97.81 96.81 9.89
249 1.4960 95.76 97.00 9.79
250 1.5000 92.54 97.20 9.62
251 1.5040 96.64 97.39 9.83
252 1.5080 89.47 97.58 9.46
253 1.5120 93.47 97.78 9.67
254 1.5160 99.62 97.97 9.98
255 1.5200 97.16 98.17 9.86
256 1.5240 91.80 98.36 9.58
257 1.5280 94.93 98.56 9.74
258 1.5320 93.58 98.75 9.67
259 1.5360 94.11 98.94 9.70
260 1.5400 97.33 99.14 9.87
261 1.5440 94.21 99.33 9.71
262 1.5480 97.40 99.53 9.87
263 1.5520 101.12 99.72 10.06
264 1.5560 96.88 99.91 9.84
265 1.5600 98.98 100.11 9.95
266 1.5640 100.23 100.30 10.01
267 1.5680 98.07 100.50 9.90
268 1.5720 95.77 100.69 9.79
269 1.5760 98.83 100.89 9.94
270 1.5800 99.23 101.08 9.96
271 1.5840 102.08 101.28 10.10
272 1.5880 102.26 101.47 10.11
273 1.5920 97.76 101.66 9.89
274 1.5960 99.04 101.86 9.95
275 1.6000 98.76 102.05 9.94
276 1.6040 93.19 102.25 9.65
277 1.6080 102.00 102.44 10.10
278 1.6120 98.02 102.63 9.90
279 1.6160 100.74 102.83 10.04
280 1.6200 98.82 103.02 9.94
281 1.6240 102.85 103.22 10.14
282 1.6280 103.08 103.41 10.15
283 1.6320 101.15 103.61 10.06
284 1.6360 100.78 103.80 10.04
285 1.6400 98.19 103.99 9.91
286 1.6440 104.82 104.19 10.24
287 1.6480 105.93 104.38 10.29
288 1.6520 102.82 104.58 10.14
289 1.6560 106.72 104.77 10.33
290 1.6600 104.71 104.96 10.23
291 1.6640 103.90 105.16 10.19
292 1.6680 103.84 105.35 10.19
293 1.6720 103.35 105.28 10.17
294 1.6760 103.69 105.11 10.18
295 1.6800 103.39 104.95 10.17
296 1.6840 100.59 104.79 10.03
297 1.6880 103.22 104.62 10.16
298 1.6920 102.03 104.46 10.10
299 1.6960 101.46 104.30 10.07
300 1.7000 106.94 104.13 10.34
301 1.7040 105.54 103.97 10.27
302 1.7080 100.33 103.81 10.02
303 1.7120 106.49 103.64 10.32
304 1.7160 105.63 103.48 10.28
305 1.7200 109.46 103.32 10.46
306 1.7240 105.73 103.15 10.28
307 1.7280 101.26 102.99 10.06
308 1.7320 106.78 102.82 10.33
309 1.7360 101.95 102.66 10.10
310 1.7400 104.03 102.50 10.20
311 1.8320 108.61 98.73 10.42
312 1.8360 105.36 98.57 10.26
313 1.8400 99.66 98.41 9.98
314 1.8440 99.95 98.24 10.00
315 1.8480 98.65 98.08 9.93
316 1.8520 101.71 97.92 10.09
317 1.8560 103.59 97.75 10.18
318 1.8600 96.88 97.59 9.84
319 1.8640 99.63 97.43 9.98
320 1.8680 99.58 97.26 9.98
321 1.8720 102.07 97.10 10.10
322 1.8760 102.83 96.93 10.14
323 1.8800 98.46 96.77 9.92
324 1.8840 101.86 96.61 10.09
325 1.8880 102.84 96.44 10.14
326 1.8920 98.59 96.28 9.93
327 1.8960 101.18 96.12 10.06
328 1.9000 100.71 95.95 10.04
329 1.9040 97.57 95.79 9.88
330 1.9080 103.36 95.62 10.17
331 1.9120 94.75 95.46 9.73
332 1.9160 102.40 95.30 10.12
333 1.9200 95.45 95.13 9.77
334 1.9240 98.52 94.97 9.93
335 1.9280 95.32 94.81 9.76
336 1.9320 96.10 94.64 9.80
337 1.9360 96.02 94.48 9.80
338 1.9400 92.22 94.32 9.60
339 1.9440 97.02 94.15 9.85
340 1.9480 94.86 93.99 9.74
341 1.9520 99.02 93.82 9.95
342 1.9560 94.36 93.66 9.71
343 1.9600 98.16 93.50 9.91
344 1.9640 90.51 93.33 9.51
345 1.9680 91.94 93.17 9.59
346 1.9720 97.56 93.01 9.88
347 1.9760 97.92 92.84 9.90
348 1.9800 96.53 92.68 9.83
349 1.9840 99.70 92.51 9.99
350 1.9880 91.62 92.35 9.57
351 1.9920 91.36 92.19 9.56
352 1.9960 93.65 92.02 9.68
353 2.0000 93.10 91.86 9.65
354 2.0040 92.19 91.70 9.60
355 2.0080 95.41 91.53 9.77
356 2.0120 92.55 91.37 9.62
357 2.0160 97.38 91.20 9.87
358 2.0200 94.51 91.04 9.72
359 2.0240 95.92 90.88 9.79
360 2.0280 89.52 90.71 9.46
361 2.0320 93.90 90.55 9.69
362 2.0360 96.68 90.39 9.83
363 2.0400 90.22 90.22 9.50
364 2.0440 88.11 90.06 9.39
365 2.0480 90.90 89.89 9.53
366 2.0520 89.40 89.73 9.46
367 2.0560 92.22 89.57 9.60
368 2.0600 90.68 89.40 9.52
369 2.0640 87.51 89.24 9.35
370 2.0680 88.35 89.08 9.40
371 2.0720 87.74 88.91 9.37
372 2.0760 84.27 88.75 9.18
373 2.0800 90.17 88.58 9.50
374 2.0840 85.86 88.42 9.27
375 2.0880 86.18 88.26 9.28
376 2.0920 86.34 88.09 9.29
377 2.0960 85.11 87.93 9.23
378 2.1000 87.90 87.77 9.38
379 2.1040 88.75 87.60 9.42
380 2.1080 85.94 87.44 9.27
381 2.1120 88.49 87.28 9.41
382 2.1160 89.69 87.11 9.47
383 2.1200 86.40 86.95 9.30
384 2.1240 87.04 86.78 9.33
385 2.1280 86.74 86.62 9.31
386 2.1320 84.03 86.46 9.17
387 2.1360 84.91 86.29 9.21
388 2.1400 84.96 86.13 9.22
389 2.1440 87.30 85.96 9.34
390 2.1480 82.49 85.80 9.08
391 2.1520 85.65 85.64 9.25
392 2.1560 87.03 85.47 9.33
393 2.1600 84.87 85.31 9.21
394 2.1640 84.88 85.15 9.21
395 2.1680 88.75 84.98 9.42
396 2.1720 80.84 84.82 8.99
397 2.1760 87.45 84.65 9.35
398 2.1800 81.07 84.49 9.00
399 2.1840 87.37 84.33 9.35
400 2.1880 83.94 84.16 9.16
401 2.1920 79.72 84.00 8.93
402 2.1960 82.59 83.84 9.09
403 2.2000 79.98 83.67 8.94
404 2.2040 84.87 83.54 9.21
405 2.2080 85.12 83.42 9.23
406 2.2120 78.46 83.29 8.86
407 2.2160 83.54 83.17 9.14
408 2.2200 84.30 83.05 9.18
409 2.2240 88.22 82.92 9.39
410 2.2280 85.11 82.80 9.23
411 2.2320 85.35 82.68 9.24
412 2.2360 88.52 82.55 9.41
413 2.2400 86.75 82.43 9.31
414 2.2440 79.41 82.31 8.91
415 2.2480 83.24 82.18 9.12
416 2.2520 79.52 82.06 8.92
417 2.2560 86.36 81.94 9.29
418 2.2600 81.41 81.81 9.02
419 2.2640 84.23 81.69 9.18
420 2.2680 79.36 81.57 8.91
421 2.2720 82.46 81.44 9.08
422 2.2760 82.45 81.32 9.08
423 2.2800 83.98 81.20 9.16
424 2.2840 81.76 81.08 9.04
425 2.2880 79.90 80.95 8.94
426 2.2920 80.08 80.83 8.95
427 2.2960 77.89 80.71 8.83
428 2.3000 77.72 80.58 8.82
429 2.3040 80.16 80.46 8.95
430 2.3080 80.00 80.34 8.94
431 2.3120 81.27 80.21 9.01
432 2.3160 82.23 80.09 9.07
433 2.3200 84.37 79.97 9.19
434 2.3240 84.08 79.84 9.17
435 2.3280 84.09 79.72 9.17
436 2.3320 81.81 79.60 9.04
437 2.3360 87.52 79.47 9.36
438 2.3400 84.62 79.35 9.20
439 2.3440 84.55 79.23 9.19
440 2.3480 83.31 79.10 9.13
441 2.3520 83.52 78.98 9.14
442 2.3560 81.08 78.86 9.00
443 2.3600 82.78 78.73 9.10
444 2.3640 78.49 78.61 8.86
445 2.3680 77.62 78.49 8.81
446 2.3720 80.73 78.36 8.98
447 2.3760 73.35 78.24 8.56
448 2.3800 80.33 78.12 8.96
449 2.3840 76.16 78.00 8.73
450 2.3880 79.69 77.87 8.93
451 2.3920 78.04 77.75 8.83
452 2.3960 78.93 77.63 8.88
453 2.4000 81.47 77.50 9.03
454 2.4040 78.95 77.38 8.89
455 2.4080 79.29 77.26 8.90
456 2.4120 77.68 77.13 8.81
457 2.4160 80.10 77.01 8.95
458 2.4200 73.86 76.89 8.59
459 2.4240 81.78 76.76 9.04
460 2.4280 78.90 76.64 8.88
461 2.4320 74.64 76.52 8.64
462 2.4360 68.22 76.39 8.26
463 2.4400 72.02 76.27 8.49
464 2.4440 73.77 76.15 8.59
465 2.4480 71.26 76.02 8.44
466 2.4520 74.16 75.90 8.61
467 2.4560 75.32 75.78 8.68
468 2.4600 77.93 75.65 8.83
469 2.4640 75.65 75.53 8.70
470 2.4680 78.43 75.41 8.86
471 2.4720 71.80 75.29 8.47
472 2.4760 70.97 75.16 8.42
473 2.4800 68.34 75.04 8.27
474 2.4840 72.17 74.92 8.50
475 2.4880 71.83 74.79 8.48
476 2.4920 72.10 74.67 8.49
477 2.4960 69.76 74.55 8.35
478 2.5000 72.36 74.42 8.51
479 2.5040 68.91 74.30 8.30
480 2.5080 71.64 74.18 8.46
481 2.5120 76.29 74.05 8.73
482 2.5160 69.86 73.93 8.36
483 2.5200 73.28 73.81 8.56
484 2.5240 72.99 73.68 8.54
485 2.5280 72.50 73.56 8.51
486 2.5320 71.15 73.44 8.44
487 2.5360 70.32 73.31 8.39
488 2.5400 71.24 73.19 8.44
489 2.5440 76.93 73.07 8.77
490 2.5480 70.37 72.94 8.39
491 2.5520 75.22 72.82 8.67
492 2.5560 73.74 72.70 8.59
493 2.5600 75.06 72.57 8.66
494 2.5640 74.39 72.45 8.63
495 2.5680 73.68 72.33 8.58
496 2.5720 77.69 72.20 8.81
497 2.5760 71.85 72.08 8.48
498 2.5800 69.58 71.96 8.34
499 2.5840 67.91 71.84 8.24
500 2.5880 70.19 71.71 8.38
501 2.5920 70.96 71.59 8.42
502 2.5960 73.99 71.47 8.60
503 2.6000 75.38 71.34 8.68
504 2.6040 73.90 71.22 8.60
505 2.6080 69.17 71.10 8.32
506 2.6120 68.34 70.97 8.27
507 2.6160 70.70 70.85 8.41
508 2.6200 69.49 70.73 8.34
509 2.6240 73.74 70.60 8.59
510 2.6280 68.50 70.48 8.28
511 2.6320 69.56 70.36 8.34
512 2.6360 71.18 70.23 8.44
513 2.6400 68.71 70.11 8.29
514 2.6440 76.77 69.99 8.76
515 2.6480 72.20 69.86 8.50
516 2.6520 72.97 69.74 8.54
517 2.6560 69.63 69.62 8.34
518 2.6600 74.32 69.49 8.62
519 2.6640 73.37 69.37 8.57
520 2.6680 69.91 69.25 8.36
521 2.6720 70.07 69.12 8.37
522 2.6760 74.35 69.00 8.62
523 2.6800 71.70 69.00 8.47
524 2.6840 73.92 68.99 8.60
525 2.6880 75.96 68.99 8.72
526 2.6920 70.82 68.99 8.42
527 2.6960 71.87 68.98 8.48
528 2.7000 72.03 68.98 8.49
529 2.7040 73.40 68.98 8.57
530 2.7080 73.07 68.97 8.55
531 2.7120 72.56 68.97 8.52
532 2.7160 74.40 68.97 8.63
533 2.7200 74.77 68.96 8.65
534 2.7240 69.01 68.96 8.31
535 2.7280 71.06 68.96 8.43
536 2.7320 71.56 68.95 8.46
537 2.7360 69.97 68.95 8.36
538 2.7400 70.89 68.95 8.42
539 2.7440 72.75 68.94 8.53
540 2.7480 69.65 68.94 8.35
541 2.7520 68.32 68.93 8.27
542 2.7560 67.02 68.93 8.19
543 2.7600 75.53 68.93 8.69
544 2.7640 72.13 68.92 8.49
545 2.7680 70.26 68.92 8.38
546 2.7720 71.58 68.92 8.46
547 2.7760 66.89 68.91 8.18
548 2.7800 69.92 68.91 8.36
549 2.7840 72.88 68.91 8.54
550 2.7880 68.01 68.90 8.25
551 2.7920 73.30 68.90 8.56
552 2.7960 69.86 68.90 8.36
553 2.8000 69.58 68.89 8.34
554 2.8040 75.58 68.89 8.69
555 2.8080 71.89 68.89 8.48
556 2.8120 69.98 68.88 8.37
557 2.8160 72.73 68.88 8.53
558 2.8200 67.41 68.88 8.21
559 2.8240 70.97 68.87 8.42
560 2.8280 73.52 68.87 8.57
561 2.8320 68.89 68.86 8.30
562 2.8360 74.32 68.86 8.62
563 2.8400 71.87 68.86 8.48
564 2.8440 72.19 68.85 8.50
565 2.8480 72.18 68.85 8.50
566 2.8520 73.66 68.85 8.58
567 2.8560 67.76 68.84 8.23
568 2.8600 72.76 68.84 8.53
569 2.8640 73.85 68.84 8.59
570 2.8680 79.52 68.83 8.92
571 2.8720 74.13 68.83 8.61
572 2.8760 71.11 68.83 8.43
573 2.8800 76.38 68.82 8.74
574 2.8840 78.91 68.82 8.88
575 2.8880 87.97 68.82 9.38
576 2.8920 87.37 68.81 9.35
577 2.8960 87.39 68.81 9.35
578 2.9000 79.64 68.81 8.92
579 2.9040 76.36 68.80 8.74
580 2.9080 81.05 68.80 9.00
581 2.9120 76.13 68.79 8.73
582 2.9160 75.25 68.79 8.67
583 2.9200 75.57 68.79 8.69
584 2.9240 71.43 68.78 8.45
585 2.9280 69.23 68.78 8.32
586 2.9320 71.75 68.78 8.47
587 2.9360 71.88 68.77 8.48
588 2.9400 69.50 68.77 8.34
589 2.9440 67.35 68.77 8.21
590 2.9480 69.84 68.76 8.36
591 2.9520 70.04 68.76 8.37
592 2.9560 73.57 68.76 8.58
593 2.9600 69.61 68.75 8.34
594 2.9640 75.21 68.75 8.67
595 2.9680 70.09 68.75 8.37
596 2.9720 68.37 68.74 8.27
597 2.9760 72.29 68.74 8.50
598 2.9800 70.23 68.74 8.38
599 2.9840 70.89 68.73 8.42
600 2.9880 71.29 68.73 8.44
601 2.9920 67.44 68.73 8.21
602 2.9960 65.97 68.72 8.12
603 3.0000 68.23 68.72 8.26
604 3.0040 69.12 68.71 8.31
605 3.0080 67.52 68.71 8.22
606 3.0120 70.56 68.71 8.40
607 3.0160 68.00 68.70 8.25
608 3.0200 67.66 68.70 8.23
609 3.0240 63.62 68.72 7.98
610 3.0280 71.41 68.75 8.45
611 3.0320 72.24 68.77 8.50
612 3.0360 72.50 68.80 8.51
613 3.0400 70.63 68.82 8.40
614 3.0440 68.50 68.84 8.28
615 3.0480 67.30 68.87 8.20
616 3.0520 70.04 68.89 8.37
617 3.0560 72.07 68.91 8.49
618 3.0600 69.10 68.94 8.31
619 3.0640 67.13 68.96 8.19
620 3.0680 67.26 68.98 8.20
621 3.0720 70.06 69.01 8.37
622 3.0760 71.63 69.03 8.46
623 3.0800 70.81 69.05 8.42
624 3.0840 71.91 69.08 8.48
625 3.0880 63.82 69.10 7.99
626 3.0920 70.21 69.13 8.38
627 3.0960 68.63 69.15 8.28
628 3.1000 69.62 69.17 8.34
629 3.1040 77.55 69.20 8.81
630 3.1080 77.32 69.22 8.79
631 3.1120 80.74 69.24 8.99
632 3.1160 80.40 69.27 8.97
633 3.1200 77.82 69.29 8.82
634 3.1240 82.38 69.31 9.08
635 3.1280 79.47 69.34 8.91
636 3.1320 76.53 69.36 8.75
637 3.1360 74.62 69.38 8.64
638 3.1400 70.82 69.41 8.42
639 3.1440 68.69 69.43 8.29
640 3.1480 69.77 69.46 8.35
641 3.1520 65.87 69.48 8.12
642 3.1560 72.66 69.50 8.52
643 3.1600 64.79 69.53 8.05
644 3.1640 68.71 69.55 8.29
645 3.1680 68.02 69.57 8.25
646 3.1720 71.03 69.60 8.43
647 3.1760 67.97 69.62 8.24
648 3.1800 64.24 69.64 8.01
649 3.1840 66.87 69.67 8.18
650 3.1880 66.37 69.69 8.15
651 3.1920 62.41 69.71 7.90
652 3.1960 70.56 69.74 8.40
653 3.2000 68.39 69.76 8.27
654 3.2040 69.64 69.79 8.34
655 3.2080 70.42 69.81 8.39
656 3.2120 68.03 69.83 8.25
657 3.2160 69.82 69.86 8.36
658 3.2200 66.38 69.88 8.15
659 3.2240 66.16 69.90 8.13
660 3.2280 70.19 69.93 8.38
661 3.2320 68.17 69.95 8.26
662 3.2360 68.35 69.97 8.27
663 3.2400 71.32 70.00 8.45
664 3.2440 69.99 70.02 8.37
665 3.2480 70.57 70.05 8.40
666 3.2520 69.41 70.07 8.33
667 3.2560 66.38 70.09 8.15
668 3.2600 71.02 70.12 8.43
669 3.2640 71.81 70.14 8.47
670 3.2680 65.76 70.16 8.11
671 3.2720 69.32 70.19 8.33
672 3.2760 63.87 70.21 7.99
673 3.2800 72.25 70.23 8.50
674 3.2840 68.35 70.29 8.27
675 3.2880 71.41 70.45 8.45
676 3.2920 69.62 70.60 8.34
677 3.2960 70.43 70.75 8.39
678 3.3000 71.39 70.91 8.45
679 3.3040 70.35 71.06 8.39
680 3.3080 68.04 71.22 8.25
681 3.3120 72.12 71.37 8.49
682 3.3160 70.54 71.53 8.40
683 3.3200 68.17 71.68 8.26
684 3.3240 72.48 71.84 8.51
685 3.3280 73.29 71.99 8.56
686 3.3320 72.00 72.15 8.49
687 3.3360 71.54 72.30 8.46
688 3.3400 66.84 72.45 8.18
689 3.3440 72.47 72.61 8.51
690 3.3480 69.51 72.76 8.34
691 3.3520 65.11 72.92 8.07
692 3.4880 79.98 78.17 8.94
693 3.4920 79.29 78.33 8.90
694 3.4960 79.77 78.48 8.93
695 3.5000 78.10 78.64 8.84
696 3.5040 75.20 78.79 8.67
697 3.5080 78.31 78.95 8.85
698 3.5120 79.00 79.03 8.89
699 3.5160 79.15 79.11 8.90
700 3.5200 81.43 79.18 9.02
701 3.5240 80.03 79.26 8.95
702 3.5280 79.91 79.34 8.94
703 3.5320 84.71 79.42 9.20
704 3.5360 81.08 79.50 9.00
705 3.5400 91.92 79.58 9.59
706 3.5440 89.38 79.66 9.45
707 3.5480 95.79 79.74 9.79
708 3.5520 95.15 79.82 9.75
709 3.5560 108.18 79.90 10.40
710 3.5600 118.86 79.97 10.90
711 3.5640 110.05 80.05 10.49
712 3.5680 102.91 80.13 10.14
713 3.5720 95.39 80.21 9.77
714 3.5760 92.37 80.29 9.61
715 3.5800 94.17 80.37 9.70
716 3.5840 92.41 80.45 9.61
717 3.5880 93.76 80.53 9.68
718 3.5920 83.04 80.61 9.11
719 3.5960 83.04 80.69 9.11
720 3.6000 83.79 80.76 9.15
721 3.6040 84.57 80.84 9.20
722 3.6080 76.91 80.92 8.77
723 3.6120 82.39 81.00 9.08
724 3.6160 84.81 81.08 9.21
725 3.6200 82.32 81.16 9.07
726 3.6240 82.77 81.24 9.10
727 3.6280 84.79 81.32 9.21
728 3.6320 80.65 81.40 8.98
729 3.6360 83.07 81.48 9.11
730 3.6400 79.56 81.56 8.92
731 3.6440 81.44 81.63 9.02
732 3.6480 82.50 81.71 9.08
733 3.6520 78.75 81.79 8.87
734 3.6560 78.66 81.87 8.87
735 3.6600 78.38 81.95 8.85
736 3.6640 81.50 82.03 9.03
737 3.6680 80.60 82.11 8.98
738 3.6720 82.67 82.19 9.09
739 3.6760 85.52 82.27 9.25
740 3.6800 85.88 82.35 9.27
741 3.6840 84.09 82.42 9.17
742 3.6880 83.96 82.50 9.16
743 3.6920 82.77 82.58 9.10
744 3.6960 83.93 82.66 9.16
745 3.7000 84.74 82.74 9.21
746 3.7040 84.43 82.82 9.19
747 3.7080 84.54 82.90 9.19
748 3.7120 78.17 82.98 8.84
749 3.7160 82.40 83.06 9.08
750 3.7200 80.65 83.14 8.98
751 3.7240 83.16 83.22 9.12
752 3.7280 77.80 83.29 8.82
753 3.7320 84.94 83.37 9.22
754 3.7360 82.74 83.45 9.10
755 3.7400 84.48 83.53 9.19
756 3.7440 84.32 83.61 9.18
757 3.7480 79.87 83.69 8.94
758 3.7520 82.43 83.77 9.08
759 3.7560 78.24 83.85 8.85
760 3.7600 82.05 83.93 9.06
761 3.7640 84.69 84.01 9.20
762 3.7680 81.99 84.10 9.05
763 3.7720 79.54 84.23 8.92
764 3.7760 83.43 84.36 9.13
765 3.7800 85.80 84.49 9.26
766 3.7840 81.61 84.62 9.03
767 3.7880 83.51 84.75 9.14
768 3.7920 84.99 84.89 9.22
769 3.7960 86.24 85.02 9.29
770 3.8000 82.95 85.15 9.11
771 3.8040 88.01 85.28 9.38
772 3.8080 85.72 85.41 9.26
773 3.8120 87.44 85.54 9.35
774 3.8160 82.33 85.67 9.07
775 3.8200 81.46 85.81 9.03
776 3.8240 81.51 85.94 9.03
777 3.8280 85.13 86.07 9.23
778 3.8320 90.82 86.20 9.53
779 3.8360 86.43 86.33 9.30
780 3.8400 89.96 86.46 9.48
781 3.8440 88.69 86.59 9.42
782 3.8480 87.56 86.72 9.36
783 3.8520 86.95 86.86 9.32
784 3.8560 91.32 86.99 9.56
785 3.8600 87.87 87.12 9.37
786 3.8640 92.08 87.25 9.60
787 3.8680 93.63 87.38 9.68
788 3.8720 94.75 87.51 9.73
789 3.8760 97.96 87.64 9.90
790 3.8800 98.00 87.77 9.90
791 3.8840 106.52 87.91 10.32
792 3.8880 116.86 88.04 10.81
793 3.8920 128.39 88.17 11.33
794 3.8960 143.42 88.30 11.98
795 3.9000 144.71 88.43 12.03
796 3.9040 133.90 88.56 11.57
797 3.9080 115.76 88.69 10.76
798 3.9120 110.06 88.82 10.49
799 3.9160 103.46 88.96 10.17
800 3.9200 99.58 89.09 9.98
801 3.9240 98.33 89.22 9.92
802 3.9280 94.82 89.35 9.74
803 3.9320 96.28 89.48 9.81
804 3.9360 92.16 89.61 9.60
805 3.9400 90.46 89.74 9.51
806 3.9440 91.50 89.88 9.57
807 3.9480 96.56 90.01 9.83
808 3.9520 95.99 90.14 9.80
809 3.9560 98.06 90.27 9.90
810 3.9600 94.34 90.40 9.71
811 3.9640 94.77 90.53 9.73
812 3.9680 90.66 90.66 9.52
813 3.9720 89.21 90.79 9.45
814 3.9760 90.51 90.93 9.51
815 3.9800 90.47 91.06 9.51
816 3.9840 94.06 91.19 9.70
817 3.9880 90.02 91.32 9.49
818 3.9920 98.81 91.45 9.94
819 3.9960 96.89 91.58 9.84
820 4.0000 93.84 91.71 9.69
821 4.0040 93.11 91.85 9.65
822 4.0080 91.45 91.98 9.56
823 4.0120 82.84 92.11 9.10
824 4.0160 86.53 92.24 9.30
825 4.0200 89.84 92.37 9.48
826 4.0240 88.70 92.50 9.42
827 4.0280 84.65 92.63 9.20
828 4.0320 90.31 92.76 9.50
829 4.0360 89.55 92.90 9.46
830 4.0400 88.43 93.03 9.40
831 4.0440 85.85 93.16 9.27
832 4.0480 85.74 93.29 9.26
833 4.0520 88.28 93.42 9.40
834 4.0560 87.19 93.55 9.34
835 4.0600 90.03 93.68 9.49
836 4.0640 88.89 93.82 9.43
837 4.0680 89.83 93.95 9.48
838 4.0720 92.80 94.08 9.63
839 4.0760 92.49 94.21 9.62
840 4.0800 92.17 94.34 9.60
841 4.0840 90.96 94.47 9.54
842 4.0880 90.22 94.60 9.50
843 4.0920 94.28 94.74 9.71
844 4.0960 95.34 94.87 9.76
845 4.1000 94.17 95.00 9.70
846 4.1040 92.81 95.13 9.63
847 4.1080 95.39 95.26 9.77
848 4.1120 94.14 95.39 9.70
849 4.1160 93.98 95.52 9.69
850 4.1200 94.51 95.66 9.72
851 4.1240 91.72 95.79 9.58
852 4.1280 94.54 95.92 9.72
853 4.1320 94.40 96.05 9.72
854 4.1360 90.42 96.18 9.51
855 4.1400 91.65 96.38 9.57
856 4.1440 93.07 96.60 9.65
857 4.1480 96.00 96.82 9.80
858 4.1520 95.85 97.05 9.79
859 4.1560 98.69 97.27 9.93
860 4.1600 90.70 97.49 9.52
861 4.1640 94.31 97.71 9.71
862 4.1680 96.52 97.93 9.82
863 4.1720 101.32 98.15 10.07
864 4.1760 92.86 98.38 9.64
865 4.1800 98.27 98.60 9.91
866 4.1840 97.37 98.82 9.87
867 4.1880 96.94 99.04 9.85
868 4.1920 102.56 99.26 10.13
869 4.1960 97.50 99.48 9.87
870 4.2000 98.41 99.71 9.92
871 4.2040 99.19 99.93 9.96
872 4.2080 99.51 100.15 9.98
873 4.2120 95.78 100.37 9.79
874 4.2160 103.53 100.59 10.18
875 4.2200 103.59 100.82 10.18
876 4.2240 103.32 101.04 10.16
877 4.2280 101.92 101.26 10.10
878 4.2320 99.59 101.48 9.98
879 4.2360 100.34 101.70 10.02
880 4.2400 101.82 101.92 10.09
881 4.2440 99.96 102.14 10.00
882 4.2480 97.60 102.37 9.88
883 4.2520 102.33 102.59 10.12
884 4.2560 105.82 102.81 10.29
885 4.2600 102.25 103.03 10.11
886 4.2640 103.25 103.25 10.16
887 4.2680 100.43 103.48 10.02
888 4.2720 108.26 103.70 10.40
889 4.2760 109.82 103.92 10.48
890 4.2800 108.77 104.14 10.43
891 4.2840 109.93 104.36 10.48
892 4.2880 106.43 104.58 10.32
893 4.2920 113.60 104.81 10.66
894 4.2960 115.17 105.03 10.73
895 4.3000 114.85 105.25 10.72
896 4.3040 113.04 105.47 10.63
897 4.3080 121.97 105.69 11.04
898 4.3120 118.61 105.92 10.89
899 4.3160 115.27 106.14 10.74
900 4.3200 117.39 106.36 10.83
901 4.3240 117.72 106.58 10.85
902 4.3280 116.91 106.80 10.81
903 4.3320 117.50 107.02 10.84
904 4.3360 116.64 107.25 10.80
905 4.3400 118.07 107.47 10.87
906 4.3440 122.02 107.69 11.05
907 4.3480 118.87 107.91 10.90
908 4.3520 114.81 108.13 10.71
909 4.3560 117.94 108.36 10.86
910 4.3600 119.47 108.58 10.93
911 4.3640 123.15 108.80 11.10
912 4.3680 118.33 109.02 10.88
913 4.3720 115.49 109.24 10.75
914 4.3760 112.91 109.46 10.63
915 4.3800 113.20 109.69 10.64
916 4.3840 117.73 109.91 10.85
917 4.3880 110.73 110.13 10.52
918 4.3920 114.00 110.35 10.68
919 4.3960 117.71 110.57 10.85
920 4.4000 123.09 110.79 11.09
921 4.4040 116.88 111.02 10.81
922 4.4080 120.75 111.24 10.99
923 4.4120 123.94 111.46 11.13
924 4.4160 125.06 111.68 11.18
925 4.4200 119.19 111.90 10.92
926 4.4240 117.11 112.13 10.82
927 4.4280 122.75 112.35 11.08
928 4.4320 116.14 112.57 10.78
929 4.4360 116.46 112.79 10.79
930 4.4400 116.22 113.01 10.78
931 4.4440 118.49 113.24 10.89
932 4.4480 120.43 113.46 10.97
933 4.4520 112.73 113.68 10.62
934 4.4560 112.49 113.90 10.61
935 4.4600 115.16 114.12 10.73
936 4.4640 112.43 114.34 10.60
937 4.4680 114.95 114.57 10.72
938 4.4720 110.00 114.79 10.49
939 4.4760 114.01 115.01 10.68
940 4.4800 112.82 115.23 10.62
941 4.4840 117.46 115.45 10.84
942 4.4880 113.14 115.68 10.64
943 4.4920 117.93 115.90 10.86
944 4.4960 114.24 116.12 10.69
945 4.5000 114.07 116.34 10.68
946 4.5040 117.81 116.56 10.85
947 4.5080 116.56 116.79 10.80
948 4.5120 112.95 117.01 10.63
949 4.5160 117.51 117.23 10.84
950 4.5200 114.73 117.45 10.71
951 4.5240 115.88 117.67 10.76
952 4.5280 114.22 117.89 10.69
953 4.5320 120.39 118.12 10.97
954 4.5360 118.43 118.34 10.88
955 4.5400 120.12 118.56 10.96
956 4.5440 115.55 118.78 10.75
957 4.5480 120.28 119.00 10.97
958 4.5520 117.85 119.23 10.86
959 4.5560 117.73 119.45 10.85
960 4.5600 116.29 119.67 10.78
961 4.5640 121.43 119.89 11.02
962 4.5680 122.19 120.11 11.05
963 4.5720 119.93 120.34 10.95
964 4.5760 126.11 120.56 11.23
965 4.5800 121.23 120.78 11.01
966 4.5840 121.96 121.00 11.04
967 4.5880 122.71 121.22 11.08
968 4.5920 123.09 121.44 11.09
969 4.5960 119.19 121.67 10.92
970 4.6000 123.96 121.89 11.13
971 4.6040 125.65 122.11 11.21
972 4.6080 121.18 122.33 11.01
973 4.6120 122.00 122.56 11.05
974 4.6160 127.39 122.78 11.29
975 4.6200 123.77 123.00 11.13
976 4.6240 122.28 123.22 11.06
977 4.6280 124.57 123.44 11.16
978 4.6320 123.13 123.67 11.10
979 4.6360 120.80 123.89 10.99
980 4.6400 123.60 124.11 11.12
981 4.6440 124.80 124.36 11.17
982 4.6480 125.42 124.70 11.20
983 4.6520 124.05 125.04 11.14
984 4.6560 125.91 125.38 11.22
985 4.6600 127.07 125.71 11.27
986 4.6640 127.23 126.05 11.28
987 4.6680 124.57 126.39 11.16
988 4.6720 127.72 126.73 11.30
989 4.6760 126.34 127.07 11.24
990 4.6800 127.79 127.41 11.30
991 4.6840 131.53 127.75 11.47
992 4.6880 131.80 128.09 11.48
993 4.6920 124.07 128.43 11.14
994 4.6960 130.59 128.77 11.43
995 4.7000 127.12 129.10 11.27
996 4.7040 130.55 129.44 11.43
997 4.7080 126.29 129.78 11.24
998 4.7120 127.60 130.12 11.30
999 4.7160 129.99 130.46 11.40
1000 4.7200 130.48 130.80 11.42
1001 4.7240 135.24 131.14 11.63
1002 4.7280 136.67 131.48 11.69
1003 4.7320 141.81 131.82 11.91
1004 4.7360 141.06 132.15 11.88
1005 4.7400 138.76 132.49 11.78
1006 4.7440 135.84 132.83 11.66
1007 4.7480 132.93 133.17 11.53
1008 4.7520 134.96 133.51 11.62
1009 4.7560 131.81 133.85 11.48
1010 4.7600 134.85 134.19 11.61
1011 4.7640 137.79 134.53 11.74
1012 4.7680 131.13 134.87 11.45
1013 4.7720 139.95 135.21 11.83
1014 4.7760 132.49 135.54 11.51
1015 4.7800 139.69 135.88 11.82
1016 4.7840 132.97 136.22 11.53
1017 4.7880 141.92 136.56 11.91
1018 4.7920 131.85 136.90 11.48
1019 4.7960 139.77 137.24 11.82
1020 4.8000 140.63 137.58 11.86
1021 4.8040 136.01 137.92 11.66
1022 4.8080 139.71 138.26 11.82
1023 4.8120 140.84 138.60 11.87
1024 4.8160 139.44 138.93 11.81
1025 4.8200 144.47 139.27 12.02
1026 4.8240 143.13 139.61 11.96
1027 4.8280 141.78 139.95 11.91
1028 4.8320 144.66 140.29 12.03
1029 4.8360 137.70 140.63 11.73
1030 4.8400 146.26 140.97 12.09
1031 4.8440 145.12 141.31 12.05
1032 4.8480 143.00 141.65 11.96
1033 4.8520 141.62 141.99 11.90
1034 4.8560 143.47 142.32 11.98
1035 4.8600 140.19 142.66 11.84
1036 4.8640 142.98 143.00 11.96
1037 4.8680 146.03 143.34 12.08
1038 4.8720 150.93 143.68 12.29
1039 4.8760 145.31 144.02 12.05
1040 4.8800 143.25 144.36 11.97
1041 4.8840 144.66 144.70 12.03
1042 4.8880 146.69 145.04 12.11
1043 4.8920 143.01 145.38 11.96
1044 4.8960 139.95 145.72 11.83
1045 4.9000 143.14 146.05 11.96
1046 4.9040 145.42 146.39 12.06
1047 4.9080 143.50 146.73 11.98
1048 4.9120 148.88 147.07 12.20
1049 4.9160 147.69 147.41 12.15
1050 4.9200 137.54 147.75 11.73
1051 4.9240 140.69 148.09 11.86
1052 4.9280 148.09 148.43 12.17
1053 4.9320 144.95 148.77 12.04
1054 4.9360 151.64 149.11 12.31
1055 4.9400 152.28 149.45 12.34
1056 4.9440 150.60 149.79 12.27
1057 4.9480 151.34 150.12 12.30
1058 4.9520 154.55 150.46 12.43
1059 4.9560 149.82 150.66 12.24
1060 4.9600 150.62 150.45 12.27
1061 4.9640 152.54 150.24 12.35
1062 4.9680 152.73 150.02 12.36
1063 4.9720 175.79 149.81 13.26
1064 4.9760 166.51 149.60 12.90
1065 4.9800 152.03 149.38 12.33
1066 4.9840 149.01 149.17 12.21
1067 4.9880 148.25 148.95 12.18
1068 4.9920 143.85 148.74 11.99
1069 4.9960 144.81 148.53 12.03
1070 5.0000 142.42 148.31 11.93
1071 5.0040 143.51 148.10 11.98
1072 5.0080 150.94 147.89 12.29
1073 5.0120 145.59 147.67 12.07
1074 5.0160 146.32 147.46 12.10
1075 5.0200 145.41 147.24 12.06
1076 5.0240 146.87 147.03 12.12
1077 5.0280 149.96 146.82 12.25
1078 5.0320 152.32 146.60 12.34
1079 5.0360 160.72 146.39 12.68
1080 5.0400 161.73 146.18 12.72
1081 5.0440 162.29 145.96 12.74
1082 5.0480 157.89 145.75 12.57
1083 5.0520 146.46 145.54 12.10
1084 5.0560 144.27 145.32 12.01
1085 5.0600 141.98 145.11 11.92
1086 5.0640 142.98 144.90 11.96
1087 5.0680 142.37 144.68 11.93
1088 5.0720 145.61 144.47 12.07
1089 5.0760 139.86 144.26 11.83
1090 5.0800 141.10 144.04 11.88
1091 5.0840 141.89 143.83 11.91
1092 5.0880 144.24 143.61 12.01
1093 5.0920 138.82 143.40 11.78
1094 5.0960 138.80 143.19 11.78
1095 5.1000 139.69 142.97 11.82
1096 5.1040 147.23 142.76 12.13
1097 5.1080 142.04 142.55 11.92
1098 5.1120 141.29 142.33 11.89
1099 5.1160 137.43 142.12 11.72
1100 5.1200 134.56 141.90 11.60
1101 5.1240 138.18 141.69 11.75
1102 5.1280 142.76 141.48 11.95
1103 5.1320 141.37 141.26 11.89
1104 5.1360 137.32 141.05 11.72
1105 5.1400 136.19 140.84 11.67
1106 5.1440 134.70 140.62 11.61
1107 5.1480 142.96 140.41 11.96
1108 5.1520 138.37 140.20 11.76
1109 5.1560 136.06 139.98 11.66
1110 5.1600 134.84 139.77 11.61
1111 5.1640 138.68 139.56 11.78
1112 5.1680 144.87 139.34 12.04
1113 5.1720 141.84 139.13 11.91
1114 5.1760 143.75 138.91 11.99
1115 5.1800 144.80 138.70 12.03
1116 5.1840 141.19 138.49 11.88
1117 5.1880 141.12 138.27 11.88
1118 5.1920 144.41 138.06 12.02
1119 5.1960 133.93 137.85 11.57
1120 5.2000 145.32 137.63 12.05
1121 5.2040 140.16 137.42 11.84
1122 5.2080 141.57 137.21 11.90
1123 5.2120 139.91 136.99 11.83
1124 5.2160 140.93 136.78 11.87
1125 5.2200 137.02 136.57 11.71
1126 5.2240 142.93 136.35 11.96
1127 5.2280 135.85 136.14 11.66
1128 5.2320 137.98 135.93 11.75
1129 5.2360 137.57 135.71 11.73
1130 5.2400 136.51 135.50 11.68
1131 5.2440 137.27 135.29 11.72
1132 5.2480 133.09 135.07 11.54
1133 5.2520 136.63 134.86 11.69
1134 5.2560 136.20 134.65 11.67
1135 5.2600 133.46 134.57 11.55
1136 5.2640 137.27 134.64 11.72
1137 5.2680 133.92 134.70 11.57
1138 5.2720 135.43 134.77 11.64
1139 5.2760 133.49 134.83 11.55
1140 5.2800 138.47 134.90 11.77
1141 5.2840 135.55 134.96 11.64
1142 5.2880 132.93 135.03 11.53
1143 5.2920 136.66 135.10 11.69
1144 5.2960 140.50 135.16 11.85
1145 5.3000 136.46 135.23 11.68
1146 5.3040 137.05 135.29 11.71
1147 5.3080 136.69 135.36 11.69
1148 5.3120 132.03 135.43 11.49
1149 5.3160 136.79 135.49 11.70
1150 5.3200 136.24 135.56 11.67
1151 5.3240 136.84 135.62 11.70
1152 5.3280 135.51 135.69 11.64
1153 5.3320 135.27 135.75 11.63
1154 5.3360 131.96 135.82 11.49
1155 5.3400 134.60 135.88 11.60
1156 5.3440 141.20 135.95 11.88
1157 5.3480 131.30 136.02 11.46
1158 5.3520 137.30 136.08 11.72
1159 5.3560 139.21 137.84 11.80
1160 5.3600 136.54 137.93 11.69
1161 5.3640 140.71 138.02 11.86
1162 5.3680 139.42 138.11 11.81
1163 5.3720 143.62 138.20 11.98
1164 5.3760 136.25 138.29 11.67
1165 5.3800 140.27 138.39 11.84
1166 5.3840 143.12 138.48 11.96
1167 5.3880 144.29 138.57 12.01
1168 5.3920 143.54 138.67 11.98
1169 5.3960 142.99 138.76 11.96
1170 5.4000 144.51 138.86 12.02
1171 5.4040 143.20 138.96 11.97
1172 5.4080 135.07 139.05 11.62
1173 5.4120 137.67 139.15 11.73
1174 5.4160 145.99 139.25 12.08
1175 5.4200 139.18 139.35 11.80
1176 5.4240 138.28 139.45 11.76
1177 5.4280 140.46 139.55 11.85
1178 5.4320 139.43 139.66 11.81
1179 5.4360 135.88 139.76 11.66
1180 5.4400 134.98 139.87 11.62
1181 5.4440 136.15 139.97 11.67
1182 5.4480 138.05 140.08 11.75
1183 5.4520 140.86 140.18 11.87
1184 5.4560 135.15 140.29 11.63
1185 5.4600 138.65 140.40 11.78
1186 5.4640 135.99 140.51 11.66
1187 5.4680 138.90 140.63 11.79
1188 5.4720 132.46 140.74 11.51
1189 5.4760 138.26 140.85 11.76
1190 5.4800 135.63 140.97 11.65
1191 5.4840 132.42 141.09 11.51
1192 5.4880 135.07 141.21 11.62
1193 5.4920 137.36 141.33 11.72
1194 5.4960 138.07 141.45 11.75
1195 5.5000 134.33 141.57 11.59
1196 5.5040 134.83 141.70 11.61
1197 5.5080 138.09 141.82 11.75
1198 5.5120 138.82 141.95 11.78
1199 5.5160 137.93 142.08 11.74
1200 5.5200 137.47 142.21 11.72
1201 5.5240 134.73 142.35 11.61
1202 5.5280 140.50 142.49 11.85
1203 5.5320 136.44 142.62 11.68
1204 5.5360 143.13 142.76 11.96
1205 5.5400 142.72 142.91 11.95
1206 5.5440 130.79 143.05 11.44
1207 5.5480 136.81 143.20 11.70
1208 5.5520 135.87 143.35 11.66
1209 5.5560 138.57 143.51 11.77
1210 5.5600 138.79 143.67 11.78
1211 5.5640 139.36 143.83 11.81
1212 5.5680 136.23 143.99 11.67
1213 5.5720 140.41 144.13 11.85
1214 5.5760 139.29 144.20 11.80
1215 5.5800 135.27 144.27 11.63
1216 5.5840 138.25 144.34 11.76
1217 5.5880 137.94 144.42 11.74
1218 5.5920 142.64 144.50 11.94
1219 5.5960 147.52 144.59 12.15
1220 5.6000 146.77 144.68 12.11
1221 5.6040 139.74 144.78 11.82
1222 5.6080 142.65 144.88 11.94
1223 5.6120 138.11 144.99 11.75
1224 5.6160 143.46 145.10 11.98
1225 5.6200 139.32 145.22 11.80
1226 5.6240 140.16 145.35 11.84
1227 5.6280 142.66 145.48 11.94
1228 5.6320 139.49 145.62 11.81
1229 5.6360 141.74 145.77 11.91
1230 5.6400 141.15 145.92 11.88
1231 5.6440 153.18 146.09 12.38
1232 5.6480 152.84 146.26 12.36
1233 5.6520 153.57 146.44 12.39
1234 5.6560 156.40 146.64 12.51
1235 5.6600 154.75 146.84 12.44
1236 5.6640 151.87 147.06 12.32
1237 5.6680 146.80 147.29 12.12
1238 5.6720 150.88 147.52 12.28
1239 5.6760 153.73 147.78 12.40
1240 5.6800 149.42 148.05 12.22
1241 5.6840 150.86 148.34 12.28
1242 5.6880 145.96 148.64 12.08
1243 5.6920 148.13 148.96 12.17
1244 5.6960 146.16 149.30 12.09
1245 5.7000 145.77 149.66 12.07
1246 5.7040 150.19 150.04 12.26
1247 5.7080 146.82 150.45 12.12
1248 5.7120 152.41 150.88 12.35
1249 5.7160 149.31 151.35 12.22
1250 5.7200 147.86 151.84 12.16
1251 5.7240 143.04 152.37 11.96
1252 5.7280 148.98 152.93 12.21
1253 5.7320 142.48 153.53 11.94
1254 5.7360 149.20 154.17 12.21
1255 5.7400 149.34 154.86 12.22
1256 5.7440 155.89 155.60 12.49
1257 5.7480 148.74 156.39 12.20
1258 5.7520 152.18 157.25 12.34
1259 5.7560 161.44 158.17 12.71
1260 5.7600 164.19 159.17 12.81
1261 5.7640 169.60 160.25 13.02
1262 5.7680 168.79 161.41 12.99
1263 5.7720 162.37 162.68 12.74
1264 5.7760 159.87 164.22 12.64
1265 5.7800 161.31 165.95 12.70
1266 5.7840 156.41 167.81 12.51
1267 5.7880 163.04 169.82 12.77
1268 5.7920 163.94 172.02 12.80
1269 5.7960 167.98 174.41 12.96
1270 5.8000 159.36 177.03 12.62
1271 5.8040 161.52 179.91 12.71
1272 5.8080 159.05 183.09 12.61
1273 5.8120 162.73 186.61 12.76
1274 5.8160 168.42 190.52 12.98
1275 5.8200 161.33 194.90 12.70
1276 5.8240 163.20 199.82 12.78
1277 5.8280 169.45 205.38 13.02
1278 5.8320 181.24 211.70 13.46
1279 5.8360 163.44 218.93 12.78
1280 5.8400 178.76 227.24 13.37
1281 5.8440 182.60 236.90 13.51
1282 5.8480 188.86 248.19 13.74
1283 5.8520 205.21 261.53 14.33
1284 5.8560 212.52 277.43 14.58
1285 5.8600 232.58 296.63 15.25
1286 5.8640 239.97 320.08 15.49
1287 5.8680 275.83 349.15 16.61
1288 5.8720 312.65 385.81 17.68
1289 5.8760 347.92 432.92 18.65
1290 5.8800 425.56 494.84 20.63
1291 5.8840 523.18 578.41 22.87
1292 5.8880 664.93 694.86 25.79
1293 5.8920 835.88 863.52 28.91
1294 5.8960 1200.05 1119.53 34.64
1295 5.9000 1702.60 1531.68 41.26
1296 5.9040 2403.82 2243.21 49.03
1297 5.9080 3977.46 3567.95 63.07
1298 5.9120 6097.32 6107.42 78.09
1299 5.9160 9487.69 9834.23 97.40
1300 5.9200 10934.90 10289.00 104.57
1301 5.9240 6596.28 6645.77 81.22
1302 5.9280 3889.59 3863.23 62.37
1303 5.9320 2626.58 2397.56 51.25
1304 5.9360 1733.35 1618.36 41.63
1305 5.9400 1160.25 1172.53 34.06
1306 5.9440 915.30 898.45 30.25
1307 5.9480 677.66 719.54 26.03
1308 5.9520 504.24 596.92 22.46
1309 5.9560 435.07 509.52 20.86
1310 5.9600 368.04 445.14 19.18
1311 5.9640 317.55 396.44 17.82
1312 5.9680 282.49 358.75 16.81
1313 5.9720 254.88 329.01 15.96
1314 5.9760 234.54 305.15 15.31
1315 5.9800 215.87 285.74 14.69
1316 5.9840 197.94 269.74 14.07
1317 5.9880 193.70 256.40 13.92
1318 5.9920 185.08 245.18 13.60
1319 5.9960 175.13 235.66 13.23
1320 6.0000 174.21 227.51 13.20
1321 6.0040 167.11 220.49 12.93
1322 6.0080 164.35 214.41 12.82
1323 6.0120 161.00 209.10 12.69
1324 6.0160 157.52 204.45 12.55
1325 6.0200 156.27 200.35 12.50
1326 6.0240 157.37 196.73 12.54
1327 6.0280 156.93 193.52 12.53
1328 6.0320 152.79 190.65 12.36
1329 6.0360 154.33 188.09 12.42
1330 6.0400 151.68 185.79 12.32
1331 6.0440 156.12 183.73 12.49
1332 6.0480 153.23 181.87 12.38
1333 6.0520 153.19 180.18 12.38
1334 6.0560 151.66 178.66 12.31
1335 6.0600 154.26 177.28 12.42
1336 6.0640 147.37 176.03 12.14
1337 6.0680 151.47 174.88 12.31
1338 6.0720 152.51 173.85 12.35
1339 6.0760 145.92 172.90 12.08
1340 6.0800 148.86 172.03 12.20
1341 6.0840 156.05 171.24 12.49
1342 6.0880 152.68 170.06 12.36
1343 6.0920 147.79 168.79 12.16
1344 6.0960 150.92 167.58 12.28
1345 6.1000 149.89 166.42 12.24
1346 6.1040 147.83 165.31 12.16
1347 6.1080 159.04 164.24 12.61
1348 6.1120 155.29 163.20 12.46
1349 6.1160 153.74 162.21 12.40
1350 6.1200 160.51 161.25 12.67
1351 6.1240 160.74 160.32 12.68
1352 6.1280 166.23 159.41 12.89
1353 6.1320 163.12 158.54 12.77
1354 6.1360 169.80 157.68 13.03
1355 6.1400 180.76 156.86 13.44
1356 6.1440 183.60 156.05 13.55
1357 6.1480 180.46 155.26 13.43
1358 6.1520 168.80 154.49 12.99
1359 6.1560 169.53 153.74 13.02
1360 6.1600 164.23 153.00 12.81
1361 6.1640 157.06 152.28 12.53
1362 6.1680 157.22 151.57 12.54
1363 6.1720 160.38 150.88 12.66
1364 6.1760 159.01 150.20 12.61
1365 6.1800 162.64 149.53 12.75
1366 6.1840 153.24 148.87 12.38
1367 6.1880 155.80 148.22 12.48
1368 6.1920 151.86 147.58 12.32
1369 6.1960 155.15 146.95 12.46
1370 6.2000 152.29 146.33 12.34
1371 6.2040 155.15 145.72 12.46
1372 6.2080 148.95 145.11 12.20
1373 6.2120 151.88 144.51 12.32
1374 6.2160 153.49 143.92 12.39
1375 6.2200 148.09 143.34 12.17
1376 6.2240 146.08 142.76 12.09
1377 6.2280 148.93 142.19 12.20
1378 6.2320 150.40 141.62 12.26
1379 6.2360 147.80 141.06 12.16
1380 6.2400 140.77 140.50 11.86
1381 6.2440 139.50 139.95 11.81
1382 6.2480 138.27 139.40 11.76
1383 6.2520 138.66 138.86 11.78
1384 6.2560 133.67 138.32 11.56
1385 6.2600 132.41 137.78 11.51
1386 6.2640 129.47 137.25 11.38
1387 6.2680 128.61 136.72 11.34
1388 6.2720 133.61 136.20 11.56
1389 6.2760 132.03 135.68 11.49
1390 6.2800 126.92 135.16 11.27
1391 6.2840 129.71 134.65 11.39
1392 6.2880 125.68 134.11 11.21
1393 6.2920 131.12 133.55 11.45
1394 6.2960 129.08 132.99 11.36
1395 6.3000 127.69 132.44 11.30
1396 6.3040 133.16 131.89 11.54
1397 6.3080 135.81 131.34 11.65
1398 6.3120 129.83 130.79 11.39
1399 6.3160 125.01 130.25 11.18
1400 6.3200 129.38 129.71 11.37
1401 6.3240 131.12 129.16 11.45
1402 6.3280 132.71 128.62 11.52
1403 6.3320 133.97 128.09 11.57
1404 6.3360 140.00 127.55 11.83
1405 6.3400 143.81 127.02 11.99
1406 6.3440 145.56 126.49 12.06
1407 6.3480 146.88 125.96 12.12
1408 6.3520 151.63 125.43 12.31
1409 6.3560 138.24 124.90 11.76
1410 6.3600 141.37 124.38 11.89
1411 6.3640 139.50 123.85 11.81
1412 6.3680 137.01 123.33 11.71
1413 6.3720 132.51 122.81 11.51
1414 6.3760 131.70 122.29 11.48
1415 6.3800 126.76 121.77 11.26
1416 6.3840 124.70 121.25 11.17
1417 6.3880 121.69 120.73 11.03
1418 6.3920 123.30 120.21 11.10
1419 6.3960 121.16 119.70 11.01
1420 6.4000 118.90 119.18 10.90
1421 6.4040 121.96 118.67 11.04
1422 6.4080 117.93 118.16 10.86
1423 6.4120 117.84 117.65 10.86
1424 6.4160 115.12 117.14 10.73
1425 6.4200 116.47 116.63 10.79
1426 6.4240 114.13 116.12 10.68
1427 6.4280 116.89 115.61 10.81
1428 6.4320 109.35 115.10 10.46
1429 6.4360 117.52 114.60 10.84
1430 6.4400 113.18 114.09 10.64
1431 6.4440 115.26 113.58 10.74
1432 6.4480 110.24 113.08 10.50
1433 6.4520 110.72 112.57 10.52
1434 6.4560 112.35 112.07 10.60
1435 6.4600 113.39 111.57 10.65
1436 6.4640 110.28 111.07 10.50
1437 6.4680 111.76 110.78 10.57
1438 6.4720 116.58 110.71 10.80
1439 6.4760 111.00 110.64 10.54
1440 7.8600 109.57 118.53 10.47
1441 7.8640 112.43 119.05 10.60
1442 7.8680 113.07 119.67 10.63
1443 7.8720 109.16 120.28 10.45
1444 7.8760 112.64 120.91 10.61
1445 7.8800 112.86 121.53 10.62
1446 7.8840 115.20 122.16 10.73
1447 7.8880 115.39 122.80 10.74
1448 7.8920 117.46 123.44 10.84
1449 7.8960 117.71 124.08 10.85
1450 7.9000 121.37 124.73 11.02
1451 7.9040 122.36 125.39 11.06
1452 7.9080 121.14 126.05 11.01
1453 7.9120 137.41 126.71 11.72
1454 7.9160 142.71 127.38 11.95
1455 7.9200 142.85 128.06 11.95
1456 7.9240 136.26 128.74 11.67
1457 7.9280 136.70 129.43 11.69
1458 7.9320 129.76 130.12 11.39
1459 7.9360 122.79 130.83 11.08
1460 7.9400 119.50 131.53 10.93
1461 7.9440 124.90 132.25 11.18
1462 7.9480 117.17 132.97 10.82
1463 7.9520 114.69 133.71 10.71
1464 7.9560 122.25 134.44 11.06
1465 7.9600 123.87 135.19 11.13
1466 7.9640 119.93 135.95 10.95
1467 7.9680 127.77 136.71 11.30
1468 7.9720 126.16 137.49 11.23
1469 7.9760 127.27 138.27 11.28
1470 7.9800 132.23 139.07 11.50
1471 7.9840 124.59 139.87 11.16
1472 7.9880 129.39 140.69 11.38
1473 7.9920 134.05 141.51 11.58
1474 7.9960 129.20 142.35 11.37
1475 8.0000 122.50 143.21 11.07
1476 8.0040 124.43 143.82 11.16
1477 8.0080 129.24 144.19 11.37
1478 8.0120 128.03 144.58 11.32
1479 8.0160 128.00 144.98 11.31
1480 8.0200 127.05 145.40 11.27
1481 8.0240 133.01 145.84 11.53
1482 8.0280 132.01 146.29 11.49
1483 8.0320 129.64 146.76 11.39
1484 8.0360 132.29 147.24 11.50
1485 8.0400 132.93 147.75 11.53
1486 8.0440 133.16 148.28 11.54
1487 8.0480 133.65 148.83 11.56
1488 8.0520 139.99 149.40 11.83
1489 8.0560 139.62 149.99 11.82
1490 8.0600 145.29 150.62 12.05
1491 8.0640 144.21 151.26 12.01
1492 8.1280 172.89 166.66 13.15
1493 8.1320 176.91 168.07 13.30
1494 8.1360 184.28 169.56 13.58
1495 8.1400 179.60 171.12 13.40
1496 8.1440 183.59 172.77 13.55
1497 8.1480 189.29 174.51 13.76
1498 8.1520 193.24 176.34 13.90
1499 8.1560 196.38 178.29 14.01
1500 8.1600 208.59 180.34 14.44
1501 8.2320 264.55 252.94 16.26
1502 8.2360 262.83 260.60 16.21
1503 8.2400 263.16 268.96 16.22
1504 8.2440 250.07 278.11 15.81
1505 8.2480 266.50 288.13 16.32
1506 8.2520 265.64 299.17 16.30
1507 8.2560 266.13 311.33 16.31
1508 8.2600 287.23 324.80 16.95
1509 8.2640 285.65 339.76 16.90
1510 8.2680 294.37 356.43 17.16
1511 8.2720 329.28 375.10 18.15
1512 8.2760 311.31 396.08 17.64
1513 8.2800 364.80 419.76 19.10
1514 8.2840 401.55 446.65 20.04
1515 8.2880 437.93 477.32 20.93
1516 8.2920 568.11 512.53 23.83
1517 8.2960 611.36 553.21 24.73
1518 8.3000 622.20 600.53 24.94
1519 8.3040 579.76 656.02 24.08
1520 8.3080 662.08 721.66 25.73
1521 8.3120 719.26 800.05 26.82
1522 8.3160 771.90 894.64 27.78
1523 8.3200 977.85 1010.21 31.27
1524 8.3240 1139.69 1153.36 33.76
1525 8.3280 1320.32 1333.35 36.34
1526 8.3320 1651.96 1563.73 40.64
1527 8.3360 2063.84 1864.65 45.43
1528 8.3400 2565.74 2266.99 50.65
1529 8.3440 3280.09 2819.67 57.27
1530 8.3480 4201.98 3602.76 64.82
1531 8.3520 5402.69 4751.88 73.50
1532 8.3560 7235.66 6499.17 85.06
1533 8.3600 9667.15 9237.21 98.32
1534 8.3640 12985.50 13512.10 113.95
1535 8.3680 17550.50 19447.80 132.48
1536 8.3720 23972.00 24581.90 154.83
1537 8.3760 24280.80 23878.40 155.82
1538 8.3800 16781.10 18179.10 129.54
1539 8.3840 11903.40 12507.10 109.10
1540 8.3880 8966.04 8583.84 94.69
1541 8.3920 6439.49 6084.27 80.25
1542 8.3960 4998.47 4482.03 70.70
1543 8.4000 3916.81 3421.17 62.58
1544 8.4040 2922.17 2692.64 54.06
1545 8.4080 2351.82 2175.28 48.50
1546 8.4120 1941.97 1796.37 44.07
1547 8.4160 1551.98 1511.49 39.40
1548 8.4200 1252.44 1292.47 35.39
1549 8.4240 1106.36 1120.73 33.26
1550 8.4280 895.69 983.64 29.93
1551 8.4320 802.64 872.62 28.33
1552 8.4360 679.34 781.50 26.06
1553 8.4400 569.03 705.82 23.85
1554 8.4440 507.54 642.30 22.53
1555 8.4480 469.45 588.48 21.67
1556 8.4520 414.52 542.50 20.36
1557 8.4560 385.64 502.89 19.64
1558 8.4600 360.04 468.55 18.97
1559 8.4640 314.01 438.60 17.72
1560 8.4680 312.22 412.29 17.67
1561 8.4720 295.49 389.08 17.19
1562 8.4760 272.90 368.49 16.52
1563 8.4800 268.64 350.14 16.39
1564 8.4840 247.73 333.73 15.74
1565 8.4880 232.55 318.98 15.25
1566 8.4920 236.91 305.68 15.39
1567 8.4960 216.43 293.64 14.71
1568 8.5000 217.78 282.72 14.76
1569 8.5040 213.58 272.77 14.61
1570 8.5080 201.76 263.69 14.20
1571 8.5120 198.32 255.37 14.08
1572 8.5160 197.12 247.73 14.04
1573 8.5200 182.45 240.70 13.51
1574 8.5240 182.96 234.22 13.53
1575 8.5280 182.11 228.23 13.49
1576 8.5320 184.54 222.68 13.58
1577 8.5360 185.04 217.53 13.60
1578 8.5400 178.97 212.74 13.38
1579 8.5440 171.35 208.28 13.09
1580 8.5480 174.22 204.12 13.20
1581 8.5520 175.24 200.23 13.24
1582 8.5560 170.46 196.58 13.06
1583 8.5600 176.62 193.17 13.29
1584 8.5640 176.06 189.96 13.27
1585 8.5680 182.16 186.95 13.50
1586 8.5720 164.61 184.11 12.83
1587 8.5760 168.77 181.44 12.99
1588 8.5800 169.16 178.91 13.01
1589 8.5840 161.85 176.53 12.72
1590 8.8240 102.26 112.87 10.11
1591 8.8280 99.96 112.17 10.00
1592 8.8320 97.95 111.52 9.90
1593 8.8360 105.61 110.87 10.28
1594 8.8400 108.51 110.23 10.42
1595 8.8440 100.89 109.59 10.04
1596 8.8480 108.03 108.96 10.39
1597 8.8520 114.57 108.33 10.70
1598 8.8560 117.03 107.71 10.82
1599 8.8600 107.31 107.09 10.36
1600 8.8640 107.73 106.47 10.38
1601 8.8680 98.97 105.86 9.95
1602 8.8720 102.50 105.26 10.12
1603 8.8760 95.91 104.66 9.79
1604 8.8800 92.11 104.06 9.60
1605 8.8840 97.84 103.47 9.89
1606 8.8880 88.66 102.88 9.42
1607 8.8920 88.03 102.29 9.38
1608 9.0160 96.13 96.79 9.80
1609 9.0200 98.39 96.65 9.92
1610 9.0240 99.23 96.51 9.96
1611 9.0280 101.31 96.37 10.07
1612 9.0320 99.42 96.23 9.97
1613 9.0360 100.95 96.10 10.05
1614 9.0400 112.18 95.97 10.59
1615 9.0440 102.04 95.84 10.10
1616 9.0480 104.56 95.70 10.23
1617 9.0520 101.53 95.58 10.08
1618 9.0560 100.57 95.45 10.03
1619 9.0600 97.08 95.32 9.85
1620 9.0640 100.94 95.19 10.05
1621 9.0680 106.62 95.07 10.33
1622 9.0720 104.62 94.95 10.23
1623 9.0760 99.65 94.82 9.98
1624 9.0800 98.75 94.70 9.94
1625 9.0840 102.21 94.58 10.11
1626 9.0880 94.06 94.46 9.70
1627 9.0920 99.06 94.34 9.95
1628 9.0960 97.25 94.23 9.86
1629 9.1000 91.95 94.11 9.59
1630 9.1040 91.76 93.99 9.58
1631 9.1080 89.45 93.88 9.46
1632 9.1120 93.18 93.77 9.65
1633 9.1160 87.55 93.65 9.36
1634 9.1200 90.76 93.54 9.53
1635 9.1240 92.38 93.43 9.61
1636 9.1280 92.95 93.32 9.64
1637 9.1320 88.65 93.21 9.42
1638 9.1360 97.29 93.26 9.86
1639 9.1400 92.96 93.32 9.64
1640 9.1440 92.51 93.38 9.62
1641 9.1480 89.95 93.43 9.48
1642 9.1520 94.22 93.49 9.71
1643 9.1560 90.43 93.55 9.51
1644 9.1600 90.35 93.61 9.51
1645 9.1640 94.07 93.67 9.70
1646 9.1680 88.73 93.73 9.42
1647 9.1720 93.44 93.79 9.67
1648 9.1760 90.84 93.85 9.53
1649 9.1800 93.76 93.91 9.68
1650 9.1840 99.58 93.98 9.98
1651 9.1880 89.99 94.04 9.49
1652 9.1920 97.51 94.10 9.87
1653 9.1960 93.44 94.17 9.67
1654 9.2000 100.56 90.35 10.03
1655 9.2040 95.09 90.46 9.75
1656 9.2080 95.45 90.56 9.77
1657 9.2120 90.17 90.66 9.50
1658 9.2160 97.69 90.77 9.88
1659 9.2200 91.39 90.87 9.56
1660 9.2240 95.46 90.97 9.77
1661 9.2280 96.19 91.07 9.81
1662 10.2120 428.16 211.60 20.69
1663 10.2160 469.03 228.34 21.66
1664 10.2200 471.68 249.67 21.72
1665 10.2240 509.17 277.39 22.56
1666 10.2280 538.31 314.15 23.20
1667 10.2320 586.16 364.03 24.21
1668 10.2360 679.46 433.36 26.07
1669 10.2400 728.97 531.89 27.00
1670 10.2440 862.02 674.02 29.36
1671 10.2480 1007.52 876.91 31.74
1672 10.2520 1182.61 1145.72 34.39
1673 10.2560 1500.22 1426.86 38.73
1674 10.2600 1771.02 1566.06 42.08
1675 10.2640 1566.73 1446.67 39.58
1676 10.2680 1225.98 1170.58 35.01
1677 10.2720 968.70 897.48 31.12
1678 10.2760 824.84 689.13 28.72
1679 10.2800 722.88 542.84 26.89
1680 10.2840 616.30 441.48 24.83
1681 10.2880 568.18 370.38 23.84
1682 10.2920 487.72 319.37 22.08
1683 10.2960 437.44 281.90 20.92
1684 10.3000 400.87 253.75 20.02
1685 10.3040 385.38 232.18 19.63
1686 10.3080 340.37 215.32 18.45
1687 10.3120 338.52 201.93 18.40
1688 10.3160 319.16 191.15 17.87
1689 10.3200 297.99 182.35 17.26
1690 10.3240 290.91 175.09 17.06
1691 10.3280 272.98 169.02 16.52
1692 10.3320 279.74 163.92 16.73
1693 10.3360 262.12 159.59 16.19
1694 10.3400 245.69 155.89 15.67
1695 10.3440 254.27 152.70 15.95
1696 10.3480 230.95 149.94 15.20
1697 10.3520 232.15 147.53 15.24
1698 10.3560 229.71 145.43 15.16
1699 10.3600 225.83 143.58 15.03
1700 10.3640 226.51 141.94 15.05
1701 10.3680 217.35 140.50 14.74
1702 10.3720 219.37 139.21 14.81
1703 10.3760 213.20 138.06 14.60
1704 10.3800 213.45 137.04 14.61
1705 10.3840 209.22 136.12 14.46
1706 10.3880 220.47 135.29 14.85
1707 10.3920 219.36 134.54 14.81
1708 10.3960 211.51 133.87 14.54
1709 10.4000 201.57 133.26 14.20
1710 10.4040 193.04 132.71 13.89
1711 10.4080 195.88 132.22 14.00
1712 10.4120 190.62 131.77 13.81
1713 10.4160 181.77 131.36 13.48
1714 10.4200 192.40 130.99 13.87
1715 10.4240 185.09 130.65 13.60
1716 10.4280 174.29 130.34 13.20
1717 10.4320 184.91 130.06 13.60
1718 10.4360 176.07 129.81 13.27
1719 10.4400 170.10 129.58 13.04
1720 10.4440 169.10 129.37 13.00
1721 10.4480 171.43 129.18 13.09
1722 10.4520 165.99 129.01 12.88
1723 10.4560 161.88 128.86 12.72
1724 10.4600 162.11 128.72 12.73
1725 10.4640 163.21 128.59 12.78
1726 10.4680 165.52 128.48 12.87
1727 10.4720 160.38 128.38 12.66
1728 10.4760 157.95 128.29 12.57
1729 10.4800 158.58 128.21 12.59
1730 10.4840 155.63 128.15 12.48
1731 10.4880 152.94 128.09 12.37
1732 10.4920 156.40 128.03 12.51
1733 10.4960 151.70 127.99 12.32
1734 10.5000 166.61 127.95 12.91
1735 10.5040 176.33 127.92 13.28
1736 10.5080 156.95 127.90 12.53
1737 10.5120 156.10 127.88 12.49
1738 10.5160 144.87 127.87 12.04
1739 10.5200 157.69 127.86 12.56
1740 10.5240 140.25 127.86 11.84
1741 10.5280 149.30 127.86 12.22
1742 10.5320 136.03 127.87 11.66
1743 10.5360 141.58 127.88 11.90
1744 10.5400 140.12 127.90 11.84
1745 10.5440 140.82 127.92 11.87
1746 10.5480 135.34 127.94 11.63
1747 10.5520 142.29 127.96 11.93
1748 10.5560 137.89 127.99 11.74
1749 10.5600 142.77 128.03 11.95
1750 10.5640 136.32 128.06 11.68
1751 10.5680 135.90 128.10 11.66
1752 10.5720 137.38 128.14 11.72
1753 10.5760 140.00 128.18 11.83
1754 10.5800 137.56 128.22 11.73
1755 10.5840 128.16 128.27 11.32
1756 10.5880 137.84 128.32 11.74
1757 10.5920 136.09 128.37 11.67
1758 10.5960 130.74 128.42 11.43
1759 10.6000 137.73 128.48 11.74
1760 10.6040 128.93 128.53 11.35
1761 10.6080 131.06 128.59 11.45
1762 10.6120 129.09 128.65 11.36
1763 10.6160 127.43 128.71 11.29
1764 10.6200 132.70 128.77 11.52
1765 10.6240 127.70 128.83 11.30
1766 10.6280 126.62 128.90 11.25
1767 10.6320 129.09 128.96 11.36
1768 10.6360 124.40 128.75 11.15
1769 10.6400 124.90 128.26 11.18
1770 10.6440 130.69 127.78 11.43
1771 11.6440 206.08 209.04 14.36
1772 11.6480 215.55 208.97 14.68
1773 11.6520 197.95 208.94 14.07
1774 11.6560 198.07 208.95 14.07
1775 11.6600 209.39 209.01 14.47
1776 11.6640 195.65 209.12 13.99
1777 11.6680 193.65 209.29 13.92
1778 11.6720 190.64 209.52 13.81
1779 11.6760 200.58 209.82 14.16
1780 11.6800 198.34 210.18 14.08
1781 11.6840 187.94 210.63 13.71
1782 11.6880 202.05 211.17 14.21
1783 11.6920 190.45 211.80 13.80
1784 11.6960 196.06 212.54 14.00
1785 11.7000 200.28 213.39 14.15
1786 11.7040 192.76 214.37 13.88
1787 11.7080 199.59 215.49 14.13
1788 11.7120 195.82 216.78 13.99
1789 11.7160 196.83 218.24 14.03
1790 11.7200 192.83 219.91 13.89
1791 11.7240 204.29 221.79 14.29
1792 11.7280 204.46 223.93 14.30
1793 11.7320 198.54 226.36 14.09
1794 11.7360 216.88 229.11 14.73
1795 11.7400 206.18 232.23 14.36
1796 11.7440 208.89 235.77 14.45
1797 11.7480 204.65 239.81 14.31
1798 11.7520 210.26 244.40 14.50
1799 11.7560 211.74 249.66 14.55
1800 11.7600 219.17 255.68 14.80
1801 11.7640 235.36 262.60 15.34
1802 11.7680 225.99 270.59 15.03
1803 11.7720 250.31 279.85 15.82
1804 11.7760 250.25 290.65 15.82
1805 11.7800 262.45 303.29 16.20
1806 11.7840 286.29 318.21 16.92
1807 11.7880 287.13 335.91 16.94
1808 11.7920 319.20 357.11 17.87
1809 11.7960 356.92 382.71 18.89
1810 11.8000 364.15 413.94 19.08
1811 11.8040 427.76 452.45 20.68
1812 11.8080 452.66 500.55 21.28
1813 11.8120 556.37 561.48 23.59
1814 11.8160 664.67 639.82 25.78
1815 11.8200 712.64 742.18 26.70
1816 11.8240 902.58 878.35 30.04
1817 11.8280 1074.82 1062.38 32.78
1818 11.8320 1291.57 1314.23 35.94
1819 11.8360 1643.40 1659.47 40.54
1820 11.8400 2028.84 2120.77 45.04
1821 11.8440 2535.72 2687.73 50.36
1822 11.8480 3305.50 3248.66 57.49
1823 11.8520 4001.21 3556.19 63.26
1824 11.8560 4019.69 3410.10 63.40
1825 11.8600 2960.44 2910.65 54.41
1826 11.8640 2307.80 2323.19 48.04
1827 11.8680 1792.15 1815.14 42.33
1828 11.8720 1410.61 1426.11 37.56
1829 11.8760 1156.01 1140.40 34.00
1830 11.8800 924.66 931.72 30.41
1831 11.8840 807.22 777.79 28.41
1832 11.8880 676.91 662.38 26.02
1833 11.8920 568.63 574.29 23.85
1834 11.8960 487.41 505.89 22.08
1835 11.9000 437.50 451.85 20.92
1836 11.9040 377.11 408.49 19.42
1837 11.9080 343.66 373.21 18.54
1838 11.9120 307.83 344.15 17.55
1839 11.9160 281.36 319.89 16.77
1840 11.9200 275.73 299.76 16.61
1841 11.9240 246.47 282.36 15.70
1842 11.9280 228.49 267.40 15.12
1843 11.9320 222.73 254.46 14.92
1844 11.9360 220.30 243.15 14.84
1845 11.9400 215.57 233.21 14.68
1846 11.9440 219.11 224.40 14.80
1847 11.9480 227.89 216.56 15.10
1848 11.9520 227.95 209.54 15.10
1849 11.9560 219.14 203.21 14.80
1850 11.9600 197.10 197.48 14.04
1851 11.9640 210.57 192.26 14.51
1852 11.9680 219.51 187.49 14.82
1853 11.9720 282.93 183.11 16.82
1854 11.9760 282.40 179.08 16.80
1855 11.9800 209.99 175.34 14.49
1856 11.9840 179.85 171.87 13.41
1857 11.9880 157.65 168.63 12.56
1858 11.9920 146.78 165.60 12.12
1859 11.9960 147.33 162.75 12.14
1860 12.0000 138.68 160.07 11.78
1861 12.0040 132.24 157.55 11.50
1862 12.0080 139.00 155.15 11.79
1863 12.0120 133.77 152.88 11.57
1864 12.0160 129.81 150.72 11.39
1865 12.0200 126.69 148.65 11.26
1866 12.0240 123.66 146.68 11.12
1867 12.0280 126.71 144.79 11.26
1868 12.0320 123.34 142.97 11.11
1869 12.0360 120.09 141.23 10.96
1870 12.0400 122.42 139.54 11.06
1871 12.0440 125.42 137.92 11.20
1872 12.0480 117.07 136.34 10.82
1873 12.0520 120.34 134.82 10.97
1874 12.0560 113.30 133.34 10.64
1875 12.0600 117.80 131.90 10.85
1876 12.0640 115.49 130.51 10.75
1877 12.0680 112.30 129.14 10.60
1878 12.0720 120.09 127.81 10.96
1879 12.0760 113.37 126.52 10.65
1880 12.0800 110.60 125.25 10.52
1881 12.0840 108.05 124.00 10.39
1882 12.0880 121.33 122.93 11.01
1883 12.0920 110.63 122.02 10.52
1884 12.0960 118.35 121.13 10.88
1885 12.1000 116.78 120.26 10.81
1886 12.1040 113.26 119.41 10.64
1887 12.1080 110.72 118.58 10.52
1888 12.1120 114.35 117.76 10.69
1889 12.1160 115.95 116.97 10.77
1890 12.1200 107.80 116.18 10.38
1891 12.1240 113.25 115.41 10.64
1892 12.1280 116.18 114.66 10.78
1893 12.1320 110.84 113.92 10.53
1894 12.1360 115.96 113.18 10.77
1895 12.1400 108.30 112.46 10.41
1896 12.1440 110.21 111.75 10.50
1897 12.1480 111.14 111.05 10.54
1898 12.1520 103.33 110.36 10.16
1899 12.1560 112.01 109.68 10.58
1900 12.1600 111.61 109.01 10.56
1901 12.1640 105.44 108.35 10.27
1902 12.1680 101.93 107.69 10.10
1903 12.1720 107.62 107.04 10.37
1904 12.1760 107.80 106.39 10.38
1905 12.1800 100.38 105.85 10.02
1906 12.6360 76.83 69.71 8.77
1907 12.6400 78.14 69.44 8.84
1908 12.6440 82.59 69.17 9.09
1909 12.6480 87.30 68.90 9.34
1910 12.6520 79.27 68.63 8.90
1911 12.6560 72.69 68.37 8.53
1912 12.6600 72.03 68.10 8.49
1913 12.6640 71.79 67.84 8.47
1914 12.6680 70.83 67.57 8.42
1915 12.6720 73.03 67.31 8.55
1916 12.6760 72.65 67.04 8.52
1917 12.6800 73.69 66.78 8.58
1918 12.6840 69.99 66.52 8.37
1919 12.6880 70.88 66.26 8.42
1920 12.6920 71.35 66.00 8.45
1921 12.6960 72.61 65.74 8.52
1922 12.7000 68.48 65.48 8.28
1923 12.7040 73.38 65.22 8.57
1924 12.7080 68.12 64.96 8.25
1925 12.7120 67.05 64.70 8.19
1926 12.7160 64.12 64.45 8.01
1927 12.7200 62.88 64.19 7.93
1928 12.7240 69.61 63.93 8.34
1929 12.7280 61.44 63.68 7.84
1930 12.7320 62.30 63.43 7.89
1931 12.7360 61.20 63.17 7.82
1932 12.7400 65.94 62.92 8.12
1933 12.7440 59.88 62.67 7.74
1934 12.7480 61.35 62.42 7.83
1935 12.7520 63.88 62.17 7.99
1936 12.7560 64.53 61.92 8.03
1937 12.7600 64.51 61.67 8.03
1938 12.7640 58.85 61.43 7.67
1939 12.7680 62.45 61.18 7.90
1940 12.7720 58.22 60.94 7.63
1941 12.7760 64.99 60.69 8.06
1942 12.7800 62.21 60.79 7.89
1943 12.7840 65.83 60.90 8.11
1944 12.7880 62.14 61.00 7.88
1945 12.7920 67.86 61.11 8.24
1946 12.7960 61.22 61.21 7.82
1947 12.8000 61.29 61.32 7.83
1948 12.8040 70.43 61.43 8.39
1949 12.8080 61.28 61.54 7.83
1950 12.8120 61.95 61.65 7.87
1951 12.8160 66.16 61.76 8.13
1952 12.8200 67.15 61.88 8.19
1953 12.8240 61.98 61.99 7.87
1954 12.8280 64.86 62.11 8.05
1955 12.8320 66.79 62.23 8.17
1956 12.8360 66.97 62.35 8.18
1957 12.8400 62.02 62.47 7.88
1958 12.8440 68.01 62.59 8.25
1959 12.8480 69.86 62.72 8.36
1960 12.8520 65.12 62.85 8.07
1961 12.8560 67.47 62.98 8.21
1962 12.8600 73.20 63.11 8.56
1963 12.8640 69.18 63.24 8.32
1964 12.8680 65.48 63.38 8.09
1965 12.8720 70.58 63.52 8.40
1966 12.8760 71.29 63.66 8.44
1967 12.8800 70.47 63.80 8.39
1968 12.8840 75.43 63.95 8.69
1969 12.8880 71.24 64.10 8.44
1970 12.8920 75.42 64.25 8.68
1971 12.8960 77.63 64.40 8.81
1972 12.9000 74.25 64.56 8.62
1973 12.9040 78.53 64.72 8.86
1974 12.9080 74.13 64.89 8.61
1975 12.9120 77.15 65.06 8.78
1976 12.9160 76.30 65.23 8.74
1977 12.9200 75.14 65.40 8.67
1978 12.9240 74.64 65.58 8.64
1979 12.9280 74.46 65.77 8.63
1980 12.9320 75.82 65.95 8.71
1981 12.9360 76.31 66.15 8.74
1982 12.9400 75.67 66.34 8.70
1983 12.9440 82.48 66.55 9.08
1984 12.9480 85.72 66.76 9.26
1985 12.9520 78.19 66.97 8.84
1986 12.9560 80.51 67.19 8.97
1987 12.9600 77.99 67.42 8.83
1988 12.9640 69.25 67.65 8.32
1989 12.9680 72.72 67.89 8.53
1990 12.9720 68.77 68.13 8.29
1991 12.9760 74.20 68.39 8.61
1992 12.9800 69.36 68.65 8.33
1993 12.9840 72.86 68.92 8.54
1994 12.9880 73.28 69.21 8.56
1995 12.9920 74.81 69.50 8.65
1996 12.9960 75.96 69.80 8.72
1997 13.0000 68.94 70.11 8.30
1998 13.0040 74.67 70.43 8.64
1999 13.0080 78.26 70.77 8.85
2000 13.0120 72.63 71.12 8.52
2001 13.0160 74.73 71.49 8.64
2002 13.0200 76.09 71.86 8.72
2003 13.0240 75.98 72.26 8.72
2004 13.0280 79.90 72.67 8.94
2005 13.0320 84.01 73.10 9.17
2006 13.0360 90.03 73.55 9.49
2007 13.0400 93.59 74.03 9.67
2008 13.0440 82.95 73.99 9.11
2009 13.0480 78.61 74.51 8.87
2010 13.0520 78.14 75.06 8.84
2011 13.0560 75.94 76.44 8.71
2012 13.0600 77.84 77.05 8.82
2013 13.0640 81.43 77.70 9.02
2014 13.0680 78.48 78.38 8.86
2015 13.0720 77.89 79.10 8.83
2016 13.0760 85.66 79.87 9.26
2017 13.0800 87.65 80.68 9.36
2018 13.0840 100.82 81.54 10.04
2019 13.0880 121.08 82.46 11.00
2020 13.0920 106.62 83.44 10.33
2021 13.0960 95.16 84.49 9.76
2022 13.1000 92.58 85.61 9.62
2023 13.1040 84.85 86.81 9.21
2024 13.1080 84.27 88.10 9.18
2025 13.1120 85.43 89.49 9.24
2026 13.1160 85.44 90.99 9.24
2027 13.1200 85.59 92.62 9.25
2028 13.1240 85.38 94.39 9.24
2029 13.1280 87.18 96.31 9.34
2030 13.1320 92.70 98.40 9.63
2031 13.1360 97.27 100.69 9.86
2032 13.1400 96.15 103.21 9.81
2033 13.1440 94.26 105.98 9.71
2034 13.1480 106.21 109.04 10.31
2035 13.1520 96.00 112.44 9.80
2036 13.1560 112.20 116.22 10.59
2037 13.1600 115.31 120.45 10.74
2038 13.1640 116.22 125.20 10.78
2039 13.1680 117.42 130.56 10.84
2040 13.1720 132.43 136.65 11.51
2041 13.1760 124.32 143.58 11.15
2042 13.1800 146.56 151.54 12.11
2043 13.1840 143.66 160.74 11.99
2044 13.1880 179.14 171.43 13.38
2045 13.1920 178.22 183.96 13.35
2046 13.1960 191.49 198.77 13.84
2047 13.2000 222.18 216.42 14.91
2048 13.2040 246.29 237.69 15.69
2049 13.2080 278.10 263.57 16.68
2050 13.2120 318.07 295.42 17.83
2051 13.2160 364.38 335.16 19.09
2052 13.2200 417.74 385.40 20.44
2053 13.2240 493.72 449.78 22.22
2054 13.2280 554.99 533.40 23.56
2055 13.2320 682.58 643.38 26.13
2056 13.2360 813.22 788.95 28.52
2057 13.2400 943.60 980.75 30.72
2058 13.2440 1151.62 1226.37 33.94
2059 13.2480 1410.67 1517.03 37.56
2060 13.2520 1755.50 1804.57 41.90
2061 13.2560 2070.88 1989.45 45.51
2062 13.2600 2258.12 1976.88 47.52
2063 13.2640 1802.59 1774.21 42.46
2064 13.2680 1370.77 1482.14 37.02
2065 13.2720 1166.20 1195.31 34.15
2066 13.2760 935.42 956.25 30.58
2067 13.2800 766.28 770.54 27.68
2068 13.2840 653.35 629.85 25.56
2069 13.2880 537.38 523.56 23.18
2070 13.2920 468.89 442.66 21.65
2071 13.2960 395.22 380.33 19.88
2072 13.3000 355.07 331.64 18.84
2073 13.3040 315.26 293.10 17.76
2074 13.3080 264.64 262.18 16.27
2075 13.3120 245.55 237.05 15.67
2076 13.3160 215.78 216.41 14.69
2077 13.3200 194.21 199.28 13.94
2078 13.3240 178.09 184.92 13.35
2079 13.3280 164.85 172.78 12.84
2080 13.3320 152.84 162.43 12.36
2081 13.3360 140.20 153.55 11.84
2082 13.3400 135.70 145.87 11.65
2083 13.3440 122.48 139.20 11.07
2084 13.3480 121.89 133.36 11.04
2085 13.3520 112.18 128.23 10.59
2086 13.3560 109.56 123.70 10.47
2087 13.3600 104.00 119.68 10.20
2088 13.3640 105.15 116.10 10.25
2089 13.3680 101.24 112.90 10.06
2090 13.3720 94.83 110.02 9.74
2091 13.3760 96.53 107.44 9.82
2092 13.3800 95.25 105.10 9.76
2093 13.3840 89.55 102.99 9.46
2094 13.3880 91.18 101.07 9.55
2095 13.3920 88.54 99.32 9.41
2096 13.3960 79.10 97.73 8.89
2097 13.4000 86.61 96.27 9.31
2098 13.4040 79.82 94.94 8.93
2099 13.4080 90.40 93.71 9.51
2100 13.4120 83.90 92.59 9.16
2101 13.4160 82.07 91.55 9.06
2102 13.4200 83.25 90.59 9.12
2103 13.4240 79.72 89.71 8.93
2104 13.4280 80.21 88.89 8.96
2105 13.4320 81.49 88.13 9.03
2106 13.4360 78.20 87.43 8.84
2107 13.4400 79.38 86.78 8.91
2108 13.4440 79.09 86.18 8.89
2109 13.4480 79.74 85.61 8.93
2110 13.4520 83.89 85.09 9.16
2111 13.4560 89.45 84.60 9.46
2112 13.4600 86.55 84.15 9.30
2113 13.4640 87.06 83.73 9.33
2114 13.4680 86.64 83.33 9.31
2115 13.4720 84.23 82.96 9.18
2116 13.4760 84.68 82.62 9.20
2117 13.4800 85.15 82.30 9.23
2118 13.4840 89.86 82.00 9.48
2119 13.4880 88.98 81.72 9.43
2120 13.4920 88.09 81.45 9.39
2121 13.4960 90.26 81.21 9.50
2122 13.5000 81.95 80.98 9.05
2123 13.5040 83.03 80.77 9.11
2124 13.5080 93.08 80.57 9.65
2125 13.5120 99.42 80.38 9.97
2126 13.5160 93.55 80.21 9.67
2127 13.5200 90.69 80.04 9.52
2128 13.5240 88.68 79.89 9.42
2129 13.5280 86.68 79.75 9.31
2130 13.5320 101.01 79.62 10.05
2131 13.5360 99.97 79.50 10.00
2132 13.5400 90.29 79.39 9.50
2133 13.5440 80.60 79.28 8.98
2134 13.5480 85.68 79.19 9.26
2135 13.5520 78.59 79.10 8.87
2136 13.5560 85.20 79.02 9.23
2137 13.5600 81.49 78.94 9.03
2138 13.5640 78.50 78.87 8.86
2139 13.5680 81.00 78.81 9.00
2140 13.5720 83.76 78.75 9.15
2141 13.5760 84.02 78.70 9.17
2142 13.5800 79.74 78.66 8.93
2143 13.5840 82.65 78.62 9.09
2144 13.5880 85.03 78.58 9.22
2145 13.5920 85.77 78.55 9.26
2146 13.5960 96.50 78.52 9.82
2147 13.6000 97.94 78.50 9.90
2148 13.6040 96.71 78.48 9.83
2149 13.6080 87.10 78.46 9.33
2150 13.6120 86.52 78.45 9.30
2151 13.6160 86.72 78.44 9.31
2152 13.6200 81.79 78.44 9.04
2153 13.6240 81.65 78.44 9.04
2154 13.6280 81.68 78.44 9.04
2155 13.6320 76.29 78.44 8.73
2156 13.6360 82.28 78.45 9.07
2157 13.6400 78.86 78.46 8.88
2158 13.6440 75.87 78.48 8.71
2159 13.6480 77.15 78.49 8.78
2160 13.6520 80.11 78.51 8.95
2161 13.6560 74.09 78.53 8.61
2162 13.6600 74.37 78.55 8.62
2163 13.6640 74.71 78.58 8.64
2164 13.6680 73.23 78.61 8.56
2165 13.6720 78.36 78.64 8.85
2166 13.6760 72.28 78.67 8.50
2167 13.6800 73.20 78.65 8.56
2168 13.6840 75.54 78.57 8.69
2169 13.6880 77.48 78.50 8.80
2170 13.6920 77.14 78.42 8.78
2171 13.6960 78.62 78.35 8.87
2172 13.7000 77.54 78.28 8.81
2173 13.7040 79.15 78.22 8.90
2174 13.7080 79.64 78.15 8.92
2175 13.7120 83.56 78.09 9.14
2176 13.7160 90.28 78.03 9.50
2177 13.7200 88.15 77.96 9.39
2178 13.7240 94.37 77.91 9.71
2179 13.7280 91.62 77.85 9.57
2180 13.7320 82.28 77.79 9.07
2181 13.7360 81.56 77.74 9.03
2182 13.7400 85.75 77.68 9.26
2183 13.7440 87.08 77.63 9.33
2184 13.7480 102.05 77.58 10.10
2185 13.7520 98.69 77.53 9.93
2186 13.7560 88.87 77.48 9.43
2187 13.7600 88.46 77.44 9.41
2188 13.7640 86.67 77.39 9.31
2189 13.7680 86.67 77.35 9.31
2190 13.7720 86.57 77.31 9.30
2191 13.7760 80.72 77.26 8.98
2192 13.7800 85.02 77.22 9.22
2193 13.7840 85.75 77.18 9.26
2194 13.7880 85.79 77.15 9.26
2195 13.7920 86.31 77.11 9.29
2196 13.7960 90.20 77.07 9.50
2197 13.8000 87.80 77.04 9.37
2198 13.8040 92.50 77.01 9.62
2199 13.8080 94.13 76.98 9.70
2200 13.8120 95.62 76.95 9.78
2201 13.8160 92.28 76.92 9.61
2202 13.8200 84.94 76.89 9.22
2203 13.8240 86.64 76.86 9.31
2204 13.8280 84.77 76.83 9.21
2205 13.8320 84.61 76.81 9.20
2206 13.8360 78.63 76.79 8.87
2207 13.8400 80.64 76.76 8.98
2208 13.8440 78.82 76.74 8.88
2209 13.8480 80.93 76.72 9.00
2210 13.8520 81.21 76.70 9.01
2211 13.8560 78.19 76.69 8.84
2212 13.8600 83.71 76.67 9.15
2213 13.8640 81.63 76.65 9.04
2214 13.8680 84.82 76.64 9.21
2215 13.8720 83.35 76.63 9.13
2216 13.8760 84.57 76.62 9.20
2217 13.8800 84.98 76.61 9.22
2218 13.8840 82.09 76.60 9.06
2219 13.8880 83.33 76.59 9.13
2220 13.8920 83.44 76.58 9.13
2221 13.8960 82.21 76.58 9.07
2222 13.9000 85.04 76.57 9.22
2223 13.9040 84.37 76.57 9.19
2224 13.9080 83.02 76.57 9.11
2225 13.9120 86.40 76.57 9.30
2226 13.9160 84.36 76.57 9.18
2227 13.9200 82.29 76.58 9.07
2228 13.9240 88.60 76.58 9.41
2229 13.9280 94.61 76.59 9.73
2230 13.9320 84.02 76.60 9.17
2231 13.9360 84.77 76.61 9.21
2232 13.9400 87.86 76.62 9.37
2233 13.9440 83.11 76.63 9.12
2234 13.9480 82.77 76.64 9.10
2235 13.9520 75.94 76.66 8.71
2236 13.9560 80.46 76.68 8.97
2237 13.9600 75.07 76.70 8.66
2238 13.9640 75.98 76.72 8.72
2239 13.9680 75.51 76.74 8.69
2240 13.9720 73.49 76.77 8.57
2241 13.9760 73.19 76.79 8.55
2242 13.9800 76.66 76.82 8.76
2243 13.9840 71.43 76.85 8.45
2244 13.9880 75.67 76.89 8.70
2245 13.9920 74.91 76.92 8.65
2246 13.9960 71.29 76.96 8.44
2247 14.0000 72.21 77.00 8.50
2248 14.0040 71.30 77.04 8.44
2249 14.0080 68.80 77.08 8.29
2250 14.0120 68.27 77.13 8.26
2251 14.0160 72.08 77.18 8.49
2252 14.0200 73.16 77.23 8.55
2253 14.0240 67.09 77.28 8.19
2254 14.0280 77.50 77.38 8.80
2255 14.0320 77.17 77.50 8.78
2256 14.0360 68.37 77.61 8.27
2257 14.0400 73.29 77.73 8.56
2258 14.0440 71.44 77.86 8.45
2259 14.0480 66.87 77.98 8.18
2260 14.0520 75.23 78.11 8.67
2261 14.0560 72.53 78.25 8.52
2262 14.0600 72.97 78.38 8.54
2263 14.0640 79.54 78.52 8.92
2264 14.0680 79.22 78.67 8.90
2265 14.0720 75.07 78.81 8.66
2266 14.0760 79.77 78.96 8.93
2267 14.0800 78.55 79.12 8.86
2268 14.0840 77.96 79.28 8.83
2269 14.0880 78.00 79.44 8.83
2270 14.0920 71.64 79.61 8.46
2271 14.0960 73.17 79.78 8.55
2272 14.1000 74.49 79.96 8.63
2273 14.1040 77.16 80.14 8.78
2274 14.1080 76.04 80.33 8.72
2275 14.1120 77.98 80.52 8.83
2276 14.1160 76.62 80.72 8.75
2277 14.1200 75.51 80.93 8.69
2278 14.1240 80.46 81.14 8.97
2279 14.1280 79.47 81.35 8.91
2280 14.1320 77.59 81.57 8.81
2281 14.1360 85.64 81.80 9.25
2282 14.1400 90.92 82.04 9.54
2283 14.1440 93.65 82.28 9.68
2284 14.1480 93.31 82.54 9.66
2285 14.1520 90.25 82.79 9.50
2286 14.1560 86.88 83.06 9.32
2287 14.1600 81.28 83.34 9.02
2288 14.1640 80.60 83.62 8.98
2289 14.1680 83.59 83.92 9.14
2290 14.1720 79.88 84.22 8.94
2291 14.1760 83.32 84.53 9.13
2292 14.1800 84.76 84.86 9.21
2293 14.1840 78.58 85.19 8.86
2294 14.1880 82.34 85.54 9.07
2295 14.1920 88.71 85.90 9.42
2296 14.1960 85.98 86.27 9.27
2297 14.2000 84.38 86.66 9.19
2298 14.2040 86.69 87.06 9.31
2299 14.2080 85.03 87.47 9.22
2300 14.2120 87.86 87.90 9.37
2301 14.2160 95.33 88.35 9.76
2302 14.2200 88.28 88.81 9.40
2303 14.2240 89.86 89.29 9.48
2304 14.2280 93.68 89.79 9.68
2305 14.2320 98.48 90.31 9.92
2306 14.2360 88.16 90.85 9.39
2307 14.2400 94.53 91.42 9.72
2308 14.2440 94.80 92.00 9.74
2309 14.2480 93.16 92.61 9.65
2310 14.2520 94.72 93.25 9.73
2311 14.2560 94.11 93.91 9.70
2312 14.2600 92.15 94.61 9.60
2313 14.2640 100.44 95.33 10.02
2314 14.2680 101.72 96.09 10.09
2315 14.2720 97.55 96.88 9.88
2316 14.2760 107.48 97.71 10.37
2317 14.2800 106.03 98.58 10.30
2318 14.2840 100.66 99.50 10.03
2319 14.2880 103.02 100.45 10.15
2320 14.2920 117.07 101.46 10.82
2321 14.2960 104.64 102.51 10.23
2322 14.3000 108.78 103.62 10.43
2323 14.3040 111.81 104.79 10.57
2324 14.3080 111.73 106.02 10.57
2325 14.3120 108.68 107.32 10.42
2326 14.3160 113.04 108.69 10.63
2327 14.3200 115.28 110.14 10.74
2328 14.3240 120.57 111.68 10.98
2329 14.3280 118.01 113.30 10.86
2330 14.3320 133.54 115.02 11.56
2331 14.3360 143.92 116.85 12.00
2332 14.3400 149.00 118.79 12.21
2333 14.3440 136.68 120.86 11.69
2334 14.3480 129.50 123.06 11.38
2335 14.3520 128.07 125.41 11.32
2336 14.3560 127.05 127.93 11.27
2337 14.3600 129.20 130.61 11.37
2338 14.3640 134.25 133.50 11.59
2339 14.3680 141.61 136.59 11.90
2340 14.3720 140.64 139.92 11.86
2341 14.3760 137.45 143.50 11.72
2342 14.3800 144.85 147.37 12.04
2343 14.3840 143.02 151.55 11.96
2344 14.3880 150.06 156.09 12.25
2345 14.3920 160.09 161.02 12.65
2346 14.3960 162.73 166.38 12.76
2347 14.4000 167.07 172.23 12.93
2348 14.4040 170.77 178.63 13.07
2349 14.4080 175.92 185.66 13.26
2350 14.4120 187.87 193.39 13.71
2351 14.4160 193.64 201.92 13.92
2352 14.4200 209.31 211.37 14.47
2353 14.4240 222.16 221.86 14.91
2354 14.4280 220.65 233.57 14.85
2355 14.4320 248.29 246.67 15.76
2356 14.4360 265.81 261.40 16.30
2357 14.4400 277.35 278.04 16.65
2358 14.4440 298.65 296.93 17.28
2359 14.4480 317.59 318.47 17.82
2360 14.4520 366.46 343.18 19.14
2361 14.4560 383.55 371.72 19.58
2362 14.4600 432.11 404.89 20.79
2363 14.4640 489.92 443.68 22.13
2364 14.4680 530.89 489.45 23.04
2365 14.4720 620.08 543.87 24.90
2366 14.4760 677.87 609.20 26.04
2367 14.4800 790.35 688.35 28.11
2368 14.4840 892.34 785.34 29.87
2369 14.4880 1024.75 905.39 32.01
2370 14.4920 1229.69 1055.83 35.07
2371 14.4960 1357.85 1246.43 36.85
2372 14.5000 1607.96 1490.27 40.10
2373 14.5040 1939.81 1804.56 44.04
2374 14.5080 2159.46 2210.06 46.47
2375 14.5120 2715.20 2726.41 52.11
2376 14.5160 3082.28 3358.69 55.52
2377 14.5200 3815.86 4068.42 61.77
2378 14.5240 4586.55 4730.23 67.72
2379 14.5280 5510.64 5133.38 74.23
2380 14.5320 5603.80 5098.64 74.86
2381 14.5360 4767.03 4643.00 69.04
2382 14.5400 3766.19 3962.29 61.37
2383 14.5440 3077.69 3258.61 55.48
2384 14.5480 2527.43 2642.37 50.27
2385 14.5520 2093.24 2143.61 45.75
2386 14.5560 1800.82 1753.11 42.44
2387 14.5600 1515.93 1450.36 38.94
2388 14.5640 1274.40 1215.33 35.70
2389 14.5680 1121.83 1031.52 33.49
2390 14.5720 955.26 886.14 30.91
2391 14.5760 840.88 769.93 29.00
2392 14.5800 745.00 675.90 27.29
2393 14.5840 632.27 599.04 25.15
2394 14.5880 578.60 535.51 24.05
2395 14.5920 489.95 482.52 22.13
2396 14.5960 460.20 437.90 21.45
2397 14.6000 405.83 399.72 20.15
2398 14.6040 362.85 367.34 19.05
2399 14.6080 339.23 339.44 18.42
2400 14.6120 306.83 315.25 17.52
2401 14.6160 296.43 294.15 17.22
2402 14.6200 255.68 275.65 15.99
2403 14.6240 248.05 259.33 15.75
2404 14.6280 235.30 244.88 15.34
2405 14.6320 214.16 232.02 14.63
2406 14.6360 211.59 220.54 14.55
2407 14.6400 186.16 210.23 13.64
2408 14.6440 181.55 200.95 13.47
2409 14.6480 170.28 192.57 13.05
2410 14.6520 169.93 184.97 13.04
2411 14.6560 154.76 178.06 12.44
2412 14.6600 152.01 171.77 12.33
2413 14.6640 141.64 166.02 11.90
2414 14.6680 143.10 160.74 11.96
2415 14.6720 129.12 155.90 11.36
2416 14.6760 129.85 151.44 11.40
2417 14.6800 133.40 147.33 11.55
2418 14.6840 130.57 143.53 11.43
2419 14.6880 120.91 140.01 11.00
2420 14.6920 123.64 136.74 11.12
2421 14.6960 124.54 133.70 11.16
2422 14.7000 116.94 130.87 10.81
2423 14.7040 120.46 128.24 10.98
2424 14.7080 124.18 125.77 11.14
2425 14.7120 120.49 123.47 10.98
2426 14.7160 116.72 121.31 10.80
2427 14.7200 111.73 119.28 10.57
2428 14.7240 106.06 117.38 10.30
2429 14.7280 105.60 115.59 10.28
2430 14.7320 103.46 113.91 10.17
2431 14.7360 105.21 112.32 10.26
2432 14.7400 100.76 110.82 10.04
2433 14.7440 106.36 109.41 10.31
2434 14.7480 104.63 108.07 10.23
2435 14.7520 90.65 106.80 9.52
2436 14.7560 98.22 105.60 9.91
2437 14.7600 90.73 104.46 9.53
2438 14.7640 87.80 103.38 9.37
2439 14.7680 96.12 102.36 9.80
2440 14.7720 86.44 101.38 9.30
2441 14.7760 82.80 100.46 9.10
2442 14.7800 81.91 99.57 9.05
2443 14.7840 81.72 98.73 9.04
2444 14.7880 83.69 97.93 9.15
2445 14.7920 75.79 97.16 8.71
2446 14.7960 85.03 96.43 9.22
2447 14.8000 78.79 95.74 8.88
2448 14.8040 76.52 95.07 8.75
2449 14.8080 76.83 94.43 8.77
2450 14.8120 82.12 93.82 9.06
2451 14.8160 79.33 93.23 8.91
2452 14.8200 83.13 92.67 9.12
2453 14.8240 78.89 92.13 8.88
2454 14.8280 81.70 91.62 9.04
2455 14.8320 81.84 91.12 9.05
2456 14.8360 73.67 90.65 8.58
2457 14.8400 75.62 90.19 8.70
2458 14.8440 79.53 89.75 8.92
2459 14.8480 80.85 89.33 8.99
2460 14.8520 82.21 88.92 9.07
2461 14.8560 78.82 88.53 8.88
2462 14.8600 77.14 88.16 8.78
2463 14.8640 77.50 87.79 8.80
2464 14.8680 79.80 87.44 8.93
2465 14.8720 80.76 87.11 8.99
2466 14.8760 78.41 86.78 8.86
2467 14.8800 79.53 86.47 8.92
2468 14.8840 76.90 86.17 8.77
2469 14.8880 83.47 85.87 9.14
2470 14.8920 81.38 85.59 9.02
2471 14.8960 81.76 85.32 9.04
2472 14.9000 86.55 85.06 9.30
2473 14.9040 88.49 84.80 9.41
2474 14.9080 80.84 84.56 8.99
2475 14.9120 79.35 84.32 8.91
2476 14.9160 84.77 84.09 9.21
2477 14.9200 77.95 83.87 8.83
2478 14.9240 79.07 83.65 8.89
2479 14.9280 79.38 83.44 8.91
2480 14.9320 76.84 83.24 8.77
2481 14.9360 80.16 83.04 8.95
2482 14.9400 77.42 82.86 8.80
2483 14.9440 77.10 82.67 8.78
2484 14.9480 74.92 82.49 8.66
2485 14.9520 83.46 82.32 9.14
2486 14.9560 80.15 82.15 8.95
2487 14.9600 86.54 81.99 9.30
2488 14.9640 83.01 81.83 9.11
2489 14.9680 87.07 81.68 9.33
2490 14.9720 83.31 81.53 9.13
2491 14.9760 82.80 81.39 9.10
2492 14.9800 79.04 81.25 8.89
2493 14.9840 77.15 81.11 8.78
2494 14.9880 80.38 80.98 8.97
2495 14.9920 80.37 80.85 8.97
2496 14.9960 83.78 80.72 9.15
2497 15.0000 77.25 80.60 8.79
2498 15.0040 78.59 80.48 8.87
2499 15.0080 77.58 80.37 8.81
2500 15.0120 78.40 80.26 8.85
2501 15.0160 79.04 80.15 8.89
2502 15.0200 77.01 80.04 8.78
2503 15.0240 73.56 79.94 8.58
2504 15.0280 74.99 79.84 8.66
2505 15.0320 75.12 79.74 8.67
2506 15.0360 70.05 79.65 8.37
2507 15.0400 75.74 79.49 8.70
2508 15.0440 76.35 79.31 8.74
2509 15.0480 78.77 79.14 8.88
2510 15.0520 76.71 78.96 8.76
2511 15.0560 76.13 78.79 8.73
2512 15.0600 72.77 78.62 8.53
2513 15.0640 73.92 78.46 8.60
2514 15.0680 76.05 78.29 8.72
2515 15.0720 75.67 78.13 8.70
2516 15.0760 69.49 77.97 8.34
2517 15.0800 71.61 78.02 8.46
2518 15.0840 79.68 77.86 8.93
2519 15.0880 77.01 77.71 8.78
2520 15.0920 84.95 77.56 9.22
2521 15.0960 82.19 77.41 9.07
2522 15.1000 91.11 77.26 9.55
2523 15.1040 94.62 77.11 9.73
2524 15.1080 88.73 76.96 9.42
2525 15.1120 81.51 76.82 9.03
2526 15.1160 75.98 76.67 8.72
2527 15.1200 74.73 76.53 8.64
2528 15.1240 74.21 76.39 8.61
2529 15.1280 69.58 76.25 8.34
2530 15.1320 75.26 76.11 8.68
2531 15.1360 73.58 75.98 8.58
2532 15.1400 75.71 75.84 8.70
2533 15.1440 69.61 75.71 8.34
2534 15.1480 74.27 75.57 8.62
2535 15.1520 69.69 75.44 8.35
2536 15.1560 72.17 75.31 8.50
2537 15.1600 71.40 75.18 8.45
2538 15.1640 72.88 75.05 8.54
2539 15.1680 73.80 74.93 8.59
2540 15.1720 75.78 74.80 8.70
2541 15.1760 66.85 74.67 8.18
2542 15.1800 71.39 74.55 8.45
2543 15.1840 68.42 74.43 8.27
2544 15.1880 66.21 74.30 8.14
2545 15.1920 70.93 74.18 8.42
2546 15.1960 67.24 74.06 8.20
2547 15.2000 72.77 73.94 8.53
2548 15.2040 68.18 73.82 8.26
2549 15.2080 73.78 73.70 8.59
2550 15.2120 73.64 73.58 8.58
2551 15.2160 71.60 73.47 8.46
2552 15.2200 71.57 73.35 8.46
2553 15.2240 70.18 73.24 8.38
2554 15.2280 71.76 73.12 8.47
2555 15.2320 67.46 73.01 8.21
2556 15.2360 70.56 72.89 8.40
2557 15.2400 68.78 72.78 8.29
2558 15.2440 70.44 72.67 8.39
2559 15.2480 70.40 72.56 8.39
2560 15.2520 70.65 72.45 8.41
2561 15.2560 70.17 72.34 8.38
2562 15.2600 68.65 72.23 8.29
2563 15.2640 71.92 72.12 8.48
2564 15.2680 69.79 72.01 8.35
2565 15.2720 74.05 71.90 8.61
2566 15.2760 77.70 71.79 8.81
2567 15.2800 80.82 71.69 8.99
2568 15.2840 81.34 71.58 9.02
2569 15.2880 75.91 71.48 8.71
2570 15.2920 73.73 71.37 8.59
2571 15.2960 73.70 71.27 8.58
2572 15.3000 68.09 71.16 8.25
2573 15.3040 68.90 71.06 8.30
2574 15.3080 72.33 70.96 8.50
2575 15.3120 70.46 70.85 8.39
2576 15.3160 69.86 70.75 8.36
2577 15.3200 69.55 70.65 8.34
2578 15.3240 74.38 70.55 8.62
2579 15.3280 68.33 70.45 8.27
2580 15.3320 67.94 70.35 8.24
2581 15.3360 72.52 70.25 8.52
2582 15.3400 71.84 70.15 8.48
2583 15.3440 69.31 70.05 8.33
2584 15.3480 68.17 69.95 8.26
2585 15.3520 70.98 69.85 8.42
2586 15.3560 70.10 69.75 8.37
2587 15.3600 68.20 69.66 8.26
2588 15.3640 73.01 69.56 8.54
2589 15.3680 68.59 69.46 8.28
2590 15.3720 71.71 69.36 8.47
2591 15.3760 72.34 69.27 8.51
2592 15.3800 70.37 69.17 8.39
2593 15.3840 69.32 69.08 8.33
2594 15.3880 66.71 68.98 8.17
2595 15.3920 67.38 68.89 8.21
2596 15.3960 70.99 68.79 8.43
2597 15.4000 72.27 68.70 8.50
2598 15.4040 70.04 68.60 8.37
2599 15.4080 65.72 68.51 8.11
2600 15.4120 70.63 68.42 8.40
2601 15.4160 65.27 68.32 8.08
2602 15.4200 67.74 68.23 8.23
2603 15.4240 74.99 68.33 8.66
2604 15.4280 71.45 68.43 8.45
2605 15.4320 69.90 68.53 8.36
2606 15.4360 66.97 68.63 8.18
2607 15.4400 71.27 68.73 8.44
2608 15.4440 68.77 68.83 8.29
2609 15.4480 73.65 68.93 8.58
2610 15.4520 75.39 69.03 8.68
2611 15.4560 70.08 69.13 8.37
2612 15.4600 72.42 69.23 8.51
2613 15.4640 69.31 69.33 8.33
2614 15.4680 73.61 69.44 8.58
2615 15.4720 71.82 69.54 8.47
2616 15.4760 69.14 69.64 8.32
2617 15.4800 73.94 69.74 8.60
2618 15.4840 69.25 69.85 8.32
2619 15.4880 75.42 69.95 8.68
2620 15.4920 71.00 70.05 8.43
2621 15.4960 75.99 70.15 8.72
2622 15.5000 68.35 70.26 8.27
2623 15.5040 74.56 70.36 8.64
2624 15.5080 71.78 70.47 8.47
2625 15.5120 72.32 70.57 8.50
2626 15.5160 73.25 70.67 8.56
2627 15.5200 68.40 70.78 8.27
2628 15.5240 71.12 70.88 8.43
2629 15.5280 72.86 70.99 8.54
2630 15.5320 70.56 71.09 8.40
2631 15.5360 75.17 71.20 8.67
2632 15.5400 72.02 71.31 8.49
2633 15.5440 73.56 71.41 8.58
2634 15.5480 74.27 71.52 8.62
2635 15.5520 79.79 71.62 8.93
2636 15.5560 74.81 71.73 8.65
2637 15.5600 73.12 71.84 8.55
2638 15.5640 77.13 71.94 8.78
2639 15.5680 86.46 72.05 9.30
2640 15.5720 80.12 72.16 8.95
2641 15.5760 88.42 72.26 9.40
2642 15.5800 99.24 72.37 9.96
2643 15.5840 105.39 72.48 10.27
2644 15.5880 103.00 72.59 10.15
2645 15.5920 91.08 72.69 9.54
2646 15.5960 88.61 72.80 9.41
2647 15.6000 78.75 72.91 8.87
2648 15.6040 83.17 73.02 9.12
2649 15.6080 80.96 73.13 9.00
2650 15.6120 72.54 73.24 8.52
2651 15.6160 72.62 73.34 8.52
2652 15.6200 78.26 73.45 8.85
2653 15.6240 79.03 73.56 8.89
2654 15.6280 75.14 73.67 8.67
2655 15.6320 76.80 73.78 8.76
2656 15.6360 79.63 73.89 8.92
2657 15.6400 81.55 74.00 9.03
2658 15.6440 79.72 74.11 8.93
2659 15.6480 81.44 74.22 9.02
2660 15.6520 77.47 74.33 8.80
2661 15.6560 75.38 74.44 8.68
2662 15.6600 78.35 74.55 8.85
2663 15.6640 76.81 74.66 8.76
2664 15.6680 72.92 74.77 8.54
2665 15.6720 76.42 74.88 8.74
2666 15.6760 78.43 74.99 8.86
2667 15.6800 79.84 75.10 8.94
2668 15.6840 76.01 75.21 8.72
2669 15.6880 81.49 75.33 9.03
2670 15.6920 82.47 75.44 9.08
2671 15.6960 76.63 75.55 8.75
2672 15.7000 79.12 75.66 8.89
2673 15.7040 77.10 75.77 8.78
2674 15.7080 74.13 75.88 8.61
2675 15.7120 77.02 76.00 8.78
2676 15.7160 74.47 76.11 8.63
2677 15.7200 77.82 76.22 8.82
2678 15.7240 80.14 76.42 8.95
2679 15.7280 78.10 76.85 8.84
2680 15.7320 79.30 77.29 8.90
2681 15.7360 77.89 77.73 8.83
2682 15.7400 75.75 78.17 8.70
2683 15.7440 77.84 78.61 8.82
2684 15.7480 75.34 79.05 8.68
2685 15.7520 74.23 79.48 8.62
2686 15.7560 81.44 79.92 9.02
2687 15.7600 79.08 80.36 8.89
2688 15.7640 77.13 80.80 8.78
2689 15.7680 79.35 81.24 8.91
2690 15.7720 76.52 81.68 8.75
2691 15.7760 83.47 82.12 9.14
2692 15.7800 73.69 82.56 8.58
2693 15.7840 76.40 83.00 8.74
2694 15.7880 83.29 83.44 9.13
2695 15.7920 83.00 83.88 9.11
2696 15.7960 82.38 84.32 9.08
2697 15.8000 82.83 84.76 9.10
2698 15.8040 83.11 85.20 9.12
2699 15.8080 90.14 85.64 9.49
2700 15.8120 87.10 86.08 9.33
2701 15.8160 82.66 86.52 9.09
2702 15.8200 81.31 86.96 9.02
2703 15.8240 83.95 87.41 9.16
2704 15.8280 75.91 87.85 8.71
2705 15.8320 86.20 88.29 9.28
2706 15.8360 85.40 88.73 9.24
2707 15.8400 84.93 89.17 9.22
2708 15.8440 84.12 89.61 9.17
2709 15.8480 76.65 90.05 8.76
2710 15.8520 82.00 90.50 9.06
2711 15.8560 89.87 90.94 9.48
2712 15.8600 81.88 91.38 9.05
2713 15.8640 88.24 91.82 9.39
2714 15.8680 87.82 92.27 9.37
2715 15.8720 89.70 92.71 9.47
2716 15.8760 96.74 93.15 9.84
2717 15.8800 90.94 93.59 9.54
2718 15.8840 86.52 94.04 9.30
2719 15.8880 94.97 94.48 9.75
2720 15.8920 98.20 94.92 9.91
2721 15.8960 90.88 95.37 9.53
2722 15.9000 92.81 95.81 9.63
2723 15.9040 96.10 96.26 9.80
2724 15.9080 97.69 96.70 9.88
2725 15.9120 100.81 97.14 10.04
2726 15.9160 94.76 97.59 9.73
2727 15.9200 98.60 98.03 9.93
2728 15.9240 99.75 98.48 9.99
2729 15.9280 96.82 98.92 9.84
2730 15.9320 97.38 99.37 9.87
2731 15.9360 96.63 99.81 9.83
2732 15.9400 101.02 100.26 10.05
2733 15.9440 102.64 100.70 10.13
2734 15.9480 101.39 101.15 10.07
2735 15.9520 99.89 101.59 9.99
2736 15.9560 102.40 102.04 10.12
2737 15.9600 103.65 102.48 10.18
2738 15.9640 99.87 102.93 9.99
2739 15.9680 106.08 103.38 10.30
2740 15.9720 110.20 103.82 10.50
2741 15.9760 114.82 104.27 10.72
2742 15.9800 107.31 104.72 10.36
2743 15.9840 113.00 105.16 10.63
2744 15.9880 110.30 105.61 10.50
2745 15.9920 110.07 106.06 10.49
2746 15.9960 116.73 106.61 10.80
2747 16.0000 106.90 107.06 10.34
2748 16.0040 109.93 106.71 10.48
2749 16.0080 110.08 107.30 10.49
2750 16.0120 118.51 108.32 10.89
2751 16.0160 115.15 109.35 10.73
2752 16.0200 117.28 110.37 10.83
2753 16.0240 123.35 111.39 11.11
2754 16.0280 119.65 112.41 10.94
2755 16.0320 122.02 113.43 11.05
2756 16.0360 122.77 114.46 11.08
2757 16.0400 119.58 115.48 10.94
2758 16.0440 127.28 116.50 11.28
2759 16.0480 119.32 117.52 10.92
2760 16.0520 129.64 118.55 11.39
2761 16.0560 128.93 119.57 11.35
2762 16.0600 122.63 120.59 11.07
2763 16.0640 128.49 121.62 11.34
2764 16.0680 137.34 122.64 11.72
2765 16.0720 126.03 123.67 11.23
2766 16.0760 133.05 124.69 11.53
2767 16.0800 123.52 125.71 11.11
2768 16.0840 131.39 126.74 11.46
2769 16.0880 132.45 127.76 11.51
2770 16.0920 130.58 128.79 11.43
2771 16.0960 134.02 129.81 11.58
2772 16.1000 129.28 130.84 11.37
2773 16.1040 134.77 131.87 11.61
2774 16.1080 134.27 132.89 11.59
2775 16.1120 131.20 133.92 11.45
2776 16.1160 141.09 134.95 11.88
2777 16.1200 136.48 135.97 11.68
2778 16.1240 131.89 137.00 11.48
2779 16.1280 148.45 138.03 12.18
2780 16.1320 141.03 139.05 11.88
2781 16.1360 146.71 140.08 12.11
2782 16.1400 148.09 141.11 12.17
2783 16.1440 150.83 142.14 12.28
2784 16.1480 141.15 143.17 11.88
2785 16.1520 148.42 144.20 12.18
2786 16.1560 151.90 145.23 12.32
2787 16.1600 145.11 146.26 12.05
2788 16.1640 138.48 147.29 11.77
2789 16.1680 152.30 148.32 12.34
2790 16.1720 132.54 149.35 11.51
2791 16.1760 150.33 150.39 12.26
2792 16.1800 148.31 151.42 12.18
2793 16.1840 149.06 152.45 12.21
2794 16.1880 150.24 153.48 12.26
2795 16.1920 153.97 154.52 12.41
2796 16.1960 151.63 155.55 12.31
2797 16.2000 152.96 156.59 12.37
2798 16.2040 154.32 157.62 12.42
2799 16.2080 152.56 158.66 12.35
2800 16.2120 165.67 159.69 12.87
2801 16.2160 159.00 160.73 12.61
2802 16.2200 153.93 161.77 12.41
2803 16.2240 155.61 162.80 12.47
2804 16.2280 163.18 163.84 12.77
2805 16.2320 163.52 164.88 12.79
2806 16.2360 167.18 165.92 12.93
2807 16.2400 161.24 166.96 12.70
2808 16.2440 168.18 168.00 12.97
2809 16.2480 165.14 169.04 12.85
2810 16.2520 172.55 170.09 13.14
2811 16.2560 170.18 171.13 13.05
2812 16.2600 163.03 172.17 12.77
2813 16.2640 167.40 173.21 12.94
2814 16.2680 168.93 174.26 13.00
2815 16.2720 168.50 175.30 12.98
2816 16.2760 180.14 176.35 13.42
2817 16.2800 168.33 177.40 12.97
2818 16.2840 173.97 178.45 13.19
2819 16.2880 172.04 179.50 13.12
2820 16.2920 170.56 180.55 13.06
2821 16.2960 176.29 181.60 13.28
2822 16.3000 177.62 182.65 13.33
2823 16.3040 178.50 183.70 13.36
2824 16.3080 177.05 184.76 13.31
2825 16.3120 189.41 185.81 13.76
2826 16.3160 188.19 186.87 13.72
2827 16.3200 187.55 187.93 13.69
2828 16.3240 184.96 188.98 13.60
2829 16.3280 191.32 190.04 13.83
2830 16.3320 191.66 191.10 13.84
2831 16.3360 190.12 192.17 13.79
2832 16.3400 188.77 193.23 13.74
2833 16.3440 194.88 194.29 13.96
2834 16.3480 185.07 195.36 13.60
2835 16.3520 186.41 196.43 13.65
2836 16.3560 193.16 196.40 13.90
2837 16.3600 191.08 195.29 13.82
2838 16.3640 192.02 194.17 13.86
2839 16.3680 196.72 193.05 14.03
2840 16.3720 179.21 191.94 13.39
2841 16.3760 189.80 190.83 13.78
2842 16.3800 180.82 189.72 13.45
2843 16.3840 185.80 188.61 13.63
2844 16.3880 180.35 187.51 13.43
2845 16.3920 182.19 186.40 13.50
2846 16.3960 179.88 185.30 13.41
2847 16.4000 177.10 184.20 13.31
2848 16.4040 176.92 183.11 13.30
2849 16.4080 181.22 182.01 13.46
2850 16.4120 181.08 180.92 13.46
2851 16.4160 181.28 179.83 13.46
2852 16.4200 182.42 178.75 13.51
2853 16.4240 168.87 177.67 12.99
2854 16.4280 183.59 176.59 13.55
2855 16.4320 170.98 175.51 13.08
2856 16.4360 165.48 174.44 12.86
2857 16.4400 174.94 173.37 13.23
2858 16.4440 169.59 172.31 13.02
2859 16.4480 155.76 171.25 12.48
2860 16.4520 167.29 170.19 12.93
2861 16.4560 169.25 169.14 13.01
2862 16.4600 156.28 168.09 12.50
2863 16.4640 157.58 167.05 12.55
2864 16.4680 163.73 166.01 12.80
2865 16.4720 159.22 164.98 12.62
2866 16.4760 162.76 163.95 12.76
2867 16.4800 160.61 162.93 12.67
2868 16.4840 156.31 161.91 12.50
2869 16.4880 162.90 160.90 12.76
2870 16.4920 155.94 159.90 12.49
2871 16.4960 153.61 158.90 12.39
2872 16.5000 159.58 157.92 12.63
2873 16.5040 149.34 156.94 12.22
2874 16.5080 155.23 155.97 12.46
2875 16.5120 156.02 155.01 12.49
2876 16.5160 142.99 154.05 11.96
2877 16.5200 153.64 153.11 12.40
2878 16.5240 145.12 152.18 12.05
2879 16.5280 146.77 151.26 12.11
2880 16.5320 149.76 150.35 12.24
2881 16.5360 150.22 149.45 12.26
2882 16.5400 144.07 148.56 12.00
2883 16.5440 149.73 147.70 12.24
2884 16.5480 141.34 146.84 11.89
2885 16.5520 148.13 146.00 12.17
2886 16.5560 137.12 145.18 11.71
2887 16.5600 140.55 144.38 11.86
2888 16.5640 143.46 143.60 11.98
2889 16.5680 140.07 142.83 11.84
2890 16.5720 144.32 142.09 12.01
2891 16.5760 137.13 141.38 11.71
2892 16.5800 138.84 140.69 11.78
2893 16.5840 139.26 140.03 11.80
2894 16.5880 131.38 139.40 11.46
2895 16.5920 136.80 138.80 11.70
2896 16.5960 141.12 138.23 11.88
2897 16.6000 140.05 137.71 11.83
2898 16.6040 142.99 137.60 11.96
2899 16.6080 133.09 137.92 11.54
2900 16.6120 134.10 138.29 11.58
2901 16.6160 128.73 138.72 11.35
2902 16.6200 132.11 139.20 11.49
2903 16.6240 136.91 139.74 11.70
2904 16.6280 137.21 140.36 11.71
2905 16.6320 139.04 141.04 11.79
2906 16.6360 136.12 141.82 11.67
2907 16.6400 134.29 142.68 11.59
2908 16.6440 141.63 143.65 11.90
2909 16.6480 140.49 144.73 11.85
2910 16.6520 138.97 145.94 11.79
2911 16.6560 136.24 147.29 11.67
2912 16.6600 143.60 148.79 11.98
2913 16.6640 140.90 150.47 11.87
2914 16.6680 139.39 152.35 11.81
2915 16.6720 150.71 154.44 12.28
2916 16.6760 146.30 156.79 12.10
2917 16.6800 151.19 159.43 12.30
2918 16.6840 162.38 162.40 12.74
2919 16.6880 153.32 165.73 12.38
2920 16.6920 158.38 169.50 12.59
2921 16.6960 173.62 173.76 13.18
2922 16.7000 165.66 178.61 12.87
2923 16.7040 182.71 184.13 13.52
2924 16.7080 196.87 190.44 14.03
2925 16.7120 180.85 197.69 13.45
2926 16.7160 204.37 206.06 14.30
2927 16.7200 224.74 215.76 14.99
2928 16.7240 222.06 227.08 14.90
2929 16.7280 257.78 240.35 16.06
2930 16.7320 270.15 256.01 16.44
2931 16.7360 276.10 274.63 16.62
2932 16.7400 331.92 296.93 18.22
2933 16.7440 337.01 323.83 18.36
2934 16.7480 376.25 356.57 19.40
2935 16.7520 415.94 396.73 20.39
2936 16.7560 473.11 446.35 21.75
2937 16.7600 514.29 508.01 22.68
2938 16.7640 601.03 584.89 24.52
2939 16.7680 656.98 680.58 25.63
2940 16.7720 768.24 798.12 27.72
2941 16.7760 882.46 938.32 29.71
2942 16.7800 1014.07 1095.86 31.84
2943 16.7840 1219.96 1253.43 34.93
2944 16.7880 1370.74 1379.78 37.02
2945 16.7920 1585.13 1437.57 39.81
2946 16.7960 1555.65 1405.89 39.44
2947 16.8000 1319.92 1296.26 36.33
2948 16.8040 1070.62 1143.55 32.72
2949 16.8080 945.64 982.68 30.75
2950 16.8120 771.81 835.30 27.78
2951 16.8160 684.44 709.77 26.16
2952 16.8200 570.20 606.73 23.88
2953 16.8240 535.61 523.57 23.14
2954 16.8280 453.63 456.70 21.30
2955 16.8320 397.49 402.81 19.94
2956 16.8360 380.54 359.15 19.51
2957 16.8400 330.42 323.46 18.18
2958 16.8440 309.03 294.07 17.58
2959 16.8480 269.80 269.62 16.43
2960 16.8520 250.24 249.11 15.82
2961 16.8560 230.57 231.76 15.18
2962 16.8600 224.11 216.97 14.97
2963 16.8640 197.02 204.49 14.04
2964 16.8680 178.44 193.49 13.36
2965 16.8720 181.24 183.91 13.46
2966 16.8760 160.76 175.50 12.68
2967 16.8800 160.03 168.08 12.65
2968 16.8840 149.10 161.50 12.21
2969 16.8880 137.69 155.63 11.73
2970 16.8920 137.05 150.36 11.71
2971 16.8960 136.08 145.62 11.67
2972 16.9000 127.10 141.32 11.27
2973 16.9040 125.61 137.42 11.21
2974 16.9080 124.93 133.86 11.18
2975 16.9120 110.99 130.59 10.54
2976 16.9160 113.95 127.59 10.67
2977 16.9200 115.31 124.82 10.74
2978 16.9240 111.09 122.25 10.54
2979 16.9280 109.81 119.87 10.48
2980 16.9320 112.91 117.64 10.63
2981 16.9360 104.71 115.57 10.23
2982 16.9400 101.22 113.62 10.06
2983 16.9440 98.29 111.79 9.91
2984 16.9480 94.66 110.06 9.73
2985 16.9520 94.99 108.43 9.75
2986 16.9560 96.27 106.89 9.81
2987 16.9600 90.22 105.43 9.50
2988 16.9640 90.33 104.03 9.50
2989 16.9680 85.99 102.70 9.27
2990 16.9720 86.34 101.43 9.29
2991 16.9760 84.14 100.22 9.17
2992 16.9800 80.16 99.05 8.95
2993 16.9840 86.22 97.94 9.29
2994 16.9880 80.23 96.86 8.96
2995 16.9920 82.46 95.82 9.08
2996 16.9960 77.14 94.82 8.78
2997 17.0000 78.28 93.85 8.85
2998 17.0040 79.22 92.92 8.90
2999 17.0080 77.30 92.01 8.79
3000 17.0120 72.15 91.13 8.49
3001 17.0160 73.31 90.27 8.56
3002 17.0200 80.13 89.44 8.95
3003 17.0240 72.48 88.62 8.51
3004 17.0280 77.12 87.83 8.78
3005 17.0320 79.47 87.06 8.91
3006 17.0360 68.66 86.30 8.29
3007 17.0400 75.36 85.57 8.68
3008 17.0440 74.88 84.84 8.65
3009 17.0480 67.66 84.13 8.23
3010 17.0520 73.10 83.44 8.55
3011 17.0560 69.81 82.76 8.36
3012 17.0600 68.34 82.09 8.27
3013 17.0640 71.83 81.43 8.47
3014 17.0680 73.20 80.78 8.56
3015 17.0720 73.48 80.14 8.57
3016 17.0760 72.08 79.51 8.49
3017 17.0800 68.53 78.89 8.28
3018 17.0840 67.26 78.28 8.20
3019 17.0880 64.44 77.68 8.03
3020 17.0920 63.86 77.09 7.99
3021 17.0960 68.03 76.50 8.25
3022 17.1000 63.64 75.92 7.98
3023 17.1040 69.39 75.35 8.33
3024 17.1080 66.79 74.78 8.17
3025 17.1120 65.38 74.22 8.09
3026 17.1160 70.99 73.66 8.43
3027 17.1200 67.46 73.11 8.21
3028 17.1240 62.36 72.57 7.90
3029 17.1280 65.83 72.03 8.11
3030 17.1320 66.65 71.49 8.16
3031 17.1360 66.02 70.96 8.13
3032 17.1400 68.95 70.44 8.30
3033 17.1440 66.01 69.92 8.12
3034 17.1480 71.06 69.40 8.43
3035 17.1520 68.12 68.88 8.25
3036 17.1560 65.90 68.37 8.12
3037 17.1600 66.82 67.87 8.17
3038 17.1640 64.54 67.57 8.03
3039 17.1680 64.01 67.49 8.00
3040 17.1720 67.88 67.41 8.24
3041 17.1760 59.41 67.33 7.71
3042 17.1800 64.32 67.26 8.02
3043 17.1840 62.39 67.19 7.90
3044 17.1880 64.22 67.12 8.01
3045 17.1920 66.19 67.06 8.14
3046 17.1960 67.38 66.99 8.21
3047 17.2000 63.14 66.93 7.95
3048 17.2040 61.62 66.88 7.85
3049 17.2080 61.79 66.82 7.86
3050 17.2120 63.39 66.77 7.96
3051 17.2160 64.45 66.72 8.03
3052 17.2200 64.59 66.67 8.04
3053 17.2240 68.47 66.62 8.27
3054 17.2280 57.81 66.58 7.60
3055 17.2320 64.36 66.53 8.02
3056 17.2360 64.58 66.49 8.04
3057 17.2400 61.17 66.45 7.82
3058 17.2440 59.61 66.41 7.72
3059 17.2480 59.00 66.38 7.68
3060 17.2520 62.69 66.34 7.92
3061 17.2560 57.40 66.31 7.58
3062 17.2600 60.61 66.28 7.79
3063 17.2640 61.41 66.25 7.84
3064 17.2680 61.98 66.22 7.87
3065 17.2720 60.69 66.20 7.79
3066 17.2760 64.72 66.17 8.04
3067 17.2800 60.03 66.15 7.75
3068 17.2840 65.59 66.13 8.10
3069 17.2880 65.96 66.11 8.12
3070 17.2920 63.15 66.09 7.95
3071 17.2960 64.21 66.07 8.01
3072 17.3000 60.04 66.06 7.75
3073 17.3040 67.38 66.04 8.21
3074 17.3080 61.94 66.03 7.87
3075 17.3120 60.66 66.01 7.79
3076 17.3160 63.31 66.00 7.96
3077 17.3200 64.97 65.99 8.06
3078 17.3240 62.19 65.99 7.89
3079 17.3280 60.92 65.98 7.80
3080 17.3320 65.02 65.97 8.06
3081 17.3360 60.18 65.97 7.76
3082 17.3400 62.60 65.97 7.91
3083 17.3440 66.07 65.97 8.13
3084 17.3480 69.54 65.97 8.34
3085 17.3520 64.94 65.97 8.06
3086 17.3560 63.60 65.97 7.97
3087 17.3600 69.46 65.97 8.33
3088 17.3640 65.41 65.98 8.09
3089 17.3680 64.33 65.98 8.02
3090 17.3720 70.50 65.99 8.40
3091 17.3760 64.73 66.00 8.05
3092 17.3800 69.94 66.01 8.36
3093 17.3840 74.31 66.02 8.62
3094 17.3880 66.63 66.04 8.16
3095 17.3920 68.96 66.05 8.30
3096 17.3960 70.94 66.07 8.42
3097 17.4000 74.03 66.09 8.60
3098 17.4040 80.39 66.10 8.97
3099 17.4080 81.72 66.13 9.04
3100 17.4120 86.22 66.15 9.29
3101 17.4160 77.53 66.17 8.81
3102 17.4200 69.95 66.20 8.36
3103 17.4240 80.45 66.23 8.97
3104 17.4280 71.34 66.26 8.45
3105 17.4320 68.86 66.29 8.30
3106 17.4360 82.09 66.32 9.06
3107 17.4400 73.19 66.35 8.55
3108 17.4440 74.81 66.39 8.65
3109 17.4480 68.53 66.43 8.28
3110 17.4520 68.99 66.47 8.31
3111 17.4560 72.12 66.51 8.49
3112 17.4600 63.84 66.56 7.99
3113 17.4640 67.73 66.61 8.23
3114 17.4680 70.94 66.66 8.42
3115 17.4720 66.19 66.71 8.14
3116 17.4760 65.88 66.77 8.12
3117 17.4800 69.37 66.82 8.33
3118 17.4840 64.59 66.88 8.04
3119 17.4880 65.84 66.95 8.11
3120 17.4920 69.43 67.01 8.33
3121 17.4960 66.55 67.03 8.16
3122 17.5000 69.42 67.06 8.33
3123 17.5040 68.31 67.08 8.27
3124 17.5080 67.67 67.11 8.23
3125 17.5120 71.03 67.15 8.43
3126 17.5160 64.50 67.19 8.03
3127 17.5200 67.61 67.23 8.22
3128 17.5240 73.88 67.27 8.60
3129 17.5280 65.86 67.32 8.12
3130 17.5320 73.07 67.38 8.55
3131 17.5360 70.03 67.44 8.37
3132 17.5400 67.43 67.51 8.21
3133 17.5440 67.71 67.58 8.23
3134 17.5480 78.09 67.66 8.84
3135 17.5520 72.67 67.74 8.52
3136 17.5560 73.68 67.83 8.58
3137 17.5600 71.71 67.93 8.47
3138 17.5640 73.99 68.03 8.60
3139 17.5680 73.87 68.15 8.59
3140 17.5720 81.65 68.27 9.04
3141 17.5760 73.99 68.40 8.60
3142 17.5800 73.37 68.54 8.57
3143 17.5840 71.53 68.69 8.46
3144 17.5880 76.19 68.85 8.73
3145 17.5920 77.54 69.02 8.81
3146 17.5960 66.92 69.21 8.18
3147 17.6000 74.84 69.41 8.65
3148 17.6040 74.80 69.62 8.65
3149 17.6080 77.89 69.85 8.83
3150 17.6120 75.79 70.09 8.71
3151 17.6160 78.62 70.36 8.87
3152 17.6200 75.00 70.64 8.66
3153 17.6240 75.26 70.94 8.68
3154 17.6280 71.50 71.26 8.46
3155 17.6320 75.65 71.61 8.70
3156 17.6360 75.18 71.99 8.67
3157 17.6400 73.65 72.39 8.58
3158 17.6440 76.05 72.82 8.72
3159 17.6480 75.51 73.29 8.69
3160 17.6520 75.49 73.80 8.69
3161 17.6560 76.61 74.34 8.75
3162 17.6600 80.90 74.93 8.99
3163 17.6640 75.17 75.57 8.67
3164 17.6680 76.36 76.27 8.74
3165 17.6720 81.31 77.02 9.02
3166 17.6760 84.50 77.84 9.19
3167 17.6800 82.48 78.74 9.08
3168 17.6840 81.74 79.71 9.04
3169 17.6880 85.33 80.78 9.24
3170 17.6920 86.96 82.00 9.33
3171 17.6960 86.91 83.29 9.32
3172 17.7000 85.54 84.71 9.25
3173 17.7040 91.44 86.27 9.56
3174 17.7080 90.59 88.01 9.52
3175 17.7120 88.89 89.93 9.43
3176 17.7160 96.98 92.08 9.85
3177 17.7200 94.82 94.47 9.74
3178 17.7240 98.31 97.17 9.92
3179 17.7280 107.50 100.20 10.37
3180 17.7320 104.54 103.62 10.22
3181 17.7360 106.16 107.52 10.30
3182 17.7400 123.68 111.96 11.12
3183 17.7440 113.69 117.06 10.66
3184 17.7480 125.86 122.94 11.22
3185 17.7520 141.44 129.77 11.89
3186 17.7560 144.62 137.74 12.03
3187 17.7600 158.60 147.10 12.59
3188 17.7640 172.91 158.19 13.15
3189 17.7680 194.60 171.40 13.95
3190 17.7720 199.72 187.26 14.13
3191 17.7760 216.38 206.45 14.71
3192 17.7800 245.68 229.84 15.67
3193 17.7840 263.98 258.48 16.25
3194 17.7880 324.75 293.68 18.02
3195 17.7920 337.20 336.90 18.36
3196 17.7960 375.96 389.59 19.39
3197 17.8000 454.53 452.46 21.32
3198 17.8040 473.42 524.52 21.76
3199 17.8080 571.27 600.82 23.90
3200 17.8120 664.10 671.07 25.77
3201 17.8160 724.06 720.05 26.91
3202 17.8200 823.77 733.48 28.70
3203 17.8240 782.14 706.91 27.97
3204 17.8280 626.22 648.88 25.02
3205 17.8320 568.54 574.96 23.84
3206 17.8360 456.75 499.12 21.37
3207 17.8400 396.82 429.79 19.92
3208 17.8440 356.09 370.25 18.87
3209 17.8480 311.50 320.76 17.65
3210 17.8520 271.12 280.30 16.47
3211 17.8560 250.40 247.34 15.82
3212 17.8600 223.07 220.52 14.94
3213 17.8640 200.54 198.56 14.16
3214 17.8680 175.98 180.47 13.27
3215 17.8720 163.82 165.47 12.80
3216 17.8760 153.04 152.93 12.37
3217 17.8800 136.84 142.37 11.70
3218 17.8840 126.63 133.41 11.25
3219 17.8880 116.79 125.76 10.81
3220 17.8920 114.86 119.18 10.72
3221 17.8960 109.65 113.48 10.47
3222 17.9000 102.02 108.52 10.10
3223 17.9040 96.66 104.18 9.83
3224 17.9080 91.35 100.35 9.56
3225 17.9120 89.21 96.97 9.45
3226 17.9160 90.03 93.97 9.49
3227 17.9200 85.94 91.29 9.27
3228 17.9240 80.95 88.89 9.00
3229 17.9280 81.17 86.73 9.01
3230 17.9320 80.21 84.78 8.96
3231 17.9360 75.24 83.01 8.67
3232 17.9400 72.14 81.40 8.49
3233 17.9440 74.11 79.94 8.61
3234 17.9480 72.76 78.60 8.53
3235 17.9520 70.64 77.37 8.40
3236 17.9560 72.22 76.24 8.50
3237 17.9600 68.35 75.20 8.27
3238 17.9640 69.86 74.24 8.36
3239 17.9680 70.46 73.35 8.39
3240 17.9720 67.96 72.52 8.24
3241 17.9760 67.39 71.75 8.21
3242 17.9800 70.38 71.04 8.39
3243 17.9840 63.17 70.37 7.95
3244 17.9880 63.94 69.75 8.00
3245 17.9920 65.38 69.16 8.09
3246 17.9960 63.58 68.61 7.97
3247 18.0000 61.61 68.10 7.85
3248 18.0040 68.73 67.61 8.29
3249 18.0080 61.45 67.15 7.84
3250 18.0120 63.99 66.72 8.00
3251 18.0160 64.13 66.31 8.01
3252 18.0200 60.99 65.93 7.81
3253 18.0240 58.90 65.56 7.67
3254 18.0280 62.17 65.21 7.89
3255 18.0320 57.58 64.88 7.59
3256 18.0360 67.35 64.57 8.21
3257 18.0400 64.43 64.27 8.03
3258 18.0440 68.77 63.98 8.29
3259 18.0480 68.23 63.71 8.26
3260 18.0520 65.31 63.45 8.08
3261 18.0560 58.68 63.20 7.66
3262 18.0600 60.95 62.97 7.81
3263 18.0640 60.99 62.74 7.81
3264 18.0680 57.42 62.52 7.58
3265 18.0720 56.39 62.31 7.51
3266 18.0760 59.67 62.11 7.72
3267 18.0800 60.77 61.92 7.80
3268 18.0840 63.78 61.74 7.99
3269 18.0880 60.67 61.56 7.79
3270 18.0920 59.45 61.39 7.71
3271 18.0960 62.87 61.22 7.93
3272 18.1000 58.16 61.06 7.63
3273 18.1040 63.38 60.91 7.96
3274 18.1080 58.76 60.76 7.67
3275 18.1120 60.79 60.62 7.80
3276 18.1160 63.73 60.48 7.98
3277 18.1200 57.25 60.35 7.57
3278 18.1240 57.60 60.22 7.59
3279 18.1280 56.59 60.10 7.52
3280 18.1320 65.77 59.98 8.11
3281 18.1360 59.56 59.86 7.72
3282 18.1400 58.44 59.75 7.64
3283 18.1440 59.13 59.64 7.69
3284 18.1480 65.05 59.54 8.07
3285 18.1520 57.68 59.43 7.59
3286 18.1560 62.68 59.34 7.92
3287 18.1600 60.22 59.24 7.76
3288 18.1640 65.63 59.15 8.10
3289 18.1680 58.63 59.06 7.66
3290 18.1720 63.13 58.97 7.95
3291 18.1760 59.92 58.89 7.74
3292 18.1800 58.87 58.81 7.67
3293 18.1840 62.04 58.73 7.88
3294 18.1880 60.11 58.65 7.75
3295 18.1920 61.89 58.58 7.87
3296 18.1960 61.58 58.51 7.85
3297 18.2000 58.68 58.44 7.66
3298 18.2040 58.69 58.37 7.66
3299 18.2080 63.05 58.30 7.94
3300 18.2120 62.22 58.24 7.89
3301 18.2160 56.44 58.18 7.51
3302 18.2200 60.05 58.12 7.75
3303 18.2240 63.12 58.07 7.94
3304 18.2280 60.98 58.01 7.81
3305 18.2320 61.84 57.96 7.86
3306 18.2360 55.51 57.91 7.45
3307 18.2400 54.51 57.86 7.38
3308 18.2440 59.72 57.82 7.73
3309 18.2480 60.70 57.77 7.79
3310 18.2520 59.48 57.73 7.71
3311 18.2560 59.68 57.69 7.73
3312 18.2600 59.97 57.65 7.74
3313 18.2640 59.13 57.61 7.69
3314 18.2680 60.62 57.58 7.79
3315 18.2720 59.49 57.55 7.71
3316 18.2760 57.31 57.51 7.57
3317 18.2800 62.01 57.49 7.87
3318 18.2840 55.27 57.46 7.43
3319 18.2880 56.42 57.43 7.51
3320 18.2920 61.04 57.41 7.81
3321 18.2960 57.00 57.39 7.55
3322 18.3000 54.86 57.37 7.41
3323 18.3040 60.81 57.35 7.80
3324 18.3080 62.01 57.34 7.87
3325 18.3120 58.06 57.32 7.62
3326 18.3160 61.15 57.31 7.82
3327 18.3200 68.19 57.31 8.26
3328 18.3240 57.32 57.30 7.57
3329 18.3280 58.01 57.29 7.62
3330 18.3320 57.02 57.29 7.55
3331 18.3360 58.53 57.29 7.65
3332 18.3400 60.98 57.29 7.81
3333 18.3440 62.90 57.30 7.93
3334 18.3480 59.81 57.42 7.73
3335 18.3520 61.56 57.90 7.85
3336 18.3560 62.79 58.37 7.92
3337 18.3600 54.44 58.85 7.38
3338 18.3640 60.20 59.33 7.76
3339 18.3680 59.61 59.81 7.72
3340 18.3720 57.02 60.30 7.55
3341 18.3760 64.25 60.79 8.02
3342 18.3800 68.73 61.28 8.29
3343 18.3840 63.47 61.77 7.97
3344 18.3880 65.80 62.27 8.11
3345 18.3920 69.81 62.77 8.36
3346 18.3960 69.22 63.28 8.32
3347 18.4000 64.80 63.79 8.05
3348 18.4040 64.18 64.30 8.01
3349 18.4080 66.61 64.82 8.16
3350 18.4120 68.32 65.34 8.27
3351 18.4160 76.84 65.86 8.77
3352 18.4200 70.78 66.39 8.41
3353 18.4240 73.45 66.93 8.57
3354 18.4280 69.29 67.46 8.32
3355 18.4320 69.71 68.01 8.35
3356 18.4360 82.54 68.55 9.08
3357 18.4400 74.31 69.11 8.62
3358 18.4440 70.32 69.67 8.39
3359 18.4480 78.05 70.23 8.83
3360 18.4520 80.58 70.80 8.98
3361 18.4560 79.63 71.38 8.92
3362 18.4600 76.98 71.96 8.77
3363 18.4640 81.23 72.55 9.01
3364 18.4680 77.41 73.15 8.80
3365 18.4720 76.48 73.75 8.75
3366 18.4760 80.93 74.36 9.00
3367 18.4800 76.92 75.03 8.77
3368 18.4840 82.65 75.66 9.09
3369 18.4880 80.40 76.30 8.97
3370 18.4920 75.35 76.95 8.68
3371 18.4960 78.05 77.61 8.83
3372 18.5000 81.46 78.28 9.03
3373 18.5040 83.63 78.96 9.14
3374 18.5080 82.85 79.65 9.10
3375 18.5120 80.57 80.14 8.98
3376 18.5160 81.36 80.86 9.02
3377 18.5200 81.36 81.59 9.02
3378 18.5240 82.06 82.34 9.06
3379 18.5280 77.96 83.10 8.83
3380 18.5320 82.91 83.88 9.11
3381 18.5360 78.64 84.68 8.87
3382 18.5400 84.56 85.49 9.20
3383 18.5440 84.72 86.33 9.20
3384 18.5480 81.41 87.18 9.02
3385 18.5520 87.87 88.06 9.37
3386 18.5560 86.26 88.96 9.29
3387 18.5600 85.97 89.89 9.27
3388 18.5640 91.57 90.84 9.57
3389 18.5680 90.44 91.83 9.51
3390 18.5720 88.61 92.84 9.41
3391 18.5760 91.38 93.89 9.56
3392 18.5800 86.18 94.98 9.28
3393 18.5840 85.82 96.10 9.26
3394 18.5880 95.15 97.27 9.75
3395 18.5920 92.81 98.48 9.63
3396 18.5960 91.68 99.74 9.57
3397 18.6000 91.60 101.05 9.57
3398 18.6040 99.20 102.42 9.96
3399 18.6080 95.08 103.85 9.75
3400 18.6120 100.18 105.35 10.01
3401 18.6160 97.54 106.92 9.88
3402 18.6200 96.68 108.58 9.83
3403 18.6240 111.19 110.32 10.54
3404 18.6280 96.18 112.16 9.81
3405 18.6320 115.42 114.10 10.74
3406 18.6360 105.95 116.16 10.29
3407 18.6400 110.38 118.34 10.51
3408 18.6440 117.81 120.67 10.85
3409 18.6480 108.16 123.15 10.40
3410 18.6520 121.10 125.81 11.00
3411 18.6560 126.34 128.66 11.24
3412 18.6600 116.55 131.73 10.80
3413 18.6640 121.00 135.04 11.00
3414 18.6680 140.35 138.62 11.85
3415 18.6720 127.60 142.51 11.30
3416 18.6760 135.29 146.74 11.63
3417 18.6800 142.91 151.37 11.95
3418 18.6840 137.77 156.45 11.74
3419 18.6880 158.04 162.04 12.57
3420 18.6920 165.95 168.22 12.88
3421 18.6960 163.24 175.08 12.78
3422 18.7000 175.64 182.73 13.25
3423 18.7040 189.42 191.30 13.76
3424 18.7080 195.73 200.95 13.99
3425 18.7120 221.18 211.86 14.87
3426 18.7160 224.36 224.27 14.98
3427 18.7200 241.42 238.49 15.54
3428 18.7240 266.73 254.85 16.33
3429 18.7280 286.17 273.80 16.92
3430 18.7320 313.01 295.90 17.69
3431 18.7360 329.67 321.84 18.16
3432 18.7400 377.06 352.53 19.42
3433 18.7440 397.78 389.06 19.94
3434 18.7480 447.18 432.85 21.15
3435 18.7520 511.75 485.70 22.62
3436 18.7560 547.31 549.70 23.39
3437 18.7600 660.41 627.44 25.70
3438 18.7640 692.26 721.59 26.31
3439 18.7680 823.03 834.55 28.69
3440 18.7720 915.79 967.23 30.26
3441 18.7760 1039.12 1116.61 32.24
3442 18.7800 1262.31 1272.91 35.53
3443 18.7840 1327.14 1416.06 36.43
3444 18.7880 1680.81 1518.10 41.00
3445 18.7920 1732.20 1552.56 41.62
3446 18.7960 1731.58 1509.24 41.61
3447 18.8000 1498.53 1401.11 38.71
3448 18.8040 1243.95 1255.54 35.27
3449 18.8080 1034.46 1100.18 32.16
3450 18.8120 940.01 953.34 30.66
3451 18.8160 767.24 824.00 27.70
3452 18.8200 726.86 714.37 26.96
3453 18.8240 585.08 623.27 24.19
3454 18.8280 549.19 548.30 23.43
3455 18.8320 492.38 486.64 22.19
3456 18.8360 448.80 435.93 21.18
3457 18.8400 402.91 393.98 20.07
3458 18.8440 357.60 359.09 18.91
3459 18.8480 328.89 329.90 18.14
3460 18.8520 305.79 305.32 17.49
3461 18.8560 280.77 284.48 16.76
3462 18.8600 266.25 266.72 16.32
3463 18.8640 250.81 251.48 15.84
3464 18.8680 232.93 238.35 15.26
3465 18.8720 223.63 226.97 14.95
3466 18.8760 200.82 217.05 14.17
3467 18.8800 194.84 208.38 13.96
3468 18.8840 191.86 200.76 13.85
3469 18.8880 185.67 194.05 13.63
3470 18.8920 179.55 188.11 13.40
3471 18.8960 170.66 182.84 13.06
3472 18.9000 160.98 178.14 12.69
3473 18.9040 163.37 173.95 12.78
3474 18.9080 151.13 170.20 12.29
3475 18.9120 148.36 166.84 12.18
3476 18.9160 157.17 163.82 12.54
3477 18.9200 145.94 161.10 12.08
3478 18.9240 144.27 158.65 12.01
3479 18.9280 146.26 156.44 12.09
3480 18.9320 140.31 154.44 11.85
3481 18.9360 132.75 152.63 11.52
3482 18.9400 136.33 151.00 11.68
3483 18.9440 136.09 149.51 11.67
3484 18.9480 129.34 148.17 11.37
3485 18.9520 134.25 146.96 11.59
3486 18.9560 137.65 145.85 11.73
3487 18.9600 128.60 144.86 11.34
3488 18.9640 140.58 143.95 11.86
3489 18.9680 132.05 143.14 11.49
3490 18.9720 131.09 142.40 11.45
3491 18.9760 129.14 141.74 11.36
3492 18.9800 132.43 141.14 11.51
3493 18.9840 130.56 140.60 11.43
3494 18.9880 138.07 140.12 11.75
3495 18.9920 142.13 139.70 11.92
3496 18.9960 133.84 139.32 11.57
3497 19.0000 130.83 138.98 11.44
3498 19.0040 145.91 138.69 12.08
3499 19.0080 135.98 138.43 11.66
3500 19.0120 138.39 138.22 11.76
3501 19.0160 146.69 138.03 12.11
3502 19.0200 137.82 137.88 11.74
3503 19.0240 143.03 137.75 11.96
3504 19.0280 145.62 137.65 12.07
3505 19.0320 133.46 137.58 11.55
3506 19.0360 148.47 137.53 12.18
3507 19.0400 147.01 137.51 12.12
3508 19.0440 146.34 137.50 12.10
3509 19.0480 135.51 137.51 11.64
3510 19.0520 145.19 137.55 12.05
3511 19.0560 140.44 137.60 11.85
3512 19.0600 139.68 137.66 11.82
3513 19.0640 139.08 137.74 11.79
3514 19.0680 130.07 137.84 11.40
3515 19.0720 140.19 137.95 11.84
3516 19.0760 140.71 138.07 11.86
3517 19.0800 135.27 138.21 11.63
3518 19.0840 141.76 138.35 11.91
3519 19.0880 138.01 138.51 11.75
3520 19.0920 132.05 138.68 11.49
3521 19.0960 137.68 138.85 11.73
3522 19.1000 141.41 139.04 11.89
3523 19.1040 139.40 139.24 11.81
3524 19.1080 143.07 139.44 11.96
3525 19.1120 136.21 139.66 11.67
3526 19.1160 138.85 139.88 11.78
3527 19.1200 136.59 140.10 11.69
3528 19.1240 138.23 140.34 11.76
3529 19.1280 131.32 140.58 11.46
3530 19.1320 150.26 140.83 12.26
3531 19.1360 142.52 141.09 11.94
3532 19.1400 139.52 141.35 11.81
3533 19.1440 146.20 141.61 12.09
3534 19.1480 151.37 141.88 12.30
3535 19.1520 132.31 142.16 11.50
3536 19.1560 156.18 142.44 12.50
3537 19.1600 142.43 142.73 11.93
3538 19.1640 141.62 143.02 11.90
3539 19.1680 155.79 143.31 12.48
3540 19.1720 146.67 142.93 12.11
3541 19.1760 144.50 142.32 12.02
3542 19.1800 145.80 141.72 12.07
3543 19.1840 141.11 141.12 11.88
3544 19.1880 143.91 140.53 12.00
3545 19.1920 146.66 139.94 12.11
3546 19.1960 143.05 139.35 11.96
3547 19.2000 148.71 138.77 12.19
3548 19.2040 151.78 138.19 12.32
3549 19.2080 139.85 137.61 11.83
3550 19.2120 143.21 137.03 11.97
3551 19.2160 143.99 136.46 12.00
3552 19.2200 143.82 135.89 11.99
3553 19.2240 147.03 135.32 12.13
3554 19.2280 139.23 134.76 11.80
3555 19.2320 139.55 134.20 11.81
3556 19.2360 137.46 133.64 11.72
3557 19.2400 137.52 133.12 11.73
3558 19.2440 137.16 132.57 11.71
3559 19.2480 130.86 132.01 11.44
3560 19.2520 131.95 131.46 11.49
3561 19.2560 123.95 130.92 11.13
3562 19.2600 132.40 130.37 11.51
3563 19.2640 126.86 129.83 11.26
3564 19.2680 129.33 129.29 11.37
3565 19.2720 128.37 128.75 11.33
3566 19.2760 121.70 128.21 11.03
3567 19.2800 127.85 127.68 11.31
3568 19.2840 119.45 127.15 10.93
3569 19.2880 122.92 126.62 11.09
3570 19.2920 126.44 126.09 11.24
3571 19.2960 116.18 125.56 10.78
3572 19.3000 115.67 125.04 10.76
3573 19.3040 117.01 124.51 10.82
3574 19.3080 117.65 123.99 10.85
3575 19.3120 125.62 123.47 11.21
3576 19.3160 113.00 122.96 10.63
3577 19.3200 115.64 122.44 10.75
3578 19.3240 114.60 121.93 10.70
3579 19.3280 112.07 121.42 10.59
3580 19.3320 103.04 120.90 10.15
3581 19.3360 112.49 120.40 10.61
3582 19.3400 119.07 119.89 10.91
3583 19.3440 105.65 119.39 10.28
3584 19.3480 106.38 118.88 10.31
3585 19.3520 111.86 118.38 10.58
3586 19.3560 114.24 117.88 10.69
3587 19.3600 107.61 117.39 10.37
3588 19.3640 103.75 116.89 10.19
3589 19.3680 102.96 116.40 10.15
3590 19.3720 113.21 115.91 10.64
3591 19.3760 109.47 115.42 10.46
3592 19.3800 108.75 114.93 10.43
3593 19.3840 111.36 114.45 10.55
3594 19.3880 107.64 113.97 10.37
3595 19.3920 110.89 113.49 10.53
3596 19.3960 96.85 113.01 9.84
3597 19.4000 100.57 112.53 10.03
3598 19.4040 102.07 112.06 10.10
3599 19.4080 96.02 111.59 9.80
3600 19.4120 90.35 111.12 9.51
3601 19.4160 99.96 110.66 10.00
3602 19.4200 91.04 110.20 9.54
3603 19.4240 92.50 109.74 9.62
3604 19.4280 95.31 109.29 9.76
3605 19.4320 94.34 108.83 9.71
3606 19.4360 89.66 108.38 9.47
3607 19.4400 94.08 107.94 9.70
3608 19.4440 94.48 107.50 9.72
3609 19.4480 93.46 107.06 9.67
3610 19.4520 94.98 106.63 9.75
3611 19.4560 101.06 106.20 10.05
3612 19.4600 105.10 105.77 10.25
3613 19.4640 99.64 105.35 9.98
3614 19.4680 95.61 104.94 9.78
3615 19.4720 93.02 104.53 9.64
3616 19.4760 89.81 104.12 9.48
3617 19.4800 89.73 103.73 9.47
3618 19.4840 93.61 103.34 9.68
3619 19.4880 88.29 102.95 9.40
3620 19.4920 84.48 102.57 9.19
3621 19.4960 91.47 102.20 9.56
3622 19.5000 86.38 101.84 9.29
3623 19.5040 87.66 101.49 9.36
3624 19.5080 85.24 101.15 9.23
3625 19.5120 89.68 100.81 9.47
3626 19.5160 94.75 100.49 9.73
3627 19.5200 87.44 100.18 9.35
3628 19.5240 99.19 99.88 9.96
3629 19.5280 88.53 99.60 9.41
3630 19.5320 88.52 99.33 9.41
3631 19.5360 91.71 99.08 9.58
3632 19.5400 84.23 98.84 9.18
3633 19.5440 90.27 98.62 9.50
3634 19.5480 88.10 98.42 9.39
3635 19.5520 86.51 98.25 9.30
3636 19.5560 84.47 98.10 9.19
3637 19.5600 85.83 97.98 9.26
3638 19.5640 85.05 97.88 9.22
3639 19.5680 93.28 97.82 9.66
3640 19.5720 88.93 97.80 9.43
3641 19.5760 88.11 97.82 9.39
3642 19.5800 86.51 97.88 9.30
3643 19.5840 86.67 98.24 9.31
3644 19.5880 90.46 98.73 9.51
3645 19.5920 85.59 99.29 9.25
3646 19.5960 87.15 99.92 9.34
3647 19.6000 84.20 100.63 9.18
3648 19.6040 82.65 101.43 9.09
3649 19.6080 91.73 102.32 9.58
3650 19.6120 94.27 103.33 9.71
3651 19.6160 100.05 104.48 10.00
3652 19.6200 99.92 105.78 10.00
3653 19.6240 98.33 107.25 9.92
3654 19.6280 98.92 108.92 9.95
3655 19.6320 98.79 110.83 9.94
3656 19.6360 102.58 113.02 10.13
3657 19.6400 107.06 115.53 10.35
3658 19.6440 109.31 118.43 10.46
3659 19.6480 112.44 121.69 10.60
3660 19.6520 119.67 125.60 10.94
3661 19.6560 125.91 130.18 11.22
3662 19.6600 127.32 135.56 11.28
3663 19.6640 140.36 141.93 11.85
3664 19.6680 140.52 149.50 11.85
3665 19.6720 161.51 158.54 12.71
3666 19.6760 153.42 169.41 12.39
3667 19.6800 172.81 182.50 13.15
3668 19.6840 180.30 198.29 13.43
3669 19.6880 199.39 217.31 14.12
3670 19.6920 227.26 240.02 15.08
3671 19.6960 248.95 266.70 15.78
3672 19.7000 281.93 297.01 16.79
3673 19.7040 295.24 329.51 17.18
3674 19.7080 328.73 361.14 18.13
3675 19.7120 379.22 386.99 19.47
3676 19.7160 420.29 401.55 20.50
3677 19.7200 433.59 400.99 20.82
3678 19.7240 413.54 385.42 20.34
3679 19.7280 352.80 358.79 18.78
3680 19.7320 301.78 326.69 17.37
3681 19.7360 261.92 293.89 16.18
3682 19.7400 246.25 263.42 15.69
3683 19.7440 221.37 236.61 14.88
3684 19.7480 189.86 213.74 13.78
3685 19.7520 182.12 194.56 13.50
3686 19.7560 169.71 178.57 13.03
3687 19.7600 159.63 165.27 12.63
3688 19.7640 146.15 154.17 12.09
3689 19.7680 132.62 144.87 11.52
3690 19.7720 134.56 137.03 11.60
3691 19.7760 123.83 130.38 11.13
3692 19.7800 119.25 124.70 10.92
3693 19.7840 116.13 119.82 10.78
3694 19.7880 111.60 115.60 10.56
3695 19.7920 96.74 111.93 9.84
3696 19.7960 108.21 108.71 10.40
3697 19.8000 99.62 105.87 9.98
3698 19.8040 90.17 103.36 9.50
3699 19.8080 95.82 101.13 9.79
3700 19.8120 84.03 99.13 9.17
3701 19.8160 85.68 97.33 9.26
3702 19.8200 92.37 95.70 9.61
3703 19.8240 86.96 94.23 9.33
3704 19.8280 88.07 92.88 9.38
3705 19.8320 85.33 91.65 9.24
3706 19.8360 81.82 90.52 9.05
3707 19.8400 81.45 89.48 9.03
3708 19.8440 86.09 88.51 9.28
3709 19.8480 81.71 87.62 9.04
3710 19.8520 76.64 86.79 8.75
3711 19.8560 80.36 86.01 8.96
3712 19.8600 81.21 85.28 9.01
3713 19.8640 77.46 84.59 8.80
3714 19.8680 80.04 83.95 8.95
3715 19.8720 79.23 83.34 8.90
3716 19.8760 77.75 82.76 8.82
3717 19.8800 78.57 82.21 8.86
3718 19.8840 81.38 81.69 9.02
3719 19.8880 76.10 81.16 8.72
3720 19.8920 77.83 80.66 8.82
3721 19.8960 74.52 80.17 8.63
3722 19.9000 84.59 79.71 9.20
3723 19.9040 76.75 79.26 8.76
3724 19.9080 79.18 78.83 8.90
3725 19.9120 75.20 78.41 8.67
3726 19.9160 76.05 78.00 8.72
3727 19.9200 80.01 77.61 8.94
3728 19.9240 76.62 77.23 8.75
3729 19.9280 79.65 76.86 8.92
3730 19.9320 77.13 76.50 8.78
3731 19.9360 79.02 76.15 8.89
3732 19.9400 78.19 75.81 8.84
3733 19.9440 73.53 75.47 8.58
3734 19.9480 83.88 75.14 9.16
3735 19.9520 81.29 74.82 9.02
3736 19.9560 83.23 74.51 9.12
3737 19.9600 82.61 74.20 9.09
3738 19.9640 83.82 73.90 9.16
3739 19.9680 92.10 73.60 9.60
3740 19.9720 82.14 73.50 9.06
3741 19.9760 88.21 73.21 9.39
3742 19.9800 86.44 72.93 9.30
3743 19.9840 81.37 72.65 9.02
3744 19.9880 81.60 72.38 9.03
3745 19.9920 86.68 72.11 9.31
3746 19.9960 75.36 71.84 8.68
3747 20.0000 82.94 71.58 9.11
3748 20.0040 84.40 71.32 9.19
3749 20.0080 78.13 71.07 8.84
3750 20.0120 83.14 70.82 9.12
3751 20.0160 80.22 70.57 8.96
3752 20.0200 74.40 70.32 8.63
3753 20.0240 80.61 70.07 8.98
3754 20.0280 82.11 69.83 9.06
3755 20.0320 83.37 69.59 9.13
3756 20.0360 86.11 69.35 9.28
3757 20.0400 81.15 69.12 9.01
3758 20.0440 87.16 68.88 9.34
3759 20.0480 88.09 68.65 9.39
3760 20.0520 77.33 68.42 8.79
3761 20.0560 79.02 68.19 8.89
3762 20.0600 78.48 67.97 8.86
3763 20.0640 79.89 67.74 8.94
3764 20.0680 83.65 67.52 9.15
3765 20.0720 78.10 67.30 8.84
3766 20.0760 81.40 67.08 9.02
3767 20.0800 82.95 66.86 9.11
3768 20.0840 84.51 66.65 9.19
3769 20.0880 76.75 66.43 8.76
3770 20.0920 76.81 66.22 8.76
3771 20.0960 81.21 66.00 9.01
3772 20.1000 78.47 65.79 8.86
3773 20.1040 70.59 65.58 8.40
3774 20.1080 80.44 65.37 8.97
3775 20.1120 76.16 65.17 8.73
3776 20.1160 71.71 64.96 8.47
3777 20.1200 72.93 64.76 8.54
3778 20.1240 71.73 64.55 8.47
3779 20.1280 74.47 64.35 8.63
3780 20.1320 63.94 64.15 8.00
3781 20.1360 73.53 63.95 8.57
3782 20.1400 70.67 63.75 8.41
3783 20.1440 71.65 63.55 8.46
3784 20.1480 74.27 63.35 8.62
3785 20.1520 67.34 63.16 8.21
3786 20.1560 70.24 62.96 8.38
3787 20.1600 64.40 62.77 8.02
3788 20.1640 69.72 62.57 8.35
3789 20.1680 70.51 62.38 8.40
3790 20.1720 66.89 62.19 8.18
3791 20.1760 68.12 62.00 8.25
3792 20.1800 68.40 61.81 8.27
3793 20.1840 65.02 61.63 8.06
3794 20.1880 61.50 61.44 7.84
3795 20.1920 66.82 61.25 8.17
3796 20.1960 63.84 61.07 7.99
3797 20.2000 64.55 60.89 8.03
3798 20.2040 68.11 60.71 8.25
3799 20.2080 66.28 60.53 8.14
3800 20.2120 64.07 60.35 8.00
3801 20.2160 59.76 60.17 7.73
3802 20.2200 60.64 59.99 7.79
3803 20.2240 57.95 59.82 7.61
3804 20.2280 60.80 59.64 7.80
3805 20.2320 62.06 59.47 7.88
3806 20.2360 59.93 59.30 7.74
3807 20.2400 64.50 59.13 8.03
3808 20.2440 58.06 58.96 7.62
3809 20.2480 61.05 58.79 7.81
3810 20.2520 65.39 58.63 8.09
3811 20.2560 62.82 58.46 7.93
3812 20.2600 53.87 58.30 7.34
3813 20.2640 66.29 58.14 8.14
3814 20.2680 66.65 57.98 8.16
3815 20.2720 61.68 57.82 7.85
3816 20.2760 64.71 57.67 8.04
3817 20.2800 54.09 57.51 7.35
3818 20.2840 55.92 57.36 7.48
3819 20.2880 56.27 57.21 7.50
3820 20.2920 60.87 57.07 7.80
3821 20.2960 59.77 56.92 7.73
3822 20.3000 58.53 56.78 7.65
3823 20.3040 60.63 56.64 7.79
3824 20.3080 49.75 56.51 7.05
3825 20.3120 59.88 56.37 7.74
3826 20.3160 58.99 56.24 7.68
3827 20.3200 57.55 56.11 7.59
3828 20.3240 55.51 55.99 7.45
3829 20.3280 58.70 55.87 7.66
3830 20.3320 56.90 55.75 7.54
3831 20.3360 49.91 55.64 7.06
3832 20.3400 58.11 55.53 7.62
3833 20.3440 56.10 55.42 7.49
3834 20.3480 58.60 55.32 7.66
3835 20.3520 54.65 55.23 7.39
3836 20.3560 56.64 55.14 7.53
3837 20.3600 55.60 55.08 7.46
3838 20.3640 53.66 55.12 7.33
3839 20.3680 56.97 55.16 7.55
3840 20.3720 60.50 55.20 7.78
3841 20.3760 56.50 55.26 7.52
3842 20.3800 56.51 55.32 7.52
3843 20.3840 53.93 55.39 7.34
3844 20.3880 51.05 55.47 7.15
3845 20.3920 57.23 55.56 7.57
3846 20.3960 56.19 55.65 7.50
3847 20.4000 55.50 55.76 7.45
3848 20.4040 48.30 55.88 6.95
3849 20.4080 54.33 56.01 7.37
3850 20.4120 57.40 56.16 7.58
3851 20.4160 54.08 56.32 7.35
3852 20.4200 63.82 56.49 7.99
3853 20.4240 61.85 56.69 7.86
3854 20.4280 60.10 56.90 7.75
3855 20.4320 59.95 57.13 7.74
3856 20.4360 56.26 57.38 7.50
3857 20.4400 59.56 57.66 7.72
3858 20.4440 62.03 57.96 7.88
3859 20.4480 66.52 58.29 8.16
3860 20.4520 59.24 58.66 7.70
3861 20.4560 68.27 59.06 8.26
3862 20.4600 70.92 59.50 8.42
3863 20.4640 72.06 59.98 8.49
3864 20.4680 71.77 60.51 8.47
3865 20.4720 73.21 61.09 8.56
3866 20.4760 65.92 61.74 8.12
3867 20.4800 68.39 62.45 8.27
3868 20.4840 70.74 63.23 8.41
3869 20.4880 67.39 64.11 8.21
3870 20.4920 75.52 65.08 8.69
3871 20.4960 72.64 66.15 8.52
3872 20.5000 67.95 67.36 8.24
3873 20.5040 71.01 68.71 8.43
3874 20.5080 77.97 70.22 8.83
3875 20.5120 73.47 71.92 8.57
3876 20.5160 84.23 73.85 9.18
3877 20.5200 87.99 76.03 9.38
3878 20.5240 85.06 78.52 9.22
3879 20.5280 92.41 81.36 9.61
3880 20.5320 91.60 84.63 9.57
3881 20.5360 101.72 88.40 10.09
3882 20.5400 102.82 92.77 10.14
3883 20.5440 108.84 97.87 10.43
3884 20.5480 115.56 103.84 10.75
3885 20.5520 122.01 110.87 11.05
3886 20.5560 132.39 119.20 11.51
3887 20.5600 136.48 129.10 11.68
3888 20.5640 149.07 140.92 12.21
3889 20.5680 166.74 155.05 12.91
3890 20.5720 168.57 171.91 12.98
3891 20.5760 206.85 191.92 14.38
3892 20.5800 200.99 215.34 14.18
3893 20.5840 242.98 242.05 15.59
3894 20.5880 253.63 271.21 15.93
3895 20.5920 287.06 300.77 16.94
3896 20.5960 326.53 327.19 18.07
3897 20.6000 362.81 345.91 19.05
3898 20.6040 395.04 352.78 19.88
3899 20.6080 386.24 346.09 19.65
3900 20.6120 337.43 327.47 18.37
3901 20.6160 289.66 301.04 17.02
3902 20.6200 266.49 271.34 16.32
3903 20.6240 227.54 241.99 15.08
3904 20.6280 208.98 215.04 14.46
3905 20.6320 193.14 191.38 13.90
3906 20.6360 178.24 171.13 13.35
3907 20.6400 165.89 154.04 12.88
3908 20.6440 141.34 139.69 11.89
3909 20.6480 130.83 127.66 11.44
3910 20.6520 126.53 117.56 11.25
3911 20.6560 121.25 109.04 11.01
3912 20.6600 110.91 101.82 10.53
3913 20.6640 109.02 95.67 10.44
3914 20.6680 97.17 90.39 9.86
3915 20.6720 90.68 85.85 9.52
3916 20.6760 92.63 81.91 9.62
3917 20.6800 80.14 78.47 8.95
3918 20.6840 84.62 75.46 9.20
3919 20.6880 80.78 72.81 8.99
3920 20.6920 75.95 70.46 8.71
3921 20.6960 74.14 68.38 8.61
3922 20.7000 70.32 66.51 8.39
3923 20.7040 76.33 64.84 8.74
3924 20.7080 67.02 63.33 8.19
3925 20.7120 66.03 61.97 8.13
3926 20.7160 65.42 60.73 8.09
3927 20.7200 58.43 59.60 7.64
3928 20.7240 64.96 58.34 8.06
3929 20.7280 61.19 57.40 7.82
3930 20.7320 56.92 56.53 7.54
3931 20.7360 66.60 55.73 8.16
3932 20.7400 58.96 54.99 7.68
3933 20.7440 59.82 54.30 7.73
3934 20.7480 56.54 53.67 7.52
3935 20.7520 54.78 53.07 7.40
3936 20.7560 59.13 52.51 7.69
3937 20.7600 53.79 51.99 7.33
3938 20.7640 55.50 51.50 7.45
3939 20.7680 55.72 51.04 7.46
3940 20.7720 55.18 50.61 7.43
3941 20.7760 56.18 50.20 7.50
3942 20.7800 49.47 49.82 7.03
3943 20.7840 57.10 49.45 7.56
3944 20.7880 47.91 49.10 6.92
3945 20.7920 51.06 48.77 7.15
3946 20.7960 51.52 48.45 7.18
3947 20.8000 53.84 48.15 7.34
3948 20.8040 47.81 47.87 6.91
3949 20.8080 51.42 47.59 7.17
3950 20.8120 48.88 47.33 6.99
3951 20.8160 49.37 47.07 7.03
3952 20.8200 49.18 46.83 7.01
3953 20.8240 47.40 46.60 6.88
3954 20.8280 45.39 46.37 6.74
3955 20.8320 46.35 46.16 6.81
3956 20.8360 42.55 45.95 6.52
3957 20.8400 43.11 45.74 6.57
3958 20.8440 46.15 45.55 6.79
3959 20.8480 53.31 45.36 7.30
3960 20.8520 45.15 45.17 6.72
3961 20.8560 43.30 44.99 6.58
3962 20.8600 47.55 44.82 6.90
3963 20.8640 47.49 44.65 6.89
3964 20.8680 44.64 44.49 6.68
3965 20.8720 48.00 44.33 6.93
3966 20.8760 42.26 44.17 6.50
3967 20.8800 46.28 44.02 6.80
3968 20.8840 44.16 43.87 6.65
3969 20.8880 41.23 43.73 6.42
3970 20.8920 48.46 43.59 6.96
3971 20.8960 43.63 43.45 6.61
3972 20.9000 49.90 43.31 7.06
3973 20.9040 41.88 43.18 6.47
3974 20.9080 49.71 43.05 7.05
3975 20.9120 46.25 42.92 6.80
3976 20.9160 45.33 42.80 6.73
3977 20.9200 48.05 42.67 6.93
3978 20.9240 47.17 42.56 6.87
3979 20.9280 46.45 42.44 6.82
3980 20.9320 42.89 42.32 6.55
3981 20.9360 45.94 42.21 6.78
3982 20.9400 47.65 42.10 6.90
3983 20.9440 38.85 41.99 6.23
3984 20.9480 41.92 41.88 6.47
3985 20.9520 49.38 41.77 7.03
3986 20.9560 44.10 41.67 6.64
3987 20.9600 47.36 41.56 6.88
3988 20.9640 37.91 41.46 6.16
3989 20.9680 47.03 41.36 6.86
3990 20.9720 42.06 41.26 6.49
3991 20.9760 43.55 41.17 6.60
3992 20.9800 44.25 41.07 6.65
3993 20.9840 41.10 40.98 6.41
3994 20.9880 48.17 40.88 6.94
3995 20.9920 42.10 40.79 6.49
3996 20.9960 39.75 40.70 6.30
3997 21.0000 39.86 40.61 6.31
3998 21.0040 41.34 40.53 6.43
3999 21.0080 41.15 40.44 6.41
4000 21.0120 44.73 40.35 6.69
4001 21.0160 40.86 40.27 6.39
4002 21.0200 43.05 40.19 6.56
4003 21.0240 41.08 40.11 6.41
4004 21.0280 39.83 40.03 6.31
4005 21.0320 41.50 39.95 6.44
4006 21.0360 45.23 39.87 6.73
4007 21.0400 38.36 39.79 6.19
4008 21.0440 34.79 39.72 5.90
4009 21.0480 38.60 39.64 6.21
4010 21.0520 32.79 39.57 5.73
4011 21.0560 38.15 39.50 6.18
4012 21.0600 43.05 39.43 6.56
4013 21.0640 37.87 39.36 6.15
4014 21.0680 45.18 39.29 6.72
4015 21.0720 35.22 39.22 5.93
4016 21.0760 42.86 39.15 6.55
4017 21.0800 39.19 39.09 6.26
4018 21.0840 43.04 39.03 6.56
4019 21.0880 39.80 38.96 6.31
4020 21.0920 35.15 38.90 5.93
4021 21.0960 43.44 38.84 6.59
4022 21.1000 39.23 38.79 6.26
4023 21.1040 35.56 38.73 5.96
4024 21.1080 42.54 38.67 6.52
4025 21.1120 42.91 38.62 6.55
4026 21.1160 41.71 38.57 6.46
4027 21.1200 41.34 38.52 6.43
4028 21.1240 36.62 38.47 6.05
4029 21.1280 37.02 38.42 6.08
4030 21.1320 40.22 38.38 6.34
4031 21.1360 42.02 38.33 6.48
4032 21.1400 32.88 38.29 5.73
4033 21.1440 37.80 38.25 6.15
4034 21.1480 38.31 38.21 6.19
4035 21.1520 37.53 38.18 6.13
4036 21.1560 39.45 38.15 6.28
4037 21.1600 36.85 38.18 6.07
4038 21.1640 36.03 38.23 6.00
4039 21.1680 39.12 38.28 6.25
4040 21.1720 36.74 38.34 6.06
4041 21.1760 38.36 38.40 6.19
4042 21.1800 37.09 38.46 6.09
4043 21.1840 32.25 38.53 5.68
4044 21.1880 42.10 38.60 6.49
4045 21.1920 38.43 38.67 6.20
4046 21.1960 38.31 38.75 6.19
4047 21.2000 35.88 38.83 5.99
4048 21.2040 41.40 38.91 6.43
4049 21.2080 39.67 39.00 6.30
4050 21.2120 36.65 39.09 6.05
4051 21.2160 42.10 39.19 6.49
4052 21.2200 41.81 39.30 6.47
4053 21.2240 32.69 39.40 5.72
4054 21.2280 37.27 39.52 6.11
4055 21.2320 38.39 39.64 6.20
4056 21.2360 43.89 39.77 6.62
4057 21.2400 37.93 39.90 6.16
4058 21.2440 38.69 40.04 6.22
4059 21.2480 43.82 40.19 6.62
4060 21.2520 36.01 40.35 6.00
4061 21.2560 44.49 40.52 6.67
4062 21.2600 38.24 40.70 6.18
4063 21.2640 37.09 40.89 6.09
4064 21.2680 46.03 41.09 6.78
4065 21.2720 33.62 41.31 5.80
4066 21.2760 42.24 41.54 6.50
4067 21.2800 45.35 41.78 6.73
4068 21.2840 45.10 42.04 6.72
4069 21.2880 44.05 42.32 6.64
4070 21.2920 36.67 42.62 6.06
4071 21.2960 39.08 42.94 6.25
4072 21.3000 47.86 43.29 6.92
4073 21.3040 37.32 43.66 6.11
4074 21.3080 38.41 44.06 6.20
4075 21.3120 50.21 44.49 7.09
4076 21.3160 37.02 44.96 6.08
4077 21.3200 43.16 45.47 6.57
4078 21.3240 50.27 46.02 7.09
4079 21.3280 43.15 46.62 6.57
4080 21.3320 49.62 47.27 7.04
4081 21.3360 51.50 47.99 7.18
4082 21.3400 47.95 48.78 6.92
4083 21.3440 50.17 49.65 7.08
4084 21.3480 61.26 50.61 7.83
4085 21.3520 50.05 51.67 7.07
4086 21.3560 56.24 52.85 7.50
4087 21.3600 58.28 54.18 7.63
4088 21.3640 55.22 55.65 7.43
4089 21.3680 61.88 57.31 7.87
4090 21.3720 66.44 59.17 8.15
4091 21.3760 68.57 61.29 8.28
4092 21.3800 67.38 63.69 8.21
4093 21.3840 69.82 66.44 8.36
4094 21.3880 71.44 69.60 8.45
4095 21.3920 75.08 73.24 8.66
4096 21.3960 90.37 77.47 9.51
4097 21.4000 79.47 82.41 8.91
4098 21.4040 98.91 88.19 9.95
4099 21.4080 101.51 95.00 10.08
4100 21.4120 106.89 103.06 10.34
4101 21.4160 108.41 112.59 10.41
4102 21.4200 127.57 123.88 11.29
4103 21.4240 139.10 137.22 11.79
4104 21.4280 142.80 152.83 11.95
4105 21.4320 175.40 170.79 13.24
4106 21.4360 180.46 190.81 13.43
4107 21.4400 195.01 212.03 13.96
4108 21.4440 229.48 232.73 15.15
4109 21.4480 243.10 250.26 15.59
4110 21.4520 297.63 261.59 17.25
4111 21.4560 279.55 264.31 16.72
4112 21.4600 293.92 257.78 17.14
4113 21.4640 252.17 243.48 15.88
4114 21.4680 227.60 224.27 15.09
4115 21.4720 199.96 203.10 14.14
4116 21.4760 169.06 182.26 13.00
4117 21.4800 167.69 163.08 12.95
4118 21.4840 136.97 146.14 11.70
4119 21.4880 129.88 131.53 11.40
4120 21.4920 125.86 119.12 11.22
4121 21.4960 106.20 108.63 10.31
4122 21.5000 99.16 99.79 9.96
4123 21.5040 97.75 92.31 9.89
4124 21.5080 90.54 85.99 9.52
4125 21.5120 81.85 80.61 9.05
4126 21.5160 83.75 76.02 9.15
4127 21.5200 73.32 72.08 8.56
4128 21.5240 76.25 68.68 8.73
4129 21.5280 77.80 65.73 8.82
4130 21.5320 64.46 63.16 8.03
4131 21.5360 67.19 60.91 8.20
4132 21.5400 66.89 58.94 8.18
4133 21.5440 58.76 57.20 7.67
4134 21.5480 57.83 55.65 7.60
4135 21.5520 62.29 54.28 7.89
4136 21.5560 55.41 53.05 7.44
4137 21.5600 53.75 51.95 7.33
4138 21.5640 52.42 50.96 7.24
4139 21.5680 53.62 50.07 7.32
4140 21.5720 52.35 49.27 7.23
4141 21.5760 57.02 48.54 7.55
4142 21.5800 46.59 47.88 6.83
4143 21.5840 54.18 47.28 7.36
4144 21.5880 52.46 46.73 7.24
4145 21.5920 46.66 46.23 6.83
4146 21.5960 51.83 45.77 7.20
4147 21.6000 50.52 45.35 7.11
4148 21.6040 46.42 44.96 6.81
4149 21.6080 43.45 44.61 6.59
4150 21.6120 44.48 44.28 6.67
4151 21.6160 49.25 43.98 7.02
4152 21.6200 48.42 43.70 6.96
4153 21.6240 41.53 43.44 6.44
4154 21.6280 53.96 43.20 7.35
4155 21.6320 46.72 42.98 6.84
4156 21.6360 41.47 42.78 6.44
4157 21.6400 48.96 42.59 7.00
4158 21.6440 42.93 42.42 6.55
4159 21.6480 44.91 42.26 6.70
4160 21.6520 45.57 42.11 6.75
4161 21.6560 47.15 41.97 6.87
4162 21.6600 43.91 41.84 6.63
4163 21.6640 42.08 41.72 6.49
4164 21.6680 43.13 41.61 6.57
4165 21.6720 45.19 41.51 6.72
4166 21.6760 41.55 41.42 6.45
4167 21.6800 46.07 41.34 6.79
4168 21.6840 44.15 41.26 6.64
4169 21.6880 43.87 41.19 6.62
4170 21.6920 39.98 41.12 6.32
4171 21.6960 41.65 41.06 6.45
4172 21.7000 43.88 41.01 6.62
4173 21.7040 39.79 40.96 6.31
4174 21.7080 43.09 40.92 6.56
4175 21.7120 42.77 40.88 6.54
4176 21.7160 42.60 40.84 6.53
4177 21.7200 41.34 40.81 6.43
4178 21.7240 41.15 40.79 6.41
4179 21.7280 36.99 40.77 6.08
4180 21.7320 37.93 40.75 6.16
4181 21.7360 42.11 40.74 6.49
4182 21.7400 38.51 40.73 6.21
4183 21.7440 36.98 40.72 6.08
4184 21.7480 37.13 40.67 6.09
4185 21.7520 40.87 40.67 6.39
4186 21.7560 32.82 40.68 5.73
4187 21.7600 43.97 40.68 6.63
4188 21.7640 37.42 40.69 6.12
4189 21.7680 34.81 40.71 5.90
4190 21.7720 36.54 40.73 6.04
4191 21.7760 36.56 40.75 6.05
4192 21.7800 38.25 40.77 6.18
4193 21.7840 35.52 40.80 5.96
4194 21.7880 34.75 40.83 5.90
4195 21.7920 35.97 40.86 6.00
4196 21.7960 40.89 40.90 6.39
4197 21.8000 38.24 40.93 6.18
4198 21.8040 43.34 40.97 6.58
4199 21.8080 32.90 41.01 5.74
4200 21.8120 35.49 41.05 5.96
4201 21.8160 39.25 41.09 6.26
4202 21.8200 40.31 41.14 6.35
4203 21.8240 38.08 41.18 6.17
4204 21.8280 40.72 41.24 6.38
4205 21.8320 34.16 41.29 5.84
4206 21.8360 39.54 41.35 6.29
4207 21.8400 34.87 41.41 5.91
4208 21.8440 41.27 41.48 6.42
4209 21.8480 38.49 41.54 6.20
4210 21.8520 40.58 41.62 6.37
4211 21.8560 37.35 41.69 6.11
4212 21.8600 39.68 41.77 6.30
4213 21.8640 39.34 41.85 6.27
4214 21.8680 35.91 41.94 5.99
4215 21.8720 38.96 42.03 6.24
4216 21.8760 39.32 42.12 6.27
4217 21.8800 37.40 42.22 6.12
4218 21.8840 39.34 42.33 6.27
4219 21.8880 39.61 42.43 6.29
4220 21.8920 37.38 42.55 6.11
4221 21.8960 38.82 42.66 6.23
4222 21.9000 43.30 42.78 6.58
4223 21.9040 43.28 42.91 6.58
4224 21.9080 36.88 43.04 6.07
4225 21.9120 40.41 43.18 6.36
4226 21.9160 38.84 43.32 6.23
4227 21.9200 42.23 43.47 6.50
4228 21.9240 36.12 43.63 6.01
4229 21.9280 40.71 43.79 6.38
4230 21.9320 40.04 43.96 6.33
4231 21.9360 39.52 44.13 6.29
4232 21.9400 42.47 44.31 6.52
4233 21.9440 38.10 44.50 6.17
4234 21.9480 41.54 44.70 6.44
4235 21.9520 44.94 44.91 6.70
4236 21.9560 39.53 45.12 6.29
4237 21.9600 46.95 45.35 6.85
4238 21.9640 44.91 45.58 6.70
4239 21.9680 39.89 45.82 6.32
4240 21.9720 42.35 46.08 6.51
4241 21.9760 38.97 46.34 6.24
4242 21.9800 48.72 46.62 6.98
4243 21.9840 43.55 46.90 6.60
4244 21.9880 41.20 47.21 6.42
4245 21.9920 48.69 47.52 6.98
4246 21.9960 42.25 47.85 6.50
4247 22.0000 42.40 48.19 6.51
4248 22.0040 43.87 48.55 6.62
4249 22.0080 43.57 48.93 6.60
4250 22.0120 48.45 49.33 6.96
4251 22.0160 44.35 49.74 6.66
4252 22.0200 49.98 50.17 7.07
4253 22.0240 45.47 50.67 6.74
4254 22.0280 45.69 51.14 6.76
4255 22.0320 51.46 51.65 7.17
4256 22.0360 52.94 52.18 7.28
4257 22.0400 50.32 52.73 7.09
4258 22.0440 49.80 53.32 7.06
4259 22.0480 48.18 53.93 6.94
4260 22.0520 52.53 54.58 7.25
4261 22.0560 48.79 55.27 6.98
4262 22.0600 51.86 55.99 7.20
4263 22.0640 53.33 56.76 7.30
4264 22.0680 52.96 57.57 7.28
4265 22.0720 54.87 58.42 7.41
4266 22.0760 54.32 59.33 7.37
4267 22.0800 52.63 60.30 7.25
4268 22.0840 56.78 61.32 7.54
4269 22.0880 59.74 62.41 7.73
4270 22.0920 54.42 63.58 7.38
4271 22.0960 62.36 64.81 7.90
4272 22.1000 56.27 66.14 7.50
4273 22.1040 57.43 67.55 7.58
4274 22.1080 65.61 69.06 8.10
4275 22.1120 67.31 70.68 8.20
4276 22.1160 71.39 72.42 8.45
4277 22.1200 72.65 74.30 8.52
4278 22.1240 71.92 76.31 8.48
4279 22.1280 80.43 78.49 8.97
4280 22.1320 75.01 80.84 8.66
4281 22.1360 77.66 83.39 8.81
4282 22.1400 94.14 86.15 9.70
4283 22.1440 92.80 89.16 9.63
4284 22.1480 98.39 92.44 9.92
4285 22.1520 89.24 96.02 9.45
4286 22.1560 113.92 99.94 10.67
4287 22.1600 99.37 104.24 9.97
4288 22.1640 109.37 108.99 10.46
4289 22.1680 121.75 114.22 11.03
4290 22.1720 126.00 120.02 11.23
4291 22.1760 137.99 126.46 11.75
4292 22.1800 147.59 133.63 12.15
4293 22.1840 148.52 141.66 12.19
4294 22.1880 177.79 150.68 13.33
4295 22.1920 171.66 160.84 13.10
4296 22.1960 189.92 172.34 13.78
4297 22.2000 212.56 185.41 14.58
4298 22.2040 224.21 200.34 14.97
4299 22.2080 259.01 217.45 16.09
4300 22.2120 264.97 237.16 16.28
4301 22.2160 297.61 259.98 17.25
4302 22.2200 321.98 286.52 17.94
4303 22.2240 358.28 317.53 18.93
4304 22.2280 376.41 353.87 19.40
4305 22.2320 423.51 396.60 20.58
4306 22.2360 469.56 446.93 21.67
4307 22.2400 516.51 506.13 22.73
4308 22.2440 571.83 575.48 23.91
4309 22.2480 651.89 655.83 25.53
4310 22.2520 726.35 747.27 26.95
4311 22.2560 790.15 848.03 28.11
4312 22.2600 905.61 953.43 30.09
4313 22.2640 1039.11 1055.02 32.24
4314 22.2680 1134.83 1140.29 33.69
4315 22.2720 1315.68 1195.30 36.27
4316 22.2760 1370.22 1209.11 37.02
4317 22.2800 1349.50 1178.71 36.74
4318 22.2840 1121.03 1110.54 33.48
4319 22.2880 1041.74 1017.39 32.28
4320 22.2920 887.81 913.08 29.80
4321 22.2960 740.74 808.63 27.22
4322 22.3000 695.86 711.09 26.38
4323 22.3040 571.21 623.72 23.90
4324 22.3080 554.49 547.63 23.55
4325 22.3120 495.98 482.29 22.27
4326 22.3160 412.49 426.59 20.31
4327 22.3200 393.76 379.30 19.84
4328 22.3240 363.18 339.13 19.06
4329 22.3280 312.73 304.91 17.68
4330 22.3320 303.73 275.69 17.43
4331 22.3360 276.84 250.63 16.64
4332 22.3400 246.50 229.04 15.70
4333 22.3440 225.34 210.36 15.01
4334 22.3480 220.91 194.11 14.86
4335 22.3520 183.12 179.92 13.53
4336 22.3560 194.76 167.45 13.96
4337 22.3600 164.39 156.48 12.82
4338 22.3640 158.48 146.76 12.59
4339 22.3680 150.42 138.12 12.26
4340 22.3720 134.98 130.41 11.62
4341 22.3760 126.55 123.51 11.25
4342 22.3800 120.65 117.31 10.98
4343 22.3840 114.32 111.72 10.69
4344 22.3880 116.32 106.66 10.79
4345 22.3920 100.50 102.08 10.02
4346 22.3960 97.03 97.91 9.85
4347 22.4000 102.57 94.10 10.13
4348 22.4040 89.19 90.63 9.44
4349 22.4080 91.63 87.44 9.57
4350 22.4120 85.40 84.51 9.24
4351 22.4160 81.04 81.81 9.00
4352 22.4200 83.62 79.32 9.14
4353 22.4240 73.26 77.03 8.56
4354 22.4280 72.33 74.90 8.50
4355 22.4320 71.10 72.92 8.43
4356 22.4360 69.21 71.08 8.32
4357 22.4400 69.25 69.37 8.32
4358 22.4440 63.80 67.77 7.99
4359 22.4480 62.75 66.28 7.92
4360 22.4520 64.73 64.89 8.05
4361 22.4560 65.79 63.58 8.11
4362 22.4600 50.91 62.35 7.14
4363 22.4640 62.61 61.20 7.91
4364 22.4680 52.70 60.12 7.26
4365 22.4720 54.89 59.10 7.41
4366 22.4760 55.21 58.14 7.43
4367 22.4800 56.06 57.23 7.49
4368 22.4840 46.58 56.37 6.82
4369 22.4880 50.52 55.56 7.11
4370 22.4920 58.21 54.79 7.63
4371 22.4960 47.26 54.06 6.87
4372 22.5000 53.76 53.37 7.33
4373 22.5040 53.38 52.72 7.31
4374 22.5080 52.44 52.10 7.24
4375 22.5120 48.96 51.50 7.00
4376 22.5160 49.52 50.94 7.04
4377 22.5200 45.80 50.40 6.77
4378 22.5240 47.35 49.89 6.88
4379 22.5280 42.77 49.40 6.54
4380 22.5320 47.12 48.93 6.86
4381 22.5360 40.15 48.49 6.34
4382 22.5400 48.52 48.06 6.97
4383 22.5440 43.70 47.65 6.61
4384 22.5480 44.66 47.26 6.68
4385 22.5520 45.60 46.88 6.75
4386 22.5560 43.88 46.52 6.62
4387 22.5600 43.42 46.18 6.59
4388 22.5640 40.56 45.85 6.37
4389 22.5680 42.48 45.53 6.52
4390 22.5720 40.55 45.22 6.37
4391 22.5760 41.26 44.93 6.42
4392 22.5800 41.50 44.65 6.44
4393 22.5840 44.59 44.38 6.68
4394 22.5880 37.47 44.11 6.12
4395 22.5920 42.67 43.86 6.53
4396 22.5960 38.99 43.62 6.24
4397 22.6000 45.33 43.38 6.73
4398 22.6040 39.23 43.16 6.26
4399 22.6080 36.49 42.94 6.04
4400 22.6120 40.75 42.73 6.38
4401 22.6160 38.41 42.52 6.20
4402 22.6200 41.09 42.33 6.41
4403 22.6240 36.32 42.13 6.03
4404 22.6280 34.63 41.95 5.88
4405 22.6320 34.23 41.77 5.85
4406 22.6360 40.46 41.60 6.36
4407 22.6400 37.50 41.43 6.12
4408 22.6440 39.04 41.27 6.25
4409 22.6480 38.06 41.11 6.17
4410 22.6520 33.66 40.96 5.80
4411 22.6560 40.59 40.81 6.37
4412 22.6600 41.55 40.67 6.45
4413 22.6640 33.54 40.53 5.79
4414 22.6680 42.40 40.46 6.51
4415 22.6720 33.37 40.33 5.78
4416 22.6760 35.21 40.20 5.93
4417 22.6800 42.79 40.08 6.54
4418 22.6840 40.44 39.96 6.36
4419 22.6880 37.19 39.84 6.10
4420 22.6920 44.97 39.73 6.71
4421 22.6960 42.42 39.62 6.51
4422 22.7000 37.80 39.51 6.15
4423 22.7040 38.40 39.40 6.20
4424 22.7080 36.71 39.30 6.06
4425 22.7120 36.64 39.20 6.05
4426 22.7160 36.35 39.10 6.03
4427 22.7200 38.80 39.01 6.23
4428 22.7240 41.68 38.92 6.46
4429 22.7280 34.95 38.83 5.91
4430 22.7320 40.41 38.69 6.36
4431 22.7360 33.17 38.61 5.76
4432 22.7400 39.55 38.52 6.29
4433 22.7440 35.33 38.44 5.94
4434 22.7480 36.66 38.36 6.05
4435 22.7520 37.37 38.29 6.11
4436 22.7560 36.66 38.21 6.06
4437 22.7600 38.28 38.14 6.19
4438 22.7640 35.24 38.06 5.94
4439 22.7680 32.57 37.99 5.71
4440 22.7720 40.97 37.92 6.40
4441 22.7760 35.39 37.86 5.95
4442 22.7800 38.35 37.79 6.19
4443 22.7840 38.68 37.73 6.22
4444 22.7880 44.19 37.66 6.65
4445 22.7920 35.05 37.60 5.92
4446 22.7960 33.03 37.54 5.75
4447 22.8000 32.14 37.48 5.67
4448 22.8040 36.97 37.42 6.08
4449 22.8080 33.71 37.37 5.81
4450 22.8120 34.18 37.31 5.85
4451 22.8160 34.59 37.26 5.88
4452 22.8200 36.46 37.21 6.04
4453 22.8240 35.88 37.15 5.99
4454 22.8280 41.48 37.10 6.44
4455 22.8320 35.29 37.05 5.94
4456 22.8360 37.60 37.00 6.13
4457 22.8400 28.48 36.95 5.34
4458 22.8440 36.45 36.91 6.04
4459 22.8480 33.87 36.86 5.82
4460 22.8520 37.81 36.82 6.15
4461 22.8560 37.40 36.77 6.12
4462 22.8600 32.29 36.73 5.68
4463 22.8640 31.84 36.68 5.64
4464 22.8680 37.13 36.64 6.09
4465 22.8720 32.47 36.60 5.70
4466 22.8760 33.41 36.56 5.78
4467 22.8800 38.01 36.52 6.17
4468 22.8840 34.02 36.48 5.83
4469 22.8880 31.28 36.44 5.59
4470 22.8920 39.81 36.40 6.31
4471 22.8960 38.04 36.37 6.17
4472 22.9000 35.92 36.33 5.99
4473 22.9040 36.75 36.30 6.06
4474 22.9080 39.27 36.26 6.27
4475 22.9120 37.01 36.23 6.08
4476 22.9160 39.45 36.19 6.28
4477 22.9200 35.73 36.16 5.98
4478 22.9240 32.85 36.12 5.73
4479 22.9280 32.79 36.08 5.73
4480 22.9320 36.51 36.04 6.04
4481 22.9360 31.64 36.00 5.62
4482 22.9400 42.77 35.97 6.54
4483 22.9440 34.68 35.93 5.89
4484 22.9480 33.52 35.89 5.79
4485 22.9520 34.67 35.85 5.89
4486 22.9560 35.84 35.82 5.99
4487 22.9600 40.78 35.78 6.39
4488 22.9640 31.67 35.74 5.63
4489 22.9680 34.04 35.71 5.83
4490 22.9720 42.26 35.67 6.50
4491 22.9760 35.85 35.64 5.99
4492 22.9800 37.88 35.60 6.15
4493 22.9840 34.44 35.57 5.87
4494 22.9880 36.51 35.54 6.04
4495 22.9920 35.83 35.50 5.99
4496 22.9960 32.23 35.47 5.68
4497 23.0000 34.09 35.44 5.84
4498 23.0040 33.07 35.41 5.75
4499 23.0080 36.89 35.38 6.07
4500 23.0120 34.49 35.34 5.87
4501 23.0160 31.63 35.31 5.62
4502 23.0200 40.05 35.28 6.33
4503 23.0240 31.23 35.25 5.59
4504 23.0280 32.40 35.22 5.69
4505 23.0320 39.60 35.19 6.29
4506 23.0360 35.43 35.16 5.95
4507 23.0400 37.83 35.14 6.15
4508 23.0440 37.48 35.11 6.12
4509 23.0480 42.05 35.08 6.48
4510 23.0520 39.24 35.05 6.26
4511 23.0560 39.86 35.02 6.31
4512 23.0600 32.70 35.00 5.72
4513 23.0640 27.38 34.97 5.23
4514 23.0680 40.20 34.94 6.34
4515 23.0720 33.39 34.92 5.78
4516 23.0760 40.34 34.89 6.35
4517 23.0800 39.53 34.86 6.29
4518 23.0840 36.15 34.84 6.01
4519 23.0880 40.26 34.81 6.34
4520 23.0920 43.63 34.79 6.61
4521 23.0960 33.36 34.76 5.78
4522 23.1000 40.09 34.74 6.33
4523 23.1040 42.80 34.71 6.54
4524 23.1080 38.15 34.69 6.18
4525 23.1120 45.16 34.66 6.72
4526 23.1160 41.08 34.64 6.41
4527 23.1200 36.73 34.62 6.06
4528 23.1240 36.96 34.59 6.08
4529 23.1280 37.82 34.57 6.15
4530 23.1320 36.45 34.55 6.04
4531 23.1360 43.07 34.52 6.56
4532 23.1400 39.70 34.50 6.30
4533 23.1440 39.69 34.48 6.30
4534 23.1480 40.52 34.46 6.37
4535 23.1520 43.30 34.44 6.58
4536 23.1560 37.73 34.41 6.14
4537 23.1600 42.86 34.39 6.55
4538 23.1640 37.64 34.37 6.14
4539 23.1680 33.18 34.35 5.76
4540 23.1720 38.49 34.33 6.20
4541 23.1760 41.84 34.31 6.47
4542 23.1800 36.61 34.29 6.05
4543 23.1840 40.96 34.27 6.40
4544 23.1880 30.89 34.25 5.56
4545 23.1920 41.61 34.23 6.45
4546 23.1960 37.28 34.21 6.11
4547 23.2000 38.96 34.19 6.24
4548 23.2040 41.33 34.17 6.43
4549 23.2080 38.54 34.15 6.21
4550 23.2120 38.03 34.13 6.17
4551 23.2160 44.11 34.12 6.64
4552 23.2200 35.25 34.10 5.94
4553 23.2240 34.83 34.08 5.90
4554 23.2280 46.31 34.06 6.81
4555 23.2320 35.12 34.04 5.93
4556 23.2360 37.39 34.03 6.11
4557 23.2400 43.88 34.01 6.62
4558 23.2440 39.80 33.99 6.31
4559 23.2480 34.07 33.97 5.84
4560 23.2520 35.37 33.96 5.95
4561 23.2560 38.86 33.94 6.23
4562 23.2600 33.93 33.92 5.83
4563 23.2640 41.22 33.91 6.42
4564 23.2680 35.42 33.89 5.95
4565 23.2720 38.22 33.88 6.18
4566 23.2760 36.85 33.86 6.07
4567 23.2800 36.72 33.84 6.06
4568 23.2840 35.24 33.83 5.94
4569 23.2880 37.18 33.81 6.10
4570 23.2920 36.95 33.80 6.08
4571 23.2960 38.74 33.80 6.22
4572 23.3000 35.48 33.78 5.96
4573 23.3040 42.91 33.77 6.55
4574 23.3080 39.66 33.76 6.30
4575 23.3120 38.87 33.74 6.23
4576 23.3160 36.13 33.73 6.01
4577 23.3200 38.34 33.72 6.19
4578 23.3240 35.50 33.70 5.96
4579 23.3280 35.15 33.69 5.93
4580 23.3320 37.93 33.68 6.16
4581 23.3360 38.52 33.66 6.21
4582 23.3400 38.76 33.65 6.23
4583 23.3440 31.20 33.64 5.59
4584 23.3480 36.32 33.63 6.03
4585 23.3520 34.76 33.62 5.90
4586 23.3560 39.93 33.61 6.32
4587 23.3600 39.68 33.60 6.30
4588 23.3640 36.86 33.58 6.07
4589 23.3680 35.43 33.57 5.95
4590 23.3720 44.58 33.56 6.68
4591 23.3760 36.49 33.55 6.04
4592 23.3800 38.46 33.54 6.20
4593 23.3840 40.97 33.54 6.40
4594 23.3880 28.82 33.53 5.37
4595 23.3920 37.39 33.52 6.11
4596 23.3960 32.17 33.51 5.67
4597 23.4000 38.90 33.50 6.24
4598 23.4040 31.56 33.49 5.62
4599 23.4080 33.80 33.49 5.81
4600 23.4120 37.22 33.48 6.10
4601 23.4160 36.68 33.47 6.06
4602 23.4200 37.14 33.47 6.09
4603 23.4240 37.45 33.46 6.12
4604 23.4280 37.02 33.46 6.08
4605 23.4320 38.54 33.45 6.21
4606 23.4360 37.65 33.45 6.14
4607 23.4400 36.16 33.44 6.01
4608 23.4440 35.99 33.44 6.00
4609 23.4480 36.73 33.44 6.06
4610 23.4520 35.58 33.43 5.96
4611 23.4560 37.81 33.43 6.15
4612 23.4600 35.21 33.43 5.93
4613 23.4640 38.22 33.43 6.18
4614 23.4680 29.51 33.43 5.43
4615 23.4720 33.28 33.43 5.77
4616 23.4760 30.86 33.43 5.56
4617 23.4800 33.50 33.43 5.79
4618 23.4840 31.23 33.43 5.59
4619 23.4880 38.18 33.43 6.18
4620 23.4920 33.25 33.44 5.77
4621 23.4960 33.79 33.44 5.81
4622 23.5000 32.05 33.44 5.66
4623 23.5040 34.97 33.45 5.91
4624 23.5080 30.64 33.46 5.54
4625 23.5120 34.94 33.46 5.91
4626 23.5160 34.96 33.47 5.91
4627 23.5200 33.49 33.48 5.79
4628 23.5240 31.31 33.49 5.60
4629 23.5280 34.36 33.50 5.86
4630 23.5320 32.78 33.51 5.73
4631 23.5360 36.74 33.53 6.06
4632 23.5400 37.16 33.54 6.10
4633 23.5440 27.61 33.56 5.25
4634 23.5480 38.34 33.57 6.19
4635 23.5520 34.81 33.59 5.90
4636 23.5560 30.00 33.61 5.48
4637 23.5600 36.01 33.63 6.00
4638 23.5640 40.01 33.66 6.33
4639 23.5680 31.38 33.68 5.60
4640 23.5720 30.70 33.71 5.54
4641 23.5760 36.37 33.74 6.03
4642 23.5800 32.04 33.77 5.66
4643 23.5840 36.04 33.80 6.00
4644 23.5880 29.62 33.83 5.44
4645 23.5920 29.14 33.92 5.40
4646 23.5960 38.74 34.01 6.22
4647 23.6000 32.50 34.12 5.70
4648 23.6040 33.64 34.22 5.80
4649 23.6080 29.68 34.33 5.45
4650 23.6120 32.94 34.44 5.74
4651 23.6160 30.57 34.56 5.53
4652 23.6200 39.95 34.67 6.32
4653 23.6240 35.21 34.80 5.93
4654 23.6280 31.10 34.93 5.58
4655 23.6320 37.40 35.06 6.12
4656 23.6360 36.69 35.20 6.06
4657 23.6400 33.19 35.34 5.76
4658 23.6440 38.49 35.49 6.20
4659 23.6480 30.14 35.64 5.49
4660 23.6520 35.57 35.81 5.96
4661 23.6560 33.60 35.98 5.80
4662 23.6600 32.85 36.16 5.73
4663 23.6640 28.35 36.34 5.32
4664 23.6680 31.42 36.54 5.61
4665 23.6720 39.69 36.75 6.30
4666 23.6760 31.51 36.94 5.61
4667 23.6800 37.44 37.17 6.12
4668 23.6840 36.98 37.42 6.08
4669 23.6880 37.47 37.68 6.12
4670 23.6920 32.28 37.97 5.68
4671 23.6960 38.26 38.27 6.19
4672 23.7000 32.63 38.59 5.71
4673 23.7040 35.49 38.94 5.96
4674 23.7080 38.11 39.31 6.17
4675 23.7120 37.61 39.71 6.13
4676 23.7160 43.63 40.15 6.61
4677 23.7200 32.43 40.63 5.69
4678 23.7240 32.24 41.14 5.68
4679 23.7280 44.29 41.71 6.66
4680 23.7320 41.69 42.33 6.46
4681 23.7360 36.37 43.01 6.03
4682 23.7400 40.35 43.77 6.35
4683 23.7440 39.52 44.61 6.29
4684 23.7480 37.05 45.54 6.09
4685 23.7520 41.31 46.58 6.43
4686 23.7560 45.15 47.75 6.72
4687 23.7600 48.56 49.08 6.97
4688 23.7640 54.90 50.57 7.41
4689 23.7680 51.54 52.27 7.18
4690 23.7720 47.86 54.22 6.92
4691 23.7760 62.44 56.45 7.90
4692 23.7800 61.48 59.03 7.84
4693 23.7840 58.99 62.00 7.68
4694 23.7880 64.41 65.46 8.03
4695 23.7920 70.37 69.47 8.39
4696 23.7960 70.68 74.13 8.41
4697 23.8000 74.93 79.54 8.66
4698 23.8040 80.06 85.76 8.95
4699 23.8080 85.17 92.83 9.23
4700 23.8120 101.02 100.68 10.05
4701 23.8160 109.94 109.13 10.49
4702 23.8200 112.65 117.73 10.61
4703 23.8240 124.77 125.78 11.17
4704 23.8280 140.76 132.36 11.86
4705 23.8320 152.88 136.48 12.36
4706 23.8360 161.98 137.42 12.73
4707 23.8400 154.44 135.02 12.43
4708 23.8440 143.11 129.73 11.96
4709 23.8480 121.97 122.43 11.04
4710 23.8520 122.56 114.12 11.07
4711 23.8560 103.20 105.61 10.16
4712 23.8600 105.15 97.51 10.25
4713 23.8640 88.87 90.11 9.43
4714 23.8680 82.52 83.54 9.08
4715 23.8720 76.42 77.81 8.74
4716 23.8760 73.49 72.86 8.57
4717 23.8800 63.37 68.62 7.96
4718 23.8840 66.71 64.97 8.17
4719 23.8880 60.36 61.85 7.77
4720 23.8920 51.58 59.17 7.18
4721 23.8960 60.16 56.87 7.76
4722 23.9000 52.86 54.88 7.27
4723 23.9040 45.87 53.15 6.77
4724 23.9080 57.86 51.68 7.61
4725 23.9120 49.07 50.37 7.00
4726 23.9160 52.94 49.22 7.28
4727 23.9200 42.66 48.21 6.53
4728 23.9240 46.62 47.32 6.83
4729 23.9280 42.20 46.53 6.50
4730 23.9320 43.28 45.84 6.58
4731 23.9360 51.53 45.22 7.18
4732 23.9400 40.04 44.66 6.33
4733 23.9440 49.33 44.17 7.02
4734 23.9480 42.59 43.73 6.53
4735 23.9520 44.51 43.33 6.67
4736 23.9560 42.18 42.97 6.49
4737 23.9600 43.01 42.65 6.56
4738 23.9640 42.81 42.37 6.54
4739 23.9680 45.42 42.11 6.74
4740 23.9720 37.18 41.87 6.10
4741 23.9760 41.71 41.66 6.46
4742 23.9800 40.68 41.47 6.38
4743 23.9840 42.74 41.30 6.54
4744 23.9880 43.93 41.14 6.63
4745 23.9920 43.18 41.00 6.57
4746 23.9960 42.21 40.87 6.50
4747 24.0000 38.23 40.76 6.18
4748 24.0040 42.94 40.66 6.55
4749 24.0080 42.07 40.57 6.49
4750 24.0120 42.38 40.49 6.51
4751 24.0160 41.47 40.41 6.44
4752 24.0200 44.48 40.35 6.67
4753 24.0240 42.48 40.29 6.52
4754 24.0280 41.90 40.24 6.47
4755 24.0320 44.49 40.20 6.67
4756 24.0360 39.71 40.16 6.30
4757 24.0400 49.51 40.13 7.04
4758 24.0440 39.14 40.10 6.26
4759 24.0480 46.58 40.08 6.82
4760 24.0520 44.29 40.07 6.65
4761 24.0560 45.34 40.05 6.73
4762 24.0600 44.26 40.04 6.65
4763 24.0640 47.13 40.04 6.87
4764 24.0680 39.39 40.04 6.28
4765 24.0720 45.94 40.04 6.78
4766 24.0760 41.23 40.05 6.42
4767 24.0800 40.94 40.05 6.40
4768 24.0840 36.80 40.07 6.07
4769 24.0880 38.54 40.08 6.21
4770 24.0920 37.04 40.10 6.09
4771 24.0960 41.12 40.12 6.41
4772 24.1000 42.27 40.14 6.50
4773 24.1040 37.90 40.16 6.16
4774 24.1080 39.52 40.19 6.29
4775 24.1120 44.80 40.22 6.69
4776 24.1160 39.98 40.25 6.32
4777 24.1200 37.14 40.28 6.09
4778 24.1240 37.73 40.31 6.14
4779 24.1280 47.77 40.35 6.91
4780 24.1320 38.73 40.39 6.22
4781 24.1360 41.06 40.43 6.41
4782 24.1400 41.82 40.47 6.47
4783 24.1440 39.25 40.51 6.27
4784 24.1480 39.77 40.56 6.31
4785 24.1520 38.16 40.60 6.18
4786 24.1560 41.50 40.65 6.44
4787 24.1600 40.71 40.70 6.38
4788 24.1640 40.59 40.75 6.37
4789 24.1680 40.86 40.80 6.39
4790 24.1720 38.83 40.86 6.23
4791 24.1760 42.75 40.91 6.54
4792 24.1800 41.14 40.97 6.41
4793 24.1840 33.65 41.03 5.80
4794 24.1880 46.56 41.09 6.82
4795 24.1920 39.83 41.15 6.31
4796 24.1960 37.94 41.22 6.16
4797 24.2000 43.88 41.28 6.62
4798 24.2040 37.81 41.35 6.15
4799 24.2080 39.95 41.42 6.32
4800 24.2120 31.73 41.49 5.63
4801 24.2160 43.31 41.56 6.58
4802 24.2200 38.30 41.63 6.19
4803 24.2240 39.98 41.71 6.32
4804 24.2280 38.77 41.79 6.23
4805 24.2320 34.26 41.85 5.85
4806 24.2360 42.16 41.89 6.49
4807 24.2400 37.68 41.92 6.14
4808 24.2440 41.29 41.96 6.43
4809 24.2480 43.86 42.00 6.62
4810 24.2520 37.37 42.04 6.11
4811 24.2560 47.01 42.08 6.86
4812 24.2600 39.14 42.13 6.26
4813 24.2640 34.72 42.18 5.89
4814 24.2680 49.47 42.23 7.03
4815 24.2720 38.17 42.28 6.18
4816 24.2760 44.49 42.34 6.67
4817 24.2800 42.53 42.40 6.52
4818 24.2840 43.60 42.46 6.60
4819 24.2880 41.64 42.53 6.45
4820 24.2920 42.20 42.59 6.50
4821 24.2960 42.21 42.67 6.50
4822 24.3000 41.13 42.74 6.41
4823 24.3040 40.43 42.82 6.36
4824 24.3080 44.46 42.91 6.67
4825 24.3120 41.79 43.00 6.46
4826 24.3160 41.77 43.09 6.46
4827 24.3200 40.57 43.19 6.37
4828 24.3240 42.54 43.29 6.52
4829 24.3280 38.69 43.40 6.22
4830 24.3320 43.41 43.51 6.59
4831 24.3360 39.52 43.63 6.29
4832 24.3400 41.38 43.76 6.43
4833 24.3440 41.23 43.89 6.42
4834 24.3480 39.72 44.03 6.30
4835 24.3520 45.65 44.18 6.76
4836 24.3560 45.26 44.33 6.73
4837 24.3600 37.56 44.50 6.13
4838 24.3640 37.63 44.67 6.13
4839 24.3680 38.99 44.86 6.24
4840 24.3720 45.28 45.05 6.73
4841 24.3760 40.63 45.26 6.37
4842 24.3800 45.13 45.48 6.72
4843 24.3840 39.85 45.71 6.31
4844 24.3880 39.32 45.96 6.27
4845 24.3920 46.57 46.23 6.82
4846 24.3960 43.23 46.51 6.58
4847 24.4000 39.81 46.81 6.31
4848 24.4040 45.17 47.13 6.72
4849 24.4080 45.15 47.47 6.72
4850 24.4120 41.63 47.83 6.45
4851 24.4160 49.35 48.22 7.03
4852 24.4200 45.06 48.64 6.71
4853 24.4240 43.67 49.09 6.61
4854 24.4280 47.13 49.58 6.87
4855 24.4320 48.17 50.10 6.94
4856 24.4360 58.40 50.67 7.64
4857 24.4400 44.22 51.28 6.65
4858 24.4440 51.11 51.94 7.15
4859 24.4480 55.42 52.66 7.44
4860 24.4520 46.46 53.45 6.82
4861 24.4560 52.40 54.30 7.24
4862 24.4600 50.62 55.24 7.12
4863 24.4640 55.42 56.26 7.44
4864 24.4680 52.64 57.38 7.26
4865 24.4720 59.56 58.62 7.72
4866 24.4760 57.74 59.99 7.60
4867 24.4800 61.00 61.50 7.81
4868 24.4840 62.03 63.19 7.88
4869 24.4880 58.94 65.07 7.68
4870 24.4920 71.10 67.16 8.43
4871 24.4960 68.92 69.52 8.30
4872 24.5000 77.46 72.17 8.80
4873 24.5040 72.59 75.19 8.52
4874 24.5080 79.21 78.59 8.90
4875 24.5120 90.38 82.47 9.51
4876 24.5160 85.99 86.90 9.27
4877 24.5200 94.62 91.99 9.73
4878 24.5240 97.27 97.84 9.86
4879 24.5280 104.34 104.60 10.21
4880 24.5320 113.18 112.43 10.64
4881 24.5360 128.38 121.50 11.33
4882 24.5400 127.40 132.01 11.29
4883 24.5440 141.53 144.13 11.90
4884 24.5480 163.12 158.03 12.77
4885 24.5520 161.21 173.76 12.70
4886 24.5560 173.99 191.21 13.19
4887 24.5600 192.65 209.93 13.88
4888 24.5640 213.17 229.06 14.60
4889 24.5680 233.57 247.18 15.28
4890 24.5720 272.81 262.34 16.52
4891 24.5760 276.75 272.49 16.64
4892 24.5800 305.46 275.97 17.48
4893 24.5840 298.11 271.99 17.27
4894 24.5880 278.69 261.58 16.69
4895 24.5920 251.05 246.25 15.84
4896 24.5960 219.83 228.06 14.83
4897 24.6000 193.07 208.93 13.90
4898 24.6040 179.30 190.26 13.39
4899 24.6080 182.61 172.89 13.51
4900 24.6120 142.10 157.25 11.92
4901 24.6160 141.60 143.45 11.90
4902 24.6200 135.05 131.40 11.62
4903 24.6240 108.15 120.98 10.40
4904 24.6280 116.54 111.98 10.80
4905 24.6320 102.14 104.22 10.11
4906 24.6360 89.83 97.51 9.48
4907 24.6400 89.36 91.70 9.45
4908 24.6440 87.07 86.66 9.33
4909 24.6480 84.08 82.27 9.17
4910 24.6520 76.19 78.43 8.73
4911 24.6560 74.04 75.06 8.60
4912 24.6600 74.45 72.08 8.63
4913 24.6640 64.85 69.46 8.05
4914 24.6680 68.86 67.13 8.30
4915 24.6720 69.76 65.05 8.35
4916 24.6760 59.18 63.19 7.69
4917 24.6800 62.44 61.53 7.90
4918 24.6840 61.56 60.03 7.85
4919 24.6880 56.86 58.68 7.54
4920 24.6920 54.27 57.46 7.37
4921 24.6960 50.66 56.35 7.12
4922 24.7000 53.37 55.35 7.31
4923 24.7040 54.14 54.43 7.36
4924 24.7080 48.68 53.59 6.98
4925 24.7120 54.46 52.82 7.38
4926 24.7160 53.05 52.12 7.28
4927 24.7200 43.40 51.47 6.59
4928 24.7240 41.91 50.88 6.47
4929 24.7280 49.42 50.33 7.03
4930 24.7320 48.26 49.82 6.95
4931 24.7360 45.57 49.35 6.75
4932 24.7400 49.41 48.92 7.03
4933 24.7440 45.14 48.51 6.72
4934 24.7480 46.60 48.14 6.83
4935 24.7520 49.67 47.79 7.05
4936 24.7560 44.08 47.47 6.64
4937 24.7600 46.78 47.16 6.84
4938 24.7640 45.77 46.88 6.77
4939 24.7680 38.26 46.62 6.19
4940 24.7720 52.63 46.37 7.25
4941 24.7760 38.18 46.14 6.18
4942 24.7800 46.07 45.93 6.79
4943 24.7840 43.28 45.73 6.58
4944 24.7880 41.64 45.54 6.45
4945 24.7920 38.11 45.37 6.17
4946 24.7960 39.18 45.20 6.26
4947 24.8000 46.79 45.05 6.84
4948 24.8040 41.53 44.91 6.44
4949 24.8080 43.36 44.77 6.58
4950 24.8120 38.24 44.65 6.18
4951 24.8160 43.09 44.53 6.56
4952 24.8200 36.60 44.42 6.05
4953 24.8240 41.93 44.32 6.48
4954 24.8280 49.45 44.22 7.03
4955 24.8320 35.48 44.13 5.96
4956 24.8360 42.44 44.05 6.51
4957 24.8400 34.09 43.99 5.84
4958 24.8440 43.65 43.94 6.61
4959 24.8480 42.05 43.89 6.48
4960 24.8520 44.44 43.86 6.67
4961 24.8560 37.79 43.82 6.15
4962 24.8600 42.98 43.79 6.56
4963 24.8640 46.93 43.77 6.85
4964 24.8680 43.35 43.75 6.58
4965 24.8720 44.14 43.74 6.64
4966 24.8760 43.25 43.73 6.58
4967 24.8800 41.54 43.72 6.45
4968 24.8840 43.14 43.72 6.57
4969 24.8880 38.27 43.72 6.19
4970 24.8920 41.04 43.73 6.41
4971 24.8960 46.94 43.74 6.85
4972 24.9000 43.49 43.75 6.59
4973 24.9040 44.97 43.77 6.71
4974 24.9080 46.32 43.79 6.81
4975 24.9120 42.59 43.81 6.53
4976 24.9160 46.41 43.84 6.81
4977 24.9200 46.06 43.88 6.79
4978 24.9240 41.88 43.91 6.47
4979 24.9280 47.86 43.95 6.92
4980 24.9320 44.16 44.00 6.65
4981 24.9360 42.09 44.04 6.49
4982 24.9400 43.88 44.10 6.62
4983 24.9440 43.82 44.15 6.62
4984 24.9480 43.84 44.21 6.62
4985 24.9520 56.89 44.27 7.54
4986 24.9560 52.42 44.34 7.24
4987 24.9600 47.74 44.41 6.91
4988 24.9640 51.35 44.49 7.17
4989 24.9680 55.37 44.57 7.44
4990 24.9720 48.68 44.65 6.98
4991 24.9760 49.59 44.74 7.04
4992 24.9800 52.70 44.83 7.26
4993 24.9840 41.71 44.93 6.46
4994 24.9880 48.09 45.04 6.93
4995 24.9920 51.14 45.14 7.15
4996 24.9960 44.08 45.26 6.64
4997 25.0000 48.39 45.38 6.96
4998 25.0040 55.43 45.50 7.45
4999 25.0080 44.59 45.63 6.68
5000 25.0120 51.81 45.77 7.20
5001 25.0160 46.55 45.92 6.82
5002 25.0200 55.30 46.07 7.44
5003 25.0240 46.90 46.23 6.85
5004 25.0280 50.87 46.39 7.13
5005 25.0320 46.42 46.57 6.81
5006 25.0360 46.47 46.75 6.82
5007 25.0400 53.29 46.94 7.30
5008 25.0440 54.78 47.14 7.40
5009 25.0480 53.42 47.35 7.31
5010 25.0520 49.08 47.57 7.01
5011 25.0560 57.96 47.80 7.61
5012 25.0600 52.91 48.05 7.27
5013 25.0640 50.21 48.30 7.09
5014 25.0680 50.78 48.57 7.13
5015 25.0720 54.76 48.86 7.40
5016 25.0760 57.35 49.15 7.57
5017 25.0800 53.67 49.47 7.33
5018 25.0840 62.15 49.80 7.88
5019 25.0880 60.54 50.17 7.78
5020 25.0920 53.77 50.54 7.33
5021 25.0960 60.85 50.93 7.80
5022 25.1000 65.08 51.35 8.07
5023 25.1040 56.24 51.78 7.50
5024 25.1080 62.11 52.24 7.88
5025 25.1120 64.51 52.74 8.03
5026 25.1160 62.63 53.26 7.91
5027 25.1200 72.41 53.81 8.51
5028 25.1240 66.92 54.40 8.18
5029 25.1280 64.70 55.03 8.04
5030 25.1320 71.01 55.70 8.43
5031 25.1360 70.89 56.41 8.42
5032 25.1400 66.14 57.18 8.13
5033 25.1440 67.24 58.00 8.20
5034 25.1480 69.47 58.88 8.33
5035 25.1520 81.03 59.83 9.00
5036 25.1560 76.61 60.85 8.75
5037 25.1600 68.54 61.95 8.28
5038 25.1640 79.82 63.13 8.93
5039 25.1680 82.54 64.42 9.09
5040 25.1720 79.50 65.81 8.92
5041 25.1760 80.54 67.33 8.97
5042 25.1800 93.50 68.98 9.67
5043 25.1840 86.32 70.78 9.29
5044 25.1880 85.12 72.75 9.23
5045 25.1920 90.54 74.91 9.52
5046 25.1960 93.51 77.29 9.67
5047 25.2000 103.00 79.92 10.15
5048 25.2040 105.64 82.82 10.28
5049 25.2080 99.09 86.05 9.95
5050 25.2120 111.07 89.63 10.54
5051 25.2160 123.28 93.63 11.10
5052 25.2200 105.76 98.12 10.28
5053 25.2240 126.07 103.16 11.23
5054 25.2280 138.44 108.85 11.77
5055 25.2320 132.17 115.29 11.50
5056 25.2360 145.06 122.61 12.04
5057 25.2400 153.43 130.96 12.39
5058 25.2440 179.86 140.51 13.41
5059 25.2480 177.09 151.47 13.31
5060 25.2520 186.01 164.09 13.64
5061 25.2560 217.12 178.64 14.74
5062 25.2600 212.32 195.41 14.57
5063 25.2640 219.17 214.74 14.80
5064 25.2680 270.83 236.94 16.46
5065 25.2720 273.91 262.22 16.55
5066 25.2760 298.19 290.65 17.27
5067 25.2800 335.13 321.97 18.31
5068 25.2840 349.93 355.34 18.71
5069 25.2880 390.90 389.25 19.77
5070 25.2920 458.31 421.22 21.41
5071 25.2960 443.20 448.04 21.05
5072 25.3000 569.52 466.22 23.86
5073 25.3040 515.86 473.00 22.71
5074 25.3080 573.45 467.24 23.95
5075 25.3120 546.43 449.93 23.38
5076 25.3160 443.19 423.71 21.05
5077 25.3200 446.73 392.07 21.14
5078 25.3240 362.41 358.25 19.04
5079 25.3280 333.29 324.78 18.26
5080 25.3320 305.69 293.29 17.48
5081 25.3360 277.33 264.64 16.65
5082 25.3400 253.02 239.13 15.91
5083 25.3440 240.09 216.73 15.49
5084 25.3480 222.43 197.20 14.91
5085 25.3520 196.95 180.26 14.03
5086 25.3560 187.38 165.57 13.69
5087 25.3600 179.06 152.84 13.38
5088 25.3640 174.52 141.78 13.21
5089 25.3680 158.34 132.15 12.58
5090 25.3720 148.52 123.74 12.19
5091 25.3760 146.06 116.38 12.09
5092 25.3800 127.15 109.90 11.28
5093 25.3840 142.86 104.18 11.95
5094 25.3880 126.95 99.12 11.27
5095 25.3920 107.15 94.62 10.35
5096 25.3960 120.78 90.61 10.99
5097 25.4000 111.15 87.02 10.54
5098 25.4040 105.53 83.80 10.27
5099 25.4080 100.50 80.90 10.02
5100 25.4120 103.79 78.28 10.19
5101 25.4160 92.40 75.91 9.61
5102 25.4200 94.76 73.76 9.73
5103 25.4240 94.19 71.81 9.71
5104 25.4280 79.25 70.02 8.90
5105 25.4320 87.79 68.39 9.37
5106 25.4360 89.13 66.89 9.44
5107 25.4400 80.69 65.51 8.98
5108 25.4440 78.66 64.25 8.87
5109 25.4480 81.96 63.08 9.05
5110 25.4520 74.39 62.00 8.62
5111 25.4560 70.47 61.01 8.39
5112 25.4600 71.01 60.08 8.43
5113 25.4640 70.62 59.22 8.40
5114 25.4680 75.96 58.43 8.72
5115 25.4720 73.80 57.68 8.59
5116 25.4760 79.65 56.99 8.92
5117 25.4800 66.13 56.35 8.13
5118 25.4840 74.20 55.74 8.61
5119 25.4880 74.34 55.18 8.62
5120 25.4920 51.94 54.65 7.21
5121 25.4960 69.68 54.15 8.35
5122 25.5000 71.80 53.68 8.47
5123 25.5040 69.19 53.25 8.32
5124 25.5080 67.02 52.83 8.19
5125 25.5120 69.07 52.45 8.31
5126 25.5160 61.60 52.08 7.85
5127 25.5200 66.68 51.74 8.17
5128 25.5240 64.54 51.41 8.03
5129 25.5280 66.41 51.10 8.15
5130 25.5320 65.69 50.81 8.10
5131 25.5360 68.04 50.54 8.25
5132 25.5400 60.25 50.28 7.76
5133 25.5440 60.97 50.04 7.81
5134 25.5480 56.65 49.80 7.53
5135 25.5520 63.06 49.58 7.94
5136 25.5560 59.39 49.38 7.71
5137 25.5600 61.18 49.18 7.82
5138 25.5640 62.32 48.99 7.89
5139 25.5680 55.95 48.81 7.48
5140 25.5720 66.59 48.65 8.16
5141 25.5760 60.42 48.49 7.77
5142 25.5800 61.71 48.33 7.86
5143 25.5840 56.67 48.19 7.53
5144 25.5880 61.44 48.05 7.84
5145 25.5920 65.21 47.92 8.08
5146 25.5960 56.92 47.80 7.54
5147 25.6000 53.81 47.68 7.34
5148 25.6040 59.55 47.57 7.72
5149 25.6080 56.87 47.47 7.54
5150 25.6120 56.28 47.37 7.50
5151 25.6160 57.77 47.28 7.60
5152 25.6200 66.80 47.19 8.17
5153 25.6240 48.10 47.10 6.94
5154 25.6280 61.53 47.02 7.84
5155 25.6320 61.27 46.95 7.83
5156 25.6360 54.97 46.88 7.41
5157 25.6400 57.03 46.81 7.55
5158 25.6440 53.68 46.75 7.33
5159 25.6480 57.48 46.69 7.58
5160 25.6520 55.52 46.63 7.45
5161 25.6560 63.63 46.58 7.98
5162 25.6600 50.60 46.53 7.11
5163 25.6640 60.09 46.49 7.75
5164 25.6680 64.34 46.45 8.02
5165 25.6720 48.58 46.41 6.97
5166 25.6760 57.43 46.37 7.58
5167 25.6800 57.74 46.34 7.60
5168 25.6840 54.03 46.31 7.35
5169 25.6880 51.55 46.29 7.18
5170 25.6920 59.62 46.27 7.72
5171 25.6960 55.19 46.25 7.43
5172 25.7000 55.72 46.23 7.46
5173 25.7040 66.79 46.21 8.17
5174 25.7080 50.63 46.18 7.12
5175 25.7120 51.34 46.15 7.16
5176 25.7160 54.78 46.12 7.40
5177 25.7200 56.28 46.09 7.50
5178 25.7240 53.43 46.06 7.31
5179 25.7280 44.80 46.04 6.69
5180 25.7320 59.37 46.02 7.71
5181 25.7360 58.91 46.01 7.68
5182 25.7400 49.04 45.99 7.00
5183 25.7440 63.26 45.98 7.95
5184 25.7480 55.81 45.97 7.47
5185 25.7520 56.05 45.97 7.49
5186 25.7560 53.60 45.97 7.32
5187 25.7600 57.39 45.97 7.58
5188 25.7640 60.92 45.98 7.80
5189 25.7680 57.20 45.98 7.56
5190 25.7720 61.77 46.00 7.86
5191 25.7760 58.98 46.01 7.68
5192 25.7800 55.18 46.03 7.43
5193 25.7840 60.32 46.06 7.77
5194 25.7880 70.45 46.09 8.39
5195 25.7920 58.25 46.12 7.63
5196 25.7960 59.36 46.16 7.70
5197 25.8000 56.60 46.20 7.52
5198 25.8040 58.67 46.25 7.66
5199 25.8080 60.10 46.31 7.75
5200 25.8120 66.79 46.37 8.17
5201 25.8160 55.96 46.44 7.48
5202 25.8200 57.21 46.51 7.56
5203 25.8240 59.24 46.59 7.70
5204 25.8280 49.75 46.68 7.05
5205 25.8320 62.54 46.78 7.91
5206 25.8360 63.34 46.89 7.96
5207 25.8400 56.57 47.01 7.52
5208 25.8440 55.48 47.14 7.45
5209 25.8480 67.21 47.28 8.20
5210 25.8520 51.80 47.43 7.20
5211 25.8560 62.39 47.60 7.90
5212 25.8600 66.63 47.78 8.16
5213 25.8640 58.82 47.98 7.67
5214 25.8680 68.64 48.20 8.29
5215 25.8720 63.22 48.44 7.95
5216 25.8760 60.38 48.70 7.77
5217 25.8800 63.25 48.99 7.95
5218 25.8840 70.58 49.31 8.40
5219 25.8880 65.92 49.65 8.12
5220 25.8920 68.40 50.04 8.27
5221 25.8960 66.64 50.46 8.16
5222 25.9000 62.87 50.92 7.93
5223 25.9040 64.85 51.44 8.05
5224 25.9080 74.13 52.01 8.61
5225 25.9120 75.99 52.65 8.72
5226 25.9160 75.01 53.36 8.66
5227 25.9200 68.34 54.16 8.27
5228 25.9240 75.11 55.05 8.67
5229 25.9280 72.62 56.06 8.52
5230 25.9320 72.77 57.19 8.53
5231 25.9360 70.32 58.48 8.39
5232 25.9400 75.83 59.93 8.71
5233 25.9440 84.08 61.59 9.17
5234 25.9480 79.52 63.49 8.92
5235 25.9520 78.80 65.66 8.88
5236 25.9560 86.22 68.15 9.29
5237 25.9600 84.21 71.02 9.18
5238 25.9640 97.35 74.31 9.87
5239 25.9680 96.93 78.10 9.85
5240 25.9720 100.35 82.43 10.02
5241 25.9760 97.73 87.35 9.89
5242 25.9800 100.76 92.88 10.04
5243 25.9840 102.93 98.98 10.15
5244 25.9880 111.82 105.51 10.57
5245 25.9920 121.34 112.21 11.02
5246 25.9960 121.14 118.66 11.01
5247 26.0000 131.21 124.28 11.45
5248 26.0040 153.94 128.43 12.41
5249 26.0080 143.13 130.52 11.96
5250 26.0120 139.88 130.23 11.83
5251 26.0160 169.26 127.61 13.01
5252 26.0200 127.81 123.04 11.31
5253 26.0240 128.16 117.15 11.32
5254 26.0280 117.35 110.57 10.83
5255 26.0320 104.75 103.85 10.23
5256 26.0360 116.52 97.38 10.79
5257 26.0400 96.40 91.37 9.82
5258 26.0440 88.99 85.95 9.43
5259 26.0480 89.59 81.14 9.47
5260 26.0520 84.70 76.91 9.20
5261 26.0560 86.90 73.21 9.32
5262 26.0600 84.53 69.99 9.19
5263 26.0640 79.84 67.19 8.94
5264 26.0680 73.09 64.74 8.55
5265 26.0720 78.89 62.61 8.88
5266 26.0760 73.58 60.74 8.58
5267 26.0800 64.43 59.11 8.03
5268 26.0840 78.29 57.66 8.85
5269 26.0880 72.96 56.39 8.54
5270 26.0920 55.76 55.26 7.47
5271 26.0960 63.07 54.25 7.94
5272 26.1000 66.44 53.35 8.15
5273 26.1040 55.58 52.55 7.45
5274 26.1080 61.06 51.83 7.81
5275 26.1120 63.44 51.18 7.97
5276 26.1160 54.70 50.59 7.40
5277 26.1200 55.83 50.06 7.47
5278 26.1240 53.74 49.57 7.33
5279 26.1280 59.59 49.13 7.72
5280 26.1320 53.19 48.73 7.29
5281 26.1360 54.15 48.36 7.36
5282 26.1400 48.58 48.02 6.97
5283 26.1440 52.16 47.71 7.22
5284 26.1480 56.97 47.42 7.55
5285 26.1520 52.05 47.16 7.21
5286 26.1560 55.94 46.92 7.48
5287 26.1600 56.62 46.69 7.52
5288 26.1640 51.94 46.48 7.21
5289 26.1680 55.10 46.29 7.42
5290 26.1720 50.99 46.11 7.14
5291 26.1760 47.77 45.94 6.91
5292 26.1800 55.45 45.78 7.45
5293 26.1840 51.39 45.64 7.17
5294 26.1880 49.49 45.50 7.03
5295 26.1920 50.52 45.37 7.11
5296 26.1960 53.65 45.25 7.32
5297 26.2000 44.50 45.14 6.67
5298 26.2040 54.36 45.04 7.37
5299 26.2080 45.15 44.94 6.72
5300 26.2120 49.54 44.85 7.04
5301 26.2160 48.12 44.76 6.94
5302 26.2200 42.58 44.70 6.53
5303 26.2240 42.93 44.63 6.55
5304 26.2280 47.72 44.56 6.91
5305 26.2320 44.23 44.49 6.65
5306 26.2360 39.18 44.43 6.26
5307 26.2400 44.56 44.38 6.68
5308 26.2440 40.11 44.32 6.33
5309 26.2480 44.12 44.27 6.64
5310 26.2520 41.82 44.23 6.47
5311 26.2560 41.40 44.18 6.43
5312 26.2600 45.16 44.14 6.72
5313 26.2640 46.46 44.11 6.82
5314 26.2680 43.60 44.07 6.60
5315 26.2720 36.26 44.04 6.02
5316 26.2760 45.26 44.01 6.73
5317 26.2800 46.61 43.99 6.83
5318 26.2840 40.74 43.97 6.38
5319 26.2880 41.44 43.95 6.44
5320 26.2920 40.92 43.93 6.40
5321 26.2960 45.00 43.91 6.71
5322 26.3000 35.33 43.90 5.94
5323 26.3040 37.81 43.89 6.15
5324 26.3080 40.49 43.88 6.36
5325 26.3120 44.37 43.86 6.66
5326 26.3160 44.74 43.86 6.69
5327 26.3200 33.39 43.85 5.78
5328 26.3240 38.09 43.85 6.17
5329 26.3280 39.47 43.86 6.28
5330 26.3320 41.07 43.86 6.41
5331 26.3360 46.13 43.87 6.79
5332 26.3400 38.00 43.88 6.16
5333 26.3440 46.64 43.89 6.83
5334 26.3480 42.23 43.91 6.50
5335 26.3520 38.83 43.92 6.23
5336 26.3560 42.65 43.94 6.53
5337 26.3600 41.15 43.97 6.41
5338 26.3640 50.15 43.99 7.08
5339 26.3680 34.44 44.02 5.87
5340 26.3720 38.53 44.05 6.21
5341 26.3760 37.16 44.08 6.10
5342 26.3800 40.38 44.11 6.35
5343 26.3840 34.09 44.14 5.84
5344 26.3880 38.60 44.17 6.21
5345 26.3920 41.81 44.19 6.47
5346 26.3960 35.86 44.22 5.99
5347 26.4000 39.45 44.25 6.28
5348 26.4040 34.49 44.29 5.87
5349 26.4080 36.75 44.33 6.06
5350 26.4120 41.29 44.37 6.43
5351 26.4160 37.94 44.42 6.16
5352 26.4200 41.63 44.47 6.45
5353 26.4240 37.94 44.53 6.16
5354 26.4280 37.65 44.59 6.14
5355 26.4320 46.18 44.65 6.80
5356 26.4360 39.15 44.72 6.26
5357 26.4400 40.03 44.80 6.33
5358 26.4440 35.51 44.88 5.96
5359 26.4480 45.53 44.97 6.75
5360 26.4520 45.56 45.06 6.75
5361 26.4560 34.08 45.16 5.84
5362 26.4600 40.94 45.27 6.40
5363 26.4640 45.74 45.38 6.76
5364 26.4680 45.12 45.51 6.72
5365 26.4720 40.33 45.64 6.35
5366 26.4760 40.64 45.78 6.38
5367 26.4800 38.41 45.93 6.20
5368 26.4840 46.01 46.09 6.78
5369 26.4880 38.47 46.27 6.20
5370 26.4920 35.10 46.45 5.92
5371 26.4960 48.56 46.65 6.97
5372 26.5000 40.74 46.86 6.38
5373 26.5040 47.57 47.09 6.90
5374 26.5080 42.99 47.33 6.56
5375 26.5120 46.64 47.59 6.83
5376 26.5160 51.61 47.87 7.18
5377 26.5200 41.73 48.17 6.46
5378 26.5240 40.91 48.50 6.40
5379 26.5280 48.44 48.84 6.96
5380 26.5320 53.05 49.22 7.28
5381 26.5360 45.31 49.62 6.73
5382 26.5400 43.08 50.05 6.56
5383 26.5440 49.26 50.52 7.02
5384 26.5480 39.96 51.03 6.32
5385 26.5520 43.56 51.58 6.60
5386 26.5560 46.60 52.18 6.83
5387 26.5600 41.52 52.82 6.44
5388 26.5640 49.42 53.53 7.03
5389 26.5680 56.43 54.30 7.51
5390 26.5720 44.10 55.13 6.64
5391 26.5760 54.06 56.05 7.35
5392 26.5800 52.36 57.06 7.24
5393 26.5840 51.99 58.16 7.21
5394 26.5880 57.38 59.37 7.58
5395 26.5920 54.99 60.72 7.42
5396 26.5960 54.11 62.20 7.36
5397 26.6000 54.11 63.85 7.36
5398 26.6040 59.41 65.68 7.71
5399 26.6080 72.47 67.72 8.51
5400 26.6120 60.01 70.00 7.75
5401 26.6160 68.13 72.57 8.25
5402 26.6200 71.89 75.45 8.48
5403 26.6240 76.24 78.71 8.73
5404 26.6280 77.03 82.39 8.78
5405 26.6320 84.74 86.58 9.21
5406 26.6360 84.96 91.35 9.22
5407 26.6400 100.95 96.79 10.05
5408 26.6440 93.53 103.02 9.67
5409 26.6480 106.07 110.15 10.30
5410 26.6520 117.85 118.32 10.86
5411 26.6560 112.78 127.66 10.62
5412 26.6600 127.74 138.28 11.30
5413 26.6640 142.32 150.29 11.93
5414 26.6680 144.81 163.69 12.03
5415 26.6720 169.62 178.36 13.02
5416 26.6760 166.51 193.93 12.90
5417 26.6800 207.28 209.80 14.40
5418 26.6840 215.43 224.95 14.68
5419 26.6880 225.14 238.07 15.00
5420 26.6920 274.57 247.70 16.57
5421 26.6960 268.02 252.57 16.37
5422 26.7000 276.30 251.94 16.62
5423 26.7040 268.17 245.92 16.38
5424 26.7080 242.43 235.36 15.57
5425 26.7120 215.50 221.63 14.68
5426 26.7160 189.42 206.17 13.76
5427 26.7200 180.93 190.24 13.45
5428 26.7240 166.10 174.75 12.89
5429 26.7280 129.39 160.29 11.38
5430 26.7320 139.05 147.13 11.79
5431 26.7360 114.14 135.37 10.68
5432 26.7400 116.38 124.97 10.79
5433 26.7440 109.83 115.85 10.48
5434 26.7480 105.73 107.86 10.28
5435 26.7520 101.10 100.87 10.05
5436 26.7560 85.61 94.77 9.25
5437 26.7600 84.52 89.42 9.19
5438 26.7640 84.99 84.73 9.22
5439 26.7680 80.56 80.60 8.98
5440 26.7720 67.51 76.97 8.22
5441 26.7760 67.46 73.74 8.21
5442 26.7800 61.79 70.87 7.86
5443 26.7840 62.01 68.32 7.87
5444 26.7880 58.93 66.04 7.68
5445 26.7920 56.11 63.99 7.49
5446 26.7960 59.46 62.14 7.71
5447 26.8000 46.26 60.48 6.80
5448 26.8040 53.18 58.97 7.29
5449 26.8080 45.69 57.61 6.76
5450 26.8120 44.89 56.36 6.70
5451 26.8160 38.63 55.23 6.21
5452 26.8200 44.41 54.19 6.66
5453 26.8240 42.89 53.24 6.55
5454 26.8280 43.37 52.36 6.59
5455 26.8320 39.79 51.55 6.31
5456 26.8360 45.04 50.81 6.71
5457 26.8400 51.25 50.12 7.16
5458 26.8440 46.65 49.48 6.83
5459 26.8480 40.10 48.88 6.33
5460 26.8520 34.89 48.33 5.91
5461 26.8560 41.94 47.82 6.48
5462 26.8600 42.60 47.34 6.53
5463 26.8640 40.31 46.89 6.35
5464 26.8680 33.42 46.47 5.78
5465 26.8720 37.66 46.07 6.14
5466 26.8760 36.85 45.70 6.07
5467 26.8800 46.15 45.35 6.79
5468 26.8840 33.66 45.03 5.80
5469 26.8880 38.48 44.72 6.20
5470 26.8920 32.93 44.43 5.74
5471 26.8960 37.65 44.15 6.14
5472 26.9000 40.98 43.89 6.40
5473 26.9040 39.49 43.64 6.28
5474 26.9080 40.37 43.41 6.35
5475 26.9120 39.67 43.19 6.30
5476 26.9160 36.05 42.98 6.00
5477 26.9200 36.15 42.78 6.01
5478 26.9240 37.35 42.59 6.11
5479 26.9280 32.03 42.41 5.66
5480 26.9320 34.68 42.23 5.89
5481 26.9360 35.54 42.07 5.96
5482 26.9400 38.02 41.91 6.17
5483 26.9440 28.61 41.76 5.35
5484 26.9480 37.32 41.62 6.11
5485 26.9520 36.69 41.49 6.06
5486 26.9560 37.19 41.36 6.10
5487 26.9600 33.98 41.24 5.83
5488 26.9640 37.34 41.12 6.11
5489 26.9680 38.38 41.01 6.19
5490 26.9720 37.52 40.90 6.13
5491 26.9760 35.10 40.80 5.92
5492 26.9800 33.57 40.70 5.79
5493 26.9840 34.76 40.60 5.90
5494 26.9880 35.83 40.52 5.99
5495 26.9920 33.16 40.43 5.76
5496 26.9960 39.42 40.35 6.28
5497 27.0000 42.09 40.27 6.49
5498 27.0040 33.27 40.20 5.77
5499 27.0080 33.30 40.13 5.77
5500 27.0120 36.46 40.06 6.04
5501 27.0160 39.09 40.00 6.25
5502 27.0200 27.52 39.94 5.25
5503 27.0240 39.01 39.89 6.25
5504 27.0280 37.23 39.84 6.10
5505 27.0320 32.41 39.79 5.69
5506 27.0360 35.34 39.74 5.94
5507 27.0400 32.86 39.69 5.73
5508 27.0440 38.71 39.65 6.22
5509 27.0480 38.77 39.61 6.23
5510 27.0520 27.98 39.57 5.29
5511 27.0560 36.02 39.54 6.00
5512 27.0600 34.52 39.51 5.88
5513 27.0640 34.68 39.48 5.89
5514 27.0680 36.80 39.46 6.07
5515 27.0720 33.68 39.44 5.80
5516 27.0760 34.71 39.42 5.89
5517 27.0800 34.29 39.41 5.86
5518 27.0840 35.97 39.40 6.00
5519 27.0880 41.00 39.39 6.40
5520 27.0920 31.16 39.39 5.58
5521 27.0960 32.09 39.39 5.66
5522 27.1000 40.92 39.39 6.40
5523 27.1040 32.19 39.40 5.67
5524 27.1080 35.75 39.41 5.98
5525 27.1120 35.28 39.43 5.94
5526 27.1160 39.07 39.45 6.25
5527 27.1200 35.66 39.48 5.97
5528 27.1240 32.67 39.51 5.72
5529 27.1280 34.37 39.55 5.86
5530 27.1320 39.14 39.59 6.26
5531 27.1360 34.33 39.64 5.86
5532 27.1400 39.03 39.65 6.25
5533 27.1440 35.35 39.71 5.95
5534 27.1480 38.26 39.78 6.19
5535 27.1520 41.55 39.85 6.45
5536 27.1560 42.17 39.94 6.49
5537 27.1600 30.32 40.03 5.51
5538 27.1640 40.89 40.12 6.39
5539 27.1680 39.81 40.23 6.31
5540 27.1720 37.98 40.35 6.16
5541 27.1760 41.68 40.48 6.46
5542 27.1800 39.94 40.62 6.32
5543 27.1840 38.21 40.77 6.18
5544 27.1880 36.83 40.94 6.07
5545 27.1920 38.42 41.11 6.20
5546 27.1960 31.61 41.31 5.62
5547 27.2000 37.40 41.52 6.12
5548 27.2040 42.71 41.75 6.54
5549 27.2080 41.14 42.00 6.41
5550 27.2120 39.52 42.28 6.29
5551 27.2160 48.94 42.57 7.00
5552 27.2200 38.95 42.89 6.24
5553 27.2240 36.59 43.25 6.05
5554 27.2280 43.52 43.63 6.60
5555 27.2320 48.59 44.05 6.97
5556 27.2360 36.50 44.50 6.04
5557 27.2400 43.41 45.00 6.59
5558 27.2440 37.43 45.55 6.12
5559 27.2480 39.29 46.15 6.27
5560 27.2520 43.58 46.82 6.60
5561 27.2560 46.11 47.54 6.79
5562 27.2600 60.02 48.35 7.75
5563 27.2640 38.78 49.24 6.23
5564 27.2680 42.60 50.22 6.53
5565 27.2720 57.16 51.32 7.56
5566 27.2760 46.01 52.54 6.78
5567 27.2800 55.30 53.90 7.44
5568 27.2840 57.63 55.42 7.59
5569 27.2880 57.35 57.13 7.57
5570 27.2920 63.77 59.05 7.99
5571 27.2960 57.59 61.22 7.59
5572 27.3000 68.80 63.68 8.29
5573 27.3040 56.91 66.47 7.54
5574 27.3080 63.40 69.68 7.96
5575 27.3120 80.15 73.29 8.95
5576 27.3160 72.24 77.42 8.50
5577 27.3200 83.76 82.12 9.15
5578 27.3240 88.83 87.50 9.42
5579 27.3280 88.14 93.61 9.39
5580 27.3320 92.31 100.55 9.61
5581 27.3360 103.55 108.34 10.18
5582 27.3400 107.04 116.99 10.35
5583 27.3440 103.38 126.37 10.17
5584 27.3480 130.13 136.28 11.41
5585 27.3520 127.76 146.28 11.30
5586 27.3560 141.89 155.76 11.91
5587 27.3600 160.19 163.91 12.66
5588 27.3640 164.80 169.84 12.84
5589 27.3680 188.70 172.79 13.74
5590 27.3720 195.06 172.37 13.97
5591 27.3760 179.49 168.60 13.40
5592 27.3800 165.80 162.03 12.88
5593 27.3840 153.66 153.43 12.40
5594 27.3880 130.16 143.69 11.41
5595 27.3920 128.67 133.59 11.34
5596 27.3960 116.57 123.71 10.80
5597 27.4000 104.44 114.41 10.22
5598 27.4040 98.29 105.88 9.91
5599 27.4080 103.42 98.22 10.17
5600 27.4120 78.11 91.41 8.84
5601 27.4160 79.57 85.40 8.92
5602 27.4200 72.53 80.11 8.52
5603 27.4240 75.30 75.47 8.68
5604 27.4280 72.03 71.41 8.49
5605 27.4320 58.40 67.83 7.64
5606 27.4360 69.94 64.68 8.36
5607 27.4400 60.20 61.91 7.76
5608 27.4440 51.99 59.45 7.21
5609 27.4480 52.95 57.27 7.28
5610 27.4520 54.92 55.33 7.41
5611 27.4560 58.63 53.59 7.66
5612 27.4600 46.49 52.04 6.82
5613 27.4640 40.85 50.64 6.39
5614 27.4680 46.30 49.38 6.80
5615 27.4720 46.78 48.25 6.84
5616 27.4760 41.47 47.21 6.44
5617 27.4800 39.02 46.27 6.25
5618 27.4840 35.86 45.42 5.99
5619 27.4880 46.70 44.64 6.83
5620 27.4920 42.69 43.92 6.53
5621 27.4960 39.42 43.26 6.28
5622 27.5000 35.58 42.65 5.96
5623 27.5040 38.09 42.09 6.17
5624 27.5080 42.49 41.57 6.52
5625 27.5120 34.02 41.09 5.83
5626 27.5160 38.64 40.65 6.22
5627 27.5200 33.11 40.23 5.75
5628 27.5240 37.09 39.85 6.09
5629 27.5280 39.06 39.49 6.25
5630 27.5320 32.93 39.15 5.74
5631 27.5360 40.34 38.83 6.35
5632 27.5400 29.10 38.54 5.39
5633 27.5440 23.12 38.26 4.81
5634 27.5480 38.27 38.00 6.19
5635 27.5520 40.20 37.75 6.34
5636 27.5560 30.09 37.52 5.49
5637 27.5600 35.92 37.30 5.99
5638 27.5640 37.92 37.09 6.16
5639 27.5680 24.02 36.89 4.90
5640 27.5720 33.50 36.71 5.79
5641 27.5760 32.84 36.53 5.73
5642 27.5800 29.79 36.36 5.46
5643 27.5840 35.38 36.21 5.95
5644 27.5880 30.00 36.05 5.48
5645 27.5920 33.20 35.91 5.76
5646 27.5960 36.72 35.78 6.06
5647 27.6000 27.92 35.65 5.28
5648 27.6040 36.30 35.52 6.03
5649 27.6080 28.45 35.41 5.33
5650 27.6120 32.98 35.29 5.74
5651 27.6160 34.29 35.19 5.86
5652 27.6200 26.34 35.09 5.13
5653 27.6240 43.17 34.99 6.57
5654 27.6280 25.43 34.90 5.04
5655 27.6320 29.66 34.81 5.45
5656 27.6360 36.91 34.73 6.08
5657 27.6400 32.84 34.65 5.73
5658 27.6440 29.20 34.57 5.40
5659 27.6480 28.80 34.50 5.37
5660 27.6520 38.60 34.44 6.21
5661 27.6560 27.08 34.37 5.20
5662 27.6600 29.28 34.31 5.41
5663 27.6640 30.94 34.26 5.56
5664 27.6680 37.47 34.20 6.12
5665 27.6720 27.42 34.15 5.24
5666 27.6760 26.51 34.10 5.15
5667 27.6800 34.67 34.06 5.89
5668 27.6840 29.49 34.08 5.43
5669 27.6880 28.04 34.13 5.30
5670 27.6920 29.21 34.18 5.40
5671 27.6960 25.97 34.23 5.10
5672 27.7000 34.86 34.28 5.90
5673 27.7040 30.25 34.34 5.50
5674 27.7080 28.54 34.40 5.34
5675 27.7120 34.45 34.47 5.87
5676 27.7160 31.22 34.54 5.59
5677 27.7200 24.58 34.61 4.96
5678 27.7240 32.57 34.68 5.71
5679 27.7280 27.62 34.76 5.26
5680 27.7320 28.30 34.84 5.32
5681 27.7360 27.89 34.93 5.28
5682 27.7400 34.44 35.02 5.87
5683 27.7440 35.12 35.11 5.93
5684 27.7480 29.37 35.21 5.42
5685 27.7520 33.12 35.31 5.76
5686 27.7560 30.20 35.41 5.50
5687 27.7600 36.71 35.52 6.06
5688 27.7640 35.03 35.63 5.92
5689 27.7680 30.38 35.75 5.51
5690 27.7720 40.37 35.88 6.35
5691 27.7760 27.32 36.01 5.23
5692 27.7800 32.43 36.14 5.69
5693 27.7840 38.10 36.28 6.17
5694 27.7880 31.55 36.43 5.62
5695 27.7920 39.82 36.58 6.31
5696 27.7960 34.90 36.74 5.91
5697 27.8000 32.39 36.91 5.69
5698 27.8040 33.28 37.08 5.77
5699 27.8080 34.38 37.27 5.86
5700 27.8120 28.84 37.46 5.37
5701 27.8160 30.67 37.66 5.54
5702 27.8200 34.03 37.87 5.83
5703 27.8240 38.20 38.09 6.18
5704 27.8280 31.64 38.33 5.63
5705 27.8320 38.81 38.57 6.23
5706 27.8360 32.41 38.84 5.69
5707 27.8400 36.27 39.11 6.02
5708 27.8440 41.09 39.40 6.41
5709 27.8480 35.47 39.71 5.96
5710 27.8520 38.47 40.03 6.20
5711 27.8560 41.63 40.37 6.45
5712 27.8600 35.72 40.74 5.98
5713 27.8640 38.71 41.13 6.22
5714 27.8680 42.59 41.54 6.53
5715 27.8720 38.52 41.98 6.21
5716 27.8760 34.88 42.45 5.91
5717 27.8800 48.13 42.96 6.94
5718 27.8840 43.31 43.50 6.58
5719 27.8880 41.08 44.09 6.41
5720 27.8920 43.95 44.71 6.63
5721 27.8960 48.74 45.39 6.98
5722 27.9000 45.66 46.13 6.76
5723 27.9040 47.84 46.92 6.92
5724 27.9080 40.97 47.79 6.40
5725 27.9120 48.39 48.73 6.96
5726 27.9160 46.52 49.76 6.82
5727 27.9200 48.40 50.89 6.96
5728 27.9240 50.70 52.13 7.12
5729 27.9280 45.75 53.49 6.76
5730 27.9320 60.21 55.00 7.76
5731 27.9360 53.74 56.67 7.33
5732 27.9400 61.36 58.52 7.83
5733 27.9440 59.37 60.52 7.71
5734 27.9480 54.20 62.83 7.36
5735 27.9520 67.21 65.41 8.20
5736 27.9560 71.03 68.32 8.43
5737 27.9600 75.61 71.60 8.70
5738 27.9640 74.94 75.31 8.66
5739 27.9680 82.14 79.52 9.06
5740 27.9720 79.15 84.29 8.90
5741 27.9760 93.68 89.70 9.68
5742 27.9800 94.71 95.86 9.73
5743 27.9840 101.59 102.82 10.08
5744 27.9880 103.09 110.69 10.15
5745 27.9920 112.36 119.49 10.60
5746 27.9960 117.74 129.22 10.85
5747 28.0000 127.61 139.80 11.30
5748 28.0040 145.20 150.97 12.05
5749 28.0080 145.71 162.32 12.07
5750 28.0120 159.77 173.22 12.64
5751 28.0160 176.31 182.83 13.28
5752 28.0200 169.69 190.20 13.03
5753 28.0240 216.31 194.48 14.71
5754 28.0280 206.14 195.12 14.36
5755 28.0320 196.83 192.02 14.03
5756 28.0360 185.26 185.62 13.61
5757 28.0400 192.18 176.69 13.86
5758 28.0440 158.33 166.18 12.58
5759 28.0480 145.67 154.98 12.07
5760 28.0520 135.00 143.78 11.62
5761 28.0560 128.21 133.08 11.32
5762 28.0600 118.32 123.15 10.88
5763 28.0640 115.05 114.14 10.73
5764 28.0680 97.35 106.07 9.87
5765 28.0720 105.65 98.92 10.28
5766 28.0760 94.56 92.61 9.72
5767 28.0800 77.01 87.06 8.78
5768 28.0840 91.03 82.18 9.54
5769 28.0880 78.31 77.90 8.85
5770 28.0920 70.08 74.13 8.37
5771 28.0960 72.35 70.80 8.51
5772 28.1000 62.42 67.87 7.90
5773 28.1040 60.08 65.27 7.75
5774 28.1080 63.93 62.97 8.00
5775 28.1120 61.62 60.91 7.85
5776 28.1160 58.51 59.08 7.65
5777 28.1200 59.34 57.45 7.70
5778 28.1240 51.46 55.98 7.17
5779 28.1280 54.87 54.66 7.41
5780 28.1320 54.69 53.46 7.40
5781 28.1360 40.14 52.39 6.34
5782 28.1400 49.09 51.41 7.01
5783 28.1440 49.02 50.53 7.00
5784 28.1480 41.46 49.72 6.44
5785 28.1520 42.82 48.99 6.54
5786 28.1560 54.21 48.32 7.36
5787 28.1600 33.57 47.71 5.79
5788 28.1640 44.85 47.15 6.70
5789 28.1680 45.22 46.64 6.72
5790 28.1720 39.16 46.17 6.26
5791 28.1760 39.80 45.73 6.31
5792 28.1800 37.18 45.33 6.10
5793 28.1840 37.31 44.96 6.11
5794 28.1880 39.15 44.63 6.26
5795 28.1920 39.39 44.31 6.28
5796 28.1960 42.96 44.02 6.55
5797 28.2000 41.22 43.75 6.42
5798 28.2040 35.13 43.50 5.93
5799 28.2080 39.09 43.27 6.25
5800 28.2120 42.12 43.06 6.49
5801 28.2160 45.69 42.86 6.76
5802 28.2200 29.08 42.68 5.39
5803 28.2240 38.05 42.51 6.17
5804 28.2280 40.18 42.35 6.34
5805 28.2320 37.68 42.21 6.14
5806 28.2360 36.76 42.07 6.06
5807 28.2400 39.32 41.94 6.27
5808 28.2440 34.90 41.83 5.91
5809 28.2480 40.32 41.72 6.35
5810 28.2520 39.56 41.62 6.29
5811 28.2560 33.74 41.53 5.81
5812 28.2600 43.81 41.44 6.62
5813 28.2640 45.60 41.36 6.75
5814 28.2680 34.35 41.29 5.86
5815 28.2720 38.58 41.22 6.21
5816 28.2760 39.32 41.16 6.27
5817 28.2800 33.05 41.10 5.75
5818 28.2840 35.94 41.05 6.00
5819 28.2880 34.59 41.00 5.88
5820 28.2920 33.62 40.95 5.80
5821 28.2960 36.11 40.91 6.01
5822 28.3000 38.58 40.88 6.21
5823 28.3040 32.27 40.85 5.68
5824 28.3080 38.51 40.82 6.21
5825 28.3120 39.72 40.79 6.30
5826 28.3160 30.49 40.77 5.52
5827 28.3200 39.61 40.75 6.29
5828 28.3240 39.76 40.73 6.31
5829 28.3280 38.75 40.71 6.22
5830 28.3320 44.61 40.60 6.68
5831 28.3360 29.60 40.48 5.44
5832 28.3400 33.05 40.37 5.75
5833 28.3440 31.56 40.26 5.62
5834 28.3480 42.14 40.15 6.49
5835 28.3520 37.19 40.04 6.10
5836 28.3560 36.18 39.93 6.02
5837 28.3600 39.21 39.83 6.26
5838 28.3640 38.19 39.73 6.18
5839 28.3680 41.17 39.63 6.42
5840 28.3720 32.90 39.53 5.74
5841 28.3760 39.40 39.43 6.28
5842 28.3800 48.38 39.33 6.96
5843 28.3840 32.37 39.24 5.69
5844 28.3880 39.07 39.15 6.25
5845 28.3920 43.05 39.05 6.56
5846 28.3960 39.36 38.96 6.27
5847 28.4000 36.49 38.87 6.04
5848 28.4040 39.26 38.78 6.27
5849 28.4080 43.81 38.69 6.62
5850 28.4120 31.90 38.61 5.65
5851 28.4160 36.85 38.52 6.07
5852 28.4200 40.49 38.44 6.36
5853 28.4240 32.20 38.35 5.67
5854 28.4280 37.26 38.27 6.10
5855 28.4320 41.74 38.19 6.46
5856 28.4360 36.80 38.10 6.07
5857 28.4400 47.77 38.02 6.91
5858 28.4440 45.10 37.94 6.72
5859 28.4480 33.26 37.86 5.77
5860 28.4520 37.73 37.79 6.14
5861 28.4560 44.59 37.71 6.68
5862 28.4600 39.08 37.63 6.25
5863 28.4640 38.71 37.55 6.22
5864 28.4680 42.39 37.48 6.51
5865 28.4720 38.67 37.40 6.22
5866 28.4760 38.97 37.33 6.24
5867 28.4800 41.86 37.25 6.47
5868 28.4840 40.66 37.18 6.38
5869 28.4880 41.12 37.10 6.41
5870 28.4920 41.96 37.03 6.48
5871 28.4960 45.42 36.96 6.74
5872 28.5000 40.69 36.89 6.38
5873 28.5040 35.41 36.81 5.95
5874 28.5080 42.39 36.74 6.51
5875 28.5120 39.69 36.67 6.30
5876 28.5160 33.35 36.60 5.77
5877 28.5200 40.85 36.53 6.39
5878 28.5240 41.36 36.46 6.43
5879 28.5280 49.06 36.39 7.00
5880 28.5320 39.01 36.32 6.25
5881 28.5360 39.50 36.26 6.29
5882 28.5400 34.75 36.19 5.90
5883 28.5440 38.56 36.12 6.21
5884 28.5480 42.71 36.05 6.54
5885 28.5520 36.13 35.99 6.01
5886 28.5560 47.15 35.92 6.87
5887 28.5600 34.97 35.85 5.91
5888 28.5640 35.80 35.79 5.98
5889 28.5680 42.27 35.72 6.50
5890 28.5720 41.90 35.65 6.47
5891 28.5760 43.87 35.59 6.62
5892 28.5800 34.93 35.53 5.91
5893 28.5840 39.35 35.46 6.27
5894 28.5880 39.46 35.40 6.28
5895 28.5920 39.07 35.33 6.25
5896 28.5960 40.21 35.27 6.34
5897 28.6000 37.90 35.21 6.16
5898 28.6040 39.50 35.14 6.28
5899 28.6080 43.14 35.08 6.57
5900 28.6120 34.94 35.02 5.91
5901 28.6160 35.41 34.95 5.95
5902 28.6200 40.90 34.89 6.40
5903 28.6240 45.53 34.83 6.75
5904 28.6280 27.16 34.77 5.21
5905 28.6320 31.53 34.71 5.62
5906 28.6360 38.09 34.65 6.17
5907 28.6400 34.18 34.59 5.85
5908 28.6440 35.51 34.53 5.96
5909 28.6480 35.80 34.47 5.98
5910 28.6520 32.12 34.40 5.67
5911 28.6560 41.90 34.35 6.47
5912 28.6600 38.48 34.29 6.20
5913 28.6640 25.34 34.23 5.03
5914 28.6680 46.03 34.17 6.78
5915 28.6720 32.30 34.11 5.68
5916 28.6760 30.45 34.05 5.52
5917 28.6800 35.39 33.99 5.95
5918 28.6840 34.39 33.93 5.86
5919 28.6880 36.29 33.88 6.02
5920 28.6920 38.08 33.82 6.17
5921 28.6960 37.78 33.76 6.15
5922 28.7000 35.41 33.70 5.95
5923 28.7040 32.39 33.65 5.69
5924 28.7080 35.24 33.59 5.94
5925 28.7120 37.27 33.53 6.11
5926 28.7160 35.56 33.48 5.96
5927 28.7200 33.69 33.42 5.80
5928 28.7240 31.21 33.36 5.59
5929 28.7280 35.66 33.30 5.97
5930 28.7320 38.20 33.24 6.18
5931 28.7360 32.85 33.19 5.73
5932 28.7400 38.86 33.13 6.23
5933 28.7440 31.17 33.08 5.58
5934 28.7480 27.12 33.02 5.21
5935 28.7520 35.76 32.97 5.98
5936 28.7560 30.02 32.91 5.48
5937 28.7600 33.17 32.86 5.76
5938 28.7640 33.03 32.81 5.75
5939 28.7680 37.79 32.76 6.15
5940 28.7720 29.93 32.70 5.47
5941 28.7760 37.30 32.65 6.11
5942 28.7800 35.46 32.60 5.96
5943 28.7840 29.24 32.55 5.41
5944 28.7880 35.82 32.50 5.98
5945 28.7920 31.96 32.45 5.65
5946 28.7960 30.99 32.40 5.57
5947 28.8000 35.57 32.34 5.96
5948 28.8040 30.69 32.29 5.54
5949 28.8080 35.59 32.25 5.97
5950 28.8120 30.97 32.20 5.57
5951 28.8160 31.72 32.15 5.63
5952 28.8200 27.00 32.10 5.20
5953 28.8240 30.28 32.05 5.50
5954 28.8280 32.62 32.00 5.71
5955 28.8320 35.35 31.96 5.95
5956 28.8360 34.47 31.91 5.87
5957 28.8400 29.53 31.86 5.43
5958 28.8440 35.41 31.82 5.95
5959 28.8480 27.74 31.77 5.27
5960 28.8520 29.78 31.73 5.46
5961 28.8560 29.07 31.68 5.39
5962 28.8600 33.41 31.64 5.78
5963 28.8640 26.02 31.59 5.10
5964 28.8680 28.40 31.57 5.33
5965 28.8720 34.66 31.52 5.89
5966 28.8760 30.20 31.48 5.50
5967 28.8800 34.12 31.44 5.84
5968 28.8840 23.98 31.40 4.90
5969 28.8880 27.54 31.36 5.25
5970 28.8920 29.32 31.32 5.41
5971 28.8960 28.82 31.28 5.37
5972 28.9000 27.58 31.24 5.25
5973 28.9040 25.68 31.21 5.07
5974 28.9080 27.87 31.17 5.28
5975 28.9120 31.98 31.13 5.66
5976 28.9160 30.92 31.10 5.56
5977 28.9200 28.83 31.07 5.37
5978 28.9240 24.27 31.03 4.93
5979 28.9280 28.95 31.00 5.38
5980 28.9320 29.74 30.97 5.45
5981 28.9360 34.96 30.94 5.91
5982 28.9400 29.93 30.91 5.47
5983 28.9440 23.89 30.88 4.89
5984 28.9480 27.92 30.85 5.28
5985 28.9520 24.74 30.83 4.97
5986 28.9560 30.84 30.80 5.55
5987 28.9600 26.70 30.78 5.17
5988 28.9640 24.90 30.76 4.99
5989 28.9680 30.45 30.73 5.52
5990 28.9720 31.18 30.71 5.58
5991 28.9760 30.17 30.70 5.49
5992 28.9800 24.38 30.68 4.94
5993 28.9840 31.80 30.67 5.64
5994 28.9880 32.65 30.65 5.71
5995 28.9920 26.19 30.65 5.12
5996 28.9960 29.97 30.68 5.47
5997 29.0000 25.95 30.71 5.09
5998 29.0040 30.12 30.74 5.49
5999 29.0080 31.72 30.77 5.63
6000 29.0120 24.02 30.81 4.90
6001 29.0160 28.18 30.85 5.31
6002 29.0200 27.95 30.89 5.29
6003 29.0240 34.72 30.93 5.89
6004 29.0280 28.70 30.98 5.36
6005 29.0320 34.96 31.03 5.91
6006 29.0360 26.67 31.08 5.16
6007 29.0400 27.66 31.13 5.26
6008 29.0440 31.04 31.19 5.57
6009 29.0480 25.56 31.26 5.06
6010 29.0520 25.21 31.33 5.02
6011 29.0560 28.22 31.40 5.31
6012 29.0600 28.42 31.48 5.33
6013 29.0640 30.00 31.56 5.48
6014 29.0680 31.60 31.64 5.62
6015 29.0720 29.85 31.74 5.46
6016 29.0760 24.00 31.84 4.90
6017 29.0800 35.02 31.94 5.92
6018 29.0840 27.85 32.05 5.28
6019 29.0880 28.32 32.17 5.32
6020 29.0920 31.44 32.30 5.61
6021 29.0960 24.92 32.44 4.99
6022 29.1000 24.18 32.58 4.92
6023 29.1040 26.80 32.74 5.18
6024 29.1080 28.61 32.90 5.35
6025 29.1120 29.67 33.08 5.45
6026 29.1160 35.79 33.27 5.98
6027 29.1200 22.81 33.47 4.78
6028 29.1240 34.76 33.69 5.90
6029 29.1280 37.49 33.92 6.12
6030 29.1320 30.17 34.17 5.49
6031 29.1360 30.56 34.44 5.53
6032 29.1400 39.86 34.73 6.31
6033 29.1440 35.75 35.04 5.98
6034 29.1480 38.35 35.38 6.19
6035 29.1520 33.03 35.75 5.75
6036 29.1560 31.04 36.14 5.57
6037 29.1600 35.77 36.57 5.98
6038 29.1640 33.02 37.03 5.75
6039 29.1680 34.91 37.53 5.91
6040 29.1720 29.45 38.08 5.43
6041 29.1760 32.12 38.68 5.67
6042 29.1800 44.90 39.33 6.70
6043 29.1840 38.67 40.04 6.22
6044 29.1880 36.93 40.82 6.08
6045 29.1920 41.57 41.68 6.45
6046 29.1960 46.01 42.63 6.78
6047 29.2000 48.41 43.68 6.96
6048 29.2040 44.77 44.83 6.69
6049 29.2080 42.26 46.12 6.50
6050 29.2120 45.21 47.54 6.72
6051 29.2160 55.11 49.14 7.42
6052 29.2200 54.61 50.91 7.39
6053 29.2240 54.53 52.90 7.38
6054 29.2280 55.54 55.14 7.45
6055 29.2320 60.20 57.66 7.76
6056 29.2360 53.96 60.50 7.35
6057 29.2400 60.20 63.70 7.76
6058 29.2440 71.95 67.32 8.48
6059 29.2480 70.87 71.43 8.42
6060 29.2520 73.63 76.06 8.58
6061 29.2560 79.04 81.29 8.89
6062 29.2600 78.93 87.15 8.88
6063 29.2640 86.19 93.67 9.28
6064 29.2680 80.15 100.86 8.95
6065 29.2720 102.81 108.64 10.14
6066 29.2760 101.73 116.86 10.09
6067 29.2800 99.28 125.25 9.96
6068 29.2840 129.67 133.38 11.39
6069 29.2880 126.78 140.72 11.26
6070 29.2920 130.15 146.64 11.41
6071 29.2960 162.21 150.51 12.74
6072 29.3000 163.65 151.90 12.79
6073 29.3040 148.76 150.63 12.20
6074 29.3080 173.89 146.85 13.19
6075 29.3120 140.44 141.00 11.85
6076 29.3160 115.60 133.68 10.75
6077 29.3200 125.73 125.54 11.21
6078 29.3240 101.08 117.12 10.05
6079 29.3280 100.48 108.84 10.02
6080 29.3320 97.99 100.99 9.90
6081 29.3360 85.82 93.73 9.26
6082 29.3400 67.28 87.12 8.20
6083 29.3440 87.46 81.19 9.35
6084 29.3480 72.69 75.89 8.53
6085 29.3520 64.89 71.18 8.06
6086 29.3560 63.10 67.02 7.94
6087 29.3600 64.21 63.32 8.01
6088 29.3640 63.60 60.06 7.98
6089 29.3680 49.80 57.16 7.06
6090 29.3720 53.78 54.61 7.33
6091 29.3760 58.66 52.32 7.66
6092 29.3800 51.58 50.28 7.18
6093 29.3840 46.56 48.45 6.82
6094 29.3880 44.60 46.81 6.68
6095 29.3920 53.11 45.34 7.29
6096 29.3960 33.80 44.01 5.81
6097 29.4000 44.80 42.81 6.69
6098 29.4040 39.52 41.72 6.29
6099 29.4080 39.14 40.73 6.26
6100 29.4120 45.34 39.83 6.73
6101 29.4160 35.71 39.00 5.98
6102 29.4200 40.12 38.25 6.33
6103 29.4240 32.22 37.56 5.68
6104 29.4280 39.95 36.92 6.32
6105 29.4320 31.40 36.33 5.60
6106 29.4360 30.20 35.79 5.50
6107 29.4400 33.85 35.29 5.82
6108 29.4440 30.68 34.83 5.54
6109 29.4480 28.77 34.40 5.36
6110 29.4520 36.29 33.99 6.02
6111 29.4560 23.69 33.62 4.87
6112 29.4600 28.32 33.27 5.32
6113 29.4640 35.75 32.94 5.98
6114 29.4680 27.99 32.64 5.29
6115 29.4720 43.98 32.35 6.63
6116 29.4760 29.49 32.08 5.43
6117 29.4800 25.99 31.83 5.10
6118 29.4840 33.33 31.59 5.77
6119 29.4880 33.81 31.37 5.81
6120 29.4920 27.34 31.12 5.23
6121 29.4960 27.00 30.92 5.20
6122 29.5000 32.97 30.73 5.74
6123 29.5040 28.39 30.55 5.33
6124 29.5080 26.71 30.38 5.17
6125 29.5120 25.38 30.22 5.04
6126 29.5160 40.82 30.07 6.39
6127 29.5200 24.79 29.93 4.98
6128 29.5240 27.26 29.79 5.22
6129 29.5280 36.16 29.66 6.01
6130 29.5320 25.15 29.54 5.01
6131 29.5360 26.94 29.42 5.19
6132 29.5400 26.40 29.31 5.14
6133 29.5440 29.82 29.20 5.46
6134 29.5480 28.16 29.10 5.31
6135 29.5520 28.25 29.00 5.32
6136 29.5560 32.02 28.91 5.66
6137 29.5600 35.16 28.82 5.93
6138 29.5640 27.72 28.74 5.27
6139 29.5680 28.24 28.66 5.31
6140 29.5720 26.26 28.58 5.12
6141 29.5760 23.47 28.51 4.84
6142 29.5800 31.42 28.44 5.61
6143 29.5840 27.30 28.37 5.23
6144 29.5880 26.18 28.31 5.12
6145 29.5920 28.30 28.25 5.32
6146 29.5960 21.48 28.19 4.63
6147 29.6000 22.88 28.14 4.78
6148 29.6040 21.69 28.09 4.66
6149 29.6080 29.31 28.04 5.41
6150 29.6120 23.61 28.00 4.86
6151 29.6160 21.37 27.96 4.62
6152 29.6200 25.80 27.92 5.08
6153 29.6240 18.98 27.88 4.36
6154 29.6280 26.51 27.85 5.15
6155 29.6320 25.04 27.82 5.00
6156 29.6360 25.30 27.79 5.03
6157 29.6400 26.34 27.78 5.13
6158 29.6440 28.49 27.77 5.34
6159 29.6480 30.03 27.76 5.48
6160 29.6520 22.11 27.75 4.70
6161 29.6560 21.50 27.75 4.64
6162 29.6600 24.30 27.75 4.93
6163 29.6640 27.61 27.75 5.25
6164 29.6680 26.79 27.76 5.18
6165 29.6720 25.09 27.76 5.01
6166 29.6760 32.08 27.78 5.66
6167 29.6800 25.14 27.79 5.01
6168 29.6840 29.87 27.81 5.47
6169 29.6880 25.30 27.83 5.03
6170 29.6920 29.55 27.85 5.44
6171 29.6960 26.77 27.88 5.17
6172 29.7000 22.80 27.91 4.78
6173 29.7040 27.89 27.95 5.28
6174 29.7080 19.76 27.99 4.44
6175 29.7120 30.48 28.04 5.52
6176 29.7160 28.38 28.09 5.33
6177 29.7200 26.42 28.14 5.14
6178 29.7240 31.33 28.20 5.60
6179 29.7280 34.89 28.27 5.91
6180 29.7320 26.45 28.34 5.14
6181 29.7360 33.77 28.42 5.81
6182 29.7400 32.65 28.50 5.71
6183 29.7440 32.67 28.60 5.72
6184 29.7480 28.86 28.70 5.37
6185 29.7520 36.98 28.81 6.08
6186 29.7560 36.88 28.93 6.07
6187 29.7600 30.70 29.06 5.54
6188 29.7640 35.59 29.20 5.97
6189 29.7680 34.71 29.36 5.89
6190 29.7720 28.69 29.52 5.36
6191 29.7760 29.35 29.71 5.42
6192 29.7800 36.25 29.91 6.02
6193 29.7840 38.37 30.12 6.19
6194 29.7880 32.55 30.36 5.71
6195 29.7920 34.39 30.62 5.86
6196 29.7960 36.42 30.90 6.03
6197 29.8000 33.89 31.21 5.82
6198 29.8040 29.71 31.55 5.45
6199 29.8080 34.44 31.93 5.87
6200 29.8120 37.41 32.34 6.12
6201 29.8160 36.71 32.80 6.06
6202 29.8200 41.73 33.30 6.46
6203 29.8240 30.70 33.86 5.54
6204 29.8280 40.92 34.48 6.40
6205 29.8320 39.30 35.17 6.27
6206 29.8360 37.33 35.94 6.11
6207 29.8400 37.68 36.80 6.14
6208 29.8440 43.83 37.76 6.62
6209 29.8480 47.61 38.85 6.90
6210 29.8520 31.50 40.06 5.61
6211 29.8560 50.06 41.44 7.08
6212 29.8600 47.34 42.98 6.88
6213 29.8640 46.73 44.73 6.84
6214 29.8680 35.90 46.70 5.99
6215 29.8720 60.29 48.91 7.76
6216 29.8760 49.08 51.39 7.01
6217 29.8800 48.32 54.16 6.95
6218 29.8840 57.35 57.21 7.57
6219 29.8880 55.57 60.53 7.45
6220 29.8920 71.32 64.07 8.45
6221 29.8960 60.79 67.73 7.80
6222 29.9000 64.65 71.37 8.04
6223 29.9040 74.31 74.77 8.62
6224 29.9080 77.78 77.70 8.82
6225 29.9120 88.19 79.87 9.39
6226 29.9160 90.21 81.06 9.50
6227 29.9200 99.21 81.14 9.96
6228 29.9240 92.47 80.08 9.62
6229 29.9280 83.14 78.03 9.12
6230 29.9320 83.40 75.19 9.13
6231 29.9360 72.74 71.83 8.53
6232 29.9400 65.00 68.20 8.06
6233 29.9440 60.63 64.53 7.79
6234 29.9480 63.04 60.97 7.94
6235 29.9520 51.43 57.61 7.17
6236 29.9560 52.71 54.52 7.26
6237 29.9600 51.17 51.71 7.15
6238 29.9640 65.65 49.19 8.10
6239 29.9680 47.07 46.94 6.86
6240 29.9720 48.79 44.94 6.99
6241 29.9760 58.69 43.16 7.66
6242 29.9800 47.68 41.59 6.90
6243 29.9840 47.40 40.19 6.88
6244 29.9880 40.73 38.95 6.38
6245 29.9920 37.79 37.85 6.15
6246 29.9960 46.25 36.87 6.80
6247 30.0000 44.09 35.99 6.64
6248 30.0040 35.18 35.21 5.93
6249 30.0080 39.30 34.51 6.27
6250 30.0120 43.32 33.88 6.58
6251 30.0160 36.11 33.32 6.01
6252 30.0200 42.38 32.81 6.51
6253 30.0240 37.05 32.34 6.09
6254 30.0280 35.90 31.93 5.99
6255 30.0320 33.31 31.55 5.77
6256 30.0360 40.42 31.21 6.36
6257 30.0400 35.53 30.89 5.96
6258 30.0440 37.60 30.61 6.13
6259 30.0480 42.07 30.35 6.49
6260 30.0520 33.03 30.11 5.75
6261 30.0560 30.00 29.90 5.48
6262 30.0600 36.81 29.70 6.07
6263 30.0640 32.82 29.52 5.73
6264 30.0680 39.19 29.36 6.26
6265 30.0720 30.63 29.21 5.53
6266 30.0760 36.23 29.07 6.02
6267 30.0800 36.72 28.94 6.06
6268 30.0840 42.21 28.83 6.50
6269 30.0880 26.92 28.73 5.19
6270 30.0920 41.38 28.63 6.43
6271 30.0960 31.21 28.55 5.59
6272 30.1000 33.82 28.47 5.82
6273 30.1040 37.71 28.41 6.14
6274 30.1080 38.84 28.34 6.23
6275 30.1120 35.76 28.29 5.98
6276 30.1160 35.38 28.24 5.95
6277 30.1200 39.59 28.20 6.29
6278 30.1240 37.00 28.17 6.08
6279 30.1280 29.93 28.14 5.47
6280 30.1320 34.17 28.12 5.85
6281 30.1360 34.50 28.10 5.87
6282 30.1400 31.82 28.09 5.64
6283 30.1440 36.60 28.08 6.05
6284 30.1480 40.21 28.08 6.34
6285 30.1520 41.37 28.08 6.43
6286 30.1560 37.59 28.09 6.13
6287 30.1600 31.11 28.10 5.58
6288 30.1640 42.33 28.12 6.51
6289 30.1680 37.24 28.14 6.10
6290 30.1720 36.37 28.17 6.03
6291 30.1760 34.77 28.20 5.90
6292 30.1800 39.85 28.24 6.31
6293 30.1840 35.40 28.28 5.95
6294 30.1880 39.69 28.32 6.30
6295 30.1920 35.28 28.38 5.94
6296 30.1960 33.88 28.43 5.82
6297 30.2000 33.77 28.49 5.81
6298 30.2040 33.89 28.56 5.82
6299 30.2080 39.46 28.63 6.28
6300 30.2120 40.36 28.70 6.35
6301 30.2160 26.43 28.79 5.14
6302 30.2200 35.82 28.87 5.98
6303 30.2240 46.75 28.97 6.84
6304 30.2280 25.79 29.07 5.08
6305 30.2320 37.49 29.17 6.12
6306 30.2360 48.12 29.27 6.94
6307 30.2400 33.50 29.39 5.79
6308 30.2440 38.04 29.51 6.17
6309 30.2480 43.07 29.65 6.56
6310 30.2520 27.38 29.79 5.23
6311 30.2560 43.24 29.94 6.58
6312 30.2600 46.60 30.10 6.83
6313 30.2640 41.02 30.27 6.40
6314 30.2680 39.74 30.45 6.30
6315 30.2720 39.01 30.64 6.25
6316 30.2760 40.49 30.84 6.36
6317 30.2800 49.02 31.05 7.00
6318 30.2840 44.87 31.27 6.70
6319 30.2880 45.97 31.51 6.78
6320 30.2920 56.68 31.75 7.53
6321 30.2960 28.44 32.02 5.33
6322 30.3000 44.60 32.30 6.68
6323 30.3040 40.00 32.59 6.32
6324 30.3080 40.33 32.91 6.35
6325 30.3120 42.71 33.24 6.54
6326 30.3160 45.00 33.59 6.71
6327 30.3200 49.99 33.96 7.07
6328 30.3240 39.72 34.36 6.30
6329 30.3280 52.43 34.78 7.24
6330 30.3320 39.38 35.23 6.28
6331 30.3360 42.52 35.71 6.52
6332 30.3400 45.52 36.22 6.75
6333 30.3440 49.00 36.76 7.00
6334 30.3480 46.67 37.33 6.83
6335 30.3520 38.40 37.95 6.20
6336 30.3560 45.03 38.62 6.71
6337 30.3600 56.52 39.32 7.52
6338 30.3640 46.12 40.08 6.79
6339 30.3680 43.09 40.90 6.56
6340 30.3720 59.11 41.77 7.69
6341 30.3760 54.73 42.71 7.40
6342 30.3800 52.36 43.73 7.24
6343 30.3840 45.86 44.82 6.77
6344 30.3880 48.96 46.01 7.00
6345 30.3920 69.13 47.29 8.31
6346 30.3960 49.86 48.68 7.06
6347 30.4000 56.46 50.19 7.51
6348 30.4040 65.64 51.84 8.10
6349 30.4080 61.51 53.63 7.84
6350 30.4120 63.84 55.60 7.99
6351 30.4160 77.03 57.75 8.78
6352 30.4200 72.58 60.11 8.52
6353 30.4240 68.51 62.70 8.28
6354 30.4280 74.50 65.57 8.63
6355 30.4320 82.75 68.74 9.10
6356 30.4360 69.00 72.24 8.31
6357 30.4400 91.71 76.14 9.58
6358 30.4440 95.95 80.48 9.80
6359 30.4480 89.45 85.31 9.46
6360 30.4520 106.43 90.72 10.32
6361 30.4560 109.93 96.78 10.48
6362 30.4600 108.44 103.59 10.41
6363 30.4640 113.48 111.23 10.65
6364 30.4680 127.09 119.83 11.27
6365 30.4720 140.45 129.50 11.85
6366 30.4760 137.65 140.35 11.73
6367 30.4800 142.84 152.51 11.95
6368 30.4840 175.98 166.07 13.27
6369 30.4880 178.58 181.08 13.36
6370 30.4920 171.45 197.48 13.09
6371 30.4960 224.43 215.14 14.98
6372 30.5000 232.01 233.72 15.23
6373 30.5040 213.46 252.62 14.61
6374 30.5080 279.89 270.99 16.73
6375 30.5120 273.79 287.72 16.55
6376 30.5160 285.66 301.52 16.90
6377 30.5200 332.98 311.08 18.25
6378 30.5240 349.15 315.42 18.69
6379 30.5280 337.66 314.04 18.38
6380 30.5320 350.47 307.08 18.72
6381 30.5360 305.34 295.33 17.47
6382 30.5400 264.14 279.95 16.25
6383 30.5440 249.12 262.24 15.78
6384 30.5480 236.06 243.47 15.36
6385 30.5520 179.21 224.61 13.39
6386 30.5560 198.61 206.39 14.09
6387 30.5600 190.72 189.27 13.81
6388 30.5640 140.15 173.48 11.84
6389 30.5680 156.25 159.14 12.50
6390 30.5720 143.53 146.22 11.98
6391 30.5760 118.37 134.66 10.88
6392 30.5800 123.51 124.36 11.11
6393 30.5840 128.72 115.19 11.35
6394 30.5880 91.35 107.04 9.56
6395 30.5920 92.36 99.78 9.61
6396 30.5960 106.44 93.31 10.32
6397 30.6000 77.04 87.54 8.78
6398 30.6040 77.50 82.38 8.80
6399 30.6080 84.26 77.76 9.18
6400 30.6120 75.58 73.61 8.69
6401 30.6160 73.55 69.88 8.58
6402 30.6200 76.30 66.51 8.73
6403 30.6240 61.77 63.46 7.86
6404 30.6280 64.64 60.70 8.04
6405 30.6320 62.84 58.19 7.93
6406 30.6360 69.63 55.90 8.34
6407 30.6400 56.10 53.81 7.49
6408 30.6440 52.30 51.90 7.23
6409 30.6480 53.21 50.15 7.29
6410 30.6520 55.30 48.54 7.44
6411 30.6560 50.75 47.06 7.12
6412 30.6600 42.80 45.69 6.54
6413 30.6640 49.58 44.43 7.04
6414 30.6680 49.09 43.26 7.01
6415 30.6720 39.26 42.18 6.27
6416 30.6760 44.64 41.17 6.68
6417 30.6800 41.63 40.23 6.45
6418 30.6840 33.66 39.36 5.80
6419 30.6880 42.39 38.54 6.51
6420 30.6920 44.19 37.78 6.65
6421 30.6960 40.64 37.07 6.37
6422 30.7000 34.51 36.40 5.87
6423 30.7040 39.75 35.77 6.30
6424 30.7080 42.39 35.18 6.51
6425 30.7120 31.44 34.63 5.61
6426 30.7160 38.55 34.11 6.21
6427 30.7200 30.68 33.61 5.54
6428 30.7240 35.07 33.15 5.92
6429 30.7280 37.87 32.71 6.15
6430 30.7320 35.11 32.30 5.93
6431 30.7360 34.09 31.91 5.84
6432 30.7400 38.84 31.54 6.23
6433 30.7440 20.57 31.18 4.54
6434 30.7480 30.69 30.85 5.54
6435 30.7520 22.02 30.53 4.69
6436 30.7560 39.22 30.23 6.26
6437 30.7600 29.34 29.95 5.42
6438 30.7640 35.24 29.68 5.94
6439 30.7680 31.11 29.42 5.58
6440 30.7720 27.35 29.17 5.23
6441 30.7760 29.47 28.94 5.43
6442 30.7800 25.33 28.72 5.03
6443 30.7840 28.82 28.50 5.37
6444 30.7880 28.48 28.30 5.34
6445 30.7920 33.10 28.11 5.75
6446 30.7960 29.05 27.92 5.39
6447 30.8000 22.14 27.75 4.71
6448 30.8040 25.70 27.58 5.07
6449 30.8080 24.47 27.42 4.95
6450 30.8120 35.57 27.27 5.96
6451 30.8160 27.58 27.12 5.25
6452 30.8200 25.06 26.99 5.01
6453 30.8240 24.50 26.85 4.95
6454 30.8280 24.28 26.73 4.93
6455 30.8320 29.24 26.61 5.41
6456 30.8360 19.76 26.50 4.45
6457 30.8400 23.53 26.40 4.85
6458 30.8440 22.80 26.29 4.78
6459 30.8480 23.53 26.20 4.85
6460 30.8520 31.02 26.11 5.57
6461 30.8560 24.21 26.02 4.92
6462 30.8600 25.34 25.94 5.03
6463 30.8640 22.59 25.86 4.75
6464 30.8680 30.82 25.79 5.55
6465 30.8720 23.22 25.73 4.82
6466 30.8760 20.29 25.67 4.50
6467 30.8800 20.75 25.61 4.56
6468 30.8840 37.34 25.56 6.11
6469 30.8880 26.55 25.51 5.15
6470 30.8920 19.15 25.47 4.38
6471 30.8960 27.76 25.43 5.27
6472 30.9000 27.21 25.40 5.22
6473 30.9040 29.31 25.38 5.41
6474 30.9080 20.77 25.36 4.56
6475 30.9120 21.71 25.34 4.66
6476 30.9160 27.50 25.33 5.24
6477 30.9200 29.09 25.33 5.39
6478 30.9240 24.94 25.33 4.99
6479 30.9280 27.09 25.34 5.21
6480 30.9320 20.05 25.31 4.48
6481 30.9360 15.32 25.28 3.91
6482 30.9400 28.59 25.25 5.35
6483 30.9440 26.83 25.24 5.18
6484 30.9480 16.89 25.23 4.11
6485 30.9520 23.48 25.23 4.85
6486 30.9560 25.93 25.24 5.09
6487 30.9600 23.35 25.26 4.83
6488 30.9640 29.87 25.29 5.47
6489 30.9680 14.84 25.30 3.85
6490 30.9720 26.13 25.36 5.11
6491 30.9760 29.65 25.42 5.45
6492 30.9800 28.76 25.51 5.36
6493 30.9840 19.67 25.60 4.44
6494 30.9880 31.03 25.72 5.57
6495 30.9920 21.20 25.85 4.60
6496 30.9960 17.08 26.01 4.13
6497 31.0000 22.79 26.19 4.77
6498 31.0040 18.52 26.40 4.30
6499 31.0080 21.14 26.64 4.60
6500 31.0120 30.76 26.90 5.55
6501 31.0160 25.78 27.21 5.08
6502 31.0200 27.54 27.56 5.25
6503 31.0240 25.80 27.95 5.08
6504 31.0280 28.37 28.39 5.33
6505 31.0320 38.26 28.89 6.19
6506 31.0360 27.06 29.46 5.20
6507 31.0400 33.95 30.10 5.83
6508 31.0440 32.66 30.83 5.71
6509 31.0480 31.39 31.65 5.60
6510 31.0520 37.73 32.58 6.14
6511 31.0560 30.23 33.63 5.50
6512 31.0600 29.13 34.83 5.40
6513 31.0640 41.08 36.18 6.41
6514 31.0680 27.98 37.71 5.29
6515 31.0720 47.75 39.43 6.91
6516 31.0760 37.32 41.36 6.11
6517 31.0800 28.90 43.52 5.38
6518 31.0840 37.43 45.91 6.12
6519 31.0880 45.08 48.52 6.71
6520 31.0920 42.70 51.32 6.53
6521 31.0960 49.71 54.26 7.05
6522 31.1000 50.07 57.24 7.08
6523 31.1040 46.20 60.12 6.80
6524 31.1080 57.42 62.72 7.58
6525 31.1120 41.42 64.85 6.44
6526 31.1160 65.59 66.30 8.10
6527 31.1200 62.77 66.92 7.92
6528 31.1240 45.60 66.64 6.75
6529 31.1280 70.98 65.46 8.43
6530 31.1320 46.06 63.52 6.79
6531 31.1360 48.16 60.98 6.94
6532 31.1400 64.94 58.05 8.06
6533 31.1440 45.14 54.94 6.72
6534 31.1480 55.03 51.79 7.42
6535 31.1520 47.68 48.73 6.91
6536 31.1560 42.94 45.84 6.55
6537 31.1600 43.16 43.15 6.57
6538 31.1640 35.89 40.69 5.99
6539 31.1680 45.69 38.46 6.76
6540 31.1720 25.64 36.45 5.06
6541 31.1760 41.85 34.64 6.47
6542 31.1800 31.67 33.02 5.63
6543 31.1840 15.73 31.57 3.97
6544 31.1880 32.63 30.26 5.71
6545 31.1920 37.51 29.09 6.12
6546 31.1960 30.00 28.03 5.48
6547 31.2000 22.51 27.08 4.74
6548 31.2040 26.22 26.22 5.12
6549 31.2080 20.47 25.43 4.52
6550 31.2120 23.95 24.72 4.89
6551 31.2160 33.86 24.07 5.82
6552 31.2200 22.65 23.47 4.76
6553 31.2240 30.96 22.92 5.56
6554 31.2280 21.74 22.41 4.66
6555 31.2320 26.41 21.95 5.14
6556 31.2360 30.66 21.51 5.54
6557 31.2400 13.34 21.11 3.65
6558 31.2440 18.14 20.73 4.26
6559 31.2480 26.04 20.38 5.10
6560 31.2520 19.95 20.05 4.47
6561 31.2560 24.29 19.74 4.93
6562 31.2600 20.83 19.45 4.56
6563 31.2640 23.40 19.17 4.84
6564 31.2680 28.62 18.91 5.35
6565 31.2720 15.68 18.66 3.96
6566 31.2760 10.00 18.42 3.16
6567 31.2800 25.98 18.20 5.10
6568 31.2840 23.01 17.98 4.80
6569 31.2880 12.74 17.78 3.57
6570 31.2920 18.80 17.58 4.34
6571 31.2960 21.93 17.39 4.68
6572 31.3000 13.56 17.21 3.68
6573 31.3040 19.31 17.03 4.39
6574 31.3080 17.87 16.88 4.23
6575 31.3120 26.41 16.71 5.14
6576 31.3160 21.31 16.55 4.62
6577 31.3200 16.86 16.40 4.11
6578 31.3240 19.52 16.25 4.42
6579 31.3280 14.30 16.10 3.78
6580 31.3320 15.15 15.96 3.89
6581 31.3360 12.15 15.83 3.49
6582 31.3400 25.19 15.69 5.02
6583 31.3440 11.79 15.56 3.43
6584 31.3480 14.74 15.43 3.84
6585 31.3520 19.25 15.31 4.39
6586 31.3560 18.27 15.18 4.27
6587 31.3600 14.48 15.06 3.81
6588 31.3640 27.97 14.95 5.29
6589 31.3680 7.13 14.83 2.67
6590 31.3720 15.65 14.72 3.96
6591 31.3760 18.14 14.60 4.26
6592 31.3800 23.26 14.49 4.82
6593 31.3840 19.41 14.39 4.41
6594 31.3880 16.07 14.28 4.01
6595 31.3920 29.89 14.17 5.47
6596 31.3960 10.15 14.07 3.19
6597 31.4000 9.09 13.97 3.02
6598 31.4040 15.73 13.87 3.97
6599 31.4080 24.65 13.77 4.97
6600 31.4120 10.42 13.67 3.23
6601 31.4160 14.07 13.57 3.75
6602 31.4200 22.13 13.47 4.70
6603 31.4240 20.19 13.38 4.49
6604 31.4280 14.47 13.29 3.80
6605 31.4320 18.40 13.19 4.29
6606 31.4360 19.03 13.10 4.36
6607 31.4400 17.79 13.01 4.22
6608 31.4440 11.12 12.92 3.33
6609 31.4480 16.22 12.83 4.03
6610 31.4520 16.26 12.74 4.03
6611 31.4560 13.78 12.65 3.71
6612 31.4600 10.49 12.56 3.24
6613 31.4640 21.03 12.47 4.59
6614 31.4680 7.92 12.39 2.81
6615 31.4720 12.56 12.30 3.54
6616 31.4760 17.55 12.22 4.19
6617 31.4800 9.31 12.13 3.05
6618 31.4840 10.66 12.05 3.26
6619 31.4880 15.94 11.96 3.99
6620 31.4920 10.94 11.88 3.31
6621 31.4960 14.70 11.80 3.83
6622 31.5000 20.34 11.72 4.51
6623 31.5040 13.79 11.63 3.71
6624 31.5080 5.98 11.55 2.44
6625 31.5120 10.31 11.56 3.21
6626 31.5160 14.31 11.56 3.78
6627 31.5200 12.26 11.56 3.50
6628 31.5240 16.62 11.57 4.08
6629 31.5280 18.05 11.57 4.25
6630 31.5320 20.68 11.58 4.55
6631 31.5360 15.33 11.58 3.92
6632 31.5400 14.63 11.59 3.82
6633 31.5440 22.71 11.60 4.77
6634 31.5480 11.47 11.60 3.39
6635 31.5520 30.16 11.61 5.49
6636 31.5560 16.38 11.62 4.05
6637 31.5600 14.22 11.62 3.77
6638 31.5640 23.05 11.63 4.80
6639 31.5680 12.48 11.64 3.53
6640 31.5720 24.22 11.65 4.92
6641 31.5760 27.85 11.66 5.28
6642 31.5800 14.46 11.67 3.80
6643 31.5840 17.07 11.68 4.13
6644 31.5880 14.71 11.69 3.84
6645 31.5920 7.48 11.70 2.73
6646 31.5960 6.19 11.71 2.49
6647 31.6000 21.22 11.72 4.61
6648 31.6040 6.47 11.73 2.54
6649 31.6080 5.09 11.74 2.26
6650 31.6120 11.25 11.75 3.35
6651 31.6160 17.94 11.76 4.24
6652 31.6200 8.68 11.77 2.95
6653 31.6240 14.77 11.78 3.84
6654 31.6280 14.22 11.80 3.77
6655 31.6320 0.00 0.00 0.00
6656 31.6360 20.13 11.82 4.49
6657 31.6400 17.63 11.84 4.20
6658 31.6440 7.07 11.85 2.66
6659 31.6480 11.22 11.86 3.35
6660 31.6520 16.87 11.88 4.11
6661 31.6560 11.93 11.89 3.45
6662 31.6600 22.65 11.90 4.76
6663 31.6640 12.84 11.92 3.58
6664 31.6680 6.68 11.93 2.58
6665 31.6720 20.56 11.95 4.53
6666 31.6760 15.07 11.96 3.88
6667 31.6800 13.73 11.98 3.70
6668 31.6840 13.97 11.99 3.74
6669 31.6880 23.44 12.01 4.84
6670 31.6920 15.48 12.02 3.93
6671 31.6960 17.41 12.04 4.17
6672 31.7000 14.65 12.06 3.83
6673 31.7040 10.67 12.07 3.27
6674 31.7080 17.08 12.09 4.13
6675 31.7120 18.72 12.11 4.33
6676 31.7160 19.12 12.12 4.37
6677 31.7200 14.40 12.14 3.80
6678 31.7240 11.44 12.16 3.38
6679 31.7280 15.75 12.18 3.97
6680 31.7320 15.89 12.20 3.99
6681 31.7360 16.69 12.22 4.08
6682 31.7400 14.70 12.23 3.83
6683 31.7440 17.57 12.25 4.19
6684 31.7480 10.53 12.27 3.24
6685 31.7520 23.43 12.29 4.84
6686 31.7560 13.63 12.31 3.69
6687 31.7600 13.11 12.33 3.62
6688 31.7640 18.98 12.35 4.36
6689 31.7680 12.41 12.37 3.52
6690 31.7720 19.50 12.40 4.42
6691 31.7760 16.54 12.42 4.07
6692 31.7800 14.61 12.44 3.82
6693 31.7840 24.41 12.47 4.94
6694 31.7880 19.25 12.49 4.39
6695 31.7920 7.40 12.51 2.72
6696 31.7960 12.53 12.53 3.54
6697 31.8000 22.84 12.56 4.78
6698 31.8040 11.21 12.58 3.35
6699 31.8080 22.17 12.61 4.71
6700 31.8120 20.58 12.63 4.54
6701 31.8160 13.09 12.66 3.62
6702 31.8200 16.69 12.68 4.09
6703 31.8240 9.12 12.71 3.02
6704 31.8280 21.66 12.73 4.65
6705 31.8320 16.13 12.76 4.02
6706 31.8360 13.72 12.79 3.70
6707 31.8400 13.33 12.81 3.65
6708 31.8440 25.45 12.84 5.04
6709 31.8480 13.84 12.87 3.72
6710 31.8520 12.71 12.90 3.57
6711 31.8560 18.35 12.93 4.28
6712 31.8600 10.39 12.96 3.22
6713 31.8640 16.91 12.99 4.11
6714 31.8680 17.65 13.02 4.20
6715 31.8720 25.50 13.05 5.05
6716 31.8760 14.66 13.08 3.83
6717 31.8800 6.59 13.12 2.57
6718 31.8840 20.68 13.15 4.55
6719 31.8880 10.81 13.18 3.29
6720 31.8920 16.42 13.22 4.05
6721 31.8960 14.11 13.25 3.76
6722 31.9000 21.08 13.29 4.59
6723 31.9040 13.73 13.33 3.70
6724 31.9080 11.04 13.36 3.32
6725 31.9120 26.77 13.40 5.17
6726 31.9160 15.55 13.44 3.94
6727 31.9200 14.95 13.48 3.87
6728 31.9240 13.45 13.52 3.67
6729 31.9280 5.67 13.57 2.38
6730 31.9320 18.09 13.61 4.25
6731 31.9360 18.30 13.65 4.28
6732 31.9400 14.86 13.70 3.85
6733 31.9440 5.46 13.75 2.34
6734 31.9480 11.97 13.81 3.46
6735 31.9520 14.09 13.86 3.75
6736 31.9560 20.61 13.92 4.54
6737 31.9600 14.08 13.98 3.75
6738 31.9640 18.34 14.04 4.28
6739 31.9680 6.56 14.10 2.56
6740 31.9720 28.36 14.16 5.33
6741 31.9760 18.06 14.23 4.25
6742 31.9800 15.18 14.30 3.90
6743 31.9840 16.14 14.37 4.02
6744 31.9880 16.57 14.44 4.07
6745 31.9920 16.22 14.51 4.03
6746 31.9960 22.58 14.58 4.75
6747 32.0000 16.45 14.66 4.06
6748 32.0040 21.91 14.74 4.68
6749 32.0080 20.10 14.82 4.48
6750 32.0120 16.39 14.91 4.05
6751 32.0160 23.43 15.00 4.84
6752 32.0200 12.93 15.09 3.60
6753 32.0240 16.43 15.18 4.05
6754 32.0280 22.18 15.28 4.71
6755 32.0320 19.12 15.38 4.37
6756 32.0360 16.60 15.48 4.07
6757 32.0400 12.29 15.59 3.51
6758 32.0440 9.21 15.70 3.03
6759 32.0480 11.37 15.82 3.37
6760 32.0520 20.83 15.94 4.56
6761 32.0560 25.77 16.07 5.08
6762 32.0600 22.05 16.20 4.70
6763 32.0640 19.23 16.34 4.38
6764 32.0680 16.37 16.48 4.05
6765 32.0720 15.37 16.63 3.92
6766 32.0760 27.47 16.79 5.24
6767 32.0800 21.26 16.95 4.61
6768 32.0840 8.38 17.13 2.90
6769 32.0880 21.34 17.31 4.62
6770 32.0920 21.44 17.50 4.63
6771 32.0960 25.09 17.70 5.01
6772 32.1000 21.19 17.91 4.60
6773 32.1040 17.33 18.14 4.16
6774 32.1080 26.79 18.38 5.18
6775 32.1120 17.61 18.63 4.20
6776 32.1160 21.68 18.90 4.66
6777 32.1200 20.00 19.18 4.47
6778 32.1240 19.42 19.48 4.41
6779 32.1280 25.63 19.80 5.06
6780 32.1320 32.35 20.15 5.69
6781 32.1360 20.43 20.51 4.52
6782 32.1400 18.94 20.91 4.35
6783 32.1440 13.67 21.33 3.70
6784 32.1480 32.25 21.78 5.68
6785 32.1520 21.80 22.27 4.67
6786 32.1560 17.90 22.79 4.23
6787 32.1600 42.08 23.36 6.49
6788 32.1640 25.05 23.98 5.01
6789 32.1680 18.43 24.65 4.29
6790 32.1720 46.49 25.37 6.82
6791 32.1760 12.86 26.17 3.59
6792 32.1800 32.49 27.03 5.70
6793 32.1840 35.91 27.98 5.99
6794 32.1880 27.38 29.02 5.23
6795 32.1920 32.19 30.17 5.67
6796 32.1960 40.09 31.43 6.33
6797 32.2000 34.72 32.83 5.89
6798 32.2040 39.43 34.38 6.28
6799 32.2080 40.74 36.09 6.38
6800 32.2120 29.88 38.00 5.47
6801 32.2160 43.14 40.13 6.57
6802 32.2200 42.09 42.50 6.49
6803 32.2240 43.76 45.14 6.62
6804 32.2280 51.37 48.09 7.17
6805 32.2320 55.93 51.37 7.48
6806 32.2360 50.85 55.02 7.13
6807 32.2400 54.88 59.07 7.41
6808 32.2440 57.67 63.50 7.59
6809 32.2480 50.21 68.34 7.09
6810 32.2520 57.68 73.52 7.59
6811 32.2560 76.39 78.97 8.74
6812 32.2600 63.31 84.56 7.96
6813 32.2640 79.95 90.08 8.94
6814 32.2680 91.71 95.25 9.58
6815 32.2720 89.61 99.75 9.47
6816 32.2760 93.55 103.24 9.67
6817 32.2800 90.67 105.40 9.52
6818 32.2840 116.02 106.04 10.77
6819 32.2880 99.05 105.08 9.95
6820 32.2920 96.62 102.63 9.83
6821 32.2960 101.90 98.93 10.09
6822 32.3000 76.07 94.30 8.72
6823 32.3040 64.79 89.07 8.05
6824 32.3080 80.58 83.58 8.98
6825 32.3120 81.35 78.07 9.02
6826 32.3160 53.09 72.73 7.29
6827 32.3200 64.03 67.69 8.00
6828 32.3240 60.28 63.01 7.76
6829 32.3280 53.33 58.73 7.30
6830 32.3320 43.71 54.85 6.61
6831 32.3360 50.35 51.36 7.10
6832 32.3400 54.79 48.22 7.40
6833 32.3440 34.98 45.41 5.91
6834 32.3480 41.20 42.90 6.42
6835 32.3520 44.65 40.65 6.68
6836 32.3560 51.30 38.65 7.16
6837 32.3600 32.84 36.85 5.73
6838 32.3640 40.83 35.24 6.39
6839 32.3680 37.50 33.79 6.12
6840 32.3720 23.85 32.49 4.88
6841 32.3760 24.73 31.32 4.97
6842 32.3800 30.46 30.27 5.52
6843 32.3840 29.22 29.30 5.41
6844 32.3880 36.44 28.43 6.04
6845 32.3920 26.02 27.65 5.10
6846 32.3960 28.93 26.94 5.38
6847 32.4000 30.65 26.29 5.54
6848 32.4040 30.51 25.71 5.52
6849 32.4080 27.56 25.17 5.25
6850 32.4120 24.80 24.68 4.98
6851 32.4160 17.58 24.23 4.19
6852 32.4200 29.26 23.82 5.41
6853 32.4240 31.77 23.45 5.64
6854 32.4280 14.03 23.10 3.75
6855 32.4320 31.92 22.79 5.65
6856 32.4360 30.10 22.50 5.49
6857 32.4400 19.32 22.23 4.40
6858 32.4440 25.33 21.99 5.03
6859 32.4480 25.35 21.76 5.03
6860 32.4520 19.36 21.56 4.40
6861 32.4560 27.37 21.37 5.23
6862 32.4600 19.55 21.20 4.42
6863 32.4640 24.21 21.04 4.92
6864 32.4680 20.54 20.89 4.53
6865 32.4720 18.87 20.76 4.34
6866 32.4760 21.50 20.64 4.64
6867 32.4800 19.07 20.53 4.37
6868 32.4840 21.54 20.44 4.64
6869 32.4880 17.90 20.35 4.23
6870 32.4920 24.60 20.27 4.96
6871 32.4960 18.00 20.20 4.24
6872 32.5000 21.51 20.13 4.64
6873 32.5040 22.60 20.08 4.75
6874 32.5080 17.43 20.03 4.17
6875 32.5120 25.83 19.99 5.08
6876 32.5160 20.78 19.96 4.56
6877 32.5200 17.39 19.93 4.17
6878 32.5240 17.70 19.91 4.21
6879 32.5280 24.34 19.90 4.93
6880 32.5320 19.34 19.89 4.40
6881 32.5360 21.85 19.89 4.67
6882 32.5400 29.52 19.90 5.43
6883 32.5440 24.39 19.91 4.94
6884 32.5480 18.99 19.92 4.36
6885 32.5520 21.89 19.94 4.68
6886 32.5560 20.05 19.97 4.48
6887 32.5600 18.35 20.00 4.28
6888 32.5640 21.63 20.04 4.65
6889 32.5680 30.02 20.08 5.48
6890 32.5720 10.56 20.13 3.25
6891 32.5760 28.71 20.19 5.36
6892 32.5800 17.28 20.25 4.16
6893 32.5840 19.50 20.32 4.42
6894 32.5880 30.84 20.39 5.55
6895 32.5920 19.20 20.47 4.38
6896 32.5960 16.83 20.55 4.10
6897 32.6000 19.94 20.64 4.47
6898 32.6040 20.93 20.74 4.57
6899 32.6080 23.61 20.85 4.86
6900 32.6120 18.89 20.96 4.35
6901 32.6160 28.70 21.07 5.36
6902 32.6200 23.66 21.18 4.86
6903 32.6240 18.40 21.31 4.29
6904 32.6280 36.48 21.44 6.04
6905 32.6320 14.42 21.58 3.80
6906 32.6360 12.96 21.73 3.60
6907 32.6400 17.23 21.89 4.15
6908 32.6440 21.24 22.07 4.61
6909 32.6480 19.72 22.25 4.44
6910 32.6520 19.04 22.45 4.36
6911 32.6560 25.66 22.66 5.07
6912 32.6600 25.26 22.89 5.03
6913 32.6640 30.08 23.13 5.48
6914 32.6680 16.37 23.38 4.05
6915 32.6720 32.71 23.66 5.72
6916 32.6760 28.80 23.96 5.37
6917 32.6800 19.04 24.27 4.36
6918 32.6840 34.39 24.61 5.86
6919 32.6880 22.44 24.97 4.74
6920 32.6920 35.00 25.36 5.92
6921 32.6960 24.56 25.79 4.96
6922 32.7000 21.02 26.24 4.59
6923 32.7040 33.72 26.72 5.81
6924 32.7080 28.10 27.25 5.30
6925 32.7120 32.05 27.81 5.66
6926 32.7160 32.41 28.42 5.69
6927 32.7200 25.30 29.09 5.03
6928 32.7240 14.05 29.80 3.75
6929 32.7280 28.43 30.58 5.33
6930 32.7320 32.13 31.43 5.67
6931 32.7360 39.15 32.36 6.26
6932 32.7400 31.40 33.37 5.60
6933 32.7440 42.28 34.48 6.50
6934 32.7480 39.59 35.69 6.29
6935 32.7520 25.26 37.02 5.03
6936 32.7560 37.59 38.49 6.13
6937 32.7600 32.05 40.10 5.66
6938 32.7640 38.93 41.89 6.24
6939 32.7680 53.84 43.87 7.34
6940 32.7720 43.46 46.06 6.59
6941 32.7760 51.50 48.49 7.18
6942 32.7800 53.06 51.20 7.28
6943 32.7840 48.08 54.22 6.93
6944 32.7880 58.83 57.58 7.67
6945 32.7920 43.34 61.33 6.58
6946 32.7960 60.61 65.50 7.78
6947 32.8000 58.57 70.15 7.65
6948 32.8040 62.43 75.30 7.90
6949 32.8080 81.20 80.96 9.01
6950 32.8120 67.33 87.18 8.21
6951 32.8160 87.00 93.91 9.33
6952 32.8200 100.92 101.07 10.05
6953 32.8240 94.76 108.57 9.73
6954 32.8280 77.45 116.17 8.80
6955 32.8320 114.00 123.60 10.68
6956 32.8360 99.00 130.45 9.95
6957 32.8400 127.34 136.31 11.28
6958 32.8440 125.28 140.71 11.19
6959 32.8480 144.38 143.28 12.02
6960 32.8520 157.53 143.76 12.55
6961 32.8560 128.77 142.12 11.35
6962 32.8600 113.81 138.50 10.67
6963 32.8640 131.56 133.25 11.47
6964 32.8680 110.48 126.78 10.51
6965 32.8720 85.12 119.56 9.23
6966 32.8760 96.62 112.00 9.83
6967 32.8800 107.23 104.42 10.36
6968 32.8840 71.44 97.09 8.45
6969 32.8880 78.22 90.15 8.84
6970 32.8920 76.14 83.70 8.73
6971 32.8960 60.78 77.77 7.80
6972 32.9000 64.59 72.39 8.04
6973 32.9040 58.08 67.53 7.62
6974 32.9080 59.15 63.14 7.69
6975 32.9120 55.60 59.21 7.46
6976 32.9160 40.99 55.67 6.40
6977 32.9200 102.34 52.50 10.12
6978 32.9240 34.23 49.66 5.85
6979 32.9280 60.99 47.10 7.81
loop_
_pd_proc_info_excluded_regions
'from 1.742 to 1.831'
'from 3.354 to 3.487'
'from 6.478 to 7.859'
'from 8.068 to 8.127'
'from 8.161 to 8.230'
'from 8.588 to 8.820'
'from 8.894 to 9.015'
'from 9.231 to 10.209'
'from 10.645 to 11.642'
'from 12.184 to 12.634'
loop_
_refln_index_h
_refln_index_k
_refln_index_l
_refln_F_squared_calc
_refln_F_squared_meas
_refln_F_squared_sigma
_refln_observed_status
_refln_d_spacing
0 0 1 252.13 258.28 5.44 o 3.432347
1 0 1 857.19 850.88 17.28 o 2.427036
1 1 1 138.22 161.35 3.93 o 1.981666
0 0 2 673.56 688.36 14.91 o 1.716173
1 0 2 134.67 135.67 3.05 o 1.534992
1 1 2 466.81 472.37 9.85 o 1.401250
2 0 2 378.57 376.73 8.68 o 1.213518
0 0 3 91.24 90.98 2.31 o 1.144116
2 1 2 91.24 90.98 2.31 o 1.144116
1 0 3 288.63 291.76 6.55 o 1.085403
1 1 3 73.77 68.76 2.19 o 1.034891
2 2 2 240.23 247.36 7.44 o 0.990833
2 0 3 67.22 68.49 2.22 o 0.951962
2 1 3 193.99 198.70 4.44 o 0.917333
0 0 4 165.48 167.24 7.55 o 0.858087
2 2 3 52.28 51.55 1.60 o 0.832466
1 0 4 52.28 51.55 1.60 o 0.832466
3 0 3 139.04 155.14 3.97 o 0.809012
1 1 4 139.04 155.14 3.97 o 0.809012
3 1 3 46.03 55.18 2.55 o 0.787434
2 0 4 121.18 113.50 3.61 o 0.767496
2 1 4 42.34 39.59 1.47 o 0.748999
3 2 3 104.82 100.49 3.47 o 0.731779
2 2 4 93.00 85.86 3.21 o 0.700625
0 0 5 35.36 36.64 1.94 o 0.686469
3 0 4 35.36 36.64 1.94 o 0.686469
1 0 5 82.24 81.37 2.18 o 0.673139
3 1 4 82.24 81.37 2.18 o 0.673139
3 3 3 32.39 25.35 1.51 o 0.660555
1 1 5 32.39 25.35 1.51 o 0.660555
2 0 5 30.23 26.63 1.05 o 0.637371
3 2 4 30.23 26.63 1.05 o 0.637371
2 1 5 66.55 56.08 1.99 o 0.626658
loop_
_restr_angle_atom_site_label_1
_restr_angle_site_symmetry_1
_restr_angle_atom_site_label_2
_restr_angle_site_symmetry_2
_restr_angle_atom_site_label_3
_restr_angle_site_symmetry_3
_restr_angle_target
_restr_angle_target_weight_param
? ? ? ? ? ? ? ?
loop_
_restr_distance_atom_site_label_1
_restr_distance_site_symmetry_1
_restr_distance_atom_site_label_2
_restr_distance_site_symmetry_2
_restr_distance_target
_restr_distance_target_weight_param
? ? ? ? ? ?
loop_
_restr_equal_angle_atom_site_label_1
_restr_equal_angle_site_symmetry_1
_restr_equal_angle_atom_site_label_2
_restr_equal_angle_site_symmetry_2
_restr_equal_angle_atom_site_label_3
_restr_equal_angle_site_symmetry_3
_restr_equal_angle_class_class_id
_restr_equal_angle_class_target_weight_param
? ? ? ? ? ? ? ?
loop_
_restr_equal_distance_atom_site_label_1
_restr_equal_distance_site_symmetry_1
_restr_equal_distance_atom_site_label_2
_restr_equal_distance_site_symmetry_2
_restr_equal_distance_class_class_id
_restr_equal_distance_class_target_weight_param
? ? ? ? ? ?
loop_
_restr_equal_torsion_atom_site_label_1
_restr_equal_torsion_site_symmetry_1
_restr_equal_torsion_atom_site_label_2
_restr_equal_torsion_site_symmetry_2
_restr_equal_torsion_atom_site_label_3
_restr_equal_torsion_site_symmetry_3
_restr_equal_torsion_atom_site_label_4
_restr_equal_torsion_site_symmetry_4
_restr_equal_torsion_class_class_id
_restr_equal_torsion_class_target_weight_param
? ? ? ? ? ? ? ? ? ?
loop_
_restr_torsion_atom_site_label_1
_restr_torsion_site_symmetry_1
_restr_torsion_atom_site_label_2
_restr_torsion_site_symmetry_2
_restr_torsion_atom_site_label_3
_restr_torsion_site_symmetry_3
_restr_torsion_atom_site_label_4
_restr_torsion_site_symmetry_4
_restr_torsion_angle_target
_restr_torsion_weight_param
? ? ? ? ? ? ? ? ? ?
