#------------------------------------------------------------------------------
#$Date: 2020-03-04 03:32:56 +0200 (Wed, 04 Mar 2020) $
#$Revision: 248692 $
#$URL: file:///home/coder/svn-repositories/cod/cif/4/51/73/4517387.cif $
#------------------------------------------------------------------------------
#
# This file is available in the Crystallography Open Database (COD),
# http://www.crystallography.net/
#
# All data on this site have been placed in the public domain by the
# contributors.
#
data_4517387
loop_
_publ_author_name
'Oliveira, Ana P. A.'
'Freitas, Jennifer T. J.'
'Diniz, Renata'
'Pessoa, Claudia'
'Maranh\~ao, Sarah S'
'Ribeiro, Juliana M.'
'Souza-Fagundes, Elaine M'
'Beraldo, Heloisa'
_publ_section_title
;
 Triethylphosphinegold(I) Complexes with Secnidazole-Derived
 Thiosemicarbazones: Cytotoxic Activity against HCT-116 Colorectal Cancer
 Cells under Hypoxia Conditions.
;
_journal_issue                   6
_journal_name_full               'ACS omega'
_journal_page_first              2939
_journal_page_last               2946
_journal_paper_doi               10.1021/acsomega.9b03778
_journal_volume                  5
_journal_year                    2020
_chemical_formula_sum            'C9 H14 N6 O2 S'
_chemical_formula_weight         270.32
_space_group_IT_number           2
_space_group_name_Hall           '-P 1'
_space_group_name_H-M_alt        'P -1'
_symmetry_cell_setting           triclinic
_symmetry_Int_Tables_number      2
_symmetry_space_group_name_Hall  '-P 1'
_symmetry_space_group_name_H-M   'P -1'
_atom_sites_solution_hydrogens   mixed
_audit_creation_date             2019-08-27T13:33:00-00:00
_audit_creation_method           'WinGX routine CIF_UPDATE'
_cell_angle_alpha                89.139(5)
_cell_angle_beta                 81.378(4)
_cell_angle_gamma                68.290(6)
_cell_formula_units_Z            2
_cell_length_a                   8.1536(4)
_cell_length_b                   8.7320(6)
_cell_length_c                   9.8349(5)
_cell_measurement_reflns_used    6638
_cell_measurement_temperature    298(2)
_cell_measurement_theta_max      27.033
_cell_measurement_theta_min      3.18
_cell_volume                     642.57(7)
_computing_cell_refinement       'CrysAlisPro 1.171.39.46 (Rigaku OD, 2018)'
_computing_data_collection       'CrysAlisPro 1.171.39.46 (Rigaku OD, 2018)'
_computing_data_reduction        'CrysAlisPro 1.171.39.46 (Rigaku OD, 2018)'
_computing_structure_refinement  'SHELXL-2018/3 (Sheldrick, 2018)'
_diffrn_ambient_environment      air
_diffrn_ambient_temperature      298(2)
_diffrn_detector                 'CCD plate'
_diffrn_detector_area_resol_mean 5.2923
_diffrn_detector_type            AtlasS2
_diffrn_measured_fraction_theta_full 0.996
_diffrn_measured_fraction_theta_max 0.993
_diffrn_measurement_device       'four-circle diffractometer'
_diffrn_measurement_device_type  'SuperNova, Dual, Cu at home/near, AtlasS2'
_diffrn_measurement_method       '\w scans'
_diffrn_orient_matrix_type
'CrysAlisPro convention (1999,Acta A55,543-557)'
_diffrn_orient_matrix_UB_11      -0.0481756
_diffrn_orient_matrix_UB_12      0.0234034
_diffrn_orient_matrix_UB_13      -0.0561356
_diffrn_orient_matrix_UB_21      -0.030654
_diffrn_orient_matrix_UB_22      0.0839359
_diffrn_orient_matrix_UB_23      0.0229442
_diffrn_orient_matrix_UB_31      0.0756547
_diffrn_orient_matrix_UB_32      0.0081349
_diffrn_orient_matrix_UB_33      -0.0406646
_diffrn_radiation_monochromator  mirror
_diffrn_radiation_probe          x-ray
_diffrn_radiation_type           MoK\a
_diffrn_radiation_wavelength     0.71073
_diffrn_reflns_av_R_equivalents  0.0371
_diffrn_reflns_av_unetI/netI     0.0382
_diffrn_reflns_Laue_measured_fraction_full 0.996
_diffrn_reflns_Laue_measured_fraction_max 0.993
_diffrn_reflns_limit_h_max       10
_diffrn_reflns_limit_h_min       -10
_diffrn_reflns_limit_k_max       15
_diffrn_reflns_limit_k_min       -15
_diffrn_reflns_limit_l_max       12
_diffrn_reflns_limit_l_min       -12
_diffrn_reflns_number            14624
_diffrn_reflns_point_group_measured_fraction_full 0.996
_diffrn_reflns_point_group_measured_fraction_max 0.993
_diffrn_reflns_theta_full        25.242
_diffrn_reflns_theta_max         27.117
_diffrn_reflns_theta_min         2.513
_diffrn_source                   'micro-focus sealed X-ray tube'
_diffrn_source_type              'SuperNova (Mo) X-ray Source'
_exptl_absorpt_coefficient_mu    0.257
_exptl_absorpt_correction_T_max  1
_exptl_absorpt_correction_T_min  0.614
_exptl_absorpt_correction_type   gaussian
_exptl_absorpt_process_details
;
        CrysAlisPro 1.171.39.46 (Rigaku Oxford Diffraction, 2018)
Numerical absorption correction based on gaussian integration over
                        a multifaceted crystal model
        Empirical absorption correction using spherical harmonics,
 implemented in SCALE3 ABSPACK scaling algorithm.
;
_exptl_crystal_colour            orange
_exptl_crystal_density_diffrn    1.397
_exptl_crystal_description       block
_exptl_crystal_F_000             284
_exptl_crystal_size_max          0.241
_exptl_crystal_size_mid          0.214
_exptl_crystal_size_min          0.125
_refine_diff_density_max         0.384
_refine_diff_density_min         -0.396
_refine_diff_density_rms         0.067
_refine_ls_extinction_method     none
_refine_ls_goodness_of_fit_ref   1.127
_refine_ls_hydrogen_treatment    constr
_refine_ls_matrix_type           full
_refine_ls_number_parameters     164
_refine_ls_number_reflns         14624
_refine_ls_number_restraints     0
_refine_ls_restrained_S_all      1.127
_refine_ls_R_factor_all          0.086
_refine_ls_R_factor_gt           0.0659
_refine_ls_shift/su_max          0
_refine_ls_shift/su_mean         0
_refine_ls_structure_factor_coef Fsqd
_refine_ls_weighting_details
'w=1/[\s^2^(Fo^2^)+(0.0550P)^2^+1.4793P] where P=(Fo^2^+2Fc^2^)/3'
_refine_ls_weighting_scheme      calc
_refine_ls_wR_factor_gt          0.1718
_refine_ls_wR_factor_ref         0.196
_reflns_Friedel_coverage         0
_reflns_number_gt                11169
_reflns_number_total             14624
_reflns_threshold_expression     'I > 2\s(I)'
_cod_data_source_file            ao9b03778_si_001.cif
_cod_data_source_block           bg35
_cod_depositor_comments
'Adding full bibliography for 4517386--4517387.cif.'
_cod_database_code               4517387
_shelx_res_file
;
TITL SIR2011 run in space group P -1
    shelx.res
    created by SHELXL-2018/3 at 13:31:17 on 27-Aug-2019
CELL  0.71073   8.1536   8.7320   9.8349   89.139   81.378   68.290
ZERR     2.00   0.0004   0.0006   0.0005    0.005    0.004    0.006
LATT   1
SFAC  C    H    N    O    S
UNIT  18 28 12 4 2
MERG   0
OMIT    -1   1   2
OMIT     0   1   1
OMIT     4   2   3
OMIT     0  -1  -1
OMIT     1   0   0
OMIT    -1   0   0
OMIT     1   1   0
OMIT     1   0   1
OMIT    -4  -2  -3
OMIT     1   4  -3
OMIT    -1   2   2
OMIT    -5  -1  -1
OMIT     5   1   2
OMIT    -5  -2   1
FMAP   2
PLAN    5
ACTA
BOND   $H
CONF
L.S.  50
TEMP    25.00
WGHT    0.055000    1.479300
BASF   0.01435
FVAR      10.74715
S     5    0.070265    0.248462    0.441616    11.00000    0.05277    0.04049 =
         0.09071   -0.00942   -0.04461   -0.00121
N1    3   -0.635991    0.678009   -0.034701    11.00000    0.09726    0.05168 =
         0.06513   -0.00584   -0.04880    0.00123
N2    3   -0.614366    0.750997    0.175250    11.00000    0.04937    0.03326 =
         0.05074   -0.00230   -0.02587   -0.00128
N3    3   -0.369322    0.567208    0.335766    11.00000    0.03846    0.03300 =
         0.04466   -0.00042   -0.01820   -0.00599
N4    3   -0.226308    0.489854    0.404721    11.00000    0.03918    0.03262 =
         0.05720   -0.00977   -0.02432   -0.00147
AFIX   3
H4    2   -0.189219    0.548624    0.446752    11.00000   -1.20000
AFIX   0
N5    3   -0.137443    0.267988    0.253037    11.00000    0.03588    0.03619 =
         0.04811   -0.00567   -0.01797   -0.00246
AFIX   3
H5    2   -0.227643    0.327898    0.209957    11.00000   -1.20000
AFIX   0
N6    3   -0.369175    0.855437    0.118287    11.00000    0.07999    0.05798 =
         0.05915    0.01292   -0.01747   -0.02430
O1    4   -0.394081    0.919143    0.231717    11.00000    0.09962    0.06963 =
         0.06890    0.00245   -0.02048   -0.04497
O2    4   -0.247182    0.851460    0.026197    11.00000    0.11102    0.14454 =
         0.08253    0.01113    0.00658   -0.06505
C1    1   -0.700927    0.686289    0.098205    11.00000    0.06625    0.03728 =
         0.07388   -0.00650   -0.04282    0.00008
C2    1   -0.504565    0.738139   -0.044697    11.00000    0.09437    0.05543 =
         0.05199    0.00444   -0.02982    0.00027
AFIX  43
H2    2   -0.436077    0.747698   -0.126576    11.00000   -1.20000
AFIX   0
C3    1   -0.486842    0.782747    0.082461    11.00000    0.06596    0.04415 =
         0.05002    0.00695   -0.02461   -0.00707
C4    1   -0.651067    0.782080    0.323314    11.00000    0.04309    0.03853 =
         0.05117   -0.00851   -0.01430   -0.00436
AFIX  23
H4A   2   -0.748401    0.747709    0.360781    11.00000   -1.20000
H4B   2   -0.690571    0.899905    0.342689    11.00000   -1.20000
AFIX   0
C5    1   -0.493457    0.695004    0.395961    11.00000    0.03374    0.03366 =
         0.04189   -0.00078   -0.00899   -0.00873
C6    1   -0.105073    0.339066    0.357475    11.00000    0.03392    0.03301 =
         0.05155   -0.00132   -0.01261   -0.00827
C7    1   -0.502069    0.768314    0.534125    11.00000    0.04301    0.04706 =
         0.05353   -0.01049   -0.00846   -0.00930
AFIX  33
H7A   2   -0.609999    0.864073    0.554538    11.00000   -1.50000
H7B   2   -0.500984    0.688655    0.602677    11.00000   -1.50000
H7C   2   -0.400765    0.799391    0.534074    11.00000   -1.50000
AFIX   0
C8    1   -0.849992    0.632754    0.159031    11.00000    0.06898    0.07087 =
         0.11133   -0.01882   -0.03914   -0.01815
AFIX  33
H8A   2   -0.871946    0.651358    0.257180    11.00000   -1.50000
H8B   2   -0.956201    0.695158    0.121727    11.00000   -1.50000
H8C   2   -0.817284    0.517466    0.137137    11.00000   -1.50000
AFIX   0
C9    1   -0.037297    0.097781    0.206472    11.00000    0.05566    0.04012 =
         0.05827   -0.01315   -0.01647   -0.00486
AFIX  33
H9A   2   -0.083513    0.072186    0.129272    11.00000   -1.50000
H9B   2    0.086303    0.081577    0.179456    11.00000   -1.50000
H9C   2   -0.048274    0.026714    0.279809    11.00000   -1.50000
AFIX   0
HKLF    5




REM  SIR2011 run in space group P -1
REM wR2 = 0.1960, GooF = S = 1.127, Restrained GooF = 1.127 for all data
REM R1 = 0.0659 for 11169 Fo > 4sig(Fo) and 0.0860 for all 14624 data
REM 164 parameters refined using 0 restraints

END

WGHT      0.0550      1.4806

REM Highest difference peak  0.384,  deepest hole -0.396,  1-sigma level  0.067
Q1    1  -0.2655  0.7532  0.4853  11.00000  0.05    0.38
Q2    1  -0.1181  0.2474  0.3469  11.00000  0.05    0.38
Q3    1   0.1201  0.2862  0.3694  11.00000  0.05    0.35
Q4    1  -0.6351  0.7813  0.5948  11.00000  0.05    0.32
Q5    1  -0.3278  0.2348  0.2911  11.00000  0.05    0.31
;
_shelx_res_checksum              1066
_shelx_hkl_file
;
   0   0   232115.10  557.79  -2
   0   0  -232115.10  557.79   1
   0   0  -231788.10  740.06  -2
   0   0   231788.10  740.06   1
   0   0   230363.10  721.84  -2
   0   0  -230363.10  721.84   1
   0   0   231464.50  669.38  -2
   0   0  -231464.50  669.38   1
   0   0  -230561.20  669.89  -2
   0   0   230561.20  669.89   1
   0   0   3   -1.85   28.09   1
   0   0  -3   -1.64   52.06   1
   0   0  -3   13.15   36.94   1
   0   0  -3  -14.24   29.00   1
   0   0  -3   15.75   55.76   1
   0   0   3   24.53   54.30   1
   0   0   3  -36.45   67.97   1
   0   0  -4 5080.69  391.51   1
   0   0  -4 4457.23  396.26   1
   0   0   4 5113.06  435.64   1
   0   0   4 4569.07  195.85   1
   0   0  -4 4897.72  302.35   1
   0   0   4 4545.66  376.32   1
   0   0   520923.60  915.50   1
   0   0  -521242.20  896.54   1
   0   0   521405.30  999.73   1
   0   0  -522537.80  731.47   1
   0   0   521554.00  490.21   1
   0   0   521960.90  467.39   1
   0   0  -6 5396.27  402.53   1
   0   0  -6 1202.67  267.76   1
   0   0   6 5563.53  252.35   1
   0   0   6 5758.32  570.44   1
   0   0  -6 5964.48  520.75   1
   0   0   6 5570.55  270.24   1
   0   0   6   19.40   65.22   1
   0   0   6 5439.48  517.20   1
   0   0   7  956.87  287.76   1
   0   0   7  778.05  211.43   1
   0   0  -7  752.85  174.76   1
   0   0   7  795.02  233.90   1
   0   0  -7  597.50  219.64   1
   0   0  -7  789.91  219.20   1
   0   0   7  522.64   77.18   1
   0   0   7  599.46  106.20   1
   0   0   8 1461.46  356.76   1
   0   0   8 1212.84  129.72   1
   0   0   8 1005.63  104.42   1
   0   0  -8 1199.65  301.11   1
   0   0  -8 1583.87  265.56   1
   0   0   9 1966.68  135.00   1
   0   0  -9 2974.20  364.58   1
   0   0  -9 2027.59  399.66   1
   0   0 -10  953.26  304.35   1
   0   0 -10 1121.38  243.88   1
   0   0  10 1416.33  411.21   1
   0   0  11  377.61  316.72   1
   0   0 -11  243.78  243.40   1
   0   0 -11  109.06  125.20   1
   0  -1  12   53.51  157.58  -2
   0   0 -12   53.51  157.58   1
   0   1 -12 -210.10  233.38  -2
   0   0  12 -210.10  233.38   1
   0  -2  12 -242.69  164.84  -2
   0   1 -12 -242.69  164.84   1
   0  -2  12 -422.24  336.55  -2
   0   1 -12 -422.24  336.55   1
   0   2 -12  399.43  327.07  -2
   0  -1  12  399.43  327.07   1
   0   1 -11  -25.77  128.10   1
   0  -1  11  251.89  198.24   1
   0   1 -11  290.65  200.91   1
   0   1 -10  301.65  168.04   1
   0   1 -10  -68.07  141.24   1
   0  -1  10  100.88  228.66   1
   0   1  -913606.80 1020.64   1
   0  -1   912020.70  454.21   1
   0   1  -912707.50  810.70   1
   0  -1   912898.30 1100.42   1
   0  -1   8  247.27  209.75   1
   0   1  -8  -34.59  149.11   1
   0  -1   8  -24.38  144.07   1
   0  -1   8   -5.52   54.76   1
   0  -1   8  -86.33  128.49   1
   0   1  -8   69.26  102.13   1
   0   1  -7 3356.87  466.83   1
   0   1  -7 3417.39  379.13   1
   0   1  -7 3419.11  441.89   1
   0  -1   7 3431.29  425.75   1
   0  -1   7 3158.75  461.98   1
   0  -1   7 3000.31  232.36   1
   0  -1   7 3401.09  437.49   1
   0  -1   7 3603.36  464.85   1
   0   1  -6 3606.41  420.70   1
   0   1  -6  -60.39  108.53   1
   0  -1   6 3154.32  397.83   1
   0  -1   6 3286.28  247.41   1
   0  -1   6 4813.60  533.08   1
   0  -1   6 3198.93  388.10   1
   0  -1   6  -18.88   63.57   1
   0   1  -6 3587.96  357.26   1
   0  -1   5  102202    1940   1
   0  -1   5  104644     916   1
   0  -1   5  104656    1359   1
   0   1  -5  106056    1793   1
   0   1  -5  106125    2117   1
   0  -1   599810.20 1977.80   1
   0   1  -5  108219    2072   1
   0  -1   5  106006    2160   1
   0   1  -4  308.31  114.53   1
   0  -1   4   71.70   55.71   1
   0  -1   4  241.30   47.57   1
   0   1  -4  364.25  116.55   1
   0  -1   4  345.71  143.68   1
   0  -1   4  236.96   75.45   1
   0  -1   4  418.77  127.29   1
   0  -1   4  307.44  126.50   1
   0   1  -4  194.44  112.58   1
   0  -1   324295.10  729.33   1
   0  -1   324706.30  576.14   1
   0   1  -324988.70  407.14   1
   0  -1   325133.80  712.04   1
   0   1  -323986.60  767.05   1
   0  -1   325868.50  813.17   1
   0   1  -324696.00  791.56   1
   0   1  -324749.20  723.29   1
   0  -1   2  303448    2087  -2
   0   1  -2  303448    2087   1
   0  -1   2  300846    2298  -2
   0   1  -2  300846    2298   1
   0  -1   2  309637    2289  -2
   0   1  -2  309637    2289   1
   0   1  -2  307356    2325  -2
   0  -1   2  307356    2325   1
   0   1  -2  299075    1908  -2
   0  -1   2  299075    1908   1
   0  -1   2  301997    1858  -2
   0   1  -2  301997    1858   1
   0   1  -2  303969    2108  -2
   0  -1   2  303969    2108   1
   0  -1   2  306954    1390  -2
   0   1  -2  306954    1390   1
   0  -1   2  304977    2166  -2
   0   1  -2  304977    2166   1
   0   1  -1 6335.37  246.05  -2
   0  -1   1 6335.37  246.05   1
   0  -1   1 6849.21  285.01  -2
   0   1  -1 6849.21  285.01   1
   0  -1   1 6996.84  283.21  -2
   0   1  -1 6996.84  283.21   1
   0  -1   1 7035.80  269.00  -2
   0   1  -1 7035.80  269.00   1
   0  -1   0 9490.69  277.24  -2
   0   1   0 9490.69  277.24   1
   0  -1   0 8581.29  282.65  -2
   0   1   0 8581.29  282.65   1
   0  -1  -1  406.37   92.50  -2
   0   1   1  406.37   92.50   1
   0   1   1  273.28   62.19  -2
   0  -1  -1  273.28   62.19   1
   0   1   292860.00 1219.80  -2
   0  -1  -292860.00 1219.80   1
   0  -1  -288681.80 1369.48  -2
   0   1   288681.80 1369.48   1
   0   1   350866.30 1207.40   1
   0  -1  -351220.60  596.98   1
   0  -1  -352795.80 1093.89   1
   0  -1  -349877.20  643.56   1
   0  -1  -4  193633    1202   1
   0   1   4  194717    2588   1
   0  -1  -4  206898    2476   1
   0   1   4  198718    2752   1
   0  -1  -4  199071    2811   1
   0  -1  -4  200863    1598   1
   0  -1  -5  141501    1570   1
   0  -1  -5  132513    1053   1
   0   1   5  142203    2474   1
   0   1   5  139896    2582   1
   0  -1  -5  139561    2280   1
   0   1   6   88.61  105.07   1
   0  -1  -6   67.33   47.74   1
   0  -1  -6   82.06   70.46   1
   0  -1  -6  177.57   98.91   1
   0   1   6   26.03   96.16   1
   0   1   6  -11.16   74.11   1
   0  -1  -6   75.34   40.43   1
   0   1   7 7934.19  735.03   1
   0   1   7 9028.71  708.41   1
   0  -1  -7 8421.75  771.69   1
   0  -1  -7 9577.32  714.91   1
   0  -1  -7 8511.44  479.38   1
   0   1   7 8824.31  756.55   1
   0   1   8   -8.95  137.25   1
   0  -1  -8   87.72  103.22   1
   0  -1  -8  -39.51   70.24   1
   0  -1  -9 2026.91  280.52   1
   0  -1  -9 2229.13  420.83   1
   0   1   9 1853.99  202.66   1
   0   1   9 2380.25  476.85   1
   0   1  10   -8.33  147.59   1
   0  -1 -10 -153.57  121.64   1
   0  -1 -10  151.64  189.98   1
   0   1  11    0.59  194.36   1
   0  -1 -11  612.11  287.26   1
   0   0 -12  317.52  240.30  -2
   0   1  12  317.52  240.30   1
   0   0  12 1041.61  402.20  -2
   0  -1 -12 1041.61  402.20   1
   0  -3  12  522.79  291.36  -2
   0   2 -12  522.79  291.36   1
   0  -3  12  207.53  192.42  -2
   0   2 -12  207.53  192.42   1
   0   3 -12  522.86  397.27  -2
   0  -2  12  522.86  397.27   1
   0   3 -12  722.03  318.09  -2
   0  -2  12  722.03  318.09   1
   0   2 -11  820.22  271.05   1
   0   2 -11 1414.92  405.50   1
   0  -2  11  951.34  366.52   1
   0  -2  10  479.46  145.02   1
   0   2 -10  854.04  254.05   1
   0  -2  10  518.17  307.60   1
   0   2 -10  318.72  263.66   1
   0  -2   9 1845.57  428.87   1
   0  -2   9 2099.84  242.22   1
   0  -2   9 2192.43  255.41   1
   0   2  -9 2204.81  361.97   1
   0   2  -9 2707.97  487.91   1
   0  -2   8 1209.20  293.57   1
   0  -2   8 1318.69  333.90   1
   0  -2   8 1299.98  296.50   1
   0   2  -8 1840.70  371.99   1
   0  -2   8 1573.59  213.57   1
   0  -2   8 1597.70  217.84   1
   0   2  -8 1668.24  295.29   1
   0  -2   7  585.32  196.74   1
   0   2  -7  505.48  198.67   1
   0   2  -7  409.20  146.53   1
   0  -2   7  492.03  145.20   1
   0  -2   7  465.25  206.93   1
   0  -2   7  392.78  102.79   1
   0  -2   7  422.02  183.60   1
   0   2  -7  473.73  192.71   1
   0  -2   6  289.73  119.92   1
   0  -2   6  441.75  183.99   1
   0  -2   6  566.05  181.41   1
   0   2  -6  476.42  144.94   1
   0   2  -6  600.87  196.91   1
   0  -2   6  398.72  114.54   1
   0  -2   6  261.51  134.17   1
   0  -2   6  504.53  100.12   1
   0   2  -6  -51.04   81.20   1
   0   2  -5 3790.00  422.58   1
   0   2  -5 3401.79  357.98   1
   0  -2   5 3525.28  312.12   1
   0  -2   5 3449.99  395.03   1
   0  -2   5 3919.50  424.68   1
   0   2  -5 3456.45  201.60   1
   0  -2   5 3102.53  344.92   1
   0  -2   5 3982.21  361.58   1
   0  -2   5 3614.77  207.92   1
   0   2  -439315.00 1188.25   1
   0  -2   439394.30 1186.64   1
   0   2  -438481.20 1175.70   1
   0  -2   438935.90  986.43   1
   0   2  -438775.20 1106.23   1
   0  -2   438212.00 1076.89   1
   0   2  -438476.40 1057.33   1
   0  -2   439689.50 1235.41   1
   0   2  -439994.80  708.72   1
   0  -2   438307.00  543.35   1
   0  -2   438621.60  955.99   1
   0  -2   439472.90 1156.06   1
   0  -2   3 1349.49  182.82   1
   0   2  -3 1563.52  155.01   1
   0  -2   3 1550.72  211.93   1
   0  -2   3 1317.85  150.80   1
   0   2  -3 1358.03  134.42   1
   0   2  -3 1488.42  212.45   1
   0  -2   3 1768.00  232.90   1
   0   2  -3 1402.76  182.50   1
   0   2  -3 1381.39  194.68   1
   0  -2   3 1421.31  209.89   1
   0   2  -2  169887    2007  -2
   0  -2   2  169887    2007   1
   0  -2   2  165475    1933  -2
   0   2  -2  165475    1933   1
   0  -2   2  164642    1730  -2
   0   2  -2  164642    1730   1
   0  -2   2  173373    1956  -2
   0   2  -2  173373    1956   1
   0  -2   2  165634     972  -2
   0   2  -2  165634     972   1
   0  -2   2  163509    1246  -2
   0   2  -2  163509    1246   1
   0  -2   2  166811    1992  -2
   0   2  -2  166811    1992   1
   0   2  -2  162024    1707  -2
   0  -2   2  162024    1707   1
   0   2  -2  161522    1253  -2
   0  -2   2  161522    1253   1
   0   2  -2  162957    1925  -2
   0  -2   2  162957    1925   1
   0   2  -1 8226.04  358.27  -2
   0  -2   1 8226.04  358.27   1
   0   2  -1 8492.59  407.75  -2
   0  -2   1 8492.59  407.75   1
   0  -2   1 8877.52  388.59  -2
   0   2  -1 8877.52  388.59   1
   0  -2   1 8417.03  217.74  -2
   0   2  -1 8417.03  217.74   1
   0  -2   1 8161.30  349.16  -2
   0   2  -1 8161.30  349.16   1
   0  -2   1 8632.73  411.71  -2
   0   2  -1 8632.73  411.71   1
   0  -2   0  923655    3929  -2
   0   2   0  923655    3929   1
   0  -2   0  905053    3387  -2
   0   2   0  905053    3387   1
   0   2   0  907760    4118  -2
   0  -2   0  907760    4118   1
   0  -2   0  911423    4068  -2
   0   2   0  911423    4068   1
   0  -2  -1  524.96   78.48  -2
   0   2   1  524.96   78.48   1
   0   2   1  392.24  117.14  -2
   0  -2  -1  392.24  117.14   1
   0  -2  -1  217.12   93.51  -2
   0   2   1  217.12   93.51   1
   0  -2  -293060.70 1616.70  -2
   0   2   293060.70 1616.70   1
   0  -2  -295630.20 1516.35  -2
   0   2   295630.20 1516.35   1
   0   2   291695.00 1399.78  -2
   0  -2  -291695.00 1399.78   1
   0  -2  -310832.60  535.18   1
   0   2   3 9822.14  591.76   1
   0  -2  -419967.50  513.83   1
   0   2   421216.70  948.15   1
   0   2   421308.90  454.09   1
   0  -2  -421248.80  838.05   1
   0   2   520338.60 1026.60   1
   0  -2  -521167.80  447.37   1
   0  -2  -520878.20  921.94   1
   0   2   521320.00 1028.00   1
   0   2   520590.20  553.28   1
   0  -2  -520326.40  509.26   1
   0  -2  -6  203.26  126.16   1
   0  -2  -611466.30  358.14   1
   0  -2  -611913.60  406.71   1
   0   2   611537.90  486.09   1
   0   2   6  215.67  119.40   1
   0  -2  -612416.40  774.93   1
   0   2   612482.30  867.48   1
   0   2   610648.10  812.67   1
   0  -2  -7 2934.91  160.88   1
   0  -2  -7 3437.57  250.33   1
   0   2   7 3179.86  287.48   1
   0   2   7 3317.03  492.34   1
   0  -2  -7 3120.44  423.33   1
   0  -2  -8 5989.93  637.51   1
   0   2   8 5499.83  417.06   1
   0   2   8 5260.83  668.63   1
   0  -2  -8 5811.67  360.61   1
   0  -2  -9 1617.13  211.60   1
   0  -2  -9 1450.76  350.72   1
   0   2   9 1509.05  238.66   1
   0   2   9 1670.67  431.81   1
   0  -2 -10 4131.53  343.52   1
   0   2  10 4509.11  709.56   1
   0  -2 -10 4814.48  664.79   1
   0  -2 -11 1871.06  444.35   1
   0   2  11 1838.78  494.54   1
   0   4 -12   -1.34  206.69  -2
   0  -3  12   -1.34  206.69   1
   0  -4  12  415.61  223.09  -2
   0   3 -12  415.61  223.09   1
   0   3 -11  411.31  200.74   1
   0   3 -11  458.21  362.10   1
   0  -3  11  442.06  232.16   1
   0  -3  11  499.53  283.82   1
   0  -3  10 2858.68  343.78   1
   0   3 -10 3902.38  544.84   1
   0   3 -10 2970.67  543.83   1
   0  -3  10 2955.17  591.97   1
   0  -3  10 3133.55  572.90   1
   0  -3   916402.90  829.62   1
   0  -3   913478.40 1110.15   1
   0   3  -915104.20 1141.84   1
   0   3  -916176.00 1043.27   1
   0  -3   915910.10 1216.79   1
   0  -3   8 2588.73  473.50   1
   0  -3   8 2970.87  350.82   1
   0   3  -8 2998.43  450.56   1
   0   3  -8 2947.83  483.39   1
   0  -3   8 2472.72  433.91   1
   0  -3   8 2970.51  448.72   1
   0  -3   8 1861.12  342.19   1
   0  -3   8 2358.72  173.50   1
   0  -3   7 3641.28  501.71   1
   0   3  -7 3689.61  235.63   1
   0  -3   7 4690.71  428.67   1
   0   3  -7 4326.05  541.12   1
   0  -3   7 3864.89  188.60   1
   0   3  -7 4462.24  496.99   1
   0   3  -7 4552.20  546.76   1
   0  -3   7 4181.16  556.20   1
   0  -3   7 4701.00  474.12   1
   0  -3   7 4075.77  481.66   1
   0   3  -6 6596.01  582.70   1
   0  -3   6 6086.12  477.39   1
   0  -3   6 5544.54  543.07   1
   0  -3   6 6267.28  614.05   1
   0   3  -6 6200.14  333.91   1
   0  -3   6 6007.25  596.47   1
   0  -3   6 6318.76  555.09   1
   0  -3   6 5973.50  476.24   1
   0   3  -6 6143.84  591.85   1
   0   3  -534584.50 1157.11   1
   0   3  -535574.10 1237.61   1
   0  -3   533318.80  987.27   1
   0  -3   530752.20 1185.72   1
   0  -3   533117.80 1155.14   1
   0  -3   536857.40 1374.96   1
   0  -3   535159.30 1094.48   1
   0   3  -535068.30  808.90   1
   0   3  -4 2902.95  337.67   1
   0   3  -4 2854.33  244.87   1
   0  -3   4 3017.19  321.35   1
   0   3  -4 3299.68  329.69   1
   0  -3   4 3111.37  368.04   1
   0   3  -4 2989.16  351.14   1
   0  -3   4 2838.52  249.94   1
   0   3  -3 1953.87  236.99   1
   0  -3   3 1665.06  156.71   1
   0  -3   3 1762.68  250.02   1
   0   3  -3 1720.07  247.00   1
   0  -3   3 1719.09  216.93   1
   0   3  -3 1828.75  166.03   1
   0  -3   3 1654.42  246.54   1
   0   3  -3 1742.88  253.04   1
   0   3  -3 1743.64  113.73   1
   0   3  -3 1820.48  261.07   1
   0  -3   211827.40  564.77  -2
   0   3  -211827.40  564.77   1
   0  -3   211231.00  600.61  -2
   0   3  -211231.00  600.61   1
   0  -3   211573.40  602.17  -2
   0   3  -211573.40  602.17   1
   0  -3   212717.60  351.60  -2
   0   3  -212717.60  351.60   1
   0   3  -210001.40  293.21  -2
   0  -3   210001.40  293.21   1
   0   3  -211028.00  600.94  -2
   0  -3   211028.00  600.94   1
   0   3  -210443.50  508.20  -2
   0  -3   210443.50  508.20   1
   0  -3   112303.30  554.95  -2
   0   3  -112303.30  554.95   1
   0  -3   1 9258.12  527.08  -2
   0   3  -1 9258.12  527.08   1
   0   3  -112407.60  563.43  -2
   0  -3   112407.60  563.43   1
   0  -3   115699.10  374.56  -2
   0   3  -115699.10  374.56   1
   0   3  -110491.60  550.55  -2
   0  -3   110491.60  550.55   1
   0  -3   113970.50  573.55  -2
   0   3  -113970.50  573.55   1
   0  -3   0   31.62   48.00  -2
   0   3   0   31.62   48.00   1
   0  -3   0   39.76   51.89  -2
   0   3   0   39.76   51.89   1
   0   3   0  115.56   81.70  -2
   0  -3   0  115.56   81.70   1
   0  -3   0   78.27   62.78  -2
   0   3   0   78.27   62.78   1
   0  -3  -147192.80  790.88  -2
   0   3   147192.80  790.88   1
   0  -3  -151941.10 1255.27  -2
   0   3   151941.10 1255.27   1
   0   3   148590.80 1200.85  -2
   0  -3  -148590.80 1200.85   1
   0   3   266248.90 1373.37  -2
   0  -3  -266248.90 1373.37   1
   0  -3  -265878.40 1465.03  -2
   0   3   265878.40 1465.03   1
   0  -3  -264217.10 1540.39  -2
   0   3   264217.10 1540.39   1
   0   3   266092.60 1409.49  -2
   0  -3  -266092.60 1409.49   1
   0  -3  -265921.50  683.08  -2
   0   3   265921.50  683.08   1
   0   3   313622.70  773.51   1
   0   3   314320.40  738.45   1
   0  -3  -314720.00  698.07   1
   0  -3  -4 4137.79  405.03   1
   0   3   4 4689.61  487.90   1
   0   3   4 4728.48  450.82   1
   0  -3  -579960.90 1906.88   1
   0  -3  -579618.60 1225.19   1
   0   3   584821.70 2064.03   1
   0   3   581744.90 2162.88   1
   0  -3  -610098.20  726.51   1
   0   3   6 9094.56  700.86   1
   0   3   6 8634.13  754.40   1
   0  -3  -6 9745.84  846.91   1
   0   3   6 8764.38  764.30   1
   0  -3  -6 9209.56  406.02   1
   0  -3  -7  523.61   96.84   1
   0  -3  -7  203.75  106.72   1
   0   3   7  349.70   69.93   1
   0   3   8 -100.49  146.12   1
   0  -3  -8  223.22  195.47   1
   0  -3  -8  185.57   57.18   1
   0   3   8  121.02   51.47   1
   0  -3  -9 3111.56  518.88   1
   0   3   9 3235.88  572.00   1
   0  -3 -10    3.94  138.46   1
   0   3  10   90.88  173.68   1
   0  -3 -11  174.17  229.26   1
   0   3  11  423.51  311.89   1
   0  -4  11   98.02  183.01   1
   0   4 -11  381.30  178.76   1
   0   4 -10  -28.74  151.79   1
   0  -4  10  133.43  222.11   1
   0  -4  10   70.26  123.17   1
   0  -4   9  -54.13  217.87   1
   0  -4   9 -176.89  164.56   1
   0  -4   9  193.36  189.48   1
   0   4  -9  308.97  226.79   1
   0  -4   8 8818.88  667.16   1
   0   4  -8 7339.89  371.07   1
   0  -4   8 8303.06  737.95   1
   0  -4   8 8174.01  654.97   1
   0   4  -8 9270.89  812.47   1
   0  -4   8 8856.91  884.30   1
   0  -4   715971.10 1085.51   1
   0   4  -715796.10  983.06   1
   0  -4   711337.90  816.83   1
   0  -4   714896.40  849.18   1
   0  -4   714448.70  786.25   1
   0   4  -714767.70  589.64   1
   0  -4   6 1578.50  284.82   1
   0   4  -6 2009.69  337.23   1
   0  -4   6 1983.82  257.49   1
   0  -4   6 2191.11  382.24   1
   0  -4   6 2131.57  337.03   1
   0   4  -6 2083.73  243.78   1
   0   4  -6 2539.16  398.78   1
   0  -4   5  680.97  203.70   1
   0   4  -5  -18.47   66.76   1
   0   4  -5  445.62  124.22   1
   0  -4   5  401.81  117.74   1
   0  -4   5  540.27  201.37   1
   0  -4   5  500.45  145.83   1
   0   4  -5  736.60  218.79   1
   0   4  -442757.00 1386.90   1
   0   4  -436717.20  512.70   1
   0  -4   443304.30 1463.09   1
   0  -4   440818.70  839.25   1
   0   4  -444667.80 1497.41   1
   0   4  -441560.60 1096.33   1
   0   4  -441050.10 1241.29   1
   0  -4   440358.10 1214.04   1
   0  -4   442892.10 1421.51   1
   0   4  -3 1691.98  272.36   1
   0   4  -3  970.46  185.94   1
   0   4  -3 1153.43  134.27   1
   0  -4   3 1099.15  193.93   1
   0  -4   3 1399.33  249.84   1
   0   4  -3 1523.77  269.75   1
   0   4  -3 1244.57  121.38   1
   0   4  -3 1005.69  207.15   1
   0  -4   3 1259.98  120.45   1
   0  -4   221208.20  923.69  -2
   0   4  -221208.20  923.69   1
   0   4  -221012.30  822.24  -2
   0  -4   221012.30  822.24   1
   0  -4   221781.60  881.45  -2
   0   4  -221781.60  881.45   1
   0  -4   222593.50  844.51  -2
   0   4  -222593.50  844.51   1
   0  -4   222315.80  474.17  -2
   0   4  -222315.80  474.17   1
   0   4  -221670.50  932.03  -2
   0  -4   221670.50  932.03   1
   0  -4   138390.70 1089.81  -2
   0   4  -138390.70 1089.81   1
   0  -4   146338.90 1223.20  -2
   0   4  -146338.90 1223.20   1
   0  -4   133932.70 1153.74  -2
   0   4  -133932.70 1153.74   1
   0   4  -131641.90 1115.64  -2
   0  -4   131641.90 1115.64   1
   0   4  -140625.70 1160.55  -2
   0  -4   140625.70 1160.55   1
   0  -4   094731.20 1819.71  -2
   0   4   094731.20 1819.71   1
   0  -4   088746.80 1847.24  -2
   0   4   088746.80 1847.24   1
   0   4   094306.20 1888.33  -2
   0  -4   094306.20 1888.33   1
   0  -4   095045.10 1527.21  -2
   0   4   095045.10 1527.21   1
   0  -4  -1  173378    1815  -2
   0   4   1  173378    1815   1
   0  -4  -1  175096    2648  -2
   0   4   1  175096    2648   1
   0  -4  -1  175682    2535  -2
   0   4   1  175682    2535   1
   0   4   1  179663    2601  -2
   0  -4  -1  179663    2601   1
   0  -4  -218540.60  492.24  -2
   0   4   218540.60  492.24   1
   0   4   219581.40  876.45  -2
   0  -4  -219581.40  876.45   1
   0  -4  -220007.60  960.85  -2
   0   4   220007.60  960.85   1
   0  -4  -220214.10  939.32  -2
   0   4   220214.10  939.32   1
   0   4   219778.60  855.19  -2
   0  -4  -219778.60  855.19   1
   0   4   3 2640.88  356.25   1
   0  -4  -3 1881.02  147.93   1
   0   4   3 1990.88  328.72   1
   0  -4  -3 2001.69  287.71   1
   0   4   419747.60 1072.68   1
   0  -4  -419631.30  943.47   1
   0   4   420681.50 1047.00   1
   0   4   5 3346.92  456.58   1
   0   4   5 2970.74  452.48   1
   0  -4  -5 3026.05  391.72   1
   0  -4  -620189.80 1081.24   1
   0  -4  -620576.70  719.21   1
   0   4   619933.80 1219.40   1
   0  -4  -7  131.63  164.88   1
   0  -4  -7  283.75  120.05   1
   0   4   7  228.32  189.06   1
   0  -4  -8 2238.99  204.45   1
   0  -4  -8 2429.99  430.98   1
   0   4   8 2731.67  521.47   1
   0  -4  -9  921.34  324.74   1
   0   4   9  920.48  331.17   1
   0  -4 -10 1814.81  404.48   1
   0   4  10 2236.77  520.10   1
   0   5 -11 1214.52  372.85   1
   0  -5  11 2084.44  563.86   1
   0  -5  10  -28.18  146.38   1
   0  -5  10 -446.38  295.57   1
   0   5 -10  -34.66  144.60   1
   0  -5   9 1747.46  367.03   1
   0  -5   9 1801.67  476.10   1
   0   5  -9 1792.55  407.99   1
   0  -5   8  550.97  231.99   1
   0  -5   8  530.80  161.44   1
   0   5  -8  281.24  110.47   1
   0   5  -8  409.34  234.45   1
   0  -5   8  489.03  166.48   1
   0  -5   7  767.65  239.47   1
   0   5  -7  244.40  105.37   1
   0  -5   7  290.41  196.01   1
   0   5  -7  415.36  216.95   1
   0  -5   7  629.46  169.91   1
   0  -5   7  265.21  129.99   1
   0   5  -6  508.84  229.10   1
   0   5  -6  347.28  125.67   1
   0  -5   6  496.92  222.65   1
   0  -5   6  833.87  227.29   1
   0   5  -6  612.08  221.41   1
   0   5  -6  312.25  139.02   1
   0  -5   6  417.84  107.89   1
   0  -5   6   70.20   95.75   1
   0  -5   5 1010.54  141.33   1
   0   5  -5 1129.13  210.29   1
   0   5  -5 1454.86  309.37   1
   0  -5   5 1059.47  284.07   1
   0  -5   5 1313.85  264.98   1
   0   5  -5 1486.56  339.40   1
   0   5  -412482.70  405.89   1
   0   5  -413969.20  741.08   1
   0   5  -412369.00  827.56   1
   0  -5   413038.00  844.22   1
   0   5  -412599.70  819.25   1
   0   5  -414282.10  931.58   1
   0  -5   414319.40  914.52   1
   0  -5   412834.40  743.29   1
   0  -5   412278.70  392.90   1
   0   5  -320001.30  437.53   1
   0   5  -323159.10 1112.46   1
   0  -5   321359.50 1065.60   1
   0   5  -321883.70 1020.93   1
   0  -5   320903.30  920.54   1
   0   5  -321703.60  693.50   1
   0  -5   2 1324.51  269.15  -2
   0   5  -2 1324.51  269.15   1
   0  -5   2 1308.28  248.45  -2
   0   5  -2 1308.28  248.45   1
   0  -5   2 1129.06  115.47  -2
   0   5  -2 1129.06  115.47   1
   0   5  -2 1097.69  216.87  -2
   0  -5   2 1097.69  216.87   1
   0   5  -2 1089.32  238.06  -2
   0  -5   2 1089.32  238.06   1
   0  -5   1  562.13  178.27  -2
   0   5  -1  562.13  178.27   1
   0  -5   1  604.79  179.91  -2
   0   5  -1  604.79  179.91   1
   0   5  -1  597.12  172.44  -2
   0  -5   1  597.12  172.44   1
   0  -5   1  790.29  117.82  -2
   0   5  -1  790.29  117.82   1
   0   5   043033.70 1441.97  -2
   0  -5   043033.70 1441.97   1
   0  -5   043367.80 1162.44  -2
   0   5   043367.80 1162.44   1
   0  -5   044050.70 1472.18  -2
   0   5   044050.70 1472.18   1
   0   5   1 1594.13  284.53  -2
   0  -5  -1 1594.13  284.53   1
   0  -5  -1 1599.97  210.83  -2
   0   5   1 1599.97  210.83   1
   0  -5  -1 1218.47  254.70  -2
   0   5   1 1218.47  254.70   1
   0  -5  -2  265.87  164.37  -2
   0   5   2  265.87  164.37   1
   0  -5  -2  308.20  186.03  -2
   0   5   2  308.20  186.03   1
   0  -5  -2  475.79  110.35  -2
   0   5   2  475.79  110.35   1
   0   5   2  313.12  143.18  -2
   0  -5  -2  313.12  143.18   1
   0  -5  -2  230.82  129.51  -2
   0   5   2  230.82  129.51   1
   0   5   322857.40 1186.81   1
   0   5   322256.70  477.09   1
   0  -5  -323988.90 1061.65   1
   0  -5  -323615.30 1102.69   1
   0  -5  -322686.70  643.26   1
   0   5   325032.70 1217.69   1
   0   5   413762.70  971.34   1
   0   5   415756.90  989.41   1
   0  -5  -415255.60  889.02   1
   0   5   586830.60 2560.56   1
   0  -5  -589863.70 2264.49   1
   0   5   639979.70 1859.90   1
   0  -5  -641419.70 1631.35   1
   0  -5  -640714.10 1170.57   1
   0  -5  -7 1698.72  383.86   1
   0   5   7 1060.90  332.30   1
   0  -5  -7 1862.82  274.73   1
   0  -5  -8 4173.36  605.04   1
   0   5   8 3749.32  633.03   1
   0   5   9  288.37  222.15   1
   0  -5  -9  251.51  180.75   1
   0   5  10  937.47  381.45   1
   0  -5 -10 1028.93  351.91   1
   0  -6  10 1124.18  404.83   1
   0   6 -10 1227.31  377.28   1
   0  -6  10 1253.76  304.30   1
   0   6  -9  368.03  223.64   1
   0  -6   9  277.17  213.61   1
   0  -6   9  168.24  171.97   1
   0  -6   8 2718.54  444.00   1
   0  -6   8 2358.47  499.39   1
   0   6  -8 2468.60  326.68   1
   0   6  -8 2108.16  431.65   1
   0   6  -7   17.02  101.71   1
   0   6  -7  -14.36  144.93   1
   0  -6   7  -99.09  139.38   1
   0   6  -7  140.50  160.78   1
   0  -6   7   77.30  136.20   1
   0  -6   7   39.74  160.61   1
   0  -6   6 1373.55  340.32   1
   0  -6   6  718.80  115.41   1
   0  -6   6 1092.30  277.32   1
   0   6  -6 1087.60  235.80   1
   0   6  -6 1315.09  294.65   1
   0  -6   6  834.60  219.31   1
   0   6  -5 1264.22  265.56   1
   0   6  -5 1681.36  344.00   1
   0   6  -5 1047.70  240.97   1
   0  -6   5 1282.17  315.99   1
   0  -6   5  827.77  220.80   1
   0   6  -5 1087.90  101.22   1
   0  -6   415711.40 1031.03   1
   0  -6   415653.90  877.03   1
   0   6  -414536.60  545.94   1
   0   6  -415601.00 1008.49   1
   0   6  -416243.00  990.78   1
   0   6  -414312.80  860.24   1
   0   6  -323502.40 1138.17   1
   0  -6   321371.20 1020.32   1
   0  -6   323133.40 1204.62   1
   0   6  -323522.50  850.39   1
   0  -6   2   41.45  103.36  -2
   0   6  -2   41.45  103.36   1
   0  -6   2   91.93   74.23  -2
   0   6  -2   91.93   74.23   1
   0  -6   2  233.88   69.72  -2
   0   6  -2  233.88   69.72   1
   0  -6   2  157.85  140.87  -2
   0   6  -2  157.85  140.87   1
   0   6  -2  256.01  180.80  -2
   0  -6   2  256.01  180.80   1
   0  -6   1 6046.63  529.44  -2
   0   6  -1 6046.63  529.44   1
   0  -6   1 4511.50  492.84  -2
   0   6  -1 4511.50  492.84   1
   0  -6   1 4959.80  559.21  -2
   0   6  -1 4959.80  559.21   1
   0  -6   1 6837.34  380.00  -2
   0   6  -1 6837.34  380.00   1
   0   6  -1 5249.95  568.60  -2
   0  -6   1 5249.95  568.60   1
   0  -6   033879.10 1440.89  -2
   0   6   033879.10 1440.89   1
   0  -6   038747.50 1449.63  -2
   0   6   038747.50 1449.63   1
   0   6   034872.30 1419.15  -2
   0  -6   034872.30 1419.15   1
   0  -6   035443.60 1168.76  -2
   0   6   035443.60 1168.76   1
   0  -6  -117458.40 1006.77  -2
   0   6   117458.40 1006.77   1
   0  -6  -117437.50  746.37  -2
   0   6   117437.50  746.37   1
   0   6   115710.50  958.91  -2
   0  -6  -115710.50  958.91   1
   0  -6  -117910.30 1053.83  -2
   0   6   117910.30 1053.83   1
   0   6   2 8974.91  728.00  -2
   0  -6  -2 8974.91  728.00   1
   0  -6  -2 8372.21  744.36  -2
   0   6   2 8372.21  744.36   1
   0  -6  -2 8793.96  738.29  -2
   0   6   2 8793.96  738.29   1
   0  -6  -2 8558.24  462.28  -2
   0   6   2 8558.24  462.28   1
   0  -6  -3 2300.42  245.40   1
   0   6   3 2155.99  412.21   1
   0  -6  -3 2154.89  382.78   1
   0  -6  -3 2397.75  382.28   1
   0   6   3 1931.28  396.30   1
   0   6   3 2015.77  181.77   1
   0  -6  -4 6954.02  296.02   1
   0   6   4 7254.19  766.54   1
   0  -6  -4 7403.71  672.87   1
   0   6   5  277.77  189.94   1
   0  -6  -5  242.66  200.00   1
   0  -6  -6 1189.26  308.53   1
   0   6   6 1105.66  339.80   1
   0   6   7 -211.01  234.37   1
   0  -6  -7  184.14  217.54   1
   0   6   8 5903.37  854.83   1
   0  -6  -8 5788.42  747.00   1
   0   6   9 2566.85  626.45   1
   0  -6  -9 3706.35  662.92   1
   0  -7   9  -47.80  165.51   1
   0  -7   9  125.93  206.78   1
   0   7  -9 -244.89  243.72   1
   0  -7   8 1115.94  344.67   1
   0  -7   8 1332.18  406.81   1
   0   7  -8 1272.29  400.48   1
   0  -7   7  632.59  297.61   1
   0   7  -7  599.51  209.65   1
   0   7  -7 1046.88  322.36   1
   0  -7   7 1027.23  313.23   1
   0   7  -7  982.80  221.25   1
   0   7  -6 2187.06  389.43   1
   0   7  -6 1829.24  388.34   1
   0  -7   6 2869.42  487.26   1
   0  -7   6 1999.77  431.05   1
   0   7  -6 2247.17  397.38   1
   0   7  -5 9367.74  755.68   1
   0  -7   5 9229.68  896.29   1
   0   7  -5 7190.48  317.22   1
   0  -7   5 7711.61  671.15   1
   0   7  -5 8983.42  836.12   1
   0   7  -5 8610.36  733.71   1
   0   7  -4 2752.73  420.90   1
   0   7  -4 2374.40  263.56   1
   0  -7   4 2457.23  440.24   1
   0  -7   4 2224.30  368.60   1
   0   7  -4 2465.43  408.33   1
   0   7  -4 2226.44  410.47   1
   0   7  -3 1607.22  270.10   1
   0   7  -3 1952.77  348.17   1
   0  -7   3 1568.31  327.53   1
   0  -7   3 1692.47  363.89   1
   0   7  -3 1648.69  328.65   1
   0  -7   2 3129.04  443.69  -2
   0   7  -2 3129.04  443.69   1
   0  -7   2 2672.09  188.61  -2
   0   7  -2 2672.09  188.61   1
   0   7  -2 2794.78  474.23  -2
   0  -7   2 2794.78  474.23   1
   0  -7   2 3350.29  440.01  -2
   0   7  -2 3350.29  440.01   1
   0  -7   1  570.39  223.46  -2
   0   7  -1  570.39  223.46   1
   0  -7   1  906.33  151.07  -2
   0   7  -1  906.33  151.07   1
   0  -7   1  698.84  225.98  -2
   0   7  -1  698.84  225.98   1
   0   7  -1  432.68  220.02  -2
   0  -7   1  432.68  220.02   1
   0  -7   0 4589.48  472.77  -2
   0   7   0 4589.48  472.77   1
   0  -7   0 5495.76  436.68  -2
   0   7   0 5495.76  436.68   1
   0   7   0 6489.40  685.06  -2
   0  -7   0 6489.40  685.06   1
   0  -7   0 6460.83  664.03  -2
   0   7   0 6460.83  664.03   1
   0   7   1 5312.40  626.79  -2
   0  -7  -1 5312.40  626.79   1
   0  -7  -1 5360.70  451.49  -2
   0   7   1 5360.70  451.49   1
   0  -7  -1 5206.50  605.88  -2
   0   7   1 5206.50  605.88   1
   0  -7  -2 2665.15  462.92  -2
   0   7   2 2665.15  462.92   1
   0  -7  -2 3024.14  473.47  -2
   0   7   2 3024.14  473.47   1
   0   7   2 2553.00  437.17  -2
   0  -7  -2 2553.00  437.17   1
   0  -7  -2 2939.30  308.46  -2
   0   7   2 2939.30  308.46   1
   0  -7  -310821.20  591.14   1
   0  -7  -310646.70  884.25   1
   0  -7  -310785.20  845.01   1
   0   7   311430.90  483.77   1
   0   7   311083.40  955.71   1
   0   7   310943.30  811.56   1
   0   7   310224.70  931.50   1
   0   7   4 4474.32  641.13   1
   0  -7  -4 3477.14  254.03   1
   0  -7  -4 4486.40  571.60   1
   0   7   4 3518.07  572.17   1
   0   7   5 9269.68  966.89   1
   0  -7  -5 6972.76  735.80   1
   0  -7  -6 3980.44  597.27   1
   0   7   6 3631.47  636.92   1
   0  -7  -7    4.86  191.67   1
   0   7   7  541.97  342.81   1
   0  -7  -8  333.79  242.54   1
   0   7   8  -18.65  187.56   1
   0  -8   8  105.81  171.54   1
   0  -8   8  302.95  242.38   1
   0   8  -7  762.89  278.64   1
   0  -8   7 1214.74  381.46   1
   0   8  -7 1223.36  337.82   1
   0   8  -7 1054.41  352.74   1
   0  -8   7  785.79  337.03   1
   0   8  -6  359.10  176.88   1
   0   8  -6  404.75  172.08   1
   0  -8   6  572.68  285.38   1
   0  -8   6  241.58  212.00   1
   0   8  -6  826.83  298.74   1
   0  -8   5 1785.92  452.82   1
   0   8  -5 2228.80  449.29   1
   0   8  -5 1939.28  391.21   1
   0   8  -5 1920.11  377.45   1
   0  -8   4 3679.20  578.31   1
   0   8  -4 2711.84  443.17   1
   0   8  -4 2927.52  322.76   1
   0   8  -4 3864.58  569.76   1
   0   8  -4 3316.17  521.01   1
   0   8  -312947.90  806.31   1
   0   8  -311841.40  918.51   1
   0   8  -312966.90  987.60   1
   0  -8   311915.90 1025.39   1
   0   8  -2 5417.11  691.74  -2
   0  -8   2 5417.11  691.74   1
   0  -8   2 4099.57  553.33  -2
   0   8  -2 4099.57  553.33   1
   0  -8   2 4932.06  579.73  -2
   0   8  -2 4932.06  579.73   1
   0  -8   1 2675.34  396.80  -2
   0   8  -1 2675.34  396.80   1
   0  -8   1 2794.50  466.51  -2
   0   8  -1 2794.50  466.51   1
   0  -8   1 2933.51  267.65  -2
   0   8  -1 2933.51  267.65   1
   0   8  -1 2915.68  509.95  -2
   0  -8   1 2915.68  509.95   1
   0   8   0 7879.58  801.57  -2
   0  -8   0 7879.58  801.57   1
   0  -8   0 8116.77  662.17  -2
   0   8   0 8116.77  662.17   1
   0  -8   0 8229.93  531.38  -2
   0   8   0 8229.93  531.38   1
   0  -8   0 8054.06  802.64  -2
   0   8   0 8054.06  802.64   1
   0  -8   0 8636.53  559.46  -2
   0   8   0 8636.53  559.46   1
   0   8   1 3049.88  510.60  -2
   0  -8  -1 3049.88  510.60   1
   0  -8  -1 3832.99  420.05  -2
   0   8   1 3832.99  420.05   1
   0  -8  -1 3609.12  552.04  -2
   0   8   1 3609.12  552.04   1
   0  -8  -1 3748.85  414.33  -2
   0   8   1 3748.85  414.33   1
   0   8   2  287.41  194.80  -2
   0  -8  -2  287.41  194.80   1
   0  -8  -2  438.64  266.78  -2
   0   8   2  438.64  266.78   1
   0  -8  -2   49.49  140.70  -2
   0   8   2   49.49  140.70   1
   0   8   2  322.76  167.71  -2
   0  -8  -2  322.76  167.71   1
   0  -8  -2  218.67  113.40  -2
   0   8   2  218.67  113.40   1
   0  -8  -2   -4.16  145.80  -2
   0   8   2   -4.16  145.80   1
   0  -8  -3 2252.28  455.85   1
   0  -8  -3 2420.54  311.28   1
   0   8   3 2205.91  478.62   1
   0   8   3 2116.21  470.72   1
   0  -8  -3 2007.65  410.78   1
   0   8   4  941.69  366.89   1
   0  -8  -4 1149.43  331.05   1
   0   8   4  172.04  151.56   1
   0  -8  -5  435.40  223.26   1
   0   8   5  211.60  147.21   1
   0   8   5  653.38  307.05   1
   0  -8  -6  253.48  250.61   1
   0   8   6  267.67  277.68   1
   0   8   6  194.88  142.36   1
   0   8   7 3294.79  704.90   1
   0   8   7 3724.22  730.87   1
   0  -8  -7 3951.80  669.45   1
   0   9  -6   95.65  185.89   1
   0   9  -6  648.50  270.57   1
   0   9  -6  304.50  195.53   1
   0  -9   6 1287.83  425.81   1
   0  -9   6 1010.45  370.19   1
   0   9  -5  127.47  191.49   1
   0   9  -5  429.00  230.80   1
   0  -9   5  440.76  252.15   1
   0  -9   5  435.25  255.33   1
   0   9  -5   65.22  162.66   1
   0   9  -4  898.84  318.34   1
   0   9  -4  818.18  268.30   1
   0   9  -4  650.31  261.21   1
   0  -9   4  942.12  329.39   1
   0  -9   3 5437.84  761.20   1
   0   9  -3 5851.39  584.83   1
   0   9  -3 6190.95  714.82   1
   0   9  -3 6330.52  739.21   1
   0   9  -2 6179.45  799.62  -2
   0  -9   2 6179.45  799.62   1
   0  -9   2 7242.38  801.56  -2
   0   9  -2 7242.38  801.56   1
   0  -9   2 6264.07  683.72  -2
   0   9  -2 6264.07  683.72   1
   0  -9   1 1468.55  312.86  -2
   0   9  -1 1468.55  312.86   1
   0   9  -1 1711.87  413.58  -2
   0  -9   1 1711.87  413.58   1
   0  -9   1 1253.57  358.29  -2
   0   9  -1 1253.57  358.29   1
   0  -9   0 2481.38  466.85  -2
   0   9   0 2481.38  466.85   1
   0   9   0 2551.38  505.17  -2
   0  -9   0 2551.38  505.17   1
   0  -9   0 2550.13  401.88  -2
   0   9   0 2550.13  401.88   1
   0   9   1 2094.58  451.51  -2
   0  -9  -1 2094.58  451.51   1
   0  -9  -1 2134.54  348.05  -2
   0   9   1 2134.54  348.05   1
   0  -9  -1 1391.20  271.47  -2
   0   9   1 1391.20  271.47   1
   0  -9  -1 1965.56  449.51  -2
   0   9   1 1965.56  449.51   1
   0  -9  -2 9851.26 1044.01  -2
   0   9   2 9851.26 1044.01   1
   0   9   2 8895.25  922.58  -2
   0  -9  -2 8895.25  922.58   1
   0  -9  -2 9427.66  979.36  -2
   0   9   2 9427.66  979.36   1
   0   9   2 9593.91  919.67  -2
   0  -9  -2 9593.91  919.67   1
   0   9   3 2807.26  559.52   1
   0  -9  -3 2794.26  531.57   1
   0   9   3 2700.37  564.50   1
   0  -9  -3 1909.40  440.74   1
   0   9   4   97.53  254.40   1
   0  -9  -4  -28.75  134.51   1
   0   9   4  555.27  340.49   1
   0   9   5 5372.08  830.36   1
   0   9   5 6248.62  903.59   1
   0  -9  -5 5836.06  790.36   1
   0  10  -3  257.64  223.48   1
   0  10  -3   90.50  201.45   1
   0  10  -3   18.66  162.99   1
   0 -10   2   88.58  162.68  -2
   0  10  -2   88.58  162.68   1
   0  10  -2 -104.18  171.97  -2
   0 -10   2 -104.18  171.97   1
   0  10  -1  344.70  256.08  -2
   0 -10   1  344.70  256.08   1
   0 -10   1  866.82  342.03  -2
   0  10  -1  866.82  342.03   1
   0 -10   1  597.33  324.75  -2
   0  10  -1  597.33  324.75   1
   0  10   0 1032.32  344.11  -2
   0 -10   0 1032.32  344.11   1
   0 -10   0 1609.94  398.14  -2
   0  10   0 1609.94  398.14   1
   0 -10  -1 3879.73  720.77  -2
   0  10   1 3879.73  720.77   1
   0 -10  -1 2632.46  546.80  -2
   0  10   1 2632.46  546.80   1
   0  10   1 3572.57  623.91  -2
   0 -10  -1 3572.57  623.91   1
   0 -10  -2  544.16  274.21  -2
   0  10   2  544.16  274.21   1
   0 -10  -2  495.96  282.23  -2
   0  10   2  495.96  282.23   1
   0  10   2  617.95  303.17  -2
   0 -10  -2  617.95  303.17   1
   0  10   2  764.82  326.45  -2
   0 -10  -2  764.82  326.45   1
  -1   8   4  393.61  249.33  -2
   1  -9  -4  393.61  249.33   1
   1  -8  -4  786.59  390.17  -2
  -1   9   4  786.59  390.17   1
   1  -8  -4  784.38  336.65  -2
  -1   9   4  784.38  336.65   1
  -1   8   3  823.48  312.91  -2
   1  -9  -3  823.48  312.91   1
   1  -8  -3 1558.87  470.33  -2
  -1   9   3 1558.87  470.33   1
   1  -8  -3 1252.80  443.41  -2
  -1   9   3 1252.80  443.41   1
   1  -8  -2 1845.90  394.91  -2
  -1   9   2 1845.90  394.91   1
   1  -8  -2 1839.98  488.36  -2
  -1   9   2 1839.98  488.36   1
   1  -8  -2 2081.25  547.43  -2
  -1   9   2 2081.25  547.43   1
  -1   8   2 1484.97  388.38  -2
   1  -9  -2 1484.97  388.38   1
  -1   8   2 1697.13  432.46  -2
   1  -9  -2 1697.13  432.46   1
  -1   8   1  374.35  244.22  -2
   1  -9  -1  374.35  244.22   1
  -1   8   1  631.42  260.44  -2
   1  -9  -1  631.42  260.44   1
   1  -8  -1  709.70  310.95  -2
  -1   9   1  709.70  310.95   1
  -1   9   0   20.15  104.68   1
   1  -9   0  290.86  222.22   1
  -1   9   0  244.87  233.46   1
  -1   9  -1  239.57  187.04   1
   1  -9   1  220.48  199.46   1
  -1   9  -1  185.99  146.87   1
   1  -9   2  588.41  279.68   1
  -1   9  -2  519.90  301.80   1
   1  -9   2  825.20  337.11   1
  -1   9  -2  307.40  193.94   1
   1  -9   3  148.07  179.41   1
  -1   9  -3  -21.45  202.16   1
  -1   9  -3  182.05  163.34   1
   1  -9   3    8.23  138.36   1
  -1   9  -4  840.81  372.70   1
   1  -9   4  840.98  338.91   1
   1  -9   4  722.55  386.15   1
  -1   9  -4  863.18  302.43   1
  -1   9  -5  179.58  183.04   1
  -1   9  -5  369.47  264.89   1
   1  -9   5 -143.01  182.37   1
  -1   9  -5  221.08  247.67   1
   1  -9   5   69.09  192.40   1
  -1   8   6 -119.92  156.13   1
  -1   8   6   72.80  181.57   1
   1  -8  -6 -133.90  221.51   1
  -1   8   5 -137.99  240.40   1
   1  -8  -5  243.89  208.24   1
  -1   8   5   -1.76  195.22   1
   1  -7  -4 2025.86  493.44  -2
  -1   8   4 2025.86  493.44   1
   1  -7  -4 1640.75  444.58  -2
  -1   8   4 1640.75  444.58   1
  -1   7   4 2119.59  464.65  -2
   1  -8  -4 2119.59  464.65   1
  -1   7   3 1025.65  293.66  -2
   1  -8  -3 1025.65  293.66   1
   1  -7  -3  645.94  265.32  -2
  -1   8   3  645.94  265.32   1
   1  -7  -3  828.82  347.94  -2
  -1   8   3  828.82  347.94   1
   1  -7  -2  954.53  212.73  -2
  -1   8   2  954.53  212.73   1
  -1   7   2  712.26  289.32  -2
   1  -8  -2  712.26  289.32   1
   1  -7  -2 1610.92  423.74  -2
  -1   8   2 1610.92  423.74   1
   1  -7  -2  879.70  338.15  -2
  -1   8   2  879.70  338.15   1
  -1   7   2  942.03  267.66  -2
   1  -8  -2  942.03  267.66   1
  -1   7   2 1224.60  284.14  -2
   1  -8  -2 1224.60  284.14   1
   1  -7  -1 1023.41  337.67  -2
  -1   8   1 1023.41  337.67   1
  -1   7   1 1392.39  361.98  -2
   1  -8  -1 1392.39  361.98   1
   1  -7  -1 1324.85  304.39  -2
  -1   8   1 1324.85  304.39   1
   1  -7  -1 1133.29  251.61  -2
  -1   8   1 1133.29  251.61   1
  -1   8   015149.00 1166.79   1
  -1   8   017028.60  985.65   1
   1  -8   013877.10 1083.60   1
  -1   8  -114340.60  749.12   1
  -1   8  -115110.70 1162.24   1
   1  -8   113554.50 1061.17   1
  -1   8  -114873.20  970.54   1
  -1   8  -2 2001.47  416.35   1
  -1   8  -2 1515.45  220.31   1
  -1   8  -2 1987.85  381.43   1
   1  -8   2 2030.73  410.74   1
   1  -8   3  630.84  283.82   1
   1  -8   3  347.53  196.06   1
  -1   8  -3  730.39  272.33   1
  -1   8  -3  551.61  254.59   1
  -1   8  -4 1275.83  361.05   1
  -1   8  -4 1249.74  340.89   1
   1  -8   4 1140.87  348.18   1
   1  -8   4 1201.81  321.17   1
   1  -8   5  892.82  332.90   1
  -1   8  -5  523.68  249.15   1
   1  -8   5  428.20  229.16   1
  -1   8  -5  -23.42  141.40   1
   1  -8   6 1823.08  439.04   1
  -1   8  -6 1453.62  333.10   1
  -1   8  -6 1514.22  421.04   1
   1  -8   6 1783.20  445.48   1
  -1   8  -6 1677.27  435.36   1
   1  -8   7 1821.66  456.77   1
  -1   8  -7 1887.73  395.05   1
  -1   8  -7 1600.47  406.99   1
  -1   8  -7 1821.78  483.09   1
   1  -8   7 1596.24  403.21   1
  -1   7   7  239.82  340.52   1
  -1   7   7  419.97  295.28   1
   1  -7  -6  301.10  216.68   1
  -1   7   6   37.04  152.26   1
  -1   7   6  401.45  230.09   1
  -1   7   5 1989.56  477.33   1
  -1   7   5  986.20  342.92   1
   1  -7  -5 1206.98  335.88   1
   1  -6  -4 1853.77  426.58  -2
  -1   7   4 1853.77  426.58   1
  -1   6   4 1706.75  230.05  -2
   1  -7  -4 1706.75  230.05   1
   1  -6  -4 1661.72  427.30  -2
  -1   7   4 1661.72  427.30   1
  -1   6   3  -20.77  102.65  -2
   1  -7  -3  -20.77  102.65   1
   1  -6  -3  -60.06  138.25  -2
  -1   7   3  -60.06  138.25   1
   1  -6  -3 -131.03   84.43  -2
  -1   7   3 -131.03   84.43   1
  -1   6   3   80.38   81.28  -2
   1  -7  -3   80.38   81.28   1
  -1   6   2 6837.23  585.19  -2
   1  -7  -2 6837.23  585.19   1
   1  -6  -2 6785.82  488.01  -2
  -1   7   2 6785.82  488.01   1
   1  -6  -2 7365.82  800.36  -2
  -1   7   2 7365.82  800.36   1
  -1   6   2 6172.10  677.21  -2
   1  -7  -2 6172.10  677.21   1
  -1   6   2 6653.57  678.23  -2
   1  -7  -2 6653.57  678.23   1
   1  -6  -1 2957.59  509.15  -2
  -1   7   1 2957.59  509.15   1
   1  -6  -1 3158.05  414.27  -2
  -1   7   1 3158.05  414.27   1
  -1   6   1 2537.13  436.61  -2
   1  -7  -1 2537.13  436.61   1
   1  -6  -1 2523.46  344.65  -2
  -1   7   1 2523.46  344.65   1
  -1   7   0 5226.11  648.73   1
   1  -7   0 5115.00  599.22   1
  -1   7   0 4894.62  496.60   1
  -1   7  -1  229.42  114.76   1
   1  -7   1  285.87  181.92   1
  -1   7  -1  -58.81  135.09   1
  -1   7  -2 4152.48  547.50   1
  -1   7  -2 4242.37  535.64   1
  -1   7  -2 3972.42  349.75   1
   1  -7   2 4372.38  576.07   1
  -1   7  -3 2633.03  266.02   1
  -1   7  -3 2726.28  448.76   1
   1  -7   3 2687.25  457.26   1
  -1   7  -3 2738.82  440.96   1
  -1   7  -431978.60 1526.94   1
  -1   7  -428909.70 1456.66   1
  -1   7  -426119.50  736.64   1
   1  -7   432541.80 1593.05   1
  -1   7  -428866.90  921.12   1
   1  -7   430419.50 1547.85   1
  -1   7  -5 8301.01  789.50   1
  -1   7  -5 7488.96  364.05   1
   1  -7   5 9807.15  914.27   1
  -1   7  -5 9801.30  875.41   1
   1  -7   5 9794.21  897.40   1
  -1   7  -6  -45.11  121.27   1
   1  -7   6 -149.46  174.33   1
  -1   7  -6   60.40  151.06   1
   1  -7   6   20.62  143.75   1
  -1   7  -6 -166.46  229.98   1
  -1   7  -7  451.53  234.66   1
  -1   7  -7  399.83  241.03   1
  -1   7  -7  219.07  160.71   1
   1  -7   7  112.02  221.08   1
   1  -7   7   72.19  141.23   1
  -1   7  -8   62.59  171.73   1
   1  -7   8  228.29  225.73   1
  -1   7  -8  140.78  164.05   1
   1  -7   8 -156.41  222.46   1
  -1   7  -9  147.73  202.86  -2
   1  -7   9  147.73  202.86   1
  -1   7  -9 -131.28  201.59  -2
   1  -7   9 -131.28  201.59   1
   1  -6  -9   -6.14  175.26   1
  -1   6   8  152.73  145.50   1
   1  -6  -8  532.62  280.28   1
   1  -6  -7 7296.05  804.11   1
  -1   6   7 6659.85  902.65   1
  -1   6   6 -108.55  151.48   1
   1  -6  -6  -14.76  150.88   1
  -1   6   5 1159.44  364.77   1
   1  -6  -5 1119.08  315.40   1
  -1   6   5 1168.80  344.43   1
   1  -5  -4  715.51  307.86  -2
  -1   6   4  715.51  307.86   1
  -1   5   4  282.54  188.42  -2
   1  -6  -4  282.54  188.42   1
   1  -5  -4   74.90  111.85  -2
  -1   6   4   74.90  111.85   1
  -1   5   4  710.38  153.44  -2
   1  -6  -4  710.38  153.44   1
   1  -5  -3 4998.90  623.85  -2
  -1   6   3 4998.90  623.85   1
  -1   5   3 4801.85  540.54  -2
   1  -6  -3 4801.85  540.54   1
   1  -5  -3 3989.27  282.38  -2
  -1   6   3 3989.27  282.38   1
  -1   5   3 4338.23  382.55  -2
   1  -6  -3 4338.23  382.55   1
   1  -5  -3 4304.76  594.60  -2
  -1   6   3 4304.76  594.60   1
   1  -5  -2  511.76  132.10  -2
  -1   6   2  511.76  132.10   1
   1  -5  -2  585.31  231.30  -2
  -1   6   2  585.31  231.30   1
  -1   5   2  482.05  185.77  -2
   1  -6  -2  482.05  185.77   1
  -1   5   2  680.73  187.03  -2
   1  -6  -2  680.73  187.03   1
  -1   5   2  385.14  190.44  -2
   1  -6  -2  385.14  190.44   1
   1  -5  -1 7548.48  721.41  -2
  -1   6   1 7548.48  721.41   1
  -1   5   1 6577.60  633.31  -2
   1  -6  -1 6577.60  633.31   1
   1  -5  -1 7461.95  522.62  -2
  -1   6   1 7461.95  522.62   1
   1  -5  -1 7984.98  720.31  -2
  -1   6   1 7984.98  720.31   1
  -1   6   0 2520.59  414.48   1
   1  -6   0 2122.81  346.79   1
  -1   6   0 2868.02  434.57   1
  -1   6   0 2382.17  316.41   1
  -1   6   0 2585.07  331.69   1
  -1   6  -1 3072.13  326.02   1
   1  -6   1 3216.67  448.16   1
  -1   6  -1 2943.47  381.33   1
  -1   6  -1 3447.36  465.80   1
  -1   6  -1 3548.70  481.92   1
  -1   6  -2 6007.21  412.68   1
  -1   6  -2 6473.22  585.85   1
  -1   6  -2 6503.93  641.60   1
   1  -6   2 4456.66  534.05   1
   1  -6   2 6440.33  628.17   1
  -1   6  -2 6598.80  658.97   1
  -1   6  -320845.70 1139.44   1
  -1   6  -320538.60  718.85   1
   1  -6   316486.20  990.29   1
   1  -6   319988.60 1123.29   1
  -1   6  -320828.70 1107.68   1
  -1   6  -4   68.90   75.83   1
  -1   6  -4    1.89   72.89   1
   1  -6   4   82.84  117.17   1
  -1   6  -4   56.01  134.06   1
  -1   6  -4  137.53  137.83   1
   1  -6   4   42.46  132.80   1
   1  -6   4  141.01  137.20   1
  -1   6  -5  166.75  126.10   1
   1  -6   5  253.81  158.03   1
  -1   6  -5  198.88  111.59   1
   1  -6   5  307.14  194.53   1
  -1   6  -6 1109.21  321.89   1
   1  -6   6  993.24  288.02   1
  -1   6  -6  689.07  260.57   1
  -1   6  -6 1021.35  255.38   1
   1  -6   6  912.53  172.92   1
   1  -6   6 1344.04  352.05   1
   1  -6   7   -6.17  135.31   1
  -1   6  -7  427.28  259.36   1
   1  -6   7  543.34  279.22   1
  -1   6  -7  119.48  142.36   1
  -1   6  -7  116.45  132.49   1
  -1   6  -8  994.20  307.55   1
   1  -6   8 1019.57  290.69   1
  -1   6  -8  990.82  215.42   1
   1  -6   8  963.53  355.49   1
  -1   6  -8  518.33  213.10   1
  -1   6  -9 1908.43  379.35  -2
   1  -6   9 1908.43  379.35   1
   1  -6   9 2299.80  494.93  -2
  -1   6  -9 2299.80  494.93   1
  -1   6  -9 2738.92  575.72  -2
   1  -6   9 2738.92  575.72   1
   1  -6  10 -283.29  297.86  -2
  -1   6 -10 -283.29  297.86   1
  -1   6 -10  526.92  269.91  -2
   1  -6  10  526.92  269.91   1
  -1   6 -10  190.82  180.97  -2
   1  -6  10  190.82  180.97   1
  -1   5   9  341.27  259.58   1
   1  -5  -9  440.34  265.53   1
  -1   5   8  337.81  244.75   1
   1  -5  -8  438.02  321.08   1
  -1   5   7 -157.50  235.25   1
   1  -5  -7   92.48  135.18   1
   1  -5  -6 1520.42  326.02   1
  -1   5   6 1446.75  387.50   1
  -1   5   5  171.11  199.04   1
   1  -5  -5  234.98  191.93   1
  -1   4   4  693.95  141.32  -2
   1  -5  -4  693.95  141.32   1
   1  -4  -4  672.24  254.63  -2
  -1   5   4  672.24  254.63   1
  -1   4   4  912.92  231.13  -2
   1  -5  -4  912.92  231.13   1
   1  -4  -3  265.70  175.89  -2
  -1   5   3  265.70  175.89   1
  -1   4   3  184.66  116.21  -2
   1  -5  -3  184.66  116.21   1
   1  -4  -3  202.38  138.08  -2
  -1   5   3  202.38  138.08   1
   1  -4  -3  179.93  155.42  -2
  -1   5   3  179.93  155.42   1
   1  -4  -3  167.50   70.05  -2
  -1   5   3  167.50   70.05   1
  -1   4   3  337.99  113.03  -2
   1  -5  -3  337.99  113.03   1
  -1   4   210355.30  602.20  -2
   1  -5  -210355.30  602.20   1
   1  -4  -210597.40  808.54  -2
  -1   5   210597.40  808.54   1
   1  -4  -211290.90  801.97  -2
  -1   5   211290.90  801.97   1
  -1   4   210316.20  691.66  -2
   1  -5  -210316.20  691.66   1
  -1   4   210911.10  751.99  -2
   1  -5  -210911.10  751.99   1
   1  -4  -210263.80  489.45  -2
  -1   5   210263.80  489.45   1
   1  -4  -1 7749.01  646.55  -2
  -1   5   1 7749.01  646.55   1
   1  -4  -1 7497.27  474.22  -2
  -1   5   1 7497.27  474.22   1
   1  -4  -1 7851.51  680.39  -2
  -1   5   1 7851.51  680.39   1
  -1   4   1 7413.68  606.95  -2
   1  -5  -1 7413.68  606.95   1
  -1   5   0   74.37   70.65   1
   1  -5   0   -4.35   96.30   1
  -1   5   0  259.39  152.13   1
  -1   5   0   37.45   83.32   1
  -1   5  -1  125.32  102.57   1
  -1   5  -1  142.23  119.80   1
   1  -5   1  238.00  134.32   1
  -1   5  -1   67.24   55.64   1
   1  -5   1   80.90   94.25   1
  -1   5  -2 8396.21  667.30   1
  -1   5  -2 8685.96  462.60   1
   1  -5   2 8062.60  638.26   1
   1  -5   2 8226.73  636.67   1
  -1   5  -2 6089.18  566.86   1
   1  -5   3 1988.41  336.16   1
  -1   5  -3 2019.19  341.74   1
   1  -5   3 2033.09  335.49   1
  -1   5  -3 1911.95  320.58   1
  -1   5  -3 2051.25  340.02   1
  -1   5  -3 1893.53  231.60   1
   1  -5   4 6363.15  588.89   1
  -1   5  -4 5692.32  558.42   1
  -1   5  -4 6302.01  591.53   1
  -1   5  -4 6277.23  622.54   1
  -1   5  -4 5765.30  618.15   1
   1  -5   4 6199.74  612.78   1
  -1   5  -4 5828.73  279.26   1
  -1   5  -4 5935.78  397.11   1
   1  -5   4 5532.36  365.07   1
   1  -5   4 6010.42  588.67   1
   1  -5   4 5673.44  569.29   1
   1  -5   5 5306.62  383.13   1
  -1   5  -5 5800.55  601.58   1
  -1   5  -5 5773.85  413.13   1
   1  -5   5 6190.41  629.96   1
  -1   5  -5 6097.17  598.18   1
   1  -5   5 4425.11  512.56   1
   1  -5   5 5558.50  578.36   1
  -1   5  -6 6847.49  481.88   1
   1  -5   6 7423.15  742.88   1
   1  -5   6 7503.57  677.15   1
  -1   5  -6 7165.77  518.08   1
  -1   5  -6 7084.71  699.07   1
   1  -5   6 6983.45  487.19   1
   1  -5   6 7268.77  675.71   1
  -1   5  -6 7465.07  686.62   1
  -1   5  -7 1861.70  385.58   1
   1  -5   7 2132.54  421.54   1
   1  -5   7 1867.06  272.10   1
  -1   5  -7 1820.76  249.04   1
   1  -5   7 1912.63  358.60   1
  -1   5  -7 1819.48  347.90   1
  -1   5  -8  776.21  147.50   1
  -1   5  -8 1011.71  282.49   1
   1  -5   8  636.43  264.26   1
   1  -5   8 1017.36  298.20   1
  -1   5  -9 1164.82  357.53  -2
   1  -5   9 1164.82  357.53   1
  -1   5  -9  851.82  305.70  -2
   1  -5   9  851.82  305.70   1
  -1   5 -10  637.36  287.95  -2
   1  -5  10  637.36  287.95   1
   1  -5  10  635.72  273.20  -2
  -1   5 -10  635.72  273.20   1
  -1   5 -10  594.23  273.83  -2
   1  -5  10  594.23  273.83   1
   1  -5  11 1454.51  414.60  -2
  -1   5 -11 1454.51  414.60   1
  -1   5 -11 1686.64  521.57  -2
   1  -5  11 1686.64  521.57   1
   1  -4 -10  372.69  308.34   1
  -1   4  10  682.06  316.13   1
  -1   4   9  138.41  218.55   1
   1  -4  -9   74.76  133.23   1
   1  -4  -8  482.26  235.69   1
  -1   4   8  587.19  257.08   1
   1  -4  -738650.60  879.74   1
   1  -4  -740986.10 1676.50   1
  -1   4   740064.00 1945.64   1
   1  -4  -737068.90  902.45   1
   1  -4  -617418.30 1029.40   1
  -1   4   617206.00 1203.05   1
   1  -4  -5  166.33  217.50   1
  -1   4   5  175.57  249.41   1
   1  -3  -432969.00 1478.75  -2
  -1   4   432969.00 1478.75   1
  -1   3   429785.70  750.71  -2
   1  -4  -429785.70  750.71   1
  -1   3   432350.50 1245.36  -2
   1  -4  -432350.50 1245.36   1
   1  -3  -432488.80 1354.09  -2
  -1   4   432488.80 1354.09   1
   1  -3  -3 2395.77  383.43  -2
  -1   4   3 2395.77  383.43   1
  -1   3   3 2202.81  222.88  -2
   1  -4  -3 2202.81  222.88   1
   1  -3  -3 2548.25  360.93  -2
  -1   4   3 2548.25  360.93   1
  -1   3   3 2791.07  347.10  -2
   1  -4  -3 2791.07  347.10   1
   1  -3  -2 5720.27  519.62  -2
  -1   4   2 5720.27  519.62   1
  -1   3   2 5755.23  472.51  -2
   1  -4  -2 5755.23  472.51   1
  -1   3   2 6289.03  427.49  -2
   1  -4  -2 6289.03  427.49   1
  -1   3   2 5620.88  482.45  -2
   1  -4  -2 5620.88  482.45   1
   1  -3  -172987.40 1738.68  -2
  -1   4   172987.40 1738.68   1
  -1   3   173419.50 1689.26  -2
   1  -4  -173419.50 1689.26   1
  -1   4   032299.00 1136.80   1
   1  -4   032651.70 1103.63   1
  -1   4   032935.80  992.18   1
   1  -4   160930.70 1629.39   1
  -1   4  -165219.00 1261.07   1
  -1   4  -166561.00 1625.61   1
   1  -4   165523.50 1575.95   1
   1  -4   2 8896.66  607.51   1
  -1   4  -2 8469.73  586.99   1
   1  -4   2 8883.99  597.56   1
  -1   4  -2 8163.46  423.71   1
   1  -4   333608.50  858.77   1
  -1   4  -334510.10  889.52   1
   1  -4   334824.10 1232.41   1
   1  -4   335243.70 1249.96   1
  -1   4  -335386.20 1256.23   1
   1  -4   4 2479.74  338.20   1
  -1   4  -4 2807.53  424.49   1
   1  -4   4 2617.33  360.80   1
  -1   4  -4 2795.04  379.61   1
  -1   4  -4 2651.89  273.58   1
   1  -4   4 2882.41  373.84   1
   1  -4   4 2601.61  352.34   1
   1  -4   4 2468.72  253.21   1
  -1   4  -5 3864.84  450.45   1
  -1   4  -5 3478.54  447.21   1
  -1   4  -5 3934.58  505.96   1
   1  -4   5 3710.61  329.23   1
   1  -4   5 3793.12  463.76   1
   1  -4   5 3637.01  445.07   1
  -1   4  -5 3586.39  340.80   1
   1  -4   5 4089.24  450.18   1
   1  -4   5 3844.10  452.94   1
  -1   4  -6 4279.51  400.11   1
  -1   4  -6 3815.92  326.20   1
  -1   4  -6 4070.62  484.75   1
  -1   4  -6 4682.64  532.43   1
   1  -4   6 3132.74  435.60   1
  -1   4  -6 4570.52  553.26   1
   1  -4   6 4982.50  569.26   1
   1  -4   6 4847.77  504.81   1
   1  -4   6 3847.26  378.86   1
   1  -4   7  602.22  213.54   1
  -1   4  -7 1154.13  284.57   1
   1  -4   7  958.16  275.69   1
   1  -4   7  958.68  275.16   1
   1  -4   7  660.22  193.22   1
  -1   4  -7  693.81  218.34   1
  -1   4  -7  745.78  149.75   1
   1  -4   8 1422.79  331.73   1
   1  -4   8 1409.41  311.92   1
  -1   4  -8 1195.05  315.10   1
   1  -4   8 1306.24  342.25   1
  -1   4  -8  735.18  114.11   1
  -1   4  -9 1495.83  333.26  -2
   1  -4   9 1495.83  333.26   1
   1  -4   9 1291.70  303.11  -2
  -1   4  -9 1291.70  303.11   1
  -1   4  -9 1415.75  410.59  -2
   1  -4   9 1415.75  410.59   1
  -1   4 -10 1159.39  299.11  -2
   1  -4  10 1159.39  299.11   1
  -1   4 -10  802.55  341.65  -2
   1  -4  10  802.55  341.65   1
   1  -4  10  550.80  214.49  -2
  -1   4 -10  550.80  214.49   1
  -1   4 -11 -276.09  302.13  -2
   1  -4  11 -276.09  302.13   1
   1  -4  11  162.60  240.06  -2
  -1   4 -11  162.60  240.06   1
   1  -3 -11   -0.52  187.63   1
  -1   3  11  -79.09  244.54   1
   1  -3 -10 1145.40  355.88   1
  -1   3  10 1183.56  417.91   1
  -1   3   9   68.01  235.51   1
   1  -3  -9  398.95  209.97   1
  -1   3   8 5135.11  688.18   1
  -1   3   8 4110.89  314.04   1
   1  -3  -8 5377.32  634.71   1
  -1   3   712720.30 1027.10   1
   1  -3  -7 9840.30  295.97   1
  -1   3   710262.50  467.96   1
   1  -3  -7 9423.38  279.61   1
   1  -3  -711147.20  847.55   1
  -1   3   6  881.29  136.11   1
  -1   3   6 1010.76  280.67   1
   1  -3  -6 1050.48  128.48   1
   1  -3  -6 1171.50  264.02   1
  -1   3   510802.70  736.83   1
  -1   3   510981.10  768.79   1
  -1   3   510022.70  804.71   1
   1  -3  -510558.20  708.57   1
   1  -2  -420293.40 1082.54  -2
  -1   3   420293.40 1082.54   1
  -1   2   420448.40  919.33  -2
   1  -3  -420448.40  919.33   1
   1  -2  -419413.30  919.80  -2
  -1   3   419413.30  919.80   1
   1  -2  -419976.80  965.58  -2
  -1   3   419976.80  965.58   1
  -1   2   3  103288    1387  -2
   1  -3  -3  103288    1387   1
   1  -2  -3  106608    2081  -2
  -1   3   3  106608    2081   1
   1  -2  -3  106054    2299  -2
  -1   3   3  106054    2299   1
  -1   2   3  107144    1950  -2
   1  -3  -3  107144    1950   1
  -1   2   261268.10 1132.56  -2
   1  -3  -261268.10 1132.56   1
   1  -2  -264692.60 1495.92  -2
  -1   3   264692.60 1495.92   1
  -1   2   264264.40 1396.00  -2
   1  -3  -264264.40 1396.00   1
   1  -2  -129096.90  968.70  -2
  -1   3   129096.90  968.70   1
   1  -2  -126476.00  991.74  -2
  -1   3   126476.00  991.74   1
  -1   2   126747.20  887.94  -2
   1  -3  -126747.20  887.94   1
   1  -3   075039.80 1594.99   1
   1  -3   074572.00 1475.02   1
  -1   3   075679.70 1626.83   1
   1  -3   1    3.86   68.82   1
   1  -3   1  -22.55   68.36   1
  -1   3  -1   49.80   73.22   1
  -1   3  -1  -35.03   81.52   1
  -1   3  -1   42.44   68.58   1
  -1   3  -268352.90 1530.76   1
   1  -3   266086.30 1523.00   1
  -1   3  -271723.20 1494.48   1
   1  -3   271239.70 1483.40   1
  -1   3  -269541.70 1163.21   1
   1  -3   267146.50 1133.16   1
   1  -3   363290.10 1500.17   1
   1  -3   362934.10 1151.07   1
  -1   3  -365543.90 1198.79   1
  -1   3  -363896.40 1522.54   1
  -1   3  -366169.10 1670.78   1
  -1   3  -369362.00 1581.31   1
   1  -3   366036.20 1523.54   1
   1  -3   362689.10 1486.02   1
   1  -3   366572.90 1543.50   1
   1  -3   423003.30  939.98   1
   1  -3   423226.40  990.92   1
   1  -3   421249.90  751.72   1
   1  -3   421417.40  946.56   1
  -1   3  -422500.90  771.99   1
  -1   3  -523521.80 1138.37   1
  -1   3  -526378.90  926.93   1
   1  -3   526987.80 1141.89   1
   1  -3   528350.70 1052.76   1
   1  -3   525808.40  922.19   1
   1  -3   527290.40 1166.87   1
   1  -3   645388.60 1626.00   1
  -1   3  -642946.30  832.54   1
  -1   3  -645131.10 1685.43   1
   1  -3   643506.40 1338.19   1
  -1   3  -645773.20 1541.82   1
  -1   3  -644761.60 1548.09   1
   1  -3   644448.20 1570.14   1
   1  -3   645871.30 1409.48   1
   1  -3   648198.70 1594.70   1
  -1   3  -644695.20 1308.97   1
  -1   3  -7    9.19   43.39   1
   1  -3   7  176.54  138.91   1
   1  -3   7 -115.85  129.97   1
   1  -3   7   15.08   99.50   1
  -1   3  -7  -93.33  145.74   1
   1  -3   7   16.91  101.97   1
   1  -3   8   35.79  137.18   1
   1  -3   8  -59.56  128.55   1
   1  -3   8   -5.81  122.82   1
   1  -3   8 -167.70  162.16   1
  -1   3  -8  -31.98  130.34   1
   1  -3   912381.90 1032.84  -2
  -1   3  -912381.90 1032.84   1
  -1   3  -911236.20 1009.30  -2
   1  -3   911236.20 1009.30   1
  -1   3  -912269.80  796.98  -2
   1  -3   912269.80  796.98   1
   1  -3   912050.50  933.67  -2
  -1   3  -912050.50  933.67   1
  -1   3  -911365.00 1043.41  -2
   1  -3   911365.00 1043.41   1
  -1   3 -10   14.30  138.24  -2
   1  -3  10   14.30  138.24   1
   1  -3  10   86.86  178.73  -2
  -1   3 -10   86.86  178.73   1
   1  -3  10  127.14  170.59  -2
  -1   3 -10  127.14  170.59   1
  -1   3 -10   55.52  120.05  -2
   1  -3  10   55.52  120.05   1
  -1   3 -10   34.19  162.07  -2
   1  -3  10   34.19  162.07   1
   1  -3  11  713.22  344.21  -2
  -1   3 -11  713.22  344.21   1
  -1   3 -11  445.79  305.84  -2
   1  -3  11  445.79  305.84   1
  -1   3 -11  -56.01  229.73  -2
   1  -3  11  -56.01  229.73   1
   1  -3  12   69.61  188.31  -2
  -1   3 -12   69.61  188.31   1
  -1   3 -12   -9.66  182.56  -2
   1  -3  12   -9.66  182.56   1
   1  -2 -11  305.73  266.61   1
  -1   2  11   50.75  235.20   1
   1  -2 -10  -13.73  141.78   1
  -1   2  10   64.04  186.45   1
   1  -2  -9  -23.89  140.30   1
  -1   2   9  184.36   87.23   1
   1  -2  -9  132.88   74.47   1
   1  -2  -8 1966.54  212.04   1
   1  -2  -8 1566.66  337.16   1
  -1   2   8 1537.70  245.54   1
  -1   2   8 1148.03  340.27   1
  -1   2   7 5323.56  408.27   1
   1  -2  -7 5247.80  569.59   1
  -1   2   7 4957.38  610.41   1
  -1   2   6  974.74  167.35   1
  -1   2   6 1123.47  277.29   1
  -1   2   6 1200.79  260.62   1
   1  -2  -6 1153.89  306.76   1
   1  -2  -6  681.59  211.68   1
   1  -2  -5   82.03  168.02   1
   1  -2  -5  -90.44  110.76   1
   1  -2  -5   11.36   30.42   1
  -1   2   5  -23.62  138.21   1
  -1   2   5  147.91   77.81   1
  -1   2   5  189.41  136.07   1
   1  -1  -4 8645.70  271.02  -2
  -1   2   4 8645.70  271.02   1
  -1   1   4 8926.62  568.47  -2
   1  -2  -4 8926.62  568.47   1
   1  -1  -4 8348.43  400.07  -2
  -1   2   4 8348.43  400.07   1
   1  -1  -4 9215.34  583.46  -2
  -1   2   4 9215.34  583.46   1
   1  -1  -4 8632.53  643.74  -2
  -1   2   4 8632.53  643.74   1
   1  -1  -314995.50  793.67  -2
  -1   2   314995.50  793.67   1
   1  -1  -315107.30  694.30  -2
  -1   2   315107.30  694.30   1
   1  -1  -314300.30  489.85  -2
  -1   2   314300.30  489.85   1
   1  -1  -314339.20  652.88  -2
  -1   2   314339.20  652.88   1
  -1   1   314615.00  653.77  -2
   1  -2  -314615.00  653.77   1
  -1   1   315659.20  516.70  -2
   1  -2  -315659.20  516.70   1
   1  -1  -313819.50  316.44  -2
  -1   2   313819.50  316.44   1
   1  -1  -225877.00  959.97  -2
  -1   2   225877.00  959.97   1
   1  -1  -2 8421.21  488.44  -2
  -1   2   2 8421.21  488.44   1
  -1   1   167768.50 1174.42  -2
   1  -2  -167768.50 1174.42   1
   1  -1  -170604.90 1236.44  -2
  -1   2   170604.90 1236.44   1
  -1   1   168137.30 1153.02  -2
   1  -2  -168137.30 1153.02   1
  -1   1   168967.10 1136.48  -2
   1  -2  -168967.10 1136.48   1
  -1   2   0  309265    2847   1
  -1   2   0  316315    2480   1
   1  -2   0  310829    2804   1
   1  -2   0  316114    2440   1
  -1   2  -1  999999    4955   1
  -1   2  -1  987782    4430   1
   1  -2   1  983834    4970   1
   1  -2   1  980217    4058   1
   1  -2   1  994040    4350   1
  -1   2  -1  972667    4049   1
  -1   2  -2  155376    1918   1
   1  -2   2  143725    1952   1
   1  -2   2  146720    1925   1
  -1   2  -2  148577    1634   1
   1  -2   2  147913    1590   1
   1  -2   2  150607    1867   1
  -1   2  -2  143638    1988   1
  -1   2  -3 5100.66  331.35   1
  -1   2  -3 5165.43  430.17   1
  -1   2  -3 4635.54  385.83   1
   1  -2   3 4957.93  376.37   1
   1  -2   3 5135.09  399.30   1
   1  -2   3 5180.42  339.49   1
   1  -2   3 5201.92  383.32   1
   1  -2   3 5110.99  410.48   1
  -1   2  -453809.80 1506.14   1
   1  -2   454345.10 1263.04   1
   1  -2   451214.40 1198.91   1
   1  -2   455347.40 1363.24   1
   1  -2   457649.60 1442.26   1
   1  -2   454734.50 1441.16   1
  -1   2  -456381.90 1436.02   1
  -1   2  -452373.90 1191.92   1
  -1   2  -5  454.65  136.16   1
   1  -2   5  483.44  155.09   1
   1  -2   5  495.21  152.31   1
  -1   2  -5  616.95   88.49   1
  -1   2  -5  765.27  197.79   1
   1  -2   5  782.17  206.39   1
   1  -2   5  519.33  176.51   1
   1  -2   5  552.31  171.81   1
   1  -2   6  464.77  183.98   1
  -1   2  -6  493.94  204.66   1
   1  -2   6  291.36  140.36   1
   1  -2   6  386.43  166.09   1
   1  -2   6  329.29  146.86   1
  -1   2  -6  141.79   87.17   1
   1  -2   6  469.67  152.12   1
   1  -2   6  176.07  125.98   1
  -1   2  -7  137.60  122.42   1
   1  -2   7   91.27  128.67   1
   1  -2   7  249.22  173.63   1
   1  -2   7  123.89  178.66   1
   1  -2   7   97.25  109.76   1
   1  -2   7  236.05  162.33   1
  -1   2  -7  104.21  114.97   1
  -1   2  -7  163.68  119.73   1
   1  -2   8   62.57  198.74   1
  -1   2  -8  123.82  143.18   1
  -1   2  -8  -70.57  139.18   1
   1  -2   8   78.23  113.10   1
   1  -2   8  147.36  118.75   1
  -1   2  -919616.30  884.51  -2
   1  -2   919616.30  884.51   1
   1  -2   917615.60 1069.31  -2
  -1   2  -917615.60 1069.31   1
   1  -2   919310.20 1249.67  -2
  -1   2  -919310.20 1249.67   1
  -1   2  -918255.10 1322.74  -2
   1  -2   918255.10 1322.74   1
   1  -2  10 6781.87  784.17  -2
  -1   2 -10 6781.87  784.17   1
   1  -2  10 5996.16  656.56  -2
  -1   2 -10 5996.16  656.56   1
  -1   2 -10 6801.07  514.00  -2
   1  -2  10 6801.07  514.00   1
  -1   2 -10 6962.96  868.35  -2
   1  -2  10 6962.96  868.35   1
  -1   2 -11  394.66  240.07  -2
   1  -2  11  394.66  240.07   1
   1  -2  11  -43.13  192.18  -2
  -1   2 -11  -43.13  192.18   1
   1  -2  11  430.57  254.88  -2
  -1   2 -11  430.57  254.88   1
  -1   2 -11  533.48  322.08  -2
   1  -2  11  533.48  322.08   1
  -1   2 -12  229.41  223.49  -2
   1  -2  12  229.41  223.49   1
  -1   2 -12  345.68  228.07  -2
   1  -2  12  345.68  228.07   1
   1  -2  12  464.79  239.78  -2
  -1   2 -12  464.79  239.78   1
  -1   1  12  538.30  338.01   1
   1  -1 -11  512.36  298.49   1
  -1   1  11 -374.41  291.26   1
   1  -1 -10   28.95  182.20   1
  -1   1  10    9.87  164.67   1
   1  -1 -10   22.08   85.53   1
   1  -1  -9 2187.95  285.79   1
  -1   1   9 2101.00  460.17   1
   1  -1  -9 2297.52  445.01   1
  -1   1   9 2155.20  268.97   1
   1  -1  -8  388.71  123.90   1
   1  -1  -8  331.74  179.55   1
  -1   1   8   58.95  126.01   1
   1  -1  -711423.90  548.72   1
  -1   1   710711.90  637.93   1
  -1   1   710822.10  867.87   1
   1  -1  -711253.10  792.13   1
   1  -1  -6 1968.69  364.38   1
  -1   1   6 1606.14  316.78   1
   1  -1  -6 1665.38  303.18   1
  -1   1   6 1906.24  310.97   1
  -1   1   6 2136.75  269.16   1
   1  -1  -6 2242.66  228.18   1
  -1   1   5  252.61  125.25   1
   1  -1  -5  -13.80   60.49   1
  -1   1   5  179.65  156.96   1
  -1   1   5  206.73  107.60   1
   1  -1  -5  174.36   78.79   1
   1  -1  -5  303.81  168.29   1
  -1   0   435412.00 1238.12  -2
   1  -1  -435412.00 1238.12   1
   1   0  -435069.60 1196.68  -2
  -1   1   435069.60 1196.68   1
  -1   0   437687.20  726.99  -2
   1  -1  -437687.20  726.99   1
   1   0  -436645.30 1093.48  -2
  -1   1   436645.30 1093.48   1
  -1   0   438049.10 1113.69  -2
   1  -1  -438049.10 1113.69   1
   1   0  -437067.20  730.98  -2
  -1   1   437067.20  730.98   1
   1   0  -437146.40  911.80  -2
  -1   1   437146.40  911.80   1
  -1   0   310181.00  516.15  -2
   1  -1  -310181.00  516.15   1
  -1   0   3 9312.24  318.28  -2
   1  -1  -3 9312.24  318.28   1
  -1   0   314791.20  709.11  -2
   1  -1  -314791.20  709.11   1
   1   0  -310100.20  512.33  -2
  -1   1   310100.20  512.33   1
  -1   0   310326.60  258.16  -2
   1  -1  -310326.60  258.16   1
   1   0  -313148.40  670.51  -2
  -1   1   313148.40  670.51   1
   1   0  -1  397020    2262  -2
  -1   1   1  397020    2262   1
  -1   0   1  393893    2307  -2
   1  -1  -1  393893    2307   1
  -1   0   1  399343    2238  -2
   1  -1  -1  399343    2238   1
   1   0  -1  403385    2302  -2
  -1   1   1  403385    2302   1
  -1   0   1  386133    2086  -2
   1  -1  -1  386133    2086   1
   1  -1   066745.40  953.80   1
   1  -1   068736.50 1073.80   1
   1  -1   070823.00  821.08   1
  -1   1   069605.90 1032.20   1
  -1   1   070502.80  842.66   1
  -1   1  -1  175158    1682   1
   1  -1   1  172407    1734   1
  -1   1  -1  178731    1528   1
   1  -1   1  175501    1408   1
  -1   1  -1  172890    1418   1
   1  -1   1  172217    1521   1
   1  -1   2  244770    2060   1
  -1   1  -2  238730    2074   1
   1  -1   2  240534    2309   1
  -1   1  -2  238189    2280   1
   1  -1   2  236478    2037   1
  -1   1  -2  237494    1990   1
   1  -1   2  236118    1939   1
   1  -1   2  243702    2028   1
  -1   1  -3 5176.47  325.96   1
  -1   1  -3 5194.96  354.26   1
  -1   1  -3 5242.04  382.30   1
   1  -1   3 5421.96  412.07   1
   1  -1   3 5358.15  330.65   1
  -1   1  -3 5259.60  342.50   1
   1  -1   3 5135.91  343.25   1
   1  -1   3 4985.27  376.65   1
  -1   1  -3 5553.10  418.25   1
   1  -1   3 5579.79  355.45   1
  -1   1  -419549.10  821.95   1
   1  -1   420121.10  747.92   1
  -1   1  -419772.90  752.55   1
  -1   1  -419475.20  771.23   1
   1  -1   420418.30  880.29   1
   1  -1   418504.70  807.72   1
  -1   1  -419130.60  855.27   1
   1  -1   419604.10  664.09   1
   1  -1   418874.00  744.76   1
   1  -1   5 6784.77  565.95   1
   1  -1   5 6651.77  417.70   1
  -1   1  -5 6878.41  518.38   1
  -1   1  -5 6360.12  482.45   1
   1  -1   5 6854.69  511.00   1
   1  -1   5 6751.13  542.53   1
   1  -1   6 5895.02  587.17   1
   1  -1   6 5549.68  506.42   1
  -1   1  -6 5274.03  548.89   1
   1  -1   6 6116.06  407.22   1
  -1   1  -6 5492.11  512.10   1
   1  -1   6 5394.83  524.53   1
   1  -1   7 3132.98  430.52   1
   1  -1   7 2835.43  449.23   1
  -1   1  -7 3579.86  485.39   1
   1  -1   7 3262.23  435.90   1
   1  -1   7 2948.53  291.70   1
  -1   1  -7 2899.02  362.16   1
   1  -1   7 3189.86  400.52   1
  -1   1  -7 3083.13  417.34   1
  -1   1  -814809.00  862.57   1
   1  -1   813476.70  944.89   1
  -1   1  -814761.40  978.34   1
   1  -1   814654.10 1081.24   1
   1  -1   814807.00  656.84   1
  -1   1  -9   26.68   87.54  -2
   1  -1   9   26.68   87.54   1
   1  -1   9   -6.25  131.78  -2
  -1   1  -9   -6.25  131.78   1
  -1   1  -9  -85.68  186.35  -2
   1  -1   9  -85.68  186.35   1
   1  -1   9   50.46  147.48  -2
  -1   1  -9   50.46  147.48   1
  -1   1 -10  172.21   95.39  -2
   1  -1  10  172.21   95.39   1
   1  -1  10  -31.37  150.28  -2
  -1   1 -10  -31.37  150.28   1
   1  -1  10 -123.15  153.08  -2
  -1   1 -10 -123.15  153.08   1
  -1   1 -11 1162.58  384.15  -2
   1  -1  11 1162.58  384.15   1
   1  -1  11  883.13  363.02  -2
  -1   1 -11  883.13  363.02   1
   1  -1  12  141.37  212.97  -2
  -1   1 -12  141.37  212.97   1
   1  -1  12 -175.67  248.26  -2
  -1   1 -12 -175.67  248.26   1
  -1   1 -12   85.09  320.33  -2
   1  -1  12   85.09  320.33   1
  -1   0  12  -17.85  184.83   1
   1   0 -11  476.93  269.15   1
   1   0 -11  383.96  151.39   1
  -1   0  11  297.85  171.08   1
   1   0 -10 1806.39  306.07   1
   1   0 -10 1522.12  374.52   1
  -1   0  10 2409.98  533.59   1
   1   0  -9  654.74  176.20   1
  -1   0   9  835.02  164.42   1
  -1   0   9  680.21  292.28   1
   1   0  -9 1009.30  310.32   1
  -1   0   8  355.49  197.02   1
   1   0  -8  260.62  167.78   1
  -1   0   8  387.11  125.74   1
   1   0  -8  241.87   90.41   1
  -1   0   714079.80  975.80   1
   1   0  -713238.80  947.65   1
  -1   0   712561.60  560.92   1
   1   0  -713996.00  687.30   1
   1   0  -713739.50  890.34   1
  -1   0   714318.10  948.64   1
   1   0  -628657.90 1164.43   1
  -1   0   627906.40  796.12   1
   1   0  -629697.80  916.68   1
  -1   0   628536.60 1258.95   1
  -1   0   632188.40 1219.67   1
   1   0  -628016.80 1257.24   1
  -1   0   5  955.86  143.61   1
   1   0  -5 1164.63  231.50   1
   1   0  -5 1154.16  176.69   1
  -1   0   5 1155.45  238.84   1
  -1  -1   4 4159.17  390.00  -2
   1   0  -4 4159.17  390.00   1
   1   1  -4 3301.48  336.12  -2
  -1   0   4 3301.48  336.12   1
  -1  -1   4 4808.54  320.25  -2
   1   0  -4 4808.54  320.25   1
   1   1  -329761.20  915.79  -2
  -1   0   329761.20  915.79   1
  -1  -1   322734.30  595.54  -2
   1   0  -322734.30  595.54   1
  -1  -1   331493.70  951.14  -2
   1   0  -331493.70  951.14   1
   1   1  -323249.30  615.58  -2
  -1   0   323249.30  615.58   1
  -1  -1   326431.10  795.60  -2
   1   0  -326431.10  795.60   1
   1   1  -325715.20  780.61  -2
  -1   0   325715.20  780.61   1
   1   1  -1  284914    1258  -2
  -1   0   1  284914    1258   1
   1   1  -1  286283    1860  -2
  -1   0   1  286283    1860   1
  -1  -1   1  290353    1928  -2
   1   0  -1  290353    1928   1
   1   1  -1  288482    1612  -2
  -1   0   1  288482    1612   1
   1   1  -1  291106    1954  -2
  -1   0   1  291106    1954   1
   1   1  -1  286259    1574  -2
  -1   0   1  286259    1574   1
  -1  -1   1  288380    1619  -2
   1   0  -1  288380    1619   1
  -1  -1   1  289415    1602  -2
   1   0  -1  289415    1602   1
  -1  -1   1  288366    1242  -2
   1   0  -1  288366    1242   1
  -1   0   0  136652    1111   1
   1   0   0   -2.09   25.28   1
  -1   0   0   11.69   18.63   1
   1   0   0   -4.19   18.31   1
   1   0   0    8.25   17.34   1
   1   0   0  -21.38   24.98   1
   1   0   0  131571    1013   1
  -1   0  -143849.20  746.31   1
  -1   0  -141858.00  574.23   1
   1   0   1 9095.27  333.92   1
   1   0   141697.70  568.05   1
   1   0   139075.90  456.66   1
  -1   0  -139936.80  513.54   1
  -1   0  -139524.00  483.50   1
  -1   0  -278095.50 1006.34   1
   1   0   280234.80  852.84   1
   1   0   279290.30 1242.73   1
   1   0   279354.30 1227.27   1
  -1   0  -276895.60  993.27   1
   1   0   277385.40 1149.08   1
   1   0   276955.80  971.23   1
  -1   0  -277677.60 1140.59   1
   1   0   277116.80  977.19   1
   1   0   340026.40 1063.92   1
   1   0   338969.60  750.24   1
   1   0   338241.00 1009.11   1
  -1   0  -339883.70  888.84   1
   1   0   339022.40  973.52   1
  -1   0  -340153.60  779.92   1
  -1   0  -340158.90  979.60   1
   1   0   339634.30  868.93   1
   1   0   452077.40  930.16   1
  -1   0  -453057.50  964.65   1
  -1   0  -451966.50 1196.43   1
   1   0   451869.90 1350.67   1
   1   0   453221.70 1299.89   1
   1   0   452070.10 1181.49   1
  -1   0  -452377.80 1261.41   1
   1   0   454758.80 1417.35   1
   1   0   563011.40 1455.58   1
   1   0   562963.70 1663.49   1
  -1   0  -563219.10 1529.91   1
  -1   0  -563336.30 1128.93   1
   1   0   560315.30 1068.25   1
  -1   0  -564382.20 1515.60   1
   1   0   564002.20 1600.04   1
   1   0   564224.60 1736.75   1
  -1   0  -613023.00  534.99   1
   1   0   613867.60  821.25   1
   1   0   6 -234.88  107.81   1
  -1   0  -6  -51.08   78.60   1
   1   0   613929.60  897.14   1
   1   0   612567.30  511.69   1
  -1   0  -612527.90  741.44   1
   1   0   612790.50  824.84   1
  -1   0  -7  408.25  159.46   1
  -1   0  -7  398.68  176.53   1
   1   0   7  237.29  145.33   1
   1   0   7  374.86  108.46   1
   1   0   7  340.26  162.84   1
   1   0   7  226.34  129.25   1
   1   0   7  236.26  121.92   1
  -1   0  -7  246.20  164.96   1
  -1   0  -8  251.84  161.95   1
   1   0   8  244.18  210.99   1
   1   0   8  245.18  117.11   1
  -1   0  -8  279.00  134.70   1
  -1   0  -910220.10  495.83  -2
   1   0   910220.10  495.83   1
  -1   0  -9 9631.27  974.09  -2
   1   0   9 9631.27  974.09   1
   1   0   910389.90  707.48  -2
  -1   0  -910389.90  707.48   1
   1   0   911310.90  933.56  -2
  -1   0  -911310.90  933.56   1
   1   0  10 -140.82  192.34  -2
  -1   0 -10 -140.82  192.34   1
  -1   0 -10   49.31   72.56  -2
   1   0  10   49.31   72.56   1
  -1   0 -10  155.99  154.88  -2
   1   0  10  155.99  154.88   1
   1   0  10  330.53  138.35  -2
  -1   0 -10  330.53  138.35   1
  -1   0 -11 1962.78  519.17  -2
   1   0  11 1962.78  519.17   1
   1   0  11 1928.82  464.61  -2
  -1   0 -11 1928.82  464.61   1
   1   0  11 2227.88  367.27  -2
  -1   0 -11 2227.88  367.27   1
   1   0  12  209.76  225.20  -2
  -1   0 -12  209.76  225.20   1
  -1   0 -12  183.42  360.62  -2
   1   0  12  183.42  360.62   1
   1   0  12  269.21  195.47  -2
  -1   0 -12  269.21  195.47   1
  -1  -1  12  323.87  267.63   1
  -1  -1  11  723.71  344.47   1
   1   1 -11  828.43  233.70   1
   1   1 -11  498.08  315.45   1
   1   1 -10  -45.49  106.35   1
  -1  -1  10 -334.00  215.63   1
   1   1  -9 6304.87  727.30   1
  -1  -1   9 5786.87  732.29   1
   1   1  -9 6896.70  597.33   1
  -1  -1   9 5155.62  322.33   1
  -1  -1   8 4671.80  327.01   1
   1   1  -8 5049.83  478.37   1
  -1  -1   8 3909.19  566.81   1
   1   1  -8 4102.82  533.35   1
  -1  -1   8 4708.66  582.38   1
   1   1  -7 7894.84  688.02   1
  -1  -1   7 7716.60  665.46   1
   1   1  -7 8011.56  570.39   1
  -1  -1   7 8316.91  426.49   1
  -1  -1   7 8471.34  745.33   1
  -1  -1   7 7826.00  243.13   1
   1   1  -7 7968.06  717.71   1
  -1  -1   6  131.03   95.09   1
  -1  -1   6 5142.59  330.60   1
   1   1  -6 5119.30  427.04   1
  -1  -1   6 4922.52  481.47   1
   1   1  -6 5119.13  511.00   1
  -1  -1   6 4788.91  215.01   1
   1   1  -6   -3.76   74.03   1
  -1  -1   6 5702.90  561.20   1
  -1  -1   5 5682.28  329.89   1
   1   1  -5 5535.59  410.23   1
   1   1  -5 6029.03  498.03   1
  -1  -1   5 5747.52  498.63   1
  -1  -1   5 5473.48  240.41   1
   1   1  -5 5534.33  489.76   1
   1   2  -426259.80  943.95  -2
  -1  -1   426259.80  943.95   1
  -1  -2   425377.30  907.25  -2
   1   1  -425377.30  907.25   1
  -1  -2   425747.00  802.77  -2
   1   1  -425747.00  802.77   1
   1   2  -425852.70  658.39  -2
  -1  -1   425852.70  658.39   1
  -1  -2   426193.30  946.21  -2
   1   1  -426193.30  946.21   1
   1   2  -420883.00  749.99  -2
  -1  -1   420883.00  749.99   1
  -1  -2   363693.30 1276.29  -2
   1   1  -363693.30 1276.29   1
   1   2  -363890.20  955.41  -2
  -1  -1   363890.20  955.41   1
  -1  -2   362533.70  934.64  -2
   1   1  -362533.70  934.64   1
  -1  -2   364084.50 1234.15  -2
   1   1  -364084.50 1234.15   1
   1   2  -364819.90 1249.11  -2
  -1  -1   364819.90 1249.11   1
   1   2  -364155.20 1241.61  -2
  -1  -1   364155.20 1241.61   1
   1   2  -363072.30 1157.41  -2
  -1  -1   363072.30 1157.41   1
  -1  -2   360629.00 1113.51  -2
   1   1  -360629.00 1113.51   1
   1   2  -2  649280    2831  -2
  -1  -1   2  649280    2831   1
  -1  -2   2  646811    3191  -2
   1   1  -2  646811    3191   1
   1   2  -2  639363    3118  -2
  -1  -1   2  639363    3118   1
  -1  -2   2  649452    2811  -2
   1   1  -2  649452    2811   1
  -1  -2   2  641570    3103  -2
   1   1  -2  641570    3103   1
  -1  -2   2  657914    3448  -2
   1   1  -2  657914    3448   1
   1   2  -2  651713    3368  -2
  -1  -1   2  651713    3368   1
   1   2  -2  643548    3270  -2
  -1  -1   2  643548    3270   1
   1   2  -1  410482    2260  -2
  -1  -1   1  410482    2260   1
   1   2  -1  402199    2089  -2
  -1  -1   1  402199    2089   1
  -1  -2   1  395443    2302  -2
   1   1  -1  395443    2302   1
  -1  -2   1  403942    1600  -2
   1   1  -1  403942    1600   1
  -1  -2   1  400838    2071  -2
   1   1  -1  400838    2071   1
  -1  -2   1  401703    2217  -2
   1   1  -1  401703    2217   1
  -1  -2   1  405808    2079  -2
   1   1  -1  405808    2079   1
  -1  -2   1  404519    2204  -2
   1   1  -1  404519    2204   1
   1   2  -1  400836    2152  -2
  -1  -1   1  400836    2152   1
   1   2  -1  404949    1605  -2
  -1  -1   1  404949    1605   1
   1   2  -1  399711    2090  -2
  -1  -1   1  399711    2090   1
  -1  -1   031136.40  488.12   1
   1   1   030601.10  515.01   1
   1   1   0 1919.69  128.43   1
  -1  -1   031878.70  516.82   1
  -1  -1   031344.30  597.97   1
   1   1   1  197042    1402   1
   1   1   1  197844    1449   1
  -1  -1  -1  194196    1464   1
  -1  -1  -1  195603    1274   1
   1   1   1  197325    1292   1
  -1  -1  -1  197229    1346   1
  -1  -1  -1  195938    1394   1
   1   1   1  201447    1359   1
  -1  -1  -1  194257    1281   1
  -1  -1  -1  196837    1524   1
   1   1   1  196122    1419   1
   1   1   2  113406    1133   1
   1   1   2  120960    1551   1
   1   1   2  119186    1508   1
  -1  -1  -2  123414    1543   1
  -1  -1  -2  120361    1198   1
  -1  -1  -2  120539    1296   1
   1   1   2  119143    1288   1
   1   1   2  123072    1061   1
   1   1   3 4177.99  351.19   1
  -1  -1  -3 3980.84  338.75   1
  -1  -1  -3 3744.32  230.41   1
   1   1   3 3896.67  229.59   1
   1   1   3 3793.55  322.18   1
   1   1   3 3938.04  285.68   1
  -1  -1  -3 4048.50  295.53   1
   1   1   4 6090.35  487.05   1
  -1  -1  -4 5482.84  399.60   1
   1   1   4 5490.94  397.28   1
   1   1   4 5884.31  460.12   1
   1   1   4 5107.68  286.11   1
  -1  -1  -4 4932.88  275.01   1
  -1  -1  -5 7973.00  538.64   1
   1   1   5 7720.06  578.07   1
  -1  -1  -5 7862.53  369.33   1
   1   1   5 7702.42  365.15   1
   1   1   5 7868.49  619.52   1
  -1  -1  -610748.10  452.60   1
   1   1   611492.90  824.72   1
  -1  -1  -611690.40  721.81   1
   1   1   611148.70  696.74   1
   1   1   611270.10  452.68   1
   1   1   612291.90  804.32   1
   1   1   7   -3.27  103.56   1
   1   1   7   31.99   52.66   1
   1   1   7   25.06  120.23   1
   1   1   7  282.30  150.41   1
  -1  -1  -7  137.53   91.47   1
  -1  -1  -7   56.11   54.22   1
  -1  -1  -7   56.81   99.68   1
  -1  -1  -7  167.67  131.54   1
  -1  -1  -8  901.09  216.54   1
   1   1   8  490.77   75.97   1
   1   1   8 1332.58  425.19   1
   1   1   8  696.20  171.65   1
  -1  -1  -8  613.27  216.90   1
  -1  -1  -8  581.48  157.76   1
   1   1   9  336.29  178.30  -2
  -1  -1  -9  336.29  178.30   1
  -1  -1  -9  730.71  270.15  -2
   1   1   9  730.71  270.15   1
   1   1   9  459.12  142.42  -2
  -1  -1  -9  459.12  142.42   1
  -1  -1 -10  -34.17  165.09  -2
   1   1  10  -34.17  165.09   1
   1   1  10  -43.25  158.57  -2
  -1  -1 -10  -43.25  158.57   1
   1   1  10   91.35  139.16  -2
  -1  -1 -10   91.35  139.16   1
   1   1  11 1725.30  442.53  -2
  -1  -1 -11 1725.30  442.53   1
   1   1  11 1778.45  292.95  -2
  -1  -1 -11 1778.45  292.95   1
  -1  -1 -11 2213.10  540.43  -2
   1   1  11 2213.10  540.43   1
   1   1  12   94.21  181.03  -2
  -1  -1 -12   94.21  181.03   1
  -1  -1 -12 -240.23  224.22  -2
   1   1  12 -240.23  224.22   1
   1   2 -12   56.45  197.40   1
  -1  -2  12  217.61  343.05   1
  -1  -2  11   36.97  229.77   1
   1   2 -11  260.70  263.28   1
  -1  -2  10 2221.00  514.37   1
   1   2 -10 1788.92  338.32   1
   1   2 -10 2741.72  510.61   1
  -1  -2   9  945.20  128.93   1
  -1  -2   9  870.05  222.31   1
   1   2  -9  808.20  234.23   1
   1   2  -9  805.96  284.83   1
  -1  -2   9 1270.79  378.47   1
  -1  -2   8 3253.99  467.31   1
  -1  -2   8 2118.60  373.08   1
   1   2  -8 3543.32  436.92   1
  -1  -2   8 3156.16  349.42   1
  -1  -2   8 2641.73  233.45   1
   1   2  -8 3072.43  483.47   1
  -1  -2   8 2886.84  240.43   1
  -1  -2   8 3053.95  492.43   1
  -1  -2   7 5547.75  560.06   1
   1   2  -7 6518.84  552.07   1
   1   2  -7 6282.55  627.99   1
  -1  -2   7 6447.52  374.43   1
  -1  -2   7 5861.81  435.90   1
  -1  -2   7 5493.73  599.47   1
  -1  -2   7 5688.62  553.84   1
  -1  -2   7 5825.05  345.09   1
   1   2  -7 5585.37  589.98   1
  -1  -2   611901.30  489.26   1
  -1  -2   613179.60  596.15   1
   1   2  -6  -33.01   51.47   1
  -1  -2   612032.90  791.86   1
   1   2  -612021.00  705.87   1
  -1  -2   611891.10  507.65   1
  -1  -2   613043.50  757.67   1
  -1  -2   611545.40  717.25   1
  -1  -2   6  -67.38   59.53   1
   1   2  -612296.00  808.62   1
  -1  -2   5 4571.60  298.20   1
  -1  -2   5 5200.42  336.55   1
   1   2  -5 4460.67  285.67   1
  -1  -2   5 5078.27  417.80   1
  -1  -2   5 4958.63  413.01   1
  -1  -2   5 5026.57  463.14   1
   1   2  -5 4980.61  447.38   1
   1   2  -5 5334.64  493.29   1
   1   2  -5 4810.39  416.83   1
   1   3  -4 2149.87  355.32  -2
  -1  -2   4 2149.87  355.32   1
  -1  -3   4 1863.60  285.38  -2
   1   2  -4 1863.60  285.38   1
   1   3  -4 1827.23  235.45  -2
  -1  -2   4 1827.23  235.45   1
   1   3  -335237.00  785.48  -2
  -1  -2   335237.00  785.48   1
  -1  -3   335190.30  911.93  -2
   1   2  -335190.30  911.93   1
   1   3  -335954.50  743.08  -2
  -1  -2   335954.50  743.08   1
   1   3  -334994.10  920.31  -2
  -1  -2   334994.10  920.31   1
  -1  -3   335675.60 1034.11  -2
   1   2  -335675.60 1034.11   1
  -1  -3   335439.20  953.82  -2
   1   2  -335439.20  953.82   1
   1   3  -334932.30  986.87  -2
  -1  -2   334932.30  986.87   1
   1   3  -335230.60  782.50  -2
  -1  -2   335230.60  782.50   1
  -1  -3   335363.40  769.81  -2
   1   2  -335363.40  769.81   1
   1   3  -336245.00 1063.37  -2
  -1  -2   336245.00 1063.37   1
   1   3  -333772.90  968.26  -2
  -1  -2   333772.90  968.26   1
   1   3  -2  305272    2636  -2
  -1  -2   2  305272    2636   1
   1   3  -2  302259    2043  -2
  -1  -2   2  302259    2043   1
   1   3  -2  301341    1796  -2
  -1  -2   2  301341    1796   1
   1   3  -2  304041    2243  -2
  -1  -2   2  304041    2243   1
  -1  -3   2  299840    1959  -2
   1   2  -2  299840    1959   1
   1   3  -2  318536    2777  -2
  -1  -2   2  318536    2777   1
  -1  -3   2  300636    2177  -2
   1   2  -2  300636    2177   1
  -1  -3   2  305174    2558  -2
   1   2  -2  305174    2558   1
  -1  -3   2  304052    2201  -2
   1   2  -2  304052    2201   1
  -1  -3   1 6502.01  204.03  -2
   1   2  -1 6502.01  204.03   1
   1   3  -1 6730.02  335.60  -2
  -1  -2   1 6730.02  335.60   1
   1   3  -1 6584.50  368.06  -2
  -1  -2   1 6584.50  368.06   1
   1   2   061894.00  668.13   1
  -1  -2   064279.90 1053.37   1
  -1  -2   061969.00  673.20   1
   1   2   061045.40  996.44   1
  -1  -2   062488.50  907.15   1
   1   2   061571.60  889.31   1
   1   2   1 1616.33  158.25   1
  -1  -2  -1 1713.58  165.40   1
   1   2   1 1673.36  162.10   1
  -1  -2  -1 1662.29  182.24   1
  -1  -2  -1 1481.14  152.92   1
   1   2   1 1560.93  122.14   1
  -1  -2  -1 1765.73  132.95   1
  -1  -2  -1 1516.22  128.64   1
  -1  -2  -2  282981    2314   1
   1   2   2  280510    2468   1
  -1  -2  -2  283684    1494   1
   1   2   2  279937    2510   1
  -1  -2  -2  282717    2606   1
   1   2   2  280893    2512   1
  -1  -2  -2  277541    2076   1
  -1  -2  -2  283020    2466   1
  -1  -2  -388851.10 1208.31   1
   1   2   391005.70 1641.13   1
   1   2   390622.90 1480.62   1
   1   2   392306.60 1588.13   1
  -1  -2  -391205.80 1727.06   1
   1   2   393704.80 1712.73   1
  -1  -2  -393693.00 1510.46   1
   1   2   453660.30 1477.49   1
  -1  -2  -457348.80 1547.42   1
  -1  -2  -456403.70 1006.49   1
  -1  -2  -454263.40 1313.09   1
   1   2   456341.20 1324.06   1
   1   2   454752.70 1439.89   1
   1   2   549074.10 1504.72   1
  -1  -2  -546697.50 1339.55   1
   1   2   549530.30 1572.40   1
  -1  -2  -547221.00  951.18   1
  -1  -2  -6 1832.46  189.65   1
   1   2   6 2170.12  358.09   1
  -1  -2  -6 2202.26  208.41   1
  -1  -2  -6 2042.28  316.97   1
   1   2   6 2235.29  338.23   1
   1   2   6 2491.97  394.52   1
  -1  -2  -7 1963.53  334.07   1
  -1  -2  -7 2116.55  208.45   1
   1   2   7 2254.56  400.98   1
   1   2   7 2504.40  379.48   1
  -1  -2  -7 1990.96  220.04   1
  -1  -2  -8 5677.24  334.28   1
  -1  -2  -8 6400.94  642.19   1
  -1  -2  -8 6013.52  401.59   1
   1   2   8 5692.22  691.16   1
   1   2   913938.80  505.51  -2
  -1  -2  -913938.80  505.51   1
  -1  -2  -915635.90 1257.59  -2
   1   2   915635.90 1257.59   1
   1   2   915224.90 1089.04  -2
  -1  -2  -915224.90 1089.04   1
   1   2   914312.90  674.38  -2
  -1  -2  -914312.90  674.38   1
  -1  -2 -10 2956.40  594.80  -2
   1   2  10 2956.40  594.80   1
   1   2  10 3540.07  580.28  -2
  -1  -2 -10 3540.07  580.28   1
   1   2  10 2057.91  279.46  -2
  -1  -2 -10 2057.91  279.46   1
  -1  -2 -11 1203.18  413.74  -2
   1   2  11 1203.18  413.74   1
   1   2  11 1262.46  421.01  -2
  -1  -2 -11 1262.46  421.01   1
   1   2  12  206.51  220.12  -2
  -1  -2 -12  206.51  220.12   1
  -1  -2 -12  393.63  276.20  -2
   1   2  12  393.63  276.20   1
  -1  -3  11 2787.48  612.20   1
  -1  -3  11 2448.14  542.05   1
   1   3 -11 3267.54  629.63   1
   1   3 -11 3165.54  520.19   1
   1   3 -10  767.85  263.44   1
  -1  -3  10 1045.18  365.58   1
  -1  -3  10  846.20  334.35   1
   1   3 -10  855.56  337.62   1
  -1  -3   9 1755.53  402.15   1
  -1  -3   9  950.19  176.35   1
   1   3  -9  803.61  288.08   1
  -1  -3   9  969.33  333.43   1
   1   3  -9 1191.97  311.36   1
  -1  -3   8  650.97  161.49   1
   1   3  -8  546.30  231.46   1
  -1  -3   8  395.44  216.28   1
  -1  -3   8   99.89  121.42   1
  -1  -3   8  219.15  160.47   1
  -1  -3   8  595.62  237.84   1
   1   3  -8  448.78  188.57   1
  -1  -3   8  499.79  149.85   1
   1   3  -7   27.89   83.84   1
   1   3  -7  -83.99  128.82   1
  -1  -3   7  316.37  187.51   1
  -1  -3   7   31.13  101.29   1
  -1  -3   7   48.99   75.75   1
  -1  -3   7  145.70  116.78   1
  -1  -3   7   21.97  112.71   1
   1   3  -7    5.15  118.96   1
  -1  -3   7  365.86  171.88   1
  -1  -3   6 3375.26  451.17   1
   1   3  -6 2748.15  418.93   1
   1   3  -6 2637.44  247.00   1
  -1  -3   6 2816.60  349.24   1
  -1  -3   6 2678.94  246.39   1
  -1  -3   6 2764.55  385.38   1
  -1  -3   6 3263.10  429.64   1
   1   3  -6 2857.50  371.36   1
  -1  -3   6 3059.92  354.02   1
  -1  -3   511179.20  689.75   1
  -1  -3   510632.20  596.19   1
   1   3  -511669.70  699.46   1
   1   3  -511134.60  497.48   1
  -1  -3   511715.90  776.79   1
  -1  -3   510597.10  567.28   1
  -1  -3   510879.00  456.42   1
   1   3  -510544.60  659.65   1
  -1  -4   4 1984.96  294.37  -2
   1   3  -4 1984.96  294.37   1
  -1  -4   4 2276.74  298.53  -2
   1   3  -4 2276.74  298.53   1
   1   4  -4 1478.86  227.90  -2
  -1  -3   4 1478.86  227.90   1
   1   4  -4 1656.42  197.85  -2
  -1  -3   4 1656.42  197.85   1
   1   4  -4 1133.29  253.86  -2
  -1  -3   4 1133.29  253.86   1
   1   4  -4 1618.98  246.66  -2
  -1  -3   4 1618.98  246.66   1
  -1  -4   3 9802.83  561.92  -2
   1   3  -3 9802.83  561.92   1
   1   4  -3 9041.24  589.72  -2
  -1  -3   3 9041.24  589.72   1
   1   4  -310520.80  418.69  -2
  -1  -3   310520.80  418.69   1
   1   4  -3 9335.26  428.39  -2
  -1  -3   3 9335.26  428.39   1
  -1  -4   310215.50  480.05  -2
   1   3  -310215.50  480.05   1
   1   4  -310869.60  384.45  -2
  -1  -3   310869.60  384.45   1
  -1  -4   310369.60  398.69  -2
   1   3  -310369.60  398.69   1
  -1  -4   310772.90  540.48  -2
   1   3  -310772.90  540.48   1
  -1  -4   310206.40  439.62  -2
   1   3  -310206.40  439.62   1
   1   4  -287876.30 1670.31  -2
  -1  -3   287876.30 1670.31   1
  -1  -4   287908.00 1137.96  -2
   1   3  -287908.00 1137.96   1
  -1  -4   286278.70 1199.81  -2
   1   3  -286278.70 1199.81   1
   1   4  -289538.00 1581.73  -2
  -1  -3   289538.00 1581.73   1
  -1  -4   287339.70 1540.98  -2
   1   3  -287339.70 1540.98   1
  -1  -4   286095.30 1393.18  -2
   1   3  -286095.30 1393.18   1
  -1  -4   285174.10 1359.91  -2
   1   3  -285174.10 1359.91   1
   1   4  -285010.50 1108.66  -2
  -1  -3   285010.50 1108.66   1
  -1  -4   1 5527.39  298.94  -2
   1   3  -1 5527.39  298.94   1
   1   4  -1 5065.49  392.04  -2
  -1  -3   1 5065.49  392.04   1
   1   3   016699.60  396.59   1
  -1  -3   017565.40  577.80   1
  -1  -3   018320.10  707.34   1
   1   3   017424.60  570.26   1
   1   3   017615.40  558.83   1
  -1  -3  -151640.30 1208.58   1
   1   3   149164.60  824.32   1
   1   3   147442.60  922.90   1
   1   3   150589.70 1084.20   1
  -1  -3  -149149.60  842.84   1
  -1  -3  -210532.90  536.26   1
  -1  -3  -2 9868.16  322.08   1
  -1  -3  -210402.70  558.48   1
   1   3   210340.90  319.99   1
   1   3   2 9899.72  547.68   1
   1   3   2 9880.08  501.69   1
  -1  -3  -325049.30  869.33   1
  -1  -3  -324470.30  970.59   1
  -1  -3  -323802.70  716.32   1
   1   3   324376.20  904.96   1
   1   3   324292.40  951.60   1
  -1  -3  -322459.30  394.12   1
  -1  -3  -427571.50  787.66   1
  -1  -3  -429110.10 1017.60   1
   1   3   428940.90 1106.38   1
   1   3   428712.50 1128.57   1
  -1  -3  -430614.10 1222.88   1
   1   3   5  714.55  211.84   1
  -1  -3  -5  706.84  137.18   1
   1   3   5 1096.44  251.51   1
  -1  -3  -5  961.11  212.93   1
   1   3   5  -57.96   79.84   1
  -1  -3  -5  771.25  220.68   1
  -1  -3  -6 5805.03  637.97   1
  -1  -3  -6 5057.78  344.20   1
  -1  -3  -6 5079.14  518.28   1
   1   3   6 5507.20  538.59   1
  -1  -3  -6 4703.80  209.07   1
   1   3   6 5203.28  580.07   1
   1   3   6 5688.06  596.01   1
  -1  -3  -7 4261.70  492.23   1
   1   3   7 4479.82  584.20   1
  -1  -3  -7 4321.25  314.84   1
  -1  -3  -7 4080.85  225.18   1
   1   3   7 3827.50  198.37   1
  -1  -3  -8   21.14   51.79   1
  -1  -3  -8   92.64   71.47   1
  -1  -3  -8  103.13  130.04   1
   1   3   8  260.87   77.22   1
  -1  -3  -9  369.76  103.55  -2
   1   3   9  369.76  103.55   1
   1   3   9  397.45  103.04  -2
  -1  -3  -9  397.45  103.04   1
   1   3   9 1322.65  417.08  -2
  -1  -3  -9 1322.65  417.08   1
   1   3   9  684.40  159.08  -2
  -1  -3  -9  684.40  159.08   1
  -1  -3  -9 1228.47  442.35  -2
   1   3   9 1228.47  442.35   1
   1   3  10 2016.50  429.83  -2
  -1  -3 -10 2016.50  429.83   1
  -1  -3 -10 1943.19  515.68  -2
   1   3  10 1943.19  515.68   1
  -1  -3 -11   85.81  192.47  -2
   1   3  11   85.81  192.47   1
   1   3  11  281.45  179.14  -2
  -1  -3 -11  281.45  179.14   1
  -1  -4  11  578.91  330.69   1
   1   4 -11  164.46  144.29   1
  -1  -4  11  836.82  372.30   1
   1   4 -10  264.51  196.98   1
  -1  -4  10  301.11  231.85   1
  -1  -4  10  638.77  329.73   1
   1   4  -9 4218.56  554.90   1
  -1  -4   9 4110.56  656.22   1
  -1  -4   9 4591.27  553.79   1
  -1  -4   9 4177.60  634.49   1
  -1  -4   9 4234.19  437.33   1
  -1  -4   8   14.77  134.15   1
  -1  -4   8  -16.30  199.18   1
  -1  -4   8  124.52   73.38   1
   1   4  -8  303.60  116.52   1
  -1  -4   8  284.02  158.29   1
   1   4  -8  546.23  244.32   1
  -1  -4   8    8.97  145.45   1
  -1  -4   8  312.60  150.15   1
  -1  -4   7 4339.24  527.01   1
  -1  -4   7 4689.58  460.28   1
   1   4  -7 3705.76  329.68   1
   1   4  -7 3979.69  493.57   1
  -1  -4   7 3055.33  394.25   1
  -1  -4   7 4172.77  274.48   1
  -1  -4   7 3809.57  413.13   1
  -1  -4   7 3958.69  566.41   1
   1   4  -7 4768.94  531.71   1
  -1  -4   6  743.23  122.39   1
  -1  -4   6  619.67  149.85   1
  -1  -4   6  867.41  205.19   1
   1   4  -6 1090.47  251.16   1
  -1  -4   6  597.74  219.66   1
   1   4  -6  626.73  157.25   1
   1   4  -6  799.15  233.76   1
  -1  -4   5  225.30   90.29   1
   1   4  -5  377.35  207.86   1
   1   4  -5  727.30  193.27   1
  -1  -4   5  446.45  171.31   1
  -1  -4   5  344.66  129.92   1
  -1  -4   5  227.43  173.14   1
  -1  -5   415034.90  788.43  -2
   1   4  -415034.90  788.43   1
   1   5  -413873.90  627.85  -2
  -1  -4   413873.90  627.85   1
  -1  -5   415354.50  829.36  -2
   1   4  -415354.50  829.36   1
   1   5  -413813.90  456.86  -2
  -1  -4   413813.90  456.86   1
  -1  -5   415550.20  514.83  -2
   1   4  -415550.20  514.83   1
   1   5  -414980.40  875.80  -2
  -1  -4   414980.40  875.80   1
  -1  -5   415442.20  669.65  -2
   1   4  -415442.20  669.65   1
  -1  -5   416369.40  707.80  -2
   1   4  -416369.40  707.80   1
  -1  -5   322375.10  647.04  -2
   1   4  -322375.10  647.04   1
   1   5  -3 7455.59  584.56  -2
  -1  -4   3 7455.59  584.56   1
  -1  -5   322568.30  821.32  -2
   1   4  -322568.30  821.32   1
   1   5  -314943.10  591.26  -2
  -1  -4   314943.10  591.26   1
  -1  -5   313084.20  709.56  -2
   1   4  -313084.20  709.56   1
  -1  -5   319953.30  814.85  -2
   1   4  -319953.30  814.85   1
  -1  -5   321590.60  722.37  -2
   1   4  -321590.60  722.37   1
   1   5  -214659.40  564.23  -2
  -1  -4   214659.40  564.23   1
  -1  -5   216297.80  605.32  -2
   1   4  -216297.80  605.32   1
  -1  -5   220942.50  684.71  -2
   1   4  -220942.50  684.71   1
  -1  -5   219708.30  778.62  -2
   1   4  -219708.30  778.62   1
  -1  -5   215048.20  727.08  -2
   1   4  -215048.20  727.08   1
   1   5  -210870.70  664.33  -2
  -1  -4   210870.70  664.33   1
  -1  -5   110177.70  477.32  -2
   1   4  -110177.70  477.32   1
   1   5  -110936.20  572.45  -2
  -1  -4   110936.20  572.45   1
  -1  -5   110176.80  558.68  -2
   1   4  -110176.80  558.68   1
   1   5  -1 9693.70  613.55  -2
  -1  -4   1 9693.70  613.55   1
  -1  -4   033714.70  909.36   1
   1   4   032600.80  646.74   1
  -1  -4   035974.20 1153.50   1
   1   4   034363.20  931.58   1
   1   4   035729.00  920.81   1
  -1  -4  -146811.50  958.96   1
  -1  -4  -147488.40 1326.98   1
   1   4   144868.20  969.27   1
   1   4   146986.20  941.93   1
   1   4   223213.00  835.96   1
   1   4   224337.30  956.16   1
  -1  -4  -224751.80  981.23   1
   1   4   223866.80  574.88   1
  -1  -4  -223540.60  588.52   1
  -1  -4  -3 4960.88  438.95   1
  -1  -4  -3 5300.57  476.06   1
   1   4   3 5283.50  484.94   1
   1   4   3 4665.74  425.53   1
   1   4   427004.50 1143.12   1
  -1  -4  -427674.70 1091.54   1
   1   4   427593.20 1196.60   1
  -1  -4  -425901.70  863.88   1
   1   4   5 3914.31  489.32   1
  -1  -4  -5 4836.64  570.43   1
  -1  -4  -5 4235.30  462.98   1
   1   4   5 5182.30  544.01   1
  -1  -4  -5 4313.69  360.19   1
   1   4   5 4251.04  514.20   1
   1   4   614297.30  999.85   1
  -1  -4  -613591.40  620.60   1
  -1  -4  -613486.10  858.15   1
  -1  -4  -7 3712.07  326.75   1
  -1  -4  -7 3417.20  461.84   1
   1   4   7 3331.52  532.41   1
   1   4   8 4603.23  672.23   1
  -1  -4  -8 4692.66  357.24   1
   1   4   9 2146.12  431.28  -2
  -1  -4  -9 2146.12  431.28   1
  -1  -4  -9 2492.21  534.17  -2
   1   4   9 2492.21  534.17   1
  -1  -4 -10  802.75  347.65  -2
   1   4  10  802.75  347.65   1
   1   4  10  376.23  201.96  -2
  -1  -4 -10  376.23  201.96   1
   1   4  11  477.30  271.12  -2
  -1  -4 -11  477.30  271.12   1
  -1  -4 -11  350.55  281.92  -2
   1   4  11  350.55  281.92   1
   1   5 -11 1760.30  423.22   1
   1   5 -10  867.32  296.88   1
  -1  -5  10  624.30  275.41   1
   1   5  -9 2126.83  430.52   1
  -1  -5   9 2743.46  580.69   1
  -1  -5   9 2515.04  371.86   1
  -1  -5   8 2099.96  331.28   1
  -1  -5   8 1798.92  432.95   1
   1   5  -8 1623.27  251.45   1
  -1  -5   8 1721.20  323.25   1
   1   5  -8 1861.94  387.14   1
  -1  -5   8 1656.11  336.81   1
   1   5  -7 4174.13  536.45   1
  -1  -5   7 4370.68  489.94   1
   1   5  -7 5050.74  598.74   1
   1   5  -7 3955.85  372.84   1
  -1  -5   7 4219.15  397.57   1
  -1  -5   7 4362.18  473.32   1
  -1  -5   7 3979.46  590.04   1
   1   5  -6  522.00  167.74   1
  -1  -5   6  289.67  115.76   1
   1   5  -6  383.79  173.31   1
  -1  -5   6  372.59  120.39   1
  -1  -5   6  512.47  220.48   1
   1   5  -6  444.69  199.94   1
  -1  -5   516940.70  513.97   1
  -1  -5   518595.70 1105.85   1
   1   5  -518776.20 1031.22   1
   1   5  -518417.20  821.98   1
   1   5  -517135.50  781.92   1
  -1  -5   516731.00  773.24   1
   1   6  -410230.10  757.86  -2
  -1  -5   410230.10  757.86   1
   1   6  -411584.60  623.99  -2
  -1  -5   411584.60  623.99   1
   1   6  -410707.40  815.63  -2
  -1  -5   410707.40  815.63   1
  -1  -6   413142.50  671.81  -2
   1   5  -413142.50  671.81   1
  -1  -6   412800.70  519.31  -2
   1   5  -412800.70  519.31   1
  -1  -6   413018.90  835.11  -2
   1   5  -413018.90  835.11   1
  -1  -6   411678.30  831.16  -2
   1   5  -411678.30  831.16   1
  -1  -6   413522.80  712.03  -2
   1   5  -413522.80  712.03   1
  -1  -6   3 1081.83  244.89  -2
   1   5  -3 1081.83  244.89   1
  -1  -6   3 1234.80  183.49  -2
   1   5  -3 1234.80  183.49   1
  -1  -6   3 1110.41  183.91  -2
   1   5  -3 1110.41  183.91   1
  -1  -6   3 1239.02  231.01  -2
   1   5  -3 1239.02  231.01   1
   1   6  -3 1048.16  181.17  -2
  -1  -5   3 1048.16  181.17   1
  -1  -6   3 1281.06  225.78  -2
   1   5  -3 1281.06  225.78   1
   1   6  -3  791.95  219.83  -2
  -1  -5   3  791.95  219.83   1
  -1  -6   3  980.78  255.63  -2
   1   5  -3  980.78  255.63   1
   1   6  -2 7373.66  460.98  -2
  -1  -5   2 7373.66  460.98   1
  -1  -6   2 7990.94  486.36  -2
   1   5  -2 7990.94  486.36   1
  -1  -6   2 8445.51  579.33  -2
   1   5  -2 8445.51  579.33   1
  -1  -6   2 7887.50  480.35  -2
   1   5  -2 7887.50  480.35   1
  -1  -6   2 8188.91  589.27  -2
   1   5  -2 8188.91  589.27   1
   1   6  -2 7469.12  605.98  -2
  -1  -5   2 7469.12  605.98   1
  -1  -6   1  132679    2036  -2
   1   5  -1  132679    2036   1
  -1  -6   1  132307    2147  -2
   1   5  -1  132307    2147   1
   1   6  -1  132335    2466  -2
  -1  -5   1  132335    2466   1
  -1  -5   0 2977.92  380.02   1
   1   5   0 3109.55  335.11   1
   1   5   0 2784.11  214.46   1
   1   5   0 3155.89  318.60   1
   1   5   115729.00  784.59   1
  -1  -5  -116277.60  871.51   1
   1   5   116118.00  633.79   1
   1   5   115788.60  636.36   1
   1   5   210460.20  447.16   1
  -1  -5  -211236.10  739.69   1
   1   5   210134.70  588.00   1
   1   5   210714.60  712.74   1
  -1  -5  -3  714.97  204.56   1
   1   5   3  500.11   92.43   1
   1   5   3  643.84  178.75   1
   1   5   3 1034.06  248.07   1
  -1  -5  -3  615.69  190.91   1
   1   5   3  679.30  216.01   1
   1   5   429617.90 1336.78   1
  -1  -5  -429032.70 1200.03   1
   1   5   428706.60 1322.64   1
   1   5   427457.30 1216.11   1
  -1  -5  -5 4966.51  529.25   1
  -1  -5  -5 4025.15  389.01   1
   1   5   5 4722.03  575.74   1
   1   5   5 4608.21  566.36   1
  -1  -5  -6  832.05  237.68   1
   1   5   6  774.83  264.54   1
  -1  -5  -6 1032.21  214.78   1
   1   5   7   92.68  160.60   1
  -1  -5  -7  227.74  122.24   1
  -1  -5  -7   74.88  100.50   1
  -1  -5  -8   12.39  126.47   1
   1   5   8  -68.40  157.64   1
   1   5   9 2350.66  488.82  -2
  -1  -5  -9 2350.66  488.82   1
  -1  -5  -9 2134.31  525.96  -2
   1   5   9 2134.31  525.96   1
  -1  -5 -10  558.47  303.45  -2
   1   5  10  558.47  303.45   1
   1   5  10  -72.70  133.76  -2
  -1  -5 -10  -72.70  133.76   1
  -1  -6  10 -170.81  260.18   1
   1   6 -10  368.75  241.28   1
  -1  -6   9  -28.43  146.13   1
   1   6  -9  166.09  194.59   1
  -1  -6   9  151.96  198.01   1
  -1  -6   8  772.89  329.73   1
   1   6  -8 1134.62  229.90   1
  -1  -6   8 1404.31  313.75   1
   1   6  -8 1337.29  344.27   1
   1   6  -7 1773.04  296.37   1
  -1  -6   7 2160.40  339.97   1
   1   6  -7 2395.18  444.93   1
  -1  -6   7 2163.89  451.72   1
   1   6  -610294.00  678.05   1
  -1  -6   6 9600.42  666.86   1
  -1  -6   610531.50  943.69   1
   1   6  -6 9715.35  801.35   1
  -1  -6   6 8403.29  305.81   1
   1   6  -610202.10  847.36   1
  -1  -6   5  -42.75   70.58   1
  -1  -6   5  126.41  191.55   1
   1   6  -5  152.00  137.81   1
   1   6  -5   21.03  105.13   1
   1   6  -5  264.68  134.55   1
   1   6  -5   94.19   70.93   1
   1   7  -4 2957.08  467.24  -2
  -1  -6   4 2957.08  467.24   1
   1   7  -4 2660.07  317.43  -2
  -1  -6   4 2660.07  317.43   1
  -1  -7   4 2968.37  418.43  -2
   1   6  -4 2968.37  418.43   1
  -1  -7   4 2746.48  329.56  -2
   1   6  -4 2746.48  329.56   1
  -1  -7   4 2289.60  247.62  -2
   1   6  -4 2289.60  247.62   1
  -1  -7   4 2433.22  342.81  -2
   1   6  -4 2433.22  342.81   1
  -1  -7   4 1050.71  254.09  -2
   1   6  -4 1050.71  254.09   1
  -1  -7   3 1126.89  247.08  -2
   1   6  -3 1126.89  247.08   1
  -1  -7   3  957.33  242.80  -2
   1   6  -3  957.33  242.80   1
   1   7  -3 1026.73  268.03  -2
  -1  -6   3 1026.73  268.03   1
   1   7  -3  903.44  187.10  -2
  -1  -6   3  903.44  187.10   1
  -1  -7   3 1287.44  225.73  -2
   1   6  -3 1287.44  225.73   1
  -1  -7   3  994.94  179.78  -2
   1   6  -3  994.94  179.78   1
  -1  -7   2 1409.91  240.20  -2
   1   6  -2 1409.91  240.20   1
  -1  -7   2 2056.34  294.83  -2
   1   6  -2 2056.34  294.83   1
  -1  -7   2  442.98  197.49  -2
   1   6  -2  442.98  197.49   1
   1   7  -2  999.85  266.82  -2
  -1  -6   2  999.85  266.82   1
  -1  -7   2 1381.57  280.11  -2
   1   6  -2 1381.57  280.11   1
  -1  -7   1  123.91   38.59  -2
   1   6  -1  123.91   38.59   1
  -1  -7   1  -59.37  130.15  -2
   1   6  -1  -59.37  130.15   1
  -1  -7   1  279.54  190.19  -2
   1   6  -1  279.54  190.19   1
  -1  -7   1  196.14   43.07  -2
   1   6  -1  196.14   43.07   1
   1   7  -1   84.57  113.77  -2
  -1  -6   1   84.57  113.77   1
  -1  -6   0   34.72   95.01   1
   1   6   0  -70.84  102.32   1
   1   6   0  -24.22   40.45   1
   1   6   0   79.15   87.31   1
  -1  -6  -114785.20  919.10   1
   1   6   114817.00  658.45   1
   1   6   115187.50  685.65   1
   1   6   116545.90  991.51   1
   1   6   232431.40 1369.76   1
  -1  -6  -232357.90 1373.28   1
   1   6   235071.90 1473.70   1
   1   6   232597.00 1337.10   1
   1   6   231606.80 1107.79   1
   1   6   232048.30  883.37   1
  -1  -6  -340283.70 1469.84   1
  -1  -6  -338212.70 1506.80   1
   1   6   339489.50  820.63   1
   1   6   341142.40 1612.29   1
   1   6   340028.70 1392.43   1
   1   6   434600.50 1558.28   1
   1   6   435272.90 1430.28   1
  -1  -6  -434403.90 1410.58   1
  -1  -6  -5 3355.02  469.45   1
   1   6   5 3996.12  574.59   1
  -1  -6  -622436.20 1249.22   1
  -1  -6  -622759.90  997.70   1
   1   6   624163.00 1456.71   1
  -1  -6  -7 2411.64  447.06   1
   1   6   7 2523.29  517.97   1
  -1  -6  -7 2168.99  323.28   1
  -1  -6  -8 1764.54  396.27   1
   1   6   8 2333.93  526.43   1
   1   6   9  180.81  216.39  -2
  -1  -6  -9  180.81  216.39   1
  -1  -6  -9  132.28  270.64  -2
   1   6   9  132.28  270.64   1
  -1  -6 -10  884.01  410.08  -2
   1   6  10  884.01  410.08   1
  -1  -7   9  259.60  290.52   1
  -1  -7   9  170.96  166.88   1
   1   7  -9  185.24  144.96   1
  -1  -7   8  285.57  194.66   1
   1   7  -8  112.34  180.28   1
  -1  -7   8  -40.49  200.60   1
   1   7  -7 2084.39  331.89   1
  -1  -7   7 2059.16  467.18   1
   1   7  -7 2112.91  441.19   1
  -1  -7   6  214.65  174.51   1
   1   7  -6   80.42  145.51   1
   1   7  -6  139.86  143.02   1
  -1  -7   6  -13.70  214.69   1
   1   7  -6 -177.54  191.62   1
  -1  -7   5 2843.88  369.69   1
   1   7  -5 2264.44  234.59   1
   1   7  -5 2436.54  415.67   1
  -1  -7   5 2423.29  467.81   1
   1   7  -5 2651.60  391.51   1
   1   7  -5 2799.87  456.04   1
   1   8  -4 6538.88  720.83  -2
  -1  -7   4 6538.88  720.83   1
  -1  -8   4 7310.22  696.49  -2
   1   7  -4 7310.22  696.49   1
  -1  -8   4 5135.76  400.06  -2
   1   7  -4 5135.76  400.06   1
  -1  -8   4 6512.87  665.53  -2
   1   7  -4 6512.87  665.53   1
  -1  -8   4 5279.50  549.88  -2
   1   7  -4 5279.50  549.88   1
   1   8  -4 6032.89  531.76  -2
  -1  -7   4 6032.89  531.76   1
  -1  -8   3  778.06  240.60  -2
   1   7  -3  778.06  240.60   1
   1   8  -3  543.69  216.66  -2
  -1  -7   3  543.69  216.66   1
  -1  -8   3 1350.18  241.02  -2
   1   7  -3 1350.18  241.02   1
  -1  -8   3 1128.82  285.51  -2
   1   7  -3 1128.82  285.51   1
  -1  -8   2  694.83  208.64  -2
   1   7  -2  694.83  208.64   1
   1   8  -2  681.68  229.04  -2
  -1  -7   2  681.68  229.04   1
  -1  -8   2  833.88  221.54  -2
   1   7  -2  833.88  221.54   1
  -1  -8   2  549.94  188.17  -2
   1   7  -2  549.94  188.17   1
   1   8  -1 8040.83  763.74  -2
  -1  -7   1 8040.83  763.74   1
  -1  -8   1 8111.99  635.49  -2
   1   7  -1 8111.99  635.49   1
   1   7   0  615.35  206.42   1
   1   7   0  684.18  134.96   1
   1   7   0  479.09  165.33   1
  -1  -7   0  685.75  232.20   1
   1   7   1 4310.57  381.17   1
  -1  -7  -1 4588.61  561.09   1
   1   7   1 5629.04  455.72   1
   1   7   1 4781.93  537.80   1
   1   7   2 7054.15  684.76   1
   1   7   2 6783.92  691.09   1
   1   7   2 7553.05  479.17   1
  -1  -7  -2 6944.07  707.63   1
   1   7   2 6670.29  553.26   1
   1   7   3  859.42  235.16   1
   1   7   3  796.82  142.38   1
   1   7   3  641.53  222.90   1
  -1  -7  -3  774.22  238.12   1
  -1  -7  -3  782.95  265.71   1
   1   7   3  659.87  233.03   1
   1   7   4 -140.31  154.58   1
   1   7   4   55.70  103.46   1
  -1  -7  -4  141.86   57.58   1
  -1  -7  -4   -8.28   32.09   1
  -1  -7  -4   43.32  105.39   1
   1   7   5  446.22  245.66   1
  -1  -7  -5  183.74  154.23   1
   1   7   613433.50 1151.33   1
  -1  -7  -613850.00 1055.40   1
  -1  -7  -7 6296.81  752.84   1
   1   7   7 5254.39  759.80   1
   1   7   8  755.99  315.48   1
  -1  -7  -8  362.09  234.62   1
   1   7   9  296.79  240.26  -2
  -1  -7  -9  296.79  240.26   1
  -1  -7  -9  329.30  293.09  -2
   1   7   9  329.30  293.09   1
  -1  -8   8  230.04  213.65   1
   1   8  -8  -54.90  206.19   1
  -1  -8   8  664.09  314.74   1
   1   8  -7  925.15  246.73   1
  -1  -8   7  631.20  307.19   1
   1   8  -7 1349.44  371.47   1
  -1  -8   6 4253.38  677.59   1
   1   8  -6 5053.71  548.81   1
   1   8  -6 4242.00  551.59   1
   1   8  -6 5636.61  721.99   1
  -1  -8   5  227.20  231.22   1
   1   8  -5  465.02  230.43   1
   1   8  -5  167.03  140.89   1
   1   8  -5   98.66  140.81   1
  -1  -9   4  442.57  179.69  -2
   1   8  -4  442.57  179.69   1
  -1  -9   4  208.54  192.06  -2
   1   8  -4  208.54  192.06   1
   1   9  -4  182.48  181.67  -2
  -1  -8   4  182.48  181.67   1
  -1  -9   4  362.14  181.88  -2
   1   8  -4  362.14  181.88   1
  -1  -9   4  922.84  305.45  -2
   1   8  -4  922.84  305.45   1
  -1  -9   3  131.14  144.01  -2
   1   8  -3  131.14  144.01   1
  -1  -9   3  148.65  129.75  -2
   1   8  -3  148.65  129.75   1
   1   9  -3   80.23  143.47  -2
  -1  -8   3   80.23  143.47   1
  -1  -9   3  373.33  203.13  -2
   1   8  -3  373.33  203.13   1
  -1  -9   3  444.30  185.60  -2
   1   8  -3  444.30  185.60   1
   1   9  -2  894.23  300.77  -2
  -1  -8   2  894.23  300.77   1
  -1  -9   2 1412.31  327.28  -2
   1   8  -2 1412.31  327.28   1
  -1  -9   2 1329.69  314.06  -2
   1   8  -2 1329.69  314.06   1
  -1  -9   2 1327.12  272.10  -2
   1   8  -2 1327.12  272.10   1
  -1  -9   2  607.81  238.79  -2
   1   8  -2  607.81  238.79   1
   1   9  -1 6106.31  720.25  -2
  -1  -8   1 6106.31  720.25   1
  -1  -9   1 6044.86  589.72  -2
   1   8  -1 6044.86  589.72   1
  -1  -9   1 6239.39  622.16  -2
   1   8  -1 6239.39  622.16   1
   1   8   0 2863.33  267.57   1
  -1  -8   0 2469.21  450.34   1
   1   8   0 2789.89  437.41   1
   1   8   0 2682.80  267.44   1
   1   8   0 3063.37  397.43   1
  -1  -8  -1 4582.56  613.38   1
   1   8   1 4260.71  551.63   1
   1   8   1 5298.58  480.21   1
   1   8   1 4100.67  571.98   1
   1   8   1 4578.71  411.80   1
   1   8   2 2177.73  286.30   1
   1   8   2 2225.18  448.36   1
   1   8   2 2232.48  424.65   1
   1   8   2 1879.52  312.98   1
  -1  -8  -2 1716.74  387.49   1
  -1  -8  -3  391.34  225.87   1
   1   8   3  210.94  180.54   1
  -1  -8  -3  348.57  198.97   1
   1   8   3  442.55  117.18   1
   1   8   3  642.96  264.15   1
   1   8   3  364.61  186.84   1
   1   8   4 5293.05  707.74   1
   1   8   4 4726.86  670.03   1
  -1  -8  -4 6264.48  698.02   1
   1   8   5  421.71  207.33   1
  -1  -8  -5  394.90  242.43   1
   1   8   6 1248.56  398.23   1
  -1  -8  -6 1970.74  432.20   1
  -1  -8  -7  268.22  200.07   1
   1   8   7  -79.15  200.33   1
   1   8   8  203.37  214.17   1
  -1  -9   7  549.18  330.01   1
   1   9  -7   50.53  168.23   1
   1   9  -6  938.95  339.70   1
  -1  -9   6  267.39  169.62   1
   1   9  -6  467.64  243.91   1
   1   9  -5 4921.89  676.82   1
   1   9  -5 3604.91  563.90   1
  -1  -9   5 2936.66  584.61   1
   1   9  -5 3356.15  477.74   1
  -1 -10   4 1512.31  365.11  -2
   1   9  -4 1512.31  365.11   1
   1  10  -4 1831.54  468.38  -2
  -1  -9   4 1831.54  468.38   1
  -1 -10   4 1859.23  344.89  -2
   1   9  -4 1859.23  344.89   1
  -1 -10   4 1781.44  391.98  -2
   1   9  -4 1781.44  391.98   1
  -1 -10   3  350.11  213.03  -2
   1   9  -3  350.11  213.03   1
   1  10  -3  587.55  293.92  -2
  -1  -9   3  587.55  293.92   1
  -1 -10   3  489.47  183.59  -2
   1   9  -3  489.47  183.59   1
  -1 -10   3  405.35  186.52  -2
   1   9  -3  405.35  186.52   1
  -1 -10   3  650.23  249.33  -2
   1   9  -3  650.23  249.33   1
  -1 -10   2 3570.63  565.61  -2
   1   9  -2 3570.63  565.61   1
  -1 -10   2 3029.77  458.84  -2
   1   9  -2 3029.77  458.84   1
  -1 -10   2 3011.49  462.11  -2
   1   9  -2 3011.49  462.11   1
  -1 -10   2 3513.81  519.04  -2
   1   9  -2 3513.81  519.04   1
   1  10  -2 3059.73  575.76  -2
  -1  -9   2 3059.73  575.76   1
   1  10  -1  -34.59  136.48  -2
  -1  -9   1  -34.59  136.48   1
  -1 -10   1  -77.33  173.86  -2
   1   9  -1  -77.33  173.86   1
  -1 -10   1   23.19  110.28  -2
   1   9  -1   23.19  110.28   1
  -1  -9   0  391.40  212.35   1
   1   9   0  742.82  249.27   1
   1   9   0  973.07  246.53   1
   1   9   1  167.45  128.98   1
  -1  -9  -1  333.00  187.98   1
   1   9   1   84.96  123.93   1
   1   9   1   63.84  171.11   1
  -1  -9  -2  953.60  327.28   1
   1   9   2  520.92  192.31   1
   1   9   2  543.47  245.21   1
   1   9   2  886.58  215.70   1
   1   9   3  671.17  248.80   1
   1   9   3  995.26  341.15   1
  -1  -9  -3 1089.32  299.37   1
  -1  -9  -3  757.03  272.34   1
   1   9   4 1745.92  429.95   1
   1   9   4 1606.39  430.24   1
  -1  -9  -4 2430.30  479.22   1
  -1  -9  -5  132.98  185.35   1
   1   9   5   52.27  206.90   1
   1   9   5   -6.03  179.48   1
   1   9   6 4484.34  752.01   1
   1   9   6 5431.93  858.11   1
  -1  -9  -6 3801.33  644.12   1
  -1 -11   4 3503.60  605.33  -2
   1  10  -4 3503.60  605.33   1
  -1 -11   4 2830.91  542.28  -2
   1  10  -4 2830.91  542.28   1
   1  11  -4 4169.98  736.42  -2
  -1 -10   4 4169.98  736.42   1
  -1 -11   3  356.08  179.06  -2
   1  10  -3  356.08  179.06   1
   1  11  -3   -9.87  217.64  -2
  -1 -10   3   -9.87  217.64   1
  -1 -11   3   34.53  155.76  -2
   1  10  -3   34.53  155.76   1
  -1 -11   3  419.82  189.67  -2
   1  10  -3  419.82  189.67   1
   1  11  -2  863.08  402.95  -2
  -1 -10   2  863.08  402.95   1
  -1 -11   2  859.07  316.10  -2
   1  10  -2  859.07  316.10   1
  -1 -11   2  797.33  265.31  -2
   1  10  -2  797.33  265.31   1
  -1 -11   2  966.24  301.20  -2
   1  10  -2  966.24  301.20   1
  -1 -11   2  383.23  244.63  -2
   1  10  -2  383.23  244.63   1
   1  11  -1 3972.72  666.38  -2
  -1 -10   1 3972.72  666.38   1
  -1 -11   1 5171.94  622.57  -2
   1  10  -1 5171.94  622.57   1
  -1 -11   1 3652.14  565.01  -2
   1  10  -1 3652.14  565.01   1
  -1 -11   1 5618.33  710.39  -2
   1  10  -1 5618.33  710.39   1
  -1 -11   1 4581.34  696.10  -2
   1  10  -1 4581.34  696.10   1
   1  10   0 1683.06  459.69   1
   1  10   0 1612.31  333.03   1
  -1 -10   0 1748.88  444.90   1
   1  10   0 1998.85  460.12   1
   1  10   1 3256.19  602.54   1
   1  10   1 2465.69  500.41   1
  -1 -10  -1 2214.20  494.76   1
   1  10   2  845.18  391.33   1
  -1 -10  -2 1098.29  353.66   1
  -1 -10  -2  672.35  332.25   1
   1  10   2  913.82  340.96   1
  -1 -10  -3 -198.51  157.28   1
   1  10   3  143.22  254.68   1
  -1 -10  -3  217.88  200.43   1
   1  10   3   32.55  242.71   1
   1  10   4 4834.32  784.78   1
   1  10   4 2818.17  585.97   1
  -2   9   2 2638.80  636.72   1
  -2   9   2 1986.11  508.93   1
   2  -9  -2 2314.85  461.34   1
   2  -9  -2 2082.75  477.70   1
   2  -9  -1 5408.38  742.15   1
   2  -9  -1 4231.59  654.35   1
  -2   9   1 3921.27  704.98   1
   2  -9  -1 4094.53  627.48   1
   2  -9   0 2737.75  537.29   1
  -2   9   0 2982.96  595.45   1
   2  -9   0 2744.81  518.73   1
   2  -9   1 3140.17  589.21   1
   2  -9   1 3091.40  567.58   1
  -2   9  -1 2464.18  551.41   1
  -2   9  -1 2730.07  474.67   1
   2  -9   2  233.04  253.49   1
   2  -9   2  311.92  201.53   1
  -2   9  -2  679.48  387.09   1
  -2   9  -2   43.46  171.75   1
  -2   9  -3 -177.05  196.38   1
   2  -9   3  192.48  219.63   1
   2  -9   3 -107.70  170.95   1
  -2   9  -3  400.79  322.01   1
   2  -9   4  539.15  258.17   1
  -2   9  -4  329.92  184.59   1
  -2   9  -4   98.07  154.13   1
  -2   6   5  261.61  202.79  -2
   2  -8  -5  261.61  202.79   1
  -2   6   5  425.94  261.67  -2
   2  -8  -5  425.94  261.67   1
   2  -6  -5  588.18  336.68  -2
  -2   8   5  588.18  336.68   1
  -2   6   4 2921.85  596.51  -2
   2  -8  -4 2921.85  596.51   1
  -2   6   4 2224.46  437.29  -2
   2  -8  -4 2224.46  437.29   1
   2  -6  -4 2386.66  588.69  -2
  -2   8   4 2386.66  588.69   1
   2  -6  -4 1839.32  525.77  -2
  -2   8   4 1839.32  525.77   1
  -2   8   3 -114.26  219.87   1
  -2   8   3   60.63  166.11   1
   2  -8  -3  -53.95  142.48   1
   2  -8  -3  238.67  213.37   1
  -2   8   3  127.96  217.82   1
   2  -8  -2 -201.16  146.88   1
  -2   8   2  108.81  173.92   1
   2  -8  -2   13.87  142.57   1
   2  -8  -2   92.14  116.95   1
  -2   8   2   46.77  142.98   1
   2  -8  -1 -105.36  148.13   1
  -2   8   1  312.44  247.12   1
   2  -8  -1  135.83  170.58   1
  -2   8   1    7.61  107.10   1
   2  -8  -1  -10.74  154.85   1
  -2   8   1   28.99  120.91   1
   2  -8  -1  -31.06  163.91   1
  -2   8   0  379.20  278.41   1
  -2   8   0  -29.09  154.58   1
   2  -8   0   89.79  115.23   1
   2  -8   0  236.95  213.43   1
  -2   8   0  344.41  191.45   1
  -2   8  -1   80.91  125.69   1
   2  -8   1  173.15  186.16   1
  -2   8  -1   99.03   98.55   1
  -2   8  -1   27.91  144.63   1
   2  -8   1  -64.06  198.69   1
   2  -8   2 5679.07  742.59   1
   2  -8   2 5634.30  696.65   1
  -2   8  -2 5396.43  655.21   1
  -2   8  -2 5713.58  766.17   1
  -2   8  -3 3763.78  564.74   1
   2  -8   3 5426.52  724.26   1
   2  -8   3 4046.99  625.93   1
  -2   8  -3 4007.21  637.27   1
  -2   8  -4 4547.38  694.43   1
  -2   8  -4 5596.60  720.56   1
   2  -8   4 5227.50  722.00   1
   2  -8   4 5167.07  747.50   1
   2  -8   5  273.05  167.37   1
  -2   8  -5  136.64  217.38   1
  -2   8  -5  310.35  202.61   1
   2  -8   5  706.36  304.68   1
   2  -8   6 3282.32  601.62   1
  -2   8  -6 2800.65  543.20   1
   2  -8   6 1966.95  456.08   1
  -2   8  -6 2659.47  522.37   1
  -2   7  -7  101.95  198.83  -2
   2  -8   7  101.95  198.83   1
   2  -7   7  454.59  269.93  -2
  -2   8  -7  454.59  269.93   1
  -2   7  -7  412.04  297.15  -2
   2  -8   7  412.04  297.15   1
  -2   5   7 2138.48  498.00  -2
   2  -7  -7 2138.48  498.00   1
   2  -5  -6  229.93  285.79  -2
  -2   7   6  229.93  285.79   1
  -2   5   6  322.80  179.11  -2
   2  -7  -6  322.80  179.11   1
  -2   5   6 -127.78  222.17  -2
   2  -7  -6 -127.78  222.17   1
   2  -5  -6  -55.97  199.87  -2
  -2   7   6  -55.97  199.87   1
  -2   5   5   52.06  128.05  -2
   2  -7  -5   52.06  128.05   1
  -2   5   5  250.14  171.80  -2
   2  -7  -5  250.14  171.80   1
   2  -5  -5  641.75  329.50  -2
  -2   7   5  641.75  329.50   1
   2  -5  -5   69.88  219.45  -2
  -2   7   5   69.88  219.45   1
  -2   5   4  448.67  236.78  -2
   2  -7  -4  448.67  236.78   1
   2  -5  -4  299.17  191.79  -2
  -2   7   4  299.17  191.79   1
   2  -5  -4  732.66  349.47  -2
  -2   7   4  732.66  349.47   1
  -2   5   4  337.44  198.41  -2
   2  -7  -4  337.44  198.41   1
  -2   7   313909.60 1195.72   1
   2  -7  -313817.10  831.65   1
   2  -7  -314047.50 1026.10   1
   2  -7  -313599.80  951.40   1
  -2   7   313838.20 1198.68   1
   2  -7  -217640.30 1109.49   1
   2  -7  -216383.50 1101.26   1
  -2   7   217631.80 1123.87   1
   2  -7  -217871.50 1023.44   1
  -2   7   216805.70 1288.73   1
  -2   7   216077.40  798.20   1
   2  -7  -218300.60 1139.15   1
   2  -7  -112838.40  920.50   1
  -2   7   115024.50 1182.91   1
   2  -7  -114924.40 1035.53   1
   2  -7  -113600.70  982.21   1
  -2   7   114909.10  984.55   1
   2  -7  -114513.00  981.34   1
  -2   7   113218.80  790.56   1
   2  -7   0 3949.98  549.16   1
  -2   7   0 3697.41  583.37   1
  -2   7   0 3090.09  421.19   1
  -2   7   0 3566.75  449.07   1
   2  -7   0 3034.66  461.95   1
  -2   7  -1   18.09  125.90   1
  -2   7  -1  -48.30  118.24   1
   2  -7   1 -101.60  146.74   1
   2  -7   1   11.81  108.81   1
  -2   7  -1  288.02  172.62   1
   2  -7   2 6165.51  718.33   1
  -2   7  -2 5272.60  687.99   1
   2  -7   2 5537.33  641.44   1
  -2   7  -2 5399.86  598.49   1
  -2   7  -3  991.72  276.66   1
   2  -7   3  904.18  294.26   1
  -2   7  -3  980.99  291.83   1
   2  -7   3 1189.61  296.51   1
  -2   7  -4 1330.37  343.11   1
  -2   7  -4 1670.44  268.77   1
  -2   7  -4  944.81  341.52   1
   2  -7   4 1572.47  379.35   1
   2  -7   4 1752.99  410.31   1
  -2   7  -5  305.87  228.44   1
  -2   7  -5  202.37  195.86   1
   2  -7   5  869.40  296.17   1
   2  -7   5  881.97  341.22   1
  -2   7  -6   65.54  180.87   1
   2  -7   6  118.94  210.49   1
  -2   7  -6  415.83  243.03   1
   2  -6   7 1355.36  367.83  -2
  -2   7  -7 1355.36  367.83   1
   2  -6   7 2021.32  456.34  -2
  -2   7  -7 2021.32  456.34   1
   2  -6   7 1855.43  367.02  -2
  -2   7  -7 1855.43  367.02   1
  -2   6  -7 1994.71  465.67  -2
   2  -7   7 1994.71  465.67   1
  -2   6  -7 1588.44  408.50  -2
   2  -7   7 1588.44  408.50   1
  -2   6  -8 2133.71  458.10  -2
   2  -7   8 2133.71  458.10   1
   2  -6   8 2321.00  531.82  -2
  -2   7  -8 2321.00  531.82   1
   2  -6   8 1978.47  471.99  -2
  -2   7  -8 1978.47  471.99   1
  -2   6  -8 1124.30  353.16  -2
   2  -7   8 1124.30  353.16   1
  -2   6   8 1445.51  489.10   1
  -2   6   8 1494.67  486.77   1
   2  -6  -8 1254.29  404.66   1
   2  -4  -7   44.22  179.83  -2
  -2   6   7   44.22  179.83   1
  -2   4   7 -105.36  176.24  -2
   2  -6  -7 -105.36  176.24   1
   2  -4  -7   15.90  146.62  -2
  -2   6   7   15.90  146.62   1
  -2   4   6 4561.63  474.94  -2
   2  -6  -6 4561.63  474.94   1
  -2   4   6 3795.02  566.39  -2
   2  -6  -6 3795.02  566.39   1
   2  -4  -6 4603.39  740.39  -2
  -2   6   6 4603.39  740.39   1
   2  -4  -6 3790.11  680.12  -2
  -2   6   6 3790.11  680.12   1
  -2   4   5 1743.40  317.02  -2
   2  -6  -5 1743.40  317.02   1
  -2   4   5 1696.57  398.57  -2
   2  -6  -5 1696.57  398.57   1
   2  -4  -5 1486.74  406.17  -2
  -2   6   5 1486.74  406.17   1
   2  -4  -5 1900.26  453.45  -2
  -2   6   5 1900.26  453.45   1
  -2   4   4 2200.91  364.35  -2
   2  -6  -4 2200.91  364.35   1
   2  -4  -4 2950.89  533.69  -2
  -2   6   4 2950.89  533.69   1
   2  -4  -4 2356.83  492.66  -2
  -2   6   4 2356.83  492.66   1
  -2   4   4 2459.95  413.55  -2
   2  -6  -4 2459.95  413.55   1
  -2   4   4 2355.29  304.67  -2
   2  -6  -4 2355.29  304.67   1
   2  -4  -4 1391.86  151.85  -2
  -2   6   4 1391.86  151.85   1
  -2   6   3  192.21  112.97   1
   2  -6  -3  -75.01  101.68   1
   2  -6  -3   48.63  119.26   1
  -2   6   3  384.97  241.88   1
  -2   6   3 -162.34  157.57   1
   2  -6  -3   78.35  109.49   1
   2  -6  -2 5661.11  573.08   1
  -2   6   2 6058.08  715.55   1
   2  -6  -2 5440.96  589.42   1
   2  -6  -2 5390.29  564.46   1
   2  -6  -2 5952.10  551.43   1
   2  -6  -1  888.95  251.79   1
   2  -6  -1  827.37  231.62   1
   2  -6  -1  683.97  227.57   1
  -2   6   1  504.54  191.39   1
  -2   6   1  745.57  272.77   1
  -2   6   012240.60  982.69   1
  -2   6   011276.20  767.20   1
  -2   6   011822.80  884.21   1
   2  -6   011909.90  857.27   1
   2  -6   011274.50  821.71   1
   2  -6   1   85.46  130.93   1
  -2   6  -1   40.40  122.74   1
  -2   6  -1  290.04  212.40   1
   2  -6   1  109.61  137.09   1
   2  -6   2  109288    2709   1
  -2   6  -2  107603    2854   1
   2  -6   2  107648    2618   1
   2  -6   321198.00 1161.36   1
  -2   6  -321555.30 1278.58   1
  -2   6  -320964.80  910.78   1
   2  -6   320846.40 1205.18   1
  -2   6  -4 7826.15  549.95   1
   2  -6   4 8355.47  756.73   1
  -2   6  -4 7302.28  740.46   1
   2  -6   4 8740.13  805.78   1
  -2   6  -5  583.46  212.35   1
   2  -6   5 1339.56  344.23   1
   2  -6   5 1033.00  295.17   1
  -2   6  -5  686.04  167.33   1
  -2   6  -5  710.77  288.19   1
   2  -6   6   12.57  168.07   1
  -2   6  -6  170.06  165.72   1
  -2   6  -6  -58.84  142.99   1
   2  -6   6  343.41  190.56   1
  -2   5  -7   38.81  144.51  -2
   2  -6   7   38.81  144.51   1
  -2   5  -7  505.67  240.65  -2
   2  -6   7  505.67  240.65   1
   2  -5   7 1023.07  372.74  -2
  -2   6  -7 1023.07  372.74   1
   2  -5   7  612.85  226.41  -2
  -2   6  -7  612.85  226.41   1
   2  -5   7  296.08  165.70  -2
  -2   6  -7  296.08  165.70   1
   2  -5   8  464.16  294.68  -2
  -2   6  -8  464.16  294.68   1
   2  -5   8   29.94  169.45  -2
  -2   6  -8   29.94  169.45   1
  -2   5  -8  224.90  204.46  -2
   2  -6   8  224.90  204.46   1
  -2   5  -8  432.43  253.26  -2
   2  -6   8  432.43  253.26   1
   2  -5   9  345.43  208.00  -2
  -2   6  -9  345.43  208.00   1
  -2   5  -9  151.68  249.77  -2
   2  -6   9  151.68  249.77   1
   2  -5   9  286.43  240.19  -2
  -2   6  -9  286.43  240.19   1
  -2   5  -9  362.25  251.68  -2
   2  -6   9  362.25  251.68   1
  -2   5   9   14.60  226.44   1
   2  -5  -9 -128.09  209.31   1
  -2   5   8  471.71  349.77   1
   2  -5  -8  720.44  278.95   1
  -2   3   7  322.61  202.83  -2
   2  -5  -7  322.61  202.83   1
   2  -3  -7  481.02  317.70  -2
  -2   5   7  481.02  317.70   1
   2  -3  -6  789.62  361.29  -2
  -2   5   6  789.62  361.29   1
   2  -3  -6  590.41  285.34  -2
  -2   5   6  590.41  285.34   1
  -2   3   6 1185.91  306.74  -2
   2  -5  -6 1185.91  306.74   1
  -2   3   5 7713.09  728.21  -2
   2  -5  -5 7713.09  728.21   1
  -2   3   5 6533.98  441.03  -2
   2  -5  -5 6533.98  441.03   1
   2  -3  -5 7931.41  856.89  -2
  -2   5   5 7931.41  856.89   1
  -2   3   5 7057.68  542.50  -2
   2  -5  -5 7057.68  542.50   1
   2  -3  -5 8353.96  879.28  -2
  -2   5   5 8353.96  879.28   1
   2  -3  -4 1539.13  381.28  -2
  -2   5   4 1539.13  381.28   1
  -2   3   4 1615.32  241.58  -2
   2  -5  -4 1615.32  241.58   1
  -2   3   4 2224.91  323.78  -2
   2  -5  -4 2224.91  323.78   1
   2  -3  -4 1611.46  394.50  -2
  -2   5   4 1611.46  394.50   1
   2  -3  -4 1231.97  123.18  -2
  -2   5   4 1231.97  123.18   1
  -2   3   4 2219.89  393.20  -2
   2  -5  -4 2219.89  393.20   1
   2  -5  -317343.70  887.14   1
   2  -5  -316685.90  956.66   1
  -2   5   316304.10 1122.38   1
  -2   5   316492.90 1107.68   1
  -2   5   317191.60 1067.01   1
   2  -5  -316352.50  795.21   1
  -2   5   233116.70 1518.56   1
   2  -5  -233229.30 1257.93   1
   2  -5  -232662.10 1270.87   1
  -2   5   233162.90 1385.23   1
   2  -5  -233005.80 1214.19   1
   2  -5  -1 1572.30  286.96   1
  -2   5   1 1825.46  306.51   1
   2  -5  -1 2046.18  328.48   1
  -2   5   1 1993.84  382.45   1
  -2   5   1 1804.55  323.80   1
   2  -5  -1 1691.10  308.98   1
  -2   5   015863.80  920.33   1
  -2   5   016633.40 1049.38   1
   2  -5   015001.60  889.11   1
   2  -5   015282.80  866.36   1
  -2   5  -1 7893.04  717.71   1
   2  -5   1 7897.87  633.15   1
  -2   5  -1 8439.88  665.90   1
   2  -5   1 7491.31  686.28   1
   2  -5   1 8487.00  688.69   1
  -2   5  -2 3974.13  464.30   1
   2  -5   2 4167.48  501.77   1
   2  -5   2 4289.32  512.39   1
  -2   5  -2 3474.76  367.45   1
   2  -5   2 3680.39  436.26   1
  -2   5  -2 4320.22  535.26   1
   2  -5   3 5261.07  573.64   1
   2  -5   3 5523.06  589.87   1
  -2   5  -3 5390.83  591.12   1
  -2   5  -3 4727.27  426.49   1
   2  -5   3 4807.77  507.77   1
  -2   5  -3 5554.35  566.89   1
  -2   5  -419171.20 1124.64   1
  -2   5  -420135.80  605.72   1
   2  -5   421524.20 1160.99   1
   2  -5   419585.10 1043.14   1
  -2   5  -420219.00 1104.74   1
   2  -5   419698.00 1067.42   1
  -2   5  -419291.50  849.81   1
   2  -5   5 3865.82  502.42   1
   2  -5   5 4773.61  555.84   1
   2  -5   5 3549.94  376.17   1
  -2   5  -5 4166.00  553.09   1
   2  -5   6 1123.28  281.60   1
   2  -5   6 1009.28  231.24   1
   2  -5   6 1012.89  302.92   1
   2  -4   714501.30 1080.94  -2
  -2   5  -714501.30 1080.94   1
  -2   4  -717089.90 1178.33  -2
   2  -5   717089.90 1178.33   1
  -2   4  -716691.30 1097.41  -2
   2  -5   716691.30 1097.41   1
   2  -4   714928.10  768.68  -2
  -2   5  -714928.10  768.68   1
  -2   4  -714721.40  848.17  -2
   2  -5   714721.40  848.17   1
   2  -4   716976.40 1173.27  -2
  -2   5  -716976.40 1173.27   1
   2  -4   8  383.31  219.90  -2
  -2   5  -8  383.31  219.90   1
   2  -4   8  619.80  161.39  -2
  -2   5  -8  619.80  161.39   1
  -2   4  -8  818.35  309.13  -2
   2  -5   8  818.35  309.13   1
  -2   4  -8  489.51  230.25  -2
   2  -5   8  489.51  230.25   1
   2  -4   8  893.56  236.34  -2
  -2   5  -8  893.56  236.34   1
   2  -4   8  857.35  330.42  -2
  -2   5  -8  857.35  330.42   1
   2  -4   9 2230.98  472.46  -2
  -2   5  -9 2230.98  472.46   1
  -2   4  -9 1993.50  478.02  -2
   2  -5   9 1993.50  478.02   1
  -2   4  -9 2526.06  461.87  -2
   2  -5   9 2526.06  461.87   1
  -2   4 -10  615.30  282.96  -2
   2  -5  10  615.30  282.96   1
   2  -4  10  544.15  297.72  -2
  -2   5 -10  544.15  297.72   1
  -2   4 -10  753.51  345.40  -2
   2  -5  10  753.51  345.40   1
   2  -4 -10  334.89  243.65   1
   2  -4  -9   41.81  176.05   1
  -2   4   9  158.67  178.23   1
  -2   4   8 1584.63  432.40   1
   2  -4  -8 2033.70  442.87   1
  -2   2   7 2487.74  234.70  -2
   2  -4  -7 2487.74  234.70   1
   2  -2  -7 2387.66  495.85  -2
  -2   4   7 2387.66  495.85   1
  -2   2   7 2733.81  456.47  -2
   2  -4  -7 2733.81  456.47   1
  -2   2   6  146.49  155.16  -2
   2  -4  -6  146.49  155.16   1
  -2   2   6   28.82   74.95  -2
   2  -4  -6   28.82   74.95   1
  -2   2   5  234.46  114.37  -2
   2  -4  -5  234.46  114.37   1
  -2   2   5   67.69  107.02  -2
   2  -4  -5   67.69  107.02   1
  -2   2   4 6295.98  455.31  -2
   2  -4  -4 6295.98  455.31   1
   2  -2  -4 5642.23  658.38  -2
  -2   4   4 5642.23  658.38   1
  -2   2   4 5919.19  556.75  -2
   2  -4  -4 5919.19  556.75   1
   2  -2  -4 5490.53  577.08  -2
  -2   4   4 5490.53  577.08   1
   2  -2  -4 6338.44  671.18  -2
  -2   4   4 6338.44  671.18   1
   2  -2  -4 4503.25  235.66  -2
  -2   4   4 4503.25  235.66   1
  -2   4   3 5608.52  618.89   1
  -2   4   3 5736.93  557.07   1
   2  -4  -3 5755.05  443.93   1
   2  -4  -3 5789.58  520.19   1
  -2   4   3 5405.79  595.87   1
   2  -4  -2 1202.47  240.52   1
  -2   4   2  662.19  232.65   1
  -2   4   2  887.70  229.57   1
   2  -4  -2  941.80  199.10   1
   2  -4  -1 1827.84  285.28   1
   2  -4  -1 2368.70  309.20   1
   2  -4  -1 2271.23  317.40   1
  -2   4   1 2236.20  321.47   1
  -2   4   1 1995.04  337.49   1
   2  -4   016448.30  801.32   1
  -2   4   017688.00  863.77   1
  -2   4   017668.90  992.89   1
   2  -4   014815.90  795.43   1
  -2   4  -151154.40 1649.43   1
   2  -4   150860.40 1611.74   1
   2  -4   151098.30 1517.71   1
   2  -4   152432.50 1449.55   1
  -2   4  -149982.10 1351.94   1
  -2   4  -150616.50 1429.81   1
  -2   4  -2  261533    2949   1
  -2   4  -2  264711    3767   1
  -2   4  -2  258794    3301   1
   2  -4   2  262844    3677   1
   2  -4   2  269435    3261   1
  -2   4  -3 7183.09  578.31   1
  -2   4  -3 7181.66  637.48   1
   2  -4   3 7007.57  603.36   1
   2  -4   3 7121.54  562.38   1
  -2   4  -3 7103.56  500.82   1
   2  -4   3 7121.79  493.11   1
   2  -4   3 7153.85  621.93   1
   2  -4   4 7971.61  616.93   1
  -2   4  -4 7328.15  295.83   1
   2  -4   4 6811.26  491.83   1
  -2   4  -4 7297.55  521.03   1
  -2   4  -4 7302.04  644.38   1
   2  -4   4 7270.40  649.54   1
  -2   4  -4 7897.47  722.80   1
   2  -4   4 7492.83  609.73   1
   2  -4   4 8185.98  661.28   1
   2  -4   522970.90 1186.94   1
   2  -4   525879.40 1175.37   1
   2  -4   525746.30 1201.32   1
   2  -4   523718.40  967.84   1
  -2   4  -523917.80 1212.60   1
   2  -4   525138.00 1188.47   1
  -2   4  -6  437.07  196.78   1
   2  -4   6  543.79  212.10   1
   2  -4   6  854.44  257.64   1
   2  -4   6  817.14  207.47   1
  -2   3  -7  881.88  271.15  -2
   2  -4   7  881.88  271.15   1
   2  -3   7  353.15  128.84  -2
  -2   4  -7  353.15  128.84   1
  -2   3  -7  756.67  269.12  -2
   2  -4   7  756.67  269.12   1
  -2   3  -7  252.58  168.61  -2
   2  -4   7  252.58  168.61   1
   2  -3   7 1333.17  280.75  -2
  -2   4  -7 1333.17  280.75   1
   2  -3   7  751.66  274.22  -2
  -2   4  -7  751.66  274.22   1
   2  -3   8 3293.73  535.83  -2
  -2   4  -8 3293.73  535.83   1
  -2   3  -8 2879.48  490.03  -2
   2  -4   8 2879.48  490.03   1
   2  -3   8 3313.09  244.45  -2
  -2   4  -8 3313.09  244.45   1
  -2   3  -8 4552.43  540.01  -2
   2  -4   8 4552.43  540.01   1
   2  -3   8 3825.25  562.24  -2
  -2   4  -8 3825.25  562.24   1
  -2   3  -8 3785.05  478.36  -2
   2  -4   8 3785.05  478.36   1
   2  -3   9  -98.45  174.97  -2
  -2   4  -9  -98.45  174.97   1
  -2   3  -9  267.85  284.09  -2
   2  -4   9  267.85  284.09   1
  -2   3  -9  272.41  187.21  -2
   2  -4   9  272.41  187.21   1
   2  -3  10  703.98  315.40  -2
  -2   4 -10  703.98  315.40   1
  -2   3 -10  805.16  375.03  -2
   2  -4  10  805.16  375.03   1
  -2   3 -10 1168.00  343.27  -2
   2  -4  10 1168.00  343.27   1
   2  -4  11  380.22  242.84   1
   2  -4  11  247.13  185.60   1
  -2   4 -11 -327.27  256.78   1
  -2   3  10  576.65  294.20   1
   2  -3 -10  288.81  232.44   1
  -2   3   9 3012.00  621.93   1
   2  -3  -9 2560.88  491.70   1
  -2   3   8 9336.74  981.35   1
   2  -3  -8 9743.04  881.13   1
   2  -1  -7 9787.77  953.37  -2
  -2   3   7 9787.77  953.37   1
  -2   1   7 9979.19  825.84  -2
   2  -3  -7 9979.19  825.84   1
   2  -1  -7 8784.20  540.29  -2
  -2   3   7 8784.20  540.29   1
   2  -1  -612177.90 1011.18  -2
  -2   3   612177.90 1011.18   1
   2  -1  -610012.00  565.22  -2
  -2   3   610012.00  565.22   1
  -2   1   611355.90  433.68  -2
   2  -3  -611355.90  433.68   1
  -2   1   611213.00  814.32  -2
   2  -3  -611213.00  814.32   1
   2  -1  -526497.30 1178.40  -2
  -2   3   526497.30 1178.40   1
   2  -1  -523082.00 1288.78  -2
  -2   3   523082.00 1288.78   1
  -2   1   525204.70 1131.87  -2
   2  -3  -525204.70 1131.87   1
  -2   1   523411.10  718.91  -2
   2  -3  -523411.10  718.91   1
   2  -1  -524592.60 1184.33  -2
  -2   3   524592.60 1184.33   1
   2  -1  -4 1760.34  358.97  -2
  -2   3   4 1760.34  358.97   1
  -2   1   4 1522.47  218.37  -2
   2  -3  -4 1522.47  218.37   1
   2  -1  -4 1640.13  294.83  -2
  -2   3   4 1640.13  294.83   1
  -2   1   4 1406.41  191.99  -2
   2  -3  -4 1406.41  191.99   1
   2  -1  -4 1175.15  127.40  -2
  -2   3   4 1175.15  127.40   1
  -2   1   4 1603.38  268.83  -2
   2  -3  -4 1603.38  268.83   1
   2  -3  -354429.00 1298.57   1
   2  -3  -359173.10 1499.89   1
   2  -3  -353711.10 1238.13   1
  -2   3   358279.00 1590.88   1
  -2   3   358741.00 1861.77   1
   2  -3  -2 3748.81  348.38   1
   2  -3  -2 3135.80  315.11   1
  -2   3   2 3881.26  389.09   1
   2  -3  -2 3738.88  354.75   1
   2  -3  -1 8838.01  509.79   1
   2  -3  -1 7710.69  516.53   1
  -2   3   1 8448.85  537.03   1
   2  -3  -1 8305.87  497.61   1
   2  -3  -1 8589.84  564.84   1
   2  -3   089234.10 1979.83   1
  -2   3   094455.20 1806.76   1
   2  -3   090574.90 1623.36   1
  -2   3  -1 1573.10  227.40   1
  -2   3  -1 1808.07  244.79   1
   2  -3   1 1848.28  289.31   1
   2  -3   1 2278.32  266.94   1
   2  -3   222099.50  987.57   1
   2  -3   222894.50  841.79   1
   2  -3   222427.80  817.26   1
  -2   3  -222515.10  820.23   1
  -2   3  -223136.50  852.49   1
   2  -3   3 6817.67  490.25   1
  -2   3  -3 7389.09  517.95   1
   2  -3   3 6526.62  545.94   1
  -2   3  -3 6530.51  461.81   1
   2  -3   3 6481.50  484.78   1
  -2   3  -3 6776.66  327.90   1
   2  -3   3 6114.16  439.64   1
  -2   3  -412285.80  840.64   1
   2  -3   412153.20  779.05   1
   2  -3   412140.20  652.56   1
   2  -3   412460.40  736.69   1
  -2   3  -411629.60  288.03   1
   2  -3   412122.70  706.67   1
  -2   3  -412432.40  660.40   1
  -2   3  -5 7389.73  640.07   1
   2  -3   5 7232.01  586.12   1
   2  -3   5 8310.14  680.85   1
  -2   3  -5 6933.06  650.17   1
   2  -3   5 8048.33  633.56   1
   2  -3   5 7274.50  536.96   1
   2  -3   6 1350.20  290.58   1
   2  -3   6 1499.19  317.47   1
   2  -3   6 1540.80  287.40   1
   2  -3   6 1198.32  256.75   1
  -2   3  -6 1168.74  291.09   1
   2  -3   6 1333.27  264.70   1
  -2   2  -711350.90  876.77  -2
   2  -3   711350.90  876.77   1
   2  -2   710399.70  846.66  -2
  -2   3  -710399.70  846.66   1
   2  -2   711841.40  803.21  -2
  -2   3  -711841.40  803.21   1
  -2   2  -711877.30  808.52  -2
   2  -3   711877.30  808.52   1
   2  -2   7 9741.00  377.13  -2
  -2   3  -7 9741.00  377.13   1
  -2   2  -8 1418.99  304.39  -2
   2  -3   8 1418.99  304.39   1
  -2   2  -8 2302.84  378.95  -2
   2  -3   8 2302.84  378.95   1
  -2   2  -8 1425.14  358.04  -2
   2  -3   8 1425.14  358.04   1
   2  -2   8 1668.33  314.44  -2
  -2   3  -8 1668.33  314.44   1
  -2   2  -913814.30  917.18  -2
   2  -3   913814.30  917.18   1
  -2   2  -913187.90 1087.95  -2
   2  -3   913187.90 1087.95   1
   2  -2   913446.00 1026.34  -2
  -2   3  -913446.00 1026.34   1
   2  -2  10  387.53  247.01  -2
  -2   3 -10  387.53  247.01   1
  -2   2 -10   75.52  228.05  -2
   2  -3  10   75.52  228.05   1
  -2   2 -10  259.93  173.87  -2
   2  -3  10  259.93  173.87   1
  -2   3 -11  903.51  318.01   1
   2  -3  11 1025.33  381.84   1
   2  -3  11  813.19  265.28   1
  -2   2  11  718.80  341.90   1
   2  -2 -11  879.56  331.74   1
   2  -2 -10  210.27  206.82   1
  -2   2  10  881.60  341.16   1
  -2   2   9  906.82  338.28   1
   2  -2  -9  474.56  247.83   1
  -2   2   8  478.72  221.29   1
   2  -2  -8  342.94  157.83   1
  -2   0   7 2475.38  410.42  -2
   2  -2  -7 2475.38  410.42   1
   2   0  -7 2148.39  297.55  -2
  -2   2   7 2148.39  297.55   1
   2   0  -7 2929.08  493.50  -2
  -2   2   7 2929.08  493.50   1
   2   0  -615876.30  559.38  -2
  -2   2   615876.30  559.38   1
  -2   0   617554.80  977.40  -2
   2  -2  -617554.80  977.40   1
   2   0  -614566.70 1023.62  -2
  -2   2   614566.70 1023.62   1
   2   0  -616210.80  765.35  -2
  -2   2   616210.80  765.35   1
   2   0  -533936.30 1447.13  -2
  -2   2   533936.30 1447.13   1
  -2   0   536613.90  665.45  -2
   2  -2  -536613.90  665.45   1
  -2   0   535191.50 1267.83  -2
   2  -2  -535191.50 1267.83   1
   2   0  -534674.80 1070.16  -2
  -2   2   534674.80 1070.16   1
   2   0  -533656.20  763.28  -2
  -2   2   533656.20  763.28   1
   2   0  -536975.80 1310.44  -2
  -2   2   536975.80 1310.44   1
   2   0  -414646.50  771.90  -2
  -2   2   414646.50  771.90   1
   2   0  -413753.00  667.34  -2
  -2   2   413753.00  667.34   1
   2   0  -416872.50  981.08  -2
  -2   2   416872.50  981.08   1
  -2   0   413696.80  486.68  -2
   2  -2  -413696.80  486.68   1
   2   0  -414206.30  472.10  -2
  -2   2   414206.30  472.10   1
  -2   0   414456.90  678.99  -2
   2  -2  -414456.90  678.99   1
  -2   0   414922.60  772.05  -2
   2  -2  -414922.60  772.05   1
  -2   2   3 4808.82  278.90   1
   2  -2  -3 4430.11  303.09   1
  -2   2   3 4274.16  471.56   1
   2  -2  -3 4910.34  378.88   1
  -2   2   3 4685.66  408.60   1
  -2   2   3 4843.74  402.01   1
  -2   2   3 4243.03  348.05   1
   2  -2  -3 4665.32  395.72   1
   2  -2  -243645.50 1097.62   1
   2  -2  -243253.50  973.08   1
   2  -2  -245560.10 1097.77   1
   2  -2  -140910.60  939.82   1
   2  -2  -139903.50  985.17   1
   2  -2  -139725.50 1074.95   1
  -2   2   141576.40  992.79   1
   2  -2   0  113088    1731   1
   2  -2   0  112112    1973   1
   2  -2   0  119236    1519   1
   2  -2   0  117564    1961   1
  -2   2   0  114791    1903   1
  -2   2   0  120715    1565   1
   2  -2   119407.60  610.83   1
   2  -2   118724.20  725.99   1
  -2   2  -119031.50  611.48   1
   2  -2   118314.10  730.29   1
  -2   2  -119618.20  732.35   1
   2  -2   118717.90  805.08   1
  -2   2  -2  231727    2028   1
  -2   2  -2  234052    2377   1
   2  -2   2  228221    2482   1
   2  -2   2  232092    2886   1
  -2   2  -2  231680    2939   1
  -2   2  -2  236863    2554   1
   2  -2   2  241110    2333   1
  -2   2  -3  194215    1506   1
   2  -2   3  198512    2578   1
  -2   2  -3  200212    2467   1
   2  -2   3  195740    2410   1
   2  -2   3  193442    2787   1
  -2   2  -3  193179    2802   1
   2  -2   3  198404    2367   1
   2  -2   3  201536    2366   1
   2  -2   447631.60 1310.97   1
   2  -2   448707.10 1292.01   1
   2  -2   446653.70 1277.32   1
   2  -2   449692.80 1522.11   1
   2  -2   449654.20 1331.81   1
  -2   2  -448406.40 1289.72   1
  -2   2  -5  750.54  228.20   1
   2  -2   513467.70  838.86   1
   2  -2   513895.40  778.08   1
  -2   2  -5  355.16  155.66   1
   2  -2   513549.10  743.81   1
   2  -2   514445.20  758.09   1
  -2   2  -634512.60 1505.92   1
  -2   2  -634779.20 1328.88   1
   2  -2   634776.40 1432.27   1
  -2   2  -635257.20 1442.16   1
   2  -2   636002.90 1384.84   1
   2  -2   635325.80 1235.15   1
   2  -2   634483.60 1291.47   1
   2  -2   635158.20 1277.81   1
  -2   1  -7   95.26  149.18  -2
   2  -2   7   95.26  149.18   1
  -2   1  -7   48.02  102.99  -2
   2  -2   7   48.02  102.99   1
  -2   1  -7 -113.33  157.18  -2
   2  -2   7 -113.33  157.18   1
   2  -1   7   42.49   90.69  -2
  -2   2  -7   42.49   90.69   1
  -2   1  -7  -88.22  128.99  -2
   2  -2   7  -88.22  128.99   1
   2  -1   7  425.48  167.26  -2
  -2   2  -7  425.48  167.26   1
  -2   1  -7  290.65  131.18  -2
   2  -2   7  290.65  131.18   1
   2  -1   812854.30  941.01  -2
  -2   2  -812854.30  941.01   1
  -2   1  -810813.50  895.44  -2
   2  -2   810813.50  895.44   1
  -2   1  -813207.70  789.61  -2
   2  -2   813207.70  789.61   1
  -2   1  -813734.90 1084.72  -2
   2  -2   813734.90 1084.72   1
  -2   1  -813823.40  969.66  -2
   2  -2   813823.40  969.66   1
   2  -1   814594.90  940.47  -2
  -2   2  -814594.90  940.47   1
  -2   1  -9  579.71  248.99  -2
   2  -2   9  579.71  248.99   1
   2  -1   9  425.78  211.91  -2
  -2   2  -9  425.78  211.91   1
  -2   1  -9  841.75  215.35  -2
   2  -2   9  841.75  215.35   1
  -2   1  -9  905.60  362.35  -2
   2  -2   9  905.60  362.35   1
   2  -1   9  671.63  262.93  -2
  -2   2  -9  671.63  262.93   1
   2  -1  10   26.05  133.89  -2
  -2   2 -10   26.05  133.89   1
  -2   1 -10  412.30  275.19  -2
   2  -2  10  412.30  275.19   1
  -2   1 -10  286.52  237.59  -2
   2  -2  10  286.52  237.59   1
   2  -1  10  321.55  204.42  -2
  -2   2 -10  321.55  204.42   1
  -2   1 -10   98.95  133.96  -2
   2  -2  10   98.95  133.96   1
   2  -2  11 4117.14  732.37   1
  -2   2 -11 2865.54  571.93   1
   2  -2  11 3662.18  679.95   1
   2  -2  11 3457.57  428.10   1
  -2   2 -11 3780.30  606.39   1
   2  -2  12  700.45  360.02   1
  -2   2 -12  184.32  209.80   1
   2  -2  12   68.39  239.06   1
  -2   2 -12  814.91  302.45   1
   2  -1 -11  395.06  238.81   1
  -2   1  11  -37.38  173.89   1
   2  -1 -10   89.49  165.68   1
  -2   1  10    9.02  201.00   1
  -2   1   9  569.43  207.02   1
  -2   1   9  301.38  234.25   1
   2  -1  -9  333.41  197.09   1
  -2   1   9  442.42  152.01   1
   2  -1  -9  415.68  154.75   1
  -2   1   8 4526.11  617.10   1
   2  -1  -8 5086.35  414.10   1
   2  -1  -8 5037.02  615.88   1
  -2   1   8 4282.89  418.07   1
   2   1  -715393.50 1069.54  -2
  -2   1   715393.50 1069.54   1
  -2  -1   715282.20  958.19  -2
   2  -1  -715282.20  958.19   1
  -2  -1   716685.00  704.79  -2
   2  -1  -716685.00  704.79   1
   2   1  -6 3636.39  330.48  -2
  -2   1   6 3636.39  330.48   1
   2   1  -6 4585.65  519.14  -2
  -2   1   6 4585.65  519.14   1
  -2  -1   6 4064.46  337.54  -2
   2  -1  -6 4064.46  337.54   1
   2   1  -5 3867.03  471.23  -2
  -2   1   5 3867.03  471.23   1
  -2  -1   5 2430.79  331.82  -2
   2  -1  -5 2430.79  331.82   1
   2   1  -5 3692.46  367.83  -2
  -2   1   5 3692.46  367.83   1
   2   1  -5 2405.39  333.46  -2
  -2   1   5 2405.39  333.46   1
   2   1  -5 1906.06  208.06  -2
  -2   1   5 1906.06  208.06   1
   2   1  -4 1260.87  266.58  -2
  -2   1   4 1260.87  266.58   1
  -2  -1   4 1094.95  101.00  -2
   2  -1  -4 1094.95  101.00   1
   2   1  -4 1281.21  233.87  -2
  -2   1   4 1281.21  233.87   1
   2   1  -4 1376.05  227.78  -2
  -2   1   4 1376.05  227.78   1
   2   1  -4 1370.40  171.98  -2
  -2   1   4 1370.40  171.98   1
  -2  -1   4 1457.21  248.49  -2
   2  -1  -4 1457.21  248.49   1
   2  -1  -361655.60  876.17   1
  -2   1   360872.80 1327.72   1
   2  -1  -362756.10 1323.42   1
  -2   1   359738.30 1547.90   1
  -2   1   363018.00 1024.35   1
   2  -1  -358618.20 1286.22   1
  -2   1   362066.80 1317.37   1
   2  -1  -264705.10 1009.45   1
  -2   1   264602.90 1384.93   1
   2  -1  -266445.10 1189.23   1
  -2   1   264817.40 1314.02   1
   2  -1  -263300.90 1276.48   1
  -2   1   266375.20 1186.19   1
  -2   1   161270.00  960.81   1
  -2   1   161668.30 1296.41   1
   2  -1  -157891.90 1198.55   1
  -2   1   158382.30 1207.93   1
  -2   1   158227.20 1061.89   1
   2  -1  -160798.40  959.33   1
   2  -1  -159966.80 1046.94   1
   2  -1   052639.50  730.09   1
  -2   1   050305.00 1051.64   1
  -2   1   055246.40 1214.91   1
   2  -1   050844.60 1158.46   1
   2  -1   051070.80 1157.82   1
  -2   1   054026.70  768.10   1
  -2   1   051711.80 1158.45   1
   2  -1   051252.10 1030.44   1
   2  -1   1 1335.10  189.44   1
   2  -1   1 1544.92  199.44   1
   2  -1   1 1376.62  122.90   1
  -2   1  -1 1048.03  166.60   1
   2  -1   1 1536.88  190.24   1
  -2   1  -1 1452.53  197.03   1
  -2   1  -1 1357.32  123.55   1
  -2   1  -1 1574.04  172.81   1
   2  -1   231622.90  720.50   1
   2  -1   231698.80  906.12   1
  -2   1  -232462.60  682.00   1
   2  -1   232538.90  999.90   1
   2  -1   230500.50  730.85   1
  -2   1  -231522.60  905.18   1
  -2   1  -232952.80  929.35   1
   2  -1   3 1756.65  202.30   1
   2  -1   3 1932.14  262.82   1
  -2   1  -3 1776.59  152.35   1
   2  -1   3 1806.22  152.27   1
  -2   1  -3 1816.34  238.95   1
  -2   1  -3 2048.79  249.53   1
   2  -1   3 1873.34  223.46   1
  -2   1  -3 2109.29  299.49   1
   2  -1   3 1748.10  226.01   1
   2  -1   3 1792.34  259.48   1
  -2   1  -4  476.31  119.04   1
   2  -1   4  428.02  112.37   1
  -2   1  -4  536.16  142.47   1
   2  -1   4  739.38  169.23   1
   2  -1   4  795.46  200.11   1
   2  -1   4  486.21  138.32   1
   2  -1   4  522.30  175.29   1
  -2   1  -4  498.86  151.38   1
   2  -1   4  512.13   83.91   1
   2  -1   523328.50 1111.45   1
   2  -1   522094.70  535.52   1
  -2   1  -522816.90  882.84   1
   2  -1   523909.60  886.62   1
   2  -1   523591.90  888.36   1
  -2   1  -521563.90  372.67   1
   2  -1   523577.30 1067.67   1
   2  -1   522308.10  970.68   1
  -2   1  -523443.00  950.62   1
   2  -1   6 5269.49  625.79   1
  -2   1  -6   68.61   61.40   1
   2  -1   6 5152.71  290.31   1
  -2   1  -6 6318.44  503.05   1
   2  -1   6   13.62   51.15   1
  -2   1  -6 5883.47  564.27   1
   2  -1   6 5867.43  557.28   1
  -2   1  -6  -41.03   82.40   1
   2  -1   6 5453.77  582.47   1
  -2   0  -796419.10 1874.92  -2
   2  -1   796419.10 1874.92   1
  -2   0  -797569.00 2522.25  -2
   2  -1   797569.00 2522.25   1
   2   0   796577.40 2299.01  -2
  -2   1  -796577.40 2299.01   1
  -2   0  -795398.40 2378.98  -2
   2  -1   795398.40 2378.98   1
  -2   0  -796082.50 2592.45  -2
   2  -1   796082.50 2592.45   1
  -2   0  -790924.00 1344.44  -2
   2  -1   790924.00 1344.44   1
  -2   0  -798804.20 2208.40  -2
   2  -1   798804.20 2208.40   1
   2   0   792649.20 2246.26  -2
  -2   1  -792649.20 2246.26   1
  -2   0  -830801.80 1093.38  -2
   2  -1   830801.80 1093.38   1
  -2   0  -831773.40 1619.27  -2
   2  -1   831773.40 1619.27   1
   2   0   830595.60 1402.10  -2
  -2   1  -830595.60 1402.10   1
  -2   0  -830415.00  852.80  -2
   2  -1   830415.00  852.80   1
   2   0   830466.80 1378.79  -2
  -2   1  -830466.80 1378.79   1
   2   0   9 2485.06  402.79  -2
  -2   1  -9 2485.06  402.79   1
  -2   0  -9 1951.60  291.55  -2
   2  -1   9 1951.60  291.55   1
   2   0   9 2009.05  403.30  -2
  -2   1  -9 2009.05  403.30   1
  -2   0  -9 2424.76  509.62  -2
   2  -1   9 2424.76  509.62   1
  -2   0  -9 1553.59  215.59  -2
   2  -1   9 1553.59  215.59   1
   2   0  10 2707.39  435.64  -2
  -2   1 -10 2707.39  435.64   1
  -2   0 -10 3002.87  362.64  -2
   2  -1  10 3002.87  362.64   1
   2   0  10 2270.01  464.69  -2
  -2   1 -10 2270.01  464.69   1
  -2   0 -10 2330.87  548.76  -2
   2  -1  10 2330.87  548.76   1
  -2   0 -10 2517.22  283.81  -2
   2  -1  10 2517.22  283.81   1
  -2   1 -11   -8.73  152.18   1
   2  -1  11  344.13  276.90   1
  -2   1 -11   89.34  181.79   1
  -2   1 -12  -47.11  215.93   1
   2  -1  12   -0.69  243.71   1
  -2   1 -12  122.45  176.71   1
   2   0 -11  545.58  310.92   1
  -2   0  11  212.57  258.48   1
  -2   0  10  241.04  216.35   1
   2   0 -10  288.57  112.88   1
   2   0 -10  361.51  223.58   1
   2   0  -9   68.40  192.38   1
  -2   0   9  222.11  188.56   1
  -2   0   9  -24.95  114.02   1
  -2   0   9 -142.18  193.13   1
   2   0  -9  156.17  120.49   1
  -2   0   8 2785.76  328.71   1
  -2   0   8 3136.12  527.98   1
  -2   0   8 3229.41  444.60   1
   2   0  -8 3584.04  383.69   1
   2   0  -8 3104.25  481.21   1
  -2  -2   7  255.74  154.40  -2
   2   0  -7  255.74  154.40   1
   2   2  -7  353.19  125.04  -2
  -2   0   7  353.19  125.04   1
   2   2  -7  288.41  173.28  -2
  -2   0   7  288.41  173.28   1
   2   2  -7  -55.64  110.12  -2
  -2   0   7  -55.64  110.12   1
  -2  -2   7  385.96  144.18  -2
   2   0  -7  385.96  144.18   1
   2   2  -611323.70  823.09  -2
  -2   0   611323.70  823.09   1
  -2  -2   610924.00  829.45  -2
   2   0  -610924.00  829.45   1
  -2  -2   612175.00  798.24  -2
   2   0  -612175.00  798.24   1
   2   2  -611511.00  618.09  -2
  -2   0   611511.00  618.09   1
  -2  -2   611972.80  609.82  -2
   2   0  -611972.80  609.82   1
   2   2  -611487.90  759.37  -2
  -2   0   611487.90  759.37   1
   2   2  -611144.00  611.18  -2
  -2   0   611144.00  611.18   1
   2   2  -513217.20  792.19  -2
  -2   0   513217.20  792.19   1
   2   2  -512065.80  600.59  -2
  -2   0   512065.80  600.59   1
  -2  -2   513063.50  745.87  -2
   2   0  -513063.50  745.87   1
   2   2  -514001.40  763.62  -2
  -2   0   514001.40  763.62   1
   2   2  -514100.00  745.60  -2
  -2   0   514100.00  745.60   1
   2   2  -511903.30  580.84  -2
  -2   0   511903.30  580.84   1
  -2  -2   512245.80  585.50  -2
   2   0  -512245.80  585.50   1
  -2   0   3  415.37  147.01   1
   2   0  -3  357.93   79.02   1
  -2   0   3  115.88   76.35   1
   2   0  -3  202.05  126.01   1
  -2   0   3   49.99   80.73   1
   2   0  -3   35.80   72.40   1
   2   0  -215713.70  408.33   1
  -2   0   215041.30  417.23   1
   2   0  -215553.90  639.66   1
   2   0  -215929.50  553.98   1
  -2   0   216195.20  537.79   1
  -2   0   215790.70  537.04   1
  -2   0   215463.40  619.80   1
  -2   0   215625.40  650.05   1
   2   0  -143298.30  713.14   1
  -2   0   141436.20  759.83   1
   2   0  -143165.00  761.14   1
   2   0  -142328.40  999.38   1
  -2   0   143090.80 1030.26   1
  -2   0   143336.10  911.26   1
  -2   0   141813.50  690.71   1
   2   0   073489.70 1232.52   1
   2   0   068968.60 1127.18   1
   2   0   068918.30 1044.98   1
  -2   0   071371.50 1153.63   1
  -2   0   070130.40 1142.80   1
  -2   0   069574.50 1064.59   1
   2   0   070956.40 1254.57   1
   2   0   168148.30 1264.63   1
  -2   0  -169326.20 1204.39   1
   2   0   169202.30 1204.37   1
  -2   0  -168495.00 1119.73   1
   2   0   168883.70 1210.21   1
  -2   0  -169129.50 1060.91   1
   2   0   169913.70 1075.07   1
  -2   0  -2 1876.60  227.45   1
   2   0   2 1898.88  222.16   1
   2   0   2 1979.02  206.77   1
   2   0   2 1982.33  179.75   1
  -2   0  -2 1661.72  141.34   1
  -2   0  -2 1922.04  174.72   1
  -2   0  -2 2021.28  240.10   1
   2   0   2 2203.90  246.82   1
  -2   0  -2 2079.03  242.53   1
  -2   0  -2 1791.91  154.12   1
  -2   0  -2 2165.02  213.33   1
   2   0   2 1752.37  136.14   1
   2   0   3  214052    2203   1
  -2   0  -3  208067    1486   1
  -2   0  -3  210322    2218   1
   2   0   3  213533    2622   1
   2   0   3  210718    1916   1
  -2   0  -3  210777    2013   1
  -2   0  -3  211570    2463   1
   2   0   3  211200    1835   1
   2   0   3  212019    2531   1
  -2   0  -3  208276    2636   1
   2   0   414756.10  525.05   1
   2   0   415341.70  790.65   1
   2   0   415690.00  623.06   1
   2   0   415371.50  618.01   1
  -2   0  -415247.40  638.46   1
   2   0   416116.40  799.35   1
  -2   0  -415676.00  735.81   1
  -2   0  -415193.70  338.33   1
   2   0   414986.40  736.32   1
  -2   0  -414892.60  624.84   1
   2   0   519852.80  997.16   1
   2   0   521440.20  762.03   1
  -2   0  -521446.80  869.03   1
   2   0   521849.80 1028.36   1
   2   0   522101.90  843.66   1
  -2   0  -521173.90  775.44   1
   2   0   521560.50  689.39   1
   2   0   521747.20  971.81   1
  -2   0  -6   14.69   77.68   1
   2   0   6  189.22  115.82   1
  -2   0  -6  -57.07   76.19   1
   2   0   6  111.82   99.25   1
   2   0   6   78.71  131.51   1
  -2   0  -6   28.25   45.93   1
  -2   0  -6  125.22  118.81   1
   2   0   6  -65.53  126.32   1
   2   1   7 9868.36  723.43  -2
  -2   0  -7 9868.36  723.43   1
  -2  -1  -710135.10  873.36  -2
   2   0   710135.10  873.36   1
   2   1   7 9035.69  555.04  -2
  -2   0  -7 9035.69  555.04   1
   2   1   711236.70  898.62  -2
  -2   0  -711236.70  898.62   1
  -2  -1  -7 9228.06  548.74  -2
   2   0   7 9228.06  548.74   1
  -2  -1  -710317.30  858.85  -2
   2   0   710317.30  858.85   1
  -2  -1  -7 8808.67  689.45  -2
   2   0   7 8808.67  689.45   1
  -2  -1  -710038.50  814.16  -2
   2   0   710038.50  814.16   1
   2   1   7 9527.76  740.85  -2
  -2   0  -7 9527.76  740.85   1
  -2  -1  -811539.40  982.80  -2
   2   0   811539.40  982.80   1
   2   1   8 9380.62  574.00  -2
  -2   0  -8 9380.62  574.00   1
   2   1   8 9639.72  775.46  -2
  -2   0  -8 9639.72  775.46   1
   2   1   9  334.21  184.90  -2
  -2   0  -9  334.21  184.90   1
   2   1   9  438.86  264.92  -2
  -2   0  -9  438.86  264.92   1
  -2  -1  -9  419.42  191.20  -2
   2   0   9  419.42  191.20   1
  -2  -1  -9  684.33  188.39  -2
   2   0   9  684.33  188.39   1
  -2  -1 -10 8921.28  995.49  -2
   2   0  10 8921.28  995.49   1
  -2  -1 -10 9090.01  556.27  -2
   2   0  10 9090.01  556.27   1
   2   1  10 9572.19  765.64  -2
  -2   0 -10 9572.19  765.64   1
   2   1  10 9004.08  877.05  -2
  -2   0 -10 9004.08  877.05   1
   2   0  11  292.05  244.21   1
  -2   0 -11  266.01  252.57   1
  -2   0 -11  319.00  161.68   1
   2   0  12 1039.36  411.71   1
  -2   0 -12  417.70  302.01   1
  -2   0 -12 1071.57  302.02   1
   2   1 -11  -63.65  225.85   1
  -2  -1  11 -130.60  250.18   1
   2   1 -11  -10.14  114.45   1
   2   1 -10  313.53  151.94   1
   2   1 -10  605.93  291.86   1
  -2  -1  10  216.20  156.85   1
   2   1  -9 3659.44  557.73   1
  -2  -1   9 3565.25  371.67   1
  -2  -1   9 3168.37  557.85   1
   2   1  -9 3677.82  446.51   1
   2   1  -8 2904.21  379.95   1
  -2  -1   8 2203.39  446.56   1
   2   1  -8 2258.23  417.66   1
  -2  -1   8 2660.70  322.93   1
  -2  -1   8 2449.65  409.38   1
  -2  -3   7 1271.90  315.30  -2
   2   1  -7 1271.90  315.30   1
   2   3  -7 1182.93  304.68  -2
  -2  -1   7 1182.93  304.68   1
   2   3  -7  834.69  190.89  -2
  -2  -1   7  834.69  190.89   1
  -2  -3   7  926.11  257.46  -2
   2   1  -7  926.11  257.46   1
  -2  -3   7  932.79  220.12  -2
   2   1  -7  932.79  220.12   1
   2   3  -621686.50 1117.71  -2
  -2  -1   621686.50 1117.71   1
   2   3  -621329.40  911.94  -2
  -2  -1   621329.40  911.94   1
   2   3  -621181.50  809.47  -2
  -2  -1   621181.50  809.47   1
   2   3  -622153.90 1048.05  -2
  -2  -1   622153.90 1048.05   1
  -2  -3   621698.80 1081.94  -2
   2   1  -621698.80 1081.94   1
  -2  -3   620471.40  872.48  -2
   2   1  -620471.40  872.48   1
   2   3  -521239.80  969.62  -2
  -2  -1   521239.80  969.62   1
   2   3  -517722.70  318.98  -2
  -2  -1   517722.70  318.98   1
   2   3  -520473.20  754.00  -2
  -2  -1   520473.20  754.00   1
  -2  -3   520398.10  948.79  -2
   2   1  -520398.10  948.79   1
   2   3  -519668.90  902.03  -2
  -2  -1   519668.90  902.03   1
  -2  -3   520626.50  955.69  -2
   2   1  -520626.50  955.69   1
  -2  -3   518211.10  773.72  -2
   2   1  -518211.10  773.72   1
   2   3  -519234.30  802.47  -2
  -2  -1   519234.30  802.47   1
   2   3  -420321.50  892.76  -2
  -2  -1   420321.50  892.76   1
  -2  -3   422829.00  900.52  -2
   2   1  -422829.00  900.52   1
   2   3  -421272.60  431.11  -2
  -2  -1   421272.60  431.11   1
   2   3  -424292.00  990.92  -2
  -2  -1   424292.00  990.92   1
  -2  -3   421469.70  913.51  -2
   2   1  -421469.70  913.51   1
   2   3  -421928.70  858.06  -2
  -2  -1   421928.70  858.06   1
   2   3  -417761.20  718.06  -2
  -2  -1   417761.20  718.06   1
  -2  -3   422741.70  800.22  -2
   2   1  -422741.70  800.22   1
   2   3  -423160.40  822.20  -2
  -2  -1   423160.40  822.20   1
  -2  -1   3 2205.46  152.93   1
  -2  -1   3 2158.25  243.22   1
   2   1  -3 2440.69  260.30   1
  -2  -1   3  940.96  179.80   1
  -2  -1   3 2126.78  239.23   1
  -2  -1   3 2485.87  251.08   1
  -2  -1   3 2311.92  278.79   1
   2   1  -3 2259.63  241.48   1
   2   1  -3 2286.23  261.64   1
  -2  -1   3 2528.83  252.06   1
  -2  -1   2  142762    1728   1
   2   1  -2  148417    1717   1
  -2  -1   2  144321    1830   1
   2   1  -2  146170    1298   1
  -2  -1   2  149389    1686   1
   2   1  -2  143008    1586   1
  -2  -1   2  146451    2032   1
   2   1  -2  144367    1719   1
  -2  -1   2  148535    1758   1
  -2  -1   2  145256    1317   1
   2   1  -2  143555    1764   1
  -2  -1   2  141606    1578   1
  -2  -1   127409.60  733.48   1
  -2  -1   125913.70  598.74   1
  -2  -1   126118.40  575.83   1
  -2  -1   125183.60  728.77   1
   2   1  -126060.50  584.48   1
   2   1  -126803.10  819.53   1
   2   1  -126308.10  698.24   1
   2   1  -127202.00  734.81   1
  -2  -1   125329.10  528.01   1
  -2  -1   126758.20  547.57   1
  -2  -1   126289.00  596.80   1
   2   1  -126715.80  700.96   1
  -2  -1   125347.80  674.55   1
   2   1  -126218.60  597.75   1
  -2  -1   126466.50  707.71   1
   2   1   025379.50  655.74   1
  -2  -1   025094.20  669.31   1
   2   1   024405.20  451.79   1
  -2  -1   025671.40  555.57   1
   2   1   023946.90  525.23   1
  -2  -1   025293.80  460.89   1
  -2  -1   025028.40  621.23   1
   2   1   025561.10  690.84   1
   2   1   024759.10  656.35   1
   2   1   024750.50  727.28   1
   2   1   024488.80  612.95   1
  -2  -1  -115105.40  305.46   1
  -2  -1  -113933.30  460.90   1
  -2  -1  -115306.50  508.93   1
   2   1   114621.70  522.77   1
  -2  -1  -115379.10  362.73   1
  -2  -1  -115068.00  481.79   1
  -2  -1  -114674.40  510.51   1
   2   1   115036.50  505.47   1
   2   1   115191.20  478.28   1
   2   1   114670.80  469.76   1
   2   1   114994.60  548.22   1
  -2  -1  -114915.40  531.55   1
  -2  -1  -114784.10  544.97   1
   2   1   114624.30  539.05   1
  -2  -1  -114355.30  540.96   1
   2   1   115480.10  372.15   1
  -2  -1  -2  210322    2202   1
   2   1   2  209407    2155   1
  -2  -1  -2  208436    2135   1
   2   1   2  208948    2226   1
  -2  -1  -2  211887    1570   1
   2   1   2  206697    2272   1
   2   1   2  209599    1967   1
  -2  -1  -2  210355    2018   1
   2   1   2  211635    2017   1
   2   1   2  209876    1679   1
  -2  -1  -2  202460    1691   1
   2   1   2  210176    1532   1
  -2  -1  -3  108464    1416   1
   2   1   3  110195    1827   1
  -2  -1  -3  108727    1806   1
   2   1   3  109950    1550   1
   2   1   3  110277    1504   1
   2   1   3  110617    1157   1
  -2  -1  -3  107187    1511   1
   2   1   3  107481    1842   1
  -2  -1  -3  107059    1150   1
   2   1   3  109274    1814   1
   2   1   3  108737    1418   1
   2   1   410975.20  664.86   1
  -2  -1  -410872.20  658.47   1
  -2  -1  -410647.40  496.10   1
   2   1   411283.70  352.31   1
   2   1   411471.20  676.20   1
  -2  -1  -410814.50  528.61   1
   2   1   411019.80  506.10   1
   2   1   411058.70  644.71   1
   2   1   411269.80  540.91   1
   2   1   558209.90 1716.26   1
   2   1   558906.70 1696.24   1
   2   1   557829.70 1195.49   1
  -2  -1  -556558.20 1197.22   1
  -2  -1  -560273.90 1424.07   1
   2   1   557933.90 1384.68   1
   2   1   557075.10  739.31   1
   2   1   558629.20 1612.81   1
   2   1   6 1129.90  261.12   1
  -2  -1  -6 1254.28  278.99   1
   2   1   6 1039.37  247.17   1
   2   1   6  704.87  192.95   1
   2   1   6  903.42   89.50   1
  -2  -1  -6  767.73  151.31   1
  -2  -1  -6   -1.37   96.32   1
  -2  -1  -6 1167.80  234.79   1
   2   1   6  794.07  154.99   1
   2   1   6   29.03   45.04   1
   2   2   717847.00  728.30  -2
  -2  -1  -717847.00  728.30   1
   2   2   718979.20 1134.12  -2
  -2  -1  -718979.20 1134.12   1
  -2  -2  -717823.90  950.80  -2
   2   1   717823.90  950.80   1
  -2  -2  -719622.20 1157.10  -2
   2   1   719622.20 1157.10   1
  -2  -2  -718321.60 1143.44  -2
   2   1   718321.60 1143.44   1
   2   2   718263.90  969.72  -2
  -2  -1  -718263.90  969.72   1
  -2  -2  -717527.40 1058.24  -2
   2   1   717527.40 1058.24   1
  -2  -2  -718579.20  732.42  -2
   2   1   718579.20  732.42   1
  -2  -2  -840045.40 1818.57  -2
   2   1   840045.40 1818.57   1
  -2  -2  -837102.20 1055.94  -2
   2   1   837102.20 1055.94   1
   2   2   837366.50 1084.44  -2
  -2  -1  -837366.50 1084.44   1
   2   2   839790.00 1545.07  -2
  -2  -1  -839790.00 1545.07   1
  -2  -2  -9 2737.40  527.65  -2
   2   1   9 2737.40  527.65   1
  -2  -2  -9 1991.71  256.19  -2
   2   1   9 1991.71  256.19   1
   2   2   9 1865.82  311.23  -2
  -2  -1  -9 1865.82  311.23   1
   2   2   9 1851.60  370.41  -2
  -2  -1  -9 1851.60  370.41   1
   2   2   9 1951.96  274.17  -2
  -2  -1  -9 1951.96  274.17   1
  -2  -2 -10  571.80  189.08  -2
   2   1  10  571.80  189.08   1
   2   2  10  995.87  353.95  -2
  -2  -1 -10  995.87  353.95   1
   2   2  10  243.91  179.81  -2
  -2  -1 -10  243.91  179.81   1
  -2  -2 -10  678.24  409.88  -2
   2   1  10  678.24  409.88   1
   2   1  11  692.21  347.46   1
  -2  -1 -11  977.87  328.60   1
  -2  -1 -11  771.45  225.15   1
   2   1  12  132.74  209.96   1
  -2  -1 -12   22.02  180.32   1
  -2  -2  11  445.66  257.37   1
   2   2 -11  120.97  152.31   1
  -2  -2  10  704.99  295.83   1
   2   2 -10 1079.43  366.20   1
   2   2 -10  745.92  241.01   1
  -2  -2   9 2288.08  355.29   1
   2   2  -9 1898.11  397.85   1
   2   2  -9 1831.62  323.72   1
  -2  -2   9 1775.53  402.94   1
  -2  -2   8 2458.40  355.38   1
   2   2  -8 2476.03  366.86   1
  -2  -2   8 1874.07  119.14   1
  -2  -2   8 1981.95  117.98   1
  -2  -2   8 2614.46  312.18   1
  -2  -2   8 2361.77  448.41   1
  -2  -2   8 2303.52  405.57   1
   2   2  -8 3232.39  510.40   1
   2   4  -7  408.21  189.75  -2
  -2  -2   7  408.21  189.75   1
  -2  -4   7   76.65  110.23  -2
   2   2  -7   76.65  110.23   1
   2   4  -7  329.41   85.27  -2
  -2  -2   7  329.41   85.27   1
   2   4  -7  282.02   76.02  -2
  -2  -2   7  282.02   76.02   1
  -2  -4   7  377.67  147.05  -2
   2   2  -7  377.67  147.05   1
   2   4  -7  106.96   85.36  -2
  -2  -2   7  106.96   85.36   1
   2   4  -7  294.90  148.24  -2
  -2  -2   7  294.90  148.24   1
   2   4  -7  347.27  167.95  -2
  -2  -2   7  347.27  167.95   1
  -2  -4   7  608.65  216.61  -2
   2   2  -7  608.65  216.61   1
   2   4  -7  548.93  201.02  -2
  -2  -2   7  548.93  201.02   1
   2   4  -6 8479.69  686.42  -2
  -2  -2   6 8479.69  686.42   1
   2   4  -6 7980.97  512.20  -2
  -2  -2   6 7980.97  512.20   1
   2   4  -6 8675.93  588.47  -2
  -2  -2   6 8675.93  588.47   1
   2   4  -6 7705.47  632.59  -2
  -2  -2   6 7705.47  632.59   1
  -2  -4   6 7474.58  566.64  -2
   2   2  -6 7474.58  566.64   1
   2   4  -6 8428.67  621.87  -2
  -2  -2   6 8428.67  621.87   1
   2   4  -513793.80  670.25  -2
  -2  -2   513793.80  670.25   1
   2   4  -513283.80  744.67  -2
  -2  -2   513283.80  744.67   1
  -2  -4   514416.40  761.39  -2
   2   2  -514416.40  761.39   1
  -2  -4   513407.10  793.17  -2
   2   2  -513407.10  793.17   1
   2   4  -513545.30  753.37  -2
  -2  -2   513545.30  753.37   1
  -2  -4   512454.50  685.17  -2
   2   2  -512454.50  685.17   1
   2   4  -513633.60  623.09  -2
  -2  -2   513633.60  623.09   1
   2   4  -513325.40  722.33  -2
  -2  -2   513325.40  722.33   1
  -2  -4   443948.80 1158.67  -2
   2   2  -443948.80 1158.67   1
  -2  -4   442982.90 1025.08  -2
   2   2  -442982.90 1025.08   1
   2   4  -442396.10 1049.98  -2
  -2  -2   442396.10 1049.98   1
   2   4  -445147.60 1358.71  -2
  -2  -2   445147.60 1358.71   1
   2   4  -446471.30 1273.54  -2
  -2  -2   446471.30 1273.54   1
   2   4  -444590.00 1189.64  -2
  -2  -2   444590.00 1189.64   1
   2   4  -446402.40 1263.91  -2
  -2  -2   446402.40 1263.91   1
  -2  -4   445828.10 1334.49  -2
   2   2  -445828.10 1334.49   1
   2   4  -445862.80 1150.43  -2
  -2  -2   445862.80 1150.43   1
  -2  -4   444515.40 1201.92  -2
   2   2  -444515.40 1201.92   1
  -2  -2   3  106879    1542   1
   2   2  -3  107220    1523   1
  -2  -2   3  109898    1627   1
  -2  -2   3  108391    1646   1
  -2  -2   3  108746    1780   1
  -2  -2   3  110166    1884   1
   2   2  -3  109075    1849   1
   2   2  -3  106729    1764   1
  -2  -2   3  111858    1811   1
   2   2  -3  106996    1587   1
  -2  -2   244926.10  761.93   1
  -2  -2   245418.90 1027.08   1
   2   2  -244638.10  752.76   1
   2   2  -246609.50 1004.19   1
  -2  -2   246346.20 1019.89   1
   2   2  -247236.80 1067.83   1
  -2  -2   242236.90 1038.36   1
   2   2  -244003.80  984.60   1
  -2  -2   244888.50 1018.44   1
  -2  -2   247377.10 1110.65   1
  -2  -2   244844.80  865.62   1
   2   2  -1  732342    3910   1
  -2  -2   1  723169    3994   1
  -2  -2   1  724324    3929   1
  -2  -2   1  736290    3305   1
  -2  -2   1  733483    3539   1
   2   2  -1  727168    3854   1
  -2  -2   1  730180    4397   1
  -2  -2   1  744636    3874   1
   2   2  -1  729644    3832   1
   2   2  -1  726065    3943   1
   2   2   0  163557    1857   1
  -2  -2   0  164685    1671   1
  -2  -2   0  160632    1583   1
   2   2   0  159050    1140   1
  -2  -2   0  156984    1902   1
   2   2   0  160268    1713   1
   2   2   0  160999    1565   1
   2   2   0  159068    1662   1
  -2  -2   0  160325    1698   1
  -2  -2   0  161671    1897   1
   2   2   0  162132    1797   1
  -2  -2   0  163419    1713   1
  -2  -2  -151777.00  933.22   1
   2   2   152748.30  982.76   1
  -2  -2  -150772.80 1005.02   1
  -2  -2  -150587.50  982.32   1
  -2  -2  -149232.40  973.51   1
  -2  -2  -151775.80  969.91   1
   2   2   147853.60  802.73   1
   2   2   150070.10  988.14   1
   2   2   152884.00 1001.47   1
   2   2   148817.50  890.74   1
   2   2   149985.80 1017.40   1
  -2  -2  -150278.30  820.24   1
  -2  -2  -150743.30  997.66   1
   2   2   149945.20 1068.35   1
   2   2   263837.80 1163.26   1
   2   2   263540.50 1187.99   1
  -2  -2  -265256.60 1198.13   1
   2   2   261299.40 1250.24   1
   2   2   267186.70 1296.43   1
   2   2   266212.10 1098.35   1
  -2  -2  -264828.80 1162.94   1
  -2  -2  -264013.50 1095.70   1
  -2  -2  -263226.80 1256.07   1
   2   2   263877.50 1056.66   1
  -2  -2  -262563.30 1023.69   1
   2   2   264133.20 1165.62   1
  -2  -2  -264490.50 1052.46   1
   2   2   373577.50 1269.45   1
   2   2   374214.00 1524.45   1
  -2  -2  -372817.90 1504.29   1
  -2  -2  -373452.60 1525.79   1
   2   2   371450.80 1267.67   1
   2   2   372539.90 1168.23   1
  -2  -2  -373540.10 1277.78   1
   2   2   373701.70 1373.99   1
   2   2   369791.50 1483.01   1
   2   2   371546.20 1088.39   1
  -2  -2  -372650.20 1287.64   1
   2   2   413809.40  758.09   1
  -2  -2  -413728.10  753.10   1
  -2  -2  -415097.00  613.36   1
   2   2   414187.00  512.12   1
  -2  -2  -414193.10  636.72   1
   2   2   413949.70  633.56   1
   2   2   413475.20  508.14   1
   2   2   414162.50  591.11   1
   2   2   413616.00  724.36   1
   2   2   5 3196.52  407.55   1
  -2  -2  -5 2852.04  278.82   1
   2   2   5 3298.10  305.07   1
   2   2   5 3146.75  243.73   1
  -2  -2  -5 3330.82  406.41   1
  -2  -2  -5 3232.94  344.43   1
   2   2   5 3002.44  380.02   1
   2   2   618499.40 1072.94   1
  -2  -2  -619387.60 1057.01   1
   2   2   616813.20  553.06   1
  -2  -2  -617422.60  696.52   1
   2   2   618491.20  708.56   1
   2   2   618093.90  997.67   1
   2   2   618777.60  913.46   1
  -2  -2  -618942.10  903.89   1
  -2  -3  -814075.70  467.24  -2
   2   2   814075.70  467.24   1
  -2  -3  -817192.80 1201.79  -2
   2   2   817192.80 1201.79   1
   2   3   813813.80  639.06  -2
  -2  -2  -813813.80  639.06   1
  -2  -3  -813173.90  620.91  -2
   2   2   813173.90  620.91   1
   2   3   814363.60  938.15  -2
  -2  -2  -814363.60  938.15   1
   2   3   9  191.97   81.86  -2
  -2  -2  -9  191.97   81.86   1
  -2  -3  -9  163.33  164.79  -2
   2   2   9  163.33  164.79   1
  -2  -3  -9  337.95   70.28  -2
   2   2   9  337.95   70.28   1
   2   3   9  161.89  163.29  -2
  -2  -2  -9  161.89  163.29   1
  -2  -3 -10 2955.48  602.99  -2
   2   2  10 2955.48  602.99   1
   2   3  10 2747.65  498.47  -2
  -2  -2 -10 2747.65  498.47   1
   2   3  10 2469.66  331.81  -2
  -2  -2 -10 2469.66  331.81   1
  -2  -2 -11 -303.91  247.26   1
   2   2  11  443.74  299.50   1
  -2  -2 -11  259.57  143.43   1
  -2  -2 -12  -94.53  156.50   1
   2   2  12  283.29  330.77   1
  -2  -3  11  812.43  336.91   1
   2   3 -11    3.44  199.74   1
  -2  -3  11  543.01  290.60   1
   2   3 -11  553.55  222.03   1
   2   3 -10  442.90  301.78   1
   2   3 -10  -69.51  131.99   1
  -2  -3  10  130.83  152.27   1
  -2  -3  10  275.39  146.27   1
  -2  -3   9  344.26  237.43   1
  -2  -3   9  656.69  140.19   1
  -2  -3   9  671.59  286.49   1
   2   3  -9  266.71  238.82   1
  -2  -3   9  516.66  183.79   1
   2   3  -9  463.47  207.43   1
  -2  -3   9  497.61  262.55   1
  -2  -3   8  375.06  190.60   1
  -2  -3   8  389.41  126.18   1
  -2  -3   8  320.89  176.95   1
   2   3  -8  332.89  226.50   1
  -2  -3   8  218.52  202.94   1
  -2  -3   8  640.07  255.46   1
  -2  -3   8  424.96  192.62   1
   2   3  -8  286.36  169.35   1
  -2  -3   8  400.28  174.56   1
   2   5  -7  675.66  350.42  -2
  -2  -3   7  675.66  350.42   1
  -2  -5   7 1086.21  342.40  -2
   2   3  -7 1086.21  342.40   1
   2   5  -7  981.09  265.66  -2
  -2  -3   7  981.09  265.66   1
   2   5  -7 1236.02  302.02  -2
  -2  -3   7 1236.02  302.02   1
   2   5  -7  842.24  255.20  -2
  -2  -3   7  842.24  255.20   1
   2   5  -7 1668.94  325.05  -2
  -2  -3   7 1668.94  325.05   1
  -2  -5   7  992.86  303.83  -2
   2   3  -7  992.86  303.83   1
   2   5  -7  791.93  308.41  -2
  -2  -3   7  791.93  308.41   1
   2   5  -621031.40 1033.14  -2
  -2  -3   621031.40 1033.14   1
   2   5  -621035.60  897.85  -2
  -2  -3   621035.60  897.85   1
  -2  -5   620548.30  786.07  -2
   2   3  -620548.30  786.07   1
   2   5  -621589.80  848.11  -2
  -2  -3   621589.80  848.11   1
   2   5  -622346.60 1086.53  -2
  -2  -3   622346.60 1086.53   1
   2   5  -622877.20 1195.76  -2
  -2  -3   622877.20 1195.76   1
  -2  -5   622185.70 1143.30  -2
   2   3  -622185.70 1143.30   1
  -2  -5   621416.60 1011.12  -2
   2   3  -621416.60 1011.12   1
   2   5  -620955.50  938.56  -2
  -2  -3   620955.50  938.56   1
   2   5  -621254.80  821.43  -2
  -2  -3   621254.80  821.43   1
   2   5  -514177.40  752.97  -2
  -2  -3   514177.40  752.97   1
   2   5  -515767.40  851.50  -2
  -2  -3   515767.40  851.50   1
   2   5  -513499.20  625.22  -2
  -2  -3   513499.20  625.22   1
  -2  -5   514429.50  648.09  -2
   2   3  -514429.50  648.09   1
   2   5  -514717.10  670.43  -2
  -2  -3   514717.10  670.43   1
  -2  -5   514733.00  796.37  -2
   2   3  -514733.00  796.37   1
  -2  -5   513989.00  736.45  -2
   2   3  -513989.00  736.45   1
   2   5  -514762.10  666.01  -2
  -2  -3   514762.10  666.01   1
   2   5  -514374.40  871.41  -2
  -2  -3   514374.40  871.41   1
   2   5  -515637.80  850.26  -2
  -2  -3   515637.80  850.26   1
  -2  -5   515233.50  887.12  -2
   2   3  -515233.50  887.12   1
   2   5  -4 3141.10  363.86  -2
  -2  -3   4 3141.10  363.86   1
  -2  -5   4 3315.33  303.51  -2
   2   3  -4 3315.33  303.51   1
  -2  -5   4 2830.07  297.77  -2
   2   3  -4 2830.07  297.77   1
   2   5  -4 3177.63  353.88  -2
  -2  -3   4 3177.63  353.88   1
   2   5  -4 2906.46  309.34  -2
  -2  -3   4 2906.46  309.34   1
   2   5  -4 2857.98  291.43  -2
  -2  -3   4 2857.98  291.43   1
   2   5  -4 3020.25  371.72  -2
  -2  -3   4 3020.25  371.72   1
  -2  -5   4 2614.53  333.16  -2
   2   3  -4 2614.53  333.16   1
   2   5  -4 2943.26  293.40  -2
  -2  -3   4 2943.26  293.40   1
   2   5  -4 3106.75  252.43  -2
  -2  -3   4 3106.75  252.43   1
  -2  -3   3 2072.82  222.77   1
   2   3  -3 1822.55  206.88   1
  -2  -3   3 1922.56  273.10   1
  -2  -3   3 1819.29  155.80   1
  -2  -3   3 2174.36  256.96   1
   2   3  -3 2241.20  289.25   1
  -2  -3   3 2153.11  286.91   1
   2   3  -3 1958.28  292.18   1
   2   3  -222811.00  557.66   1
   2   3  -224586.20  888.54   1
   2   3  -224040.50  795.18   1
   2   3  -224878.40  759.85   1
  -2  -3   223721.60  804.08   1
  -2  -3   224810.60  573.11   1
  -2  -3   225320.60  913.47   1
  -2  -3   223417.70  849.68   1
  -2  -3   223726.90  769.53   1
   2   3  -224739.10  854.57   1
   2   3  -141069.50  599.64   1
  -2  -3   144273.50  712.40   1
  -2  -3   145248.50 1081.42   1
  -2  -3   145077.70 1132.08   1
  -2  -3   143657.00 1065.78   1
   2   3  -146326.10 1088.53   1
   2   3  -145363.60 1081.90   1
   2   3  -143713.20 1099.41   1
  -2  -3   146126.80 1087.53   1
   2   3  -145214.50 1044.44   1
   2   3   0  445838    2101   1
   2   3   0  442436    3395   1
   2   3   0  437307    3374   1
   2   3   0  456398    3457   1
  -2  -3   0  450177    3431   1
   2   3   0  449656    2514   1
  -2  -3   0  445611    2528   1
   2   3   0  450956    3154   1
  -2  -3   0  451325    3168   1
   2   3   129211.70  884.97   1
   2   3   128008.90  692.73   1
   2   3   128977.50  904.47   1
  -2  -3  -128003.80  814.23   1
   2   3   129269.50  857.08   1
   2   3   127881.30  744.30   1
  -2  -3  -127742.70  747.56   1
  -2  -3  -126902.70  757.96   1
   2   3   128791.00  742.45   1
  -2  -3  -129459.20  891.82   1
  -2  -3  -127919.70  729.68   1
   2   3   218476.60  678.20   1
  -2  -3  -218279.00  698.28   1
   2   3   217476.10  676.47   1
  -2  -3  -218614.20  730.70   1
  -2  -3  -218198.40  560.90   1
  -2  -3  -217783.10  662.99   1
   2   3   218207.10  674.58   1
   2   3   218206.40  736.10   1
  -2  -3  -218084.20  562.26   1
  -2  -3  -218568.50  705.76   1
  -2  -3  -362555.00 1335.25   1
   2   3   363810.20 1468.41   1
   2   3   362046.20 1256.24   1
  -2  -3  -357892.30  874.41   1
   2   3   363018.20 1471.05   1
  -2  -3  -360379.90 1257.47   1
  -2  -3  -363689.30 1495.95   1
  -2  -3  -361694.90 1020.60   1
   2   3   361348.20 1427.30   1
   2   3   361389.90  925.04   1
  -2  -3  -364051.20 1463.84   1
  -2  -3  -426708.60  858.31   1
   2   3   425635.10 1059.15   1
  -2  -3  -428204.60 1119.13   1
   2   3   426411.90 1046.42   1
   2   3   426461.20  830.66   1
  -2  -3  -426290.00  936.14   1
  -2  -3  -424737.50 1001.01   1
   2   3   425063.30  547.42   1
   2   3   574996.60 1413.98   1
   2   3   581753.30 2044.02   1
  -2  -3  -581790.20 2099.49   1
  -2  -3  -576645.90 1750.22   1
   2   3   575327.40  961.86   1
   2   3   577430.40 1977.41   1
  -2  -3  -578414.10 1512.01   1
  -2  -3  -6 9430.25  830.08   1
   2   3   6 9656.52  520.15   1
  -2  -3  -610743.90  591.27   1
   2   3   6 8838.61  364.88   1
   2   3   610616.30  818.22   1
   2   3   6 8882.17  662.32   1
  -2  -3  -611321.10  754.73   1
   2   4   7 1421.01  225.51  -2
  -2  -3  -7 1421.01  225.51   1
  -2  -4  -7 1182.84  189.73  -2
   2   3   7 1182.84  189.73   1
  -2  -4  -7 1224.25  328.00  -2
   2   3   7 1224.25  328.00   1
   2   4   7  786.16  223.73  -2
  -2  -3  -7  786.16  223.73   1
  -2  -4  -7 1169.26  158.08  -2
   2   3   7 1169.26  158.08   1
   2   4   824438.40  780.88  -2
  -2  -3  -824438.40  780.88   1
  -2  -4  -827087.80 1517.46  -2
   2   3   827087.80 1517.46   1
   2   4   825371.10  881.52  -2
  -2  -3  -825371.10  881.52   1
  -2  -4  -825820.40  763.89  -2
   2   3   825820.40  763.89   1
   2   4   826134.70 1299.64  -2
  -2  -3  -826134.70 1299.64   1
  -2  -4  -824246.20  824.57  -2
   2   3   824246.20  824.57   1
  -2  -4  -9 4804.29  363.13  -2
   2   3   9 4804.29  363.13   1
  -2  -4  -9 5847.54  768.12  -2
   2   3   9 5847.54  768.12   1
   2   4   9 5387.73  411.69  -2
  -2  -3  -9 5387.73  411.69   1
  -2  -4  -9 5201.60  371.84  -2
   2   3   9 5201.60  371.84   1
   2   4   9 5561.02  647.64  -2
  -2  -3  -9 5561.02  647.64   1
   2   4   9 4928.50  369.24  -2
  -2  -3  -9 4928.50  369.24   1
   2   4  10   70.46  139.85  -2
  -2  -3 -10   70.46  139.85   1
  -2  -4 -10  200.68  151.47  -2
   2   3  10  200.68  151.47   1
   2   4  10   33.24   87.24  -2
  -2  -3 -10   33.24   87.24   1
   2   3  11 2844.47  619.03   1
  -2  -3 -11 2515.28  515.61   1
  -2  -3 -12  900.67  412.14   1
  -2  -4  11  -62.31  182.75   1
  -2  -4  11  384.48  298.99   1
   2   4 -11  -40.29  136.81   1
  -2  -4  10 1400.91  443.12   1
  -2  -4  10 1587.82  395.88   1
   2   4 -10 1981.47  411.32   1
  -2  -4   9  360.65  244.80   1
  -2  -4   9  224.13  147.98   1
   2   4  -9   35.90  165.97   1
  -2  -4   9  200.18  252.38   1
  -2  -4   8 2599.22  340.47   1
  -2  -4   8 2343.22  420.22   1
  -2  -4   8 2247.34  370.47   1
   2   4  -8 2415.55  411.33   1
  -2  -4   8 2082.62  272.61   1
  -2  -4   8 2224.33  458.43   1
  -2  -4   8 1748.28  341.70   1
   2   6  -7  218.04  170.21  -2
  -2  -4   7  218.04  170.21   1
   2   6  -7  514.43  179.55  -2
  -2  -4   7  514.43  179.55   1
  -2  -6   7  521.11  160.22  -2
   2   4  -7  521.11  160.22   1
   2   6  -7  749.83  206.35  -2
  -2  -4   7  749.83  206.35   1
   2   6  -7  386.92  135.82  -2
  -2  -4   7  386.92  135.82   1
  -2  -6   7  557.82  253.18  -2
   2   4  -7  557.82  253.18   1
  -2  -6   7  527.83  221.49  -2
   2   4  -7  527.83  221.49   1
   2   6  -7  228.71  208.40  -2
  -2  -4   7  228.71  208.40   1
   2   6  -6 4353.83  410.72  -2
  -2  -4   6 4353.83  410.72   1
  -2  -6   6 4191.79  394.33  -2
   2   4  -6 4191.79  394.33   1
   2   6  -6 4201.82  488.38  -2
  -2  -4   6 4201.82  488.38   1
  -2  -6   6 2894.47  421.23  -2
   2   4  -6 2894.47  421.23   1
   2   6  -5 9378.43  624.38  -2
  -2  -4   5 9378.43  624.38   1
  -2  -6   510609.90  646.95  -2
   2   4  -510609.90  646.95   1
   2   6  -5 8225.09  471.68  -2
  -2  -4   5 8225.09  471.68   1
   2   6  -5 5774.08  586.29  -2
  -2  -4   5 5774.08  586.29   1
  -2  -6   5 9965.69  586.31  -2
   2   4  -5 9965.69  586.31   1
   2   6  -5 8811.63  678.46  -2
  -2  -4   5 8811.63  678.46   1
  -2  -6   5 6553.23  567.35  -2
   2   4  -5 6553.23  567.35   1
   2   6  -510231.70  542.16  -2
  -2  -4   510231.70  542.16   1
   2   6  -5 6758.38  592.08  -2
  -2  -4   5 6758.38  592.08   1
   2   6  -5 9662.72  533.27  -2
  -2  -4   5 9662.72  533.27   1
  -2  -6   416904.50  752.49  -2
   2   4  -416904.50  752.49   1
  -2  -6   417321.20  670.90  -2
   2   4  -417321.20  670.90   1
  -2  -6   415893.20  709.83  -2
   2   4  -415893.20  709.83   1
   2   6  -417010.40  899.18  -2
  -2  -4   417010.40  899.18   1
  -2  -6   416497.20  853.24  -2
   2   4  -416497.20  853.24   1
   2   6  -415579.00  548.10  -2
  -2  -4   415579.00  548.10   1
   2   6  -415793.70  899.60  -2
  -2  -4   415793.70  899.60   1
   2   6  -418853.00  738.97  -2
  -2  -4   418853.00  738.97   1
   2   6  -416448.60  575.18  -2
  -2  -4   416448.60  575.18   1
  -2  -4   3 3800.26  333.17   1
   2   4  -3 3408.11  291.00   1
  -2  -4   3 3683.69  419.93   1
  -2  -4   3 4001.08  415.74   1
   2   4  -3 3772.16  357.44   1
   2   4  -3 3486.92  302.16   1
  -2  -4   3 3793.01  210.77   1
  -2  -4   3 3817.86  220.68   1
   2   4  -3 3714.68  388.52   1
   2   4  -2  296.50  114.92   1
  -2  -4   2  203.05   41.43   1
   2   4  -2  231.49  129.28   1
   2   4  -2  237.09   62.28   1
   2   4  -2  235.82   78.87   1
  -2  -4   2  311.76  143.66   1
   2   4  -2  465.93  156.84   1
   2   4  -149117.90 1246.15   1
  -2  -4   150817.50 1370.05   1
   2   4  -149682.10  779.27   1
   2   4  -150431.90 1208.82   1
   2   4  -150341.40 1358.23   1
  -2  -4   149257.90  613.52   1
   2   4  -151749.50 1264.18   1
  -2  -4   151087.80 1271.99   1
  -2  -4   044523.50  795.84   1
   2   4   043347.10 1175.44   1
  -2  -4   045027.70 1283.41   1
   2   4   043776.70 1083.33   1
   2   4   044011.70  792.70   1
   2   4   044413.70 1193.09   1
   2   4   043879.00 1258.95   1
  -2  -4   044874.40 1100.77   1
   2   4   116420.00  775.69   1
   2   4   115345.80  704.65   1
   2   4   114918.70  582.25   1
   2   4   115250.10  570.08   1
  -2  -4  -115792.40  766.79   1
  -2  -4  -115661.40  609.84   1
  -2  -4  -116084.60  587.38   1
   2   4   115769.80  616.46   1
   2   4   222036.30  822.41   1
  -2  -4  -221082.20  786.51   1
   2   4   222625.60  860.71   1
  -2  -4  -221540.40  651.84   1
   2   4   221353.40  783.82   1
  -2  -4  -221882.50  657.93   1
  -2  -4  -221445.00  901.57   1
   2   4   377058.50 1713.15   1
  -2  -4  -375015.70 1002.37   1
  -2  -4  -375753.10 1516.47   1
  -2  -4  -380852.70 1810.21   1
  -2  -4  -377595.00 1755.62   1
  -2  -4  -376573.20 1648.30   1
   2   4   373847.70 1663.34   1
  -2  -4  -375365.50 1131.43   1
   2   4   418749.10  932.86   1
  -2  -4  -419557.70 1002.18   1
  -2  -4  -417964.60  759.62   1
  -2  -4  -417324.00  505.91   1
   2   4   419278.80  930.09   1
  -2  -4  -418513.90  866.94   1
   2   4   5 3436.89  451.43   1
  -2  -4  -5 4056.76  512.40   1
  -2  -4  -5 3391.89  215.39   1
  -2  -4  -5 3879.66  355.77   1
   2   4   5 3521.91  452.57   1
  -2  -4  -5 4510.91  456.94   1
   2   4   5 3829.13  457.77   1
  -2  -4  -6  -15.40   99.37   1
  -2  -4  -6  268.02  116.70   1
   2   4   6  416.67  234.78   1
   2   4   6   52.64  105.09   1
  -2  -4  -6   64.01  131.02   1
   2   4   6  191.47  160.80   1
  -2  -4  -6   71.33   47.89   1
   2   5   7 1615.66  356.40  -2
  -2  -4  -7 1615.66  356.40   1
  -2  -5  -7 2657.27  486.98  -2
   2   4   7 2657.27  486.98   1
   2   5   7 1924.96  285.88  -2
  -2  -4  -7 1924.96  285.88   1
  -2  -5  -8 1537.15  255.84  -2
   2   4   8 1537.15  255.84   1
  -2  -5  -8 1574.66  378.96  -2
   2   4   8 1574.66  378.96   1
   2   5   8 1464.24  360.22  -2
  -2  -4  -8 1464.24  360.22   1
   2   5   8 1090.90  122.13  -2
  -2  -4  -8 1090.90  122.13   1
   2   5   8 1529.72  245.88  -2
  -2  -4  -8 1529.72  245.88   1
  -2  -5  -9 6387.71  809.41  -2
   2   4   9 6387.71  809.41   1
   2   5   9 5664.52  684.22  -2
  -2  -4  -9 5664.52  684.22   1
  -2  -5  -9 5913.95  487.86  -2
   2   4   9 5913.95  487.86   1
   2   5  10 3511.75  570.98  -2
  -2  -4 -10 3511.75  570.98   1
  -2  -5 -10 3397.22  642.13  -2
   2   4  10 3397.22  642.13   1
   2   4  11 1346.27  474.81   1
  -2  -4 -11  723.58  280.69   1
  -2  -5  10  369.91  285.31   1
   2   5 -10  285.11  157.32   1
  -2  -5   9  577.55  288.16   1
   2   5  -9  395.19  298.92   1
  -2  -5   9   76.42  130.76   1
  -2  -5   8  -47.97  165.89   1
   2   5  -8   46.38  150.87   1
  -2  -5   8  185.55  190.42   1
   2   5  -8  277.75  216.49   1
  -2  -5   8  144.46  116.79   1
   2   7  -7  416.68  271.56  -2
  -2  -5   7  416.68  271.56   1
   2   7  -7  659.45  239.30  -2
  -2  -5   7  659.45  239.30   1
  -2  -7   7 1150.96  331.48  -2
   2   5  -7 1150.96  331.48   1
  -2  -7   7 1127.30  277.30  -2
   2   5  -7 1127.30  277.30   1
   2   7  -7  620.57  230.98  -2
  -2  -5   7  620.57  230.98   1
   2   7  -7  618.51  192.82  -2
  -2  -5   7  618.51  192.82   1
  -2  -7   7  767.70  283.81  -2
   2   5  -7  767.70  283.81   1
   2   7  -6 9406.18  562.67  -2
  -2  -5   6 9406.18  562.67   1
   2   7  -6 9349.76  833.45  -2
  -2  -5   6 9349.76  833.45   1
  -2  -7   610288.00  644.31  -2
   2   5  -610288.00  644.31   1
   2   7  -6 9871.57  542.30  -2
  -2  -5   6 9871.57  542.30   1
   2   7  -611032.30  572.21  -2
  -2  -5   611032.30  572.21   1
  -2  -7   6 9753.77  778.22  -2
   2   5  -6 9753.77  778.22   1
  -2  -7   5 5950.63  506.29  -2
   2   5  -5 5950.63  506.29   1
   2   7  -5 4348.24  333.31  -2
  -2  -5   5 4348.24  333.31   1
   2   7  -5 3672.17  488.12  -2
  -2  -5   5 3672.17  488.12   1
  -2  -7   5 6364.42  501.60  -2
   2   5  -5 6364.42  501.60   1
   2   7  -5 7160.55  370.53  -2
  -2  -5   5 7160.55  370.53   1
  -2  -7   5 4182.82  482.16  -2
   2   5  -5 4182.82  482.16   1
   2   7  -4  175.38  143.82  -2
  -2  -5   4  175.38  143.82   1
   2   7  -4  271.25   59.46  -2
  -2  -5   4  271.25   59.46   1
  -2  -7   4  527.37  144.96  -2
   2   5  -4  527.37  144.96   1
  -2  -7   4  301.06  116.54  -2
   2   5  -4  301.06  116.54   1
   2   7  -4  303.91  161.63  -2
  -2  -5   4  303.91  161.63   1
   2   7  -4  316.80   99.80  -2
  -2  -5   4  316.80   99.80   1
  -2  -7   4  433.57  180.49  -2
   2   5  -4  433.57  180.49   1
  -2  -7   4  782.08  197.92  -2
   2   5  -4  782.08  197.92   1
   2   7  -4  275.27   52.78  -2
  -2  -5   4  275.27   52.78   1
  -2  -7   4  598.04  214.92  -2
   2   5  -4  598.04  214.92   1
   2   7  -4  519.64  196.31  -2
  -2  -5   4  519.64  196.31   1
   2   5  -324915.00  882.01   1
  -2  -5   325673.80  675.77   1
  -2  -5   326980.60 1214.69   1
   2   5  -325903.00  694.14   1
   2   5  -325884.20 1011.83   1
   2   5  -327041.10 1117.84   1
  -2  -5   329993.70 1199.97   1
   2   5  -326784.40  895.89   1
  -2  -5   2  -32.37   64.43   1
   2   5  -211242.90  605.67   1
   2   5  -2  -26.37   65.72   1
   2   5  -212125.10  691.26   1
   2   5  -211615.20  463.97   1
  -2  -5   212672.00  790.36   1
   2   5  -212551.20  721.00   1
   2   5  -110762.90  656.61   1
   2   5  -111044.80  634.01   1
  -2  -5   110528.00  696.32   1
   2   5  -110984.30  480.91   1
   2   5  -111227.50  632.76   1
  -2  -5   010215.00  705.17   1
   2   5   0 9942.10  510.44   1
   2   5   0 9200.57  610.24   1
   2   5   0 9860.52  392.57   1
  -2  -5   0 9915.49  586.11   1
   2   5   0 9681.10  561.96   1
   2   5   0 9330.99  618.26   1
   2   5   1 3400.85  337.15   1
  -2  -5  -1 3520.33  406.42   1
   2   5   1 3558.21  314.18   1
   2   5   1 2997.63  355.00   1
   2   5   1 3143.95  274.42   1
  -2  -5  -1 3510.63  319.43   1
   2   5   211627.30  676.24   1
   2   5   212493.90  551.18   1
  -2  -5  -211138.60  524.02   1
  -2  -5  -212987.20  785.89   1
  -2  -5  -212519.80  554.61   1
   2   5   212340.50  624.57   1
   2   5   3  895.80  197.36   1
  -2  -5  -3  902.68  205.33   1
  -2  -5  -3  949.73  206.69   1
   2   5   3  -29.97   91.47   1
   2   5   3  822.98  206.36   1
  -2  -5  -3  738.67  211.60   1
  -2  -5  -3  892.78  124.81   1
  -2  -5  -3  841.49  136.12   1
   2   5   439694.30 1465.96   1
   2   5   442220.50 1544.72   1
  -2  -5  -440212.50 1228.07   1
   2   5   441517.30 1429.94   1
  -2  -5  -436596.20  750.56   1
  -2  -5  -440617.60 1389.38   1
   2   5   521474.90 1171.45   1
  -2  -5  -520345.50  884.04   1
  -2  -5  -522730.60 1268.07   1
   2   5   520399.20 1097.07   1
  -2  -5  -519956.50 1024.09   1
  -2  -5  -6   44.31  116.18   1
   2   5   6   94.12  137.01   1
  -2  -5  -6 -106.01   90.07   1
  -2  -6  -7 6865.84  769.75  -2
   2   5   7 6865.84  769.75   1
   2   6   7 6804.86  522.13  -2
  -2  -5  -7 6804.86  522.13   1
   2   6   7 7303.53  699.97  -2
  -2  -5  -7 7303.53  699.97   1
  -2  -6  -8 7808.29  866.56  -2
   2   5   8 7808.29  866.56   1
   2   6   8 8263.75  576.67  -2
  -2  -5  -8 8263.75  576.67   1
   2   6   8 8436.64  797.30  -2
  -2  -5  -8 8436.64  797.30   1
  -2  -6  -9  100.04  126.49  -2
   2   5   9  100.04  126.49   1
   2   6   9  230.54  157.80  -2
  -2  -5  -9  230.54  157.80   1
  -2  -6  -9  -10.46  141.83  -2
   2   5   9  -10.46  141.83   1
  -2  -6 -10  -10.08  232.87  -2
   2   5  10  -10.08  232.87   1
   2   6  10  335.77  260.09  -2
  -2  -5 -10  335.77  260.09   1
  -2  -5 -11   74.43  157.77   1
   2   5  11  148.93  258.81   1
  -2  -6  10  -63.51  232.44   1
   2   6 -10  119.51  183.38   1
  -2  -6   9  664.29  314.25   1
  -2  -6   9  489.17  190.55   1
   2   6  -9  986.93  346.62   1
  -2  -6   8 3585.31  620.54   1
   2   6  -8 3168.01  401.02   1
   2   6  -8 3316.06  528.55   1
  -2  -8   7  615.55  187.89  -2
   2   6  -7  615.55  187.89   1
   2   8  -7  848.29  348.44  -2
  -2  -6   7  848.29  348.44   1
  -2  -8   7 1025.68  304.01  -2
   2   6  -7 1025.68  304.01   1
  -2  -8   7  764.71  296.72  -2
   2   6  -7  764.71  296.72   1
   2   8  -6  -88.60  155.44  -2
  -2  -6   6  -88.60  155.44   1
   2   8  -6  -87.17   65.89  -2
  -2  -6   6  -87.17   65.89   1
  -2  -8   6   85.73  126.25  -2
   2   6  -6   85.73  126.25   1
   2   8  -6   40.95   91.94  -2
  -2  -6   6   40.95   91.94   1
  -2  -8   6  -23.45  107.80  -2
   2   6  -6  -23.45  107.80   1
  -2  -8   6  -99.61  117.02  -2
   2   6  -6  -99.61  117.02   1
  -2  -8   5 1098.22  192.57  -2
   2   6  -5 1098.22  192.57   1
   2   8  -5 1065.40  180.07  -2
  -2  -6   5 1065.40  180.07   1
  -2  -8   5  890.42  223.96  -2
   2   6  -5  890.42  223.96   1
  -2  -8   5 1094.35  279.96  -2
   2   6  -5 1094.35  279.96   1
   2   8  -5  875.42  257.15  -2
  -2  -6   5  875.42  257.15   1
  -2  -8   4 2938.50  368.52  -2
   2   6  -4 2938.50  368.52   1
  -2  -8   4 3181.35  398.87  -2
   2   6  -4 3181.35  398.87   1
   2   8  -4 2424.24  413.44  -2
  -2  -6   4 2424.24  413.44   1
  -2  -8   4 2991.81  319.48  -2
   2   6  -4 2991.81  319.48   1
  -2  -8   4 2974.39  299.57  -2
   2   6  -4 2974.39  299.57   1
   2   8  -4 3108.35  288.78  -2
  -2  -6   4 3108.35  288.78   1
  -2  -8   4 2943.77  423.07  -2
   2   6  -4 2943.77  423.07   1
   2   6  -3  913.53  203.83   1
   2   6  -3  864.92  199.05   1
   2   6  -3  755.76  219.13   1
   2   6  -3  828.34  153.65   1
   2   6  -3  667.88  165.89   1
  -2  -6   3  842.79  242.02   1
  -2  -6   2  206.59  119.12   1
   2   6  -2  313.65  105.47   1
   2   6  -2  165.23  104.54   1
   2   6  -2  314.52  149.96   1
   2   6  -2  117.73   81.66   1
   2   6  -2  239.58  139.06   1
  -2  -6   2  285.57  146.05   1
   2   6  -1  869.66  250.91   1
   2   6  -1  563.55  155.59   1
   2   6  -1  540.24  184.83   1
  -2  -6   1  615.31  209.80   1
   2   6  -1  709.45  228.50   1
   2   6  -1  683.58  200.17   1
  -2  -6   1  698.09  193.90   1
   2   6   064786.90 1765.93   1
   2   6   067723.10 1528.24   1
   2   6   065891.00 1049.01   1
   2   6   065084.00 1580.17   1
  -2  -6   065076.50 1930.76   1
  -2  -6  -1 6894.00  627.91   1
   2   6   1 6840.12  630.99   1
   2   6   1 6001.35  552.83   1
   2   6   1 6038.61  527.02   1
   2   6   1 6431.45  412.75   1
   2   6   1 6663.87  470.26   1
  -2  -6  -1 6583.09  487.04   1
   2   6   211945.50  770.28   1
  -2  -6  -211912.30  832.34   1
   2   6   211970.20  843.91   1
   2   6   211448.60  636.37   1
   2   6   211594.90  568.15   1
  -2  -6  -211589.90  592.70   1
  -2  -6  -315843.70  906.70   1
   2   6   314728.60  914.67   1
  -2  -6  -315170.80  951.71   1
  -2  -6  -314813.20  556.01   1
   2   6   314906.30  816.33   1
  -2  -6  -315061.20  604.03   1
  -2  -6  -4   28.42   89.42   1
  -2  -6  -4   79.17  130.61   1
   2   6   4  181.40  134.49   1
   2   6   4  175.94  107.48   1
  -2  -6  -5 2073.44  353.40   1
   2   6   5 2507.83  406.27   1
   2   6   5 1796.54  374.35   1
  -2  -6  -5 2167.05  325.14   1
  -2  -6  -6 1091.19  293.02   1
   2   6   6 1615.24  376.21   1
  -2  -6  -6 1559.27  280.91   1
   2   7   7 1240.79  297.51  -2
  -2  -6  -7 1240.79  297.51   1
   2   7   7 1713.00  406.36  -2
  -2  -6  -7 1713.00  406.36   1
  -2  -7  -8 1051.70  351.64  -2
   2   6   8 1051.70  351.64   1
   2   7   8  974.73  301.38  -2
  -2  -6  -8  974.73  301.38   1
  -2  -7  -9 5253.65  808.53  -2
   2   6   9 5253.65  808.53   1
  -2  -7  -9 4271.52  536.99  -2
   2   6   9 4271.52  536.99   1
   2   7   9 5554.72  748.54  -2
  -2  -6  -9 5554.72  748.54   1
   2   7  10  842.73  357.79  -2
  -2  -6 -10  842.73  357.79   1
  -2  -7 -10 1035.35  444.66  -2
   2   6  10 1035.35  444.66   1
  -2  -7   9   11.45  160.94   1
   2   7  -9  -93.55  204.97   1
   2   7  -8  727.05  236.77   1
   2   7  -8 1076.21  348.40   1
  -2  -7   8 1390.33  444.67   1
  -2  -9   7  572.75  217.26  -2
   2   7  -7  572.75  217.26   1
  -2  -9   7  130.59  165.84  -2
   2   7  -7  130.59  165.84   1
   2   9  -7  653.80  285.10  -2
  -2  -7   7  653.80  285.10   1
  -2  -9   6  205.47  159.47  -2
   2   7  -6  205.47  159.47   1
  -2  -9   6  547.79  227.29  -2
   2   7  -6  547.79  227.29   1
   2   9  -6  264.04  166.28  -2
  -2  -7   6  264.04  166.28   1
  -2  -9   6  120.33  122.68  -2
   2   7  -6  120.33  122.68   1
   2   9  -5 4349.32  380.55  -2
  -2  -7   5 4349.32  380.55   1
  -2  -9   5 5000.05  532.68  -2
   2   7  -5 5000.05  532.68   1
  -2  -9   5 5214.40  416.81  -2
   2   7  -5 5214.40  416.81   1
  -2  -9   5 4694.41  406.29  -2
   2   7  -5 4694.41  406.29   1
   2   9  -5 4449.64  633.81  -2
  -2  -7   5 4449.64  633.81   1
  -2  -9   5 4811.12  523.71  -2
   2   7  -5 4811.12  523.71   1
  -2  -9   5 4348.21  588.71  -2
   2   7  -5 4348.21  588.71   1
  -2  -9   4  590.41  184.78  -2
   2   7  -4  590.41  184.78   1
  -2  -9   4  806.31  250.04  -2
   2   7  -4  806.31  250.04   1
   2   9  -4  693.44  276.64  -2
  -2  -7   4  693.44  276.64   1
  -2  -9   4 1506.42  294.83  -2
   2   7  -4 1506.42  294.83   1
  -2  -9   4  772.16  253.06  -2
   2   7  -4  772.16  253.06   1
   2   7  -3 -181.60  120.98   1
   2   7  -3  123.21  142.38   1
   2   7  -3  158.55  126.47   1
  -2  -7   3   47.50  149.63   1
   2   7  -3  121.84  179.83   1
   2   7  -2  662.66  171.86   1
   2   7  -2  798.30  177.10   1
  -2  -7   2  825.98  231.28   1
   2   7  -2  999.56  256.07   1
   2   7  -2 1057.80  260.21   1
   2   7  -124165.80 1177.53   1
  -2  -7   126107.90 1364.18   1
   2   7  -125409.80  993.70   1
   2   7  -126542.00 1184.04   1
   2   7  -124380.70 1106.17   1
   2   7   0 1510.08  166.90   1
   2   7   0 1521.89  309.61   1
  -2  -7   0 1431.90  337.46   1
   2   7   0 1724.03  283.26   1
   2   7   117922.80 1028.11   1
  -2  -7  -118045.20 1095.08   1
   2   7   118387.30  986.55   1
   2   7   117361.20  706.04   1
   2   7   118421.10  846.87   1
   2   7   2 1262.10  229.98   1
  -2  -7  -2 1161.25  298.61   1
   2   7   2 1373.69  302.76   1
   2   7   2 1225.53  283.93   1
   2   7   2 1327.31  213.24   1
   2   7   3  373.31  163.00   1
  -2  -7  -3  227.12  132.18   1
   2   7   3  203.40  137.01   1
  -2  -7  -3  213.83   91.26   1
  -2  -7  -3   40.44  149.93   1
   2   7   3  463.13  129.98   1
  -2  -7  -455176.20 1891.78   1
   2   7   458322.60 2065.29   1
   2   7   457727.50 1839.60   1
   2   7   548755.70 1992.63   1
  -2  -7  -549070.20 1865.52   1
  -2  -7  -6  -47.21  119.79   1
   2   7   6  -15.48  150.49   1
   2   8   7 2776.01  489.97  -2
  -2  -7  -7 2776.01  489.97   1
  -2  -8  -7 3171.17  582.34  -2
   2   7   7 3171.17  582.34   1
  -2  -8  -8  -30.11  183.39  -2
   2   7   8  -30.11  183.39   1
   2   8   8  329.60  217.03  -2
  -2  -7  -8  329.60  217.03   1
  -2  -8  -9  107.97  171.55  -2
   2   7   9  107.97  171.55   1
   2   8   9  112.69  258.45  -2
  -2  -7  -9  112.69  258.45   1
  -2  -8  -9   61.65  169.71  -2
   2   7   9   61.65  169.71   1
  -2  -8   8  384.84  303.59   1
   2   8  -8    0.50  190.81   1
  -2 -10   7  122.42  151.16  -2
   2   8  -7  122.42  151.16   1
   2  10  -7  206.94  192.76  -2
  -2  -8   7  206.94  192.76   1
  -2 -10   7 -169.71  191.78  -2
   2   8  -7 -169.71  191.78   1
  -2 -10   6 1405.38  347.23  -2
   2   8  -6 1405.38  347.23   1
   2  10  -6  689.47  296.40  -2
  -2  -8   6  689.47  296.40   1
  -2 -10   6  820.92  280.77  -2
   2   8  -6  820.92  280.77   1
  -2 -10   5 1579.39  349.35  -2
   2   8  -5 1579.39  349.35   1
   2  10  -5 1046.92  332.84  -2
  -2  -8   5 1046.92  332.84   1
  -2 -10   5 1336.53  220.53  -2
   2   8  -5 1336.53  220.53   1
  -2 -10   5 1411.71  371.44  -2
   2   8  -5 1411.71  371.44   1
  -2 -10   4 1146.18  290.56  -2
   2   8  -4 1146.18  290.56   1
  -2 -10   4 1032.21  224.40  -2
   2   8  -4 1032.21  224.40   1
   2  10  -4  922.49  324.34  -2
  -2  -8   4  922.49  324.34   1
  -2 -10   4  826.99  273.74  -2
   2   8  -4  826.99  273.74   1
  -2 -10   4 1098.87  333.96  -2
   2   8  -4 1098.87  333.96   1
   2   8  -3 2103.94  348.00   1
   2   8  -3 2345.34  383.01   1
   2   8  -3 2169.23  415.20   1
  -2  -8   3 2505.37  476.21   1
   2   8  -3 2047.79  394.60   1
   2   8  -2 2647.80  428.90   1
  -2  -8   2 2520.56  455.62   1
   2   8  -2 2476.94  392.12   1
   2   8  -2 2743.57  432.19   1
  -2  -8   1 1064.73  320.24   1
   2   8  -1 1097.41  294.76   1
   2   8  -1 1439.85  337.69   1
   2   8  -1 1328.27  296.47   1
   2   8   0 1957.50  363.88   1
   2   8   0 2063.69  399.96   1
   2   8   0 1821.75  176.90   1
   2   8   0 1624.41  301.91   1
  -2  -8   0 1730.66  373.98   1
   2   8   1 2478.37  433.40   1
  -2  -8  -1 2334.19  435.52   1
   2   8   1 1933.72  377.87   1
   2   8   1 2566.57  283.66   1
   2   8   1 2377.39  330.87   1
   2   8   1 2427.09  386.31   1
   2   8   2 1028.66  281.08   1
   2   8   2 1386.27  244.51   1
  -2  -8  -2 1267.84  323.76   1
   2   8   2 1325.95  244.63   1
   2   8   2  899.11  247.90   1
  -2  -8  -315767.20 1064.89   1
  -2  -8  -315834.10  713.25   1
   2   8   316207.10 1116.61   1
   2   8   315620.90 1100.61   1
   2   8   316728.80  713.26   1
   2   8   316375.80  922.91   1
  -2  -8  -315779.60 1129.87   1
   2   8   4 3974.72  580.04   1
  -2  -8  -4 4068.57  555.82   1
  -2  -8  -4 3576.43  553.22   1
   2   8   4 4562.26  553.58   1
   2   8   511878.20 1060.61   1
  -2  -8  -512155.40  983.71   1
  -2  -8  -6 3161.12  531.51   1
   2   8   6 3165.76  585.59   1
   2   9   7 2613.34  508.44  -2
  -2  -8  -7 2613.34  508.44   1
  -2  -9  -7 2633.27  577.45  -2
   2   8   7 2633.27  577.45   1
  -2  -9  -8 2712.91  616.33  -2
   2   8   8 2712.91  616.33   1
   2   9   8 3055.78  574.30  -2
  -2  -8  -8 3055.78  574.30   1
  -2 -11   7 1691.38  443.12  -2
   2   9  -7 1691.38  443.12   1
  -2 -11   6  540.13  280.67  -2
   2   9  -6  540.13  280.67   1
   2  11  -6 1111.59  405.57  -2
  -2  -9   6 1111.59  405.57   1
  -2 -11   6  483.76  218.83  -2
   2   9  -6  483.76  218.83   1
  -2 -11   5  737.18  305.46  -2
   2   9  -5  737.18  305.46   1
   2  11  -5  413.72  262.17  -2
  -2  -9   5  413.72  262.17   1
  -2 -11   5  994.69  346.10  -2
   2   9  -5  994.69  346.10   1
  -2 -11   4 1126.58  239.09  -2
   2   9  -4 1126.58  239.09   1
  -2 -11   4 1325.99  356.82  -2
   2   9  -4 1325.99  356.82   1
   2  11  -4 1411.37  409.67  -2
  -2  -9   4 1411.37  409.67   1
  -2 -11   4 1757.26  311.67  -2
   2   9  -4 1757.26  311.67   1
  -2 -11   4 1524.10  393.43  -2
   2   9  -4 1524.10  393.43   1
   2   9  -3 1338.79  317.27   1
  -2  -9   3 1370.57  399.30   1
   2   9  -3 1520.85  302.02   1
   2   9  -3 1437.35  354.41   1
   2   9  -3 1665.03  391.56   1
   2   9  -2  650.91  277.39   1
  -2  -9   2 1158.62  348.72   1
   2   9  -2  596.70  203.47   1
   2   9  -2  733.92  233.60   1
   2   9  -2  264.12  141.54   1
   2   9  -1 1587.75  296.14   1
   2   9  -1 1360.86  334.09   1
   2   9  -1 1106.87  308.83   1
   2   9  -1 1306.76  319.27   1
  -2  -9   1 1308.14  365.07   1
   2   9   0  172.43  157.68   1
   2   9   0  235.63  143.89   1
   2   9   0  -76.38  114.36   1
   2   9   0  -28.62  148.92   1
  -2  -9   0 -177.67  125.89   1
   2   9   0  157.38  187.36   1
  -2  -9  -1  496.89  261.47   1
   2   9   1  500.26  230.35   1
   2   9   1  324.32  203.85   1
   2   9   1  878.40  233.84   1
   2   9   2 1369.25  353.00   1
   2   9   2 1308.00  356.32   1
  -2  -9  -2 1606.44  392.44   1
   2   9   2 1494.20  345.24   1
   2   9   2 1355.84  245.97   1
   2   9   3 1107.73  342.47   1
   2   9   3 1098.92  347.15   1
  -2  -9  -3 1159.30  351.03   1
  -2  -9  -3  623.65  261.14   1
   2   9   4   42.99  172.28   1
   2   9   4  -57.20  168.20   1
  -2  -9  -4   75.20  164.87   1
   2   9   5 7671.16  903.69   1
   2   9   5 6281.14  824.40   1
  -2  -9  -5 7210.53  811.25   1
   2   9   6  346.99  262.60   1
  -2  -9  -6   68.48  159.97   1
  -2 -10  -7  490.58  275.75  -2
   2   9   7  490.58  275.75   1
  -2 -12   5  266.86  254.80  -2
   2  10  -5  266.86  254.80   1
  -2 -12   5  161.15  139.54  -2
   2  10  -5  161.15  139.54   1
  -2 -12   4 1055.20  332.44  -2
   2  10  -4 1055.20  332.44   1
   2  12  -4  547.42  268.94  -2
  -2 -10   4  547.42  268.94   1
  -2 -12   4  212.76  215.92  -2
   2  10  -4  212.76  215.92   1
   2  10  -3  389.23  253.36   1
  -2 -10   3 -110.50  191.45   1
   2  10  -3   40.02  179.64   1
   2  10  -2  552.59  321.72   1
   2  10  -2  419.93  218.87   1
   2  10  -2  172.23  136.65   1
   2  10  -2  784.60  308.36   1
  -2 -10   2  291.30  224.10   1
   2  10  -1  103.18  135.28   1
   2  10  -1   97.85  172.65   1
   2  10  -1  391.03  257.42   1
   2  10  -1  116.13  130.28   1
  -2 -10   1  466.86  264.00   1
   2  10   0 1557.17  402.54   1
   2  10   0 2560.11  489.95   1
   2  10   0 2531.90  446.34   1
   2  10   0 2144.71  457.55   1
  -2 -10   0 2277.93  501.15   1
   2  10   0 2069.18  393.75   1
  -2 -10  -1  115.38  146.96   1
   2  10   1  189.17  121.19   1
   2  10   1  544.54  298.51   1
   2  10   1  165.64  160.87   1
   2  10   1  144.99  147.48   1
   2  10   2  993.15  347.89   1
   2  10   2 1247.98  395.76   1
   2  10   2  900.39  343.36   1
  -2 -10  -2  801.27  288.05   1
   2  10   3 2468.72  508.13   1
   2  10   3 3430.12  613.45   1
  -2 -10  -3 2486.30  539.54   1
   2  10   3 3429.59  616.19   1
  -2 -10  -3 2880.11  536.91   1
   2  10   4 1796.55  460.36   1
   2  10   4 2085.09  481.37   1
   2  10   4 1351.94  396.39   1
  -2 -10  -4 1346.32  384.38   1
   2  10   5  570.10  306.86   1
   2  10   5  397.83  253.52   1
   2  10   5  822.96  380.52   1
   3  -8  -3 1353.63  372.44   1
   3  -8  -3 1388.08  393.35   1
  -3   8   3 1389.47  474.39   1
  -3   8   3 1455.63  420.01   1
   3  -8  -2   53.26  162.68   1
   3  -8  -2  128.47  147.40   1
  -3   8   2  339.54  233.50   1
  -3   8   2  160.28  185.79   1
   3  -8  -1 1228.93  342.52   1
  -3   8   1 1007.34  373.89   1
   3  -8  -1 1083.70  334.45   1
   3  -8  -1 1416.92  380.47   1
   3  -8  -1 1622.13  393.57   1
  -3   8   1 1291.06  350.34   1
  -3   8   0  -70.88  156.26   1
   3  -8   0 -168.20  228.10   1
   3  -8   0 -169.45  134.32   1
  -3   8   0  534.68  313.00   1
   3  -8   0  171.11  190.85   1
  -3   8   0  585.82  286.12   1
   3  -8   0  440.03  254.84   1
   3  -8   1 6565.03  756.26   1
   3  -8   1 7700.60  870.26   1
  -3   8  -1 6889.09  909.07   1
  -3   8  -1 7605.78  733.76   1
  -3   8  -1 6510.92  720.19   1
  -3   8  -2  257.25  281.82   1
   3  -8   2  334.51  230.12   1
  -3   8  -2  131.74  173.06   1
   3  -8   2   30.89  138.38   1
   3  -8   3 7366.92  871.87   1
   3  -8   3 5907.84  730.34   1
  -3   8  -3 6300.71  789.96   1
  -3   8  -3 5781.25  830.88   1
   3  -6   4   46.67  195.80  -2
  -3   8  -4   46.67  195.80   1
  -3   6  -4 -223.66  321.33  -2
   3  -8   4 -223.66  321.33   1
   3  -6   4  397.11  276.66  -2
  -3   8  -4  397.11  276.66   1
  -3   6  -4   32.09  168.41  -2
   3  -8   4   32.09  168.41   1
   3  -6   5  983.22  367.64  -2
  -3   8  -5  983.22  367.64   1
  -3   6  -5  975.07  380.29  -2
   3  -8   5  975.07  380.29   1
   3  -6   5 1178.07  488.44  -2
  -3   8  -5 1178.07  488.44   1
  -3   6  -5  854.68  340.67  -2
   3  -8   5  854.68  340.67   1
   3  -7  -5  817.27  301.40   1
   3  -7  -5  459.58  205.42   1
  -3   7   5  865.02  365.64   1
  -3   7   5 1155.69  411.36   1
   3  -7  -4 1065.38  299.40   1
  -3   7   4 1680.98  500.38   1
  -3   7   4  406.05  257.63   1
   3  -7  -4 1732.98  422.45   1
  -3   7   3  976.28  328.67   1
  -3   7   3  825.62  357.95   1
   3  -7  -3  890.35  281.33   1
  -3   7   3  944.29  387.64   1
   3  -7  -3 1546.99  363.33   1
   3  -7  -3 1173.84  274.07   1
  -3   7   2  613.88  182.71   1
   3  -7  -2  351.20  204.42   1
  -3   7   2   89.51  153.21   1
  -3   7   2  148.84  131.66   1
   3  -7  -2  174.75  153.33   1
   3  -7  -2  148.75  116.86   1
  -3   7   1 2119.05  484.67   1
   3  -7  -1 2605.80  427.38   1
   3  -7  -1 2367.39  426.10   1
   3  -7  -1 1970.04  388.74   1
   3  -7  -1 2656.42  485.67   1
  -3   7   1 2125.67  397.02   1
   3  -7   0  438.32  185.51   1
   3  -7   0  350.35  180.50   1
   3  -7   0  369.50  232.36   1
  -3   7   0  404.39  266.69   1
  -3   7   0  463.64  213.67   1
   3  -7   112292.70 1000.08   1
  -3   7  -110551.30 1056.41   1
   3  -7   110432.90  884.37   1
  -3   7  -112041.50  887.90   1
   3  -7   2 3496.55  561.89   1
  -3   7  -2 3165.10  574.87   1
  -3   7  -2 3294.55  451.76   1
   3  -7   2 3234.70  481.65   1
  -3   7  -3  103.66  165.16   1
   3  -7   3  306.33  239.75   1
  -3   7  -3  130.76  161.68   1
   3  -7   3  -24.27  200.65   1
   3  -5   4 1281.39  273.66  -2
  -3   7  -4 1281.39  273.66   1
   3  -5   4 1289.77  423.59  -2
  -3   7  -4 1289.77  423.59   1
  -3   5  -4 1439.52  383.22  -2
   3  -7   4 1439.52  383.22   1
  -3   5  -4 1218.58  305.19  -2
   3  -7   4 1218.58  305.19   1
   3  -5   5  456.26  221.24  -2
  -3   7  -5  456.26  221.24   1
  -3   5  -5  478.44  265.03  -2
   3  -7   5  478.44  265.03   1
   3  -5   5  430.28  221.99  -2
  -3   7  -5  430.28  221.99   1
  -3   5  -5  256.18  187.60  -2
   3  -7   5  256.18  187.60   1
   3  -5   6 2805.12  525.61  -2
  -3   7  -6 2805.12  525.61   1
   3  -5   6 3386.61  619.68  -2
  -3   7  -6 3386.61  619.68   1
  -3   5  -6 2614.81  574.05  -2
   3  -7   6 2614.81  574.05   1
  -3   5  -6 1366.69  368.47  -2
   3  -7   6 1366.69  368.47   1
   3  -5   7  517.03  267.82  -2
  -3   7  -7  517.03  267.82   1
   3  -5   7  903.70  332.64  -2
  -3   7  -7  903.70  332.64   1
  -3   5  -7 1050.35  416.85  -2
   3  -7   7 1050.35  416.85   1
  -3   5  -7  484.65  244.92  -2
   3  -7   7  484.65  244.92   1
  -3   3   7  394.70  287.10  -2
   3  -6  -7  394.70  287.10   1
   3  -3  -7 -119.14  245.68  -2
  -3   6   7 -119.14  245.68   1
   3  -3  -6 -253.64  220.88  -2
  -3   6   6 -253.64  220.88   1
   3  -3  -6  297.23  308.59  -2
  -3   6   6  297.23  308.59   1
  -3   3   6  102.54  199.77  -2
   3  -6  -6  102.54  199.77   1
  -3   6   5 1255.59  386.73   1
   3  -6  -5 1900.47  341.16   1
  -3   6   5 1569.78  434.97   1
   3  -6  -5 1374.42  383.23   1
   3  -6  -4 6378.97  695.66   1
  -3   6   4 8473.45  964.61   1
   3  -6  -4 6590.39  580.59   1
   3  -6  -4 6271.87  605.91   1
  -3   6   4 7307.57  896.91   1
  -3   6   3 8900.38  958.19   1
   3  -6  -3 8803.91  728.80   1
  -3   6   3 8212.94  912.92   1
   3  -6  -3 8966.46  708.06   1
   3  -6  -3 8182.99  758.07   1
  -3   6   2  127.34  153.29   1
   3  -6  -2  216.59  148.03   1
   3  -6  -2  136.61  170.32   1
   3  -6  -2   19.56   97.99   1
  -3   6   2 -113.74  133.61   1
   3  -6  -1 1539.07  302.09   1
   3  -6  -1 1665.39  324.42   1
   3  -6  -1 1960.95  366.02   1
  -3   6   1 2122.51  461.80   1
   3  -6  -1 2181.17  394.57   1
  -3   6   1 1897.35  376.26   1
   3  -6   0 2425.27  430.31   1
  -3   6   0 2180.77  453.44   1
   3  -6   0 2440.74  387.42   1
   3  -6   0 3201.34  505.92   1
  -3   6   0 2800.60  432.15   1
   3  -6   117049.10 1092.23   1
   3  -6   115240.50  954.46   1
  -3   6  -115874.30  981.44   1
  -3   6  -116758.10 1223.23   1
   3  -6   2 6799.39  650.16   1
   3  -6   2 7207.47  730.85   1
  -3   6  -2 8177.09  865.16   1
  -3   6  -2 7328.70  642.25   1
  -3   6  -312622.50  822.23   1
  -3   6  -313684.50 1107.26   1
   3  -6   313261.50  945.03   1
   3  -4   4 3273.80  407.40  -2
  -3   6  -4 3273.80  407.40   1
  -3   4  -4 4404.47  590.43  -2
   3  -6   4 4404.47  590.43   1
   3  -4   4 3490.53  585.54  -2
  -3   6  -4 3490.53  585.54   1
  -3   4  -4 3296.39  479.74  -2
   3  -6   4 3296.39  479.74   1
   3  -4   5  347.65  255.62  -2
  -3   6  -5  347.65  255.62   1
  -3   4  -5  237.80  201.31  -2
   3  -6   5  237.80  201.31   1
   3  -4   5  114.94  139.70  -2
  -3   6  -5  114.94  139.70   1
  -3   4  -5 -135.31  168.05  -2
   3  -6   5 -135.31  168.05   1
  -3   4  -611076.70  985.32  -2
   3  -6   611076.70  985.32   1
   3  -4   610696.80 1011.26  -2
  -3   6  -610696.80 1011.26   1
  -3   4  -610821.40  936.47  -2
   3  -6   610821.40  936.47   1
   3  -4   610678.70  778.69  -2
  -3   6  -610678.70  778.69   1
   3  -4   7  134.19  116.70  -2
  -3   6  -7  134.19  116.70   1
  -3   4  -7  242.83  202.57  -2
   3  -6   7  242.83  202.57   1
   3  -4   7  284.75  205.48  -2
  -3   6  -7  284.75  205.48   1
  -3   4  -7   99.32  132.98  -2
   3  -6   7   99.32  132.98   1
  -3   6  -8  -24.21  203.76   1
   3  -6   8  105.67  201.83   1
  -3   6  -8 -187.85  201.22   1
   3  -6   8  -83.48  149.95   1
   3  -6   9  157.42  253.59   1
  -3   6  -9  388.86  260.03   1
   3  -6   9  -35.06  178.25   1
   3  -2  -8  149.05  171.11  -2
  -3   5   8  149.05  171.11   1
  -3   2   8  487.22  323.54  -2
   3  -5  -8  487.22  323.54   1
   3  -2  -8  298.05  286.51  -2
  -3   5   8  298.05  286.51   1
  -3   2   7 3175.55  559.88  -2
   3  -5  -7 3175.55  559.88   1
   3  -2  -7 2902.72  611.44  -2
  -3   5   7 2902.72  611.44   1
   3  -2  -7 3683.40  681.96  -2
  -3   5   7 3683.40  681.96   1
  -3   2   6   99.74   99.16  -2
   3  -5  -6   99.74   99.16   1
   3  -2  -6   -1.08  209.63  -2
  -3   5   6   -1.08  209.63   1
  -3   2   6   18.70  160.10  -2
   3  -5  -6   18.70  160.10   1
   3  -2  -6  175.94  203.38  -2
  -3   5   6  175.94  203.38   1
   3  -5  -5 3432.40  410.31   1
  -3   5   5 2914.31  565.77   1
  -3   5   5 2773.97  553.55   1
   3  -5  -5 2568.57  342.62   1
   3  -5  -5 2920.95  452.78   1
   3  -5  -4  330.61  178.92   1
  -3   5   4  390.85  238.33   1
   3  -5  -4  119.20   94.08   1
   3  -5  -4  176.51  102.18   1
  -3   5   4  242.48  207.49   1
  -3   5   3 1158.39  346.77   1
   3  -5  -3 1237.08  267.78   1
   3  -5  -3 1204.09  291.49   1
  -3   5   3 1322.01  366.06   1
   3  -5  -3 1316.03  272.48   1
  -3   5   2 6469.82  730.60   1
  -3   5   2 5992.95  658.65   1
  -3   5   2 6985.09  654.61   1
   3  -5  -2 5609.50  544.19   1
   3  -5  -2 6994.08  619.57   1
   3  -5  -2 5886.63  577.16   1
   3  -5  -111238.10  798.50   1
   3  -5  -112094.60  776.55   1
  -3   5   111003.60  796.71   1
  -3   5   112067.00  981.96   1
   3  -5  -111684.00  767.12   1
   3  -5  -112369.40  868.88   1
  -3   5   111123.00  853.26   1
  -3   5   012743.00 1009.50   1
   3  -5   012622.90  863.78   1
   3  -5   013201.80  801.52   1
  -3   5   012880.50  833.81   1
  -3   5   013347.90  880.96   1
   3  -5   012126.80  892.87   1
  -3   5  -197625.10 2256.51   1
   3  -5   1  101674    2469   1
  -3   5  -1  102824    2379   1
  -3   5  -1  101566    2780   1
   3  -5   195846.60 2158.53   1
  -3   5  -2 1158.37  255.75   1
  -3   5  -2  898.43  224.08   1
   3  -5   2  916.49  259.30   1
  -3   5  -2 1086.54  312.62   1
   3  -5   2  895.02  218.78   1
   3  -5   333515.00 1497.97   1
  -3   5  -332369.70 1594.51   1
  -3   5  -331378.60 1323.77   1
   3  -5   331124.00 1281.43   1
   3  -3   4 2782.48  280.69  -2
  -3   5  -4 2782.48  280.69   1
   3  -3   4 2496.05  360.95  -2
  -3   5  -4 2496.05  360.95   1
  -3   3  -4 2925.39  424.22  -2
   3  -5   4 2925.39  424.22   1
   3  -3   4 3208.13  452.27  -2
  -3   5  -4 3208.13  452.27   1
  -3   3  -4 3165.84  479.51  -2
   3  -5   4 3165.84  479.51   1
   3  -3   4 3398.42  530.44  -2
  -3   5  -4 3398.42  530.44   1
  -3   3  -4 2640.13  384.79  -2
   3  -5   4 2640.13  384.79   1
   3  -3   5 2554.90  175.62  -2
  -3   5  -5 2554.90  175.62   1
   3  -3   5 2685.66  387.04  -2
  -3   5  -5 2685.66  387.04   1
  -3   3  -5 2009.49  329.12  -2
   3  -5   5 2009.49  329.12   1
   3  -3   5 1613.00  379.58  -2
  -3   5  -5 1613.00  379.58   1
  -3   3  -5 2365.87  431.15  -2
   3  -5   5 2365.87  431.15   1
  -3   3  -5 2015.95  345.06  -2
   3  -5   5 2015.95  345.06   1
  -3   3  -6 4055.23  544.48  -2
   3  -5   6 4055.23  544.48   1
  -3   3  -6 4378.50  571.95  -2
   3  -5   6 4378.50  571.95   1
   3  -3   6 4531.18  638.91  -2
  -3   5  -6 4531.18  638.91   1
  -3   3  -6 4398.80  490.36  -2
   3  -5   6 4398.80  490.36   1
   3  -3   6 5147.21  531.45  -2
  -3   5  -6 5147.21  531.45   1
  -3   3  -7  282.60  165.45  -2
   3  -5   7  282.60  165.45   1
   3  -3   7  477.47  236.20  -2
  -3   5  -7  477.47  236.20   1
   3  -3   7  362.96  135.00  -2
  -3   5  -7  362.96  135.00   1
  -3   3  -7  300.97  180.23  -2
   3  -5   7  300.97  180.23   1
  -3   5  -8 1138.43  384.48   1
   3  -5   8 1321.54  338.74   1
  -3   5  -8  692.23  253.29   1
   3  -5   8 1454.32  372.24   1
  -3   5  -9 -261.03  263.50   1
   3  -5   9  247.23  187.50   1
  -3   5  -9  148.30  157.69   1
  -3   5  -9 -158.59  156.60   1
   3  -5   9  320.70  240.23   1
   3  -5  10 1960.39  485.22   1
   3  -5  10 2120.76  466.97   1
  -3   1   9   72.31  170.09  -2
   3  -4  -9   72.31  170.09   1
   3  -1  -9  178.87  196.23  -2
  -3   4   9  178.87  196.23   1
  -3   1   8  684.75  312.16  -2
   3  -4  -8  684.75  312.16   1
   3  -1  -8  379.03  283.46  -2
  -3   4   8  379.03  283.46   1
   3  -1  -8  576.36  303.17  -2
  -3   4   8  576.36  303.17   1
   3  -1  -7  401.45  264.29  -2
  -3   4   7  401.45  264.29   1
  -3   1   7  458.93  256.73  -2
   3  -4  -7  458.93  256.73   1
   3  -1  -7  331.41  185.37  -2
  -3   4   7  331.41  185.37   1
   3  -1  -6  127.06  138.95  -2
  -3   4   6  127.06  138.95   1
  -3   1   6  143.70   79.18  -2
   3  -4  -6  143.70   79.18   1
  -3   1   6  180.24  167.32  -2
   3  -4  -6  180.24  167.32   1
   3  -4  -5 1558.95  278.09   1
   3  -4  -5 2126.59  374.05   1
  -3   4   5 1493.50  374.46   1
  -3   4   5 1129.82  143.14   1
  -3   4   5 2268.96  441.17   1
  -3   4   412529.40 1045.45   1
  -3   4   413841.40  935.72   1
   3  -4  -411671.90  722.14   1
  -3   4   410728.80  489.29   1
  -3   4   411814.40  975.23   1
   3  -4  -413400.10  862.74   1
   3  -4  -3 2598.70  360.44   1
  -3   4   3 2623.69  463.31   1
  -3   4   3 3081.36  430.24   1
  -3   4   3 2816.52  474.25   1
   3  -4  -3 2686.50  357.23   1
   3  -4  -3 3219.17  368.28   1
   3  -4  -2 1316.63  242.48   1
  -3   4   2 1311.56  327.62   1
   3  -4  -2  947.13  231.22   1
  -3   4   2  745.08  214.49   1
   3  -4  -2  951.73  215.61   1
  -3   4   1 5388.93  609.16   1
   3  -4  -1 5036.60  455.67   1
   3  -4  -1 4886.29  450.27   1
   3  -4  -1 4636.04  466.49   1
   3  -4  -1 4749.80  509.57   1
  -3   4   1 4458.26  449.33   1
  -3   4   1 5004.59  548.30   1
   3  -4   016214.60  799.16   1
   3  -4   015983.10  880.36   1
  -3   4   017184.00 1062.14   1
  -3   4   016189.60  828.85   1
  -3   4   015791.10  922.33   1
   3  -4   016298.90  975.53   1
   3  -4   111358.40  756.89   1
   3  -4   110594.30  636.11   1
  -3   4  -110860.70  835.18   1
   3  -4   111090.10  828.35   1
  -3   4  -110953.10  672.16   1
  -3   4  -2  363.52  148.68   1
   3  -4   2  205.25  104.42   1
  -3   4  -2  496.17  219.13   1
   3  -4   2  435.47  143.73   1
   3  -4   2  284.00  155.10   1
  -3   4  -332652.20  999.50   1
  -3   4  -334498.80 1244.51   1
   3  -4   335005.20 1224.42   1
  -3   4  -333667.40 1511.33   1
   3  -4   335206.60 1408.11   1
  -3   2  -418399.50  947.34  -2
   3  -4   418399.50  947.34   1
  -3   2  -417958.80  928.12  -2
   3  -4   417958.80  928.12   1
   3  -2   418490.80  635.74  -2
  -3   4  -418490.80  635.74   1
   3  -2   417544.80 1105.79  -2
  -3   4  -417544.80 1105.79   1
  -3   2  -416039.90  872.04  -2
   3  -4   416039.90  872.04   1
  -3   2  -419076.90 1088.07  -2
   3  -4   419076.90 1088.07   1
  -3   2  -5 3757.89  436.87  -2
   3  -4   5 3757.89  436.87   1
  -3   2  -5 4958.53  515.51  -2
   3  -4   5 4958.53  515.51   1
   3  -2   5 5911.35  245.06  -2
  -3   4  -5 5911.35  245.06   1
  -3   2  -5 5405.64  541.19  -2
   3  -4   5 5405.64  541.19   1
  -3   2  -5 5816.14  614.28  -2
   3  -4   5 5816.14  614.28   1
   3  -2   5 5821.63  655.82  -2
  -3   4  -5 5821.63  655.82   1
   3  -2   5 4910.90  504.02  -2
  -3   4  -5 4910.90  504.02   1
  -3   2  -610456.20  805.55  -2
   3  -4   610456.20  805.55   1
   3  -2   611434.20  941.21  -2
  -3   4  -611434.20  941.21   1
  -3   2  -610625.00  842.43  -2
   3  -4   610625.00  842.43   1
  -3   2  -610881.80  770.76  -2
   3  -4   610881.80  770.76   1
   3  -2   611217.60  790.49  -2
  -3   4  -611217.60  790.49   1
  -3   2  -7 3153.42  479.06  -2
   3  -4   7 3153.42  479.06   1
   3  -2   7 4947.42  669.99  -2
  -3   4  -7 4947.42  669.99   1
  -3   2  -7 3995.98  517.13  -2
   3  -4   7 3995.98  517.13   1
   3  -2   7 4872.81  573.47  -2
  -3   4  -7 4872.81  573.47   1
  -3   2  -7 3672.35  521.73  -2
   3  -4   7 3672.35  521.73   1
   3  -4   8  105.69  152.62   1
  -3   4  -8  -64.32   74.50   1
   3  -4   8   97.11  190.82   1
  -3   4  -8   58.68  134.77   1
  -3   4  -8   14.80  141.79   1
   3  -4   9  775.67  263.44   1
   3  -4   9  680.32  246.15   1
  -3   4  -9  885.44  283.83   1
  -3   4  -9  725.30  291.36   1
  -3   4 -10  923.69  384.27   1
   3  -4  10  695.70  302.08   1
   3  -4  10  518.23  239.98   1
   3  -4  11  727.92  287.24   1
   3   0 -10  185.88  257.17  -2
  -3   3  10  185.88  257.17   1
  -3   0  10 -155.91  206.62  -2
   3  -3 -10 -155.91  206.62   1
   3   0  -9 1405.62  448.48  -2
  -3   3   9 1405.62  448.48   1
  -3   0   9 1280.31  363.45  -2
   3  -3  -9 1280.31  363.45   1
  -3   0   8  295.53  248.00  -2
   3  -3  -8  295.53  248.00   1
   3   0  -8  472.12  270.20  -2
  -3   3   8  472.12  270.20   1
   3   0  -7 3135.55  563.90  -2
  -3   3   7 3135.55  563.90   1
  -3   0   7 2310.53  427.30  -2
   3  -3  -7 2310.53  427.30   1
  -3   0   6  312.13  173.18  -2
   3  -3  -6  312.13  173.18   1
   3   0  -6  378.67  227.98  -2
  -3   3   6  378.67  227.98   1
  -3   0   6  196.80   77.89  -2
   3  -3  -6  196.80   77.89   1
   3   0  -6  123.20   58.22  -2
  -3   3   6  123.20   58.22   1
  -3   3   5 4864.39  646.20   1
  -3   3   5 5244.78  641.45   1
   3  -3  -5 4924.78  367.42   1
  -3   3   5 4915.26  554.67   1
   3  -3  -5 3846.11  424.06   1
   3  -3  -5 5027.49  531.97   1
  -3   3   5 4019.18  290.20   1
  -3   3   4 1937.65  393.17   1
  -3   3   4 2151.11  391.95   1
  -3   3   4 2241.08  355.49   1
   3  -3  -4 2244.29  327.01   1
   3  -3  -4 1977.17  296.78   1
   3  -3  -4 1886.57  244.39   1
  -3   3   4 2391.73  234.72   1
  -3   3   3 3667.05  507.35   1
  -3   3   3 2894.64  383.85   1
  -3   3   3 3290.57  461.02   1
   3  -3  -3 3240.45  381.64   1
   3  -3  -3 3328.31  384.50   1
  -3   3   2 4791.09  538.78   1
  -3   3   2 5189.01  463.79   1
   3  -3  -2 4745.39  454.14   1
   3  -3  -2 4503.29  405.98   1
   3  -3  -1 1686.92  234.70   1
   3  -3  -1 1424.51  268.89   1
  -3   3   1 1614.58  239.81   1
  -3   3   1  964.68  231.42   1
  -3   3   0 7404.94  486.41   1
   3  -3   0 7817.91  483.58   1
   3  -3   0  -75.71   85.71   1
   3  -3   0 7427.33  634.23   1
  -3   3   0  -32.55   72.97   1
   3  -3   0 7526.61  621.44   1
   3  -3   185791.70 1917.87   1
   3  -3   186333.70 1575.15   1
   3  -3   182434.30 2086.26   1
   3  -3   2 7233.01  472.74   1
  -3   3  -2 6853.23  474.70   1
  -3   3  -2 1322.94  300.89   1
  -3   3  -2 7271.98  481.33   1
   3  -3   2 7007.33  543.95   1
   3  -3   2 -149.44  129.46   1
   3  -3   2 7328.66  630.80   1
  -3   3  -3 3014.45  432.08   1
   3  -3   3 2463.22  307.20   1
   3  -3   3 2760.89  319.04   1
  -3   3  -3 2201.40  252.25   1
   3  -3   3 2232.44  352.52   1
   3  -3   3 2470.05  337.61   1
   3  -1   4 4222.12  552.61  -2
  -3   3  -4 4222.12  552.61   1
   3  -1   4 4173.86  523.14  -2
  -3   3  -4 4173.86  523.14   1
   3  -1   4 3973.18  277.92  -2
  -3   3  -4 3973.18  277.92   1
  -3   1  -4 3974.74  471.00  -2
   3  -3   4 3974.74  471.00   1
  -3   1  -4 3502.12  383.33  -2
   3  -3   4 3502.12  383.33   1
  -3   1  -4 4024.52  496.39  -2
   3  -3   4 4024.52  496.39   1
  -3   1  -4 3697.55  414.38  -2
   3  -3   4 3697.55  414.38   1
  -3   1  -5  751.71  201.20  -2
   3  -3   5  751.71  201.20   1
   3  -1   5   62.16   76.44  -2
  -3   3  -5   62.16   76.44   1
  -3   1  -5 1160.51  269.18  -2
   3  -3   5 1160.51  269.18   1
  -3   1  -5    4.38   84.43  -2
   3  -3   5    4.38   84.43   1
   3  -1   5 1193.12  307.44  -2
  -3   3  -5 1193.12  307.44   1
  -3   1  -5  908.81  229.27  -2
   3  -3   5  908.81  229.27   1
  -3   1  -610750.30  800.47  -2
   3  -3   610750.30  800.47   1
   3  -1   611459.40  909.41  -2
  -3   3  -611459.40  909.41   1
  -3   1  -6 9670.76  741.82  -2
   3  -3   6 9670.76  741.82   1
  -3   1  -610803.00  760.98  -2
   3  -3   610803.00  760.98   1
   3  -1   610943.10  775.92  -2
  -3   3  -610943.10  775.92   1
  -3   1  -7 1005.31  280.52  -2
   3  -3   7 1005.31  280.52   1
  -3   1  -7  872.80  288.48  -2
   3  -3   7  872.80  288.48   1
   3  -1   7 1194.82  313.79  -2
  -3   3  -7 1194.82  313.79   1
   3  -1   7 1537.45  394.42  -2
  -3   3  -7 1537.45  394.42   1
  -3   1  -7 1234.23  307.89  -2
   3  -3   7 1234.23  307.89   1
   3  -3   8 7167.44  705.79   1
   3  -3   8 6392.55  708.52   1
  -3   3  -8 4091.95  206.69   1
  -3   3  -8 4083.65  199.29   1
  -3   3  -8 6466.67  793.91   1
  -3   3  -8 6872.55  699.45   1
   3  -3   9   52.82  158.23   1
  -3   3  -9  -38.44  164.82   1
   3  -3   9   -7.92  131.38   1
  -3   3 -10   86.82  219.74   1
   3  -3  10  131.80  190.41   1
  -3   3 -11 -283.38  188.91   1
   3  -3  11  -21.22  151.59   1
   3  -3  11 -149.79  189.13   1
   3   1 -10  661.00  348.78  -2
  -3   2  10  661.00  348.78   1
  -3  -1  10  939.99  310.31  -2
   3  -2 -10  939.99  310.31   1
   3   1  -9 -395.13  300.08  -2
  -3   2   9 -395.13  300.08   1
  -3  -1   9   75.94  148.69  -2
   3  -2  -9   75.94  148.69   1
   3   1  -8 7686.18  899.43  -2
  -3   2   8 7686.18  899.43   1
  -3  -1   8 8075.33  803.23  -2
   3  -2  -8 8075.33  803.23   1
   3   1  -712609.00 1066.84  -2
  -3   2   712609.00 1066.84   1
  -3  -1   712574.40  930.31  -2
   3  -2  -712574.40  930.31   1
   3   1  -711706.70  572.63  -2
  -3   2   711706.70  572.63   1
   3   1  -6 1064.06  298.64  -2
  -3   2   6 1064.06  298.64   1
  -3  -1   6 1350.17  293.17  -2
   3  -2  -6 1350.17  293.17   1
  -3  -1   6 1437.76  115.32  -2
   3  -2  -6 1437.76  115.32   1
   3   1  -6 1351.45  200.38  -2
  -3   2   6 1351.45  200.38   1
  -3   2   5 2588.11  373.88   1
   3  -2  -5 2176.93  193.46   1
   3  -2  -5 2168.09  344.34   1
  -3   2   5 2282.81  421.07   1
  -3   2   5 2012.62  220.31   1
  -3   2   411248.70  698.64   1
  -3   2   411022.30  839.73   1
  -3   2   410761.30  698.67   1
  -3   2   410901.00  793.99   1
  -3   2   410240.50  662.87   1
   3  -2  -411400.40  697.24   1
   3  -2  -410716.70  680.32   1
   3  -2  -410956.90  502.51   1
  -3   2   410925.30  513.21   1
  -3   2   3  382.97  182.82   1
  -3   2   3  452.05  133.05   1
  -3   2   3  206.13  120.79   1
   3  -2  -3  416.53  114.65   1
   3  -2  -3  399.60  148.76   1
   3  -2  -3  336.91  124.74   1
  -3   2   3  301.61  107.60   1
  -3   2   3  507.75  118.20   1
  -3   2   3  405.78  138.39   1
   3  -2  -2   -6.87   59.88   1
  -3   2   2  -17.10   87.77   1
   3  -2  -2   52.87   94.61   1
   3  -2  -2    8.99   73.38   1
  -3   2   2  194.34   94.40   1
   3  -2  -1 7492.43  556.55   1
   3  -2  -1 7923.09  499.29   1
  -3   2   1 8384.59  467.63   1
  -3   2   1 7873.12  614.32   1
   3  -2  -1 8012.33  440.56   1
   3  -2   0 9459.08  444.73   1
  -3   2   0 9196.61  438.78   1
   3  -2   0 9929.06  438.86   1
   3  -2   010009.10  666.87   1
   3  -2   0 9279.46  644.87   1
  -3   2  -1 3740.62  356.43   1
   3  -2   1 3929.47  427.75   1
  -3   2  -1 3598.30  264.71   1
   3  -2   1 3944.94  282.44   1
   3  -2   1 3601.37  408.65   1
  -3   2  -1 3967.20  397.51   1
  -3   2  -1 3742.96  391.77   1
   3  -2   218616.20  928.04   1
  -3   2  -219530.30  899.04   1
  -3   2  -218033.90  716.72   1
   3  -2   218572.30  631.81   1
  -3   2  -218883.70  657.18   1
   3  -2   218061.80  832.23   1
  -3   2  -218724.40  845.24   1
  -3   2  -3  283.88  105.75   1
   3  -2   3  140.65  123.53   1
  -3   2  -3  131.58  128.33   1
   3  -2   3  262.64  120.04   1
   3  -2   3   78.99   63.37   1
   3  -2   3  171.98   86.85   1
   3   0   4 5707.84  333.20  -2
  -3   2  -4 5707.84  333.20   1
  -3   0  -4 6352.89  613.44  -2
   3  -2   4 6352.89  613.44   1
  -3   0  -4 6065.62  470.60  -2
   3  -2   4 6065.62  470.60   1
  -3   0  -4 6262.89  550.60  -2
   3  -2   4 6262.89  550.60   1
  -3   0  -4 5674.58  453.02  -2
   3  -2   4 5674.58  453.02   1
   3   0   4 6593.35  568.33  -2
  -3   2  -4 6593.35  568.33   1
  -3   0  -4 5533.56  504.48  -2
   3  -2   4 5533.56  504.48   1
   3   0   4 4657.79  504.09  -2
  -3   2  -4 4657.79  504.09   1
  -3   0  -5  816.72  207.99  -2
   3  -2   5  816.72  207.99   1
   3   0   5  -88.80  121.29  -2
  -3   2  -5  -88.80  121.29   1
  -3   0  -5  670.12  185.82  -2
   3  -2   5  670.12  185.82   1
  -3   0  -5  767.02  203.39  -2
   3  -2   5  767.02  203.39   1
  -3   0  -5  788.36  241.13  -2
   3  -2   5  788.36  241.13   1
   3   0   5  764.66  230.43  -2
  -3   2  -5  764.66  230.43   1
   3   0   5  900.04  258.52  -2
  -3   2  -5  900.04  258.52   1
   3   0   622797.20 1227.23  -2
  -3   2  -622797.20 1227.23   1
  -3   0  -619854.50 1006.37  -2
   3  -2   619854.50 1006.37   1
  -3   0  -621540.50 1087.59  -2
   3  -2   621540.50 1087.59   1
   3   0   624106.20 1150.95  -2
  -3   2  -624106.20 1150.95   1
  -3   0  -622179.80 1060.65  -2
   3  -2   622179.80 1060.65   1
  -3   0  -7 2079.25  375.10  -2
   3  -2   7 2079.25  375.10   1
   3   0   7 2229.14  384.83  -2
  -3   2  -7 2229.14  384.83   1
   3   0   7 1791.35  139.88  -2
  -3   2  -7 1791.35  139.88   1
  -3   0  -7 2350.33  379.00  -2
   3  -2   7 2350.33  379.00   1
  -3   0  -7 2638.38  398.14  -2
   3  -2   7 2638.38  398.14   1
   3   0   7 3022.73  493.30  -2
  -3   2  -7 3022.73  493.30   1
  -3   0  -7 2265.68  391.18  -2
   3  -2   7 2265.68  391.18   1
  -3   2  -8  327.67  198.27   1
   3  -2   8  387.10  191.46   1
   3  -2   8  518.32  227.28   1
  -3   2  -9 2769.37  476.39   1
   3  -2   9 3408.93  465.85   1
  -3   2  -9 3252.88  522.65   1
   3  -2   9 3917.03  583.66   1
  -3   2 -10 1322.22  379.18   1
   3  -2  10 1598.69  322.09   1
   3  -2  10 1779.91  436.90   1
  -3   2 -11 1723.89  406.25   1
  -3   2 -11 1124.68  374.00   1
   3  -2  11 2088.58  530.78   1
   3  -2  11 1491.91  336.11   1
  -3   2 -12  280.05  253.11   1
  -3   2 -12  404.51  315.46   1
   3  -2  12  523.12  390.41   1
  -3  -2  10  -50.29  160.88  -2
   3  -1 -10  -50.29  160.88   1
   3   2 -10    2.76  223.49  -2
  -3   1  10    2.76  223.49   1
   3   2  -9 5055.90  721.28  -2
  -3   1   9 5055.90  721.28   1
  -3  -2   9 5961.99  740.26  -2
   3  -1  -9 5961.99  740.26   1
   3   2  -8 2036.09  446.45  -2
  -3   1   8 2036.09  446.45   1
   3   2  -8 1491.88  311.36  -2
  -3   1   8 1491.88  311.36   1
  -3  -2   8 1519.66  370.57  -2
   3  -1  -8 1519.66  370.57   1
   3   2  -710227.50  899.23  -2
  -3   1   710227.50  899.23   1
   3   2  -710574.20  610.98  -2
  -3   1   710574.20  610.98   1
  -3  -2   710966.40  841.90  -2
   3  -1  -710966.40  841.90   1
   3   2  -711320.80  805.65  -2
  -3   1   711320.80  805.65   1
   3   2  -620872.20 1197.17  -2
  -3   1   620872.20 1197.17   1
  -3  -2   621504.90 1094.63  -2
   3  -1  -621504.90 1094.63   1
   3   2  -619780.80  796.93  -2
  -3   1   619780.80  796.93   1
   3  -1  -5 1579.89  273.93   1
  -3   1   5 1103.68  284.02   1
  -3   1   5 1572.24  278.94   1
   3  -1  -5 1742.61  133.56   1
  -3   1   5 1639.97  214.89   1
  -3   1   4 8734.90  698.63   1
   3  -1  -4 9571.75  605.56   1
   3  -1  -4 9590.66  387.39   1
   3  -1  -4 9263.24  626.78   1
  -3   1   410243.90  668.42   1
  -3   1   4 9560.80  503.89   1
  -3   1   4 9717.67  611.19   1
  -3   1   343648.90 1347.83   1
   3  -1  -344522.70  935.67   1
   3  -1  -347053.40 1204.41   1
   3  -1  -343387.00 1312.85   1
  -3   1   345707.20 1376.56   1
  -3   1   345113.60 1467.50   1
  -3   1   347811.10 1100.77   1
  -3   1   348800.00 1226.04   1
   3  -1  -2  234.88   87.36   1
   3  -1  -2  292.72   89.15   1
  -3   1   2  258.16  115.65   1
   3  -1  -2  267.56  123.19   1
  -3   1   2  401.39  143.86   1
  -3   1   2  351.01   92.11   1
  -3   1   121538.90  766.33   1
  -3   1   119652.00  866.63   1
  -3   1   121028.40  602.13   1
   3  -1  -119621.80  848.11   1
   3  -1  -120472.10  597.44   1
   3  -1  -120839.20  869.19   1
  -3   1   119479.80  856.21   1
   3  -1  -121127.50  739.76   1
  -3   1   032855.50  980.11   1
  -3   1   033643.30  620.53   1
  -3   1   034139.60 1055.83   1
   3  -1   032264.70 1061.56   1
  -3   1   034014.20 1116.57   1
   3  -1   032139.80 1099.23   1
  -3   1   034524.80 1123.99   1
   3  -1   033107.20  650.63   1
   3  -1   035043.90  999.41   1
  -3   1  -1  111268    1754   1
  -3   1  -1  112352    1873   1
   3  -1   1  111132    1859   1
  -3   1  -1  108306    1952   1
  -3   1  -1  112682    2067   1
   3  -1   1  112278    1037   1
   3  -1   1  104788    1924   1
  -3   1  -1  101663    1026   1
   3  -1   1  110239    1999   1
   3  -1   1  111067    2116   1
   3  -1   213231.20  437.69   1
  -3   1  -213187.20  673.93   1
   3  -1   213821.10  734.86   1
  -3   1  -213356.30  566.58   1
   3  -1   212507.60  453.35   1
   3  -1   213452.50  690.96   1
  -3   1  -212269.00  665.40   1
  -3   1  -319114.20  835.93   1
  -3   1  -318185.10  627.83   1
   3  -1   317702.60  627.40   1
   3  -1   319473.70  860.74   1
   3  -1   319557.90  932.56   1
  -3   1  -318954.70  863.52   1
   3  -1   318599.40  615.45   1
  -3  -1  -4  109040    2346  -2
   3  -1   4  109040    2346   1
  -3  -1  -4  104189    1639  -2
   3  -1   4  104189    1639   1
  -3  -1  -4  111381    2066  -2
   3  -1   4  111381    2066   1
   3   1   4  111286    2115  -2
  -3   1  -4  111286    2115   1
  -3  -1  -4  103184    1418  -2
   3  -1   4  103184    1418   1
   3   1   4  102682    1448  -2
  -3   1  -4  102682    1448   1
  -3  -1  -4  103692    2113  -2
   3  -1   4  103692    2113   1
  -3  -1  -4  105954    1794  -2
   3  -1   4  105954    1794   1
  -3  -1  -510648.40  664.42  -2
   3  -1   510648.40  664.42   1
   3   1   5  -59.32  104.38  -2
  -3   1  -5  -59.32  104.38   1
   3   1   5 9795.05  609.80  -2
  -3   1  -5 9795.05  609.80   1
   3   1   510538.50  668.54  -2
  -3   1  -510538.50  668.54   1
   3   1   5 9971.22  403.01  -2
  -3   1  -5 9971.22  403.01   1
   3   1   5  -46.76  101.61  -2
  -3   1  -5  -46.76  101.61   1
  -3  -1  -510296.00  576.05  -2
   3  -1   510296.00  576.05   1
  -3  -1  -5 9881.58  430.43  -2
   3  -1   5 9881.58  430.43   1
  -3  -1  -510852.80  780.10  -2
   3  -1   510852.80  780.10   1
  -3  -1  -510598.40  719.75  -2
   3  -1   510598.40  719.75   1
   3   1   5   51.42   77.55  -2
  -3   1  -5   51.42   77.55   1
  -3  -1  -617833.10 1091.52  -2
   3  -1   617833.10 1091.52   1
   3   1   618084.70 1101.20  -2
  -3   1  -618084.70 1101.20   1
   3   1   616783.00  433.21  -2
  -3   1  -616783.00  433.21   1
   3   1   619069.10  937.85  -2
  -3   1  -619069.10  937.85   1
   3   1   618813.30  921.28  -2
  -3   1  -618813.30  921.28   1
  -3  -1  -617047.60  563.60  -2
   3  -1   617047.60  563.60   1
   3   1   617393.90 1052.61  -2
  -3   1  -617393.90 1052.61   1
  -3  -1  -618071.60 1070.78  -2
   3  -1   618071.60 1070.78   1
  -3  -1  -617672.60  887.32  -2
   3  -1   617672.60  887.32   1
  -3  -1  -617694.20  995.27  -2
   3  -1   617694.20  995.27   1
   3   1   618005.60  985.94  -2
  -3   1  -618005.60  985.94   1
  -3  -1  -7  267.75  177.69  -2
   3  -1   7  267.75  177.69   1
  -3  -1  -7   19.10  133.94  -2
   3  -1   7   19.10  133.94   1
  -3  -1  -7  155.90   70.36  -2
   3  -1   7  155.90   70.36   1
   3   1   7  283.65  137.98  -2
  -3   1  -7  283.65  137.98   1
   3   1   7  342.67  181.80  -2
  -3   1  -7  342.67  181.80   1
   3   1   7  102.25  120.19  -2
  -3   1  -7  102.25  120.19   1
  -3  -1  -7  218.23  142.26  -2
   3  -1   7  218.23  142.26   1
  -3  -1  -7  389.18  196.72  -2
   3  -1   7  389.18  196.72   1
   3  -1   8 1134.96  365.49   1
   3  -1   8 1735.87  196.35   1
   3  -1   8 1754.15  321.95   1
  -3   1  -8 1969.22  373.65   1
  -3   1  -8 1737.29  387.53   1
   3  -1   9   92.97  100.55   1
  -3   1  -9  127.24  135.70   1
  -3   1  -9  -83.56  119.44   1
   3  -1   9   74.25  171.28   1
   3  -1   9 -127.42  149.38   1
   3  -1  10  305.95  104.51   1
  -3   1 -10  256.44  215.96   1
   3  -1  10  169.34  165.14   1
  -3   1 -11  758.14  271.01   1
   3  -1  11  583.79  335.14   1
  -3   1 -11  907.55  329.10   1
   3  -1  11  831.73  213.93   1
  -3   1 -12 1719.70  441.36   1
   3  -1  12 2159.56  616.24   1
  -3   1 -12 1126.98  361.03   1
   3   0 -11   76.97  193.78   1
  -3   0  11 -189.85  241.08   1
  -3  -3  10 -116.40  200.28  -2
   3   0 -10 -116.40  200.28   1
   3   3 -10   52.35  187.13  -2
  -3   0  10   52.35  187.13   1
   3   3  -9  842.08  296.63  -2
  -3   0   9  842.08  296.63   1
  -3  -3   9  961.94  316.38  -2
   3   0  -9  961.94  316.38   1
  -3  -3   9 1151.37  246.12  -2
   3   0  -9 1151.37  246.12   1
   3   3  -8 1456.20  372.88  -2
  -3   0   8 1456.20  372.88   1
  -3  -3   8  940.51  268.86  -2
   3   0  -8  940.51  268.86   1
   3   3  -8 1585.81  291.71  -2
  -3   0   8 1585.81  291.71   1
   3   3  -8 1139.39  306.99  -2
  -3   0   8 1139.39  306.99   1
  -3  -3   8 1152.08  232.23  -2
   3   0  -8 1152.08  232.23   1
   3   3  -7 4725.90  580.92  -2
  -3   0   7 4725.90  580.92   1
   3   3  -7 3892.01  423.76  -2
  -3   0   7 3892.01  423.76   1
  -3  -3   7 4309.67  546.06  -2
   3   0  -7 4309.67  546.06   1
   3   3  -7 4275.67  522.25  -2
  -3   0   7 4275.67  522.25   1
  -3  -3   7 4194.81  429.79  -2
   3   0  -7 4194.81  429.79   1
   3   3  -7 3993.17  406.42  -2
  -3   0   7 3993.17  406.42   1
   3   3  -6 2951.33  406.83  -2
  -3   0   6 2951.33  406.83   1
   3   3  -6 2360.82  430.03  -2
  -3   0   6 2360.82  430.03   1
   3   3  -6 1892.22  352.04  -2
  -3   0   6 1892.22  352.04   1
  -3  -3   6 2338.85  416.57  -2
   3   0  -6 2338.85  416.57   1
   3   3  -6 1585.73  346.34  -2
  -3   0   6 1585.73  346.34   1
  -3  -3   6 2223.79  317.73  -2
   3   0  -6 2223.79  317.73   1
   3   3  -6 1912.17  289.19  -2
  -3   0   6 1912.17  289.19   1
  -3   0   5  680.66  208.60   1
  -3   0   5  526.42  166.39   1
   3   0  -5  742.41  200.04   1
  -3   0   5  805.43  218.63   1
  -3   0   5  806.66  181.57   1
   3   0  -436357.20 1156.95   1
  -3   0   432931.00 1205.17   1
   3   0  -433070.00  632.71   1
  -3   0   433113.90 1115.75   1
  -3   0   432439.10  666.45   1
  -3   0   434744.50 1125.48   1
  -3   0   434370.70  996.05   1
  -3   0   336194.20 1184.39   1
   3   0  -335907.80  746.72   1
  -3   0   333752.50  754.24   1
  -3   0   337953.30 1006.54   1
  -3   0   336944.80 1107.30   1
   3   0  -338597.50 1072.31   1
   3   0  -334560.00 1187.09   1
  -3   0   337821.40 1251.84   1
  -3   0   336667.00 1028.96   1
   3   0  -243618.50 1269.06   1
  -3   0   244587.80 1322.74   1
  -3   0   243957.90 1141.55   1
   3   0  -247163.30 1010.17   1
  -3   0   242653.90  916.64   1
  -3   0   246107.80  978.55   1
  -3   0   246476.60 1081.24   1
   3   0  -243867.90  906.85   1
   3   0  -1   45.58   57.57   1
  -3   0   1   28.95   81.01   1
  -3   0   1   79.01   57.59   1
   3   0  -1   88.03   67.45   1
   3   0  -1   70.93   67.23   1
  -3   0   1   62.09   39.01   1
  -3   0   1    1.05   63.29   1
   3   0  -1   49.43   41.27   1
  -3   0   0 1291.64  212.71   1
   3   0   0  822.71   82.67   1
   3   0   0 1123.62  210.42   1
   3   0   0 1048.34  191.64   1
  -3   0   0 1166.87  201.41   1
   3   0   0 1286.81  244.93   1
  -3   0   0  670.98  151.27   1
  -3   0   0 1070.98  208.28   1
   3   0   0  954.27  180.60   1
   3   0   142209.80 1110.13   1
   3   0   142898.30 1062.82   1
  -3   0  -143705.20 1060.80   1
  -3   0  -142308.00 1074.16   1
  -3   0  -142348.70 1005.56   1
  -3   0  -142137.50 1138.82   1
   3   0   143047.40 1156.04   1
   3   0   142837.20 1209.44   1
   3   0   142114.30 1064.08   1
  -3   0  -2    1.95   72.09   1
   3   0   2   45.53   74.06   1
   3   0   2   37.18   36.50   1
  -3   0  -2   23.16   68.06   1
  -3   0  -2   19.65   47.54   1
  -3   0  -2   54.31   86.90   1
   3   0   2   77.07   91.09   1
   3   0   2  -17.16   75.06   1
  -3   0  -2   62.80   78.80   1
  -3   0  -2   71.55   67.56   1
   3   0   2    2.89   57.16   1
  -3   0  -346373.80 1348.36   1
   3   0   345116.40 1013.81   1
   3   0   347031.80 1215.52   1
  -3   0  -344589.50  875.81   1
  -3   0  -343792.20  926.57   1
   3   0   348748.70 1391.62   1
   3   0   344767.10  831.42   1
   3   0   344980.90 1301.17   1
  -3   0  -347324.70 1234.22   1
  -3   0  -345999.60 1043.06   1
  -3   0  -346633.80 1323.44   1
  -3  -2  -480418.80 1936.52  -2
   3   0   480418.80 1936.52   1
   3   2   478432.10 1917.49  -2
  -3   0  -478432.10 1917.49   1
   3   2   479666.20 1647.08  -2
  -3   0  -479666.20 1647.08   1
  -3  -2  -478218.50 1930.06  -2
   3   0   478218.50 1930.06   1
  -3  -2  -481150.80 1657.36  -2
   3   0   481150.80 1657.36   1
   3   2   478780.70 1427.06  -2
  -3   0  -478780.70 1427.06   1
  -3  -2  -475722.80 1320.82  -2
   3   0   475722.80 1320.82   1
   3   2   475057.10 1144.18  -2
  -3   0  -475057.10 1144.18   1
  -3  -2  -475273.80 1298.36  -2
   3   0   475273.80 1298.36   1
  -3  -2  -479367.60 1845.80  -2
   3   0   479367.60 1845.80   1
  -3  -2  -523220.60 1135.06  -2
   3   0   523220.60 1135.06   1
   3   2   524126.90 1149.45  -2
  -3   0  -524126.90 1149.45   1
  -3  -2  -525000.60  948.13  -2
   3   0   525000.60  948.13   1
   3   2   523109.90  556.47  -2
  -3   0  -523109.90  556.47   1
   3   2   525954.60  926.00  -2
  -3   0  -525954.60  926.00   1
   3   2   523187.20  925.73  -2
  -3   0  -523187.20  925.73   1
  -3  -2  -523067.70  760.66  -2
   3   0   523067.70  760.66   1
  -3  -2  -524881.70 1151.31  -2
   3   0   524881.70 1151.31   1
  -3  -2  -523365.10 1075.68  -2
   3   0   523365.10 1075.68   1
  -3  -2  -523385.60  847.82  -2
   3   0   523385.60  847.82   1
  -3  -2  -655881.10 1875.24  -2
   3   0   655881.10 1875.24   1
   3   2   657417.30 1919.33  -2
  -3   0  -657417.30 1919.33   1
  -3  -2  -653731.90 1218.52  -2
   3   0   653731.90 1218.52   1
   3   2   654737.40 1505.05  -2
  -3   0  -654737.40 1505.05   1
   3   2   652829.80 1449.13  -2
  -3   0  -652829.80 1449.13   1
  -3  -2  -655787.70 1462.25  -2
   3   0   655787.70 1462.25   1
  -3  -2  -654451.90 1827.77  -2
   3   0   654451.90 1827.77   1
  -3  -2  -656473.10 1801.74  -2
   3   0   656473.10 1801.74   1
   3   2   655011.10 1729.29  -2
  -3   0  -655011.10 1729.29   1
  -3  -2  -713176.50  998.37  -2
   3   0   713176.50  998.37   1
  -3  -2  -713306.60  743.14  -2
   3   0   713306.60  743.14   1
   3   2   713289.80  755.02  -2
  -3   0  -713289.80  755.02   1
  -3  -2  -714204.20  976.20  -2
   3   0   714204.20  976.20   1
  -3  -2  -713656.50  801.04  -2
   3   0   713656.50  801.04   1
  -3  -2  -712577.80  626.99  -2
   3   0   712577.80  626.99   1
   3   2   713821.30  937.24  -2
  -3   0  -713821.30  937.24   1
   3   2   712235.50  805.62  -2
  -3   0  -712235.50  805.62   1
   3   0   825332.60 1465.72   1
   3   0   822512.70  991.27   1
  -3   0  -823628.90 1035.11   1
   3   0   822531.60  889.78   1
  -3   0  -823858.80 1197.82   1
  -3   0  -822011.70 1257.75   1
   3   0   927297.00 1632.00   1
  -3   0  -926663.00 1139.44   1
   3   0   924731.70 1050.34   1
  -3   0  -926764.60 1388.96   1
   3   0   925608.00 1002.28   1
  -3   0  -925293.60 1410.44   1
   3   0  10  232.32  133.36   1
  -3   0 -10  218.97  176.68   1
   3   0  10  547.69  188.74   1
  -3   0 -11   58.15  192.38   1
  -3   0 -11   14.36  143.91   1
   3   0  11 -106.83  131.42   1
   3   0  11  100.86  245.17   1
  -3   0 -12   91.24  179.33   1
   3   0  12  232.96  351.23   1
  -3   0 -12 -254.63  290.56   1
  -3  -1  11  -54.62  211.22   1
   3   1 -11  295.55  298.33   1
   3   4 -10  377.86  286.46  -2
  -3  -1  10  377.86  286.46   1
  -3  -4  10  123.53  220.51  -2
   3   1 -10  123.53  220.51   1
  -3  -4  10  192.61  172.88  -2
   3   1 -10  192.61  172.88   1
   3   4  -9 2051.06  441.06  -2
  -3  -1   9 2051.06  441.06   1
  -3  -4   9 2420.21  471.66  -2
   3   1  -9 2420.21  471.66   1
  -3  -4   9 2279.56  370.99  -2
   3   1  -9 2279.56  370.99   1
   3   4  -8 2802.71  499.58  -2
  -3  -1   8 2802.71  499.58   1
   3   4  -8 2995.40  373.70  -2
  -3  -1   8 2995.40  373.70   1
  -3  -4   8 3341.87  521.72  -2
   3   1  -8 3341.87  521.72   1
  -3  -4   8 3416.70  429.06  -2
   3   1  -8 3416.70  429.06   1
   3   4  -7  301.94  168.55  -2
  -3  -1   7  301.94  168.55   1
   3   4  -7 1537.31  284.42  -2
  -3  -1   7 1537.31  284.42   1
   3   4  -7  919.00  264.63  -2
  -3  -1   7  919.00  264.63   1
  -3  -4   7  911.45  290.79  -2
   3   1  -7  911.45  290.79   1
   3   4  -7 1033.29  321.53  -2
  -3  -1   7 1033.29  321.53   1
  -3  -4   7  509.29  187.62  -2
   3   1  -7  509.29  187.62   1
  -3  -4   7 1013.29  295.86  -2
   3   1  -7 1013.29  295.86   1
  -3  -4   6 8395.97  693.13  -2
   3   1  -6 8395.97  693.13   1
   3   4  -6 7748.86  665.18  -2
  -3  -1   6 7748.86  665.18   1
  -3  -4   6 8883.78  708.76  -2
   3   1  -6 8883.78  708.76   1
   3   4  -6 9672.02  713.55  -2
  -3  -1   6 9672.02  713.55   1
  -3  -4   6 9002.35  619.52  -2
   3   1  -6 9002.35  619.52   1
   3   4  -6 8376.19  711.69  -2
  -3  -1   6 8376.19  711.69   1
   3   4  -6 9708.96  712.85  -2
  -3  -1   6 9708.96  712.85   1
   3   4  -6 8328.67  590.85  -2
  -3  -1   6 8328.67  590.85   1
   3   4  -6 9402.79  636.91  -2
  -3  -1   6 9402.79  636.91   1
  -3  -1   5 7594.24  596.40   1
  -3  -1   5 8278.41  634.90   1
  -3  -1   5 7803.12  547.10   1
  -3  -1   5 6642.03  249.26   1
   3   1  -5 8320.61  632.45   1
  -3  -1   5 8187.03  604.03   1
   3   1  -5 7813.47  553.13   1
  -3  -1   5 7911.47  543.72   1
  -3  -1   4 9138.65  578.91   1
   3   1  -4 9595.70  612.09   1
  -3  -1   4 9236.42  572.62   1
  -3  -1   4 9887.85  606.50   1
  -3  -1   4 9187.49  357.55   1
  -3  -1   4 9564.82  643.12   1
   3   1  -4 8792.68  553.69   1
  -3  -1   4 9711.31  567.76   1
  -3  -1   322203.00  851.53   1
  -3  -1   321688.90  808.12   1
  -3  -1   324201.60  954.30   1
  -3  -1   323091.60  828.87   1
   3   1  -323444.30  613.51   1
  -3  -1   323304.50  628.31   1
  -3  -1   322470.10  751.13   1
  -3  -1   323974.30  829.35   1
  -3  -1   322776.60  990.91   1
   3   1  -323777.90  863.11   1
   3   1  -322958.60  835.59   1
  -3  -1   245040.00 1028.40   1
   3   1  -246360.30 1032.00   1
   3   1  -244561.40  896.20   1
  -3  -1   245966.10 1174.85   1
  -3  -1   246277.40  942.28   1
  -3  -1   246384.10 1244.71   1
  -3  -1   247634.60 1362.29   1
   3   1  -245149.80 1319.03   1
  -3  -1   247647.10 1016.83   1
  -3  -1   246653.00 1114.85   1
  -3  -1   247965.70 1009.48   1
  -3  -1   1 1921.15  211.96   1
   3   1  -1 2120.88  277.70   1
  -3  -1   1 1061.63  176.45   1
   3   1  -1 1813.65  193.30   1
  -3  -1   1 2001.85  170.02   1
  -3  -1   1 1842.48  170.07   1
  -3  -1   1 1742.55  239.66   1
  -3  -1   1 1900.13  201.77   1
  -3  -1   1 2015.77  278.38   1
   3   1  -1 2026.83  250.21   1
   3   1  -1 1866.57  194.77   1
  -3  -1   1 1876.11  227.98   1
   3   1  -1 1811.08  171.41   1
  -3  -1   014405.60  633.01   1
  -3  -1   016969.20  701.07   1
   3   1   017152.60  614.17   1
   3   1   017622.70  660.60   1
  -3  -1   016630.60  650.07   1
  -3  -1   018116.10  623.58   1
  -3  -1   015811.40  339.60   1
   3   1   017193.10  591.09   1
  -3  -1   016827.60  629.46   1
   3   1   017585.20  705.15   1
  -3  -1   016572.10  368.62   1
   3   1   016348.20  730.33   1
   3   1   016422.50  680.16   1
   3   1   1  261977    1383   1
   3   1   1  270471    2829   1
   3   1   1  272536    2650   1
  -3  -1  -1  266638    2600   1
   3   1   1  261707    2510   1
   3   1   1  265757    2573   1
  -3  -1  -1  268551    2507   1
   3   1   1  267422    2482   1
  -3  -1  -1  269772    2678   1
   3   1   1  263317    2852   1
  -3  -1  -1  259382    2744   1
  -3  -1  -1  268243    2582   1
  -3  -1  -245998.30 1137.36   1
   3   1   247230.60 1102.66   1
  -3  -1  -248871.40 1152.14   1
   3   1   246243.20 1222.24   1
   3   1   247710.30  997.30   1
  -3  -1  -245164.60  995.40   1
   3   1   246996.90 1197.20   1
  -3  -1  -247093.60 1185.01   1
   3   1   247434.80  760.31   1
   3   1   246189.80 1198.07   1
  -3  -1  -244554.80  640.49   1
  -3  -1  -247600.50 1121.12   1
   3   1   314504.50  734.29   1
  -3  -1  -314386.90  718.17   1
   3   1   313523.10  610.30   1
  -3  -1  -314045.30  642.14   1
   3   1   315191.50  753.34   1
  -3  -1  -314524.70  490.48   1
  -3  -1  -314855.50  742.79   1
   3   1   314188.50  683.65   1
   3   1   315291.60  754.68   1
  -3  -1  -314786.40  641.73   1
   3   1   314557.80  646.43   1
   3   1   314329.10  527.09   1
  -3  -1  -314356.20  534.41   1
   3   1   314313.40  470.25   1
  -3  -3  -4 1332.37  261.24  -2
   3   1   4 1332.37  261.24   1
  -3  -3  -4  902.09  181.03  -2
   3   1   4  902.09  181.03   1
   3   3   4 1381.75  247.47  -2
  -3  -1  -4 1381.75  247.47   1
  -3  -3  -4 1401.21  215.54  -2
   3   1   4 1401.21  215.54   1
  -3  -3  -4 1116.23  231.04  -2
   3   1   4 1116.23  231.04   1
  -3  -3  -4 1152.33  148.29  -2
   3   1   4 1152.33  148.29   1
   3   3   4 1354.80  165.47  -2
  -3  -1  -4 1354.80  165.47   1
   3   3   4 1052.29  200.36  -2
  -3  -1  -4 1052.29  200.36   1
  -3  -3  -4 1035.52  231.97  -2
   3   1   4 1035.52  231.97   1
  -3  -3  -4 1161.98  211.10  -2
   3   1   4 1161.98  211.10   1
  -3  -3  -4 1007.69  157.31  -2
   3   1   4 1007.69  157.31   1
   3   3   4 1231.19  178.38  -2
  -3  -1  -4 1231.19  178.38   1
  -3  -3  -536603.00 1382.44  -2
   3   1   536603.00 1382.44   1
   3   3   537997.50 1399.96  -2
  -3  -1  -537997.50 1399.96   1
  -3  -3  -538233.20 1123.92  -2
   3   1   538233.20 1123.92   1
   3   3   534564.30  716.49  -2
  -3  -1  -534564.30  716.49   1
  -3  -3  -537483.20 1399.62  -2
   3   1   537483.20 1399.62   1
   3   3   535958.20 1062.52  -2
  -3  -1  -535958.20 1062.52   1
  -3  -3  -537076.30 1094.27  -2
   3   1   537076.30 1094.27   1
  -3  -3  -537739.70 1371.17  -2
   3   1   537739.70 1371.17   1
  -3  -3  -534539.40 1045.35  -2
   3   1   534539.40 1045.35   1
   3   3   534498.20 1080.45  -2
  -3  -1  -534498.20 1080.45   1
  -3  -3  -6 4070.48  499.67  -2
   3   1   6 4070.48  499.67   1
   3   3   6 4220.20  514.25  -2
  -3  -1  -6 4220.20  514.25   1
   3   3   6 4316.24  394.02  -2
  -3  -1  -6 4316.24  394.02   1
  -3  -3  -6 3427.90  362.11  -2
   3   1   6 3427.90  362.11   1
  -3  -3  -6 4190.43  518.91  -2
   3   1   6 4190.43  518.91   1
   3   3   6 3777.26  398.67  -2
  -3  -1  -6 3777.26  398.67   1
  -3  -3  -6 4088.94  391.29  -2
   3   1   6 4088.94  391.29   1
  -3  -3  -6 4754.33  532.89  -2
   3   1   6 4754.33  532.89   1
   3   3   6 5039.74  535.46  -2
  -3  -1  -6 5039.74  535.46   1
  -3  -3  -716826.20 1118.57  -2
   3   1   716826.20 1118.57   1
   3   3   715591.80  777.73  -2
  -3  -1  -715591.80  777.73   1
  -3  -3  -714143.80  735.08  -2
   3   1   714143.80  735.08   1
  -3  -3  -714148.40  755.68  -2
   3   1   714148.40  755.68   1
   3   3   714574.80  864.15  -2
  -3  -1  -714574.80  864.15   1
  -3  -3  -715012.00  854.70  -2
   3   1   715012.00  854.70   1
   3   3   715125.40  992.42  -2
  -3  -1  -715125.40  992.42   1
   3   1   8  697.97  254.64   1
  -3  -1  -8  612.74  194.45   1
  -3  -1  -8  337.16  173.13   1
   3   1   8  566.70  187.30   1
  -3  -1  -8  659.32  240.16   1
   3   1   8  644.52  197.54   1
   3   1   9 8109.01  893.83   1
   3   1   9 7762.11  630.13   1
  -3  -1  -9 8306.92  614.24   1
   3   1   9 7712.76  574.59   1
  -3  -1  -9 8297.12  770.77   1
   3   1  10 1220.74  289.43   1
   3   1  10  888.21  207.07   1
  -3  -1 -10  853.74  298.90   1
   3   1  10 1094.15  395.79   1
  -3  -1 -11  297.51  198.76   1
   3   1  11  526.94  335.43   1
  -3  -1 -11  518.47  290.86   1
   3   1  11  491.74  217.36   1
   3   1  11   23.06  134.87   1
  -3  -1 -12  246.82  149.34   1
   3   1  12   48.03  233.47   1
  -3  -1 -12    2.65  185.15   1
   3   2 -11 -207.70  240.32   1
  -3  -2  11  297.12  230.08   1
   3   2 -11   66.20  182.96   1
  -3  -2  11  411.98  281.30   1
  -3  -5  10  -87.70  231.66  -2
   3   2 -10  -87.70  231.66   1
   3   5 -10   -2.00  181.54  -2
  -3  -2  10   -2.00  181.54   1
  -3  -5  10  126.63  123.28  -2
   3   2 -10  126.63  123.28   1
   3   5  -9  769.02  310.50  -2
  -3  -2   9  769.02  310.50   1
  -3  -5   9  334.26  222.21  -2
   3   2  -9  334.26  222.21   1
  -3  -5   9  346.14  180.24  -2
   3   2  -9  346.14  180.24   1
  -3  -5   8  709.15  258.13  -2
   3   2  -8  709.15  258.13   1
   3   5  -8  481.50  243.01  -2
  -3  -2   8  481.50  243.01   1
   3   5  -8  756.45  235.58  -2
  -3  -2   8  756.45  235.58   1
   3   5  -8  958.62  219.84  -2
  -3  -2   8  958.62  219.84   1
  -3  -5   8  544.14  191.45  -2
   3   2  -8  544.14  191.45   1
   3   5  -7 6600.73  656.95  -2
  -3  -2   7 6600.73  656.95   1
   3   5  -7 4484.51  184.10  -2
  -3  -2   7 4484.51  184.10   1
  -3  -5   7 5777.52  616.67  -2
   3   2  -7 5777.52  616.67   1
   3   5  -7 4764.66  205.36  -2
  -3  -2   7 4764.66  205.36   1
  -3  -5   7 6868.82  697.49  -2
   3   2  -7 6868.82  697.49   1
   3   5  -7 6436.31  520.79  -2
  -3  -2   7 6436.31  520.79   1
   3   5  -7 6902.63  618.50  -2
  -3  -2   7 6902.63  618.50   1
  -3  -5   7 6322.63  577.21  -2
   3   2  -7 6322.63  577.21   1
   3   5  -7 6521.82  598.61  -2
  -3  -2   7 6521.82  598.61   1
  -3  -5   6 1519.76  292.09  -2
   3   2  -6 1519.76  292.09   1
   3   5  -6 1926.76  334.27  -2
  -3  -2   6 1926.76  334.27   1
  -3  -5   6 2400.68  409.21  -2
   3   2  -6 2400.68  409.21   1
   3   5  -6 2042.49  345.58  -2
  -3  -2   6 2042.49  345.58   1
   3   5  -6 2205.71  458.84  -2
  -3  -2   6 2205.71  458.84   1
   3   5  -6 1922.50  353.39  -2
  -3  -2   6 1922.50  353.39   1
   3   5  -6 2228.16  370.85  -2
  -3  -2   6 2228.16  370.85   1
   3   5  -6 1542.09  152.55  -2
  -3  -2   6 1542.09  152.55   1
   3   5  -6 2014.66  333.75  -2
  -3  -2   6 2014.66  333.75   1
  -3  -2   5  187.47  123.74   1
  -3  -2   5   15.57   76.41   1
  -3  -2   5  192.99  121.31   1
   3   2  -5  -76.49   99.05   1
   3   2  -5   27.18   72.74   1
  -3  -2   5   88.87   69.36   1
  -3  -2   5  170.71  103.40   1
  -3  -2   5  122.86  100.95   1
   3   2  -5   81.07  136.39   1
  -3  -2   5  137.24  117.14   1
   3   2  -456226.50 1522.67   1
  -3  -2   453415.30 1339.14   1
   3   2  -451846.40 1286.97   1
  -3  -2   453489.30  993.68   1
  -3  -2   453875.00 1453.46   1
  -3  -2   456902.70 1412.23   1
  -3  -2   456268.40 1443.55   1
  -3  -2   456330.70 1549.43   1
   3   2  -454585.70 1453.74   1
  -3  -2   456294.60 1449.38   1
  -3  -2   3 5501.64  366.63   1
  -3  -2   3 5305.22  438.25   1
  -3  -2   3 5338.02  324.30   1
   3   2  -3 5236.82  406.35   1
  -3  -2   3 5465.59  428.90   1
   3   2  -3 5407.63  435.49   1
  -3  -2   3 5489.43  410.75   1
  -3  -2   3 5761.28  441.04   1
   3   2  -3 5726.30  445.04   1
  -3  -2   3 5053.13  414.56   1
  -3  -2   2 1586.41  239.75   1
  -3  -2   2 1615.36  150.92   1
  -3  -2   2 1596.51  159.60   1
   3   2  -2 1806.54  248.77   1
  -3  -2   2 1578.90  210.25   1
  -3  -2   2 1699.53  198.53   1
  -3  -2   2 1746.34  240.26   1
  -3  -2   2 1651.83  209.65   1
   3   2  -2 1694.33  239.12   1
   3   2  -2 1782.08  246.44   1
  -3  -2   2 1662.12  218.29   1
  -3  -2   2 1659.64  228.11   1
   3   2  -113320.10  612.94   1
   3   2  -113179.70  625.77   1
  -3  -2   113058.40  344.87   1
   3   2  -114016.40  560.51   1
  -3  -2   113094.00  498.17   1
  -3  -2   113887.30  655.63   1
  -3  -2   113434.10  408.60   1
  -3  -2   113541.30  630.28   1
  -3  -2   113254.80  550.92   1
   3   2  -113479.90  398.80   1
  -3  -2   113488.20  535.03   1
   3   2  -113702.90  536.30   1
   3   2  -113551.70  706.75   1
  -3  -2   113789.60  602.07   1
   3   2  -113026.20  619.29   1
  -3  -2   0 8119.31  286.85   1
   3   2   0 8821.22  506.65   1
   3   2   0 8698.40  481.37   1
  -3  -2   0 8681.45  458.76   1
   3   2   0 8572.93  453.93   1
   3   2   0 8364.95  351.33   1
   3   2   0 8198.13  457.43   1
  -3  -2   0 8593.04  539.51   1
   3   2   0 8925.24  543.24   1
  -3  -2   0 8093.90  455.11   1
  -3  -2   0 8740.60  367.76   1
  -3  -2   0 8659.07  385.04   1
   3   2   0 8494.77  379.83   1
  -3  -2  -123375.40  610.97   1
   3   2   123930.30  842.41   1
  -3  -2  -121085.20  797.50   1
  -3  -2  -123535.80  779.35   1
  -3  -2  -124986.60  721.88   1
  -3  -2  -122659.50  766.60   1
   3   2   123750.00  628.99   1
   3   2   124110.70  714.13   1
   3   2   124667.80  771.16   1
   3   2   124048.10  856.62   1
  -3  -2  -124071.20  864.58   1
   3   2   123390.60  803.40   1
  -3  -2  -124867.80  650.21   1
  -3  -2  -123379.10  811.21   1
   3   2   2 6826.50  410.63   1
  -3  -2  -2 7209.43  419.74   1
  -3  -2  -2 7327.95  463.93   1
   3   2   2 7366.03  447.87   1
   3   2   2 7815.67  394.89   1
   3   2   2 7844.52  428.94   1
  -3  -2  -2 7251.92  418.98   1
   3   2   2 7743.02  465.86   1
   3   2   2 7827.75  486.40   1
  -3  -2  -2 7232.05  480.81   1
   3   2   2 8032.63  482.74   1
  -3  -2  -2 7686.43  476.08   1
  -3  -2  -2 7863.79  506.68   1
   3   2   2 7229.43  490.92   1
  -3  -2  -2 7521.12  336.18   1
   3   2   327109.90  941.22   1
   3   2   326515.00  873.36   1
   3   2   327319.70  870.45   1
  -3  -2  -326947.80  785.78   1
   3   2   326266.30  804.62   1
   3   2   329455.60 1027.15   1
  -3  -2  -327331.90  921.17   1
   3   2   327951.50  785.68   1
   3   2   328157.60  952.44   1
   3   2   328326.10 1035.31   1
  -3  -2  -327339.00  745.97   1
  -3  -2  -327757.70 1004.76   1
  -3  -4  -434719.20 1232.24  -2
   3   2   434719.20 1232.24   1
   3   4   434175.10  889.50  -2
  -3  -2  -434175.10  889.50   1
   3   4   434251.10 1188.13  -2
  -3  -2  -434251.10 1188.13   1
  -3  -4  -434939.40 1121.98  -2
   3   2   434939.40 1121.98   1
  -3  -4  -436992.30 1308.40  -2
   3   2   436992.30 1308.40   1
  -3  -4  -434831.30 1275.27  -2
   3   2   434831.30 1275.27   1
  -3  -4  -431072.40  963.67  -2
   3   2   431072.40  963.67   1
   3   4   436463.80 1115.67  -2
  -3  -2  -436463.80 1115.67   1
   3   4   432585.40  955.30  -2
  -3  -2  -432585.40  955.30   1
  -3  -4  -435097.60  899.39  -2
   3   2   435097.60  899.39   1
  -3  -4  -433824.90 1029.68  -2
   3   2   433824.90 1029.68   1
  -3  -4  -5 8635.19  665.99  -2
   3   2   5 8635.19  665.99   1
  -3  -4  -5 8242.67  575.75  -2
   3   2   5 8242.67  575.75   1
  -3  -4  -5 5889.40  448.28  -2
   3   2   5 5889.40  448.28   1
   3   4   5 6902.68  491.78  -2
  -3  -2  -5 6902.68  491.78   1
  -3  -4  -5 8293.90  684.97  -2
   3   2   5 8293.90  684.97   1
   3   4   5 6589.06  474.79  -2
  -3  -2  -5 6589.06  474.79   1
  -3  -4  -5 8049.14  511.55  -2
   3   2   5 8049.14  511.55   1
  -3  -4  -5 7803.46  645.85  -2
   3   2   5 7803.46  645.85   1
  -3  -4  -5 7494.71  396.42  -2
   3   2   5 7494.71  396.42   1
  -3  -4  -5 5251.51  446.86  -2
   3   2   5 5251.51  446.86   1
  -3  -4  -633485.40 1447.66  -2
   3   2   633485.40 1447.66   1
   3   4   635273.30 1459.97  -2
  -3  -2  -635273.30 1459.97   1
  -3  -4  -628744.40  999.43  -2
   3   2   628744.40  999.43   1
   3   4   629631.20 1028.15  -2
  -3  -2  -629631.20 1028.15   1
  -3  -4  -631126.60  772.19  -2
   3   2   631126.60  772.19   1
  -3  -4  -633267.20 1460.25  -2
   3   2   633267.20 1460.25   1
   3   4   628925.90 1093.42  -2
  -3  -2  -628925.90 1093.42   1
  -3  -4  -630908.30 1055.25  -2
   3   2   630908.30 1055.25   1
   3   4   6 6005.51  593.16  -2
  -3  -2  -6 6005.51  593.16   1
  -3  -4  -632901.60 1395.08  -2
   3   2   632901.60 1395.08   1
  -3  -4  -710702.50  894.96  -2
   3   2   710702.50  894.96   1
   3   4   7 9834.07  712.22  -2
  -3  -2  -7 9834.07  712.22   1
  -3  -4  -7 9068.22  394.84  -2
   3   2   7 9068.22  394.84   1
   3   4   7 9408.49  609.00  -2
  -3  -2  -7 9408.49  609.00   1
  -3  -4  -7 8381.48  564.39  -2
   3   2   7 8381.48  564.39   1
   3   4   710963.90  858.56  -2
  -3  -2  -710963.90  858.56   1
  -3  -4  -7 9232.91  700.66  -2
   3   2   7 9232.91  700.66   1
  -3  -2  -8 1296.88  371.75   1
   3   2   8 1355.88  321.68   1
   3   2   8  694.51  101.33   1
   3   2   8 2038.37  502.88   1
  -3  -2  -8 2193.19  407.06   1
  -3  -2  -8 1292.46  322.64   1
   3   2   9  155.05  158.54   1
   3   2   9   16.82  193.02   1
  -3  -2  -9   66.10  176.01   1
   3   2  10  970.84  214.71   1
   3   2  10 1182.04  399.22   1
  -3  -2 -10 1130.47  326.04   1
  -3  -2 -11  302.33  181.91   1
   3   2  11 -151.28  196.03   1
  -3  -2 -11  196.36  142.90   1
   3   2  12  344.25  381.63   1
  -3  -2 -12  101.15  138.60   1
   3   3 -11   59.53  307.71   1
  -3  -3  11  111.46  164.78   1
  -3  -3  11  -58.25  247.32   1
   3   3 -11 -175.76  193.19   1
   3   6 -10   72.70  163.98  -2
  -3  -3  10   72.70  163.98   1
  -3  -6  10  -90.54  167.80  -2
   3   3 -10  -90.54  167.80   1
   3   6 -10   56.41  190.42  -2
  -3  -3  10   56.41  190.42   1
  -3  -6  10  196.19  164.41  -2
   3   3 -10  196.19  164.41   1
   3   6  -9  100.80  159.13  -2
  -3  -3   9  100.80  159.13   1
  -3  -6   9  659.47  319.74  -2
   3   3  -9  659.47  319.74   1
   3   6  -9  276.67  195.44  -2
  -3  -3   9  276.67  195.44   1
  -3  -6   9  459.77  214.65  -2
   3   3  -9  459.77  214.65   1
   3   6  -8 2459.36  392.27  -2
  -3  -3   8 2459.36  392.27   1
   3   6  -8 2316.46  196.45  -2
  -3  -3   8 2316.46  196.45   1
   3   6  -8 1917.37  380.24  -2
  -3  -3   8 1917.37  380.24   1
  -3  -6   8 2107.51  422.57  -2
   3   3  -8 2107.51  422.57   1
   3   6  -8 2245.81  214.82  -2
  -3  -3   8 2245.81  214.82   1
   3   6  -8 2677.63  341.51  -2
  -3  -3   8 2677.63  341.51   1
   3   6  -8 2129.96  451.14  -2
  -3  -3   8 2129.96  451.14   1
  -3  -6   8 1998.43  356.19  -2
   3   3  -8 1998.43  356.19   1
   3   6  -8 3024.89  407.47  -2
  -3  -3   8 3024.89  407.47   1
   3   6  -7 3347.53  458.86  -2
  -3  -3   7 3347.53  458.86   1
  -3  -6   7 3178.64  433.36  -2
   3   3  -7 3178.64  433.36   1
   3   6  -7 2887.75  251.80  -2
  -3  -3   7 2887.75  251.80   1
   3   6  -7 2957.32  473.51  -2
  -3  -3   7 2957.32  473.51   1
   3   6  -7 3377.97  410.29  -2
  -3  -3   7 3377.97  410.29   1
  -3  -6   7 3208.49  517.14  -2
   3   3  -7 3208.49  517.14   1
   3   6  -7 2920.43  390.42  -2
  -3  -3   7 2920.43  390.42   1
   3   6  -7 3300.98  387.85  -2
  -3  -3   7 3300.98  387.85   1
  -3  -6   7 2821.34  410.88  -2
   3   3  -7 2821.34  410.88   1
   3   6  -612650.90  804.17  -2
  -3  -3   612650.90  804.17   1
   3   6  -610596.70  497.79  -2
  -3  -3   610596.70  497.79   1
   3   6  -612295.50  749.30  -2
  -3  -3   612295.50  749.30   1
   3   6  -613133.80  929.33  -2
  -3  -3   613133.80  929.33   1
   3   6  -611181.70  646.36  -2
  -3  -3   611181.70  646.36   1
  -3  -6   612695.60  830.06  -2
   3   3  -612695.60  830.06   1
  -3  -6   612869.40  914.30  -2
   3   3  -612869.40  914.30   1
   3   6  -613352.70  853.17  -2
  -3  -3   613352.70  853.17   1
   3   6  -611917.30  712.74  -2
  -3  -3   611917.30  712.74   1
  -3  -3   5  158.02  116.32   1
   3   3  -5 -103.05  157.63   1
   3   3  -5    1.07   75.97   1
  -3  -3   5  -31.90   61.33   1
  -3  -3   5  248.50  140.05   1
  -3  -3   5   89.44   82.25   1
  -3  -3   5   28.04   86.39   1
  -3  -3   5   37.01   87.53   1
  -3  -3   5   22.19   98.93   1
   3   3  -5  151.24   98.01   1
   3   3  -5   53.10  102.39   1
  -3  -3   5    6.00   96.57   1
  -3  -3   4  205.96  117.68   1
  -3  -3   4  289.81  136.28   1
   3   3  -4  164.56   90.66   1
   3   3  -4  311.99  131.14   1
  -3  -3   4  206.21   97.45   1
  -3  -3   4  292.99  133.60   1
  -3  -3   4  -18.21   96.58   1
  -3  -3   4  236.98  107.06   1
   3   3  -4  141.50  115.03   1
  -3  -3   4  261.95  146.35   1
  -3  -3   341981.90 1213.97   1
   3   3  -338734.80  831.35   1
  -3  -3   339390.90 1008.64   1
   3   3  -341942.30 1173.52   1
  -3  -3   343017.30 1299.60   1
   3   3  -342902.70 1272.09   1
  -3  -3   344397.10 1115.18   1
  -3  -3   339188.80  858.21   1
   3   3  -342185.90 1187.16   1
  -3  -3   340692.10 1263.86   1
  -3  -3   341556.40 1209.49   1
  -3  -3   339600.60 1191.57   1
  -3  -3   2  279942    2694   1
  -3  -3   2  275521    2889   1
  -3  -3   2  272476    3017   1
   3   3  -2  270420    2925   1
  -3  -3   2  277479    3056   1
   3   3  -2  277211    3047   1
  -3  -3   2  280232    2600   1
  -3  -3   2  277086    3081   1
   3   3  -2  273789    3072   1
   3   3  -2  274559    2968   1
   3   3  -1  999.17  184.55   1
   3   3  -1 1256.46  208.74   1
  -3  -3   1 1162.24  212.34   1
  -3  -3   1 1474.03  209.47   1
   3   3  -1  972.15  180.96   1
  -3  -3   1 1297.99  211.12   1
  -3  -3   1 1148.96  217.10   1
   3   3  -1  981.26  184.18   1
  -3  -3   1 1207.91  200.93   1
  -3  -3   1 1021.60  152.89   1
   3   3   0 7117.46  440.30   1
  -3  -3   0 7082.89  495.83   1
   3   3   0 7187.48  294.55   1
  -3  -3   0 6990.70  430.47   1
  -3  -3   0 7203.78  448.61   1
   3   3   0 7304.91  489.81   1
   3   3   0 6701.85  394.69   1
  -3  -3   0 7215.92  417.33   1
   3   3   0 7032.88  451.58   1
  -3  -3   0 7157.67  448.97   1
  -3  -3   0 6872.69  488.50   1
   3   3   0 7455.67  474.99   1
   3   3   1 3717.65  240.19   1
  -3  -3  -1 3990.56  242.63   1
  -3  -3  -1 4051.49  338.71   1
  -3  -3  -1 3930.24  326.14   1
   3   3   1 4095.17  348.18   1
   3   3   1 4284.29  339.66   1
  -3  -3  -1 4153.19  358.77   1
   3   3   1 3945.78  288.39   1
   3   3   1 4076.83  366.52   1
  -3  -3  -1 4232.94  370.51   1
   3   3   1 3809.01  321.17   1
   3   3   1 4037.55  369.78   1
  -3  -3  -1 4167.83  341.50   1
  -3  -3  -1 4330.75  342.02   1
   3   3   250907.00 1110.79   1
  -3  -3  -251021.40 1110.06   1
  -3  -3  -251335.80 1189.59   1
  -3  -3  -249761.20 1222.39   1
   3   3   249806.10 1241.51   1
  -3  -3  -251871.40 1198.20   1
  -3  -3  -248252.00 1185.96   1
   3   3   251738.60 1219.80   1
   3   3   249458.80 1201.08   1
   3   3   249578.90 1200.60   1
   3   3   249560.50 1267.32   1
   3   3   249675.70 1322.80   1
  -3  -3  -250639.10 1263.20   1
  -3  -3  -251661.30 1149.33   1
   3   3   251825.70 1264.49   1
   3   3   332646.00 1057.08   1
  -3  -3  -336419.30 1106.16   1
   3   3   331576.10 1103.16   1
   3   3   330188.00 1002.63   1
  -3  -3  -331816.50 1016.59   1
   3   3   331178.60 1120.18   1
   3   3   331711.20  905.47   1
   3   3   331402.70 1002.67   1
  -3  -3  -331047.40  890.22   1
   3   3   330557.10 1081.77   1
  -3  -3  -332616.30 1104.37   1
   3   3   334214.00  987.46   1
  -3  -3  -332141.20  923.47   1
  -3  -5  -425578.30  833.33  -2
   3   3   425578.30  833.33   1
  -3  -5  -435264.20 1282.51  -2
   3   3   435264.20 1282.51   1
   3   5   429214.30  988.34  -2
  -3  -3  -429214.30  988.34   1
   3   5   437204.00 1290.15  -2
  -3  -3  -437204.00 1290.15   1
  -3  -5  -5 2824.02  403.43  -2
   3   3   5 2824.02  403.43   1
   3   5   5 2574.05  378.82  -2
  -3  -3  -5 2574.05  378.82   1
  -3  -5  -5 2014.09  340.64  -2
   3   3   5 2014.09  340.64   1
   3   5   5 1771.45  261.48  -2
  -3  -3  -5 1771.45  261.48   1
  -3  -5  -5 2746.34  281.50  -2
   3   3   5 2746.34  281.50   1
  -3  -5  -5 2783.81  402.78  -2
   3   3   5 2783.81  402.78   1
  -3  -5  -5 1496.68  239.60  -2
   3   3   5 1496.68  239.60   1
   3   5   5 1490.80  259.54  -2
  -3  -3  -5 1490.80  259.54   1
   3   5   5 2654.12  387.20  -2
  -3  -3  -5 2654.12  387.20   1
  -3  -5  -6 6889.33  436.66  -2
   3   3   6 6889.33  436.66   1
  -3  -5  -6 4873.90  474.34  -2
   3   3   6 4873.90  474.34   1
  -3  -5  -6 7746.19  708.39  -2
   3   3   6 7746.19  708.39   1
   3   5   6 8592.14  737.23  -2
  -3  -3  -6 8592.14  737.23   1
  -3  -5  -6 4481.59  482.02  -2
   3   3   6 4481.59  482.02   1
   3   5   6 6017.90  474.89  -2
  -3  -3  -6 6017.90  474.89   1
  -3  -5  -6 7961.54  727.50  -2
   3   3   6 7961.54  727.50   1
   3   5   6 5832.89  511.89  -2
  -3  -3  -6 5832.89  511.89   1
  -3  -5  -6 6592.18  428.63  -2
   3   3   6 6592.18  428.63   1
  -3  -5  -6 6922.00  653.26  -2
   3   3   6 6922.00  653.26   1
   3   5   6 8385.83  715.88  -2
  -3  -3  -6 8385.83  715.88   1
  -3  -5  -6 5475.75  460.20  -2
   3   3   6 5475.75  460.20   1
  -3  -5  -7  209.13  109.85  -2
   3   3   7  209.13  109.85   1
   3   5   7  192.68  124.61  -2
  -3  -3  -7  192.68  124.61   1
   3   5   7    7.20  136.44  -2
  -3  -3  -7    7.20  136.44   1
  -3  -5  -7  331.84  173.91  -2
   3   3   7  331.84  173.91   1
  -3  -5  -7  124.33   87.61  -2
   3   3   7  124.33   87.61   1
  -3  -5  -7  449.52  254.05  -2
   3   3   7  449.52  254.05   1
  -3  -5  -7   -3.29  132.61  -2
   3   3   7   -3.29  132.61   1
   3   5   7  187.90  157.73  -2
  -3  -3  -7  187.90  157.73   1
   3   3   8 6093.54  752.57   1
  -3  -3  -8 6015.22  499.99   1
   3   3   8 5396.59  477.61   1
   3   3   8 5292.38  369.70   1
  -3  -3  -8 5914.52  613.65   1
   3   3   8 5493.07  427.61   1
  -3  -3  -9  858.68  289.74   1
   3   3   9 1137.81  383.83   1
   3   3   9  930.06  154.53   1
   3   3   9 1043.12  208.10   1
  -3  -3  -9  966.57  223.82   1
  -3  -3 -10  720.65  191.37   1
   3   3  10  443.07  242.13   1
   3   3  10  371.40  131.19   1
  -3  -3 -10  690.09  254.59   1
   3   3  11 1354.06  461.93   1
  -3  -3 -11 1055.67  343.17   1
  -3  -3 -12  274.55  211.30   1
  -3  -4  11  275.37  255.86   1
   3   4 -11  364.34  168.62   1
   3   7 -10 -309.49  168.90  -2
  -3  -4  10 -309.49  168.90   1
   3   7 -10 -307.96  201.95  -2
  -3  -4  10 -307.96  201.95   1
   3   7  -9  367.92  263.96  -2
  -3  -4   9  367.92  263.96   1
  -3  -7   9  477.94  249.99  -2
   3   4  -9  477.94  249.99   1
   3   7  -8 1488.75  322.56  -2
  -3  -4   8 1488.75  322.56   1
  -3  -7   8 1462.39  345.05  -2
   3   4  -8 1462.39  345.05   1
   3   7  -8 1570.97  281.96  -2
  -3  -4   8 1570.97  281.96   1
   3   7  -8 1213.03  248.82  -2
  -3  -4   8 1213.03  248.82   1
   3   7  -8  905.45  301.03  -2
  -3  -4   8  905.45  301.03   1
   3   7  -8 1459.49  291.87  -2
  -3  -4   8 1459.49  291.87   1
   3   7  -8 1331.51  316.63  -2
  -3  -4   8 1331.51  316.63   1
  -3  -7   8 1501.82  327.72  -2
   3   4  -8 1501.82  327.72   1
   3   7  -7 2248.46  377.68  -2
  -3  -4   7 2248.46  377.68   1
  -3  -7   7 3482.88  449.63  -2
   3   4  -7 3482.88  449.63   1
  -3  -7   7 2079.44  328.41  -2
   3   4  -7 2079.44  328.41   1
   3   7  -7 1149.57  363.08  -2
  -3  -4   7 1149.57  363.08   1
   3   7  -7 2051.75  271.78  -2
  -3  -4   7 2051.75  271.78   1
   3   7  -7 1760.30  325.89  -2
  -3  -4   7 1760.30  325.89   1
   3   7  -7 3159.01  400.62  -2
  -3  -4   7 3159.01  400.62   1
   3   7  -7 2196.53  319.82  -2
  -3  -4   7 2196.53  319.82   1
  -3  -7   7 1624.10  339.91  -2
   3   4  -7 1624.10  339.91   1
   3   7  -7 2947.70  387.48  -2
  -3  -4   7 2947.70  387.48   1
   3   7  -6 5449.52  534.56  -2
  -3  -4   6 5449.52  534.56   1
   3   7  -6 2986.75  328.44  -2
  -3  -4   6 2986.75  328.44   1
   3   7  -6 4033.70  559.68  -2
  -3  -4   6 4033.70  559.68   1
   3   7  -6 4520.08  472.60  -2
  -3  -4   6 4520.08  472.60   1
  -3  -7   6 3995.38  519.64  -2
   3   4  -6 3995.38  519.64   1
  -3  -4   5 3949.36  379.40   1
  -3  -4   5 4429.08  489.33   1
   3   4  -5 3393.78  345.91   1
  -3  -4   5 4180.42  418.76   1
  -3  -4   5 4157.37  418.74   1
  -3  -4   5 3746.50  282.22   1
  -3  -4   5 4112.87  505.66   1
   3   4  -5 4047.21  410.30   1
   3   4  -5 4003.03  455.47   1
  -3  -4   5 4299.74  491.49   1
  -3  -4   451475.30 1171.78   1
   3   4  -450112.50 1137.20   1
   3   4  -453464.00 1382.80   1
  -3  -4   453286.40 1433.82   1
  -3  -4   454459.70 1605.48   1
   3   4  -453114.10 1431.11   1
  -3  -4   452108.70 1469.70   1
  -3  -4   447949.50  717.44   1
  -3  -4   454086.10 1680.37   1
   3   4  -455659.90 1628.27   1
  -3  -4   457993.20 1689.56   1
   3   4  -328646.10  693.83   1
  -3  -4   330120.80 1059.10   1
   3   4  -330487.80 1062.83   1
  -3  -4   329622.50 1082.08   1
  -3  -4   330524.60 1193.90   1
  -3  -4   329677.70  810.96   1
  -3  -4   330124.20 1141.14   1
   3   4  -329320.60 1000.25   1
   3   4  -329153.00 1133.14   1
   3   4  -252886.60  659.83   1
  -3  -4   253390.50 1008.70   1
  -3  -4   256119.30 1526.49   1
  -3  -4   254655.80 1460.87   1
   3   4  -254773.00 1417.21   1
   3   4  -254019.70 1360.87   1
  -3  -4   254696.10 1448.66   1
  -3  -4   253478.80 1419.12   1
   3   4  -254632.70 1468.10   1
  -3  -4   111397.10  659.39   1
  -3  -4   111380.50  469.48   1
   3   4  -111990.90  662.82   1
  -3  -4   111835.40  622.78   1
  -3  -4   111796.50  665.15   1
  -3  -4   111308.70  653.98   1
   3   4  -111413.20  657.27   1
   3   4  -110678.80  615.81   1
   3   4  -111426.50  462.70   1
  -3  -4   111879.10  708.14   1
   3   4  -111857.10  646.31   1
   3   4   0 9757.51  307.96   1
   3   4   010265.60  605.05   1
   3   4   010155.10  604.14   1
  -3  -4   010927.00  601.75   1
  -3  -4   010309.20  612.67   1
   3   4   010336.00  620.37   1
  -3  -4   010488.90  625.46   1
   3   4   0 9826.42  461.40   1
  -3  -4   010199.40  475.68   1
   3   4   010252.50  579.48   1
  -3  -4   010772.30  589.12   1
   3   4   1  105893    1398   1
  -3  -4  -1  109164    1792   1
   3   4   1  108546    2043   1
   3   4   1  110026    2000   1
  -3  -4  -1  108463    1897   1
   3   4   1  110025    1948   1
  -3  -4  -1  113977    1911   1
   3   4   1  109959    1724   1
  -3  -4  -1  111770    2024   1
  -3  -4  -1  108453    1691   1
   3   4   1  106680    1773   1
   3   4   242279.70 1060.67   1
  -3  -4  -243507.80 1098.97   1
  -3  -4  -243899.30 1286.00   1
   3   4   242106.30 1310.49   1
   3   4   241523.30 1275.43   1
  -3  -4  -241278.60 1193.03   1
  -3  -4  -241671.80 1094.18   1
   3   4   243796.40 1229.09   1
   3   4   241980.40 1186.69   1
  -3  -4  -243506.70 1086.46   1
  -3  -4  -241735.30 1180.91   1
  -3  -4  -330628.80 1011.88   1
   3   4   330678.40 1034.63   1
  -3  -4  -331039.30 1089.93   1
  -3  -4  -330708.30 1094.24   1
   3   4   330187.40 1021.21   1
  -3  -4  -329968.60 1026.29   1
  -3  -4  -330614.80  879.22   1
   3   4   330092.30 1084.78   1
  -3  -4  -331312.50  904.60   1
  -3  -4  -331790.10 1121.94   1
  -3  -6  -410146.10  692.84  -2
   3   4   410146.10  692.84   1
   3   6   410203.30  700.36  -2
  -3  -4  -410203.30  700.36   1
   3   6   410075.60  616.08  -2
  -3  -4  -410075.60  616.08   1
  -3  -6  -410014.40  598.12  -2
   3   4   410014.40  598.12   1
  -3  -6  -4 9298.38  456.68  -2
   3   4   4 9298.38  456.68   1
  -3  -6  -410651.50  708.97  -2
   3   4   410651.50  708.97   1
   3   6   4 9529.54  495.69  -2
  -3  -4  -4 9529.54  495.69   1
   3   6   4 9073.30  664.77  -2
  -3  -4  -4 9073.30  664.77   1
   3   6   4 9309.04  598.85  -2
  -3  -4  -4 9309.04  598.85   1
  -3  -6  -5 1109.70  260.61  -2
   3   4   5 1109.70  260.61   1
   3   6   5 1005.11  216.90  -2
  -3  -4  -5 1005.11  216.90   1
   3   6   5 1418.02  307.43  -2
  -3  -4  -5 1418.02  307.43   1
   3   6   5  983.16  245.54  -2
  -3  -4  -5  983.16  245.54   1
   3   6   5 1152.64  228.34  -2
  -3  -4  -5 1152.64  228.34   1
  -3  -6  -5 1093.31  205.61  -2
   3   4   5 1093.31  205.61   1
  -3  -6  -5  755.58  210.57  -2
   3   4   5  755.58  210.57   1
  -3  -6  -5 1068.11  151.08  -2
   3   4   5 1068.11  151.08   1
  -3  -6  -5 1021.92  253.08  -2
   3   4   5 1021.92  253.08   1
   3   6   5  810.08  156.40  -2
  -3  -4  -5  810.08  156.40   1
  -3  -6  -634967.80 1511.98  -2
   3   4   634967.80 1511.98   1
   3   6   635325.50 1543.71  -2
  -3  -4  -635325.50 1543.71   1
   3   6   633716.70 1174.49  -2
  -3  -4  -633716.70 1174.49   1
  -3  -6  -633764.30 1431.08  -2
   3   4   633764.30 1431.08   1
  -3  -6  -631675.00 1069.90  -2
   3   4   631675.00 1069.90   1
  -3  -6  -631494.00  740.96  -2
   3   4   631494.00  740.96   1
   3   6   631678.70 1254.24  -2
  -3  -4  -631678.70 1254.24   1
  -3  -6  -7 5177.09  647.26  -2
   3   4   7 5177.09  647.26   1
  -3  -6  -7 4713.73  415.67  -2
   3   4   7 4713.73  415.67   1
  -3  -6  -7 4321.29  260.95  -2
   3   4   7 4321.29  260.95   1
   3   6   7 4985.98  466.23  -2
  -3  -4  -7 4985.98  466.23   1
   3   6   7 4999.32  542.33  -2
  -3  -4  -7 4999.32  542.33   1
  -3  -4  -8 3525.88  399.55   1
  -3  -4  -8 3237.69  476.81   1
   3   4   8 3156.56  345.83   1
   3   4   8 3201.45  217.45   1
   3   4   8 3412.76  576.27   1
  -3  -4  -9 1052.31  327.05   1
   3   4   9  492.14  264.07   1
  -3  -4  -9  492.20  201.59   1
   3   4   9  550.20  159.82   1
   3   4  10 7262.89  963.00   1
  -3  -4 -10 4622.91  652.83   1
   3   4  11  208.87  241.26   1
  -3  -4 -11  130.96  205.19   1
   3   8 -10  391.20  248.00  -2
  -3  -5  10  391.20  248.00   1
   3   8 -10  158.15  221.63  -2
  -3  -5  10  158.15  221.63   1
  -3  -8  10  203.85  241.42  -2
   3   5 -10  203.85  241.42   1
   3   8  -9  981.12  349.79  -2
  -3  -5   9  981.12  349.79   1
   3   8  -9  836.73  265.99  -2
  -3  -5   9  836.73  265.99   1
  -3  -8   9  980.78  338.36  -2
   3   5  -9  980.78  338.36   1
   3   8  -8  638.65  270.09  -2
  -3  -5   8  638.65  270.09   1
   3   8  -8 1260.77  316.26  -2
  -3  -5   8 1260.77  316.26   1
  -3  -8   8 1234.15  256.49  -2
   3   5  -8 1234.15  256.49   1
  -3  -8   8  515.32  210.08  -2
   3   5  -8  515.32  210.08   1
   3   8  -7  978.70  325.99  -2
  -3  -5   7  978.70  325.99   1
  -3  -8   7 2897.27  411.47  -2
   3   5  -7 2897.27  411.47   1
  -3  -8   7 1405.09  359.95  -2
   3   5  -7 1405.09  359.95   1
   3   8  -7 2111.75  354.60  -2
  -3  -5   7 2111.75  354.60   1
  -3  -8   7 1877.74  307.57  -2
   3   5  -7 1877.74  307.57   1
   3   8  -7 1802.91  324.81  -2
  -3  -5   7 1802.91  324.81   1
   3   8  -7 1807.57  279.16  -2
  -3  -5   7 1807.57  279.16   1
   3   8  -6  -98.42  161.62  -2
  -3  -5   6  -98.42  161.62   1
   3   8  -6  148.89   96.35  -2
  -3  -5   6  148.89   96.35   1
  -3  -8   6  327.12  156.60  -2
   3   5  -6  327.12  156.60   1
   3   8  -6  237.85  171.06  -2
  -3  -5   6  237.85  171.06   1
   3   8  -6  106.12   73.67  -2
  -3  -5   6  106.12   73.67   1
  -3  -8   6  -19.14  103.65  -2
   3   5  -6  -19.14  103.65   1
  -3  -5   5   25.12  104.25   1
   3   5  -5  140.09   74.52   1
  -3  -5   5  116.04   73.31   1
   3   5  -5  493.23  173.77   1
  -3  -5   5  101.09   44.20   1
  -3  -5   5  190.59  139.71   1
  -3  -5   5  156.42   82.24   1
   3   5  -5  103.16  120.81   1
  -3  -5   5   86.41  122.88   1
  -3  -5   4 3691.95  393.64   1
   3   5  -4 3214.80  346.27   1
   3   5  -4 3230.55  297.39   1
  -3  -5   4 3629.55  451.39   1
  -3  -5   4 3359.43  403.93   1
   3   5  -4 3784.49  408.69   1
  -3  -5   4 3239.07  452.31   1
  -3  -5   4 3722.83  271.30   1
   3   5  -4 3584.83  440.71   1
  -3  -5   3  100.76   95.88   1
   3   5  -3   57.12   80.67   1
   3   5  -3  387.71  153.86   1
  -3  -5   3  271.81  139.79   1
   3   5  -3  293.77  137.47   1
   3   5  -3  391.41   99.81   1
   3   5  -3  404.81  160.22   1
  -3  -5   3  194.35  141.28   1
  -3  -5   3  643.91  226.18   1
  -3  -5   3  518.95  173.64   1
  -3  -5   3  186.80   60.50   1
   3   5  -2 1988.31  179.78   1
   3   5  -2 2145.80  335.66   1
   3   5  -2 2409.10  323.13   1
  -3  -5   2 2238.24  174.25   1
   3   5  -2 2271.17  329.04   1
   3   5  -2 2256.42  331.28   1
  -3  -5   2 2003.21  329.52   1
  -3  -5   2 2352.95  336.98   1
  -3  -5   1  576.84  102.18   1
   3   5  -1  -67.54  104.95   1
   3   5  -1  620.10  191.75   1
   3   5  -1  549.76   79.45   1
   3   5  -1  742.33  194.83   1
  -3  -5   1  606.42  180.56   1
   3   5  -1  691.96  183.02   1
  -3  -5   1  -63.90   89.06   1
   3   5   032547.60  764.79   1
   3   5   031212.10 1155.12   1
   3   5   033004.00 1180.72   1
  -3  -5   032622.90 1159.41   1
   3   5   032507.30  803.56   1
   3   5   034384.90 1132.80   1
  -3  -5   032193.50  815.70   1
  -3  -5   033240.50 1244.58   1
   3   5   1  886.22  165.03   1
  -3  -5  -1  408.88  117.94   1
   3   5   1  732.72  197.35   1
   3   5   1  522.19  113.97   1
  -3  -5  -1  587.11  158.29   1
   3   5   1  914.55  217.62   1
  -3  -5  -1  558.69  177.82   1
  -3  -5  -1  486.71  140.15   1
   3   5   1  -23.01   71.51   1
   3   5   1  647.45  158.68   1
  -3  -5  -1  528.90  143.20   1
   3   5   269196.60 1480.56   1
   3   5   269001.60 1842.75   1
  -3  -5  -270126.10 1655.12   1
  -3  -5  -270156.70 1822.76   1
  -3  -5  -263247.80 1392.86   1
   3   5   265081.30 1653.67   1
   3   5   268522.40 1541.49   1
  -3  -5  -270906.60 1455.56   1
  -3  -5  -269327.10 1553.91   1
   3   5   3 1858.55  299.49   1
   3   5   3 2050.83  308.22   1
   3   5   3 1866.00  292.80   1
  -3  -5  -3 2194.64  331.93   1
  -3  -5  -3 1604.53  210.49   1
  -3  -5  -3 1634.93  278.05   1
  -3  -5  -3  994.02  225.08   1
  -3  -5  -3 1752.93  281.74   1
   3   5   3 2043.12  337.15   1
  -3  -5  -3 1875.01  229.77   1
  -3  -7  -4 3875.03  455.11  -2
   3   5   4 3875.03  455.11   1
   3   7   4 3381.52  460.07  -2
  -3  -5  -4 3381.52  460.07   1
   3   7   4 3118.45  370.89  -2
  -3  -5  -4 3118.45  370.89   1
  -3  -7  -4 3420.14  396.70  -2
   3   5   4 3420.14  396.70   1
  -3  -7  -4 3223.14  435.08  -2
   3   5   4 3223.14  435.08   1
   3   7   4 3055.72  252.50  -2
  -3  -5  -4 3055.72  252.50   1
  -3  -7  -4 3416.01  421.67  -2
   3   5   4 3416.01  421.67   1
   3   7   4 2925.65  274.76  -2
  -3  -5  -4 2925.65  274.76   1
   3   7   4 3012.92  392.20  -2
  -3  -5  -4 3012.92  392.20   1
  -3  -7  -5 4117.22  504.26  -2
   3   5   5 4117.22  504.26   1
   3   7   5 3968.64  523.21  -2
  -3  -5  -5 3968.64  523.21   1
   3   7   5 3843.85  412.68  -2
  -3  -5  -5 3843.85  412.68   1
  -3  -7  -5 3378.36  396.13  -2
   3   5   5 3378.36  396.13   1
  -3  -7  -5 3742.41  476.83  -2
   3   5   5 3742.41  476.83   1
   3   7   5 3611.58  289.90  -2
  -3  -5  -5 3611.58  289.90   1
   3   7   5 3841.30  460.04  -2
  -3  -5  -5 3841.30  460.04   1
  -3  -7  -6 8310.30  767.13  -2
   3   5   6 8310.30  767.13   1
   3   7   6 7286.83  579.73  -2
  -3  -5  -6 7286.83  579.73   1
  -3  -7  -6 7211.01  570.53  -2
   3   5   6 7211.01  570.53   1
   3   7   6 7862.22  677.13  -2
  -3  -5  -6 7862.22  677.13   1
   3   7   6 5814.99  350.91  -2
  -3  -5  -6 5814.99  350.91   1
  -3  -7  -7 3590.93  544.96  -2
   3   5   7 3590.93  544.96   1
  -3  -7  -7 3060.40  393.57  -2
   3   5   7 3060.40  393.57   1
   3   7   7 3968.39  438.79  -2
  -3  -5  -7 3968.39  438.79   1
   3   7   7 2978.90  445.06  -2
  -3  -5  -7 2978.90  445.06   1
   3   7   7 2806.02  231.01  -2
  -3  -5  -7 2806.02  231.01   1
   3   5   816132.80 1230.99   1
  -3  -5  -816412.00  896.48   1
   3   5   814903.70  838.20   1
  -3  -5  -815862.50 1080.28   1
  -3  -5  -812051.50  456.37   1
   3   5   9 4776.26  739.07   1
   3   5   9 3429.25  405.40   1
  -3  -5  -9 4405.38  628.48   1
  -3  -5 -10  703.22  340.12   1
   3   5  10 1186.73  397.99   1
  -3  -5 -11 2069.63  491.88   1
   3   5  11 2061.79  567.44   1
  -3  -9  10  628.07  279.38  -2
   3   6 -10  628.07  279.38   1
   3   9  -9  144.81  243.46  -2
  -3  -6   9  144.81  243.46   1
  -3  -9   9   83.11  181.15  -2
   3   6  -9   83.11  181.15   1
   3   9  -8 -101.93  203.83  -2
  -3  -6   8 -101.93  203.83   1
  -3  -9   8   38.08  137.04  -2
   3   6  -8   38.08  137.04   1
  -3  -9   8  123.77  146.73  -2
   3   6  -8  123.77  146.73   1
   3   9  -7 1004.60  335.07  -2
  -3  -6   7 1004.60  335.07   1
  -3  -9   7 1299.18  296.15  -2
   3   6  -7 1299.18  296.15   1
  -3  -9   7 1389.08  290.35  -2
   3   6  -7 1389.08  290.35   1
  -3  -9   7 1122.71  318.88  -2
   3   6  -7 1122.71  318.88   1
   3   9  -6  924.27  305.65  -2
  -3  -6   6  924.27  305.65   1
   3   9  -6  620.75  125.98  -2
  -3  -6   6  620.75  125.98   1
  -3  -9   6 1099.42  286.14  -2
   3   6  -6 1099.42  286.14   1
   3   9  -6  887.08  138.83  -2
  -3  -6   6  887.08  138.83   1
   3   9  -6  720.33  129.91  -2
  -3  -6   6  720.33  129.91   1
  -3  -9   6 1241.00  327.24  -2
   3   6  -6 1241.00  327.24   1
   3   6  -5 1883.22  277.99   1
   3   6  -5 1526.92  250.95   1
   3   6  -5 2027.92  331.86   1
  -3  -6   5 1643.72  149.27   1
  -3  -6   5 1700.69  161.27   1
   3   6  -5 2371.37  401.84   1
  -3  -6   5 2139.68  410.67   1
   3   6  -4 2108.42  284.33   1
   3   6  -4 1743.92  246.71   1
   3   6  -4 2039.41  324.10   1
   3   6  -4 2231.50  371.29   1
  -3  -6   4 2506.60  440.94   1
   3   6  -3 7071.18  440.01   1
   3   6  -3 7508.79  562.51   1
   3   6  -3 7796.82  628.81   1
  -3  -6   3 7300.84  695.20   1
   3   6  -3 7683.76  654.41   1
   3   6  -218766.40  683.66   1
   3   6  -218648.60  909.75   1
   3   6  -220173.60 1097.90   1
   3   6  -220368.40  993.23   1
  -3  -6   221508.20 1145.40   1
   3   6  -218355.10  482.09   1
   3   6  -220518.70 1019.79   1
  -3  -6   221466.10 1065.93   1
   3   6  -1 9362.98  667.07   1
  -3  -6   1 9548.11  736.16   1
   3   6  -1 9330.31  413.53   1
   3   6  -1 9648.37  746.31   1
   3   6  -1 9848.43  678.46   1
  -3  -6   110594.70  714.51   1
   3   6   0  577.55  192.32   1
   3   6   0  406.99  127.38   1
   3   6   0  606.45  201.78   1
   3   6   0  633.98  142.31   1
   3   6   0  439.54  155.13   1
   3   6   0  678.52  214.33   1
  -3  -6   0   76.08   97.79   1
   3   6   0  535.25  107.32   1
  -3  -6  -1 1459.35  290.90   1
   3   6   1 1434.74  210.82   1
   3   6   1 1647.04  314.48   1
   3   6   1 1614.48  234.01   1
   3   6   1 1612.85  295.01   1
  -3  -6  -1 1420.56  263.89   1
   3   6   1 1247.93  262.97   1
   3   6   1 1272.95  223.21   1
   3   6   2 2665.32  327.60   1
  -3  -6  -2 2495.89  305.32   1
  -3  -6  -2 2549.32  352.93   1
  -3  -6  -2 2810.08  398.65   1
   3   6   2 3076.06  429.16   1
   3   6   2 2673.41  369.12   1
   3   6   2 2664.48  321.62   1
  -3  -6  -2 2538.80  306.55   1
   3   6   2 2727.26  310.87   1
   3   6   319750.90 1113.82   1
  -3  -6  -321258.10 1044.55   1
   3   6   321168.20 1022.93   1
  -3  -6  -320618.60 1093.98   1
  -3  -6  -320345.20  968.34   1
   3   6   321028.60 1037.33   1
  -3  -6  -320483.20  756.65   1
   3   6   320075.30  947.78   1
  -3  -6  -319839.40  779.23   1
   3   8   414789.30  897.61  -2
  -3  -6  -414789.30  897.61   1
  -3  -8  -417994.20 1007.43  -2
   3   6   417994.20 1007.43   1
   3   8   415370.70  862.53  -2
  -3  -6  -415370.70  862.53   1
  -3  -8  -415403.50  908.74  -2
   3   6   415403.50  908.74   1
   3   8   414856.70  538.46  -2
  -3  -6  -414856.70  538.46   1
  -3  -8  -415939.70  919.40  -2
   3   6   415939.70  919.40   1
   3   8   413592.30  605.49  -2
  -3  -6  -413592.30  605.49   1
  -3  -8  -5 6653.47  660.99  -2
   3   6   5 6653.47  660.99   1
   3   8   5 5447.46  536.28  -2
  -3  -6  -5 5447.46  536.28   1
  -3  -8  -5 5904.35  569.93  -2
   3   6   5 5904.35  569.93   1
  -3  -8  -5 6720.24  658.89  -2
   3   6   5 6720.24  658.89   1
   3   8   5 4988.09  333.24  -2
  -3  -6  -5 4988.09  333.24   1
   3   8   5 5441.10  574.98  -2
  -3  -6  -5 5441.10  574.98   1
  -3  -8  -610338.80  894.13  -2
   3   6   610338.80  894.13   1
  -3  -8  -6 8167.90  688.01  -2
   3   6   6 8167.90  688.01   1
   3   8   6 7964.81  734.89  -2
  -3  -6  -6 7964.81  734.89   1
  -3  -8  -710525.70  967.34  -2
   3   6   710525.70  967.34   1
  -3  -8  -710495.20  772.68  -2
   3   6   710495.20  772.68   1
   3   8   711379.10  912.04  -2
  -3  -6  -711379.10  912.04   1
  -3  -6  -8  677.85  265.56   1
   3   6   8 1083.88  357.01   1
   3   6   8  883.28  253.19   1
  -3  -6  -9  151.65  162.58   1
   3   6   9  176.86  138.91   1
   3   6   9  145.70  238.07   1
  -3  -6 -10  190.32  159.99   1
   3   6  10 -113.74  210.87   1
   3  10  -9 1513.93  495.43  -2
  -3  -7   9 1513.93  495.43   1
  -3 -10   9 1220.63  385.70  -2
   3   7  -9 1220.63  385.70   1
   3  10  -8  -50.54  156.90  -2
  -3  -7   8  -50.54  156.90   1
  -3 -10   8   66.54  114.25  -2
   3   7  -8   66.54  114.25   1
  -3 -10   8 -209.51  169.56  -2
   3   7  -8 -209.51  169.56   1
  -3 -10   7  -33.93  114.12  -2
   3   7  -7  -33.93  114.12   1
  -3 -10   7 -172.99  192.57  -2
   3   7  -7 -172.99  192.57   1
   3  10  -7  308.98  265.65  -2
  -3  -7   7  308.98  265.65   1
  -3 -10   6 1790.87  353.04  -2
   3   7  -6 1790.87  353.04   1
  -3 -10   6 1325.21  348.43  -2
   3   7  -6 1325.21  348.43   1
   3  10  -6 2457.48  505.07  -2
  -3  -7   6 2457.48  505.07   1
   3   7  -5  -52.72  115.39   1
   3   7  -5  113.83  124.82   1
  -3  -7   5  -36.96  143.55   1
   3   7  -5  -31.74  116.56   1
   3   7  -4  940.98  215.71   1
   3   7  -4  782.27  180.28   1
   3   7  -4 1322.41  300.24   1
  -3  -7   4 1064.39  302.20   1
   3   7  -4 1278.64  323.66   1
   3   7  -3 1675.74  295.11   1
   3   7  -3 1234.34  214.12   1
   3   7  -3 2128.75  355.82   1
   3   7  -3 1577.34  165.77   1
  -3  -7   3 1426.56  342.97   1
   3   7  -3 2149.55  360.77   1
   3   7  -212220.40  659.72   1
   3   7  -212776.20  822.62   1
  -3  -7   212532.40  948.38   1
   3   7  -212001.30  829.62   1
   3   7  -211715.80  516.23   1
   3   7  -212908.30  873.48   1
   3   7  -1 3596.48  463.62   1
   3   7  -1 3158.58  295.81   1
   3   7  -1 3204.18  436.19   1
  -3  -7   1 3114.37  466.45   1
   3   7  -1 4076.83  464.35   1
  -3  -7   1 3094.82  426.42   1
   3   7   0 4599.28  425.32   1
   3   7   0 4738.19  535.46   1
  -3  -7   0 5602.05  627.59   1
   3   7   0 5080.80  553.43   1
   3   7   0 5112.59  423.39   1
   3   7   0 5147.15  297.55   1
   3   7   0 5295.63  502.72   1
  -3  -7   0 5050.02  515.52   1
   3   7   1 4376.83  442.31   1
  -3  -7  -1 4243.73  531.18   1
   3   7   1 4947.31  580.42   1
   3   7   1 4560.12  526.48   1
   3   7   1 4550.69  385.01   1
   3   7   1 4668.78  452.76   1
  -3  -7  -1 5339.71  503.84   1
   3   7   212053.30  771.33   1
   3   7   211875.10  853.20   1
  -3  -7  -212634.50  706.29   1
   3   7   212848.50  714.69   1
   3   7   213118.50  712.81   1
  -3  -7  -212969.00  943.26   1
   3   7   3 1578.02  334.43   1
   3   7   3 1214.05  269.51   1
  -3  -7  -3 1223.35  302.07   1
  -3  -7  -3 1000.69  289.32   1
   3   7   3 1946.60  379.71   1
  -3  -7  -3 1195.03  200.94   1
  -3  -7  -3 1340.91  236.34   1
   3   9   4 3794.74  503.75  -2
  -3  -7  -4 3794.74  503.75   1
  -3  -9  -4 4837.03  571.62  -2
   3   7   4 4837.03  571.62   1
  -3  -9  -4 3727.60  502.95  -2
   3   7   4 3727.60  502.95   1
   3   9   4 3435.61  506.64  -2
  -3  -7  -4 3435.61  506.64   1
   3   9   4 3636.81  273.59  -2
  -3  -7  -4 3636.81  273.59   1
  -3  -9  -4 3643.68  457.96  -2
   3   7   4 3643.68  457.96   1
   3   9   4 3337.83  325.55  -2
  -3  -7  -4 3337.83  325.55   1
  -3  -9  -5 5884.12  671.71  -2
   3   7   5 5884.12  671.71   1
  -3  -9  -5 6309.88  639.09  -2
   3   7   5 6309.88  639.09   1
   3   9   5 4543.61  325.26  -2
  -3  -7  -5 4543.61  325.26   1
   3   9   5 5671.52  631.75  -2
  -3  -7  -5 5671.52  631.75   1
  -3  -9  -6 5582.96  702.78  -2
   3   7   6 5582.96  702.78   1
  -3  -9  -6 4936.59  590.61  -2
   3   7   6 4936.59  590.61   1
   3   9   6 5680.38  653.22  -2
  -3  -7  -6 5680.38  653.22   1
  -3  -9  -7  373.30  261.51  -2
   3   7   7  373.30  261.51   1
  -3  -9  -7  260.97  182.99  -2
   3   7   7  260.97  182.99   1
   3   9   7  669.85  280.85  -2
  -3  -7  -7  669.85  280.85   1
   3   7   8 3805.22  645.21   1
   3   7   8 2664.82  449.60   1
  -3  -7  -8 2676.47  517.37   1
   3   7   9  313.40  217.07   1
  -3  -7  -9  592.12  273.41   1
   3   7   9   86.96  193.06   1
  -3 -11   8  -59.36  127.98  -2
   3   8  -8  -59.36  127.98   1
  -3 -11   8 -187.79  219.96  -2
   3   8  -8 -187.79  219.96   1
   3  11  -8  -91.00  218.87  -2
  -3  -8   8  -91.00  218.87   1
  -3 -11   7 1930.89  366.84  -2
   3   8  -7 1930.89  366.84   1
   3  11  -7 2187.67  524.62  -2
  -3  -8   7 2187.67  524.62   1
  -3 -11   7 2344.81  502.42  -2
   3   8  -7 2344.81  502.42   1
  -3 -11   6  673.17  238.09  -2
   3   8  -6  673.17  238.09   1
   3  11  -6  423.80  240.97  -2
  -3  -8   6  423.80  240.97   1
  -3 -11   6  959.76  329.81  -2
   3   8  -6  959.76  329.81   1
   3   8  -5  310.12   98.04   1
   3   8  -5  804.86  237.66   1
  -3  -8   5  610.03  276.48   1
   3   8  -5  557.71  254.74   1
   3   8  -4  931.12  232.33   1
   3   8  -4  717.91  129.96   1
   3   8  -4 1168.50  323.90   1
  -3  -8   4  840.03  319.07   1
   3   8  -4  790.25  267.27   1
   3   8  -3  248.30  153.65   1
   3   8  -3  134.53  154.66   1
   3   8  -3  422.30  133.63   1
  -3  -8   3  236.88  155.80   1
   3   8  -3  230.82  142.14   1
   3   8  -2 8141.96  704.14   1
   3   8  -2 8015.20  747.94   1
   3   8  -2 7116.21  480.03   1
   3   8  -2 8182.66  735.80   1
   3   8  -1 1257.17  327.00   1
   3   8  -1 1052.56  203.14   1
   3   8  -1 1194.39  305.19   1
  -3  -8   1 1141.89  303.74   1
   3   8  -1 1058.51  262.20   1
   3   8   0  886.89  271.04   1
   3   8   0 1229.67  126.81   1
   3   8   0 1283.49  266.74   1
   3   8   0 1709.95  368.48   1
  -3  -8   0 1018.18  294.73   1
   3   8   0 1376.16  290.89   1
   3   8   1 6674.14  600.49   1
   3   8   1 8550.84  801.17   1
   3   8   1 6087.38  556.58   1
   3   8   1 7433.03  729.47   1
  -3  -8  -1 6304.56  701.10   1
   3   8   1 7392.59  486.41   1
   3   8   1 7257.71  604.53   1
  -3  -8  -1 7017.41  617.35   1
   3   8   217563.40  873.05   1
   3   8   216753.60  996.59   1
  -3  -8  -217866.30 1215.90   1
   3   8   217268.30  996.26   1
   3   8   216414.70 1077.74   1
  -3  -8  -217162.10  878.68   1
   3   8   216812.80  838.80   1
  -3  -8  -318956.00 1150.82   1
   3   8   318709.80 1127.56   1
  -3  -8  -317578.60 1186.42   1
   3   8   318527.40 1160.06   1
  -3  -8  -319727.90  837.11   1
   3   8   319006.70  980.31   1
   3  10   4 7569.27  760.79  -2
  -3  -8  -4 7569.27  760.79   1
  -3 -10  -4 9576.04  847.47  -2
   3   8   4 9576.04  847.47   1
   3  10   4 8622.76  857.96  -2
  -3  -8  -4 8622.76  857.96   1
  -3 -10  -4 9087.66  828.01  -2
   3   8   4 9087.66  828.01   1
  -3 -10  -4 8845.51  735.19  -2
   3   8   4 8845.51  735.19   1
   3  10   5  132.59  126.22  -2
  -3  -8  -5  132.59  126.22   1
  -3 -10  -5  419.41  211.39  -2
   3   8   5  419.41  211.39   1
  -3 -10  -5  135.04  151.15  -2
   3   8   5  135.04  151.15   1
  -3 -10  -6 3135.72  578.20  -2
   3   8   6 3135.72  578.20   1
  -3 -10  -6 2459.53  455.81  -2
   3   8   6 2459.53  455.81   1
   3  10   6 2289.24  439.94  -2
  -3  -8  -6 2289.24  439.94   1
   3  10   7    1.79  159.15  -2
  -3  -8  -7    1.79  159.15   1
  -3 -10  -7  289.66  244.26  -2
   3   8   7  289.66  244.26   1
  -3 -10  -7 -135.28  181.62  -2
   3   8   7 -135.28  181.62   1
   3   8   8   46.06  208.35   1
   3   8   8 -467.37  294.88   1
  -3  -8  -8   58.97  170.32   1
  -3 -12   7   61.38  160.37  -2
   3   9  -7   61.38  160.37   1
   3  12  -6   93.29  175.21  -2
  -3  -9   6   93.29  175.21   1
  -3 -12   6  188.38  184.58  -2
   3   9  -6  188.38  184.58   1
   3   9  -5  334.82  169.78   1
  -3  -9   5  533.84  288.16   1
   3   9  -5  833.88  317.87   1
   3   9  -4  247.59  183.15   1
  -3  -9   4  161.69  201.80   1
   3   9  -4  359.86  173.81   1
   3   9  -4  444.20  261.64   1
   3   9  -3  -53.42  149.67   1
   3   9  -3 -164.01  198.09   1
  -3  -9   3  197.66  161.72   1
   3   9  -3 -245.98  215.87   1
   3   9  -2 3025.79  505.89   1
   3   9  -2 3270.03  488.89   1
  -3  -9   2 3124.07  581.58   1
   3   9  -2 3027.73  485.32   1
   3   9  -1   -9.76  118.71   1
   3   9  -1  -41.91  152.76   1
   3   9  -1  114.69  179.42   1
   3   9  -1  338.19  178.38   1
   3   9   0  555.58  292.18   1
   3   9   0  535.16  195.79   1
   3   9   0  365.29  169.95   1
   3   9   0   91.39  159.96   1
  -3  -9   0  853.61  346.95   1
   3   9   0  306.09  183.12   1
   3   9   1 8068.09  738.67   1
   3   9   1 8012.52  835.37   1
  -3  -9  -1 7871.38  861.24   1
   3   9   1 8548.62  843.96   1
   3   9   1 7577.34  681.32   1
   3   9   1 7800.23  658.81   1
   3   9   213076.50  971.80   1
   3   9   212510.20  910.59   1
   3   9   212752.00 1020.58   1
   3   9   214499.90 1145.34   1
  -3  -9  -212977.60 1095.69   1
   3   9   214110.00  822.88   1
  -3  -9  -3 7677.33  786.74   1
   3   9   3 7847.43  795.58   1
  -3  -9  -3 8323.40  886.19   1
   3   9   3 8467.68  843.61   1
   3   9   3 7433.89  770.26   1
   3  11   4  234.39  194.70  -2
  -3  -9  -4  234.39  194.70   1
  -3 -11  -4   39.20  134.72  -2
   3   9   4   39.20  134.72   1
   3  11   4   -8.29  161.80  -2
  -3  -9  -4   -8.29  161.80   1
  -3 -11  -4  260.41  165.98  -2
   3   9   4  260.41  165.98   1
   3  11   5  187.38  208.50  -2
  -3  -9  -5  187.38  208.50   1
  -3 -11  -5   69.89  140.52  -2
   3   9   5   69.89  140.52   1
  -3 -11  -5  324.40  237.26  -2
   3   9   5  324.40  237.26   1
  -3 -11  -610401.00 1060.14  -2
   3   9   610401.00 1060.14   1
  -3 -11  -610785.30 1018.91  -2
   3   9   610785.30 1018.91   1
   3  11   610397.90  998.00  -2
  -3  -9  -610397.90  998.00   1
  -3 -11  -7 2081.60  512.16  -2
   3   9   7 2081.60  512.16   1
   3  11   7 1848.23  453.20  -2
  -3  -9  -7 1848.23  453.20   1
  -3 -11  -7 1279.70  360.99  -2
   3   9   7 1279.70  360.99   1
   3  10  -5 -135.95  183.86   1
   3  10  -5  287.64  229.11   1
   3  10  -4 2166.72  487.80   1
  -3 -10   4 2277.32  538.54   1
   3  10  -4 2077.42  474.55   1
   3  10  -3   45.12  199.34   1
   3  10  -3  136.07  226.86   1
  -3 -10   3  -76.24  238.14   1
   3  10  -3   57.53  159.65   1
   3  10  -2  370.45  214.23   1
   3  10  -2   -9.43  193.15   1
  -3 -10   2 -235.14  152.90   1
   3  10  -2  347.44  150.60   1
   3  10  -1 -282.50  170.88   1
   3  10  -1 -381.30  224.07   1
  -3 -10   1   51.78  165.41   1
   3  10  -1  182.31  188.29   1
   3  10   0 -191.56  164.83   1
   3  10   0  -57.67  141.07   1
   3  10   0  258.08  261.20   1
   3  10   0 -317.58  239.58   1
  -3 -10   0  -99.94  133.44   1
   3  10   0  -93.56  117.80   1
   3  10   1 1310.72  393.72   1
   3  10   1 1143.91  297.45   1
   3  10   1  635.77  284.04   1
  -3 -10  -1  825.81  282.77   1
   3  10   1  585.80  219.14   1
   3  10   1  835.53  236.63   1
   3  10   2  480.46  234.67   1
   3  10   2  390.15  211.63   1
   3  10   2  298.06  242.07   1
  -3 -10  -2  220.87  200.95   1
   3  10   2  110.69  172.43   1
   3  10   2  -54.31  112.75   1
   3  10   3 1360.61  378.63   1
   3  10   3  884.61  321.23   1
  -3 -10  -3 1618.54  422.56   1
   3  10   3 1288.86  339.95   1
  -3 -10  -3  889.69  274.08   1
  -3 -12  -4 1000.94  344.85  -2
   3  10   4 1000.94  344.85   1
  -3 -12  -4  640.28  281.48  -2
   3  10   4  640.28  281.48   1
   3  12   4  420.84  239.65  -2
  -3 -10  -4  420.84  239.65   1
  -3 -12  -4  902.51  356.45  -2
   3  10   4  902.51  356.45   1
   3  12   4 1048.48  325.42  -2
  -3 -10  -4 1048.48  325.42   1
  -3 -12  -5  797.54  348.72  -2
   3  10   5  797.54  348.72   1
   3  12   5  109.10  196.62  -2
  -3 -10  -5  109.10  196.62   1
  -3 -12  -5  171.75  221.10  -2
   3  10   5  171.75  221.10   1
  -3 -12  -5  422.88  288.87  -2
   3  10   5  422.88  288.87   1
   3  11  -2 1059.72  404.81   1
   3  11  -2  636.26  295.18   1
   3  11  -1  599.76  279.58   1
   3  11  -1 1039.92  344.79   1
   3  11  -1  577.32  250.91   1
   3  11   0  551.99  304.43   1
   3  11   0  104.64  160.70   1
   3  11   1 2130.81  497.64   1
   3  11   2  247.38  286.79   1
  -4   8  -1 1016.59  362.87   1
  -4   8  -1  889.68  366.22   1
   4  -8   1  395.74  223.13   1
   4  -8   1  744.46  263.52   1
   4  -8   1 1119.23  365.06   1
   4  -5   2 4096.32  625.32  -2
  -4   8  -2 4096.32  625.32   1
  -4   5  -2 3149.32  616.65  -2
   4  -8   2 3149.32  616.65   1
   4  -7  -4   16.80  176.42   1
   4  -7  -3 1211.33  342.76   1
  -4   7   3  837.43  364.16   1
   4  -7  -3  816.15  285.82   1
  -4   7   3  560.56  300.95   1
  -4   7   3 1242.05  405.96   1
   4  -7  -2  115.60  192.02   1
   4  -7  -2 -138.90  124.10   1
  -4   7   2   37.37  152.96   1
   4  -7  -2  -33.11  148.21   1
  -4   7   2 -145.03  164.54   1
   4  -7  -1 3870.41  585.85   1
   4  -7  -1 3734.27  534.52   1
  -4   7   1 4201.58  726.45   1
   4  -7  -1 4314.70  635.74   1
  -4   7   1 3121.18  540.37   1
   4  -7   0 7961.77  741.61   1
   4  -7   0 8485.34  773.91   1
   4  -7   0 9012.21  892.40   1
  -4   7   0 8657.82 1038.02   1
  -4   7   0 8743.37  880.94   1
   4  -7   0 8170.99  879.74   1
   4  -7   1  827.57  298.03   1
  -4   7  -1  684.16  341.67   1
   4  -7   1  225.64  132.51   1
   4  -7   1  989.62  367.15   1
  -4   7  -1  549.32  210.54   1
  -4   4  -2 9042.94  936.45  -2
   4  -7   2 9042.94  936.45   1
  -4   4  -2 8540.93  777.68  -2
   4  -7   2 8540.93  777.68   1
   4  -4   2 8318.17 1011.52  -2
  -4   7  -2 8318.17 1011.52   1
   4  -4   2 7972.41  789.99  -2
  -4   7  -2 7972.41  789.99   1
  -4   4  -2 8966.87  964.99  -2
   4  -7   2 8966.87  964.99   1
   4  -4   3 1039.01  290.51  -2
  -4   7  -3 1039.01  290.51   1
   4  -4   3 1273.78  401.88  -2
  -4   7  -3 1273.78  401.88   1
  -4   4  -3  654.97  225.22  -2
   4  -7   3  654.97  225.22   1
  -4   4  -3  889.18  314.07  -2
   4  -7   3  889.18  314.07   1
  -4   4  -4 1188.51  408.24  -2
   4  -7   4 1188.51  408.24   1
  -4   4  -4  780.64  260.18  -2
   4  -7   4  780.64  260.18   1
   4  -4   4 1666.72  495.36  -2
  -4   7  -4 1666.72  495.36   1
  -4   4  -5 1643.36  471.73  -2
   4  -7   5 1643.36  471.73   1
   4  -4   5 1194.68  444.63  -2
  -4   7  -5 1194.68  444.63   1
  -4   4  -5 1477.29  385.23  -2
   4  -7   5 1477.29  385.23   1
  -4   7  -6   44.73  168.25   1
   4  -7   6 1435.00  437.38   1
  -4   6   5   78.40  259.51   1
  -4   6   5  134.30  219.88   1
   4  -6  -5  163.85  194.61   1
   4  -6  -4  509.33  200.72   1
  -4   6   4  162.24  243.32   1
  -4   6   4  298.49  247.83   1
  -4   6   4  287.61  217.41   1
   4  -6  -4  289.20  225.16   1
   4  -6  -3 2217.41  419.70   1
  -4   6   3 2076.54  514.71   1
  -4   6   3 2119.44  523.37   1
   4  -6  -3 2282.18  415.28   1
  -4   6   3 2362.24  505.90   1
   4  -6  -3 1821.24  362.34   1
  -4   6   2 1832.13  479.77   1
   4  -6  -2 1673.39  355.64   1
   4  -6  -2 1565.74  338.04   1
   4  -6  -2 1588.04  364.66   1
  -4   6   2 1643.55  393.72   1
   4  -6  -1 2846.04  423.78   1
   4  -6  -1 3158.55  480.01   1
  -4   6   1 2646.80  541.68   1
   4  -6  -1 2693.07  468.35   1
  -4   6   1 2807.23  504.80   1
   4  -6   0 1756.63  380.49   1
   4  -6   0 1828.58  345.67   1
  -4   6   0 1626.18  433.71   1
   4  -6   0 1603.38  334.75   1
   4  -6   0 2022.08  414.32   1
  -4   6   0 1395.90  346.40   1
   4  -6   1 -134.54  205.41   1
  -4   6  -1   41.58  186.18   1
   4  -6   1 -118.88  105.75   1
   4  -6   1   95.59  143.86   1
  -4   6  -1   99.82  156.49   1
  -4   3  -212189.10  869.87  -2
   4  -6   212189.10  869.87   1
  -4   3  -213423.90 1127.72  -2
   4  -6   213423.90 1127.72   1
   4  -3   214645.00 1252.54  -2
  -4   6  -214645.00 1252.54   1
   4  -3   214074.10  993.95  -2
  -4   6  -214074.10  993.95   1
  -4   3  -215922.20 1138.15  -2
   4  -6   215922.20 1138.15   1
   4  -3   3 1491.63  332.90  -2
  -4   6  -3 1491.63  332.90   1
  -4   3  -3 1058.87  304.49  -2
   4  -6   3 1058.87  304.49   1
   4  -3   3 1108.35  343.94  -2
  -4   6  -3 1108.35  343.94   1
  -4   3  -3  622.71  226.24  -2
   4  -6   3  622.71  226.24   1
  -4   3  -4 6355.24  773.86  -2
   4  -6   4 6355.24  773.86   1
   4  -3   4 6618.46  840.45  -2
  -4   6  -4 6618.46  840.45   1
  -4   3  -4 5712.36  634.00  -2
   4  -6   4 5712.36  634.00   1
   4  -3   4 5742.49  633.53  -2
  -4   6  -4 5742.49  633.53   1
  -4   3  -511923.30 1055.57  -2
   4  -6   511923.30 1055.57   1
  -4   3  -510833.10  887.00  -2
   4  -6   510833.10  887.00   1
   4  -3   510163.70 1053.79  -2
  -4   6  -510163.70 1053.79   1
   4  -3   510149.10  819.21  -2
  -4   6  -510149.10  819.21   1
  -4   6  -6 3687.11  502.19   1
   4  -6   6 4823.10  696.16   1
  -4   6  -6 4905.79  738.18   1
   4  -6   6 3541.46  541.89   1
   4  -6   7 4234.72  667.21   1
  -4   6  -7 4567.56  740.38   1
   4  -6   7 3244.14  557.66   1
   4  -6   8  -30.58  238.13   1
  -4   6  -8  431.63  258.63   1
   4  -6   8  162.39  178.72   1
  -4   5   7  575.91  370.12   1
   4  -5  -7   82.59  149.93   1
  -4   5   7   20.01  186.79   1
  -4   5   6 1837.86  517.35   1
   4  -5  -6 1453.00  375.04   1
  -4   5   6 2120.87  568.77   1
  -4   5   5  284.94  238.38   1
   4  -5  -5  105.58  146.90   1
  -4   5   5  328.80  255.78   1
   4  -5  -5  232.39  196.47   1
   4  -5  -5    2.26   99.29   1
  -4   5   4  767.70  347.28   1
   4  -5  -4  702.78  214.73   1
  -4   5   4  552.09  306.31   1
   4  -5  -4  903.22  255.73   1
   4  -5  -4  900.77  278.17   1
  -4   5   3 5605.21  761.57   1
  -4   5   3 5394.41  700.60   1
  -4   5   3 5151.85  727.24   1
   4  -5  -3 4880.78  567.26   1
   4  -5  -3 6149.43  623.15   1
   4  -5  -3 5657.52  562.95   1
   4  -5  -2 8638.03  715.61   1
  -4   5   2 8071.42  712.73   1
  -4   5   2 9719.78  962.30   1
  -4   5   2 8975.06  874.19   1
   4  -5  -2 8586.14  771.11   1
   4  -5  -2 9126.32  733.40   1
  -4   5   1 4894.67  682.28   1
   4  -5  -1 5263.63  581.98   1
  -4   5   1 4850.28  526.01   1
  -4   5   1 5620.06  661.15   1
   4  -5  -1 5081.38  632.02   1
   4  -5  -1 4521.27  492.91   1
   4  -5   0 4658.94  475.60   1
   4  -5   0 4104.97  461.33   1
   4  -5   0 4443.04  551.02   1
  -4   5   0 4431.32  494.09   1
  -4   5   0 4446.55  652.54   1
  -4   5   0 4468.66  568.50   1
   4  -5   0 4580.24  585.96   1
  -4   5  -1   50.43  125.10   1
   4  -5   1   -1.00  111.22   1
  -4   5  -1 -124.54  214.46   1
   4  -5   1  -42.94   95.51   1
   4  -5   1  -31.75  146.86   1
  -4   5  -1  -99.50   97.66   1
   4  -2   2 2830.86  384.95  -2
  -4   5  -2 2830.86  384.95   1
   4  -2   2 2243.49  361.56  -2
  -4   5  -2 2243.49  361.56   1
   4  -2   2 3214.37  550.25  -2
  -4   5  -2 3214.37  550.25   1
   4  -2   2 3567.26  497.53  -2
  -4   5  -2 3567.26  497.53   1
  -4   2  -2 2497.18  355.26  -2
   4  -5   2 2497.18  355.26   1
   4  -2   3  565.09  217.84  -2
  -4   5  -3  565.09  217.84   1
   4  -2   3 -217.86  141.51  -2
  -4   5  -3 -217.86  141.51   1
   4  -2   3  300.07  169.41  -2
  -4   5  -3  300.07  169.41   1
  -4   2  -3  975.31  301.03  -2
   4  -5   3  975.31  301.03   1
   4  -2   3  602.35  260.12  -2
  -4   5  -3  602.35  260.12   1
  -4   2  -3  270.49  137.26  -2
   4  -5   3  270.49  137.26   1
  -4   2  -4 6626.92  734.69  -2
   4  -5   4 6626.92  734.69   1
  -4   2  -4 6538.94  615.48  -2
   4  -5   4 6538.94  615.48   1
   4  -2   4 6622.36  802.89  -2
  -4   5  -4 6622.36  802.89   1
   4  -2   4 7017.08  516.07  -2
  -4   5  -4 7017.08  516.07   1
   4  -2   4 6513.01  663.41  -2
  -4   5  -4 6513.01  663.41   1
   4  -2   5 1581.73  341.57  -2
  -4   5  -5 1581.73  341.57   1
  -4   2  -5 1308.76  337.28  -2
   4  -5   5 1308.76  337.28   1
   4  -2   5 1446.33  390.03  -2
  -4   5  -5 1446.33  390.03   1
  -4   2  -5 1358.60  310.54  -2
   4  -5   5 1358.60  310.54   1
  -4   5  -6 -187.11  120.33   1
   4  -5   6 -104.22  152.76   1
  -4   5  -6  128.63  237.94   1
   4  -5   6  -43.61  112.20   1
   4  -5   7 3918.14  620.15   1
  -4   5  -7 3754.34  641.57   1
  -4   5  -7 4013.69  530.67   1
   4  -5   7 3588.33  540.04   1
  -4   5  -8  133.69  182.07   1
   4  -5   8  177.91  233.32   1
  -4   5  -8   78.53  167.55   1
  -4   5  -9 1166.44  343.73   1
   4  -5   9 1310.50  401.29   1
  -4   5  -9 1794.39  478.27   1
   4  -5   9 1199.13  374.90   1
   4  -4  -8  -65.15  224.04   1
  -4   4   8  586.04  278.15   1
  -4   4   8  114.38  163.31   1
  -4   4   7  135.08  168.20   1
   4  -4  -7 -100.59  209.09   1
  -4   4   7  283.27  253.85   1
  -4   4   6  166.15  255.53   1
  -4   4   6  406.10  279.79   1
   4  -4  -6  433.87  181.29   1
  -4   4   5  350.51  230.57   1
   4  -4  -5   74.46  122.30   1
  -4   4   5  -17.60  144.07   1
   4  -4  -5  156.94  140.92   1
   4  -4  -5  436.85  177.82   1
   4  -4  -4 3757.22  414.32   1
  -4   4   4 3507.35  594.56   1
  -4   4   4 3293.35  567.04   1
   4  -4  -4 3500.70  468.29   1
   4  -4  -4 3853.61  473.72   1
  -4   4   4 2921.88  315.05   1
  -4   4   316369.10 1001.28   1
  -4   4   314998.60 1143.06   1
  -4   4   314920.10 1093.75   1
   4  -4  -314568.00  926.70   1
   4  -4  -314554.50  881.83   1
   4  -4  -315107.00  844.63   1
   4  -4  -2 5952.45  543.45   1
   4  -4  -2 5971.90  609.41   1
  -4   4   2 5973.55  708.02   1
  -4   4   2 6324.31  691.98   1
   4  -4  -2 5955.00  539.10   1
  -4   4   2 5447.75  529.63   1
  -4   4   116342.00  860.09   1
  -4   4   118144.00 1204.10   1
  -4   4   117150.10 1086.58   1
   4  -4  -120905.90 1179.79   1
   4  -4  -117545.20  872.53   1
   4  -4  -117849.40  969.88   1
   4  -4   0  488.04  166.95   1
  -4   4   0  392.94  227.68   1
   4  -4   0  582.03  175.24   1
   4  -4   0  842.67  278.05   1
  -4   4   0  640.48  211.41   1
  -4   4   0  455.22  164.65   1
   4  -4   0  282.69  172.72   1
   4  -4   129961.90 1324.35   1
  -4   4  -129534.20 1520.09   1
  -4   4  -126708.40 1040.24   1
   4  -4   129001.50 1066.14   1
  -4   4  -131237.40 1396.69   1
   4  -4   129688.80 1471.21   1
  -4   1  -264388.70 2005.48  -2
   4  -4   264388.70 2005.48   1
  -4   1  -263848.50 1586.16  -2
   4  -4   263848.50 1586.16   1
   4  -1   267234.50 2339.71  -2
  -4   4  -267234.50 2339.71   1
   4  -1   261324.60 1589.50  -2
  -4   4  -261324.60 1589.50   1
   4  -1   264746.80 1962.96  -2
  -4   4  -264746.80 1962.96   1
  -4   1  -265711.10 2211.38  -2
   4  -4   265711.10 2211.38   1
  -4   1  -316577.10 1041.80  -2
   4  -4   316577.10 1041.80   1
  -4   1  -315789.70  820.81  -2
   4  -4   315789.70  820.81   1
   4  -1   317027.90 1173.64  -2
  -4   4  -317027.90 1173.64   1
   4  -1   315662.30  974.37  -2
  -4   4  -315662.30  974.37   1
   4  -1   316165.40  860.22  -2
  -4   4  -316165.40  860.22   1
  -4   1  -4  394.28  189.03  -2
   4  -4   4  394.28  189.03   1
   4  -1   4  255.90  122.42  -2
  -4   4  -4  255.90  122.42   1
   4  -1   4  271.64  115.77  -2
  -4   4  -4  271.64  115.77   1
   4  -1   4  700.80  281.58  -2
  -4   4  -4  700.80  281.58   1
  -4   1  -4  511.48  180.92  -2
   4  -4   4  511.48  180.92   1
  -4   1  -4  504.92  144.43  -2
   4  -4   4  504.92  144.43   1
  -4   1  -4  356.15  158.38  -2
   4  -4   4  356.15  158.38   1
   4  -1   5 4915.03  341.75  -2
  -4   4  -5 4915.03  341.75   1
  -4   1  -5 5520.72  588.62  -2
   4  -4   5 5520.72  588.62   1
  -4   1  -5 5846.28  647.41  -2
   4  -4   5 5846.28  647.41   1
   4  -1   5 5052.12  666.59  -2
  -4   4  -5 5052.12  666.59   1
  -4   1  -5 4924.55  520.01  -2
   4  -4   5 4924.55  520.01   1
  -4   1  -5 5409.15  536.58  -2
   4  -4   5 5409.15  536.58   1
   4  -1   5 5243.78  591.62  -2
  -4   4  -5 5243.78  591.62   1
  -4   4  -6 1243.89  297.03   1
   4  -4   6 1468.21  345.28   1
  -4   4  -6 1414.87  365.65   1
   4  -4   6 1374.68  299.41   1
   4  -4   7 2474.18  451.91   1
  -4   4  -7 2294.61  421.03   1
  -4   4  -7 2432.81  510.10   1
   4  -4   7 2364.16  410.45   1
   4  -4   8  428.20  216.73   1
  -4   4  -8  685.89  235.82   1
   4  -4   8  574.28  234.79   1
  -4   4  -8  417.86  254.30   1
   4  -4   9  699.95  281.38   1
   4  -4   9  980.32  338.80   1
  -4   4  -9  801.33  287.83   1
  -4   4  -9  914.87  385.92   1
   4  -4  10 1745.15  441.91   1
  -4   4 -10 1211.74  379.61   1
   4  -4  10 1064.13  352.50   1
   4   1  -9 -239.46  211.08  -2
  -4   3   9 -239.46  211.08   1
   4   1  -9  -24.32  182.71  -2
  -4   3   9  -24.32  182.71   1
  -4  -1   9  141.46  251.74  -2
   4  -3  -9  141.46  251.74   1
  -4   3   8  -35.01  180.67   1
  -4   3   8  137.50  247.85   1
   4  -3  -8  -58.52  160.13   1
   4  -3  -7 1764.40  383.66   1
  -4   3   7 1643.61  437.74   1
  -4   3   7 1790.95  457.00   1
  -4   3   6  -69.96  165.92   1
   4  -3  -6  -99.85   86.24   1
  -4   3   6  198.60  184.78   1
   4  -3  -6   15.56  120.36   1
  -4   3   5 3980.01  604.56   1
  -4   3   5 4012.58  584.21   1
   4  -3  -5 4124.44  495.83   1
   4  -3  -5 4214.11  492.06   1
  -4   3   5 4189.68  359.53   1
  -4   3   4 5942.32  707.28   1
  -4   3   4 5186.28  545.08   1
   4  -3  -4 5425.24  551.14   1
   4  -3  -4 5653.55  545.77   1
  -4   3   4 4686.47  393.98   1
   4  -3  -3  964.22  214.08   1
  -4   3   3 1775.40  379.63   1
  -4   3   3 1362.48  271.60   1
   4  -3  -3 1911.29  298.89   1
   4  -3  -3 1370.85  276.49   1
   4  -3  -2  147.03  109.58   1
  -4   3   2   73.79  115.31   1
  -4   3   2   83.19  111.14   1
   4  -3  -2  257.50  183.54   1
  -4   3   2  267.61  145.20   1
   4  -3  -2  118.57  122.47   1
   4  -3  -1  359.13  152.29   1
  -4   3   1  199.89  140.79   1
   4  -3  -1   59.76   75.95   1
   4  -3  -1   63.64  115.94   1
  -4   3   1  212.59  101.04   1
  -4   3   1  190.68  116.40   1
   4  -3   031006.30  977.94   1
   4  -3   030451.70 1208.39   1
  -4   3   031986.20 1464.76   1
  -4   3   029326.90  957.37   1
  -4   3   029809.80 1329.00   1
   4  -3   032637.00 1433.26   1
   4  -3   144686.20 1507.18   1
   4  -3   143531.80 1114.57   1
  -4   3  -145340.60 1747.84   1
  -4   3  -139025.60 1073.18   1
  -4   3  -143716.90 1594.36   1
   4  -3   145220.60 1723.68   1
  -4   0  -236718.00 1397.79  -2
   4  -3   236718.00 1397.79   1
  -4   0  -233817.70 1013.68  -2
   4  -3   233817.70 1013.68   1
   4   0   237550.90 1619.51  -2
  -4   3  -237550.90 1619.51   1
   4   0   235306.70 1040.71  -2
  -4   3  -235306.70 1040.71   1
   4   0   236754.10 1428.90  -2
  -4   3  -236754.10 1428.90   1
  -4   0  -238311.70 1609.42  -2
   4  -3   238311.70 1609.42   1
   4   0   3 9202.21  573.43  -2
  -4   3  -3 9202.21  573.43   1
  -4   0  -3 9143.75  724.26  -2
   4  -3   3 9143.75  724.26   1
  -4   0  -3 8216.05  546.93  -2
   4  -3   3 8216.05  546.93   1
  -4   0  -3 6498.73  598.62  -2
   4  -3   3 6498.73  598.62   1
  -4   0  -3 6678.03  468.35  -2
   4  -3   3 6678.03  468.35   1
   4   0   3 8544.34  779.00  -2
  -4   3  -3 8544.34  779.00   1
   4   0   3 8621.07  692.43  -2
  -4   3  -3 8621.07  692.43   1
  -4   0  -4 9624.49  758.86  -2
   4  -3   4 9624.49  758.86   1
  -4   0  -4 9781.95  616.59  -2
   4  -3   4 9781.95  616.59   1
   4   0   410228.60  873.70  -2
  -4   3  -410228.60  873.70   1
  -4   0  -4 6453.88  607.57  -2
   4  -3   4 6453.88  607.57   1
   4   0   4 9496.24  740.75  -2
  -4   3  -4 9496.24  740.75   1
   4   0   4 9836.63  542.44  -2
  -4   3  -4 9836.63  542.44   1
   4   0   510012.90  492.13  -2
  -4   3  -510012.90  492.13   1
  -4   0  -510051.10  686.07  -2
   4  -3   510051.10  686.07   1
   4   0   5 9691.24  879.28  -2
  -4   3  -5 9691.24  879.28   1
  -4   0  -5 8129.46  703.90  -2
   4  -3   5 8129.46  703.90   1
  -4   0  -5 9678.36  789.88  -2
   4  -3   5 9678.36  789.88   1
   4   0   510090.80  788.15  -2
  -4   3  -510090.80  788.15   1
   4  -3   6 6763.84  682.43   1
   4  -3   6 4789.01  498.57   1
  -4   3  -6 6100.94  714.63   1
  -4   3  -6 5097.76  565.21   1
   4  -3   6 5030.18  535.01   1
   4  -3   710416.40  865.71   1
  -4   3  -7 8754.66  890.10   1
   4  -3   7 8887.41  755.13   1
  -4   3  -7 9219.75  804.06   1
   4  -3   8 1119.10  313.33   1
  -4   3  -8  748.03  247.31   1
   4  -3   8 1079.56  306.31   1
  -4   3  -8 1731.58  450.38   1
  -4   3  -9  510.89  243.90   1
   4  -3   9  140.88  199.10   1
  -4   3  -9   19.06  149.41   1
   4  -3  10 7105.22  775.33   1
   4  -3  10 6982.05  836.91   1
  -4   3 -10 6155.36  785.70   1
   4  -3  11 2236.40  536.56   1
  -4   3 -11 2615.24  569.50   1
   4  -3  11 2566.69  526.78   1
   4   2  -9  146.41  236.43  -2
  -4   2   9  146.41  236.43   1
   4   2  -9  561.55  271.07  -2
  -4   2   9  561.55  271.07   1
  -4  -2   9  -10.70  142.26  -2
   4  -2  -9  -10.70  142.26   1
  -4   2   8 1697.04  461.94   1
  -4   2   8 1362.00  394.22   1
   4  -2  -8 1796.79  435.56   1
  -4   2   7 1822.61  444.40   1
  -4   2   7 1269.39  368.50   1
  -4   2   7 1077.98  311.94   1
   4  -2  -7 1737.79  377.58   1
   4  -2  -6  698.67  227.28   1
   4  -2  -6  715.03  112.31   1
  -4   2   6  833.91  289.51   1
  -4   2   6  608.02  202.29   1
  -4   2   6  895.10  312.45   1
  -4   2   6  588.83  153.76   1
  -4   2   5 1522.62  364.74   1
   4  -2  -5 2253.43  346.09   1
   4  -2  -5 1838.10  224.56   1
  -4   2   5 1481.08  359.54   1
  -4   2   5 1424.23  300.87   1
   4  -2  -5 1966.23  350.94   1
  -4   2   5 1633.60  317.36   1
  -4   2   5 1420.93  217.84   1
   4  -2  -4  308.81  110.43   1
   4  -2  -4  487.04  161.87   1
  -4   2   4  272.33  146.24   1
  -4   2   4  421.20  209.89   1
  -4   2   4  354.46  150.78   1
  -4   2   4  413.82  140.70   1
   4  -2  -4  206.40  126.21   1
  -4   2   4  432.57  181.90   1
  -4   2   4  460.50  146.16   1
  -4   2   3 2370.55  329.38   1
  -4   2   3 2367.74  404.94   1
  -4   2   3 2390.89  390.79   1
   4  -2  -3 2409.43  313.99   1
   4  -2  -3 2163.55  343.17   1
  -4   2   3 2239.46  354.93   1
  -4   2   3 2169.19  274.96   1
  -4   2   2   76.47  107.12   1
   4  -2  -2  254.75  110.21   1
  -4   2   2  226.47  101.54   1
   4  -2  -2  211.98  155.74   1
  -4   2   2  302.09  170.11   1
  -4   2   122107.90  769.63   1
  -4   2   122142.90 1130.93   1
   4  -2  -122475.40 1096.95   1
   4  -2  -123362.50  779.63   1
  -4   2   122352.80 1141.46   1
  -4   2   0   46.08   65.28   1
  -4   2   0  586.12  181.95   1
   4  -2   0  593.10  200.90   1
  -4   2   0  316.88  143.45   1
   4  -2   0  518.65  197.10   1
   4  -2   0  411.26  107.53   1
   4  -2   0  470.67  159.95   1
  -4   2   0  416.29   97.85   1
  -4   2   0  257.18  122.52   1
   4  -2   116409.90  864.67   1
  -4   2  -114605.70  854.90   1
   4  -2   113384.30  851.94   1
  -4   2  -113945.00  905.90   1
  -4   2  -112412.90  479.84   1
  -4   2  -114262.20  868.00   1
   4  -2   116131.30  976.27   1
   4  -2   114222.60  505.99   1
   4   1   2 7407.77  613.68  -2
  -4   2  -2 7407.77  613.68   1
  -4  -1  -2 7297.46  389.44  -2
   4  -2   2 7297.46  389.44   1
  -4  -1  -2 7330.65  642.41  -2
   4  -2   2 7330.65  642.41   1
   4   1   2 5880.14  598.06  -2
  -4   2  -2 5880.14  598.06   1
  -4  -1  -2 7520.76  601.63  -2
   4  -2   2 7520.76  601.63   1
   4   1   2 7486.74  536.29  -2
  -4   2  -2 7486.74  536.29   1
  -4  -1  -2 7170.39  599.76  -2
   4  -2   2 7170.39  599.76   1
   4   1   2 7096.33  599.43  -2
  -4   2  -2 7096.33  599.43   1
  -4  -1  -2 7545.59  675.41  -2
   4  -2   2 7545.59  675.41   1
  -4  -1  -310582.50  512.61  -2
   4  -2   310582.50  512.61   1
   4   1   311383.50  612.13  -2
  -4   2  -311383.50  612.13   1
  -4  -1  -310139.40  709.32  -2
   4  -2   310139.40  709.32   1
   4   1   311044.40  830.13  -2
  -4   2  -311044.40  830.13   1
   4   1   311782.90  799.05  -2
  -4   2  -311782.90  799.05   1
  -4  -1  -311366.30  824.05  -2
   4  -2   311366.30  824.05   1
  -4  -1  -310458.30  538.66  -2
   4  -2   310458.30  538.66   1
  -4  -1  -310076.30  721.21  -2
   4  -2   310076.30  721.21   1
   4   1   310829.50  754.35  -2
  -4   2  -310829.50  754.35   1
   4   1   412679.30  929.39  -2
  -4   2  -412679.30  929.39   1
   4   1   412088.60  588.12  -2
  -4   2  -412088.60  588.12   1
  -4  -1  -413392.30  849.15  -2
   4  -2   413392.30  849.15   1
  -4  -1  -412699.30  641.24  -2
   4  -2   412699.30  641.24   1
  -4  -1  -412231.20  888.08  -2
   4  -2   412231.20  888.08   1
  -4  -1  -412461.70  638.65  -2
   4  -2   412461.70  638.65   1
   4   1   412480.20  903.97  -2
  -4   2  -412480.20  903.97   1
   4   1   413214.80  862.86  -2
  -4   2  -413214.80  862.86   1
  -4  -1  -412856.90  842.27  -2
   4  -2   412856.90  842.27   1
   4   1   412243.10  830.49  -2
  -4   2  -412243.10  830.49   1
   4   1   532596.20  895.31  -2
  -4   2  -532596.20  895.31   1
  -4  -1  -533122.90 1113.43  -2
   4  -2   533122.90 1113.43   1
   4   1   530212.00 1460.60  -2
  -4   2  -530212.00 1460.60   1
  -4  -1  -531857.60 1139.08  -2
   4  -2   531857.60 1139.08   1
  -4  -1  -535353.60 1403.62  -2
   4  -2   535353.60 1403.62   1
   4   1   532855.60 1382.67  -2
  -4   2  -532855.60 1382.67   1
   4  -2   6 6416.57  630.22   1
  -4   2  -6 6361.80  415.78   1
  -4   2  -6 7509.49  765.07   1
   4  -2   6 6815.13  586.88   1
   4  -2   6 7011.35  663.37   1
  -4   2  -6 6806.66  662.48   1
   4  -2   7 5030.16  532.62   1
  -4   2  -7 4570.73  642.79   1
   4  -2   7 4327.37  530.90   1
  -4   2  -7 3863.85  293.44   1
   4  -2   7 5152.95  547.09   1
  -4   2  -7 4611.17  570.14   1
   4  -2   8 1762.20  371.30   1
  -4   2  -8 1981.49  432.98   1
  -4   2  -8 1351.36  122.25   1
   4  -2   8 1858.08  373.27   1
  -4   2  -8 1992.14  401.01   1
   4  -2   9   12.53  150.34   1
   4  -2   9 -229.97  169.43   1
  -4   2  -9 -189.29  226.71   1
   4  -2  10  661.35  293.13   1
  -4   2 -10  164.06  175.43   1
   4  -2  10  773.33  262.63   1
   4  -2  11  335.81  245.53   1
   4  -2  11  541.86  300.76   1
  -4   2 -11  431.53  246.16   1
   4   3 -10  489.84  323.39  -2
  -4   1  10  489.84  323.39   1
  -4  -3  10 1466.28  423.89  -2
   4  -1 -10 1466.28  423.89   1
   4   3  -9  398.95  268.19  -2
  -4   1   9  398.95  268.19   1
  -4  -3   9  522.36  269.99  -2
   4  -1  -9  522.36  269.99   1
  -4   1   8   15.42  173.35   1
   4  -1  -8  -74.44  185.65   1
  -4   1   7  904.71  304.74   1
   4  -1  -7 1499.60  373.63   1
  -4   1   7 1394.46  348.65   1
  -4   1   7 1400.01  250.90   1
  -4   1   6 4245.01  578.75   1
  -4   1   6 4735.76  583.07   1
   4  -1  -6 5040.04  561.16   1
  -4   1   6 4952.80  569.75   1
  -4   1   6 4295.01  401.77   1
  -4   1   5 2046.14  330.34   1
  -4   1   5 1401.55  321.61   1
   4  -1  -5 1866.48  188.14   1
  -4   1   5 1753.16  345.04   1
  -4   1   5 1962.55  358.71   1
   4  -1  -5 1878.16  321.21   1
  -4   1   5 1654.62  256.77   1
   4  -1  -412578.00  543.95   1
  -4   1   413056.80  905.23   1
   4  -1  -414120.70  773.09   1
  -4   1   412172.20  820.07   1
   4  -1  -412661.40  833.21   1
  -4   1   412937.70  864.72   1
  -4   1   412695.80  667.51   1
  -4   1   413690.00  753.05   1
   4  -1  -3  130.62   94.74   1
  -4   1   3  -18.15   93.93   1
  -4   1   3  140.75  120.98   1
   4  -1  -3   39.88   80.61   1
  -4   1   3  285.90  113.43   1
   4  -1  -3  299.89  174.15   1
  -4   1   3 -127.71  114.24   1
  -4   1   3  139.13   84.11   1
  -4   1   2  194.09  121.41   1
   4  -1  -2  166.12   85.65   1
   4  -1  -2    6.85   77.43   1
  -4   1   2  132.41  102.61   1
  -4   1   2   18.40   67.63   1
  -4   1   2   91.77   59.99   1
   4  -1  -2   18.17   73.57   1
  -4   1   2   -1.01   69.42   1
  -4   1   2    6.82   70.20   1
  -4   1   1 2515.78  355.37   1
  -4   1   113789.00  707.03   1
  -4   1   113798.70  494.80   1
   4  -1  -113133.70  799.41   1
   4  -1  -113852.50  815.49   1
  -4   1   114526.50  833.17   1
   4  -1  -114122.20  526.54   1
  -4   1   1  -11.54   80.34   1
  -4   1   1  322.05  130.59   1
  -4   1   0 5825.20  476.37   1
   4  -1   0 6836.56  564.70   1
  -4   1   0 4972.41  231.44   1
  -4   1   0 5900.68  537.57   1
   4  -1   0 5926.99  564.99   1
   4  -1   0 5517.71  280.55   1
  -4   1  -1 4981.66  454.24   1
   4  -1   1 5096.74  490.29   1
  -4   1  -1 4975.99  499.34   1
   4  -1   1 4950.48  487.57   1
   4  -1   1 4935.86  514.88   1
   4  -1   1 4892.06  230.44   1
   4   2   232216.80 1053.85  -2
  -4   1  -232216.80 1053.85   1
   4   2   232940.20 1293.55  -2
  -4   1  -232940.20 1293.55   1
   4   2   232995.70 1185.63  -2
  -4   1  -232995.70 1185.63   1
  -4  -2  -231612.30  595.66  -2
   4  -1   231612.30  595.66   1
  -4  -2  -231300.40 1238.05  -2
   4  -1   231300.40 1238.05   1
  -4  -2  -232359.40 1322.40  -2
   4  -1   232359.40 1322.40   1
  -4  -2  -230807.70 1207.39  -2
   4  -1   230807.70 1207.39   1
  -4  -2  -228733.80  639.24  -2
   4  -1   228733.80  639.24   1
   4   2   3 7445.20  637.47  -2
  -4   1  -3 7445.20  637.47   1
   4   2   3   -1.43   68.82  -2
  -4   1  -3   -1.43   68.82   1
   4   2   3 7073.30  476.37  -2
  -4   1  -3 7073.30  476.37   1
   4   2   3 7473.49  586.25  -2
  -4   1  -3 7473.49  586.25   1
  -4  -2  -3 6653.53  349.59  -2
   4  -1   3 6653.53  349.59   1
  -4  -2  -3 6811.09  606.95  -2
   4  -1   3 6811.09  606.95   1
  -4  -2  -3 6730.51  365.06  -2
   4  -1   3 6730.51  365.06   1
   4   2   3  189.59  134.99  -2
  -4   1  -3  189.59  134.99   1
  -4  -2  -3 7177.58  590.38  -2
   4  -1   3 7177.58  590.38   1
  -4  -2  -3 7395.63  644.34  -2
   4  -1   3 7395.63  644.34   1
  -4  -2  -3   -7.04   47.70  -2
   4  -1   3   -7.04   47.70   1
   4   2   4 2442.01  374.18  -2
  -4   1  -4 2442.01  374.18   1
  -4  -2  -4 1074.86  195.39  -2
   4  -1   4 1074.86  195.39   1
   4   2   4 2154.77  264.83  -2
  -4   1  -4 2154.77  264.83   1
   4   2   4 1880.39  244.10  -2
  -4   1  -4 1880.39  244.10   1
   4   2   4 1842.70  316.01  -2
  -4   1  -4 1842.70  316.01   1
  -4  -2  -4 1850.47  303.90  -2
   4  -1   4 1850.47  303.90   1
  -4  -2  -4 1660.56  214.35  -2
   4  -1   4 1660.56  214.35   1
  -4  -2  -4 2009.05  359.23  -2
   4  -1   4 2009.05  359.23   1
  -4  -2  -4 2105.94  355.76  -2
   4  -1   4 2105.94  355.76   1
   4   2   4 1799.78  373.69  -2
  -4   1  -4 1799.78  373.69   1
   4   2   5 4065.28  536.73  -2
  -4   1  -5 4065.28  536.73   1
  -4  -2  -5 5101.13  606.51  -2
   4  -1   5 5101.13  606.51   1
  -4  -2  -5 4293.90  381.32  -2
   4  -1   5 4293.90  381.32   1
  -4  -2  -5 3850.30  422.16  -2
   4  -1   5 3850.30  422.16   1
  -4  -2  -5 4401.61  513.04  -2
   4  -1   5 4401.61  513.04   1
   4  -1   6  366.68  198.26   1
   4  -1   6  -25.40   79.54   1
   4  -1   6  -81.33  114.05   1
  -4   1  -6  -94.67  116.30   1
   4  -1   6  -29.93  118.61   1
  -4   1  -6   77.48  103.59   1
  -4   1  -6  123.66   73.39   1
  -4   1  -6  382.63  205.58   1
   4  -1   721742.80  727.80   1
  -4   1  -723797.70 1124.24   1
   4  -1   721169.20 1087.75   1
  -4   1  -721013.10  569.88   1
  -4   1  -721220.10 1293.41   1
   4  -1   723350.30 1181.29   1
   4  -1   724071.40 1045.00   1
  -4   1  -723163.30 1259.92   1
   4  -1   810570.90  499.25   1
   4  -1   811875.30  845.07   1
  -4   1  -811473.20  957.99   1
  -4   1  -811276.70  858.23   1
  -4   1  -9 -172.48  216.40   1
   4  -1   9   46.30   73.51   1
   4  -1   9  -52.14  140.01   1
  -4   1  -9  -15.69  143.03   1
  -4   1 -10 7285.89  807.45   1
   4  -1  10 6577.99  649.12   1
  -4   1 -10 5985.20  772.66   1
   4  -1  11 3232.14  698.09   1
   4  -1  11 3554.81  509.90   1
  -4   1 -11 3471.91  620.64   1
   4  -1  11 3434.55  663.97   1
   4   4 -10  859.72  362.42  -2
  -4   0  10  859.72  362.42   1
  -4  -4  10  628.57  332.23  -2
   4   0 -10  628.57  332.23   1
  -4  -4   9  866.75  300.66  -2
   4   0  -9  866.75  300.66   1
   4   4  -9 1508.87  400.81  -2
  -4   0   9 1508.87  400.81   1
  -4   0   8  195.96  191.75   1
   4   0  -8  119.63  140.61   1
  -4   0   7   81.55  155.50   1
   4   0  -7   74.93  114.99   1
  -4   0   7  212.91  126.54   1
  -4   0   6 8644.65  760.90   1
   4   0  -611041.40  821.61   1
  -4   0   610053.60  826.35   1
  -4   0   610176.30  666.80   1
  -4   0   516758.70  993.66   1
   4   0  -516591.70  495.55   1
  -4   0   517105.30  928.34   1
  -4   0   517219.00  945.80   1
   4   0  -518301.10  958.12   1
  -4   0   517982.00 1063.33   1
  -4   0   518204.50  931.82   1
  -4   0   517701.70  837.12   1
  -4   0   4  345.27   90.48   1
   4   0  -4  330.60   95.65   1
  -4   0   4  441.99  173.98   1
  -4   0   4  911.80  237.66   1
  -4   0   4  678.36  191.90   1
  -4   0   4  583.56  224.74   1
   4   0  -4  896.37  218.63   1
  -4   0   4  435.70  144.41   1
  -4   0   4  616.78  211.28   1
  -4   0   4  860.28  196.36   1
   4   0  -312010.20  531.08   1
  -4   0   312646.40  772.87   1
  -4   0   311948.70  550.66   1
  -4   0   312903.10  758.16   1
  -4   0   312212.90  804.92   1
  -4   0   313325.90  743.61   1
   4   0  -312982.00  651.02   1
   4   0  -312423.60  799.45   1
  -4   0   312836.50  678.71   1
  -4   0   313625.70  645.02   1
   4   0  -218329.40  702.53   1
  -4   0   217933.90  715.15   1
  -4   0   218790.10  887.32   1
  -4   0   219501.90  890.71   1
   4   0  -220184.90  696.86   1
   4   0  -219074.30  962.07   1
  -4   0   218799.30  794.49   1
  -4   0   219627.70  668.82   1
   4   0  -1 3275.65  318.44   1
  -4   0   1 3558.99  341.04   1
   4   0  -1 3476.34  365.95   1
  -4   0   1 3398.39  373.66   1
   4   0  -1 3030.14  222.87   1
   4   0  -1 3437.43  412.77   1
  -4   0   1 3618.54  237.86   1
  -4   0   022904.30  895.70   1
   4   0   025257.70  911.11   1
   4   0   021933.20  408.69   1
   4   0   023672.00  943.66   1
  -4   0   025076.40  996.02   1
   4   0   024139.20 1055.01   1
   4   0   115192.40  788.50   1
  -4   0  -115008.90  819.45   1
  -4   0  -113681.00  730.91   1
   4   0   115974.60  845.11   1
  -4   0  -113512.30  753.08   1
   4   0   112823.60  845.79   1
  -4  -3  -2  211763    2668  -2
   4   0   2  211763    2668   1
   4   3   2  209590    2653  -2
  -4   0  -2  209590    2653   1
   4   3   2  215093    2879  -2
  -4   0  -2  215093    2879   1
   4   3   2  208268    2554  -2
  -4   0  -2  208268    2554   1
  -4  -3  -2  214369    3009  -2
   4   0   2  214369    3009   1
   4   3   2  198875    2976  -2
  -4   0  -2  198875    2976   1
  -4  -3  -2  212289    3180  -2
   4   0   2  212289    3180   1
  -4  -3  -2  206957    3031  -2
   4   0   2  206957    3031   1
   4   3   336696.20 1310.22  -2
  -4   0  -336696.20 1310.22   1
   4   3   333429.40 1037.71  -2
  -4   0  -333429.40 1037.71   1
   4   3   336097.00 1211.15  -2
  -4   0  -336097.00 1211.15   1
  -4  -3  -335436.90 1321.36  -2
   4   0   335436.90 1321.36   1
   4   3   335000.40  994.40  -2
  -4   0  -335000.40  994.40   1
  -4  -3  -334938.80 1057.22  -2
   4   0   334938.80 1057.22   1
   4   3   335042.30 1297.65  -2
  -4   0  -335042.30 1297.65   1
  -4  -3  -332253.40  736.46  -2
   4   0   332253.40  736.46   1
  -4  -3  -333884.10  636.61  -2
   4   0   333884.10  636.61   1
  -4  -3  -335665.90 1295.01  -2
   4   0   335665.90 1295.01   1
  -4  -3  -335905.60 1331.50  -2
   4   0   335905.60 1331.50   1
   4   3   4 9855.91  729.21  -2
  -4   0  -4 9855.91  729.21   1
  -4  -3  -4 9429.84  539.63  -2
   4   0   4 9429.84  539.63   1
   4   3   4 9278.59  547.58  -2
  -4   0  -4 9278.59  547.58   1
   4   3   4 9891.81  506.03  -2
  -4   0  -4 9891.81  506.03   1
   4   3   410059.10  665.92  -2
  -4   0  -410059.10  665.92   1
   4   3   4 9284.00  478.27  -2
  -4   0  -4 9284.00  478.27   1
  -4  -3  -4 9953.64  660.00  -2
   4   0   4 9953.64  660.00   1
  -4  -3  -4 9686.93  737.28  -2
   4   0   4 9686.93  737.28   1
   4   3   4 9166.01  705.25  -2
  -4   0  -4 9166.01  705.25   1
  -4  -3  -4 9524.65  436.72  -2
   4   0   4 9524.65  436.72   1
  -4  -3  -410303.30  723.08  -2
   4   0   410303.30  723.08   1
  -4  -3  -410663.50  745.81  -2
   4   0   410663.50  745.81   1
   4   3   4 8937.90  675.45  -2
  -4   0  -4 8937.90  675.45   1
   4   3   520998.40 1127.60  -2
  -4   0  -520998.40 1127.60   1
  -4  -3  -520149.50  786.39  -2
   4   0   520149.50  786.39   1
   4   3   522760.20 1020.81  -2
  -4   0  -522760.20 1020.81   1
  -4  -3  -521190.10  985.65  -2
   4   0   521190.10  985.65   1
   4   3   521272.00  702.43  -2
  -4   0  -521272.00  702.43   1
   4   3   521462.40  838.54  -2
  -4   0  -521462.40  838.54   1
  -4  -3  -520380.20 1141.91  -2
   4   0   520380.20 1141.91   1
   4   3   522078.90 1158.60  -2
  -4   0  -522078.90 1158.60   1
  -4  -3  -521086.00  759.87  -2
   4   0   521086.00  759.87   1
  -4  -3  -520750.00 1091.32  -2
   4   0   520750.00 1091.32   1
   4   3   520568.10 1069.02  -2
  -4   0  -520568.10 1069.02   1
   4   0   6   56.21  116.83   1
  -4   0  -6   98.39  148.83   1
  -4   0  -6   -3.91  108.57   1
   4   0   6  -25.14  134.35   1
   4   0   6  180.68   93.51   1
  -4   0  -6   11.33   99.83   1
  -4   0  -6   23.16   86.68   1
   4   0   6  140.62  170.49   1
  -4   0  -6   12.91   65.98   1
  -4   0  -6  124.69  151.60   1
   4   0   7  -58.32  140.79   1
   4   0   7   34.63   80.09   1
  -4   0  -7  109.24  147.33   1
   4   0   7   17.40  128.41   1
  -4   0  -7  295.97  183.71   1
  -4   0  -7   63.31  118.98   1
  -4   0  -7  342.54  128.73   1
   4   0   7  113.30   92.49   1
   4   0   8  549.39  257.35   1
  -4   0  -8  451.31  224.18   1
   4   0   8  371.83  164.32   1
   4   0   8  222.94  127.21   1
   4   0   8  613.94  191.05   1
  -4   0  -8  526.13  197.79   1
   4   0   9  665.21  163.25   1
  -4   0  -9  973.54  319.92   1
  -4   0  -9  774.41  242.91   1
   4   0   9  684.76  207.40   1
   4   0   9  448.55  245.01   1
   4   0  10 2340.40  545.46   1
   4   0  10 2646.67  335.37   1
  -4   0 -10 2555.62  508.90   1
  -4   0 -10 2904.87  504.92   1
   4   0  10 2663.87  391.20   1
   4   0  11  984.89  386.03   1
  -4   0 -11  165.65  249.88   1
   4   0  11  521.77  214.65   1
  -4   0 -12  777.26  314.48   1
  -4   0 -12  484.63  297.03   1
   4   5 -10  192.97  237.12  -2
  -4  -1  10  192.97  237.12   1
  -4  -5  10  160.47  161.65  -2
   4   1 -10  160.47  161.65   1
  -4  -5  10    0.65  155.73  -2
   4   1 -10    0.65  155.73   1
  -4  -5   9    3.18  161.48  -2
   4   1  -9    3.18  161.48   1
  -4  -5   9  102.14  152.35  -2
   4   1  -9  102.14  152.35   1
  -4  -1   8 1905.64  402.75   1
   4   1  -8 1277.38  364.83   1
   4   1  -8 1104.68  274.57   1
  -4  -1   7  174.08  144.01   1
   4   1  -7   87.75  149.58   1
   4   1  -7  388.15  178.66   1
  -4  -1   7  171.88  135.12   1
  -4  -1   6  756.28  229.40   1
   4   1  -6  917.60  243.43   1
  -4  -1   6 1005.25  245.98   1
  -4  -1   6  838.98  268.92   1
   4   1  -6  787.25  217.16   1
  -4  -1   6  812.70  231.01   1
  -4  -1   5 9787.58  706.97   1
  -4  -1   511763.80  839.87   1
  -4  -1   5 8946.83  389.39   1
   4   1  -511170.50  754.91   1
  -4  -1   510266.20  665.28   1
  -4  -1   511112.50  844.32   1
  -4  -1   511636.40  746.19   1
  -4  -1   510491.70  720.13   1
  -4  -1   511154.90  699.78   1
  -4  -1   4 1264.82  276.92   1
  -4  -1   4 1086.35  234.49   1
  -4  -1   4  979.58  151.10   1
   4   1  -4  890.95  147.62   1
   4   1  -4 1228.92  244.03   1
  -4  -1   4 1276.33  262.70   1
  -4  -1   4 1218.13  234.70   1
  -4  -1   4  861.84  189.71   1
  -4  -1   4 1267.89  285.94   1
  -4  -1   4 1140.03  222.63   1
  -4  -1   3 4472.69  414.07   1
  -4  -1   3 4795.43  343.49   1
   4   1  -3 5091.39  345.27   1
  -4  -1   3 5409.62  483.35   1
   4   1  -3 5149.58  416.09   1
  -4  -1   3 5285.48  421.00   1
  -4  -1   3 5190.67  502.69   1
  -4  -1   3 5089.99  399.06   1
  -4  -1   3 5584.55  459.01   1
  -4  -1   2  917.63  155.99   1
  -4  -1   2  972.82  186.97   1
  -4  -1   2 1201.72  189.53   1
   4   1  -2  951.49  167.62   1
  -4  -1   2  796.08  193.33   1
  -4  -1   2 1193.46  169.67   1
  -4  -1   2 1023.82  187.98   1
   4   1  -2 1192.23  184.44   1
   4   1  -2 1386.90  265.60   1
  -4  -1   2  810.84  198.46   1
  -4  -1   2 1234.88  225.19   1
   4   1  -149744.20  926.58   1
  -4  -1   150657.00 1228.53   1
   4   1  -149151.50 1193.83   1
  -4  -1   149422.10 1229.93   1
   4   1  -148529.20 1160.07   1
  -4  -1   151194.70  867.92   1
  -4  -1   146688.60 1394.07   1
   4   1  -149271.30 1505.75   1
  -4  -1   148071.40 1281.56   1
  -4  -1   148192.80  870.65   1
   4   1   0  161.29  104.51   1
  -4  -1   0  195.78   98.59   1
   4   1   0  224.17  124.74   1
   4   1   0   97.62   48.19   1
  -4  -1   0  131.33   81.98   1
  -4  -1   0  206.73   42.38   1
   4   1   0  157.90   94.99   1
  -4  -1   0  185.04   41.15   1
   4   1   0   53.48   69.55   1
  -4  -1   0   96.19   77.06   1
  -4  -1  -131809.30 1069.71   1
  -4  -1  -132733.90 1051.41   1
  -4  -1  -132716.10 1030.17   1
   4   1   131897.80 1028.31   1
   4   1   132960.20 1086.98   1
  -4  -1  -132735.60 1054.01   1
   4   1   132014.60 1132.39   1
   4   1   133000.10 1185.58   1
   4   4   257350.40 1425.28  -2
  -4  -1  -257350.40 1425.28   1
  -4  -4  -259915.50 1440.31  -2
   4   1   259915.50 1440.31   1
   4   4   259263.50 1454.98  -2
  -4  -1  -259263.50 1454.98   1
  -4  -4  -251674.60  719.59  -2
   4   1   251674.60  719.59   1
   4   4   258975.90 1468.47  -2
  -4  -1  -258975.90 1468.47   1
   4   4   258872.70 1344.92  -2
  -4  -1  -258872.70 1344.92   1
  -4  -4  -259046.90 1512.66  -2
   4   1   259046.90 1512.66   1
   4   4   257546.40 1485.54  -2
  -4  -1  -257546.40 1485.54   1
  -4  -4  -259736.10 1621.93  -2
   4   1   259736.10 1621.93   1
  -4  -4  -257143.70 1642.15  -2
   4   1   257143.70 1642.15   1
   4   4   257685.80 1632.14  -2
  -4  -1  -257685.80 1632.14   1
   4   4   3  144168    2440  -2
  -4  -1  -3  144168    2440   1
  -4  -4  -3  143219    2193  -2
   4   1   3  143219    2193   1
  -4  -4  -3  140673    1546  -2
   4   1   3  140673    1546   1
   4   4   3  148721    2395  -2
  -4  -1  -3  148721    2395   1
   4   4   3  142390    1997  -2
  -4  -1  -3  142390    1997   1
  -4  -4  -3  148449    2553  -2
   4   1   3  148449    2553   1
   4   4   3  133464    2411  -2
  -4  -1  -3  133464    2411   1
  -4  -4  -3  139420    2504  -2
   4   1   3  139420    2504   1
  -4  -4  -3  145803    2548  -2
   4   1   3  145803    2548   1
   4   4   3  140048    2221  -2
  -4  -1  -3  140048    2221   1
   4   4   3  135494    1356  -2
  -4  -1  -3  135494    1356   1
  -4  -4  -3  141263    1293  -2
   4   1   3  141263    1293   1
  -4  -4  -4  851.77  210.52  -2
   4   1   4  851.77  210.52   1
  -4  -4  -4  585.69  184.52  -2
   4   1   4  585.69  184.52   1
  -4  -4  -4  594.82  174.68  -2
   4   1   4  594.82  174.68   1
   4   4   4  575.50  181.99  -2
  -4  -1  -4  575.50  181.99   1
  -4  -4  -4  880.62  191.35  -2
   4   1   4  880.62  191.35   1
  -4  -4  -4  654.84  129.09  -2
   4   1   4  654.84  129.09   1
  -4  -4  -4  926.55  242.49  -2
   4   1   4  926.55  242.49   1
   4   4   4  594.57  122.65  -2
  -4  -1  -4  594.57  122.65   1
   4   4   4  949.53  244.49  -2
  -4  -1  -4  949.53  244.49   1
   4   4   4  842.14  206.77  -2
  -4  -1  -4  842.14  206.77   1
   4   4   4  707.19  146.21  -2
  -4  -1  -4  707.19  146.21   1
  -4  -4  -4  701.40  193.34  -2
   4   1   4  701.40  193.34   1
   4   4   5 3093.34  484.52  -2
  -4  -1  -5 3093.34  484.52   1
  -4  -4  -5 3074.20  467.50  -2
   4   1   5 3074.20  467.50   1
   4   1   650589.90 1827.25   1
  -4  -1  -652578.00 1857.34   1
   4   1   648233.50 1366.97   1
  -4  -1  -654685.00 1604.58   1
  -4  -1  -649283.30  987.88   1
   4   1   651094.60 1491.94   1
  -4  -1  -653186.00 1436.50   1
   4   1   650933.30 1848.37   1
   4   1   650275.90 1811.20   1
   4   1   649373.30 1600.94   1
  -4  -1  -652298.70 1805.00   1
   4   1   795119.60 2698.66   1
  -4  -1  -798347.80 2199.36   1
   4   1   795635.90 2088.43   1
   4   1   791537.80 1970.44   1
   4   1   797049.00 2070.48   1
  -4  -1  -791124.40 2541.30   1
  -4  -1  -794550.00 2131.50   1
   4   1   8 5870.65  728.28   1
   4   1   8 6847.64  584.97   1
  -4  -1  -8 5650.49  586.01   1
   4   1   8 6161.29  539.64   1
   4   1   8 6467.33  592.92   1
  -4  -1  -8 6228.54  709.79   1
  -4  -1  -9  614.40  268.73   1
   4   1   9  904.95  232.50   1
   4   1   9  872.30  234.32   1
  -4  -1  -9  699.71  242.69   1
   4   1   9  744.38  280.73   1
   4   1  10   33.60  109.89   1
  -4  -1 -10  252.26  234.01   1
  -4  -1 -10  249.34  192.43   1
   4   1  10  168.29  151.45   1
   4   1  10  391.63  311.36   1
   4   1  11  -47.20  282.64   1
   4   1  11  -10.30  121.41   1
  -4  -1 -11  537.61  304.40   1
  -4  -1 -12 2100.15  524.31   1
  -4  -1 -12   86.58  182.32   1
   4   6 -10   28.55  190.22  -2
  -4  -2  10   28.55  190.22   1
   4   6 -10   50.16  167.39  -2
  -4  -2  10   50.16  167.39   1
  -4  -6  10    6.40  234.65  -2
   4   2 -10    6.40  234.65   1
  -4  -6  10   89.07  187.12  -2
   4   2 -10   89.07  187.12   1
   4   6  -9   36.82  150.71  -2
  -4  -2   9   36.82  150.71   1
   4   6  -9 -293.21  248.47  -2
  -4  -2   9 -293.21  248.47   1
  -4  -6   9   15.47  140.54  -2
   4   2  -9   15.47  140.54   1
  -4  -6   9   91.11  155.12  -2
   4   2  -9   91.11  155.12   1
  -4  -2   8 -105.59  144.86   1
   4   2  -8  210.42  206.34   1
   4   2  -8  -57.56  120.65   1
  -4  -2   7 1082.94   88.58   1
   4   2  -7 2187.54  428.58   1
  -4  -2   7 2025.82  366.45   1
  -4  -2   7 2014.12  343.27   1
   4   2  -7 2274.75  380.34   1
  -4  -2   6 1841.10  363.15   1
  -4  -2   6 1700.13  180.93   1
   4   2  -6 1602.46  341.46   1
  -4  -2   6 1952.86  346.49   1
  -4  -2   6 1686.37  311.81   1
   4   2  -6 2176.45  357.48   1
  -4  -2   6 1619.67  316.51   1
  -4  -2   5  360.17  149.87   1
  -4  -2   5  205.37  126.06   1
   4   2  -5  280.83  158.08   1
  -4  -2   5  254.95   82.54   1
  -4  -2   5  352.07  161.42   1
  -4  -2   5  499.84  194.93   1
  -4  -2   5  194.19  106.05   1
   4   2  -5  329.62  149.73   1
  -4  -2   5  366.61  160.58   1
  -4  -2   5  489.41  169.02   1
  -4  -2   4   -9.96   73.88   1
   4   2  -4  -46.43   95.27   1
  -4  -2   4    1.92   76.32   1
  -4  -2   4  131.17  117.48   1
  -4  -2   4  117.42   83.18   1
  -4  -2   4 -147.32  122.67   1
  -4  -2   4    8.42   74.82   1
  -4  -2   4  -10.60   95.31   1
  -4  -2   4  127.45  100.33   1
   4   2  -4  -32.67   85.08   1
  -4  -2   4  -18.71  102.69   1
  -4  -2   315373.60  658.14   1
   4   2  -317227.50  790.77   1
  -4  -2   316412.70  661.34   1
  -4  -2   316064.80  828.63   1
  -4  -2   315836.40  630.39   1
  -4  -2   316918.40  742.55   1
  -4  -2   315591.50  746.07   1
  -4  -2   318508.50  898.41   1
  -4  -2   315957.50  943.71   1
  -4  -2   316961.70  882.67   1
   4   2  -315900.00  823.13   1
  -4  -2   316766.50  820.81   1
  -4  -2   220631.80  655.85   1
   4   2  -223368.30  989.52   1
  -4  -2   222790.70  950.76   1
  -4  -2   222341.30  800.92   1
   4   2  -221738.70  774.99   1
   4   2  -221119.50  897.41   1
  -4  -2   221901.60  697.57   1
  -4  -2   224685.20  794.08   1
  -4  -2   223782.00  977.58   1
   4   2  -222922.00 1077.28   1
  -4  -2   221239.50  779.22   1
  -4  -2   221328.40  961.96   1
  -4  -2   222813.20  917.30   1
   4   2  -1  229.44  117.35   1
  -4  -2   1   55.94  110.80   1
   4   2  -1  135.21   85.98   1
   4   2  -1  301.66  148.49   1
   4   2  -1  111.95   76.92   1
  -4  -2   1  133.29   89.65   1
  -4  -2   1  120.17   80.11   1
   4   2  -1    4.04  118.55   1
  -4  -2   1   60.86   97.04   1
  -4  -2   1  213.72   93.81   1
   4   2   0 7399.57  531.70   1
  -4  -2   0 7120.23  482.67   1
   4   2   0 7104.68  457.99   1
  -4  -2   0 6587.44  300.48   1
   4   2   0 7617.27  509.89   1
  -4  -2   0 7491.61  351.75   1
   4   2   0 6918.56  400.93   1
  -4  -2   0 7335.10  427.07   1
   4   2   0 6779.61  340.57   1
   4   2   0 7219.33  509.34   1
   4   2   0 6875.82  546.79   1
  -4  -2   0 7421.68  516.08   1
  -4  -2  -1 2822.74  263.70   1
   4   2   1 3362.34  322.54   1
  -4  -2  -1 2365.34  191.70   1
   4   2   1 2693.18  208.38   1
  -4  -2  -1 2506.53  284.48   1
  -4  -2  -1 3243.32  362.58   1
  -4  -2  -1 3442.01  362.48   1
   4   5   291466.90 1635.31  -2
  -4  -2  -291466.90 1635.31   1
  -4  -5  -292154.00 1838.40  -2
   4   2   292154.00 1838.40   1
   4   5   291898.70 1876.46  -2
  -4  -2  -291898.70 1876.46   1
   4   5   294555.50 1836.55  -2
  -4  -2  -294555.50 1836.55   1
  -4  -5  -292690.10 1675.30  -2
   4   2   292690.10 1675.30   1
  -4  -5  -288396.70 1297.80  -2
   4   2   288396.70 1297.80   1
   4   5   292935.60 1780.71  -2
  -4  -2  -292935.60 1780.71   1
  -4  -5  -291971.70 1777.83  -2
   4   2   291971.70 1777.83   1
  -4  -5  -289350.70 1889.48  -2
   4   2   289350.70 1889.48   1
  -4  -5  -294252.70 1930.88  -2
   4   2   294252.70 1930.88   1
   4   5   294639.50 1953.34  -2
  -4  -2  -294639.50 1953.34   1
   4   5   292154.50 1705.78  -2
  -4  -2  -292154.50 1705.78   1
   4   5   292202.60 1933.94  -2
  -4  -2  -292202.60 1933.94   1
   4   5   286530.20 1028.17  -2
  -4  -2  -286530.20 1028.17   1
  -4  -5  -330508.10 1066.11  -2
   4   2   330508.10 1066.11   1
   4   5   340127.80 1222.55  -2
  -4  -2  -340127.80 1222.55   1
  -4  -5  -336662.40 1177.00  -2
   4   2   336662.40 1177.00   1
   4   5   328658.10 1040.66  -2
  -4  -2  -328658.10 1040.66   1
  -4  -5  -333628.10  977.31  -2
   4   2   333628.10  977.31   1
   4   5   335404.00 1020.46  -2
  -4  -2  -335404.00 1020.46   1
  -4  -5  -340654.10 1271.32  -2
   4   2   340654.10 1271.32   1
  -4  -5  -332920.30 1155.05  -2
   4   2   332920.30 1155.05   1
   4   5   338481.40 1249.40  -2
  -4  -2  -338481.40 1249.40   1
   4   5   327498.50  694.39  -2
  -4  -2  -327498.50  694.39   1
  -4  -5  -334543.80 1233.59  -2
   4   2   334543.80 1233.59   1
   4   5   338295.40 1298.65  -2
  -4  -2  -338295.40 1298.65   1
  -4  -5  -4  360.94  108.42  -2
   4   2   4  360.94  108.42   1
  -4  -5  -4  266.83  155.02  -2
   4   2   4  266.83  155.02   1
   4   5   4  388.86  113.79  -2
  -4  -2  -4  388.86  113.79   1
   4   5   4  284.18  158.31  -2
  -4  -2  -4  284.18  158.31   1
   4   5   4  658.80  263.27  -2
  -4  -2  -4  658.80  263.27   1
  -4  -5  -4  329.61  117.62  -2
   4   2   4  329.61  117.62   1
  -4  -5  -4  372.57  160.83  -2
   4   2   4  372.57  160.83   1
  -4  -5  -4  358.87  144.02  -2
   4   2   4  358.87  144.02   1
   4   5   4  309.01  106.90  -2
  -4  -2  -4  309.01  106.90   1
  -4  -5  -4  283.57  166.96  -2
   4   2   4  283.57  166.96   1
  -4  -5  -4  408.13  130.47  -2
   4   2   4  408.13  130.47   1
  -4  -5  -4  404.43  154.80  -2
   4   2   4  404.43  154.80   1
  -4  -5  -4  249.61  146.56  -2
   4   2   4  249.61  146.56   1
  -4  -5  -549466.40 1651.29  -2
   4   2   549466.40 1651.29   1
   4   5   550462.70 1650.19  -2
  -4  -2  -550462.70 1650.19   1
   4   5   551288.20 1475.55  -2
  -4  -2  -551288.20 1475.55   1
  -4  -5  -550383.70 1414.42  -2
   4   2   550383.70 1414.42   1
  -4  -5  -548265.40 1138.59  -2
   4   2   548265.40 1138.59   1
   4   5   546128.90 1094.18  -2
  -4  -2  -546128.90 1094.18   1
  -4  -5  -549505.30 1693.70  -2
   4   2   549505.30 1693.70   1
   4   5   547318.20 1230.09  -2
  -4  -2  -547318.20 1230.09   1
  -4  -5  -548967.30 1457.76  -2
   4   2   548967.30 1457.76   1
  -4  -5  -547822.00 1427.91  -2
   4   2   547822.00 1427.91   1
  -4  -5  -548318.30 1682.75  -2
   4   2   548318.30 1682.75   1
  -4  -5  -548647.30 1209.01  -2
   4   2   548647.30 1209.01   1
   4   2   615094.30  996.58   1
  -4  -2  -615625.60  993.40   1
   4   2   614504.70  832.18   1
   4   2   615111.20  853.36   1
  -4  -2  -615808.90  853.25   1
   4   2   615242.10  608.83   1
   4   2   614877.70 1015.79   1
  -4  -2  -615575.30  796.07   1
   4   2   614881.70  836.76   1
  -4  -2  -615175.20  988.27   1
   4   2   733212.40 1603.19   1
   4   2   730727.10 1264.09   1
  -4  -2  -732769.90 1256.65   1
   4   2   732145.60 1197.68   1
   4   2   732583.50  829.36   1
  -4  -2  -733644.70 1287.63   1
   4   2   733384.80 1307.18   1
  -4  -2  -732933.90 1541.76   1
   4   2   732829.30 1234.11   1
   4   2   8 2473.35  388.21   1
   4   2   8 3351.21  550.83   1
  -4  -2  -8 2804.27  487.00   1
  -4  -2  -8 2841.32  387.63   1
   4   2   8 2488.77  351.05   1
  -4  -2  -8 2663.65  398.52   1
   4   2   8 2478.22  370.70   1
  -4  -2  -9 3457.57  568.69   1
   4   2   9 2602.69  550.10   1
   4   2   9 3001.12  439.49   1
  -4  -2  -9 3024.14  408.34   1
  -4  -2  -9 3247.07  470.79   1
   4   2   9 2870.81  388.99   1
   4   2   9 3061.52  433.36   1
   4   2  10  299.74  172.40   1
  -4  -2 -10 -175.71  210.39   1
   4   2  10   77.29  142.49   1
   4   2  10   -2.25  192.17   1
   4   2  10  102.16  132.18   1
   4   2  11 4486.98  808.63   1
   4   2  11 3990.80  482.19   1
   4   2  11 4686.16  591.23   1
  -4  -2 -11 4911.34  712.78   1
   4   2  11 5180.05  598.13   1
  -4  -2 -12 1619.58  431.58   1
  -4  -7  10  -62.99  221.29  -2
   4   3 -10  -62.99  221.29   1
   4   7 -10  198.86  243.03  -2
  -4  -3  10  198.86  243.03   1
   4   7 -10  237.99  250.24  -2
  -4  -3  10  237.99  250.24   1
  -4  -7  10   59.75  183.55  -2
   4   3 -10   59.75  183.55   1
  -4  -7   9  113.26  195.91  -2
   4   3  -9  113.26  195.91   1
   4   7  -9  712.32  323.51  -2
  -4  -3   9  712.32  323.51   1
   4   7  -9  297.08  211.62  -2
  -4  -3   9  297.08  211.62   1
  -4  -7   9  195.89  145.84  -2
   4   3  -9  195.89  145.84   1
  -4  -3   8  600.00  269.29   1
   4   3  -8  803.52  303.00   1
  -4  -3   8 1003.71  306.26   1
   4   3  -8 1014.83  322.30   1
   4   3  -7 2799.99  470.15   1
  -4  -3   7 2974.04  255.14   1
   4   3  -7 2613.57  400.66   1
  -4  -3   7 3106.37  426.11   1
  -4  -3   7 3231.09  436.54   1
   4   3  -7 3720.48  491.95   1
  -4  -3   7 3079.21  502.05   1
   4   3  -6  769.56  261.81   1
  -4  -3   6  760.68  221.78   1
  -4  -3   6  558.80  213.50   1
  -4  -3   6  789.35  158.93   1
  -4  -3   6  968.16  261.09   1
  -4  -3   6  916.24  251.06   1
   4   3  -6  817.16  257.85   1
   4   3  -5  392.46  173.22   1
  -4  -3   5  527.37  184.37   1
  -4  -3   5  429.40  150.13   1
  -4  -3   5  430.94  172.37   1
  -4  -3   5  471.08  129.46   1
  -4  -3   5  650.84  207.42   1
  -4  -3   5  344.79  141.61   1
   4   3  -5  444.24  165.73   1
  -4  -3   5  545.12  166.96   1
  -4  -3   4    1.38  102.47   1
  -4  -3   4   28.52   58.42   1
  -4  -3   4  -55.98   96.52   1
   4   3  -4  133.16  117.65   1
  -4  -3   4  -16.66   50.53   1
  -4  -3   4   46.32   86.52   1
  -4  -3   4  -46.57  105.71   1
  -4  -3   4  219.76  120.13   1
  -4  -3   4  -31.80   70.63   1
   4   3  -4   98.92  122.17   1
  -4  -3   4  168.54  130.70   1
  -4  -3   4 -143.71  118.23   1
  -4  -3   331359.60  784.12   1
   4   3  -331086.50 1172.79   1
  -4  -3   330680.00 1189.82   1
  -4  -3   329883.50  938.33   1
   4   3  -331689.70 1145.74   1
  -4  -3   331685.20 1180.44   1
  -4  -3   331177.20 1071.76   1
  -4  -3   330772.10  670.74   1
  -4  -3   331270.60 1126.32   1
  -4  -3   332525.40 1131.75   1
   4   3  -330027.30 1170.36   1
  -4  -3   332734.20 1201.41   1
  -4  -3   2  -31.06   93.67   1
   4   3  -2   32.33   99.10   1
  -4  -3   2    1.27   75.22   1
  -4  -3   2   -7.89   31.24   1
  -4  -3   2  -39.35   83.04   1
  -4  -3   2  212.76  100.44   1
   4   3  -2   87.20  111.49   1
  -4  -3   2  133.93  119.74   1
  -4  -3   2    1.62   33.90   1
   4   3  -2   47.30   83.67   1
  -4  -3   2  -51.81   80.62   1
   4   3  -1 1494.09  259.47   1
  -4  -3   1 1441.08  272.90   1
  -4  -3   1 1066.90  180.53   1
   4   3  -1  914.14  167.33   1
   4   3  -1 1250.80  126.54   1
   4   3  -1 1283.89  233.03   1
  -4  -3   1 1364.45  142.28   1
  -4  -3   1 1507.96  230.01   1
  -4  -3   1 1270.73  196.95   1
  -4  -3   1 1415.87  225.40   1
  -4  -3   0 1836.52  124.48   1
   4   3   0 2017.19  301.46   1
  -4  -3   0 1907.46  271.39   1
   4   3   0 1675.92  178.47   1
  -4  -3   0 1690.31  179.28   1
   4   3   0 1795.02  220.23   1
   4   3   0 2051.97  270.60   1
  -4  -3   0 1909.49  261.71   1
   4   3   0 1807.16  291.03   1
  -4  -3   0 2035.64  239.17   1
  -4  -3   0 2183.14  315.12   1
   4   3   0 2029.35  307.58   1
  -4  -3  -1  116530    1385   1
   4   3   1  119305    2183   1
  -4  -3  -1  124466    2097   1
  -4  -3  -1  121674    1759   1
   4   3   1  124250    2077   1
   4   3   1  116940    1721   1
   4   3   1  120281    1737   1
   4   3   1  122023    2261   1
   4   3   1  121607    2091   1
  -4  -3  -1  127102    2296   1
  -4  -3  -1  121551    2100   1
  -4  -6  -315126.80  720.54  -2
   4   3   315126.80  720.54   1
   4   6   317963.10  783.76  -2
  -4  -3  -317963.10  783.76   1
  -4  -6  -315802.20  825.58  -2
   4   3   315802.20  825.58   1
   4   6   315155.80  768.81  -2
  -4  -3  -315155.80  768.81   1
  -4  -6  -312615.10  697.52  -2
   4   3   312615.10  697.52   1
  -4  -6  -310552.50  583.83  -2
   4   3   310552.50  583.83   1
  -4  -6  -315587.40  714.09  -2
   4   3   315587.40  714.09   1
   4   6   315272.40  716.75  -2
  -4  -3  -315272.40  716.75   1
  -4  -6  -315623.00  788.28  -2
   4   3   315623.00  788.28   1
  -4  -6  -317156.80  798.17  -2
   4   3   317156.80  798.17   1
   4   6   316299.20  774.39  -2
  -4  -3  -316299.20  774.39   1
  -4  -6  -315999.80  840.58  -2
   4   3   315999.80  840.58   1
   4   6   317292.90  871.21  -2
  -4  -3  -317292.90  871.21   1
   4   6   313520.40  566.83  -2
  -4  -3  -313520.40  566.83   1
  -4  -6  -4 1618.55  316.48  -2
   4   3   4 1618.55  316.48   1
   4   6   4 1711.07  317.54  -2
  -4  -3  -4 1711.07  317.54   1
  -4  -6  -4 1241.73  303.05  -2
   4   3   4 1241.73  303.05   1
   4   6   4 1504.82  307.33  -2
  -4  -3  -4 1504.82  307.33   1
  -4  -6  -4 1998.31  264.73  -2
   4   3   4 1998.31  264.73   1
   4   6   4 1697.82  288.13  -2
  -4  -3  -4 1697.82  288.13   1
  -4  -6  -4  931.97  225.07  -2
   4   3   4  931.97  225.07   1
  -4  -6  -4 1977.72  326.27  -2
   4   3   4 1977.72  326.27   1
   4   6   4 1693.48  253.74  -2
  -4  -3  -4 1693.48  253.74   1
  -4  -6  -4 1815.52  337.24  -2
   4   3   4 1815.52  337.24   1
  -4  -6  -4  866.15  291.35  -2
   4   3   4  866.15  291.35   1
  -4  -6  -4  476.84  169.52  -2
   4   3   4  476.84  169.52   1
   4   6   4 1065.47  205.83  -2
  -4  -3  -4 1065.47  205.83   1
   4   6   5 4842.85  511.71  -2
  -4  -3  -5 4842.85  511.71   1
  -4  -6  -5 4649.17  497.76  -2
   4   3   5 4649.17  497.76   1
  -4  -6  -5 4429.95  475.18  -2
   4   3   5 4429.95  475.18   1
  -4  -6  -5 4065.75  403.29  -2
   4   3   5 4065.75  403.29   1
   4   6   5 4338.48  413.65  -2
  -4  -3  -5 4338.48  413.65   1
  -4  -6  -5 5068.74  563.88  -2
   4   3   5 5068.74  563.88   1
   4   6   5 4735.04  570.02  -2
  -4  -3  -5 4735.04  570.02   1
   4   3   6 6035.91  642.82   1
   4   3   6 4904.50  472.49   1
  -4  -3  -6 5614.74  616.45   1
  -4  -3  -6 5938.96  543.90   1
   4   3   6 5765.55  560.08   1
   4   3   6 6195.13  563.76   1
   4   3   6 6263.46  534.20   1
   4   3   6 5523.58  415.42   1
   4   3   6 6789.25  691.55   1
  -4  -3  -6 5853.84  504.50   1
   4   3   6 6350.84  503.65   1
  -4  -3  -6 6095.72  642.11   1
   4   3   748043.90 1560.22   1
   4   3   745346.50 1884.51   1
   4   3   743731.60 1613.39   1
   4   3   744965.60 1147.36   1
  -4  -3  -746851.00 1507.81   1
   4   3   746360.10 1483.31   1
  -4  -3  -746819.10 1563.46   1
   4   3   747137.20 1407.73   1
  -4  -3  -747487.50 1880.55   1
   4   3   8  -48.24  136.95   1
  -4  -3  -8  -62.02  142.40   1
  -4  -3  -8  -80.64  128.52   1
   4   3   8   -4.97  126.35   1
  -4  -3  -8  -81.85  142.72   1
   4   3   8  -75.39   68.69   1
   4   3   8 -122.80  150.15   1
   4   3   8   15.12   85.61   1
   4   3   910584.00 1045.31   1
   4   3   9 9636.08  706.24   1
   4   3   9 8684.95  774.01   1
  -4  -3  -9 9697.77  724.54   1
   4   3   9 9041.48  436.59   1
  -4  -3  -9 9612.50  827.25   1
   4   3   9 9606.16  679.04   1
   4   3  10 2070.99  493.00   1
   4   3  10 1966.92  323.37   1
   4   3  10 2277.39  439.28   1
   4   3  10 2146.32  353.32   1
  -4  -3 -10 2204.02  439.74   1
   4   3  11  949.94  457.15   1
  -4  -3 -11 1026.09  349.17   1
   4   3  11  531.09  233.62   1
   4   3  12   69.74  188.99   1
  -4  -3 -12  346.06  265.66   1
   4   8 -10  324.71  270.61  -2
  -4  -4  10  324.71  270.61   1
   4   8 -10  232.29  183.87  -2
  -4  -4  10  232.29  183.87   1
  -4  -8  10  383.96  227.85  -2
   4   4 -10  383.96  227.85   1
   4   8  -9 -143.17  198.92  -2
  -4  -4   9 -143.17  198.92   1
   4   8  -9  259.00  276.19  -2
  -4  -4   9  259.00  276.19   1
  -4  -8   9  471.80  230.68  -2
   4   4  -9  471.80  230.68   1
  -4  -4   8  531.96  314.28   1
  -4  -4   8  684.92  225.84   1
   4   4  -8  684.29  300.53   1
  -4  -4   7  -79.56  133.32   1
  -4  -4   7  203.50  130.04   1
  -4  -4   7  -81.66  152.84   1
   4   4  -7  476.59  204.03   1
  -4  -4   7   37.75  113.85   1
  -4  -4   7 -123.97  134.83   1
  -4  -4   7    0.54   82.52   1
   4   4  -7  140.89  162.54   1
  -4  -4   6 1361.34  334.77   1
  -4  -4   6 1415.97  262.10   1
   4   4  -6 1138.18  227.45   1
  -4  -4   6 1010.98  176.50   1
  -4  -4   6 1051.15  251.85   1
   4   4  -6 1103.66  246.93   1
  -4  -4   6 1283.11  274.52   1
  -4  -4   6 1160.54  180.56   1
   4   4  -6 1075.56  303.75   1
  -4  -4   5 8277.73  529.83   1
   4   4  -5 7289.84  481.31   1
  -4  -4   5 8000.72  656.27   1
   4   4  -5 8314.70  635.26   1
  -4  -4   5 8600.41  659.11   1
  -4  -4   5 7344.96  343.15   1
  -4  -4   5 8558.09  682.87   1
  -4  -4   5 7292.15  361.03   1
  -4  -4   5 7533.07  509.98   1
  -4  -4   5 8368.95  732.80   1
  -4  -4   5 8854.82  629.95   1
   4   4  -5 7484.11  671.81   1
  -4  -4   427141.00  782.59   1
   4   4  -428626.70 1156.20   1
   4   4  -426163.50  756.28   1
  -4  -4   428337.10 1195.15   1
  -4  -4   428146.10  992.39   1
   4   4  -426780.60 1109.34   1
  -4  -4   427882.50 1170.87   1
  -4  -4   428392.70 1177.74   1
  -4  -4   426547.10 1203.85   1
  -4  -4   427918.30 1032.80   1
   4   4  -429029.30 1231.02   1
  -4  -4   429109.80 1258.20   1
  -4  -4   3  145.74  101.73   1
   4   4  -3   16.68   92.96   1
  -4  -4   3  248.99  144.92   1
  -4  -4   3    7.39  106.22   1
  -4  -4   3  107.61   79.87   1
   4   4  -3   58.17  117.79   1
  -4  -4   3  145.09  116.43   1
  -4  -4   3  -24.29   75.04   1
   4   4  -3   81.09   82.06   1
  -4  -4   3  251.15  120.02   1
  -4  -4   3   70.17   79.42   1
   4   4  -2 9873.08  651.75   1
  -4  -4   210812.40  718.54   1
  -4  -4   210174.60  633.19   1
  -4  -4   210675.70  624.33   1
   4   4  -210773.90  671.14   1
  -4  -4   211351.30  699.87   1
  -4  -4   211747.20  816.26   1
  -4  -4   211404.10  593.20   1
  -4  -4   211180.30  708.16   1
   4   4  -211199.20  723.35   1
  -4  -4   1   73.88   79.79   1
   4   4  -1   60.49   78.66   1
   4   4  -1  -21.35   86.62   1
  -4  -4   1  171.01  141.66   1
  -4  -4   1  -23.76  100.88   1
   4   4  -1  -29.27   76.95   1
  -4  -4   1  -53.93   98.74   1
  -4  -4   1  -22.52   96.31   1
  -4  -4   1  112.01   88.40   1
   4   4  -1  160.63   86.84   1
   4   4  -1  150.42  106.60   1
  -4  -4   1  -26.00   55.42   1
   4   4   027720.80 1097.29   1
  -4  -4   027378.40 1013.87   1
   4   4   028804.80 1075.60   1
   4   4   027276.90  627.87   1
  -4  -4   028014.70 1004.60   1
   4   4   026467.00  965.83   1
  -4  -4   027957.10 1145.42   1
   4   4   026927.40  909.32   1
  -4  -4   029243.10 1152.73   1
  -4  -4   027668.20  949.72   1
   4   4   026885.00 1031.35   1
   4   4   1 1561.10  166.14   1
  -4  -4  -1 1403.34  237.40   1
  -4  -4  -1 1496.55  151.64   1
   4   4   1 1753.42  304.36   1
   4   4   1 2122.62  316.54   1
  -4  -4  -1 1671.50  271.49   1
   4   4   1 1549.37  200.64   1
  -4  -4  -1   10.98   51.74   1
  -4  -4  -1 1542.11  241.64   1
  -4  -4  -1 1642.74  278.26   1
   4   4   1 1616.59  250.48   1
   4   4   1 1598.01  247.21   1
  -4  -7  -2 5357.57  453.64  -2
   4   4   2 5357.57  453.64   1
   4   7   2 5453.12  455.66  -2
  -4  -4  -2 5453.12  455.66   1
   4   7   3 3738.31  346.21  -2
  -4  -4  -3 3738.31  346.21   1
  -4  -7  -3 4520.66  404.75  -2
   4   4   3 4520.66  404.75   1
   4   7   3 4545.05  403.35  -2
  -4  -4  -3 4545.05  403.35   1
  -4  -7  -3 4344.71  459.93  -2
   4   4   3 4344.71  459.93   1
   4   7   3 3046.16  338.82  -2
  -4  -4  -3 3046.16  338.82   1
   4   7   3 4242.19  421.87  -2
  -4  -4  -3 4242.19  421.87   1
  -4  -7  -3 3607.63  386.65  -2
   4   4   3 3607.63  386.65   1
  -4  -7  -3 4782.59  434.55  -2
   4   4   3 4782.59  434.55   1
  -4  -7  -3 3841.56  401.76  -2
   4   4   3 3841.56  401.76   1
  -4  -7  -3 4036.55  396.24  -2
   4   4   3 4036.55  396.24   1
   4   7   3 4473.65  403.40  -2
  -4  -4  -3 4473.65  403.40   1
  -4  -7  -3 4071.92  428.96  -2
   4   4   3 4071.92  428.96   1
   4   7   3 4669.15  463.20  -2
  -4  -4  -3 4669.15  463.20   1
  -4  -7  -4 7160.17  576.14  -2
   4   4   4 7160.17  576.14   1
   4   7   4 7714.26  611.42  -2
  -4  -4  -4 7714.26  611.42   1
  -4  -7  -4 7291.77  623.42  -2
   4   4   4 7291.77  623.42   1
   4   7   4 7316.40  575.09  -2
  -4  -4  -4 7316.40  575.09   1
  -4  -7  -4 6235.43  529.67  -2
   4   4   4 6235.43  529.67   1
  -4  -7  -4 6748.34  520.08  -2
   4   4   4 6748.34  520.08   1
  -4  -7  -4 6880.81  610.20  -2
   4   4   4 6880.81  610.20   1
  -4  -7  -4 6473.71  472.05  -2
   4   4   4 6473.71  472.05   1
   4   7   4 6909.11  489.99  -2
  -4  -4  -4 6909.11  489.99   1
  -4  -7  -4 6315.03  576.98  -2
   4   4   4 6315.03  576.98   1
   4   7   4 7175.99  621.45  -2
  -4  -4  -4 7175.99  621.45   1
   4   7   4 7245.26  516.27  -2
  -4  -4  -4 7245.26  516.27   1
  -4  -7  -537335.60 1447.54  -2
   4   4   537335.60 1447.54   1
   4   7   535457.20 1424.60  -2
  -4  -4  -535457.20 1424.60   1
  -4  -7  -533482.10 1382.74  -2
   4   4   533482.10 1382.74   1
   4   7   537034.20 1313.65  -2
  -4  -4  -537034.20 1313.65   1
  -4  -7  -534442.80 1343.00  -2
   4   4   534442.80 1343.00   1
  -4  -7  -534239.70 1245.36  -2
   4   4   534239.70 1245.36   1
  -4  -7  -534793.90 1159.64  -2
   4   4   534793.90 1159.64   1
  -4  -7  -534451.60 1461.87  -2
   4   4   534451.60 1461.87   1
  -4  -7  -533854.50 1046.80  -2
   4   4   533854.50 1046.80   1
  -4  -7  -533766.10 1422.30  -2
   4   4   533766.10 1422.30   1
   4   7   534286.00 1193.74  -2
  -4  -4  -534286.00 1193.74   1
   4   7   535472.70 1452.53  -2
  -4  -4  -535472.70 1452.53   1
   4   4   6 -103.96  148.34   1
  -4  -4  -6 -127.58  168.71   1
  -4  -4  -6   34.38  136.86   1
  -4  -4  -6   21.38  109.73   1
   4   4   6   10.64  100.20   1
   4   4   6   -2.05   88.40   1
   4   4   6   34.02   82.93   1
  -4  -4  -6   34.86   95.79   1
   4   4   6  -55.14  138.69   1
   4   4   6  -23.83   67.43   1
   4   4   7 3987.25  521.43   1
   4   4   7 4489.12  597.15   1
   4   4   7 3917.90  449.13   1
  -4  -4  -7 4989.85  512.04   1
   4   4   7 4715.70  422.40   1
  -4  -4  -7 4903.84  531.39   1
   4   4   7 4341.92  376.21   1
  -4  -4  -7 4381.30  584.28   1
   4   4   8 4943.10  678.79   1
   4   4   8 3890.40  385.41   1
  -4  -4  -8 4022.06  529.48   1
   4   4   8 3577.08  342.68   1
  -4  -4  -8 3284.26  419.54   1
  -4  -4  -9 2713.20  451.47   1
   4   4   9 2507.77  523.43   1
   4   4   9 2201.09  279.42   1
   4   4   9 2697.06  308.19   1
   4   4  10 -102.93  184.19   1
  -4  -4 -10  -69.66  167.27   1
   4   4  11  108.31  192.07   1
   4   4  11  -25.14  167.95   1
  -4  -4 -11  523.34  275.67   1
   4   9 -10  560.65  358.36  -2
  -4  -5  10  560.65  358.36   1
  -4  -9  10  229.07  247.50  -2
   4   5 -10  229.07  247.50   1
   4   9  -9 -204.65  256.46  -2
  -4  -5   9 -204.65  256.46   1
   4   9  -9  597.96  268.55  -2
  -4  -5   9  597.96  268.55   1
  -4  -9   9  199.03  205.92  -2
   4   5  -9  199.03  205.92   1
  -4  -5   8  -19.20  187.74   1
  -4  -5   8   79.82  108.68   1
   4   5  -8  135.77  138.74   1
  -4  -5   7 3030.11  519.92   1
  -4  -5   7 2722.31  383.72   1
  -4  -5   7 3015.89  378.10   1
   4   5  -7 2726.47  418.40   1
  -4  -5   7 2509.44  398.89   1
   4   5  -7 3529.44  518.27   1
  -4  -5   6 2072.16  414.96   1
  -4  -5   6 1910.90  385.12   1
   4   5  -6 1658.35  250.47   1
  -4  -5   6 1832.64  285.73   1
   4   5  -6 1444.13  280.86   1
  -4  -5   6 1286.40  132.62   1
  -4  -5   6 1651.40  286.43   1
   4   5  -6 1714.20  353.78   1
   4   5  -5 3128.58  296.49   1
  -4  -5   5 2944.98  357.99   1
   4   5  -5 3617.93  436.85   1
  -4  -5   5 4209.38  497.06   1
  -4  -5   5 3566.17  503.67   1
  -4  -5   5 3894.75  380.35   1
  -4  -5   5 3744.45  466.91   1
   4   5  -5 4296.18  525.12   1
  -4  -5   4 8223.16  663.06   1
   4   5  -4 7923.89  375.86   1
   4   5  -4 8430.35  628.89   1
  -4  -5   4 7323.85  570.78   1
  -4  -5   4 9001.53  708.92   1
   4   5  -4 8283.45  651.73   1
  -4  -5   4 8009.16  676.32   1
  -4  -5   4 8190.40  721.66   1
  -4  -5   4 7731.31  495.48   1
   4   5  -4 8764.73  727.30   1
   4   5  -3  171.67  111.71   1
   4   5  -3  254.25  134.55   1
  -4  -5   3  253.26  148.61   1
  -4  -5   3  332.06  147.04   1
   4   5  -3  238.91  137.08   1
  -4  -5   3  581.72  193.79   1
  -4  -5   3  444.50  204.73   1
  -4  -5   3  327.17  165.46   1
   4   5  -3  497.62  194.82   1
  -4  -5   3  817.29  231.62   1
  -4  -5   3  296.68  109.34   1
   4   5  -218752.80  931.65   1
  -4  -5   218866.70  960.15   1
  -4  -5   219125.20  913.40   1
  -4  -5   218772.30  977.27   1
  -4  -5   219411.70  982.09   1
  -4  -5   218594.70  978.70   1
   4   5  -219253.50  955.52   1
   4   5  -219105.60  986.07   1
  -4  -5   218740.00 1063.39   1
  -4  -5   218113.50  693.56   1
   4   5  -218698.70  974.58   1
  -4  -5   220533.50 1020.97   1
   4   5  -138017.30 1330.20   1
  -4  -5   141098.10 1449.70   1
  -4  -5   141358.70 1331.87   1
   4   5  -139231.60 1360.11   1
  -4  -5   140379.30 1383.06   1
  -4  -5   142704.10 1446.91   1
   4   5  -141714.40 1041.34   1
  -4  -5   141001.00 1489.41   1
  -4  -5   140666.20 1063.55   1
   4   5  -142358.40 1404.58   1
  -4  -5   143652.70 1414.36   1
   4   5   022389.20 1040.82   1
  -4  -5   022953.30 1041.86   1
   4   5   022452.90 1036.79   1
   4   5   021831.70  573.39   1
  -4  -5   022497.60  986.28   1
  -4  -5   023102.00 1061.84   1
   4   5   022466.50  805.94   1
  -4  -5   021584.70  802.92   1
   4   5   023769.80 1008.44   1
  -4  -5   020005.10  925.57   1
   4   5   125253.70  681.54   1
   4   5   127181.60 1175.28   1
  -4  -5  -126630.20 1080.43   1
  -4  -5  -124813.80 1056.18   1
   4   5   128446.20 1154.36   1
  -4  -5  -1 6333.63  541.12   1
   4   5   124101.40  803.98   1
  -4  -5  -125701.20 1069.46   1
   4   5   125607.00  937.18   1
  -4  -5  -126141.40  941.40   1
  -4  -8  -2 2222.89  263.76  -2
   4   5   2 2222.89  263.76   1
   4   8   2 1793.44  292.74  -2
  -4  -5  -2 1793.44  292.74   1
   4   8   2 1194.22  241.68  -2
  -4  -5  -2 1194.22  241.68   1
  -4  -8  -2 2025.45  280.04  -2
   4   5   2 2025.45  280.04   1
  -4  -8  -2 2086.19  318.58  -2
   4   5   2 2086.19  318.58   1
   4   8   2 2046.65  317.67  -2
  -4  -5  -2 2046.65  317.67   1
   4   8   2  696.61  196.44  -2
  -4  -5  -2  696.61  196.44   1
  -4  -8  -2 2068.14  314.32  -2
   4   5   2 2068.14  314.32   1
  -4  -8  -2 1699.59  319.85  -2
   4   5   2 1699.59  319.85   1
  -4  -8  -2    5.29   75.69  -2
   4   5   2    5.29   75.69   1
  -4  -8  -3 3428.33  357.58  -2
   4   5   3 3428.33  357.58   1
   4   8   3 3649.83  382.22  -2
  -4  -5  -3 3649.83  382.22   1
  -4  -8  -3 2652.55  399.32  -2
   4   5   3 2652.55  399.32   1
   4   8   3 1864.40  285.62  -2
  -4  -5  -3 1864.40  285.62   1
   4   8   3 1341.90  252.48  -2
  -4  -5  -3 1341.90  252.48   1
  -4  -8  -3 2856.27  359.22  -2
   4   5   3 2856.27  359.22   1
   4   8   3 2960.69  331.29  -2
  -4  -5  -3 2960.69  331.29   1
  -4  -8  -3 2915.22  366.92  -2
   4   5   3 2915.22  366.92   1
  -4  -8  -3  844.57  221.18  -2
   4   5   3  844.57  221.18   1
   4   8   3 2863.43  365.03  -2
  -4  -5  -3 2863.43  365.03   1
   4   8   3 1812.25  270.14  -2
  -4  -5  -3 1812.25  270.14   1
  -4  -8  -4 5157.10  519.53  -2
   4   5   4 5157.10  519.53   1
   4   8   4 5419.84  536.53  -2
  -4  -5  -4 5419.84  536.53   1
  -4  -8  -4 3887.40  487.77  -2
   4   5   4 3887.40  487.77   1
   4   8   4 3788.16  439.70  -2
  -4  -5  -4 3788.16  439.70   1
  -4  -8  -4 4666.98  474.82  -2
   4   5   4 4666.98  474.82   1
  -4  -8  -4 4761.74  531.82  -2
   4   5   4 4761.74  531.82   1
   4   8   4 5530.52  425.55  -2
  -4  -5  -4 5530.52  425.55   1
  -4  -8  -4 5139.31  550.50  -2
   4   5   4 5139.31  550.50   1
   4   8   4 5350.94  556.69  -2
  -4  -5  -4 5350.94  556.69   1
   4   8   4 3782.91  406.19  -2
  -4  -5  -4 3782.91  406.19   1
  -4  -8  -5 3793.55  528.83  -2
   4   5   5 3793.55  528.83   1
  -4  -8  -5 3624.12  498.56  -2
   4   5   5 3624.12  498.56   1
  -4  -8  -5 4065.48  528.15  -2
   4   5   5 4065.48  528.15   1
   4   8   5 2959.37  327.72  -2
  -4  -5  -5 2959.37  327.72   1
   4   5   6 3800.13  521.81   1
  -4  -5  -6 3974.39  560.06   1
  -4  -5  -6 3147.07  483.13   1
   4   5   6 3750.63  533.36   1
  -4  -5  -6 4349.00  492.85   1
   4   5   6 3395.39  402.10   1
  -4  -5  -6 3583.11  449.47   1
  -4  -5  -6 3326.63  330.14   1
   4   5   749619.30 2020.55   1
   4   5   747488.00 1476.67   1
  -4  -5  -749430.00 1741.99   1
  -4  -5  -744595.40 1224.47   1
   4   5   810843.60 1017.57   1
   4   5   810627.00  707.55   1
  -4  -5  -810364.70  860.35   1
  -4  -5  -8 9216.20  556.41   1
   4   5   9 2498.29  528.61   1
  -4  -5  -9 2234.88  419.18   1
   4   5   9 2498.71  345.37   1
  -4  -5 -10 -219.47  198.95   1
   4   5  10  140.07  239.03   1
  -4  -5 -11  270.68  251.07   1
   4   5  11   70.97  240.46   1
   4  10  -9   70.40  158.49  -2
  -4  -6   9   70.40  158.49   1
  -4 -10   9  -76.87  154.92  -2
   4   6  -9  -76.87  154.92   1
  -4  -6   8  931.60  350.45   1
   4   6  -8  634.37  217.75   1
   4   6  -8  859.45  300.19   1
  -4  -6   7  149.90  247.82   1
   4   6  -7   72.99  116.29   1
  -4  -6   7  127.46  107.54   1
   4   6  -7  144.74  184.92   1
  -4  -6   6  264.53  168.09   1
   4   6  -6  176.34   84.81   1
   4   6  -6  350.18  168.71   1
  -4  -6   6  215.96  160.05   1
  -4  -6   6  163.19  101.12   1
   4   6  -6   56.26  137.52   1
   4   6  -5  509.89  184.16   1
  -4  -6   5  428.55  163.99   1
   4   6  -5  446.87  117.16   1
   4   6  -5  324.96  159.49   1
   4   6  -5  662.35  225.44   1
  -4  -6   5  604.13  145.88   1
  -4  -6   5  604.06  230.35   1
  -4  -6   4  293.58   92.39   1
   4   6  -4  384.52   92.37   1
   4   6  -4  411.21  160.75   1
   4   6  -4  340.14  172.95   1
   4   6  -4  543.89  209.99   1
  -4  -6   4  631.45  234.90   1
  -4  -6   4  466.96  182.72   1
  -4  -6   3  120.24   72.08   1
   4   6  -3  -77.54   93.08   1
   4   6  -3   54.60   36.54   1
  -4  -6   3   11.05  101.83   1
   4   6  -3  192.67  175.30   1
  -4  -6   3  -25.82  117.85   1
  -4  -6   3  164.39  113.89   1
   4   6  -3  154.59   98.08   1
   4   6  -2 2903.81  394.70   1
  -4  -6   2 4080.94  461.72   1
   4   6  -2 3969.86  463.73   1
  -4  -6   2 3254.77  455.17   1
   4   6  -2 3362.79  450.57   1
  -4  -6   2 3135.99  466.05   1
  -4  -6   2 3443.55  256.83   1
   4   6  -2 4124.15  484.42   1
   4   6  -1 4141.42  467.66   1
  -4  -6   1 5017.69  506.29   1
  -4  -6   1 4212.04  500.13   1
   4   6  -1 4992.21  524.84   1
   4   6  -1 4612.45  512.91   1
  -4  -6   1 4826.87  531.33   1
  -4  -6   1 4229.31  306.15   1
   4   6  -1 4546.82  487.80   1
  -4  -6   1 5295.00  528.46   1
   4   6   0 5535.32  286.81   1
   4   6   0 5866.77  577.98   1
  -4  -6   0 6305.75  566.70   1
  -4  -6   0 5716.88  578.86   1
   4   6   0 7006.72  619.04   1
   4   6   0 5579.44  572.20   1
  -4  -6   0 5842.09  554.67   1
   4   6   0 5433.16  385.35   1
   4   6   0 5531.65  523.76   1
  -4  -6   0 5327.98  388.55   1
  -4  -6   0 6571.11  568.74   1
  -4  -6  -1 3367.20  426.69   1
  -4  -6  -1 3544.04  456.49   1
   4   6   1 3170.71  431.75   1
  -4  -6  -1 4556.11  492.21   1
  -4  -6  -1 4299.09  400.80   1
  -4  -6  -1 3931.07  446.41   1
  -4  -9  -231938.60 1019.37  -2
   4   6   231938.60 1019.37   1
  -4  -9  -231316.40 1371.57  -2
   4   6   231316.40 1371.57   1
  -4  -9  -231135.10 1270.45  -2
   4   6   231135.10 1270.45   1
  -4  -9  -226897.30 1261.84  -2
   4   6   226897.30 1261.84   1
   4   9   230455.10 1144.69  -2
  -4  -6  -230455.10 1144.69   1
  -4  -9  -231145.00 1146.29  -2
   4   6   231145.00 1146.29   1
   4   9   232943.80 1165.12  -2
  -4  -6  -232943.80 1165.12   1
  -4  -9  -315433.30  801.95  -2
   4   6   315433.30  801.95   1
   4   9   314293.80  839.00  -2
  -4  -6  -314293.80  839.00   1
  -4  -9  -315502.20  997.32  -2
   4   6   315502.20  997.32   1
  -4  -9  -314059.10  933.41  -2
   4   6   314059.10  933.41   1
  -4  -9  -315320.60  892.01  -2
   4   6   315320.60  892.01   1
   4   9   315212.30  761.99  -2
  -4  -6  -315212.30  761.99   1
   4   9   314801.20  924.72  -2
  -4  -6  -314801.20  924.72   1
  -4  -9  -315038.80  861.17  -2
   4   6   315038.80  861.17   1
   4   9   314683.90  840.58  -2
  -4  -6  -314683.90  840.58   1
  -4  -9  -4 2736.51  397.05  -2
   4   6   4 2736.51  397.05   1
   4   9   4 2560.25  393.06  -2
  -4  -6  -4 2560.25  393.06   1
  -4  -9  -4 2761.62  451.75  -2
   4   6   4 2761.62  451.75   1
  -4  -9  -4 2522.35  387.30  -2
   4   6   4 2522.35  387.30   1
   4   9   4 1996.70  334.13  -2
  -4  -6  -4 1996.70  334.13   1
   4   9   4 2679.08  300.54  -2
  -4  -6  -4 2679.08  300.54   1
  -4  -9  -4 2896.02  425.76  -2
   4   6   4 2896.02  425.76   1
  -4  -9  -512169.60  877.54  -2
   4   6   512169.60  877.54   1
   4   9   511457.90  900.47  -2
  -4  -6  -511457.90  900.47   1
  -4  -9  -510462.10  895.96  -2
   4   6   510462.10  895.96   1
  -4  -9  -510763.40  767.98  -2
   4   6   510763.40  767.98   1
   4   9   5 9362.29  560.25  -2
  -4  -6  -5 9362.29  560.25   1
   4   9   511083.00  805.37  -2
  -4  -6  -511083.00  805.37   1
   4   6   6 9556.13  838.98   1
   4   6   6 8322.19  678.45   1
  -4  -6  -6 9255.38  767.10   1
  -4  -6  -6 7362.43  476.76   1
   4   6   7 3467.33  448.77   1
   4   6   7 2954.10  502.86   1
  -4  -6  -7 3416.35  509.36   1
   4   6   8 1734.87  324.64   1
  -4  -6  -8 2129.96  443.14   1
   4   6   8 1686.45  456.23   1
   4   6   9  -52.62  193.00   1
  -4  -6  -9  241.11  212.70   1
   4   6   9  174.73  140.27   1
   4   6  10  647.98  309.26   1
  -4  -6 -10  657.46  270.71   1
  -4  -7   8 -230.16  258.49   1
   4   7  -8   90.39  126.79   1
   4   7  -8  256.60  254.37   1
   4   7  -7  120.93  124.72   1
   4   7  -7  182.41  194.37   1
  -4  -7   7   -4.61  145.54   1
   4   7  -6  153.31  155.02   1
   4   7  -6   78.84  137.36   1
  -4  -7   6  394.98  260.41   1
   4   7  -5  864.70  261.31   1
   4   7  -5 1171.28  297.57   1
   4   7  -5 1169.42  335.33   1
  -4  -7   5 1209.61  377.69   1
   4   7  -4  550.69  194.15   1
   4   7  -4  622.16  129.88   1
   4   7  -4  427.90  178.92   1
  -4  -7   4  507.27  232.17   1
   4   7  -4  433.18  180.11   1
   4   7  -3  154.37   54.16   1
   4   7  -3  104.17  105.07   1
   4   7  -3  443.61  201.93   1
  -4  -7   3   -4.88  130.95   1
   4   7  -3  182.93  120.89   1
   4   7  -2 1683.16  167.02   1
   4   7  -2 1553.07  158.61   1
   4   7  -2 2081.77  368.36   1
  -4  -7   2 2558.18  445.56   1
   4   7  -2 1928.59  356.91   1
   4   7  -2 2012.55  348.73   1
   4   7  -1 6411.86  345.55   1
   4   7  -1 7239.86  663.54   1
  -4  -7   1 7400.51  725.44   1
   4   7  -1 7560.20  677.26   1
   4   7  -1 5852.38  283.89   1
   4   7  -1 7048.93  649.83   1
   4   7   0 4922.40  353.55   1
   4   7   0 5392.23  587.62   1
  -4  -7   0 5075.57  597.48   1
   4   7   0 5757.14  594.47   1
   4   7   0 5131.09  365.97   1
  -4  -7   0 5191.56  551.83   1
   4   7   0 4709.87  341.07   1
   4   7   0 4997.33  528.33   1
  -4  -7   0 5373.60  569.47   1
   4   7   1 1259.86  230.57   1
   4   7   1 3117.93  481.96   1
   4   7   1 3067.86  464.02   1
  -4  -7  -1  561.76  241.43   1
  -4  -7  -1 1409.31  301.30   1
   4   7   1 1612.88  319.37   1
  -4  -7  -1  369.81  185.81   1
  -4 -10  -221371.70  923.46  -2
   4   7   221371.70  923.46   1
  -4 -10  -218033.20 1042.27  -2
   4   7   218033.20 1042.27   1
  -4 -10  -218543.90  914.77  -2
   4   7   218543.90  914.77   1
  -4 -10  -3 4744.87  475.25  -2
   4   7   3 4744.87  475.25   1
  -4 -10  -3 4504.74  579.10  -2
   4   7   3 4504.74  579.10   1
  -4 -10  -3 2914.89  427.59  -2
   4   7   3 2914.89  427.59   1
   4  10   3 1765.17  339.30  -2
  -4  -7  -3 1765.17  339.30   1
   4  10   3 4736.54  437.33  -2
  -4  -7  -3 4736.54  437.33   1
   4  10   3 2375.31  368.01  -2
  -4  -7  -3 2375.31  368.01   1
  -4 -10  -3 4132.02  465.14  -2
   4   7   3 4132.02  465.14   1
   4  10   3  -39.95   78.11  -2
  -4  -7  -3  -39.95   78.11   1
  -4 -10  -4  133.01  130.85  -2
   4   7   4  133.01  130.85   1
  -4 -10  -4  133.11  174.77  -2
   4   7   4  133.11  174.77   1
  -4 -10  -4    6.47   93.73  -2
   4   7   4    6.47   93.73   1
  -4 -10  -4  190.85  132.61  -2
   4   7   4  190.85  132.61   1
   4  10   4   57.53  104.57  -2
  -4  -7  -4   57.53  104.57   1
   4  10   4  151.58   98.05  -2
  -4  -7  -4  151.58   98.05   1
   4  10   4  202.95  149.51  -2
  -4  -7  -4  202.95  149.51   1
   4  10   5  920.22  266.84  -2
  -4  -7  -5  920.22  266.84   1
  -4 -10  -5  778.45  263.61  -2
   4   7   5  778.45  263.61   1
  -4 -10  -5  897.23  256.71  -2
   4   7   5  897.23  256.71   1
   4  10   5  804.85  169.60  -2
  -4  -7  -5  804.85  169.60   1
   4   7   6 1153.12  314.73   1
  -4  -7  -6  943.87  301.20   1
   4   7   6 1071.29  286.14   1
   4   7   7 9063.14  913.19   1
   4   7   7 8162.33  737.38   1
  -4  -7  -7 9115.32  855.46   1
   4   7   8 1059.42  373.13   1
   4   7   8 1036.74  277.99   1
  -4  -7  -8  949.04  304.16   1
   4   7   9  362.25  318.98   1
  -4  -7  -9  285.15  258.34   1
   4   7   9  144.73  195.30   1
   4   8  -8  102.95  162.75   1
   4   8  -7  295.77  238.72   1
  -4  -8   7  -40.23  176.57   1
   4   8  -6  177.02  202.93   1
  -4  -8   6  200.56  198.90   1
   4   8  -6    9.78  184.01   1
   4   8  -5    5.21   97.02   1
   4   8  -5  622.51  268.22   1
  -4  -8   5  583.32  282.02   1
   4   8  -5   62.56  137.18   1
   4   8  -4  299.79  174.96   1
   4   8  -4  339.78  177.79   1
  -4  -8   4  436.71  249.11   1
   4   8  -4  575.41  238.88   1
   4   8  -3 7043.80  438.03   1
   4   8  -3 8109.49  709.01   1
  -4  -8   3 8762.28  898.52   1
   4   8  -3 8656.64  790.28   1
   4   8  -3 8833.98  810.18   1
   4   8  -2   -7.14   65.79   1
   4   8  -2  292.47  168.06   1
   4   8  -2   32.43   86.26   1
   4   8  -2  187.74  145.98   1
  -4  -8   2  232.01  192.01   1
   4   8  -2   20.01  130.28   1
   4   8  -1  745.65  154.16   1
   4   8  -1  822.01  257.46   1
   4   8  -1  517.24  119.17   1
   4   8  -1 1233.20  301.23   1
  -4  -8   1 1349.54  353.43   1
   4   8  -1  685.05  219.01   1
   4   8   0  645.08  251.15   1
   4   8   0 1033.70  209.79   1
   4   8   0  818.17  178.92   1
   4   8   0 1032.96  288.80   1
  -4  -8   0 1211.87  328.35   1
   4   8   0 1238.67  294.30   1
   4   8   0  845.79  124.10   1
   4   8   1  277.20  123.09   1
   4   8   1  115.50  169.75   1
   4   8   1   23.32   73.04   1
   4   8   1  423.69  205.52   1
  -4  -8  -1  105.05  174.57   1
  -4  -8  -1  -53.17   88.99   1
   4   8   1   34.40  120.66   1
  -4 -11  -212583.20  779.62  -2
   4   8   212583.20  779.62   1
  -4 -11  -211520.00  959.63  -2
   4   8   211520.00  959.63   1
   4  11   211597.00  955.92  -2
  -4  -8  -211597.00  955.92   1
  -4 -11  -213681.40  991.09  -2
   4   8   213681.40  991.09   1
   4  11   213233.90  816.38  -2
  -4  -8  -213233.90  816.38   1
  -4 -11  -213926.10  798.61  -2
   4   8   213926.10  798.61   1
   4  11   212545.00  821.12  -2
  -4  -8  -212545.00  821.12   1
  -4 -11  -3 2870.19  494.03  -2
   4   8   3 2870.19  494.03   1
  -4 -11  -3 2519.09  378.60  -2
   4   8   3 2519.09  378.60   1
  -4 -11  -3 3588.51  515.59  -2
   4   8   3 3588.51  515.59   1
   4  11   3 3094.93  500.84  -2
  -4  -8  -3 3094.93  500.84   1
   4  11   3 3128.32  373.11  -2
  -4  -8  -3 3128.32  373.11   1
   4  11   3 3422.39  480.67  -2
  -4  -8  -3 3422.39  480.67   1
  -4 -11  -3 3187.70  438.06  -2
   4   8   3 3187.70  438.06   1
   4  11   3 2289.97  343.21  -2
  -4  -8  -3 2289.97  343.21   1
  -4 -11  -4 1692.27  343.41  -2
   4   8   4 1692.27  343.41   1
   4  11   4 1177.67  306.21  -2
  -4  -8  -4 1177.67  306.21   1
  -4 -11  -4 1545.79  389.43  -2
   4   8   4 1545.79  389.43   1
  -4 -11  -4 2020.16  402.53  -2
   4   8   4 2020.16  402.53   1
  -4 -11  -4 1566.73  349.46  -2
   4   8   4 1566.73  349.46   1
   4  11   4 1001.77  327.73  -2
  -4  -8  -4 1001.77  327.73   1
   4  11   5 1689.44  383.91  -2
  -4  -8  -5 1689.44  383.91   1
  -4 -11  -5 1792.75  383.67  -2
   4   8   5 1792.75  383.67   1
  -4 -11  -5 2071.61  410.34  -2
   4   8   5 2071.61  410.34   1
   4   8   6 1919.05  434.70   1
   4   8   6 1930.46  391.19   1
  -4  -8  -6 1675.36  366.17   1
  -4  -8  -7 1096.96  343.73   1
   4   8   7  659.29  287.39   1
   4   8   7  994.12  275.59   1
   4   8   8  193.38  254.84   1
   4   8   8  505.96  254.62   1
  -4  -8  -8  580.72  257.43   1
   4   9  -6  313.89  198.55   1
  -4  -9   6  554.32  319.12   1
   4   9  -6  428.45  293.80   1
   4   9  -5  500.08  206.77   1
   4   9  -5  657.03  268.90   1
  -4  -9   5  364.86  227.36   1
   4   9  -5  597.88  327.25   1
   4   9  -4  -58.16  188.73   1
   4   9  -4  133.51  192.69   1
  -4  -9   4 -242.68  227.01   1
   4   9  -4  332.25  220.44   1
   4   9  -3  758.59  263.00   1
   4   9  -3  615.36  267.52   1
  -4  -9   3  547.85  259.28   1
   4   9  -3  480.76  279.73   1
   4   9  -2  143.31  137.02   1
   4   9  -2  143.20   93.84   1
  -4  -9   2  141.26  202.79   1
   4   9  -2  388.61  233.13   1
   4   9  -2  -23.52  122.83   1
   4   9  -1 1422.82  365.50   1
   4   9  -1 1122.77  192.90   1
   4   9  -1  974.84  299.58   1
   4   9  -1  891.59  186.55   1
  -4  -9   1 1233.72  368.17   1
   4   9  -1 1041.79  302.27   1
   4   9   0 8532.28  625.26   1
   4   9   0 9271.73  876.62   1
  -4  -9   0 7433.34  833.74   1
   4   9   0 8224.72  816.79   1
   4   9   0 8195.36  750.96   1
   4   9   1 4789.20  502.33   1
   4   9   1 5002.69  672.14   1
   4   9   1 5158.81  647.25   1
   4   9   1 4606.25  476.22   1
  -4  -9  -1 4966.05  672.97   1
   4   9   1 4753.54  548.87   1
  -4 -12  -2 8633.43  726.37  -2
   4   9   2 8633.43  726.37   1
   4  12   2 5626.41  732.51  -2
  -4  -9  -2 5626.41  732.51   1
  -4 -12  -2 7035.15  818.48  -2
   4   9   2 7035.15  818.48   1
  -4 -12  -2 8061.71  824.95  -2
   4   9   2 8061.71  824.95   1
  -4 -12  -2 6952.80  646.91  -2
   4   9   2 6952.80  646.91   1
  -4 -12  -2 6782.00  618.60  -2
   4   9   2 6782.00  618.60   1
  -4 -12  -3 5243.49  606.26  -2
   4   9   3 5243.49  606.26   1
   4  12   3 5572.56  675.74  -2
  -4  -9  -3 5572.56  675.74   1
  -4 -12  -3 4645.26  679.85  -2
   4   9   3 4645.26  679.85   1
   4  12   3 4866.05  671.06  -2
  -4  -9  -3 4866.05  671.06   1
  -4 -12  -3 4877.83  653.00  -2
   4   9   3 4877.83  653.00   1
   4  12   4 2122.25  448.38  -2
  -4  -9  -4 2122.25  448.38   1
  -4 -12  -4 1914.51  469.72  -2
   4   9   4 1914.51  469.72   1
  -4 -12  -4 2525.45  451.81  -2
   4   9   4 2525.45  451.81   1
  -4 -12  -4 2166.22  437.80  -2
   4   9   4 2166.22  437.80   1
   4  12   4 1797.97  436.68  -2
  -4  -9  -4 1797.97  436.68   1
  -4 -12  -5  404.41  230.54  -2
   4   9   5  404.41  230.54   1
   4  12   5  233.61  226.82  -2
  -4  -9  -5  233.61  226.82   1
  -4 -12  -5  -12.79  213.02  -2
   4   9   5  -12.79  213.02   1
  -4 -12  -5  169.01  254.80  -2
   4   9   5  169.01  254.80   1
   4   9   6  655.56  275.93   1
   4   9   6  588.71  259.79   1
  -4  -9  -6  684.97  299.60   1
   4   9   7 1025.30  410.03   1
  -4  -9  -7 1176.56  376.58   1
   4   9   7 1026.12  314.46   1
   4  10  -5  166.82  296.56   1
   4  10  -5  261.65  264.11   1
   4  10  -4  600.46  266.26   1
  -4 -10   4  526.51  317.94   1
   4  10  -4  189.55  194.87   1
   4  10  -3  119.80  132.99   1
   4  10  -3  104.04  152.88   1
  -4 -10   3  434.10  288.84   1
   4  10  -3   19.84  185.67   1
   4  10  -2  277.33  234.87   1
   4  10  -2   -3.15  153.12   1
  -4 -10   2  152.78  177.10   1
   4  10  -2  435.27  273.70   1
   4  10  -1  186.19  188.73   1
   4  10  -1   25.05  180.84   1
  -4 -10   1 -165.19  216.05   1
   4  10  -1   -4.61  156.38   1
   4  10   0 5280.86  706.22   1
   4  10   0 5767.19  720.59   1
  -4 -10   0 4662.96  704.87   1
   4  10   0 4866.56  614.03   1
   4  10   1  259.97  157.34   1
   4  10   1  122.87  108.76   1
   4  10   1  528.90  318.01   1
  -4 -10  -1  130.53  217.99   1
   4  10   1  166.14  180.94   1
   4  10   1  425.24  218.64   1
  -4 -13  -2 1928.48  534.19  -2
   4  10   2 1928.48  534.19   1
  -4 -13  -2 1939.50  359.98  -2
   4  10   2 1939.50  359.98   1
  -4 -13  -2 1087.37  285.18  -2
   4  10   2 1087.37  285.18   1
  -4 -13  -2 2091.99  498.84  -2
   4  10   2 2091.99  498.84   1
   4  13   2  534.97  295.07  -2
  -4 -10  -2  534.97  295.07   1
  -4 -13  -2  907.56  246.97  -2
   4  10   2  907.56  246.97   1
   4  13   3 2026.03  438.88  -2
  -4 -10  -3 2026.03  438.88   1
  -4 -13  -3 2154.92  525.58  -2
   4  10   3 2154.92  525.58   1
  -4 -13  -3 1525.98  375.93  -2
   4  10   3 1525.98  375.93   1
  -4 -13  -3 1228.03  349.56  -2
   4  10   3 1228.03  349.56   1
  -4 -13  -3 1875.36  420.64  -2
   4  10   3 1875.36  420.64   1
   4  13   3 1649.91  445.31  -2
  -4 -10  -3 1649.91  445.31   1
   4  13   412150.70 1081.67  -2
  -4 -10  -412150.70 1081.67   1
  -4 -13  -411715.20 1009.87  -2
   4  10   411715.20 1009.87   1
   4  13   410486.10 1079.44  -2
  -4 -10  -410486.10 1079.44   1
  -4 -13  -4 9964.44  949.12  -2
   4  10   4 9964.44  949.12   1
  -4 -13  -411556.60 1077.17  -2
   4  10   411556.60 1077.17   1
  -4 -13  -5 5881.04  790.66  -2
   4  10   5 5881.04  790.66   1
  -4 -13  -5 7255.11  961.98  -2
   4  10   5 7255.11  961.98   1
   4  13   5 5435.28  740.96  -2
  -4 -10  -5 5435.28  740.96   1
   4  11  -2  157.43  241.64   1
   4  11  -2 -317.06  222.18   1
   4  11  -1  311.44  276.88   1
   4  11  -1  232.36  276.67   1
   4  11  -1 -138.95  180.43   1
   4  11   0  197.53  283.35   1
   4  11   0   49.86  154.30   1
   4  11   1  377.52  290.26   1
   4  11   1  338.70  230.41   1
  -4 -14  -2 2137.45  540.28  -2
   4  11   2 2137.45  540.28   1
  -5   3   0 1507.90  338.10  -2
   5  -7   0 1507.90  338.10   1
  -5   3   0 1532.82  401.70  -2
   5  -7   0 1532.82  401.70   1
  -5   3   0 2454.76  561.44  -2
   5  -7   0 2454.76  561.44   1
   5  -3   0 1197.98  405.78  -2
  -5   7   0 1197.98  405.78   1
   5  -3   1 1414.38  375.79  -2
  -5   7  -1 1414.38  375.79   1
  -5   3  -1 1542.90  375.65  -2
   5  -7   1 1542.90  375.65   1
   5  -3   1 1163.28  427.30  -2
  -5   7  -1 1163.28  427.30   1
  -5   3  -1  730.93  307.83  -2
   5  -7   1  730.93  307.83   1
  -5   3  -1 1337.98  311.53  -2
   5  -7   1 1337.98  311.53   1
   5  -3   2  130.07  179.78  -2
  -5   7  -2  130.07  179.78   1
  -5   3  -2  329.71  276.71  -2
   5  -7   2  329.71  276.71   1
   5  -3   2  938.65  417.73  -2
  -5   7  -2  938.65  417.73   1
  -5   3  -2  500.67  315.40  -2
   5  -7   2  500.67  315.40   1
  -5   7  -3 5330.69  721.65   1
   5  -7   3 3516.49  677.68   1
   5  -6  -4  148.35  160.92   1
  -5   6   4  248.53  252.97   1
  -5   6   3  475.18  305.26   1
   5  -6  -3  318.68  208.54   1
  -5   6   3  217.12  269.12   1
   5  -6  -3  580.57  266.73   1
   5  -6  -3  275.68  143.41   1
  -5   6   3   87.73  225.25   1
   5  -6  -2 5399.60  643.32   1
  -5   6   2 6037.41  888.75   1
  -5   6   2 5547.33  791.98   1
   5  -6  -2 5983.81  742.77   1
   5  -6  -2 5232.58  614.03   1
  -5   2   1 2009.39  417.90  -2
   5  -6  -1 2009.39  417.90   1
   5  -2  -1 1894.74  492.26  -2
  -5   6   1 1894.74  492.26   1
  -5   2   1 2304.46  385.89  -2
   5  -6  -1 2304.46  385.89   1
  -5   2   1 2502.35  501.26  -2
   5  -6  -1 2502.35  501.26   1
   5  -2  -1 2813.24  548.31  -2
  -5   6   1 2813.24  548.31   1
  -5   2   0 2184.53  377.15  -2
   5  -6   0 2184.53  377.15   1
  -5   2   0 2048.72  410.64  -2
   5  -6   0 2048.72  410.64   1
   5  -2   0 2621.46  596.97  -2
  -5   6   0 2621.46  596.97   1
  -5   2   0 2765.90  578.25  -2
   5  -6   0 2765.90  578.25   1
   5  -2   0 2048.93  463.94  -2
  -5   6   0 2048.93  463.94   1
   5  -2   1  656.22  254.27  -2
  -5   6  -1  656.22  254.27   1
  -5   2  -1  544.51  202.14  -2
   5  -6   1  544.51  202.14   1
  -5   2  -1  952.73  327.79  -2
   5  -6   1  952.73  327.79   1
   5  -2   1  437.64  296.23  -2
  -5   6  -1  437.64  296.23   1
  -5   2  -1  711.70  291.29  -2
   5  -6   1  711.70  291.29   1
   5  -2   2  274.32  219.16  -2
  -5   6  -2  274.32  219.16   1
  -5   2  -2  932.40  330.06  -2
   5  -6   2  932.40  330.06   1
   5  -2   2  304.08  236.77  -2
  -5   6  -2  304.08  236.77   1
  -5   2  -2 1182.91  290.66  -2
   5  -6   2 1182.91  290.66   1
  -5   2  -2  490.59  281.20  -2
   5  -6   2  490.59  281.20   1
  -5   6  -3  308.59  172.20   1
   5  -6   3   39.38  163.79   1
  -5   6  -3  -82.93  195.72   1
   5  -6   3  136.49  146.37   1
   5  -6   3  240.48  190.53   1
  -5   6  -4  153.87  225.16   1
   5  -6   4   49.83  177.29   1
  -5   6  -4  102.79  266.38   1
   5  -6   4  149.03  168.41   1
  -5   6  -5 1092.63  332.69   1
   5  -6   5  805.26  322.79   1
  -5   6  -5  981.22  421.05   1
   5  -6   6 5583.64  783.45   1
  -5   6  -6 4044.07  721.93   1
  -5   5   5  682.41  317.30   1
   5  -5  -5  834.75  314.01   1
  -5   5   5  294.35  271.07   1
  -5   5   5  382.34  267.49   1
   5  -5  -4 4729.64  534.46   1
  -5   5   4 3656.26  666.52   1
  -5   5   4 4320.72  743.09   1
   5  -5  -4 4862.43  607.87   1
   5  -5  -4 4725.48  608.79   1
  -5   5   4 3996.08  696.11   1
  -5   5   3  573.45  262.11   1
   5  -5  -3  472.13  203.86   1
  -5   5   3  308.14  203.55   1
   5  -5  -3  134.43  146.39   1
   5  -5  -3  414.62  227.37   1
  -5   5   3   -4.92  184.11   1
   5  -5  -2  240.36  158.91   1
   5  -5  -2  197.12  160.04   1
  -5   5   2  383.84  269.17   1
   5  -5  -2  243.72  123.92   1
  -5   5   2  507.85  285.97   1
  -5   1   1  -54.57  151.14  -2
   5  -5  -1  -54.57  151.14   1
  -5   1   1   69.00  109.39  -2
   5  -5  -1   69.00  109.39   1
   5  -1  -1   60.82  192.57  -2
  -5   5   1   60.82  192.57   1
  -5   1   1  -84.74  132.65  -2
   5  -5  -1  -84.74  132.65   1
   5  -1  -1 -155.06  206.01  -2
  -5   5   1 -155.06  206.01   1
  -5   1   0 4915.97  594.74  -2
   5  -5   0 4915.97  594.74   1
   5  -1   0 4698.23  716.66  -2
  -5   5   0 4698.23  716.66   1
   5  -1   0 4519.24  636.71  -2
  -5   5   0 4519.24  636.71   1
  -5   1   0 6234.86  767.81  -2
   5  -5   0 6234.86  767.81   1
  -5   1   0 4046.69  452.78  -2
   5  -5   0 4046.69  452.78   1
  -5   1  -1 7588.01  607.04  -2
   5  -5   1 7588.01  607.04   1
  -5   1  -1 6777.90  564.00  -2
   5  -5   1 6777.90  564.00   1
  -5   1  -1 7691.34  769.29  -2
   5  -5   1 7691.34  769.29   1
   5  -1   1 8585.09  963.22  -2
  -5   5  -1 8585.09  963.22   1
   5  -1   1 8635.26  855.14  -2
  -5   5  -1 8635.26  855.14   1
  -5   1  -1 8636.15  902.23  -2
   5  -5   1 8636.15  902.23   1
   5  -1   2 1851.92  405.42  -2
  -5   5  -2 1851.92  405.42   1
  -5   1  -2 1633.78  374.88  -2
   5  -5   2 1633.78  374.88   1
   5  -1   2 1926.15  478.76  -2
  -5   5  -2 1926.15  478.76   1
  -5   1  -2 1612.15  286.41  -2
   5  -5   2 1612.15  286.41   1
  -5   1  -2 2346.30  492.13  -2
   5  -5   2 2346.30  492.13   1
   5  -5   3 5167.22  687.23   1
   5  -5   3 4603.77  482.71   1
  -5   5  -3 4934.62  741.35   1
  -5   5  -3 4479.12  613.83   1
   5  -5   3 4321.62  673.03   1
   5  -5   4 8439.98  877.66   1
   5  -5   4 8769.06  698.79   1
  -5   5  -4 8620.11  982.15   1
   5  -5   4 7512.65  900.86   1
  -5   5  -4 7811.28  800.78   1
  -5   5  -5 3974.89  561.24   1
   5  -5   5 4034.98  628.77   1
   5  -5   5 3540.86  459.03   1
  -5   5  -5 3734.92  651.92   1
  -5   5  -6  814.39  283.10   1
   5  -5   6  862.88  302.98   1
  -5   5  -6 1648.96  511.00   1
   5  -5   6  783.11  230.53   1
  -5   5  -7  -49.94  150.47   1
   5  -5   7 -207.16  172.51   1
  -5   5  -7   75.13  279.49   1
   5  -5   7   10.38  120.36   1
  -5   5  -8  465.52  241.48   1
   5  -5   8  239.43  253.46   1
  -5   5  -8 -230.61  276.92   1
   5  -4  -7  -28.07  207.07   1
  -5   4   7  374.18  288.80   1
   5  -4  -6  640.70  262.53   1
  -5   4   6  540.03  279.82   1
  -5   4   6  178.38  223.36   1
   5  -4  -5 3830.26  428.69   1
   5  -4  -5 3071.08  473.98   1
  -5   4   5 3106.87  606.17   1
  -5   4   5 3447.83  627.40   1
   5  -4  -5 2685.95  450.70   1
  -5   4   5 3552.21  662.09   1
  -5   4   4 4240.98  695.51   1
  -5   4   4 5456.48  766.79   1
  -5   4   4 4448.90  700.09   1
   5  -4  -4 4411.75  531.96   1
   5  -4  -4 4142.62  568.50   1
   5  -4  -4 4904.87  505.21   1
  -5   4   3  -25.34  150.00   1
   5  -4  -3  -92.93  143.60   1
  -5   4   3   68.81  151.51   1
   5  -4  -2 1396.20  291.10   1
  -5   4   2 1925.64  475.17   1
   5  -4  -2 1765.09  389.24   1
  -5   4   2 1742.72  314.53   1
  -5   4   2 1333.59  355.45   1
   5  -4  -2 1740.59  301.34   1
  -5   0   1  973.24  225.32  -2
   5  -4  -1  973.24  225.32   1
  -5   0   1  682.79  221.08  -2
   5  -4  -1  682.79  221.08   1
   5   0  -1  920.08  327.36  -2
  -5   4   1  920.08  327.36   1
  -5   0   1 1094.45  305.18  -2
   5  -4  -1 1094.45  305.18   1
   5   0  -1  853.57  227.07  -2
  -5   4   1  853.57  227.07   1
   5   0  -1 1007.91  309.11  -2
  -5   4   1 1007.91  309.11   1
   5   0   0 1900.09  277.54  -2
  -5   4   0 1900.09  277.54   1
  -5   0   0 1926.56  362.54  -2
   5  -4   0 1926.56  362.54   1
   5   0   0 2091.42  470.36  -2
  -5   4   0 2091.42  470.36   1
  -5   0   0 2113.22  441.62  -2
   5  -4   0 2113.22  441.62   1
  -5   0   0 2239.66  304.31  -2
   5  -4   0 2239.66  304.31   1
   5   0   0 1953.47  410.55  -2
  -5   4   0 1953.47  410.55   1
   5   0   1  155.42  130.82  -2
  -5   4  -1  155.42  130.82   1
  -5   0  -1  396.53  203.63  -2
   5  -4   1  396.53  203.63   1
   5   0   1  260.74  204.05  -2
  -5   4  -1  260.74  204.05   1
  -5   0  -1  478.90  213.42  -2
   5  -4   1  478.90  213.42   1
  -5   0  -1  412.88  157.60  -2
   5  -4   1  412.88  157.60   1
   5   0   1  383.19  207.34  -2
  -5   4  -1  383.19  207.34   1
   5   0   2 1928.01  408.90  -2
  -5   4  -2 1928.01  408.90   1
   5   0   2 1532.14  317.43  -2
  -5   4  -2 1532.14  317.43   1
  -5   0  -2 1971.79  387.55  -2
   5  -4   2 1971.79  387.55   1
   5   0   2 1364.95  231.02  -2
  -5   4  -2 1364.95  231.02   1
   5   0   2 1843.94  454.18  -2
  -5   4  -2 1843.94  454.18   1
  -5   0  -2 1303.78  228.25  -2
   5  -4   2 1303.78  228.25   1
  -5   0  -2 1643.58  408.51  -2
   5  -4   2 1643.58  408.51   1
  -5   4  -3 5055.72  515.60   1
   5  -4   3 5415.45  647.62   1
   5  -4   3 5113.30  455.35   1
   5  -4   3 5504.43  721.35   1
  -5   4  -3 4716.91  606.99   1
  -5   4  -4  489.89  222.80   1
   5  -4   4  809.40  206.78   1
   5  -4   4  331.68  178.05   1
  -5   4  -4  437.41  241.79   1
   5  -4   4  455.25  156.25   1
   5  -4   4  605.09  259.66   1
  -5   4  -5 3062.75  499.12   1
   5  -4   5 3055.66  386.72   1
   5  -4   5 3425.87  435.41   1
   5  -4   5 3302.27  521.39   1
  -5   4  -5 3041.24  565.41   1
   5  -4   6 8223.89  827.66   1
   5  -4   6 7174.83  643.33   1
  -5   4  -6 7605.96  897.57   1
  -5   4  -6 6630.47  726.64   1
  -5   4  -7  534.46  252.02   1
   5  -4   7  572.00  271.89   1
  -5   4  -7  469.24  256.54   1
   5  -4   7  440.73  167.16   1
  -5   4  -8 3222.66  545.02   1
  -5   4  -8 3513.77  656.47   1
   5  -4   8 3181.08  563.03   1
   5  -4   8 3125.37  481.03   1
  -5   4  -9 3935.39  638.16   1
   5  -4   9 4614.55  689.17   1
  -5   4  -9 4182.61  743.12   1
   5  -4   9 3475.07  549.37   1
  -5   3   8 -306.39  264.01   1
  -5   3   7  754.55  343.80   1
  -5   3   7  219.79  205.12   1
   5  -3  -7  481.62  230.82   1
   5  -3  -6 1919.10  375.75   1
  -5   3   6 2220.15  544.19   1
  -5   3   6 1915.85  481.10   1
   5  -3  -5 1755.19  348.39   1
   5  -3  -5 2380.26  323.99   1
  -5   3   5 1285.84  446.70   1
  -5   3   5 1441.23  386.72   1
   5  -3  -5 1866.40  380.40   1
  -5   3   411529.00 1048.49   1
   5  -3  -412776.60  739.59   1
  -5   3   412407.30  860.56   1
  -5   3   412028.90 1044.39   1
   5  -3  -410844.90  781.74   1
  -5   3   413435.20 1108.16   1
   5  -3  -410847.30  872.70   1
  -5   3   410429.30  677.89   1
   5  -3  -3 1219.21  248.39   1
  -5   3   3 1389.00  370.51   1
  -5   3   3 1102.18  254.41   1
   5  -3  -3 1330.18  335.34   1
   5  -3  -3 1650.28  287.84   1
  -5   3   3 1241.29  239.96   1
  -5   3   3 1127.74  336.94   1
   5  -3  -2   46.60  117.30   1
  -5   3   2  -99.04  190.87   1
   5  -3  -2  -71.91  104.12   1
   5  -3  -2  229.38  206.95   1
  -5   3   2  109.89  101.64   1
  -5   3   2  175.40  147.82   1
  -5  -1   110482.30  752.50  -2
   5  -3  -110482.30  752.50   1
   5   1  -1 9678.01  573.57  -2
  -5   3   1 9678.01  573.57   1
   5   1  -1 9918.95  903.47  -2
  -5   3   1 9918.95  903.47   1
   5   1  -110900.90  916.44  -2
  -5   3   110900.90  916.44   1
  -5  -1   110227.20  865.24  -2
   5  -3  -110227.20  865.24   1
  -5  -1   1 9988.34  596.84  -2
   5  -3  -1 9988.34  596.84   1
  -5  -1   069838.10 1967.74  -2
   5  -3   069838.10 1967.74   1
   5   1   070925.70 2387.41  -2
  -5   3   070925.70 2387.41   1
   5   1   065265.80 1374.93  -2
  -5   3   065265.80 1374.93   1
   5   1   069915.90 2273.94  -2
  -5   3   069915.90 2273.94   1
  -5  -1   072182.10 2360.14  -2
   5  -3   072182.10 2360.14   1
  -5  -1   068058.70 1468.98  -2
   5  -3   068058.70 1468.98   1
   5   1   122511.30 1134.87  -2
  -5   3  -122511.30 1134.87   1
  -5  -1  -118503.60 1060.85  -2
   5  -3   118503.60 1060.85   1
   5   1   119284.70 1261.15  -2
  -5   3  -119284.70 1261.15   1
   5   1   113655.60  608.54  -2
  -5   3  -113655.60  608.54   1
   5   1   119696.40 1182.12  -2
  -5   3  -119696.40 1182.12   1
  -5  -1  -122560.10 1344.67  -2
   5  -3   122560.10 1344.67   1
  -5  -1  -116297.30  697.63  -2
   5  -3   116297.30  697.63   1
   5   1   2  989.35  294.40  -2
  -5   3  -2  989.35  294.40   1
   5   1   2 1003.75  267.28  -2
  -5   3  -2 1003.75  267.28   1
  -5  -1  -2  617.11  246.00  -2
   5  -3   2  617.11  246.00   1
   5   1   2  585.54  265.38  -2
  -5   3  -2  585.54  265.38   1
  -5  -1  -2  463.60  133.91  -2
   5  -3   2  463.60  133.91   1
  -5  -1  -2  935.25  319.60  -2
   5  -3   2  935.25  319.60   1
  -5   3  -3  381.73  214.24   1
   5  -3   3  177.54  116.44   1
  -5   3  -3  659.97  235.25   1
  -5   3  -3  565.54  282.02   1
   5  -3   3  286.99  204.48   1
   5  -3   3  124.88   73.74   1
   5  -3   3 -165.55  177.64   1
   5  -3   4 5584.43  629.65   1
   5  -3   4 5200.69  460.08   1
   5  -3   4 5035.41  420.57   1
  -5   3  -4 4789.51  653.43   1
   5  -3   4 4300.99  608.46   1
  -5   3  -4 4646.54  588.42   1
  -5   3  -5  194.48  201.09   1
  -5   3  -5  -23.78   95.72   1
   5  -3   5   11.97  118.10   1
  -5   3  -5 -289.62  221.88   1
   5  -3   5   52.46   77.96   1
  -5   3  -6  430.21  209.49   1
   5  -3   6   42.91  156.69   1
  -5   3  -6   85.52  136.11   1
   5  -3   6  143.47  144.12   1
   5  -3   6  320.18  159.85   1
  -5   3  -7 2056.95  438.48   1
   5  -3   7 2096.74  422.17   1
  -5   3  -7 1578.37  418.20   1
   5  -3   7 1647.01  325.13   1
   5  -3   8 1164.94  301.79   1
  -5   3  -8 1054.72  311.86   1
   5  -3   8  681.46  278.62   1
  -5   3  -8 1203.39  382.47   1
   5  -3   9 1388.10  344.02   1
  -5   3  -9 1499.13  403.78   1
   5  -3   9 1909.19  445.73   1
  -5   3  -9 1393.45  404.39   1
   5  -3  10  498.90  247.97   1
  -5   3 -10  487.24  290.19   1
   5  -3  10  -86.45  264.40   1
  -5   2   8  368.96  307.61   1
  -5   2   8   67.11  200.93   1
   5  -2  -8   38.75  165.48   1
  -5   2   7   17.32  222.18   1
  -5   2   7 -135.68  177.15   1
   5  -2  -7  -29.89  133.74   1
  -5   2   6  719.63  347.48   1
  -5   2   6  810.19  304.01   1
   5  -2  -6 1053.42  298.62   1
  -5   2   5 2832.06  501.72   1
  -5   2   5 3126.14  524.82   1
  -5   2   5 3228.15  455.89   1
   5  -2  -5 2303.42  422.09   1
  -5   2   5 2483.58  336.41   1
   5  -2  -5 2365.82  381.86   1
   5  -2  -4 1342.70  253.56   1
  -5   2   4 1065.58  313.20   1
  -5   2   4  849.13  300.02   1
  -5   2   4 1332.26  293.02   1
   5  -2  -4  843.80  279.38   1
  -5   2   4 1889.84  417.57   1
  -5   2   4 1406.22  268.65   1
   5  -2  -3 2774.18  336.58   1
  -5   2   3 2418.22  448.32   1
  -5   2   3 2307.84  425.00   1
   5  -2  -3 2453.77  320.96   1
  -5   2   3 2077.46  311.90   1
   5  -2  -3 2046.83  371.82   1
  -5   2   3 1729.14  283.11   1
  -5   2   3 2159.99  426.21   1
   5  -2  -228321.50 1120.55   1
  -5   2   225090.50  920.62   1
  -5   2   224199.30 1318.97   1
   5  -2  -225052.50  923.50   1
  -5   2   226173.30 1398.66   1
   5  -2  -227945.70 1370.95   1
  -5  -2   128684.50 1158.77  -2
   5  -2  -128684.50 1158.77   1
   5   2  -125686.70  793.81  -2
  -5   2   125686.70  793.81   1
   5   2  -127464.60 1387.44  -2
  -5   2   127464.60 1387.44   1
   5   2  -128176.80 1409.88  -2
  -5   2   128176.80 1409.88   1
  -5  -2   128594.20 1388.92  -2
   5  -2  -128594.20 1388.92   1
  -5  -2   126782.50  850.58  -2
   5  -2  -126782.50  850.58   1
   5   2   027195.60 1203.93  -2
  -5   2   027195.60 1203.93   1
  -5  -2   024815.80 1109.68  -2
   5  -2   024815.80 1109.68   1
   5   2   029364.30 1309.27  -2
  -5   2   029364.30 1309.27   1
   5   2   024583.90 1313.47  -2
  -5   2   024583.90 1313.47   1
   5   2   022552.80  631.41  -2
  -5   2   022552.80  631.41   1
   5   2   024806.30 1298.73  -2
  -5   2   024806.30 1298.73   1
  -5  -2   027193.10 1378.22  -2
   5  -2   027193.10 1378.22   1
  -5  -2   025253.40  751.88  -2
   5  -2   025253.40  751.88   1
  -5  -2  -117060.00  951.77  -2
   5  -2   117060.00  951.77   1
   5   2   117070.90 1112.15  -2
  -5   2  -117070.90 1112.15   1
   5   2   117855.70  989.11  -2
  -5   2  -117855.70  989.11   1
   5   2   117684.80 1084.78  -2
  -5   2  -117684.80 1084.78   1
  -5  -2  -117934.60 1144.36  -2
   5  -2   117934.60 1144.36   1
  -5  -2  -116500.50  567.12  -2
   5  -2   116500.50  567.12   1
   5   2   2  336.88  183.98  -2
  -5   2  -2  336.88  183.98   1
  -5  -2  -2  231.68   99.28  -2
   5  -2   2  231.68   99.28   1
   5   2   2   -5.19  106.00  -2
  -5   2  -2   -5.19  106.00   1
  -5  -2  -2  303.03  159.91  -2
   5  -2   2  303.03  159.91   1
   5   2   2  170.25  151.33  -2
  -5   2  -2  170.25  151.33   1
  -5  -2  -2  225.00   69.16  -2
   5  -2   2  225.00   69.16   1
  -5  -2  -2  276.42  201.42  -2
   5  -2   2  276.42  201.42   1
   5  -2   319503.70 1074.96   1
   5  -2   317572.80  662.17   1
   5  -2   319681.20  643.79   1
  -5   2  -318545.40 1183.75   1
   5  -2   320137.40 1228.74   1
  -5   2  -319476.20 1133.79   1
   5  -2   414374.20  950.24   1
   5  -2   412979.00  599.26   1
   5  -2   412364.50  594.01   1
  -5   2  -412441.50  992.33   1
   5  -2   413394.50 1009.11   1
  -5   2  -412892.10  938.25   1
  -5   2  -5 4954.47  424.56   1
   5  -2   5 5045.22  573.35   1
   5  -2   5 5190.72  439.06   1
   5  -2   5 5296.60  423.97   1
  -5   2  -5 4644.76  620.24   1
   5  -2   5 4711.38  610.51   1
  -5   2  -5 5242.86  609.78   1
   5  -2   611978.00  911.48   1
  -5   2  -613290.10 1078.69   1
   5  -2   613590.60  800.50   1
  -5   2  -613221.60  990.56   1
   5  -2   7   46.36   92.30   1
   5  -2   7  132.12  126.91   1
   5  -2   7  212.15  148.54   1
  -5   2  -7 -172.88  193.60   1
  -5   2  -7  -68.10   85.04   1
  -5   2  -7  -46.27  161.24   1
   5  -2   8 1630.16  339.65   1
   5  -2   8 1602.52  379.57   1
  -5   2  -8 1941.10  433.93   1
  -5   2  -8 1726.63  454.37   1
   5  -2   9 6670.82  741.82   1
  -5   2  -9 5660.87  796.65   1
   5  -2   9 5169.43  639.40   1
  -5   2  -9 5200.97  708.98   1
   5  -2  10  186.79  212.94   1
  -5   2 -10 -180.31  216.44   1
   5  -2  10  212.27  253.24   1
  -5   1   9  221.92  250.24   1
  -5   1   9  607.09  312.23   1
   5  -1  -9  818.16  314.67   1
  -5   1   8  200.06  183.42   1
  -5   1   8   12.10  145.46   1
   5  -1  -8   56.61  190.25   1
  -5   1   7  752.49  278.19   1
  -5   1   7  671.66  274.93   1
   5  -1  -7  829.76  314.53   1
  -5   1   6 2660.11  509.86   1
  -5   1   6 2262.98  442.82   1
   5  -1  -6 2331.67  210.41   1
   5  -1  -6 2195.63  372.51   1
  -5   1   6 2916.56  376.65   1
   5  -1  -5  805.19  158.56   1
  -5   1   5  803.13  231.68   1
  -5   1   5  798.34  262.62   1
  -5   1   5  499.17  212.84   1
   5  -1  -5  854.06  262.29   1
  -5   1   5 1208.08  247.60   1
  -5   1   4 2100.37  306.82   1
  -5   1   4 1503.18  337.79   1
  -5   1   4 1559.77  351.42   1
  -5   1   4 1910.17  309.04   1
   5  -1  -4 2121.88  403.48   1
   5  -1  -4 1918.44  306.49   1
  -5   1   4 1670.20  366.05   1
  -5   1   4 1672.42  288.31   1
  -5   1   3  486.68  170.50   1
  -5   1   3  836.38  257.86   1
  -5   1   3  688.28  220.53   1
  -5   1   3  696.55  163.31   1
   5  -1  -3  949.47  281.49   1
  -5   1   3  928.91  201.35   1
  -5   1   3  615.54  176.49   1
  -5   1   3  712.89  240.40   1
  -5   1   3  425.38  169.55   1
   5  -1  -3  578.41  161.71   1
  -5   1   2  275.60  147.68   1
   5  -1  -2   96.95   59.09   1
  -5   1   2  -45.47  165.70   1
  -5   1   2  261.42  109.49   1
   5  -1  -2  244.26  145.22   1
  -5   1   2  216.12  137.84   1
  -5   1   2  105.15  102.20   1
   5  -1  -2  113.75   77.18   1
  -5  -3   1 1268.54  166.40  -2
   5  -1  -1 1268.54  166.40   1
   5   3  -1 1226.48  259.14  -2
  -5   1   1 1226.48  259.14   1
  -5  -3   1 1344.33  256.14  -2
   5  -1  -1 1344.33  256.14   1
   5   3  -1 1316.22  296.16  -2
  -5   1   1 1316.22  296.16   1
  -5  -3   1 1068.69  268.29  -2
   5  -1  -1 1068.69  268.29   1
   5   3  -1 1137.53  272.96  -2
  -5   1   1 1137.53  272.96   1
  -5  -3   1  941.56  245.66  -2
   5  -1  -1  941.56  245.66   1
   5   3  -1 1138.18  142.75  -2
  -5   1   1 1138.18  142.75   1
   5   3  -1  832.21  261.11  -2
  -5   1   1  832.21  261.11   1
   5   3  -1 1187.64  297.51  -2
  -5   1   1 1187.64  297.51   1
   5   3   041581.10 1524.03  -2
  -5   1   041581.10 1524.03   1
   5   3   041500.30 1406.40  -2
  -5   1   041500.30 1406.40   1
  -5  -3   042216.10 1374.87  -2
   5  -1   042216.10 1374.87   1
  -5  -3   038283.80 1462.55  -2
   5  -1   038283.80 1462.55   1
   5   3   038980.90 1549.79  -2
  -5   1   038980.90 1549.79   1
  -5  -3   037715.70  732.26  -2
   5  -1   037715.70  732.26   1
   5   3   041924.40 1618.43  -2
  -5   1   041924.40 1618.43   1
  -5  -3   041260.80 1611.51  -2
   5  -1   041260.80 1611.51   1
   5   3   111543.60  758.20  -2
  -5   1  -111543.60  758.20   1
   5   3   1 9966.75  706.95  -2
  -5   1  -1 9966.75  706.95   1
  -5  -3  -110560.20  713.05  -2
   5  -1   110560.20  713.05   1
  -5  -3  -1 9693.20  750.17  -2
   5  -1   1 9693.20  750.17   1
   5   3   110401.80  816.54  -2
  -5   1  -110401.80  816.54   1
  -5  -3  -1 8322.55  271.17  -2
   5  -1   1 8322.55  271.17   1
   5   3   111014.80  823.95  -2
  -5   1  -111014.80  823.95   1
  -5  -3  -110646.00  841.90  -2
   5  -1   110646.00  841.90   1
  -5  -3  -2 5060.42  214.51  -2
   5  -1   2 5060.42  214.51   1
   5   3   2 6353.32  581.78  -2
  -5   1  -2 6353.32  581.78   1
  -5  -3  -2 6195.94  565.61  -2
   5  -1   2 6195.94  565.61   1
  -5  -3  -2 5962.56  603.09  -2
   5  -1   2 5962.56  603.09   1
   5   3   2 6277.43  642.12  -2
  -5   1  -2 6277.43  642.12   1
  -5  -3  -2 6083.87  603.78  -2
   5  -1   2 6083.87  603.78   1
  -5  -3  -2 7150.20  695.71  -2
   5  -1   2 7150.20  695.71   1
   5   3   2 6350.89  616.12  -2
  -5   1  -2 6350.89  616.12   1
  -5  -3  -2 5503.83  206.15  -2
   5  -1   2 5503.83  206.15   1
  -5   1  -3 7212.02  688.72   1
   5  -1   3 6877.88  608.88   1
  -5   1  -3 7348.81  574.70   1
   5  -1   3 6351.17  284.76   1
   5  -1   3 6661.58  662.34   1
   5  -1   3 6137.37  283.02   1
  -5   1  -3 6559.93  674.97   1
   5  -1   3 6134.00  614.97   1
   5  -1   3 6694.13  672.70   1
  -5   1  -3 7328.05  685.40   1
   5  -1   459036.50 1813.53   1
   5  -1   456792.50 1154.11   1
  -5   1  -453872.60 1941.92   1
   5  -1   453008.00 1016.42   1
   5  -1   455805.90 1980.88   1
  -5   1  -457182.00 1923.03   1
   5  -1   5  389.17  134.12   1
  -5   1  -5  320.63  177.95   1
   5  -1   5  164.56  144.82   1
  -5   1  -5  102.38  141.68   1
  -5   1  -5  -37.53  120.15   1
   5  -1   5  366.83  110.08   1
   5  -1   5  337.94  182.30   1
  -5   1  -6  209.43  167.71   1
   5  -1   6  294.42  121.99   1
   5  -1   6  461.57  219.29   1
  -5   1  -6  145.34   93.18   1
  -5   1  -6  462.64  224.51   1
   5  -1   6  210.63  181.28   1
  -5   1  -7   24.37  179.27   1
   5  -1   7  -50.36   90.78   1
   5  -1   7  -72.84  123.32   1
   5  -1   7  -15.57  120.00   1
   5  -1   7  213.47  156.07   1
  -5   1  -7   45.01   78.95   1
  -5   1  -7  -29.76  156.01   1
   5  -1   8 3585.88  333.32   1
  -5   1  -8 4071.48  600.79   1
   5  -1   8 4032.66  538.08   1
   5  -1   8 3834.90  516.36   1
  -5   1  -8 3967.61  637.96   1
   5  -1   8 3876.66  445.37   1
   5  -1   9  283.28  191.19   1
  -5   1  -9  281.63  150.10   1
   5  -1   9  -45.70  141.46   1
  -5   1 -10 1382.79  412.66   1
   5  -1  10 1556.79  377.87   1
   5  -1  10 2403.98  480.99   1
   5  -1  11 2095.00  490.68   1
  -5   1 -11 2328.77  555.44   1
   5  -1  11 2560.32  476.74   1
  -5   0   9  684.37  269.97   1
   5   0  -9  793.49  306.32   1
  -5   0   9  662.28  305.10   1
  -5   0   8  431.97  231.26   1
   5   0  -8  475.37  256.65   1
  -5   0   8  284.05  212.22   1
  -5   0   7 -175.41  190.54   1
  -5   0   7 -341.15  219.77   1
   5   0  -7  -14.79  124.88   1
  -5   0   6   50.20  125.61   1
  -5   0   6  -25.09  107.79   1
   5   0  -6  178.24  158.48   1
  -5   0   6  165.85  101.71   1
  -5   0   5 2929.75  444.10   1
   5   0  -5 2415.17  245.49   1
   5   0  -5 3356.70  439.41   1
  -5   0   5 2506.78  416.83   1
  -5   0   5 2987.34  392.57   1
  -5   0   5 3256.77  411.56   1
  -5   0   4  125.50  142.87   1
  -5   0   4   15.84   81.21   1
   5   0  -4   73.35   73.64   1
  -5   0   4    9.00   90.58   1
   5   0  -4   31.63   87.21   1
  -5   0   4  -80.86   82.96   1
   5   0  -4 -152.97  111.21   1
  -5   0   4 -152.62  158.81   1
  -5   0   4   86.73  125.21   1
  -5   0   3   -2.41   87.87   1
  -5   0   3   74.25   89.39   1
  -5   0   3  148.95  130.96   1
   5   0  -3   34.92   66.33   1
   5   0  -3  155.45  162.21   1
  -5   0   3  -50.39  140.41   1
  -5   0   3   16.23   64.30   1
  -5   0   3  -89.89  144.97   1
  -5   0   3 -198.08  110.77   1
  -5   0   232307.00 1391.01   1
  -5   0   227895.30 1021.60   1
  -5   0   230273.20 1259.86   1
   5   0  -229582.90  888.94   1
  -5   0   230603.50 1251.28   1
  -5   0   229203.60 1352.29   1
   5   0  -227669.40 1290.06   1
  -5   0   229865.50 1404.65   1
  -5   0   227699.00 1090.69   1
  -5   0   231188.40  875.01   1
   5   4  -110377.40  759.63  -2
  -5   0   110377.40  759.63   1
   5   4  -110092.60  645.84  -2
  -5   0   110092.60  645.84   1
   5   4  -1 9160.18  334.28  -2
  -5   0   1 9160.18  334.28   1
   5   4  -1 8595.31  653.73  -2
  -5   0   1 8595.31  653.73   1
  -5  -4   1 8631.97  394.10  -2
   5   0  -1 8631.97  394.10   1
  -5  -4   1 9305.75  675.93  -2
   5   0  -1 9305.75  675.93   1
   5   4  -1 9980.77  707.33  -2
  -5   0   1 9980.77  707.33   1
   5   4  -1 8028.39  315.26  -2
  -5   0   1 8028.39  315.26   1
   5   4  -1 9524.01  763.76  -2
  -5   0   1 9524.01  763.76   1
  -5  -4   1 9042.86  725.22  -2
   5   0  -1 9042.86  725.22   1
   5   4  -1 9912.98  803.60  -2
  -5   0   1 9912.98  803.60   1
   5   4   011610.80  757.33  -2
  -5   0   011610.80  757.33   1
  -5  -4   0 9040.27  245.36  -2
   5   0   0 9040.27  245.36   1
   5   4   011177.10  729.05  -2
  -5   0   011177.10  729.05   1
  -5  -4   010236.20  694.46  -2
   5   0   010236.20  694.46   1
   5   4   010872.60  748.60  -2
  -5   0   010872.60  748.60   1
   5   4   011410.20  704.11  -2
  -5   0   011410.20  704.11   1
  -5  -4   012727.40  861.58  -2
   5   0   012727.40  861.58   1
   5   4   012649.50  878.20  -2
  -5   0   012649.50  878.20   1
   5   4   1 6001.49  526.84  -2
  -5   0  -1 6001.49  526.84   1
  -5  -4  -1 6159.69  527.81  -2
   5   0   1 6159.69  527.81   1
   5   4   1 6315.96  532.75  -2
  -5   0  -1 6315.96  532.75   1
   5   4   1 5242.96  502.41  -2
  -5   0  -1 5242.96  502.41   1
  -5  -4  -1 6585.18  570.37  -2
   5   0   1 6585.18  570.37   1
   5   4   1 6402.71  590.92  -2
  -5   0  -1 6402.71  590.92   1
  -5  -4  -1 5982.78  569.52  -2
   5   0   1 5982.78  569.52   1
  -5  -4  -1 5837.22  600.75  -2
   5   0   1 5837.22  600.75   1
  -5  -4  -2 7291.26  579.70  -2
   5   0   2 7291.26  579.70   1
   5   4   2   67.89   95.71  -2
  -5   0  -2   67.89   95.71   1
   5   4   2 6601.37  571.95  -2
  -5   0  -2 6601.37  571.95   1
  -5  -4  -2 6793.93  595.44  -2
   5   0   2 6793.93  595.44   1
   5   4   2 1062.28  224.87  -2
  -5   0  -2 1062.28  224.87   1
   5   4   2 6088.50  591.25  -2
  -5   0  -2 6088.50  591.25   1
  -5  -4  -2 7261.93  589.08  -2
   5   0   2 7261.93  589.08   1
  -5  -4  -2 7310.45  644.80  -2
   5   0   2 7310.45  644.80   1
  -5  -4  -2 6489.83  652.73  -2
   5   0   2 6489.83  652.73   1
   5   4   2 3124.64  430.25  -2
  -5   0  -2 3124.64  430.25   1
  -5   0  -3 6623.57  623.41   1
   5   0   3 5682.88  498.74   1
  -5   0  -3 6150.90  562.27   1
   5   0   3 5974.53  553.19   1
   5   0   3 6065.11  237.05   1
   5   0   3 6259.69  609.04   1
  -5   0  -3 6148.74  613.41   1
   5   0   3 6147.95  609.28   1
   5   0   3 6891.41  660.83   1
  -5   0  -3 6604.43  625.96   1
  -5   0  -4 1970.91  348.99   1
  -5   0  -4 2191.13  395.12   1
   5   0   4 2082.34  296.12   1
  -5   0  -4 2641.25  389.78   1
   5   0   4 2052.03  338.86   1
   5   0   4 2150.00  221.89   1
   5   0   4 1943.71  360.94   1
  -5   0  -4 2531.64  404.72   1
   5   0   4 2130.48  179.96   1
   5   0   4 2416.11  403.15   1
   5   0   4 1943.25  350.18   1
  -5   0  -5 4412.68  556.04   1
   5   0   5 3857.79  397.39   1
   5   0   5 4412.25  502.10   1
  -5   0  -5 3703.41  354.71   1
  -5   0  -5 4336.16  557.19   1
   5   0   5 3789.62  508.44   1
   5   0   5 3854.71  306.56   1
  -5   0  -5 3637.75  497.79   1
  -5   0  -634509.00 1173.43   1
   5   0   635724.80 1434.89   1
  -5   0  -633591.20  999.93   1
  -5   0  -634527.80 1626.40   1
   5   0   634419.90 1158.71   1
   5   0   634559.30 1552.11   1
   5   0   635519.50 1071.35   1
  -5   0  -636188.10 1591.14   1
  -5   0  -7   15.17  155.32   1
   5   0   7  -58.65  169.68   1
  -5   0  -7  101.67   84.80   1
  -5   0  -7   90.24  147.08   1
  -5   0  -7  229.61  104.81   1
   5   0   7  375.48  134.53   1
   5   0   7  -60.86   84.81   1
   5   0   7  206.77  206.14   1
   5   0   8 2636.40  333.65   1
  -5   0  -8 2783.14  517.44   1
  -5   0  -8 2134.28  370.18   1
   5   0   8 2618.90  412.01   1
  -5   0  -8 2329.37  207.56   1
   5   0   8 2537.26  364.91   1
   5   0   9 6326.18  503.22   1
  -5   0  -9 8058.94  748.16   1
   5   0   9 8413.09  762.30   1
  -5   0  -9 7995.67  878.81   1
   5   0  10 -142.47  180.78   1
  -5   0 -10  132.62  216.31   1
  -5   0 -10 -296.10  214.66   1
  -5   0 -11  159.43  227.57   1
  -5   0 -11  574.48  281.74   1
   5   0  11  178.32  210.77   1
  -5  -1   9  670.18  277.39   1
   5   1  -9  495.03  308.65   1
  -5  -1   9 1069.87  341.72   1
  -5  -1   8 2262.49  439.61   1
   5   1  -8 2598.84  511.53   1
  -5  -1   8 2923.24  491.18   1
  -5  -1   7 8019.24  779.92   1
   5   1  -7 9709.73  868.03   1
  -5  -1   7 8763.58  766.16   1
  -5  -1   6 -177.01  131.30   1
  -5  -1   6   81.73   75.56   1
   5   1  -6 -222.86  132.97   1
  -5  -1   6  104.13  109.69   1
  -5  -1   5  316.65  165.86   1
  -5  -1   5  275.15   91.63   1
   5   1  -5  452.35  189.80   1
  -5  -1   5  256.06  143.55   1
  -5  -1   5  366.70  180.20   1
  -5  -1   5  378.57  177.04   1
  -5  -1   4  544.56  184.19   1
  -5  -1   4  447.17  129.85   1
   5   1  -4  767.61  194.52   1
   5   1  -4  429.40  123.65   1
  -5  -1   4  541.79  182.47   1
  -5  -1   4  551.36  183.61   1
  -5  -1   4  439.87  206.26   1
  -5  -1   4  495.55  174.80   1
  -5  -1   3   32.09  101.97   1
  -5  -1   3   11.98   75.30   1
   5   1  -3    9.00   79.03   1
  -5  -1   3   26.61   66.92   1
   5   1  -3  -24.69   76.36   1
  -5  -1   3   39.17  112.67   1
  -5  -1   3   11.34   72.97   1
   5   1  -3   50.92  100.62   1
  -5  -1   3   -1.32  123.95   1
  -5  -1   3  -22.99   54.97   1
  -5  -1   3    0.89  123.29   1
  -5  -1   3   -5.72   75.15   1
  -5  -1   2 1016.04  265.09   1
   5   1  -2  844.62  173.26   1
  -5  -1   2  742.64  211.92   1
  -5  -1   2 1356.76  301.86   1
  -5  -1   2  752.00  187.97   1
   5   1  -2  977.13  331.15   1
  -5  -1   2  626.34  148.99   1
  -5  -1   2  648.64  229.35   1
  -5  -1   2  916.02  254.51   1
  -5  -1   2  761.70  149.46   1
  -5  -1   2  434.46  174.23   1
   5   5  -1  -31.52   66.76  -2
  -5  -1   1  -31.52   66.76   1
   5   5  -1 1661.76  268.78  -2
  -5  -1   1 1661.76  268.78   1
   5   5  -1   -5.69   43.37  -2
  -5  -1   1   -5.69   43.37   1
   5   5  -1  947.12  126.47  -2
  -5  -1   1  947.12  126.47   1
  -5  -5   1 1136.08  223.80  -2
   5   1  -1 1136.08  223.80   1
   5   5  -1  965.33  207.32  -2
  -5  -1   1  965.33  207.32   1
  -5  -5   1 1077.14  298.87  -2
   5   1  -1 1077.14  298.87   1
   5   5  -1 1304.97  304.62  -2
  -5  -1   1 1304.97  304.62   1
   5   5  -1 1352.13  148.41  -2
  -5  -1   1 1352.13  148.41   1
   5   5  -1  752.98  196.85  -2
  -5  -1   1  752.98  196.85   1
   5   5  -1  865.21  240.89  -2
  -5  -1   1  865.21  240.89   1
  -5  -5   044025.90 1445.16  -2
   5   1   044025.90 1445.16   1
   5   5   042737.00 1442.51  -2
  -5  -1   042737.00 1442.51   1
   5   5   042276.60 1312.70  -2
  -5  -1   042276.60 1312.70   1
   5   5   013664.20  780.17  -2
  -5  -1   013664.20  780.17   1
  -5  -5   038290.30 1229.23  -2
   5   1   038290.30 1229.23   1
   5   5   044123.30 1383.20  -2
  -5  -1   044123.30 1383.20   1
  -5  -5   041446.30 1445.27  -2
   5   1   041446.30 1445.27   1
  -5  -5   040166.80 1491.50  -2
   5   1   040166.80 1491.50   1
   5   5   042876.10 1504.33  -2
  -5  -1   042876.10 1504.33   1
   5   5   1  650.14  202.75  -2
  -5  -1  -1  650.14  202.75   1
  -5  -5  -148051.40 1489.86  -2
   5   1   148051.40 1489.86   1
   5   5   150062.40 1472.37  -2
  -5  -1  -150062.40 1472.37   1
  -5  -5  -128846.20 1077.98  -2
   5   1   128846.20 1077.98   1
   5   5   110543.30  662.67  -2
  -5  -1  -110543.30  662.67   1
  -5  -5  -146157.90 1396.18  -2
   5   1   146157.90 1396.18   1
   5   5   154975.60 1584.49  -2
  -5  -1  -154975.60 1584.49   1
  -5  -5  -146563.00 1552.98  -2
   5   1   146563.00 1552.98   1
  -5  -5  -146419.10 1599.25  -2
   5   1   146419.10 1599.25   1
   5   5   242925.20 1386.07  -2
  -5  -1  -242925.20 1386.07   1
  -5  -5  -246144.10 1423.09  -2
   5   1   246144.10 1423.09   1
   5   5   249233.00 1495.22  -2
  -5  -1  -249233.00 1495.22   1
  -5  -5  -247336.30 1480.98  -2
   5   1   247336.30 1480.98   1
   5   5   244194.80 1446.57  -2
  -5  -1  -244194.80 1446.57   1
  -5  -5  -246240.20 1566.32  -2
   5   1   246240.20 1566.32   1
  -5  -5  -2 1423.29  308.64  -2
   5   1   2 1423.29  308.64   1
  -5  -5  -245217.10 1580.95  -2
   5   1   245217.10 1580.95   1
  -5  -1  -3 7009.84  595.14   1
  -5  -1  -3 -231.07  123.48   1
   5   1   3 7142.75  560.63   1
  -5  -1  -3 6999.83  598.73   1
   5   1   3 7119.23  311.29   1
   5   1   3  -81.09  108.53   1
   5   1   3 7822.09  640.64   1
  -5  -1  -3 6864.89  606.77   1
   5   1   3 7694.86  660.49   1
   5   1   3 7568.46  668.84   1
   5   1   4 6667.09  321.21   1
  -5  -1  -4 6524.34  615.57   1
   5   1   4 6434.77  523.33   1
   5   1   4 6642.52  376.97   1
  -5  -1  -4 7706.22  640.63   1
   5   1   4 6930.39  594.89   1
  -5  -1  -4 6637.14  347.80   1
   5   1   4 6923.76  641.08   1
  -5  -1  -4 6260.13  619.18   1
   5   1   4 7222.79  652.69   1
   5   1   4 6808.90  634.78   1
  -5  -1  -4 7438.45  680.93   1
  -5  -1  -5  890.42  284.33   1
  -5  -1  -5  716.64  224.12   1
   5   1   5  575.20  180.58   1
  -5  -1  -5  736.00  221.96   1
  -5  -1  -5  766.83  158.13   1
   5   1   5  728.73  213.69   1
  -5  -1  -5  725.78  170.60   1
   5   1   5  671.60  237.80   1
  -5  -1  -5  582.06  211.19   1
   5   1   5  714.53  208.23   1
   5   1   5  537.18  123.43   1
   5   1   6  125.19  117.87   1
   5   1   6  -33.20  152.21   1
  -5  -1  -6   13.05   81.91   1
  -5  -1  -6 -133.32  147.12   1
   5   1   6   57.13   63.45   1
  -5  -1  -6  -97.15   72.92   1
  -5  -1  -6 -164.67  128.97   1
   5   1   6  -22.07  132.95   1
   5   1   7 3785.70  554.74   1
   5   1   7 3666.15  410.99   1
  -5  -1  -7 3916.84  561.26   1
   5   1   7 3591.42  462.87   1
  -5  -1  -7 3703.98  420.67   1
  -5  -1  -7 3539.73  301.60   1
   5   1   7 3482.45  498.61   1
   5   1   8 1682.59  426.28   1
   5   1   8 2083.12  342.09   1
   5   1   8 1802.35  342.22   1
  -5  -1  -8 1737.21  309.11   1
  -5  -1  -8 1950.27  443.45   1
   5   1   8 1548.90  297.15   1
   5   1   8 1879.15  361.50   1
   5   1   9 4452.31  704.49   1
  -5  -1  -9 4492.95  671.12   1
  -5  -1  -9 4078.20  525.84   1
   5   1   9 4363.25  485.99   1
   5   1   9 4720.21  624.60   1
   5   1   9 4463.36  526.83   1
   5   1  10 5340.05  583.27   1
   5   1  10 5114.60  538.85   1
  -5  -1 -10 5213.56  667.80   1
   5   1  10 5341.41  847.36   1
   5   1  10 4770.02  649.50   1
  -5  -1 -10 5620.04  798.47   1
  -5  -1 -11 2814.90  607.72   1
  -5  -1 -11 2142.49  437.59   1
   5   1  11 2202.06  426.71   1
   5   1  11 3041.42  683.54   1
   5   1  11 2664.90  504.83   1
  -5  -2  10   46.81  216.94   1
  -5  -2  10  180.52  169.04   1
   5   2 -10  -96.90  192.93   1
  -5  -2   9  142.18  212.81   1
   5   2  -9 -203.19  276.74   1
  -5  -2   9 -204.16  150.30   1
  -5  -2   9  327.03  214.08   1
  -5  -2   8  158.02  173.90   1
  -5  -2   8  182.48  154.04   1
   5   2  -8  138.78  164.53   1
  -5  -2   8  162.56  123.03   1
  -5  -2   7  727.04  231.12   1
  -5  -2   7  713.69  246.27   1
   5   2  -7 1403.94  350.50   1
  -5  -2   7  861.27  227.68   1
  -5  -2   6 1296.61  283.24   1
   5   2  -6 1763.49  347.30   1
  -5  -2   6  968.23  162.73   1
  -5  -2   6 1247.52  312.52   1
  -5  -2   6 1562.60  278.09   1
  -5  -2   5 6772.76  573.78   1
  -5  -2   5 5810.72  407.55   1
   5   2  -5 6983.76  638.84   1
  -5  -2   5 7129.36  552.59   1
  -5  -2   5 6974.18  632.07   1
  -5  -2   5 7401.97  626.44   1
  -5  -2   4 6140.21  499.12   1
  -5  -2   4 6541.39  460.50   1
   5   2  -4 6349.82  550.82   1
  -5  -2   4 6579.27  500.44   1
  -5  -2   4 6928.07  568.52   1
  -5  -2   4 6826.80  541.84   1
  -5  -2   4 7558.08  686.29   1
  -5  -2   4 6386.89  587.89   1
  -5  -2   310038.40  582.33   1
  -5  -2   310895.80  790.09   1
  -5  -2   310506.90  748.77   1
   5   2  -310513.70  652.58   1
  -5  -2   310564.90  609.49   1
  -5  -2   310037.70  589.43   1
  -5  -2   310305.60  623.80   1
  -5  -2   311031.60  616.61   1
  -5  -2   311122.20  789.57   1
  -5  -2   312217.10  919.69   1
  -5  -2   310646.60  734.77   1
  -5  -2   2  361.20  120.83   1
  -5  -2   2  288.20  109.85   1
  -5  -2   2  333.89  171.87   1
  -5  -2   2  170.03   67.06   1
  -5  -2   2   80.31   95.17   1
  -5  -2   2  434.71  189.74   1
  -5  -2   2  111.64   89.42   1
   5   2  -2  234.88  139.55   1
  -5  -2   2  364.92  188.10   1
  -5  -2   2  403.60  149.73   1
  -5  -2   2   43.24  109.25   1
  -5  -6   122202.10 1046.61  -2
   5   2  -122202.10 1046.61   1
   5   6  -1  -88.66  104.77  -2
  -5  -2   1  -88.66  104.77   1
   5   6  -122120.80  932.13  -2
  -5  -2   122120.80  932.13   1
  -5  -6   119501.20  771.74  -2
   5   2  -119501.20  771.74   1
   5   6  -118271.60  632.28  -2
  -5  -2   118271.60  632.28   1
   5   6  -120109.60  819.25  -2
  -5  -2   120109.60  819.25   1
   5   6  -119743.80  621.54  -2
  -5  -2   119743.80  621.54   1
  -5  -6   121915.70 1127.24  -2
   5   2  -121915.70 1127.24   1
   5   6  -120771.10 1029.99  -2
  -5  -2   120771.10 1029.99   1
   5   6  -1   31.73   84.02  -2
  -5  -2   1   31.73   84.02   1
   5   6  -120012.40  943.64  -2
  -5  -2   120012.40  943.64   1
  -5  -6   0  103816    2216  -2
   5   2   0  103816    2216   1
   5   6   0  106137    2067  -2
  -5  -2   0  106137    2067   1
   5   6   094372.30 1205.14  -2
  -5  -2   094372.30 1205.14   1
  -5  -6   095325.90 1737.77  -2
   5   2   095325.90 1737.77   1
   5   6   0  101098    1866  -2
  -5  -2   0  101098    1866   1
   5   6   099118.40 1072.64  -2
  -5  -2   099118.40 1072.64   1
  -5  -6   0  106141    2230  -2
   5   2   0  106141    2230   1
  -5  -6   0  107738    2435  -2
   5   2   0  107738    2435   1
   5   6   0  106422    2260  -2
  -5  -2   0  106422    2260   1
   5   6   1 1599.42  286.70  -2
  -5  -2  -1 1599.42  286.70   1
   5   6   1 1678.16  235.40  -2
  -5  -2  -1 1678.16  235.40   1
  -5  -6  -1 1852.94  304.20  -2
   5   2   1 1852.94  304.20   1
   5   6   1 1457.32   97.83  -2
  -5  -2  -1 1457.32   97.83   1
   5   6   1 1805.52  282.01  -2
  -5  -2  -1 1805.52  282.01   1
  -5  -6  -1  182.20  119.23  -2
   5   2   1  182.20  119.23   1
  -5  -6  -1 1870.19  288.25  -2
   5   2   1 1870.19  288.25   1
   5   6   1  -74.46   91.97  -2
  -5  -2  -1  -74.46   91.97   1
  -5  -6  -1 1308.10  131.38  -2
   5   2   1 1308.10  131.38   1
  -5  -6  -1 1661.46  248.09  -2
   5   2   1 1661.46  248.09   1
   5   6   1 1741.79  262.11  -2
  -5  -2  -1 1741.79  262.11   1
  -5  -6  -1 1818.03  316.57  -2
   5   2   1 1818.03  316.57   1
   5   6   1  992.97  237.20  -2
  -5  -2  -1  992.97  237.20   1
   5   6   1 1902.08  337.58  -2
  -5  -2  -1 1902.08  337.58   1
   5   6   1 1709.97   99.91  -2
  -5  -2  -1 1709.97   99.91   1
  -5  -6  -1 1880.01  307.00  -2
   5   2   1 1880.01  307.00   1
   5   6   2 5641.94  457.21  -2
  -5  -2  -2 5641.94  457.21   1
  -5  -6  -2 6100.69  539.15  -2
   5   2   2 6100.69  539.15   1
   5   6   2  288.27  140.85  -2
  -5  -2  -2  288.27  140.85   1
   5   6   2 5808.34  519.61  -2
  -5  -2  -2 5808.34  519.61   1
  -5  -6  -2 6278.74  500.07  -2
   5   2   2 6278.74  500.07   1
  -5  -6  -2  -28.35   63.23  -2
   5   2   2  -28.35   63.23   1
  -5  -6  -2 5130.60  280.16  -2
   5   2   2 5130.60  280.16   1
  -5  -6  -2 6408.17  526.44  -2
   5   2   2 6408.17  526.44   1
   5   6   2 6698.36  559.95  -2
  -5  -2  -2 6698.36  559.95   1
   5   6   2  -15.30   67.75  -2
  -5  -2  -2  -15.30   67.75   1
   5   6   2 4904.02  180.68  -2
  -5  -2  -2 4904.02  180.68   1
  -5  -6  -2 6729.11  588.39  -2
   5   2   2 6729.11  588.39   1
  -5  -6  -2 5683.00  555.43  -2
   5   2   2 5683.00  555.43   1
   5   6   2 6337.58  593.24  -2
  -5  -2  -2 6337.58  593.24   1
   5   6   2 6558.73  588.41  -2
  -5  -2  -2 6558.73  588.41   1
   5   2   3  919.53  228.54   1
  -5  -2  -3 1143.26  266.99   1
  -5  -2  -3 1171.79  239.07   1
   5   2   3 1122.54  236.85   1
  -5  -2  -3   55.64   89.68   1
  -5  -2  -3 1156.67  239.65   1
   5   2   3  -42.85  119.93   1
   5   2   3 1006.84  205.88   1
  -5  -2  -3 1039.51  118.90   1
   5   2   3 1324.35  263.29   1
  -5  -2  -3  919.01  221.30   1
   5   2   3 1227.91  165.86   1
   5   2   3 1305.98  275.01   1
  -5  -2  -444639.80 1515.50   1
   5   2   442480.20 1395.68   1
  -5  -2  -446363.80 1530.81   1
   5   2   443300.50 1113.39   1
   5   2   445382.50 1455.81   1
   5   2   444106.20 1254.08   1
   5   2   444095.60 1576.03   1
  -5  -2  -440787.40  912.65   1
  -5  -2  -442024.50 1539.69   1
   5   2   445201.40 1567.67   1
   5   2   443404.70 1578.42   1
  -5  -2  -445172.00 1632.78   1
   5   2   577924.00 2149.19   1
  -5  -2  -576187.90 2131.07   1
   5   2   575652.00 1426.61   1
   5   2   568974.40 1848.10   1
   5   2   573658.40 1590.33   1
  -5  -2  -580266.10 2060.75   1
   5   2   575345.50 1897.76   1
   5   2   578132.60 1622.93   1
  -5  -2  -574819.60 1585.14   1
   5   2   577261.60 2243.91   1
  -5  -2  -571984.50 1438.96   1
   5   2   577652.80 2110.58   1
  -5  -2  -576976.80 2217.44   1
   5   2   653465.50 1946.43   1
  -5  -2  -651238.80 1894.97   1
   5   2   650688.10 1613.06   1
   5   2   653098.50 1640.88   1
  -5  -2  -648567.50 1238.22   1
  -5  -2  -649925.80 1370.91   1
   5   2   651637.90 1740.53   1
  -5  -2  -652313.30 1932.73   1
   5   2   7 5665.75  696.50   1
   5   2   7 5492.91  560.35   1
   5   2   7 4965.02  540.51   1
  -5  -2  -7 4961.67  504.71   1
   5   2   7 6040.60  624.41   1
  -5  -2  -7 4793.43  625.47   1
   5   2   7 4770.88  465.97   1
  -5  -2  -8 2696.45  511.65   1
   5   2   8 2390.66  380.18   1
   5   2   8 2881.21  414.71   1
   5   2   8 2967.96  538.88   1
  -5  -2  -8 2995.49  407.49   1
   5   2   8 3557.96  492.07   1
   5   2   8 2909.14  393.84   1
  -5  -2  -9 1971.37  459.31   1
   5   2   9 2182.35  480.50   1
   5   2   9 2168.73  379.82   1
   5   2   9 1658.58  321.83   1
  -5  -2  -9 2387.70  407.61   1
   5   2   9 2004.98  385.14   1
   5   2  10  181.32  320.92   1
   5   2  10  -17.21  128.91   1
   5   2  10  131.90  165.15   1
  -5  -2 -10  294.54  173.69   1
  -5  -2 -10  433.11  242.99   1
   5   2  10  350.59  207.62   1
   5   2  11  840.68  490.44   1
  -5  -2 -11  327.86  256.55   1
   5   2  11  429.34  219.31   1
  -5  -2 -11   31.61  180.84   1
   5   2  11  237.09  186.66   1
   5   3 -10   -4.05  181.14   1
  -5  -3  10  269.67  229.57   1
   5   3 -10  529.51  243.35   1
   5   3  -9  825.38  357.17   1
  -5  -3   9 1039.32  344.20   1
  -5  -3   9 1034.36  318.40   1
   5   3  -9 1004.95  313.63   1
   5   3  -8  245.08  190.97   1
  -5  -3   8  166.54  167.35   1
  -5  -3   8  300.17  176.05   1
  -5  -3   8  170.37   95.85   1
   5   3  -8  134.89  237.35   1
  -5  -3   7 1667.07  405.31   1
   5   3  -7 1936.79  403.41   1
  -5  -3   7 1542.90  320.62   1
  -5  -3   7 1767.71  306.95   1
   5   3  -7 1368.63  347.59   1
   5   3  -6  172.95  182.43   1
  -5  -3   6  -49.64  133.30   1
  -5  -3   6  102.68   85.28   1
  -5  -3   6   -1.71   78.65   1
  -5  -3   6  128.00  115.03   1
   5   3  -6  -48.12  111.49   1
  -5  -3   5 1008.61  231.31   1
  -5  -3   5  816.13  234.81   1
  -5  -3   5 1075.51  225.24   1
  -5  -3   5  984.98  195.41   1
  -5  -3   5  976.61  189.85   1
  -5  -3   5 1202.35  306.76   1
   5   3  -5  923.74  266.13   1
  -5  -3   4 1185.99  200.71   1
  -5  -3   4 1493.42  288.81   1
  -5  -3   4 1241.22  225.01   1
  -5  -3   4 1157.12  181.68   1
   5   3  -4 1237.28  287.04   1
  -5  -3   4 1281.34  294.48   1
  -5  -3   4 1388.46  266.30   1
  -5  -3   3  397.27  162.58   1
  -5  -3   3   69.92  128.45   1
  -5  -3   3  150.17   74.99   1
  -5  -3   3   66.51   95.91   1
   5   3  -3  241.33  141.59   1
  -5  -3   3   77.84   95.76   1
  -5  -3   3  102.18   71.99   1
  -5  -3   3  199.35  144.44   1
  -5  -3   3  141.16   88.39   1
  -5  -3   3  165.56  118.42   1
  -5  -3   3   94.65  102.52   1
  -5  -3   2 7288.96  358.14   1
   5   3  -2 7713.20  639.78   1
  -5  -3   2 7522.68  641.05   1
  -5  -3   2 7511.85  537.50   1
   5   3  -2 7472.45  606.93   1
  -5  -3   2 8225.37  656.11   1
  -5  -3   2 8150.61  504.15   1
  -5  -3   2 7469.78  408.82   1
  -5  -3   2 7714.80  534.69   1
  -5  -3   2 7459.66  610.42   1
  -5  -3   2 7175.35  680.09   1
  -5  -3   2 7644.30  611.64   1
  -5  -7   1  898.85  248.32  -2
   5   3  -1  898.85  248.32   1
   5   7  -1  862.91  233.19  -2
  -5  -3   1  862.91  233.19   1
   5   7  -1  852.01  115.46  -2
  -5  -3   1  852.01  115.46   1
   5   7  -1 1104.35  239.32  -2
  -5  -3   1 1104.35  239.32   1
  -5  -7   1   17.60   51.82  -2
   5   3  -1   17.60   51.82   1
   5   7  -1  849.90  155.53  -2
  -5  -3   1  849.90  155.53   1
  -5  -7   1 1047.31  247.51  -2
   5   3  -1 1047.31  247.51   1
  -5  -7   1  869.96  145.45  -2
   5   3  -1  869.96  145.45   1
   5   7  -1 -110.50  119.60  -2
  -5  -3   1 -110.50  119.60   1
   5   7  -1  919.63  158.22  -2
  -5  -3   1  919.63  158.22   1
  -5  -7   1 1142.26  271.54  -2
   5   3  -1 1142.26  271.54   1
   5   7  -1  631.04  201.36  -2
  -5  -3   1  631.04  201.36   1
   5   7  -1  753.45  154.07  -2
  -5  -3   1  753.45  154.07   1
   5   7  -1  -38.92   61.62  -2
  -5  -3   1  -38.92   61.62   1
   5   7  -1  972.26  225.98  -2
  -5  -3   1  972.26  225.98   1
   5   7   016397.30  531.58  -2
  -5  -3   016397.30  531.58   1
  -5  -7   018511.50  945.54  -2
   5   3   018511.50  945.54   1
   5   7   0   34.79   58.82  -2
  -5  -3   0   34.79   58.82   1
   5   7   016390.90  817.63  -2
  -5  -3   016390.90  817.63   1
   5   7   014335.50  549.86  -2
  -5  -3   014335.50  549.86   1
  -5  -7   016597.90  853.06  -2
   5   3   016597.90  853.06   1
   5   7   011561.50  553.16  -2
  -5  -3   011561.50  553.16   1
  -5  -7   0 1432.83  257.64  -2
   5   3   0 1432.83  257.64   1
  -5  -7   014862.70  611.12  -2
   5   3   014862.70  611.12   1
   5   7   017464.90  687.05  -2
  -5  -3   017464.90  687.05   1
   5   7   0  -65.50   58.03  -2
  -5  -3   0  -65.50   58.03   1
  -5  -7   011690.20  542.20  -2
   5   3   011690.20  542.20   1
  -5  -7   017305.80  869.45  -2
   5   3   017305.80  869.45   1
  -5  -7   021519.10 1102.69  -2
   5   3   021519.10 1102.69   1
   5   7   020727.40 1088.85  -2
  -5  -3   020727.40 1088.85   1
   5   7   018105.00  898.44  -2
  -5  -3   018105.00  898.44   1
  -5  -7  -113813.10  818.42  -2
   5   3   113813.10  818.42   1
   5   7   1  -13.26   43.84  -2
  -5  -3  -1  -13.26   43.84   1
   5   7   112373.80  735.24  -2
  -5  -3  -112373.80  735.24   1
   5   7   1 8123.90  439.10  -2
  -5  -3  -1 8123.90  439.10   1
  -5  -7  -112228.00  707.88  -2
   5   3   112228.00  707.88   1
  -5  -7  -114256.40  780.03  -2
   5   3   114256.40  780.03   1
   5   7   115885.60  834.61  -2
  -5  -3  -115885.60  834.61   1
  -5  -7  -112448.30  629.93  -2
   5   3   112448.30  629.93   1
  -5  -7  -1 6801.72  406.55  -2
   5   3   1 6801.72  406.55   1
  -5  -7  -116643.50  954.05  -2
   5   3   116643.50  954.05   1
   5   7   114211.00  815.15  -2
  -5  -3  -114211.00  815.15   1
   5   7   1 1970.89  289.30  -2
  -5  -3  -1 1970.89  289.30   1
  -5  -7  -2  -26.77   76.25  -2
   5   3   2  -26.77   76.25   1
   5   7   2  -21.63   61.97  -2
  -5  -3  -2  -21.63   61.97   1
  -5  -3  -316399.80  802.96   1
  -5  -3  -317264.00  952.76   1
   5   3   316304.70  902.11   1
  -5  -3  -318003.80  932.75   1
   5   3   316520.50  851.39   1
   5   3   316763.20  819.56   1
   5   3   317320.40  741.20   1
   5   3   317289.50  900.47   1
   5   3   317082.80  915.03   1
   5   3   316517.30  928.75   1
  -5  -3  -317944.20  951.48   1
  -5  -3  -316668.70  956.40   1
  -5  -3  -316896.80  597.69   1
   5   3   455339.60 1627.78   1
  -5  -3  -455733.80 1634.34   1
   5   3   451880.50 1654.88   1
  -5  -3  -458505.40 1736.54   1
   5   3   453757.10 1564.47   1
   5   3   455490.60 1418.29   1
   5   3   455434.00 1458.97   1
   5   3   454430.70 1725.72   1
   5   3   455502.10 1658.17   1
  -5  -3  -454250.50 1203.55   1
   5   3   456279.80 1817.95   1
  -5  -3  -455299.90 1793.26   1
   5   3   533092.20 1372.12   1
  -5  -3  -530565.10 1316.86   1
   5   3   529900.00 1281.15   1
  -5  -3  -533925.80 1338.73   1
   5   3   530808.80 1216.03   1
   5   3   531515.60 1084.38   1
   5   3   530537.10 1408.99   1
  -5  -3  -530705.30 1017.39   1
   5   3   532074.10 1275.92   1
  -5  -3  -532695.20 1449.83   1
   5   3   6  620.96  241.54   1
  -5  -3  -6  466.99  145.47   1
  -5  -3  -6  573.51  222.34   1
  -5  -3  -6  549.34  192.90   1
   5   3   6  772.13  209.86   1
   5   3   6  385.85  142.43   1
   5   3   6  513.36  187.54   1
   5   3   6  488.51  155.83   1
   5   3   6  382.18  139.40   1
   5   3   7 6085.86  708.56   1
   5   3   7 4665.84  480.36   1
   5   3   7 5499.52  602.63   1
   5   3   7 5006.71  543.45   1
   5   3   7 4910.83  522.68   1
   5   3   7 5205.74  426.97   1
  -5  -3  -7 5085.13  502.16   1
   5   3   7 5612.86  561.26   1
  -5  -3  -7 5433.89  677.19   1
   5   3   826426.20 1578.10   1
   5   3   825816.70 1328.51   1
   5   3   824475.20 1180.51   1
   5   3   826198.40  895.92   1
  -5  -3  -827602.40 1270.62   1
   5   3   827673.50 1273.40   1
  -5  -3  -827190.70 1569.48   1
   5   3   9 4645.29  711.72   1
   5   3   9 4597.77  601.05   1
   5   3   9 4610.19  527.67   1
  -5  -3  -9 4602.91  575.02   1
   5   3   9 5706.38  597.04   1
  -5  -3  -9 5273.06  752.53   1
   5   3  10 3257.10  651.21   1
   5   3  10 2968.59  493.31   1
  -5  -3 -10 3517.62  626.71   1
   5   3  10 3046.19  451.04   1
  -5  -3 -10 3610.91  551.99   1
   5   3  10 3326.65  462.70   1
   5   3  11  444.87  285.81   1
   5   3  11  328.15  154.78   1
  -5  -3 -11  396.27  246.87   1
  -5  -4   9   68.52  176.44   1
   5   4  -9  243.07  216.24   1
  -5  -4   8  165.05  171.69   1
   5   4  -8  -59.59  162.94   1
  -5  -4   7  -17.11  131.13   1
  -5  -4   7  114.00  127.55   1
  -5  -4   7  326.88  139.18   1
   5   4  -7  233.91  160.89   1
  -5  -4   6  532.37  203.01   1
  -5  -4   6  155.44  113.90   1
  -5  -4   6  474.33  199.39   1
  -5  -4   6  358.33  117.36   1
  -5  -4   6  198.66  102.90   1
  -5  -4   6  400.74  221.49   1
   5   4  -6  424.59  207.05   1
  -5  -4   5 5697.88  434.13   1
  -5  -4   5 5795.10  470.76   1
   5   4  -5 6661.03  620.85   1
  -5  -4   5 5268.45  307.36   1
  -5  -4   5 6154.83  635.08   1
  -5  -4   5 6248.31  602.87   1
   5   4  -5 6424.53  672.49   1
  -5  -4   4 2237.90  220.68   1
  -5  -4   4 2498.93  382.92   1
  -5  -4   4 3036.45  444.86   1
  -5  -4   4 3201.08  355.33   1
  -5  -4   4 2852.87  386.77   1
  -5  -4   4 2230.00  157.43   1
   5   4  -4 2660.93  393.03   1
  -5  -4   4 2969.97  388.92   1
   5   4  -4 3052.68  457.80   1
  -5  -4   3 2161.89  136.41   1
   5   4  -3 3096.92  414.40   1
  -5  -4   3 3403.45  461.47   1
  -5  -4   3 2878.50  349.93   1
  -5  -4   3 3063.72  427.34   1
  -5  -4   3 2618.85  349.96   1
   5   4  -3 2805.55  387.45   1
  -5  -4   3 2748.87  369.38   1
  -5  -4   3 2710.97  358.78   1
   5   4  -3 2447.55  380.67   1
   5   4  -2 5554.35  602.82   1
  -5  -4   2 5257.19  577.04   1
  -5  -4   2 4163.05  426.39   1
  -5  -4   2 5557.69  559.00   1
  -5  -4   2 4444.96  453.19   1
  -5  -4   2 5399.29  633.41   1
  -5  -4   2 4759.55  462.19   1
   5   4  -2 4532.08  540.74   1
  -5  -4   2 4397.95  495.01   1
  -5  -8   1 5138.77  532.34  -2
   5   4  -1 5138.77  532.34   1
   5   8  -1 4890.90  549.35  -2
  -5  -4   1 4890.90  549.35   1
   5   8  -1 3109.46  348.79  -2
  -5  -4   1 3109.46  348.79   1
   5   8  -1 4242.07  433.49  -2
  -5  -4   1 4242.07  433.49   1
  -5  -8   1 4679.67  496.60  -2
   5   4  -1 4679.67  496.60   1
   5   8  -1 4612.49  501.98  -2
  -5  -4   1 4612.49  501.98   1
   5   8  -1 3414.15  368.63  -2
  -5  -4   1 3414.15  368.63   1
  -5  -8   1 3471.76  379.09  -2
   5   4  -1 3471.76  379.09   1
   5   8  -1 4606.61  563.93  -2
  -5  -4   1 4606.61  563.93   1
   5   8  -1 3508.33  396.36  -2
  -5  -4   1 3508.33  396.36   1
   5   8  -1 3467.97  415.48  -2
  -5  -4   1 3467.97  415.48   1
  -5  -8   016550.40  926.56  -2
   5   4   016550.40  926.56   1
   5   8   017969.20  892.59  -2
  -5  -4   017969.20  892.59   1
  -5  -8   016448.60  885.31  -2
   5   4   016448.60  885.31   1
   5   8   016102.90  772.88  -2
  -5  -4   016102.90  772.88   1
  -5  -8   015101.20  543.53  -2
   5   4   015101.20  543.53   1
  -5  -8   014498.70  717.78  -2
   5   4   014498.70  717.78   1
  -5  -8   016787.50  831.38  -2
   5   4   016787.50  831.38   1
   5   8   019014.40 1058.18  -2
  -5  -4   019014.40 1058.18   1
   5   8   017604.50  876.28  -2
  -5  -4   017604.50  876.28   1
   5   8   017611.90  989.39  -2
  -5  -4   017611.90  989.39   1
   5   8   016137.00  873.31  -2
  -5  -4   016137.00  873.31   1
   5   8   1 1349.65  257.05  -2
  -5  -4  -1 1349.65  257.05   1
   5   8   1 1242.10  165.56  -2
  -5  -4  -1 1242.10  165.56   1
  -5  -8  -1 1431.25  282.86  -2
   5   4   1 1431.25  282.86   1
   5   8   1  -85.03  114.71  -2
  -5  -4  -1  -85.03  114.71   1
   5   8   1  961.06  220.40  -2
  -5  -4  -1  961.06  220.40   1
  -5  -8  -1 1046.35  240.49  -2
   5   4   1 1046.35  240.49   1
  -5  -8  -1 1258.66  245.15  -2
   5   4   1 1258.66  245.15   1
   5   8   1 1339.81  277.11  -2
  -5  -4  -1 1339.81  277.11   1
  -5  -8  -1  969.21  171.16  -2
   5   4   1  969.21  171.16   1
   5   8   1  446.04  132.17  -2
  -5  -4  -1  446.04  132.17   1
  -5  -8  -1 1815.59  329.09  -2
   5   4   1 1815.59  329.09   1
   5   8   1 1462.13  299.30  -2
  -5  -4  -1 1462.13  299.30   1
   5   8   1  628.26  191.19  -2
  -5  -4  -1  628.26  191.19   1
  -5  -8  -1 1002.06  230.03  -2
   5   4   1 1002.06  230.03   1
  -5  -8  -1  395.22  137.77  -2
   5   4   1  395.22  137.77   1
   5   8   2 4176.87  335.15  -2
  -5  -4  -2 4176.87  335.15   1
  -5  -8  -2 5130.44  526.20  -2
   5   4   2 5130.44  526.20   1
   5   8   2  103.83   69.00  -2
  -5  -4  -2  103.83   69.00   1
   5   8   2 4352.65  395.59  -2
  -5  -4  -2 4352.65  395.59   1
   5   8   2 5108.66  502.87  -2
  -5  -4  -2 5108.66  502.87   1
  -5  -8  -2 5122.29  490.21  -2
   5   4   2 5122.29  490.21   1
  -5  -8  -2  -80.32  103.75  -2
   5   4   2  -80.32  103.75   1
   5   8   2 4893.79  486.54  -2
  -5  -4  -2 4893.79  486.54   1
  -5  -8  -2 3911.59  378.85  -2
   5   4   2 3911.59  378.85   1
  -5  -8  -2 4255.42  400.84  -2
   5   4   2 4255.42  400.84   1
  -5  -8  -2 4183.55  498.13  -2
   5   4   2 4183.55  498.13   1
  -5  -8  -2 4530.45  478.03  -2
   5   4   2 4530.45  478.03   1
   5   8   2 5137.30  533.83  -2
  -5  -4  -2 5137.30  533.83   1
   5   8   2 5444.75  530.06  -2
  -5  -4  -2 5444.75  530.06   1
   5   8   2 5048.83  488.96  -2
  -5  -4  -2 5048.83  488.96   1
   5   4   3 3616.14  456.42   1
   5   4   3 3507.89  363.76   1
  -5  -4  -3 3569.82  366.70   1
  -5  -4  -3 3770.68  454.24   1
   5   4   3 3611.14  426.14   1
   5   4   3 3940.35  422.79   1
   5   4   3 3451.39  379.28   1
  -5  -4  -3 3805.09  428.23   1
   5   4   3 3499.46  411.77   1
   5   4   3 3261.83  403.68   1
  -5  -4  -3 4233.05  468.50   1
   5   4   3 3632.66  450.13   1
  -5  -4  -3 3435.48  430.85   1
  -5  -4  -3 3713.36  414.83   1
  -5  -4  -3 3388.70  318.62   1
   5   4   4 2639.18  385.21   1
  -5  -4  -4 2565.40  386.88   1
   5   4   4 2415.22  346.82   1
   5   4   4 2514.28  387.72   1
  -5  -4  -4 2850.70  368.18   1
   5   4   4 2013.84  348.98   1
   5   4   4 2980.91  367.85   1
  -5  -4  -4 2201.51  345.10   1
  -5  -4  -4 2898.69  359.33   1
   5   4   4 2693.93  388.37   1
   5   4   4 2647.80  359.84   1
  -5  -4  -4 2346.68  334.65   1
  -5  -4  -4 2537.54  305.04   1
   5   4   5 4567.70  527.59   1
  -5  -4  -5 4095.39  482.40   1
   5   4   5 4322.00  528.76   1
   5   4   5 4698.46  511.60   1
   5   4   5 3747.25  436.81   1
   5   4   5 4556.69  450.36   1
   5   4   5 4280.88  527.40   1
   5   4   5 4199.25  442.29   1
  -5  -4  -5 3858.36  388.25   1
  -5  -4  -5 4411.63  552.77   1
   5   4   623458.90 1291.79   1
  -5  -4  -622955.90 1264.73   1
   5   4   622653.20 1227.28   1
   5   4   624378.00 1187.95   1
   5   4   622857.30 1133.41   1
   5   4   622672.60  980.99   1
   5   4   622647.10 1022.42   1
  -5  -4  -623047.00 1035.68   1
  -5  -4  -624424.40 1362.00   1
   5   4   7 6873.73  750.12   1
   5   4   7 6559.10  696.74   1
   5   4   7 6956.39  643.63   1
   5   4   7 6305.48  514.82   1
  -5  -4  -7 6871.94  613.37   1
   5   4   7 6642.62  563.53   1
  -5  -4  -7 5426.48  675.16   1
   5   4   8  138.54  149.12   1
   5   4   8  154.21  149.39   1
   5   4   8  288.58  169.38   1
   5   4   8  292.61  120.64   1
  -5  -4  -8  141.12  116.88   1
   5   4   8  135.24   88.08   1
  -5  -4  -8   52.35  128.73   1
  -5  -4  -9 3328.83  509.43   1
   5   4   9 3073.46  572.96   1
   5   4   9 2895.48  496.36   1
  -5  -4  -9 2748.07  537.95   1
   5   4   9 2811.10  321.43   1
   5   4   9 3054.00  449.51   1
   5   4   9 3044.71  386.53   1
   5   4  10 2903.44  621.32   1
   5   4  10 1832.72  441.61   1
  -5  -4 -10 2455.28  469.55   1
   5   4  11  597.35  341.62   1
   5   4  11 -238.60  283.45   1
  -5  -4 -11   48.78  178.94   1
  -5  -5   9   69.02  240.41   1
  -5  -5   9  551.05  235.55   1
   5   5  -9   78.98  212.44   1
  -5  -5   8  -17.83  185.48   1
  -5  -5   8  184.23  170.54   1
   5   5  -8 -119.99  224.29   1
  -5  -5   7  871.55  322.58   1
  -5  -5   7  913.30  226.22   1
  -5  -5   7  694.78  258.93   1
   5   5  -7  900.56  299.15   1
  -5  -5   6 3196.41  341.10   1
  -5  -5   6 3432.95  541.03   1
  -5  -5   6 3127.37  386.02   1
   5   5  -6 2889.28  431.81   1
  -5  -5   6 3448.99  441.50   1
   5   5  -6 3432.52  537.90   1
  -5  -5   5  404.57  194.67   1
  -5  -5   5  148.52  108.47   1
   5   5  -5  -13.50  145.94   1
   5   5  -5  497.05  198.15   1
  -5  -5   5  650.36  205.10   1
  -5  -5   4  211.11  127.20   1
   5   5  -4  216.59  137.48   1
   5   5  -4  316.83  149.97   1
   5   5  -4  218.13  133.30   1
  -5  -5   4  311.71  156.58   1
  -5  -5   4  363.72  174.47   1
   5   5  -313971.50  887.41   1
  -5  -5   315220.50  969.57   1
  -5  -5   311582.20  732.40   1
  -5  -5   314589.90  875.11   1
   5   5  -315397.50  924.84   1
  -5  -5   314616.60  928.12   1
  -5  -5   315878.70  799.47   1
   5   5  -314622.80  958.88   1
  -5  -5   2  -96.28  102.69   1
   5   5  -2   -9.92  115.04   1
   5   5  -2  131.25  109.21   1
  -5  -5   2  206.55  140.87   1
  -5  -5   2   36.49  129.51   1
  -5  -5   2 -154.15  137.27   1
   5   5  -2  -97.55  127.87   1
  -5  -5   2 -178.14  124.32   1
   5   5  -2  -35.68  118.69   1
   5   9  -1  640.06  179.26  -2
  -5  -5   1  640.06  179.26   1
  -5  -9   1  148.48  112.40  -2
   5   5  -1  148.48  112.40   1
  -5  -9   1 1096.32  255.24  -2
   5   5  -1 1096.32  255.24   1
   5   9  -1  732.29  243.07  -2
  -5  -5   1  732.29  243.07   1
   5   9  -1  793.27  206.95  -2
  -5  -5   1  793.27  206.95   1
  -5  -9   1  885.77  226.57  -2
   5   5  -1  885.77  226.57   1
   5   9  -1 1045.69  258.80  -2
  -5  -5   1 1045.69  258.80   1
   5   9  -1  802.55  244.83  -2
  -5  -5   1  802.55  244.83   1
   5   9  -1  487.67  170.52  -2
  -5  -5   1  487.67  170.52   1
  -5  -9   1  906.42  251.01  -2
   5   5  -1  906.42  251.01   1
   5   9  -1  802.12  222.25  -2
  -5  -5   1  802.12  222.25   1
  -5  -9   012072.70  819.63  -2
   5   5   012072.70  819.63   1
   5   9   014030.40  914.38  -2
  -5  -5   014030.40  914.38   1
   5   9   010038.10  696.93  -2
  -5  -5   010038.10  696.93   1
   5   9   0 6585.40  554.93  -2
  -5  -5   0 6585.40  554.93   1
  -5  -9   012440.00  799.61  -2
   5   5   012440.00  799.61   1
   5   9   012172.90  811.25  -2
  -5  -5   012172.90  811.25   1
  -5  -9   010066.30  391.52  -2
   5   5   010066.30  391.52   1
  -5  -9   010616.60  644.28  -2
   5   5   010616.60  644.28   1
   5   9   014641.30  926.85  -2
  -5  -5   014641.30  926.85   1
   5   9   013089.70  734.43  -2
  -5  -5   013089.70  734.43   1
   5   9   0 8460.20  645.96  -2
  -5  -5   0 8460.20  645.96   1
  -5  -9  -118740.50 1037.81  -2
   5   5   118740.50 1037.81   1
   5   9   120468.80 1014.97  -2
  -5  -5  -120468.80 1014.97   1
   5   9   119424.40  933.65  -2
  -5  -5  -119424.40  933.65   1
  -5  -9  -119215.80 1008.39  -2
   5   5   119215.80 1008.39   1
   5   9   119781.80 1026.36  -2
  -5  -5  -119781.80 1026.36   1
  -5  -9  -119243.00  716.64  -2
   5   5   119243.00  716.64   1
  -5  -9  -119520.30  927.68  -2
   5   5   119520.30  927.68   1
   5   9   120466.10 1067.62  -2
  -5  -5  -120466.10 1067.62   1
   5   9   119281.20  925.22  -2
  -5  -5  -119281.20  925.22   1
   5   9   119801.40  978.57  -2
  -5  -5  -119801.40  978.57   1
  -5  -9  -2  681.17  226.53  -2
   5   5   2  681.17  226.53   1
  -5  -9  -2 1092.42  257.95  -2
   5   5   2 1092.42  257.95   1
   5   9   2 1368.64  286.68  -2
  -5  -5  -2 1368.64  286.68   1
  -5  -9  -2  739.23  182.80  -2
   5   5   2  739.23  182.80   1
   5   9   2 1059.62  188.46  -2
  -5  -5  -2 1059.62  188.46   1
   5   9   2  992.38  265.19  -2
  -5  -5  -2  992.38  265.19   1
  -5  -9  -2 1193.64  262.31  -2
   5   5   2 1193.64  262.31   1
   5   9   2 1296.29  298.39  -2
  -5  -5  -2 1296.29  298.39   1
  -5  -9  -2  645.68  172.02  -2
   5   5   2  645.68  172.02   1
   5   9   2  505.08  168.13  -2
  -5  -5  -2  505.08  168.13   1
   5   9   2 1135.97  285.39  -2
  -5  -5  -2 1135.97  285.39   1
  -5  -9  -2  -54.06   89.94  -2
   5   5   2  -54.06   89.94   1
   5   9   2 1056.07  255.65  -2
  -5  -5  -2 1056.07  255.65   1
   5   5   316148.40  778.37   1
  -5  -5  -316650.70  803.66   1
  -5  -5  -317155.90  812.34   1
   5   5   316357.40 1002.46   1
  -5  -5  -316323.70  872.02   1
   5   5   317917.80  948.46   1
   5   5   315604.10  893.92   1
  -5  -5  -317454.10  952.73   1
   5   5   316798.60  893.38   1
   5   5   317127.30  923.78   1
  -5  -5  -317760.00  930.82   1
   5   5   317355.20  974.92   1
  -5  -5  -317599.70  972.60   1
  -5  -5  -317626.00  895.56   1
   5   5   417002.80  910.71   1
  -5  -5  -416209.60  895.40   1
   5   5   416227.30 1029.43   1
   5   5   417510.60 1008.26   1
   5   5   417070.10  928.48   1
   5   5   416277.00  967.47   1
   5   5   416088.40  868.45   1
  -5  -5  -416315.60  861.10   1
   5   5   415906.30  991.55   1
  -5  -5  -416603.60  865.28   1
  -5  -5  -415752.00  979.44   1
  -5  -5  -415647.10  813.97   1
   5   5   511763.90  834.35   1
  -5  -5  -511990.90  859.22   1
   5   5   511955.50  916.18   1
   5   5   512234.20  871.25   1
   5   5   511306.70  761.49   1
   5   5   512519.90  916.95   1
   5   5   511872.70  726.54   1
  -5  -5  -511463.20  716.87   1
  -5  -5  -511521.90  732.48   1
  -5  -5  -512069.10  916.23   1
   5   5   6 1131.84  299.06   1
  -5  -5  -6 1053.95  298.29   1
   5   5   6 1289.39  325.80   1
  -5  -5  -6 1087.06  292.70   1
   5   5   6 1356.23  273.83   1
   5   5   6  847.57  207.74   1
  -5  -5  -6  937.49  233.68   1
  -5  -5  -6  969.86  227.04   1
   5   5   7 1308.79  365.06   1
  -5  -5  -7  759.84  274.42   1
   5   5   7 1439.92  369.14   1
   5   5   7  964.09  230.39   1
  -5  -5  -7  846.24  241.96   1
   5   5   7 1021.12  219.23   1
  -5  -5  -7 1275.95  249.24   1
   5   5   8 2203.49  484.17   1
   5   5   8 2801.04  499.42   1
  -5  -5  -8 3230.12  563.23   1
  -5  -5  -8 3078.09  461.94   1
   5   5   8 2882.16  382.68   1
   5   5   8 2596.63  320.46   1
   5   5   9  374.50  291.86   1
  -5  -5  -9  243.64  153.52   1
   5   5   9  497.41  264.85   1
   5   5   9  352.82  169.57   1
  -5  -5 -10 1542.84  397.58   1
   5   5  10  894.56  383.69   1
   5   5  10  893.40  355.94   1
   5   5  11 2567.56  623.51   1
   5   5  11 1727.72  442.95   1
  -5  -5 -11 1875.56  444.71   1
  -5  -6   9  326.69  283.38   1
   5   6  -9  -46.95  201.12   1
  -5  -6   8  176.10  159.80   1
   5   6  -8  123.59  150.47   1
  -5  -6   7  820.16  309.85   1
   5   6  -7  413.11  200.87   1
   5   6  -7  749.41  265.38   1
  -5  -6   7  536.50  191.86   1
  -5  -6   6 1124.22  353.39   1
   5   6  -6 1160.15  289.57   1
   5   6  -6  963.01  318.36   1
  -5  -6   6  793.82  206.71   1
   5   6  -5 1302.37  293.32   1
   5   6  -5 1605.86  386.08   1
  -5  -6   5 1105.26  227.17   1
   5   6  -4 9043.29  734.78   1
   5   6  -410263.00  801.92   1
  -5  -6   4 9644.46  850.74   1
  -5  -6   4 8832.57  565.57   1
   5   6  -4 9084.52  809.38   1
   5   6  -3 2930.38  430.37   1
   5   6  -3 3352.08  460.77   1
  -5  -6   3 2997.08  325.35   1
  -5  -6   3 2541.64  424.29   1
   5   6  -3 2799.81  447.10   1
   5   6  -243472.90 1601.99   1
  -5  -6   241902.70 1572.34   1
   5   6  -245417.30 1637.12   1
  -5  -6   240427.40 1597.11   1
  -5  -6   241055.70 1189.10   1
   5   6  -244619.10 1674.06   1
  -5 -10   1 8846.02  731.38  -2
   5   6  -1 8846.02  731.38   1
  -5 -10   1 8921.19  732.87  -2
   5   6  -1 8921.19  732.87   1
   5  10  -1 4427.26  522.64  -2
  -5  -6   1 4427.26  522.64   1
  -5 -10   1 5496.91  577.47  -2
   5   6  -1 5496.91  577.47   1
  -5 -10   1 5531.17  579.98  -2
   5   6  -1 5531.17  579.98   1
  -5 -10   0 8168.92  697.68  -2
   5   6   0 8168.92  697.68   1
   5  10   0 3247.34  434.70  -2
  -5  -6   0 3247.34  434.70   1
  -5 -10   0 8483.30  697.76  -2
   5   6   0 8483.30  697.76   1
  -5 -10   0 6843.58  306.93  -2
   5   6   0 6843.58  306.93   1
  -5 -10   0 3806.04  460.26  -2
   5   6   0 3806.04  460.26   1
  -5 -10   0 7277.58  509.93  -2
   5   6   0 7277.58  509.93   1
   5  10   0 8609.26  736.03  -2
  -5  -6   0 8609.26  736.03   1
   5  10   0 8450.19  569.02  -2
  -5  -6   0 8450.19  569.02   1
  -5 -10   0 5187.57  537.01  -2
   5   6   0 5187.57  537.01   1
  -5 -10  -1 3991.39  521.18  -2
   5   6   1 3991.39  521.18   1
  -5 -10  -1 4441.38  515.78  -2
   5   6   1 4441.38  515.78   1
   5  10   1 4320.07  506.43  -2
  -5  -6  -1 4320.07  506.43   1
   5  10   1 1193.91  257.29  -2
  -5  -6  -1 1193.91  257.29   1
   5  10   1 3303.25  385.68  -2
  -5  -6  -1 3303.25  385.68   1
   5  10   1 2219.26  340.76  -2
  -5  -6  -1 2219.26  340.76   1
  -5 -10  -1 1626.75  317.93  -2
   5   6   1 1626.75  317.93   1
  -5 -10  -2  173.99   95.53  -2
   5   6   2  173.99   95.53   1
   5  10   2  101.61   94.34  -2
  -5  -6  -2  101.61   94.34   1
  -5 -10  -2   77.45   61.13  -2
   5   6   2   77.45   61.13   1
  -5 -10  -2  220.21  177.91  -2
   5   6   2  220.21  177.91   1
  -5 -10  -2  423.62  189.60  -2
   5   6   2  423.62  189.60   1
  -5 -10  -2   52.66   81.15  -2
   5   6   2   52.66   81.15   1
   5  10   2   56.50   95.16  -2
  -5  -6  -2   56.50   95.16   1
   5  10   2  146.10   95.57  -2
  -5  -6  -2  146.10   95.57   1
  -5 -10  -2  -18.19  103.51  -2
   5   6   2  -18.19  103.51   1
   5  10   2   -4.94  107.55  -2
  -5  -6  -2   -4.94  107.55   1
   5   6   3 5800.79  482.02   1
  -5  -6  -3 5717.67  526.67   1
   5   6   3 6124.62  651.78   1
  -5  -6  -3 6064.10  586.49   1
   5   6   3 5479.50  573.24   1
   5   6   3 5401.33  575.38   1
   5   6   3 5748.51  537.10   1
  -5  -6  -3 6010.83  561.95   1
   5   6   3 5319.41  549.91   1
  -5  -6  -3 5933.88  532.75   1
  -5  -6  -3 5807.25  566.07   1
   5   6   4   58.69  108.99   1
  -5  -6  -4  174.03  141.05   1
   5   6   4  160.75  108.09   1
   5   6   4  471.82  251.37   1
  -5  -6  -4   75.91  101.48   1
   5   6   4   81.77  116.77   1
   5   6   4  287.67  167.06   1
  -5  -6  -4   29.07   83.83   1
  -5  -6  -4  153.68   99.56   1
   5   6   5 6095.18  622.79   1
  -5  -6  -5 6885.20  683.11   1
   5   6   5 6264.61  713.87   1
   5   6   5 6364.84  608.21   1
  -5  -6  -5 5879.01  516.47   1
  -5  -6  -5 6144.39  665.12   1
  -5  -6  -5 6911.69  629.68   1
   5   6   620315.70 1207.75   1
   5   6   618637.70 1241.06   1
   5   6   620788.90 1093.61   1
  -5  -6  -620708.30 1121.33   1
  -5  -6  -617452.80  874.38   1
  -5  -6  -621887.30 1309.65   1
   5   6   7 3500.65  579.18   1
   5   6   7 3535.09  539.45   1
  -5  -6  -7 3376.45  545.20   1
   5   6   7 3130.14  438.74   1
  -5  -6  -7 3668.98  504.80   1
  -5  -6  -7 2913.84  359.54   1
   5   6   8  204.94  196.73   1
   5   6   8  152.05  168.26   1
  -5  -6  -8  -28.92  138.20   1
   5   6   8  205.51  247.74   1
   5   6   9  390.74  246.63   1
  -5  -6  -9  411.24  193.80   1
   5   6   9  632.02  220.45   1
   5   6  10  878.00  391.29   1
   5   6  10  396.69  296.95   1
  -5  -6 -10  393.11  196.84   1
   5   7  -8   64.82  139.17   1
   5   7  -8 -113.89  165.63   1
  -5  -7   8   84.23  198.30   1
   5   7  -7  141.60  197.79   1
  -5  -7   7 -215.55  230.09   1
   5   7  -6   75.07  158.20   1
   5   7  -6  -59.92  136.20   1
  -5  -7   6 -230.13  200.03   1
   5   7  -5  370.71  165.33   1
   5   7  -5  511.61  239.20   1
   5   7  -5  956.61  315.01   1
  -5  -7   5 1134.63  354.02   1
  -5  -7   4 1840.46  226.07   1
   5   7  -4 1653.72  337.69   1
   5   7  -4 1555.06  354.48   1
  -5  -7   4 1726.39  398.26   1
   5   7  -4 1459.74  351.40   1
  -5  -7   3  369.54  106.95   1
   5   7  -3  399.44  200.33   1
   5   7  -3  156.10  146.21   1
  -5  -7   3  483.32  230.25   1
   5   7  -3   53.28  171.78   1
  -5  -7   2  455.83  119.66   1
   5   7  -2  254.25  164.38   1
   5   7  -2  439.98  198.83   1
  -5  -7   2  239.84  171.86   1
   5   7  -2  520.98  236.17   1
  -5 -11   1 4778.37  583.20  -2
   5   7  -1 4778.37  583.20   1
   5  11  -1 3546.93  520.85  -2
  -5  -7   1 3546.93  520.85   1
  -5 -11   1 5316.82  601.30  -2
   5   7  -1 5316.82  601.30   1
   5  11  -1 4133.14  355.89  -2
  -5  -7   1 4133.14  355.89   1
  -5 -11   1 4468.96  557.97  -2
   5   7  -1 4468.96  557.97   1
  -5 -11   019166.80 1149.10  -2
   5   7   019166.80 1149.10   1
   5  11   0 6798.94  689.69  -2
  -5  -7   0 6798.94  689.69   1
  -5 -11   018452.30 1097.57  -2
   5   7   018452.30 1097.57   1
  -5 -11   011961.60  425.56  -2
   5   7   011961.60  425.56   1
  -5 -11   016040.70  504.13  -2
   5   7   016040.70  504.13   1
  -5 -11   017325.80  752.07  -2
   5   7   017325.80  752.07   1
  -5 -11   010426.90  787.93  -2
   5   7   010426.90  787.93   1
   5  11   020902.20  852.60  -2
  -5  -7   020902.20  852.60   1
  -5 -11  -132393.80  810.67  -2
   5   7   132393.80  810.67   1
  -5 -11  -134887.50 1573.30  -2
   5   7   134887.50 1573.30   1
   5  11   133636.60 1502.44  -2
  -5  -7  -133636.60 1502.44   1
  -5 -11  -135624.70 1537.35  -2
   5   7   135624.70 1537.35   1
  -5 -11  -134019.70 1021.06  -2
   5   7   134019.70 1021.06   1
   5  11   136186.30 1483.58  -2
  -5  -7  -136186.30 1483.58   1
  -5 -11  -135441.00 1208.62  -2
   5   7   135441.00 1208.62   1
   5  11   140074.30 1287.48  -2
  -5  -7  -140074.30 1287.48   1
  -5 -11  -2 4189.09  367.93  -2
   5   7   2 4189.09  367.93   1
  -5 -11  -2 4063.08  563.68  -2
   5   7   2 4063.08  563.68   1
   5  11   2 4235.32  541.57  -2
  -5  -7  -2 4235.32  541.57   1
  -5 -11  -2 4024.14  516.56  -2
   5   7   2 4024.14  516.56   1
  -5 -11  -2 3780.79  401.06  -2
   5   7   2 3780.79  401.06   1
   5  11   2 4037.33  497.37  -2
  -5  -7  -2 4037.33  497.37   1
  -5 -11  -2 4370.74  469.71  -2
   5   7   2 4370.74  469.71   1
   5  11   2 4611.07  508.04  -2
  -5  -7  -2 4611.07  508.04   1
   5  11   2 4006.20  447.74  -2
  -5  -7  -2 4006.20  447.74   1
   5   7   3 9729.36  656.41   1
  -5  -7  -3 9267.29  737.81   1
   5   7   3 9547.19  860.11   1
  -5  -7  -3 8425.23  749.50   1
   5   7   3 8246.66  732.52   1
   5   7   3 8306.58  670.52   1
  -5  -7  -3 9004.30  683.09   1
   5   7   3 9065.86  730.83   1
  -5  -7  -310574.20  750.07   1
  -5  -7  -3 8223.79  682.01   1
   5   7   4  949.64  229.18   1
  -5  -7  -4 1204.94  299.26   1
   5   7   4 1360.95  360.64   1
   5   7   4 1169.93  290.27   1
  -5  -7  -4  788.04  232.89   1
   5   7   4 1187.99  277.67   1
  -5  -7  -4 1091.60  261.71   1
  -5  -7  -4  951.88  224.30   1
  -5  -7  -4 1028.58  234.48   1
   5   7   510018.50  815.59   1
   5   7   5 9504.07  914.21   1
   5   7   510364.50  825.80   1
  -5  -7  -5 9138.65  578.06   1
  -5  -7  -5 8584.01  622.47   1
  -5  -7  -5 9726.92  864.14   1
  -5  -7  -5 9935.01  804.49   1
   5   7   6 2967.16  485.76   1
   5   7   6 3523.57  591.42   1
  -5  -7  -6 3190.70  502.14   1
   5   7   6 3377.00  474.85   1
  -5  -7  -6 1624.72  284.70   1
  -5  -7  -7  804.28  255.50   1
   5   7   7  687.62  283.11   1
   5   7   7  332.24  164.14   1
   5   7   7  522.66  218.79   1
   5   7   8 2505.86  516.22   1
   5   7   8 3469.88  621.13   1
   5   7   8 2691.83  438.02   1
  -5  -7  -8 2967.76  523.13   1
   5   7   9 3235.67  623.98   1
   5   7   9 3475.88  635.81   1
  -5  -7  -9 3719.14  607.28   1
   5   7   9 3474.29  499.31   1
   5   8  -7   66.22  181.77   1
   5   8  -7 -216.53  220.68   1
  -5  -8   7  -66.72  178.51   1
   5   8  -6   45.97  146.15   1
  -5  -8   6  300.21  242.36   1
   5   8  -6   -6.48  159.44   1
   5   8  -5  216.26  171.45   1
   5   8  -5  209.01  175.90   1
  -5  -8   5 -182.53  228.22   1
   5   8  -5  146.00  149.65   1
   5   8  -4 7196.42  704.17   1
   5   8  -4 8023.78  798.30   1
  -5  -8   4 8461.67  927.80   1
   5   8  -4 7857.07  831.98   1
   5   8  -3    4.27  128.11   1
   5   8  -3   94.32  166.37   1
  -5  -8   3  383.64  260.59   1
   5   8  -3   -3.44  164.46   1
   5   8  -2 1285.65  325.17   1
   5   8  -2 1386.18  334.67   1
  -5  -8   2 1659.92  392.47   1
   5   8  -2 1228.92  333.42   1
  -5 -12   1  857.79  275.77  -2
   5   8  -1  857.79  275.77   1
  -5 -12   1 1188.47  318.57  -2
   5   8  -1 1188.47  318.57   1
   5  12  -1  494.42  224.85  -2
  -5  -8   1  494.42  224.85   1
  -5 -12   1  865.87  273.62  -2
   5   8  -1  865.87  273.62   1
  -5 -12   0  600.96  104.57  -2
   5   8   0  600.96  104.57   1
  -5 -12   0  922.71  287.49  -2
   5   8   0  922.71  287.49   1
  -5 -12   0  298.18   79.16  -2
   5   8   0  298.18   79.16   1
  -5 -12   0  760.80  263.04  -2
   5   8   0  760.80  263.04   1
  -5 -12   0  522.41  111.77  -2
   5   8   0  522.41  111.77   1
   5  12   0  405.11  222.82  -2
  -5  -8   0  405.11  222.82   1
  -5 -12   0  626.23  220.11  -2
   5   8   0  626.23  220.11   1
  -5 -12   0  353.96  116.96  -2
   5   8   0  353.96  116.96   1
  -5 -12  -1  477.99  206.51  -2
   5   8   1  477.99  206.51   1
  -5 -12  -1  631.56  151.16  -2
   5   8   1  631.56  151.16   1
  -5 -12  -1  425.66  123.20  -2
   5   8   1  425.66  123.20   1
  -5 -12  -1  430.90  192.45  -2
   5   8   1  430.90  192.45   1
  -5 -12  -1  681.12  160.02  -2
   5   8   1  681.12  160.02   1
   5  12   1  772.74  271.57  -2
  -5  -8  -1  772.74  271.57   1
  -5 -12  -1  761.61  238.79  -2
   5   8   1  761.61  238.79   1
  -5 -12  -2 2548.43  316.72  -2
   5   8   2 2548.43  316.72   1
  -5 -12  -2 2886.52  470.78  -2
   5   8   2 2886.52  470.78   1
   5  12   2 3120.45  444.63  -2
  -5  -8  -2 3120.45  444.63   1
   5  12   2 3095.86  506.80  -2
  -5  -8  -2 3095.86  506.80   1
  -5 -12  -2 2990.16  390.36  -2
   5   8   2 2990.16  390.36   1
  -5 -12  -2 3506.90  566.04  -2
   5   8   2 3506.90  566.04   1
   5   8   3 -187.12  171.07   1
   5   8   3   -9.32  101.12   1
   5   8   3  -89.50  221.77   1
  -5  -8  -3  -74.81  150.59   1
   5   8   3   49.82  137.94   1
  -5  -8  -3  -96.51  140.78   1
  -5  -8  -3  304.79  194.93   1
  -5  -8  -3  393.28  241.89   1
  -5  -8  -4  861.37  247.75   1
   5   8   4 1191.33  258.31   1
   5   8   4  795.79  309.43   1
   5   8   4 1064.25  323.66   1
  -5  -8  -4 1091.98  307.70   1
  -5  -8  -4 1016.38  260.03   1
   5   8   5 5909.40  637.45   1
   5   8   5 5575.99  745.38   1
   5   8   5 5992.79  677.45   1
  -5  -8  -5 6013.75  674.03   1
   5   8   6 8551.34  840.05   1
   5   8   6 8038.57  902.29   1
   5   8   6 7515.76  766.82   1
  -5  -8  -6 8361.56  816.94   1
  -5  -8  -7 -150.06  194.94   1
   5   8   7 -197.73  220.44   1
   5   8   7  -49.53  179.31   1
   5   8   8 2148.99  495.77   1
   5   8   8 2615.26  590.26   1
   5   8   8 1406.15  356.15   1
  -5  -8  -8 1668.96  395.96   1
   5   9  -6  181.24  218.01   1
  -5  -9   6  217.84  222.74   1
   5   9  -6  102.02  159.16   1
   5   9  -5    7.91  160.67   1
   5   9  -5 -305.01  235.31   1
  -5  -9   5 -168.42  169.96   1
   5   9  -5  368.09  221.39   1
   5   9  -4   99.34  138.32   1
   5   9  -4  -68.82  193.70   1
  -5  -9   4 -155.93  205.15   1
   5   9  -4   57.96  171.45   1
   5   9  -3 -105.05  206.25   1
  -5  -9   3   53.82  174.12   1
   5   9  -3  375.52  239.24   1
   5   9  -2  476.04  247.14   1
   5   9  -2  849.26  282.83   1
  -5  -9   2  464.77  300.03   1
   5   9  -2  702.72  245.06   1
  -5 -13   1 -190.90  187.16  -2
   5   9  -1 -190.90  187.16   1
  -5 -13   1 -194.53  188.38  -2
   5   9  -1 -194.53  188.38   1
   5  13  -1  197.24  202.29  -2
  -5  -9   1  197.24  202.29   1
  -5 -13   1  107.94  198.91  -2
   5   9  -1  107.94  198.91   1
  -5 -13   0 6101.56  745.75  -2
   5   9   0 6101.56  745.75   1
   5  13   0 5094.37  699.05  -2
  -5  -9   0 5094.37  699.05   1
  -5 -13   0 5926.20  711.17  -2
   5   9   0 5926.20  711.17   1
  -5 -13   0 5825.05  667.83  -2
   5   9   0 5825.05  667.83   1
  -5 -13  -1 7076.93  499.95  -2
   5   9   1 7076.93  499.95   1
  -5 -13  -1 8690.89  889.14  -2
   5   9   1 8690.89  889.14   1
   5  13   1 6561.02  782.01  -2
  -5  -9  -1 6561.02  782.01   1
  -5 -13  -1 8731.76  873.39  -2
   5   9   1 8731.76  873.39   1
  -5 -13  -1 6427.33  675.68  -2
   5   9   1 6427.33  675.68   1
  -5 -13  -2  354.10  285.85  -2
   5   9   2  354.10  285.85   1
  -5 -13  -2  166.49  116.66  -2
   5   9   2  166.49  116.66   1
  -5 -13  -2  342.41  163.08  -2
   5   9   2  342.41  163.08   1
  -5 -13  -2   27.12  167.33  -2
   5   9   2   27.12  167.33   1
   5  13   2  415.45  225.82  -2
  -5  -9  -2  415.45  225.82   1
   5   9   3 3696.59  455.74   1
  -5  -9  -3 4428.91  602.00   1
   5   9   3 4828.15  717.78   1
   5   9   3 3810.17  573.34   1
  -5  -9  -3 3983.28  600.29   1
  -5  -9  -4  781.71  278.10   1
   5   9   4  633.99  230.93   1
   5   9   4  552.87  333.40   1
   5   9   4  914.70  307.90   1
  -5  -9  -4  539.95  253.94   1
  -5  -9  -5  230.58  211.61   1
   5   9   5  246.03  282.61   1
   5   9   5  128.77  181.81   1
   5   9   5  385.65  235.37   1
   5   9   6   -8.90  234.27   1
   5   9   6  136.32  213.77   1
   5   9   6  252.53  218.49   1
  -5  -9  -6  298.35  244.49   1
   5   9   7  199.55  235.19   1
   5   9   7  167.31  238.47   1
  -5  -9  -7   76.36  150.78   1
   5   9   7  -90.90  189.25   1
   5  10  -4  862.61  318.37   1
   5  10  -4  639.92  280.38   1
  -5 -10   4  186.22  183.53   1
   5  10  -4  430.84  192.35   1
   5  10  -3  386.01  254.88   1
   5  10  -3  408.78  219.10   1
  -5 -10   3  497.13  307.23   1
   5  10  -3  663.42  311.16   1
   5  10  -2 1444.20  381.94   1
   5  10  -2  933.58  326.18   1
  -5 -10   2 1485.84  461.11   1
   5  10  -2 1611.54  394.18   1
  -5 -14   1 1915.55  432.21  -2
   5  10  -1 1915.55  432.21   1
  -5 -14   1 3090.08  564.56  -2
   5  10  -1 3090.08  564.56   1
   5  14  -1 2288.94  525.86  -2
  -5 -10   1 2288.94  525.86   1
  -5 -14   1 2225.34  482.24  -2
   5  10  -1 2225.34  482.24   1
  -5 -14   0 1073.46  366.48  -2
   5  10   0 1073.46  366.48   1
  -5 -14   0  706.23  273.93  -2
   5  10   0  706.23  273.93   1
   5  14   0  783.44  321.07  -2
  -5 -10   0  783.44  321.07   1
  -5 -14   0  310.41  216.46  -2
   5  10   0  310.41  216.46   1
  -5 -14  -1   85.81  213.61  -2
   5  10   1   85.81  213.61   1
  -5 -14  -1  160.78  226.22  -2
   5  10   1  160.78  226.22   1
   5  14   1   94.23  214.26  -2
  -5 -10  -1   94.23  214.26   1
  -5 -14  -1  278.40  215.31  -2
   5  10   1  278.40  215.31   1
  -5 -14  -2 3482.14  640.58  -2
   5  10   2 3482.14  640.58   1
  -5 -14  -2 4456.11  660.35  -2
   5  10   2 4456.11  660.35   1
   5  14   2 4289.51  697.21  -2
  -5 -10  -2 4289.51  697.21   1
   5  10   3  733.85  321.23   1
  -5 -10  -3 1008.13  341.32   1
   5  10   3 1009.08  312.01   1
   5  10   3 1288.00  378.36   1
  -5 -10  -3 1370.48  401.52   1
  -5 -10  -4  239.30  151.75   1
   5  10   4   51.22  196.73   1
   5  10   4   11.43  194.71   1
  -5 -10  -4  389.68  300.40   1
   5  10   5  254.31  293.66   1
  -5 -10  -5 -319.73  239.46   1
   5  10   5   19.91  159.92   1
  -5 -15   1 1196.86  368.34  -2
   5  11  -1 1196.86  368.34   1
  -5 -15   1  683.45  280.55  -2
   5  11  -1  683.45  280.55   1
  -5 -15   0 1625.01  432.00  -2
   5  11   0 1625.01  432.00   1
  -5 -15   0  838.20  302.30  -2
   5  11   0  838.20  302.30   1
  -5 -15  -1 4697.56  762.57  -2
   5  11   1 4697.56  762.57   1
  -5 -15  -1 3981.09  572.95  -2
   5  11   1 3981.09  572.95   1
  -5 -15  -2 3877.59  708.14  -2
   5  11   2 3877.59  708.14   1
   6  -6   0  141.88  198.73   1
   6  -6   0 -168.69  228.94   1
  -6   6   0 -152.30  154.10   1
  -6   6  -1  223.95  229.77   1
   6  -6   1  600.63  316.54   1
   6  -6   1  306.48  233.29   1
  -6   6  -2  975.13  387.21   1
   6  -6   2 1196.60  352.66   1
   6  -6   2 1344.19  428.30   1
  -6   6  -3 -118.29  233.15   1
   6  -6   3   -5.54  165.47   1
   6   0  -3 2378.24  572.77  -2
  -6   5   3 2378.24  572.77   1
  -6   0   3 2858.22  478.10  -2
   6  -5  -3 2858.22  478.10   1
   6   0  -3 1825.82  516.84  -2
  -6   5   3 1825.82  516.84   1
  -6   0   3 2231.19  501.81  -2
   6  -5  -3 2231.19  501.81   1
   6   0  -3 2049.39  534.76  -2
  -6   5   3 2049.39  534.76   1
  -6   0   2 -260.90  215.20  -2
   6  -5  -2 -260.90  215.20   1
   6   0  -2  -44.24  180.78  -2
  -6   5   2  -44.24  180.78   1
  -6   0   2 -179.53  187.81  -2
   6  -5  -2 -179.53  187.81   1
   6   0  -2  223.85  179.84  -2
  -6   5   2  223.85  179.84   1
  -6   0   1  549.75  248.03  -2
   6  -5  -1  549.75  248.03   1
   6   0  -1  837.75  318.05  -2
  -6   5   1  837.75  318.05   1
   6   0  -1  829.52  368.93  -2
  -6   5   1  829.52  368.93   1
   6  -5   0  379.33  223.53   1
   6  -5   0  343.24  273.23   1
  -6   5   0  495.61  258.22   1
  -6   5  -1 4386.48  673.81   1
   6  -5   1 4886.13  659.38   1
  -6   5  -1 3453.99  700.87   1
   6  -5   1 4571.45  730.51   1
  -6   5  -2 1369.91  386.39   1
   6  -5   2 1875.35  416.88   1
  -6   5  -2 1649.28  485.69   1
   6  -5   2 1231.91  415.79   1
  -6   5  -3 2824.84  537.06   1
   6  -5   3 3037.26  548.47   1
  -6   5  -3 3862.91  695.27   1
   6  -5   3 3506.39  656.61   1
   6  -5   4 5976.64  778.99   1
  -6   5  -4 6093.17  884.14   1
   6  -5   4 6370.05  878.68   1
  -6   5  -4 5161.35  726.35   1
   6  -5   5 7182.86  852.97   1
  -6   5  -5 6781.81  945.33   1
   6  -5   5 6081.78  869.04   1
  -6   5  -5 5932.93  775.31   1
  -6   5  -6  819.00  337.61   1
   6  -5   6  683.77  311.49   1
  -6   5  -6  517.82  271.83   1
   6  -4  -5  405.25  226.44   1
  -6   4   5   54.56  223.27   1
  -6   4   5  199.33  225.02   1
  -6  -1   4  507.84  221.30  -2
   6  -4  -4  507.84  221.30   1
   6   1  -4  288.38  242.83  -2
  -6   4   4  288.38  242.83   1
  -6  -1   4  668.50  228.19  -2
   6  -4  -4  668.50  228.19   1
   6   1  -4  627.11  319.71  -2
  -6   4   4  627.11  319.71   1
  -6  -1   4  663.40  264.42  -2
   6  -4  -4  663.40  264.42   1
   6   1  -4  951.03  440.44  -2
  -6   4   4  951.03  440.44   1
   6   1  -3 1119.32  369.53  -2
  -6   4   3 1119.32  369.53   1
  -6  -1   3  821.12  202.83  -2
   6  -4  -3  821.12  202.83   1
  -6  -1   3 1171.04  288.02  -2
   6  -4  -3 1171.04  288.02   1
   6   1  -3 1076.33  403.29  -2
  -6   4   3 1076.33  403.29   1
  -6  -1   3 2087.33  435.49  -2
   6  -4  -3 2087.33  435.49   1
   6   1  -3 1390.61  404.95  -2
  -6   4   3 1390.61  404.95   1
  -6  -1   2   97.47  163.90  -2
   6  -4  -2   97.47  163.90   1
  -6  -1   2  224.06  144.46  -2
   6  -4  -2  224.06  144.46   1
   6   1  -2  184.50  186.57  -2
  -6   4   2  184.50  186.57   1
  -6  -1   2  232.11  307.75  -2
   6  -4  -2  232.11  307.75   1
   6   1  -2  230.53  230.84  -2
  -6   4   2  230.53  230.84   1
  -6  -1   1 6439.82  664.16  -2
   6  -4  -1 6439.82  664.16   1
   6   1  -1 6481.14  861.37  -2
  -6   4   1 6481.14  861.37   1
   6   1  -1 7596.70  896.87  -2
  -6   4   1 7596.70  896.87   1
  -6  -1   1 6979.00  827.02  -2
   6  -4  -1 6979.00  827.02   1
  -6  -1   1 6250.87  520.65  -2
   6  -4  -1 6250.87  520.65   1
   6  -4   0  606.36  185.18   1
   6  -4   0  790.90  279.63   1
  -6   4   0  408.73  238.89   1
   6  -4   0 1049.96  328.93   1
  -6   4   0  566.47  260.51   1
   6  -4   1  -86.89  188.30   1
  -6   4  -1   56.06  176.05   1
   6  -4   1  -47.54   84.17   1
   6  -4   1  -77.64  159.49   1
  -6   4  -1  -52.98  211.48   1
  -6   4  -2 3407.01  580.45   1
   6  -4   2 3148.45  525.78   1
  -6   4  -2 3153.02  631.30   1
   6  -4   2 3244.03  578.39   1
   6  -4   2 2537.38  307.83   1
  -6   4  -3  517.17  291.09   1
   6  -4   3 1199.06  328.88   1
  -6   4  -3 1335.65  423.54   1
   6  -4   3 1028.66  318.53   1
   6  -4   4 5283.67  698.68   1
  -6   4  -4 4803.30  771.08   1
   6  -4   4 5749.11  795.07   1
  -6   4  -4 5680.86  729.85   1
   6  -4   5 8604.84  892.13   1
  -6   4  -5 8159.97  986.99   1
   6  -4   5 6598.33  873.40   1
  -6   4  -5 7141.36  824.61   1
  -6   4  -6  226.49  185.39   1
   6  -4   6  651.54  283.30   1
  -6   4  -6  364.50  200.10   1
   6  -4   6  628.64  360.00   1
   6  -4   7 7495.85  873.79   1
  -6   4  -7 6566.90  911.98   1
   6  -4   7 5634.23  839.03   1
  -6   4  -7 6583.57  814.71   1
  -6   4  -8 2960.04  578.35   1
   6  -4   8 3583.78  633.46   1
  -6   3   6  200.48  216.94   1
  -6   3   6  660.63  353.60   1
   6  -3  -6  706.18  269.98   1
  -6   3   6  436.74  230.68   1
  -6   3   5  242.03  266.43   1
  -6   3   5  -80.82  162.07   1
   6  -3  -5   23.20  139.84   1
  -6   3   5  -49.29  168.35   1
   6  -3  -5  -10.08  112.94   1
  -6  -2   4 1569.49  309.09  -2
   6  -3  -4 1569.49  309.09   1
   6   2  -4 1005.47  367.64  -2
  -6   3   4 1005.47  367.64   1
  -6  -2   4 1348.98  276.29  -2
   6  -3  -4 1348.98  276.29   1
   6   2  -4 1420.56  438.55  -2
  -6   3   4 1420.56  438.55   1
  -6  -2   4 1472.72  370.92  -2
   6  -3  -4 1472.72  370.92   1
   6   2  -4 1098.09  394.62  -2
  -6   3   4 1098.09  394.62   1
  -6  -2   3  210.09  111.85  -2
   6  -3  -3  210.09  111.85   1
   6   2  -3   82.55  213.71  -2
  -6   3   3   82.55  213.71   1
  -6  -2   3  109.95  112.81  -2
   6  -3  -3  109.95  112.81   1
   6   2  -3   74.08  178.42  -2
  -6   3   3   74.08  178.42   1
  -6  -2   3  -78.88  121.02  -2
   6  -3  -3  -78.88  121.02   1
   6   2  -3  168.95  204.80  -2
  -6   3   3  168.95  204.80   1
  -6  -2   2   31.94   73.65  -2
   6  -3  -2   31.94   73.65   1
  -6  -2   2   77.48  105.06  -2
   6  -3  -2   77.48  105.06   1
   6   2  -2  223.58  146.65  -2
  -6   3   2  223.58  146.65   1
  -6  -2   2   12.28  153.32  -2
   6  -3  -2   12.28  153.32   1
   6   2  -2  189.57  189.98  -2
  -6   3   2  189.57  189.98   1
  -6  -2   1 1452.24  328.83  -2
   6  -3  -1 1452.24  328.83   1
  -6  -2   1 1196.68  217.85  -2
   6  -3  -1 1196.68  217.85   1
   6   2  -1 2123.97  454.28  -2
  -6   3   1 2123.97  454.28   1
  -6  -2   1 1172.96  350.44  -2
   6  -3  -1 1172.96  350.44   1
   6   2  -1 1124.47  338.17  -2
  -6   3   1 1124.47  338.17   1
   6  -3   0  312.53  161.33   1
  -6   3   0  258.56  226.90   1
   6  -3   0  213.79   91.97   1
   6  -3   0  417.58  256.61   1
  -6   3   0  334.55  237.75   1
   6  -3   1  587.32  132.38   1
   6  -3   1  633.26  224.32   1
  -6   3  -1  693.28  308.74   1
   6  -3   1  830.18  275.28   1
  -6   3  -1  941.87  299.64   1
  -6   3  -2  560.16  251.71   1
   6  -3   2  368.87  134.82   1
   6  -3   2  479.57  244.92   1
  -6   3  -2  975.10  330.12   1
   6  -3   2  364.62  172.47   1
   6  -3   2  353.36  117.07   1
   6  -3   3 8695.36  431.45   1
   6  -3   310642.50  907.67   1
  -6   3  -3 9066.15  967.95   1
   6  -3   3 9126.97  954.81   1
  -6   3  -3 8717.88  868.89   1
  -6   3  -4 6562.66  611.63   1
   6  -3   4 6096.86  701.76   1
   6  -3   4 5594.12  396.59   1
  -6   3  -4 5970.09  782.87   1
   6  -3   4 6888.35  834.31   1
  -6   3  -4 6906.78  783.68   1
   6  -3   511693.80  991.92   1
   6  -3   510120.90  599.80   1
  -6   3  -510991.50 1078.58   1
   6  -3   5 9967.94 1020.28   1
  -6   3  -510049.20  941.82   1
  -6   3  -6  117.75  194.65   1
   6  -3   6  -12.22  191.26   1
  -6   3  -6  268.34  254.52   1
   6  -3   6  351.77  218.66   1
   6  -3   6  389.70  155.11   1
  -6   3  -7  593.71  311.62   1
   6  -3   7  733.64  273.47   1
  -6   3  -7  852.87  386.70   1
   6  -3   7  498.16  256.76   1
  -6   3  -8  740.34  326.88   1
   6  -3   8  891.94  360.12   1
  -6   3  -8  666.67  347.91   1
   6  -3   8   42.35  230.10   1
   6  -3   9 8680.32  957.99   1
  -6   3  -9 7370.78  978.45   1
  -6   3  -9 7040.33  883.32   1
  -6   2   7    4.58  151.39   1
  -6   2   7  281.27  202.09   1
   6  -2  -7   91.91  131.16   1
  -6   2   7  539.77  376.71   1
  -6   2   6  424.66  252.44   1
  -6   2   6 -217.28  232.40   1
   6  -2  -6  134.43  120.90   1
  -6   2   6  593.33  355.67   1
  -6   2   5 -227.17  204.76   1
   6  -2  -5  291.17  141.26   1
  -6   2   5  526.75  281.01   1
   6  -2  -5  284.96  210.07   1
   6  -2  -5  178.03  147.37   1
  -6   2   5  250.85  191.83   1
   6   3  -4 1777.47  438.23  -2
  -6   2   4 1777.47  438.23   1
  -6  -3   4 1884.41  301.43  -2
   6  -2  -4 1884.41  301.43   1
   6   3  -4 1799.96  439.42  -2
  -6   2   4 1799.96  439.42   1
  -6  -3   4 1825.09  401.30  -2
   6  -2  -4 1825.09  401.30   1
  -6  -3   4 1998.92  349.50  -2
   6  -2  -4 1998.92  349.50   1
   6   3  -4 2327.94  496.29  -2
  -6   2   4 2327.94  496.29   1
  -6  -3   3 3488.66  417.12  -2
   6  -2  -3 3488.66  417.12   1
   6   3  -3 2664.35  490.43  -2
  -6   2   3 2664.35  490.43   1
  -6  -3   3 2588.48  344.38  -2
   6  -2  -3 2588.48  344.38   1
   6   3  -3 3353.84  550.82  -2
  -6   2   3 3353.84  550.82   1
  -6  -3   3 3501.15  529.79  -2
   6  -2  -3 3501.15  529.79   1
   6   3  -3 3149.11  563.65  -2
  -6   2   3 3149.11  563.65   1
  -6  -3   213566.00  843.25  -2
   6  -2  -213566.00  843.25   1
   6   3  -210394.80  551.85  -2
  -6   2   210394.80  551.85   1
   6   3  -212787.50 1041.90  -2
  -6   2   212787.50 1041.90   1
  -6  -3   211410.70  625.35  -2
   6  -2  -211410.70  625.35   1
   6   3  -212361.00 1061.38  -2
  -6   2   212361.00 1061.38   1
  -6  -3   212467.50 1002.40  -2
   6  -2  -212467.50 1002.40   1
  -6  -3   118763.50 1019.49  -2
   6  -2  -118763.50 1019.49   1
   6   3  -115202.10  538.18  -2
  -6   2   115202.10  538.18   1
   6   3  -119315.10 1278.60  -2
  -6   2   119315.10 1278.60   1
  -6  -3   116520.00  669.55  -2
   6  -2  -116520.00  669.55   1
   6   3  -119179.70 1280.74  -2
  -6   2   119179.70 1280.74   1
  -6  -3   118201.60 1239.79  -2
   6  -2  -118201.60 1239.79   1
   6  -2   0 3547.68  463.85   1
  -6   2   0 3806.96  578.96   1
   6  -2   0 2885.50  248.63   1
  -6   2   0 4252.49  604.66   1
   6  -2   0 3452.10  546.27   1
   6  -2   1 9825.70  784.55   1
  -6   2  -110024.70  932.80   1
  -6   2  -1 9893.34  889.21   1
   6  -2   110254.30  951.72   1
   6  -2   1 8671.91  369.22   1
  -6   2  -2  687.44  257.38   1
   6  -2   2  697.47  106.57   1
   6  -2   2  633.62  114.69   1
   6  -2   2  860.09  289.65   1
  -6   2  -2  710.99  268.49   1
   6  -2   2  488.86  197.96   1
   6  -2   3 1417.22  147.30   1
  -6   2  -3 1381.41  362.61   1
  -6   2  -3 1970.77  347.27   1
   6  -2   3 1700.95  355.36   1
   6  -2   3 1551.45  173.19   1
  -6   2  -3 1727.67  404.52   1
   6  -2   3 1895.03  415.61   1
  -6   2  -4 4529.36  499.15   1
   6  -2   4 4084.24  544.60   1
   6  -2   4 4222.32  291.73   1
   6  -2   4 3841.23  291.69   1
  -6   2  -4 3573.72  601.48   1
  -6   2  -4 4588.30  618.91   1
   6  -2   4 3575.32  592.83   1
  -6   2  -5 2368.65  448.73   1
  -6   2  -5 2616.84  358.24   1
   6  -2   5 2832.66  477.60   1
   6  -2   5 2571.73  281.66   1
   6  -2   5 2948.56  283.44   1
  -6   2  -5 2516.23  504.63   1
   6  -2   5 3181.37  542.91   1
  -6   2  -6  345.72  203.40   1
   6  -2   6  117.56  172.51   1
  -6   2  -6   57.21  116.64   1
  -6   2  -6  568.15  287.53   1
   6  -2   6  321.25  249.52   1
   6  -2   6  377.86  142.29   1
   6  -2   711682.50  987.49   1
   6  -2   710927.40  740.90   1
  -6   2  -711038.20 1094.59   1
   6  -2   710810.40 1048.32   1
  -6   2  -7 9775.55  963.04   1
  -6   2  -8 1675.54  428.42   1
   6  -2   8 2040.77  449.02   1
  -6   2  -8 2019.06  496.44   1
   6  -2   8 1959.34  556.78   1
   6  -2   9  698.91  268.42   1
  -6   2  -9  215.99  210.22   1
   6  -2   9  894.66  342.11   1
  -6   2  -9  765.77  431.31   1
   6  -2   9  686.05  306.05   1
   6   2  10 1131.39  384.51  -2
  -6   2 -10 1131.39  384.51   1
  -6  -2 -10 1653.42  403.51  -2
   6  -2  10 1653.42  403.51   1
  -6  -2 -10 1964.86  514.93  -2
   6  -2  10 1964.86  514.93   1
  -6   1   8  307.51  297.70   1
   6  -1  -8  519.46  310.67   1
  -6   1   8  247.20  221.46   1
  -6   1   7 -274.97  231.01   1
  -6   1   7  105.09  180.58   1
  -6   1   6  139.16  162.58   1
  -6   1   6  743.24  301.50   1
   6  -1  -6  932.84  321.80   1
  -6   1   6  534.64  268.89   1
  -6   1   5 2011.71  426.14   1
  -6   1   5 2384.03  464.37   1
   6  -1  -5 2775.72  421.91   1
  -6   1   5 2083.72  494.21   1
   6   4  -4 -134.75  130.77  -2
  -6   1   4 -134.75  130.77   1
  -6  -4   4  357.76  157.00  -2
   6  -1  -4  357.76  157.00   1
   6   4  -4  102.14  130.95  -2
  -6   1   4  102.14  130.95   1
   6   4  -4  -75.80  117.63  -2
  -6   1   4  -75.80  117.63   1
  -6  -4   4  101.61  156.41  -2
   6  -1  -4  101.61  156.41   1
  -6  -4   4  -77.86  166.01  -2
   6  -1  -4  -77.86  166.01   1
   6   4  -4  391.17  248.95  -2
  -6   1   4  391.17  248.95   1
   6   4  -3 9214.90  844.83  -2
  -6   1   3 9214.90  844.83   1
   6   4  -3 9545.34  694.94  -2
  -6   1   3 9545.34  694.94   1
  -6  -4   310319.80  680.00  -2
   6  -1  -310319.80  680.00   1
   6   4  -3 9548.72  583.64  -2
  -6   1   3 9548.72  583.64   1
   6   4  -3 9876.39  874.65  -2
  -6   1   3 9876.39  874.65   1
  -6  -4   3 9398.40  610.10  -2
   6  -1  -3 9398.40  610.10   1
   6   4  -310886.30  979.04  -2
  -6   1   310886.30  979.04   1
  -6  -4   3 9911.32  873.57  -2
   6  -1  -3 9911.32  873.57   1
   6   4  -2 7483.61  635.28  -2
  -6   1   2 7483.61  635.28   1
   6   4  -2 7030.76  417.59  -2
  -6   1   2 7030.76  417.59   1
  -6  -4   2 7848.57  617.19  -2
   6  -1  -2 7848.57  617.19   1
   6   4  -2 6952.72  709.63  -2
  -6   1   2 6952.72  709.63   1
  -6  -4   2 6615.93  452.52  -2
   6  -1  -2 6615.93  452.52   1
   6   4  -2 8278.13  832.36  -2
  -6   1   2 8278.13  832.36   1
  -6  -4   2 7512.94  756.97  -2
   6  -1  -2 7512.94  756.97   1
  -6  -4   1  459.05  188.89  -2
   6  -1  -1  459.05  188.89   1
   6   4  -1  199.61  192.30  -2
  -6   1   1  199.61  192.30   1
  -6  -4   1   23.67   56.73  -2
   6  -1  -1   23.67   56.73   1
  -6  -4   1  379.24  177.52  -2
   6  -1  -1  379.24  177.52   1
   6   4  -1   40.27   37.51  -2
  -6   1   1   40.27   37.51   1
   6   4  -1  271.91  209.84  -2
  -6   1   1  271.91  209.84   1
   6  -1   0 2422.94  375.12   1
   6  -1   0 2035.72  154.15   1
  -6   1   0 2214.39  418.24   1
   6  -1   0 2932.45  490.55   1
  -6   1   0 3133.48  508.33   1
   6  -1   120363.60 1068.88   1
  -6   1  -120449.90 1250.02   1
   6  -1   119924.00 1267.90   1
  -6   1  -120011.40 1240.21   1
  -6   1  -226910.60 1267.18   1
   6  -1   226311.40 1257.95   1
  -6   1  -225864.70 1414.88   1
   6  -1   227903.50 1515.28   1
  -6   1  -225729.00 1395.85   1
  -6   1  -329089.20 1268.77   1
   6  -1   328722.40 1351.92   1
  -6   1  -331240.50 1582.09   1
   6  -1   328737.90 1537.24   1
  -6   1  -328712.60 1484.15   1
  -6   1  -4  211.97  192.64   1
  -6   1  -4  329.79  179.62   1
   6  -1   4 -100.94  165.15   1
   6  -1   4   71.60   51.03   1
  -6   1  -4  -72.07  130.76   1
  -6   1  -4  191.30  200.27   1
   6  -1   4   86.64   50.52   1
   6  -1   4   84.52  132.75   1
  -6   1  -5 1830.96  409.37   1
  -6   1  -5 1417.23  270.30   1
   6  -1   5 1370.54  303.28   1
  -6   1  -5 1456.55  268.11   1
  -6   1  -5 1814.18  406.93   1
   6  -1   5 1637.72  187.30   1
   6  -1   5 1327.95  335.96   1
   6  -1   5 1435.10  202.82   1
   6  -1   6   85.62   85.58   1
  -6   1  -6   69.53  136.25   1
  -6   1  -6   62.99  115.41   1
   6  -1   6  -26.27  130.41   1
  -6   1  -6  158.17  126.19   1
   6  -1   6   96.48   75.20   1
  -6   1  -6  -15.04  198.78   1
   6  -1   6  -61.77  146.79   1
   6  -1   7  212.24  113.84   1
  -6   1  -7  227.61  214.67   1
   6  -1   7   97.36  140.86   1
  -6   1  -7 -153.82  199.53   1
   6  -1   8 1390.84  296.20   1
  -6   1  -8 1807.09  444.08   1
   6  -1   8 1279.76  336.05   1
  -6   1  -8 1777.49  474.20   1
   6  -1   8 1407.48  357.93   1
   6  -1   916028.80 1180.77   1
   6  -1   914420.20 1022.31   1
   6  -1   914972.10 1284.00   1
  -6   1  -914962.40 1265.67   1
  -6  -3 -10 2726.51  484.82  -2
   6  -1  10 2726.51  484.82   1
   6   3  10 3520.68  657.57  -2
  -6   1 -10 3520.68  657.57   1
  -6  -3 -10 3971.81  619.41  -2
   6  -1  10 3971.81  619.41   1
  -6  -3 -10 3293.67  621.00  -2
   6  -1  10 3293.67  621.00   1
  -6   0   8   24.68  174.80   1
   6   0  -8  137.63  204.52   1
  -6   0   8  240.61  189.44   1
  -6   0   7  -39.51  132.32   1
   6   0  -7  160.15  193.45   1
  -6   0   7  161.41  205.03   1
  -6   0   6  222.89  215.07   1
   6   0  -6  188.21  152.21   1
  -6   0   6 -134.93  145.50   1
  -6   0   6   60.90  166.67   1
  -6   0   5  130.28  138.12   1
  -6   0   5  354.05  221.52   1
   6   0  -5  236.15  139.01   1
  -6   0   5  316.95  197.30   1
  -6   0   5  434.26  263.13   1
   6   5  -4  290.81  166.37  -2
  -6   0   4  290.81  166.37   1
   6   5  -4  642.38  222.05  -2
  -6   0   4  642.38  222.05   1
   6   5  -4  367.60  181.56  -2
  -6   0   4  367.60  181.56   1
  -6  -5   4  646.19  235.32  -2
   6   0  -4  646.19  235.32   1
   6   5  -4  353.68  205.82  -2
  -6   0   4  353.68  205.82   1
  -6  -5   4  755.25  267.50  -2
   6   0  -4  755.25  267.50   1
   6   5  -4  203.15  186.93  -2
  -6   0   4  203.15  186.93   1
   6   5  -3  291.22  138.00  -2
  -6   0   3  291.22  138.00   1
   6   5  -3   44.10  127.03  -2
  -6   0   3   44.10  127.03   1
  -6  -5   3  246.27  138.85  -2
   6   0  -3  246.27  138.85   1
   6   5  -3  132.29  127.95  -2
  -6   0   3  132.29  127.95   1
   6   5  -3  216.42  127.59  -2
  -6   0   3  216.42  127.59   1
  -6  -5   3  169.47  161.70  -2
   6   0  -3  169.47  161.70   1
   6   5  -3   31.32  133.86  -2
  -6   0   3   31.32  133.86   1
   6   5  -3   73.46   72.82  -2
  -6   0   3   73.46   72.82   1
  -6  -5   2 3714.48  400.65  -2
   6   0  -2 3714.48  400.65   1
   6   5  -2 3642.10  284.87  -2
  -6   0   2 3642.10  284.87   1
   6   5  -2 2460.99  341.06  -2
  -6   0   2 2460.99  341.06   1
  -6  -5   2 3642.95  324.28  -2
   6   0  -2 3642.95  324.28   1
   6   5  -2 3852.59  511.95  -2
  -6   0   2 3852.59  511.95   1
   6   5  -2 3170.84  261.54  -2
  -6   0   2 3170.84  261.54   1
   6   5  -2 4137.31  579.51  -2
  -6   0   2 4137.31  579.51   1
  -6  -5   2 3547.69  524.26  -2
   6   0  -2 3547.69  524.26   1
  -6  -5   1 3025.92  395.76  -2
   6   0  -1 3025.92  395.76   1
   6   5  -1 1949.16  324.34  -2
  -6   0   1 1949.16  324.34   1
  -6  -5   1 2222.22  382.39  -2
   6   0  -1 2222.22  382.39   1
   6   5  -1 2723.99  427.14  -2
  -6   0   1 2723.99  427.14   1
   6   5  -1 3168.34  512.17  -2
  -6   0   1 3168.34  512.17   1
  -6  -5   1 3489.87  521.84  -2
   6   0  -1 3489.87  521.84   1
  -6   0   0  170.26  163.21   1
   6   0   0  120.84  102.82   1
   6   0   0  134.62  125.71   1
  -6   0   0  219.19  168.78   1
   6   0   0  413.64  206.13   1
  -6   0   0  436.35  196.38   1
  -6   0  -110233.70  778.81   1
   6   0   1 9748.12  723.44   1
   6   0   1 9348.02  760.53   1
  -6   0  -1 9489.97  808.23   1
   6   0   1 8262.63  793.52   1
  -6   0  -1 8712.39  795.46   1
  -6   0  -2   98.14  101.48   1
  -6   0  -2  -82.91  116.51   1
   6   0   2  255.96  164.08   1
  -6   0  -2  121.81  122.46   1
  -6   0  -2   55.18  109.70   1
   6   0   2  458.77  229.73   1
  -6   0  -3 4575.94  571.28   1
  -6   0  -3 4451.31  498.58   1
   6   0   3 4274.94  520.16   1
  -6   0  -3 4386.63  471.79   1
  -6   0  -3 4725.24  594.09   1
   6   0   3 4794.71  632.30   1
  -6   0  -3 4824.51  592.20   1
  -6   0  -4 2135.01  422.23   1
   6   0   4 2469.79  362.68   1
  -6   0  -4 2480.53  366.32   1
   6   0   4 2252.00  159.43   1
  -6   0  -4 2510.96  349.44   1
   6   0   4 2307.62  401.50   1
   6   0   4 2036.23  152.37   1
  -6   0  -4 2099.02  410.95   1
   6   0   4 2615.05  455.80   1
   6   0   514717.50  867.35   1
  -6   0  -516049.60  896.35   1
   6   0   515958.20 1016.61   1
  -6   0  -514944.00  816.25   1
  -6   0  -515157.60 1115.59   1
   6   0   514746.40  609.21   1
   6   0   515971.70 1135.80   1
  -6   0  -514394.90 1063.77   1
   6   0   514791.60  497.18   1
   6   0   6 7211.70  598.64   1
   6   0   6 7103.50  707.62   1
  -6   0  -6 8054.64  844.31   1
   6   0   6 6627.60  491.29   1
   6   0   6 7318.89  774.40   1
  -6   0  -6 7652.05  786.77   1
   6   0   6 7146.83  438.34   1
   6   0   7 9152.12  653.97   1
   6   0   7 9981.18  867.46   1
  -6   0  -710406.40 1014.25   1
   6   0   7 9843.67  701.19   1
   6   0   7 9558.68  910.23   1
  -6   0  -7 9615.24  932.85   1
  -6   0  -8 1610.01  414.68   1
   6   0   8 1300.91  266.55   1
   6   0   8 1277.83  287.30   1
   6   0   8 1441.30  371.23   1
  -6   0  -8 1556.24  442.27   1
   6   0   8 1284.88  349.49   1
  -6   0  -9 3725.13  643.84   1
   6   0   9 3527.34  509.84   1
   6   0   9 4071.44  585.27   1
   6   0   9 3194.35  564.71   1
   6   4  10 6715.22  741.00  -2
  -6   0 -10 6715.22  741.00   1
  -6  -4 -10 6161.68  744.95  -2
   6   0  10 6161.68  744.95   1
  -6  -4 -10 6847.27  791.58  -2
   6   0  10 6847.27  791.58   1
  -6  -4 -10 5464.16  780.28  -2
   6   0  10 5464.16  780.28   1
   6   4  10 6384.11  854.79  -2
  -6   0 -10 6384.11  854.79   1
   6   4  11  316.50  278.23  -2
  -6   0 -11  316.50  278.23   1
  -6  -4 -11  263.89  254.59  -2
   6   0  11  263.89  254.59   1
  -6  -1   8  113.71  151.40   1
  -6  -1   8  227.10  143.49   1
   6   1  -8  111.39  202.72   1
  -6  -1   7  202.30  173.72   1
  -6  -1   7  179.52  170.41   1
   6   1  -7   18.54  133.00   1
  -6  -1   7  144.72  177.28   1
  -6  -1   6  159.65  137.58   1
  -6  -1   6  291.52  171.97   1
   6   1  -6   78.94  115.38   1
  -6  -1   6  -18.33  143.72   1
  -6  -1   6  141.46  181.92   1
  -6  -1   5  732.48  216.64   1
  -6  -1   5  881.39  236.65   1
  -6  -1   5  426.67  177.24   1
  -6  -1   5  555.22  173.13   1
   6   1  -5  491.13  198.84   1
  -6  -1   5 1040.27  295.19   1
  -6  -1   5  686.92  293.84   1
   6   6  -4   76.44  117.30  -2
  -6  -1   4   76.44  117.30   1
   6   6  -4  233.06  138.23  -2
  -6  -1   4  233.06  138.23   1
   6   6  -4  -37.92  118.43  -2
  -6  -1   4  -37.92  118.43   1
  -6  -6   4  -32.33   87.11  -2
   6   1  -4  -32.33   87.11   1
   6   6  -4  130.74  143.23  -2
  -6  -1   4  130.74  143.23   1
   6   6  -4  -60.27  130.75  -2
  -6  -1   4  -60.27  130.75   1
   6   6  -4   54.67  160.70  -2
  -6  -1   4   54.67  160.70   1
   6   6  -3 1178.90  220.11  -2
  -6  -1   3 1178.90  220.11   1
  -6  -6   3 1248.69  238.85  -2
   6   1  -3 1248.69  238.85   1
   6   6  -3 1050.81  242.97  -2
  -6  -1   3 1050.81  242.97   1
   6   6  -3  717.95  175.02  -2
  -6  -1   3  717.95  175.02   1
   6   6  -3 1163.73  215.74  -2
  -6  -1   3 1163.73  215.74   1
  -6  -6   3  903.57  192.54  -2
   6   1  -3  903.57  192.54   1
   6   6  -3  994.65  260.06  -2
  -6  -1   3  994.65  260.06   1
  -6  -6   3 1226.97  335.61  -2
   6   1  -3 1226.97  335.61   1
   6   6  -3 1263.92  332.66  -2
  -6  -1   3 1263.92  332.66   1
   6   6  -2  810.93  154.43  -2
  -6  -1   2  810.93  154.43   1
  -6  -6   2 1376.10  208.43  -2
   6   1  -2 1376.10  208.43   1
   6   6  -2 1221.79  239.73  -2
  -6  -1   2 1221.79  239.73   1
  -6  -6   2 1378.28  250.21  -2
   6   1  -2 1378.28  250.21   1
   6   6  -2 1387.21  280.34  -2
  -6  -1   2 1387.21  280.34   1
  -6  -6   2 1868.42  386.10  -2
   6   1  -2 1868.42  386.10   1
   6   6  -2 1619.18  201.85  -2
  -6  -1   2 1619.18  201.85   1
   6   6  -2 1617.92  336.52  -2
  -6  -1   2 1617.92  336.52   1
   6   6  -1 3603.42  433.25  -2
  -6  -1   1 3603.42  433.25   1
  -6  -6   1 4219.44  444.61  -2
   6   1  -1 4219.44  444.61   1
   6   6  -1 2592.80  161.61  -2
  -6  -1   1 2592.80  161.61   1
  -6  -1   0 7440.51  626.72   1
   6   1   0 7211.86  588.04   1
   6   1   0 7665.21  624.76   1
  -6  -1   0 7432.55  655.70   1
   6   1   0 7512.36  730.10   1
  -6  -1   0 7018.04  695.78   1
   6   1   1 5722.24  582.60   1
  -6  -1  -1 6547.25  603.02   1
   6   1   1 5770.60  548.28   1
  -6  -1  -1 6527.05  600.65   1
   6   1   1 6080.37  573.00   1
  -6  -1  -1 5769.29  576.33   1
  -6  -1  -1 6322.37  607.03   1
   6   1   1 5355.12  611.24   1
  -6  -1  -1 6410.59  656.83   1
   6   1   2 3742.95  464.69   1
  -6  -1  -2 2991.34  413.49   1
  -6  -1  -2 3430.31  454.36   1
   6   1   2 3156.40  414.20   1
  -6  -1  -2 3471.75  413.31   1
   6   1   2 3279.86  442.35   1
  -6  -1  -2 3774.15  486.78   1
   6   1   2 3341.33  500.32   1
  -6  -1  -2 3449.32  481.40   1
  -6  -1  -3 9038.31  736.41   1
   6   1   3 8984.67  692.86   1
   6   1   310164.10  754.17   1
  -6  -1  -3 8612.76  638.60   1
   6   1   3 9772.57  783.34   1
  -6  -1  -3 9477.73  782.51   1
   6   1   3 9195.04  808.89   1
  -6  -1  -3 9457.23  726.92   1
  -6  -1  -3 9328.01  808.36   1
  -6  -1  -413675.30  949.95   1
   6   1   413149.30  830.73   1
  -6  -1  -413829.40  869.44   1
   6   1   414788.80  928.03   1
   6   1   413590.10  469.86   1
  -6  -1  -414285.40  802.45   1
  -6  -1  -413988.10  981.28   1
   6   1   413188.70  980.41   1
  -6  -1  -414395.40 1023.19   1
   6   1   5 4945.87  515.39   1
  -6  -1  -5 5057.04  518.47   1
   6   1   5 4445.65  343.96   1
   6   1   5 4848.31  556.36   1
  -6  -1  -5 5471.92  485.02   1
  -6  -1  -5 4699.52  610.37   1
   6   1   5 5097.26  623.89   1
  -6  -1  -5 5246.88  631.41   1
  -6  -1  -6   23.05  120.69   1
  -6  -1  -6   18.75   70.64   1
   6   1   6  116.58   93.23   1
   6   1   6   -8.09   52.30   1
  -6  -1  -6   62.50  133.14   1
   6   1   6  171.71  139.06   1
   6   1   7 2968.91  402.04   1
  -6  -1  -7 3036.56  379.47   1
   6   1   7 3730.70  528.33   1
  -6  -1  -7 3056.26  533.87   1
   6   1   7 2949.69  495.60   1
   6   1   8 6496.25  599.17   1
   6   1   8 7774.23  735.91   1
  -6  -1  -8 7212.04  629.90   1
   6   1   8 7232.14  788.50   1
  -6  -1  -8 7534.85  853.09   1
   6   1   8 6188.39  542.09   1
   6   1   911606.70  930.40   1
  -6  -1  -911925.20  874.47   1
   6   1   911132.00 1004.34   1
   6   1   911145.40  801.35   1
  -6  -1  -912060.40 1155.42   1
   6   5  10 4384.84  728.80  -2
  -6  -1 -10 4384.84  728.80   1
   6   5  10 4241.33  570.12  -2
  -6  -1 -10 4241.33  570.12   1
  -6  -5 -10 3943.67  560.02  -2
   6   1  10 3943.67  560.02   1
  -6  -5 -10 3574.30  580.80  -2
   6   1  10 3574.30  580.80   1
   6   5  11 1942.31  557.99  -2
  -6  -1 -11 1942.31  557.99   1
   6   5  11 1330.32  365.95  -2
  -6  -1 -11 1330.32  365.95   1
  -6  -5 -11 1122.93  334.18  -2
   6   1  11 1122.93  334.18   1
  -6  -5 -11  917.25  312.68  -2
   6   1  11  917.25  312.68   1
  -6  -2   9  100.44  158.59   1
   6   2  -9  302.32  242.04   1
  -6  -2   8  -69.48  144.27   1
   6   2  -8 -169.34  184.60   1
  -6  -2   8  -36.98  155.32   1
  -6  -2   8   13.31  111.03   1
  -6  -2   7   11.45  117.95   1
  -6  -2   7  174.33  198.97   1
   6   2  -7  173.68  182.65   1
  -6  -2   7  216.78  163.74   1
  -6  -2   7  318.79  247.37   1
  -6  -2   6 2713.53  458.78   1
   6   2  -6 3438.47  520.89   1
  -6  -2   6 2742.64  425.50   1
  -6  -2   6 2635.53  396.64   1
  -6  -2   6 3060.51  538.72   1
  -6  -2   5 -159.03  128.21   1
   6   2  -5   32.06  164.82   1
  -6  -2   5  -79.60   97.91   1
  -6  -2   5  -69.85   99.78   1
  -6  -2   5 -184.15  159.68   1
  -6  -2   5   34.53  125.57   1
  -6  -2   5  146.22  153.07   1
   6   7  -4    9.33   86.22  -2
  -6  -2   4    9.33   86.22   1
  -6  -7   4   94.31  138.13  -2
   6   2  -4   94.31  138.13   1
   6   7  -4   67.90   86.80  -2
  -6  -2   4   67.90   86.80   1
   6   7  -4  316.68  156.77  -2
  -6  -2   4  316.68  156.77   1
   6   7  -4    1.37   99.55  -2
  -6  -2   4    1.37   99.55   1
   6   7  -4   42.85  114.29  -2
  -6  -2   4   42.85  114.29   1
   6   7  -4  143.26  174.00  -2
  -6  -2   4  143.26  174.00   1
   6   7  -3  449.72  141.59  -2
  -6  -2   3  449.72  141.59   1
   6   7  -3  501.44  159.55  -2
  -6  -2   3  501.44  159.55   1
   6   7  -3  453.99  159.74  -2
  -6  -2   3  453.99  159.74   1
  -6  -7   3  651.56  172.70  -2
   6   2  -3  651.56  172.70   1
   6   7  -3  673.94  162.04  -2
  -6  -2   3  673.94  162.04   1
   6   7  -3  472.23  152.87  -2
  -6  -2   3  472.23  152.87   1
   6   7  -3  500.32  231.63  -2
  -6  -2   3  500.32  231.63   1
   6   7  -2 1096.87  217.55  -2
  -6  -2   2 1096.87  217.55   1
   6   7  -2  779.48  205.93  -2
  -6  -2   2  779.48  205.93   1
  -6  -7   2  972.78  205.44  -2
   6   2  -2  972.78  205.44   1
   6   7  -2  996.20  176.19  -2
  -6  -2   2  996.20  176.19   1
   6   7  -2  777.49  203.38  -2
  -6  -2   2  777.49  203.38   1
  -6  -7   2  701.59  224.15  -2
   6   2  -2  701.59  224.15   1
   6   7  -2  646.40  235.38  -2
  -6  -2   2  646.40  235.38   1
   6   7  -2  832.81  170.66  -2
  -6  -2   2  832.81  170.66   1
   6   7  -114090.40  829.78  -2
  -6  -2   114090.40  829.78   1
  -6  -7   116700.90  841.91  -2
   6   2  -116700.90  841.91   1
   6   7  -116665.60  571.58  -2
  -6  -2   116665.60  571.58   1
  -6  -7   117950.30  851.85  -2
   6   2  -117950.30  851.85   1
   6   7  -112050.00  745.52  -2
  -6  -2   112050.00  745.52   1
  -6  -7   116962.80 1089.51  -2
   6   2  -116962.80 1089.51   1
   6   7  -118854.00 1108.36  -2
  -6  -2   118854.00 1108.36   1
   6   7  -118385.80  565.95  -2
  -6  -2   118385.80  565.95   1
  -6  -2   0  -50.23  114.68   1
   6   2   0   -7.42  131.51   1
  -6  -2   0  221.59  179.58   1
   6   2   0  209.63  135.64   1
   6   2   0   51.01   69.73   1
  -6  -2   0   85.92   40.28   1
   6   2   0   12.87  104.24   1
  -6  -2   0  156.84   40.41   1
   6   2   0  310.63  158.86   1
  -6  -2   0  208.23  124.38   1
  -6  -2  -1   75.87  132.22   1
   6   2   1  123.05  131.36   1
  -6  -2  -1   76.24   81.34   1
  -6  -2  -1   14.22  121.20   1
  -6  -2  -1  123.74  116.72   1
   6   2   1   68.46  112.06   1
  -6  -2  -1  384.55  233.45   1
   6   2   1  -13.98   87.77   1
  -6  -2  -1  195.68  129.76   1
   6   2   1  492.28  201.21   1
  -6  -2  -1  435.78  200.67   1
   6   2   1  160.02  111.73   1
  -6  -2  -2 7559.78  592.77   1
   6   2   2 7271.89  647.25   1
  -6  -2  -2 8179.70  692.73   1
  -6  -2  -2 7744.58  671.16   1
   6   2   2 7640.57  639.86   1
  -6  -2  -2 7856.53  629.73   1
   6   2   2 7457.53  616.41   1
  -6  -2  -2 7936.38  651.57   1
   6   2   2 7090.16  673.01   1
   6   2   2 7808.28  720.05   1
  -6  -2  -2 7956.72  744.47   1
  -6  -2  -2 7707.05  726.76   1
  -6  -2  -3 2005.41  374.81   1
  -6  -2  -3 1443.39  286.50   1
   6   2   3 2302.88  367.26   1
  -6  -2  -3 2197.11  357.99   1
   6   2   3 1483.22  294.87   1
   6   2   3 1590.18  154.86   1
  -6  -2  -3 2031.85  324.37   1
   6   2   3 1933.05  336.26   1
  -6  -2  -3 1667.43  326.90   1
   6   2   3 2189.83  402.89   1
  -6  -2  -4 7023.42  646.34   1
   6   2   4 7323.69  642.00   1
  -6  -2  -4 7676.10  668.99   1
   6   2   4 7653.85  656.64   1
  -6  -2  -4 6214.44  296.62   1
   6   2   4 6288.64  401.37   1
  -6  -2  -4 7130.50  578.69   1
   6   2   4 7378.51  698.00   1
  -6  -2  -4 6991.15  682.99   1
   6   2   4 7145.45  702.16   1
  -6  -2  -4 7103.80  706.76   1
  -6  -2  -5 4439.67  548.41   1
   6   2   5 4101.65  475.32   1
   6   2   5 3931.03  357.56   1
   6   2   5 4380.05  517.77   1
  -6  -2  -5 3903.16  314.16   1
  -6  -2  -5 4166.40  434.11   1
  -6  -2  -5 4146.82  545.53   1
   6   2   5 3793.44  506.91   1
  -6  -2  -5 4183.63  569.85   1
  -6  -2  -6   59.90  147.18   1
   6   2   6 -131.26  134.90   1
   6   2   6  261.00  154.10   1
  -6  -2  -6  111.26  103.36   1
  -6  -2  -6 -113.74  141.38   1
   6   2   6   58.77  133.61   1
   6   2   7 3784.31  475.33   1
  -6  -2  -7 4197.70  622.15   1
   6   2   7 3647.15  424.40   1
   6   2   7 4708.91  557.23   1
  -6  -2  -7 3945.22  429.55   1
   6   2   7 4497.80  588.39   1
   6   2   8 9215.31  975.37   1
   6   2   8 6774.12  593.35   1
   6   2   8 8163.36  723.94   1
   6   2   8 8107.82  753.46   1
  -6  -2  -8 7943.49  653.12   1
   6   2   8 8260.31  811.17   1
  -6  -2  -8 8294.51  909.53   1
   6   2   9 3683.89  669.90   1
  -6  -2  -9 4414.36  728.63   1
   6   2   9 2724.26  428.46   1
  -6  -2  -9 3430.29  490.41   1
   6   2   9 3609.64  518.98   1
   6   2   9 3588.60  549.01   1
  -6  -6 -10 1065.78  391.33  -2
   6   2  10 1065.78  391.33   1
  -6  -6 -10 1147.38  314.52  -2
   6   2  10 1147.38  314.52   1
   6   6  10 1490.09  447.05  -2
  -6  -2 -10 1490.09  447.05   1
  -6  -6 -10 1109.18  295.06  -2
   6   2  10 1109.18  295.06   1
   6   6  10 1131.03  298.63  -2
  -6  -2 -10 1131.03  298.63   1
  -6  -6 -10 1292.65  365.63  -2
   6   2  10 1292.65  365.63   1
  -6  -6 -11   -2.07  196.77  -2
   6   2  11   -2.07  196.77   1
   6   6  11  -22.10  162.08  -2
  -6  -2 -11  -22.10  162.08   1
  -6  -6 -11  551.23  260.93  -2
   6   2  11  551.23  260.93   1
   6   6  11  636.74  252.25  -2
  -6  -2 -11  636.74  252.25   1
  -6  -6 -11  507.10  253.79  -2
   6   2  11  507.10  253.79   1
   6   3  -9  196.35  189.41   1
  -6  -3   9  528.89  282.20   1
   6   3  -8   32.35  155.07   1
  -6  -3   8  112.31  205.92   1
  -6  -3   8  153.37  211.04   1
   6   3  -7  151.90  136.67   1
  -6  -3   7   14.91  124.83   1
  -6  -3   7    1.86  102.01   1
  -6  -3   7  -56.69  101.72   1
  -6  -3   7  337.44  232.60   1
  -6  -3   6 1392.04  362.42   1
  -6  -3   6  735.40  194.36   1
  -6  -3   6  982.59  259.04   1
  -6  -3   6 1249.60  340.65   1
  -6  -3   5 1688.08  330.33   1
  -6  -3   5 1853.53  296.08   1
  -6  -3   5 1931.63  293.60   1
  -6  -3   5 1831.90  278.45   1
  -6  -3   5 2196.39  440.52   1
   6   8  -4  730.93  208.97  -2
  -6  -3   4  730.93  208.97   1
   6   8  -4  721.92  212.36  -2
  -6  -3   4  721.92  212.36   1
   6   8  -4  575.74  162.12  -2
  -6  -3   4  575.74  162.12   1
   6   8  -4  386.94  101.39  -2
  -6  -3   4  386.94  101.39   1
   6   8  -4  454.53  145.24  -2
  -6  -3   4  454.53  145.24   1
   6   8  -4  794.07  262.48  -2
  -6  -3   4  794.07  262.48   1
   6   8  -3  948.32  231.46  -2
  -6  -3   3  948.32  231.46   1
   6   8  -3 1030.80  214.19  -2
  -6  -3   3 1030.80  214.19   1
   6   8  -3  945.14  173.66  -2
  -6  -3   3  945.14  173.66   1
   6   8  -3  897.71  214.15  -2
  -6  -3   3  897.71  214.15   1
   6   8  -3  883.94  186.74  -2
  -6  -3   3  883.94  186.74   1
   6   8  -3 1086.44  291.50  -2
  -6  -3   3 1086.44  291.50   1
  -6  -8   2   74.01  115.79  -2
   6   3  -2   74.01  115.79   1
   6   8  -2  330.37   99.32  -2
  -6  -3   2  330.37   99.32   1
   6   8  -2  265.50  113.54  -2
  -6  -3   2  265.50  113.54   1
  -6  -8   2  239.49  123.93  -2
   6   3  -2  239.49  123.93   1
   6   8  -2  279.37  115.09  -2
  -6  -3   2  279.37  115.09   1
   6   8  -2  390.43  137.37  -2
  -6  -3   2  390.43  137.37   1
   6   8  -2  369.31  128.18  -2
  -6  -3   2  369.31  128.18   1
   6   8  -2  154.70  130.53  -2
  -6  -3   2  154.70  130.53   1
   6   8  -1 2856.85  386.58  -2
  -6  -3   1 2856.85  386.58   1
  -6  -8   1 3468.71  420.26  -2
   6   3  -1 3468.71  420.26   1
   6   8  -1 2512.59  281.26  -2
  -6  -3   1 2512.59  281.26   1
  -6  -3   0  229.63  114.77   1
  -6  -3   0  223.47   96.97   1
   6   3   0  298.08  156.71   1
  -6  -3   0  333.01  163.03   1
   6   3   0  473.99  166.70   1
   6   3   0  408.83  182.27   1
   6   3   0  236.28  107.28   1
  -6  -3   0  184.15   75.28   1
  -6  -3   0  345.34  124.94   1
  -6  -3   0  173.40   77.01   1
   6   3   0  207.56  150.98   1
   6   3   0  132.79  108.83   1
  -6  -3  -1 8064.65  503.02   1
   6   3   1 7549.02  674.35   1
  -6  -3  -1 9617.92  766.10   1
  -6  -3  -1 8078.26  401.73   1
  -6  -3  -1 9180.32  705.76   1
   6   3   1 8418.71  638.57   1
  -6  -3  -1 7237.26  316.14   1
   6   3   1 8533.36  657.54   1
  -6  -3  -1 8536.51  680.30   1
   6   3   1 8389.91  576.09   1
  -6  -3  -1 8057.56  579.52   1
   6   3   1 7343.45  394.75   1
   6   3   1 8039.66  687.89   1
   6   3   1 7835.85  721.91   1
  -6  -3  -1 9625.92  807.03   1
  -6  -3  -1 8029.05  698.08   1
  -6  -3  -1 7788.18  631.77   1
  -6  -3  -251573.50 1401.78   1
   6   3   252360.50 1739.60   1
  -6  -3  -256354.50 1840.61   1
   6   3   251114.10 1579.64   1
   6   3   252603.30 1604.21   1
  -6  -3  -254873.40 1690.27   1
   6   3   254046.90 1568.58   1
   6   3   245114.80  999.91   1
  -6  -3  -253975.40 1593.88   1
   6   3   251805.60 1770.27   1
   6   3   253159.60 1825.56   1
  -6  -3  -257660.50 1934.43   1
  -6  -3  -249351.80 1757.24   1
  -6  -3  -247795.40  771.02   1
  -6  -3  -319325.20  943.38   1
   6   3   317945.70 1029.61   1
  -6  -3  -320813.30 1124.39   1
   6   3   318517.10  971.22   1
   6   3   319888.40  969.99   1
  -6  -3  -320059.10 1002.16   1
   6   3   316927.00  675.46   1
   6   3   319370.60 1017.89   1
  -6  -3  -318630.10 1001.30   1
  -6  -3  -317282.70  527.53   1
   6   3   319686.40 1106.39   1
  -6  -3  -320677.10 1155.07   1
  -6  -3  -319415.30 1119.72   1
  -6  -3  -422933.20 1121.44   1
   6   3   422866.20 1169.70   1
   6   3   423753.60 1134.79   1
   6   3   423765.20 1056.66   1
   6   3   424001.50  922.83   1
  -6  -3  -424401.40 1075.61   1
   6   3   424323.40 1218.58   1
  -6  -3  -421943.40  700.90   1
   6   3   423154.40 1207.48   1
  -6  -3  -424632.00 1303.67   1
  -6  -3  -5  846.93  177.38   1
  -6  -3  -5  936.03  316.76   1
   6   3   5 1054.66  272.69   1
  -6  -3  -5  649.39  230.63   1
   6   3   5  650.13  224.01   1
   6   3   5  718.81  198.75   1
  -6  -3  -5 1084.75  240.11   1
   6   3   5  641.65  231.80   1
   6   3   611478.80  922.42   1
   6   3   610602.30  825.51   1
   6   3   6 9696.58  759.13   1
   6   3   610210.60  674.19   1
  -6  -3  -610384.70  677.79   1
  -6  -3  -610782.00  630.71   1
   6   3   610649.90  848.36   1
  -6  -3  -611519.40  970.63   1
   6   3   714762.30 1152.68   1
   6   3   714360.80  998.72   1
   6   3   714015.40  885.97   1
   6   3   714981.50  967.92   1
  -6  -3  -714395.90  822.17   1
   6   3   714733.50 1007.65   1
  -6  -3  -715027.10 1170.23   1
   6   3   8 1386.21  422.92   1
   6   3   8 1078.16  328.59   1
   6   3   8 1254.65  324.44   1
  -6  -3  -8 1069.78  337.18   1
  -6  -3  -8  837.13  232.85   1
   6   3   8  987.97  281.74   1
   6   3   9 2203.53  593.55   1
  -6  -3  -9 1306.83  399.23   1
   6   3   9  846.08  283.20   1
   6   3   9 1675.71  431.40   1
  -6  -3  -9 1482.92  442.30   1
   6   3   9 1015.30  330.66   1
  -6  -7 -10 1131.37  470.31  -2
   6   3  10 1131.37  470.31   1
  -6  -7 -10 1373.60  375.69  -2
   6   3  10 1373.60  375.69   1
   6   7  10 1505.24  434.87  -2
  -6  -3 -10 1505.24  434.87   1
  -6  -7 -10 1372.42  333.04  -2
   6   3  10 1372.42  333.04   1
   6   7  10 1768.88  388.30  -2
  -6  -3 -10 1768.88  388.30   1
  -6  -7 -10 1874.95  426.83  -2
   6   3  10 1874.95  426.83   1
  -6  -7 -11 1506.26  571.73  -2
   6   3  11 1506.26  571.73   1
  -6  -7 -11  826.77  344.01  -2
   6   3  11  826.77  344.01   1
  -6  -7 -11  452.91  240.24  -2
   6   3  11  452.91  240.24   1
   6   7  11  568.99  255.86  -2
  -6  -3 -11  568.99  255.86   1
  -6  -4   9   40.83  141.71   1
  -6  -4   9  388.04  260.58   1
   6   4  -9   18.43  199.89   1
  -6  -4   8  349.08  249.84   1
   6   4  -8  113.18  142.44   1
  -6  -4   8  598.24  309.19   1
   6   4  -7  150.97  146.93   1
  -6  -4   7  109.82  185.09   1
  -6  -4   6   38.46  166.53   1
  -6  -4   6   92.48  123.79   1
   6   4  -6 -204.16  191.06   1
  -6  -4   6   87.27  171.89   1
  -6  -4   5  192.50  162.28   1
  -6  -4   5  223.48  101.46   1
  -6  -4   5   82.47   96.37   1
  -6  -4   5   87.70   77.34   1
   6   4  -5  410.76  232.10   1
  -6  -4   5   28.64  109.25   1
   6   9  -4   33.65   52.83  -2
  -6  -4   4   33.65   52.83   1
   6   9  -4  228.77  157.18  -2
  -6  -4   4  228.77  157.18   1
   6   9  -4   27.75   61.97  -2
  -6  -4   4   27.75   61.97   1
   6   9  -4   -1.98  110.77  -2
  -6  -4   4   -1.98  110.77   1
   6   9  -4  -58.25  102.05  -2
  -6  -4   4  -58.25  102.05   1
  -6  -9   3  382.08  213.93  -2
   6   4  -3  382.08  213.93   1
   6   9  -3  190.70   77.79  -2
  -6  -4   3  190.70   77.79   1
   6   9  -3  128.05   86.78  -2
  -6  -4   3  128.05   86.78   1
  -6  -9   3  135.23  157.59  -2
   6   4  -3  135.23  157.59   1
   6   9  -3  145.41   82.80  -2
  -6  -4   3  145.41   82.80   1
   6   9  -3  200.13  139.12  -2
  -6  -4   3  200.13  139.12   1
   6   9  -3  122.44  130.90  -2
  -6  -4   3  122.44  130.90   1
   6   9  -3  106.57  132.98  -2
  -6  -4   3  106.57  132.98   1
  -6  -9   2 6364.81  652.66  -2
   6   4  -2 6364.81  652.66   1
   6   9  -2 3737.18  427.29  -2
  -6  -4   2 3737.18  427.29   1
  -6  -9   2 5667.39  574.58  -2
   6   4  -2 5667.39  574.58   1
   6   9  -2 5499.78  463.97  -2
  -6  -4   2 5499.78  463.97   1
   6   9  -2 5664.38  505.15  -2
  -6  -4   2 5664.38  505.15   1
   6   9  -2 5236.41  319.47  -2
  -6  -4   2 5236.41  319.47   1
   6   9  -2 5801.56  586.36  -2
  -6  -4   2 5801.56  586.36   1
  -6  -9   121283.50 1152.79  -2
   6   4  -121283.50 1152.79   1
   6   9  -121257.80 1035.82  -2
  -6  -4   121257.80 1035.82   1
  -6  -9   119742.20 1076.40  -2
   6   4  -119742.20 1076.40   1
   6   9  -119761.60  803.90  -2
  -6  -4   119761.60  803.90   1
   6   9  -119662.10  873.15  -2
  -6  -4   119662.10  873.15   1
   6   9  -119225.40  682.36  -2
  -6  -4   119225.40  682.36   1
   6   9  -120330.90 1066.26  -2
  -6  -4   120330.90 1066.26   1
  -6  -4   0  661.06  207.95   1
   6   4   0  121.37   78.93   1
   6   4   0  423.19  220.34   1
  -6  -4   0  239.31   62.31   1
  -6  -4   0  281.48  126.88   1
   6   4   0  277.76  174.05   1
   6   4   0  747.42  280.22   1
   6   4   0  237.94  111.58   1
  -6  -4   0  374.19  130.49   1
   6   4   0  426.77  208.76   1
  -6  -4   0  337.11  119.43   1
   6   4   0  403.74  180.79   1
  -6  -4  -1 2235.83  379.48   1
  -6  -4  -1 2357.16  222.95   1
   6   4   1 2439.19  396.92   1
  -6  -4  -1 2149.71  263.17   1
   6   4   1 2461.92  377.08   1
   6   4   1 2577.85  300.64   1
   6   4   1 2701.42  397.00   1
   6   4   1 2287.57  284.22   1
   6   4   1 2964.88  465.57   1
  -6  -4  -1 2642.77  418.19   1
   6   4   1 2411.89  365.61   1
  -6  -4  -210308.90  497.45   1
  -6  -4  -2 9903.26  548.63   1
  -6  -4  -210140.90  565.85   1
   6   4   2 9935.20  736.03   1
   6   4   2 9739.66  717.43   1
  -6  -4  -2 9657.85  727.76   1
   6   4   2 9473.69  574.57   1
   6   4   2 9880.37  654.77   1
   6   4   2 9962.61  803.72   1
   6   4   210182.60  786.24   1
  -6  -4  -211380.00  856.92   1
   6   4   211194.40  838.05   1
  -6  -4  -2 9260.71  745.26   1
  -6  -4  -327022.00 1036.71   1
   6   4   326976.20 1294.55   1
   6   4   326847.30 1217.73   1
   6   4   327794.50 1193.86   1
  -6  -4  -328467.30 1224.48   1
   6   4   325648.10  994.01   1
   6   4   325943.40 1157.38   1
   6   4   326268.20 1268.06   1
   6   4   326234.20 1283.18   1
  -6  -4  -329120.10 1361.48   1
  -6  -4  -326865.80 1310.14   1
  -6  -4  -326180.60  823.91   1
   6   4   4 5927.17  551.55   1
  -6  -4  -4 7433.74  619.33   1
   6   4   4 6375.29  650.68   1
   6   4   4 6240.97  604.23   1
   6   4   4 6748.62  584.33   1
  -6  -4  -4 5909.44  559.89   1
   6   4   4 6773.84  641.11   1
   6   4   4 6642.66  636.53   1
  -6  -4  -4 6763.29  647.70   1
  -6  -4  -4 6652.47  448.24   1
  -6  -4  -4 6604.09  688.99   1
   6   4   514719.10  947.20   1
  -6  -4  -515772.10  965.38   1
   6   4   514394.90  992.79   1
   6   4   514566.00  941.58   1
   6   4   514777.90  854.13   1
  -6  -4  -515575.70  889.65   1
   6   4   514103.60  911.34   1
  -6  -4  -514284.20  720.66   1
  -6  -4  -515798.60 1110.80   1
   6   4   617998.00 1145.40   1
   6   4   615921.70 1071.09   1
   6   4   615908.10  987.01   1
   6   4   616632.40  966.91   1
   6   4   617478.70  923.43   1
  -6  -4  -615871.00  835.96   1
   6   4   616846.80 1005.42   1
  -6  -4  -616407.10 1166.74   1
   6   4   723268.20 1425.24   1
   6   4   722746.90 1314.72   1
   6   4   720629.00 1160.49   1
   6   4   723379.40 1050.35   1
  -6  -4  -722848.90 1082.95   1
   6   4   724825.70 1244.02   1
  -6  -4  -723914.80 1498.69   1
   6   4   8 4990.58  700.46   1
   6   4   8 3872.45  570.54   1
   6   4   8 4705.72  577.17   1
   6   4   8 4363.91  435.73   1
  -6  -4  -8 4136.75  494.53   1
   6   4   8 4774.96  562.49   1
  -6  -4  -8 5196.20  747.11   1
   6   4   9  834.90  364.73   1
   6   4   9 1194.07  364.10   1
  -6  -4  -9  499.93  258.70   1
   6   4   9  801.73  280.92   1
   6   4   9 1226.44  312.67   1
  -6  -4  -9 1135.52  321.40   1
  -6  -8 -10 2182.72  569.77  -2
   6   4  10 2182.72  569.77   1
  -6  -8 -10 1693.53  457.63  -2
   6   4  10 1693.53  457.63   1
   6   8  10 2863.18  608.96  -2
  -6  -4 -10 2863.18  608.96   1
  -6  -8 -10 1650.34  377.39  -2
   6   4  10 1650.34  377.39   1
   6   8  10 2238.85  441.28  -2
  -6  -4 -10 2238.85  441.28   1
  -6  -8 -11  290.80  307.55  -2
   6   4  11  290.80  307.55   1
  -6  -8 -11   84.62  181.19  -2
   6   4  11   84.62  181.19   1
  -6  -8 -11  673.60  357.13  -2
   6   4  11  673.60  357.13   1
   6   8  11  437.54  272.42  -2
  -6  -4 -11  437.54  272.42   1
  -6  -5   8  222.03  175.34   1
   6   5  -8  118.40  179.71   1
  -6  -5   8  250.77  166.69   1
  -6  -5   7  505.52  243.91   1
   6   5  -7  506.00  296.10   1
  -6  -5   7  364.97  234.73   1
  -6  -5   6  707.86  270.20   1
   6   5  -6  665.19  261.78   1
  -6  -5   6  557.00  240.57   1
  -6  -5   5 -209.09  158.34   1
  -6  -5   5  -47.96  116.43   1
   6   5  -5  801.90  275.93   1
   6   5  -5  606.71  250.34   1
  -6  -5   5  354.43  169.29   1
   6  10  -4 3568.98  448.52  -2
  -6  -5   4 3568.98  448.52   1
  -6 -10   4 3152.89  468.61  -2
   6   5  -4 3152.89  468.61   1
   6  10  -4 3196.42  433.79  -2
  -6  -5   4 3196.42  433.79   1
  -6 -10   4 3366.55  525.03  -2
   6   5  -4 3366.55  525.03   1
   6  10  -4 3057.00  457.11  -2
  -6  -5   4 3057.00  457.11   1
  -6 -10   3 1415.64  336.21  -2
   6   5  -3 1415.64  336.21   1
  -6 -10   3 1165.68  311.05  -2
   6   5  -3 1165.68  311.05   1
   6  10  -3 1008.81  229.46  -2
  -6  -5   3 1008.81  229.46   1
  -6 -10   3 1351.74  366.62  -2
   6   5  -3 1351.74  366.62   1
   6  10  -3 1557.93  310.33  -2
  -6  -5   3 1557.93  310.33   1
   6  10  -3 1158.58  257.17  -2
  -6  -5   3 1158.58  257.17   1
   6  10  -2 1588.89  309.52  -2
  -6  -5   2 1588.89  309.52   1
  -6 -10   2 1243.99  298.75  -2
   6   5  -2 1243.99  298.75   1
   6  10  -2 1287.64  259.47  -2
  -6  -5   2 1287.64  259.47   1
  -6 -10   2 1517.77  328.49  -2
   6   5  -2 1517.77  328.49   1
   6  10  -2  985.70  245.49  -2
  -6  -5   2  985.70  245.49   1
  -6 -10   1 8456.38  743.71  -2
   6   5  -1 8456.38  743.71   1
   6  10  -1 7990.56  586.73  -2
  -6  -5   1 7990.56  586.73   1
  -6 -10   1 8483.83  728.61  -2
   6   5  -1 8483.83  728.61   1
   6  10  -1 8464.08  641.41  -2
  -6  -5   1 8464.08  641.41   1
   6  10  -1 8761.63  677.36  -2
  -6  -5   1 8761.63  677.36   1
  -6  -5   0  682.83  213.97   1
   6   5   0  421.33  191.62   1
   6   5   0  339.31  153.25   1
   6   5   0  445.13  110.30   1
  -6  -5   0  759.71  199.84   1
   6   5   0  472.42  181.16   1
  -6  -5  -1 -211.93  143.54   1
   6   5   1   97.02  139.30   1
   6   5   1  101.52  156.42   1
  -6  -5  -1  -30.14   76.00   1
  -6  -5  -1 -201.85  125.08   1
   6   5   1  102.74  101.22   1
  -6  -5  -212701.80  579.03   1
   6   5   212194.40  897.98   1
  -6  -5  -211844.10  718.65   1
   6   5   212232.10  842.31   1
   6   5   211933.00  690.92   1
   6   5   211857.50  901.14   1
   6   5   213325.60  891.38   1
  -6  -5  -213596.40  934.84   1
  -6  -5  -211632.00  833.75   1
   6   5   3  383.80  183.18   1
  -6  -5  -3   32.94  144.17   1
   6   5   3  284.56  131.56   1
   6   5   3  210.40  160.02   1
  -6  -5  -3  293.29  136.36   1
   6   5   3  240.83  178.55   1
  -6  -5  -3  370.13  117.03   1
   6   5   3  103.49  104.65   1
   6   5   3  204.91  138.28   1
   6   5   3  286.98  146.99   1
  -6  -5  -3  138.58   93.18   1
   6   5   3   47.01   97.06   1
   6   5   4 9295.75  681.02   1
  -6  -5  -410157.60  710.02   1
   6   5   410986.80  892.66   1
   6   5   410782.70  812.59   1
   6   5   410552.20  772.03   1
   6   5   4 9848.94  741.04   1
   6   5   4 9918.93  782.67   1
   6   5   410145.80  784.38   1
  -6  -5  -410549.30  791.29   1
  -6  -5  -411159.50  875.41   1
  -6  -5  -4 9574.95  611.91   1
  -6  -5  -5  269.38  132.05   1
   6   5   5  680.75  232.34   1
  -6  -5  -5  594.37  270.76   1
   6   5   5  142.80  153.95   1
  -6  -5  -5  563.07  227.21   1
   6   5   5  370.03  190.82   1
   6   5   5   54.82  129.12   1
   6   5   5  324.13  176.56   1
   6   5   6   82.15  154.25   1
   6   5   6  169.26  155.12   1
   6   5   6   87.68  143.13   1
  -6  -5  -6  355.13  203.30   1
   6   5   6  273.61  133.14   1
  -6  -5  -6   55.75   84.07   1
   6   5   6  270.32  171.92   1
   6   5   7  259.02  167.88   1
  -6  -5  -7  303.95  238.44   1
   6   5   7   89.79  142.64   1
  -6  -5  -7   69.14  103.81   1
   6   5   7  195.24  200.30   1
   6   5   7   85.16   98.56   1
   6   5   7  415.96  172.23   1
  -6  -5  -8 -167.41  215.25   1
   6   5   8  160.55  158.25   1
  -6  -5  -8  113.43  168.60   1
   6   5   8  366.42  218.60   1
   6   5   8    8.27  128.20   1
   6   5   8   78.57   97.27   1
  -6  -5  -9 2255.98  481.60   1
   6   5   9 2368.09  610.43   1
   6   5   9 1734.45  448.37   1
  -6  -5  -9 2698.00  585.22   1
  -6  -9 -10 4387.50  760.58  -2
   6   5  10 4387.50  760.58   1
  -6  -9 -10 4137.69  677.09  -2
   6   5  10 4137.69  677.09   1
   6   9  10 3703.09  577.12  -2
  -6  -5 -10 3703.09  577.12   1
  -6  -6   8   39.72  149.11   1
   6   6  -8  203.55  247.31   1
  -6  -6   7   81.80  225.54   1
   6   6  -7  105.20  211.26   1
   6   6  -6  307.85  189.41   1
  -6  -6   6  316.98  165.01   1
  -6  -6   6   38.02  176.09   1
   6   6  -5 1704.79  422.97   1
   6   6  -5 1801.73  441.88   1
  -6  -6   5 1354.65  368.33   1
  -6  -6   5 1282.88  285.77   1
   6  11  -4  231.45  149.93  -2
  -6  -6   4  231.45  149.93   1
  -6 -11   4  393.62  203.01  -2
   6   6  -4  393.62  203.01   1
  -6 -11   4   98.56  142.48  -2
   6   6  -4   98.56  142.48   1
  -6 -11   4  102.56  183.09  -2
   6   6  -4  102.56  183.09   1
   6  11  -4   18.19  132.77  -2
  -6  -6   4   18.19  132.77   1
  -6 -11   3 5859.88  643.39  -2
   6   6  -3 5859.88  643.39   1
  -6 -11   3 5873.36  641.35  -2
   6   6  -3 5873.36  641.35   1
   6  11  -3 4735.03  585.56  -2
  -6  -6   3 4735.03  585.56   1
   6  11  -3 5039.98  502.26  -2
  -6  -6   3 5039.98  502.26   1
  -6 -11   3 5487.78  657.63  -2
   6   6  -3 5487.78  657.63   1
  -6 -11   2 4490.96  569.85  -2
   6   6  -2 4490.96  569.85   1
   6  11  -2 4133.85  486.30  -2
  -6  -6   2 4133.85  486.30   1
  -6 -11   2 4363.43  550.00  -2
   6   6  -2 4363.43  550.00   1
   6  11  -2 3894.92  499.77  -2
  -6  -6   2 3894.92  499.77   1
   6  11  -2 4516.29  466.89  -2
  -6  -6   2 4516.29  466.89   1
  -6 -11   2 4041.42  534.71  -2
   6   6  -2 4041.42  534.71   1
   6  11  -1  466.28  173.80  -2
  -6  -6   1  466.28  173.80   1
   6  11  -1  731.40  200.93  -2
  -6  -6   1  731.40  200.93   1
  -6 -11   1  370.25  158.58  -2
   6   6  -1  370.25  158.58   1
  -6 -11   1  385.04  191.60  -2
   6   6  -1  385.04  191.60   1
  -6 -11   1  586.17  242.45  -2
   6   6  -1  586.17  242.45   1
   6  11  -1  320.42  179.87  -2
  -6  -6   1  320.42  179.87   1
   6   6   0 1566.13  301.01   1
  -6  -6   0 1889.89  323.47   1
   6   6   0 2167.12  414.41   1
   6   6   0 1629.11  150.63   1
   6   6   0 2477.65  426.43   1
  -6  -6   0 1797.90  326.95   1
   6   6   0 1675.97  293.62   1
   6   6   1  173.87  145.59   1
  -6  -6  -1  168.73  146.57   1
   6   6   1  163.15  142.52   1
   6   6   1  166.76  170.60   1
   6   6   1   70.00   82.69   1
  -6  -6  -1  162.41  139.07   1
   6   6   1  188.43  150.43   1
   6   6   2 3889.02  528.50   1
  -6  -6  -2 3889.54  470.19   1
   6   6   2 3682.48  482.59   1
   6   6   2 3555.26  377.50   1
   6   6   2 3455.36  481.17   1
   6   6   2 3925.37  488.04   1
  -6  -6  -2 3736.17  505.71   1
  -6  -6  -2 3712.10  471.95   1
   6   6   3  261.42  147.27   1
   6   6   3   28.66   94.04   1
  -6  -6  -3  113.13  151.38   1
   6   6   3  100.37  137.96   1
  -6  -6  -3  263.74  119.07   1
   6   6   3  -38.30  132.74   1
   6   6   3   32.82  109.12   1
  -6  -6  -3  197.55  123.40   1
  -6  -6  -3  179.33  120.64   1
  -6  -6  -3  180.10  136.75   1
   6   6   3  101.80  120.53   1
  -6  -6  -4  242.98  125.63   1
   6   6   4  293.44  150.22   1
  -6  -6  -4  661.23  237.82   1
   6   6   4  262.59  180.22   1
  -6  -6  -4  381.04  195.27   1
   6   6   4  458.36  203.56   1
   6   6   4  408.13  196.21   1
  -6  -6  -4  299.89  170.99   1
   6   6   5  667.75  222.91   1
  -6  -6  -5  624.16  235.39   1
   6   6   5  905.96  292.89   1
  -6  -6  -5  905.09  258.89   1
  -6  -6  -5  698.33  205.31   1
   6   6   5  660.42  211.40   1
   6   6   6 9717.75  860.22   1
   6   6   6 9388.62  919.22   1
   6   6   610548.40  811.12   1
  -6  -6  -6 9646.46  752.03   1
  -6  -6  -611518.20 1002.74   1
   6   6   7 6752.00  766.27   1
   6   6   7 7221.20  829.14   1
   6   6   7 6264.25  628.70   1
  -6  -6  -7 6034.31  631.40   1
  -6  -6  -7 5387.70  731.07   1
   6   6   8   48.72  213.76   1
   6   6   8  480.08  298.38   1
  -6  -6  -8   25.10  182.36   1
  -6  -6  -8  239.35  211.92   1
   6   6   8 -128.38  109.07   1
   6   6   9 2804.10  601.19   1
   6   6   9 2694.33  552.24   1
  -6  -6  -9 2604.03  470.50   1
   6  10  10  262.74  235.48  -2
  -6  -6 -10  262.74  235.48   1
  -6 -10 -10  817.31  380.87  -2
   6   6  10  817.31  380.87   1
  -6 -10 -10  385.58  266.61  -2
   6   6  10  385.58  266.61   1
   6   7  -7  148.52  185.27   1
   6   7  -7  634.48  261.04   1
  -6  -7   7  509.63  298.94   1
   6   7  -6 1137.09  340.97   1
   6   7  -6 1268.58  352.27   1
  -6  -7   6  835.83  320.12   1
   6   7  -5 2689.45  472.16   1
   6   7  -5 2120.75  432.77   1
   6   7  -5 2175.00  482.99   1
  -6  -7   5 2360.59  499.92   1
   6  12  -4  567.44  165.29  -2
  -6  -7   4  567.44  165.29   1
  -6 -12   4  812.91  306.78  -2
   6   7  -4  812.91  306.78   1
  -6 -12   4 1078.17  382.86  -2
   6   7  -4 1078.17  382.86   1
   6  12  -4  205.37  209.28  -2
  -6  -7   4  205.37  209.28   1
  -6 -12   4  728.12  283.38  -2
   6   7  -4  728.12  283.38   1
   6  12  -3  928.54  217.09  -2
  -6  -7   3  928.54  217.09   1
  -6 -12   3  903.66  273.67  -2
   6   7  -3  903.66  273.67   1
   6  12  -3  335.55  213.28  -2
  -6  -7   3  335.55  213.28   1
  -6 -12   3  776.69  286.21  -2
   6   7  -3  776.69  286.21   1
  -6 -12   2 3208.51  487.99  -2
   6   7  -2 3208.51  487.99   1
  -6 -12   2 2945.10  468.21  -2
   6   7  -2 2945.10  468.21   1
   6  12  -2 3173.26  365.81  -2
  -6  -7   2 3173.26  365.81   1
   6  12  -2  640.90  232.83  -2
  -6  -7   2  640.90  232.83   1
  -6 -12   2 1480.01  345.88  -2
   6   7  -2 1480.01  345.88   1
  -6 -12   1 9105.27  833.84  -2
   6   7  -1 9105.27  833.84   1
   6  12  -1 7355.99  744.35  -2
  -6  -7   1 7355.99  744.35   1
  -6 -12   1 8653.62  801.03  -2
   6   7  -1 8653.62  801.03   1
   6  12  -1 9293.59  646.77  -2
  -6  -7   1 9293.59  646.77   1
  -6 -12   1 7441.71  754.15  -2
   6   7  -1 7441.71  754.15   1
  -6  -7   0  624.03  196.68   1
   6   7   0 1127.37  298.22   1
   6   7   0  920.19  296.43   1
  -6  -7   0  733.07  232.58   1
   6   7   0  918.80  224.66   1
   6   7   1 1843.95  382.85   1
  -6  -7  -1 1729.92  318.24   1
   6   7   1 1661.81  373.55   1
   6   7   1 1546.48  209.98   1
  -6  -7  -1 1423.77  327.88   1
   6   7   1 1580.38  294.98   1
   6   7   2   12.10   73.93   1
  -6  -7  -2  267.53  162.03   1
   6   7   2  -30.05  127.47   1
   6   7   2  261.58  192.39   1
   6   7   2  204.35  118.54   1
  -6  -7  -2  357.46  175.30   1
   6   7   2  179.02  123.56   1
   6   7   3  714.83  229.66   1
   6   7   3  500.02  156.70   1
  -6  -7  -3  510.26  232.41   1
   6   7   3  324.58  218.96   1
  -6  -7  -3  517.38  211.60   1
   6   7   3  466.82  221.96   1
   6   7   3  274.69  157.01   1
  -6  -7  -3  545.69  206.76   1
  -6  -7  -3 1174.56  272.30   1
   6   7   413737.70  844.60   1
   6   7   414439.60 1117.77   1
   6   7   415595.50 1046.50   1
   6   7   414567.30  968.12   1
  -6  -7  -414432.20  920.50   1
  -6  -7  -414944.40 1031.01   1
  -6  -7  -415024.40  932.90   1
   6   7   5 1424.09  301.61   1
  -6  -7  -5 1203.46  317.46   1
   6   7   5 1720.73  411.94   1
  -6  -7  -5 1216.03  294.00   1
   6   7   5  976.61  275.87   1
  -6  -7  -5 1268.96  306.40   1
  -6  -7  -6 2470.45  484.84   1
   6   7   6 1596.11  426.48   1
  -6  -7  -6 2255.18  402.42   1
   6   7   6 1797.12  384.15   1
   6   7   6 1861.73  385.71   1
   6   7   7 1383.42  361.80   1
   6   7   7 1401.97  408.23   1
  -6  -7  -7 1420.73  384.79   1
   6   7   7 1658.19  354.05   1
  -6  -7  -7 1744.18  385.82   1
   6   7   8  302.35  202.38   1
   6   7   8  246.95  220.05   1
   6   7   8  -15.92  158.78   1
  -6  -7  -8  175.40  126.92   1
   6   7   9  445.85  343.94   1
   6   7   9  114.18  223.58   1
  -6  -7  -9  337.85  262.98   1
   6   8  -6  363.36  242.72   1
  -6  -8   6  288.89  248.24   1
   6   8  -6   35.75  149.83   1
   6   8  -5  -90.05  138.95   1
   6   8  -5    3.67  183.26   1
  -6  -8   5   74.81  154.49   1
   6   8  -5  -41.11  152.74   1
  -6 -13   4  944.15  329.90  -2
   6   8  -4  944.15  329.90   1
  -6 -13   4 1146.97  360.40  -2
   6   8  -4 1146.97  360.40   1
   6  13  -4 1223.54  390.49  -2
  -6  -8   4 1223.54  390.49   1
  -6 -13   4 1898.00  437.43  -2
   6   8  -4 1898.00  437.43   1
  -6 -13   3  154.15  189.33  -2
   6   8  -3  154.15  189.33   1
  -6 -13   3  194.66  162.27  -2
   6   8  -3  194.66  162.27   1
   6  13  -3  -28.44  165.37  -2
  -6  -8   3  -28.44  165.37   1
  -6 -13   3  -28.69  174.81  -2
   6   8  -3  -28.69  174.81   1
  -6 -13   2  938.64  275.28  -2
   6   8  -2  938.64  275.28   1
  -6 -13   2  515.25  229.63  -2
   6   8  -2  515.25  229.63   1
   6  13  -2  529.61  251.72  -2
  -6  -8   2  529.61  251.72   1
  -6 -13   2  699.25  296.77  -2
   6   8  -2  699.25  296.77   1
  -6 -13   1 3444.66  540.19  -2
   6   8  -1 3444.66  540.19   1
  -6 -13   1 3895.93  570.59  -2
   6   8  -1 3895.93  570.59   1
   6  13  -1 3271.24  534.12  -2
  -6  -8   1 3271.24  534.12   1
   6  13  -1 3608.34  364.37  -2
  -6  -8   1 3608.34  364.37   1
  -6 -13   1 3231.70  513.65  -2
   6   8  -1 3231.70  513.65   1
   6   8   0 3809.74  576.03   1
   6   8   0 3854.68  564.16   1
  -6  -8   0 2968.51  520.99   1
  -6  -8   0 3457.68  389.98   1
  -6  -8  -1   40.75  104.06   1
   6   8   1   91.09  150.65   1
   6   8   1  -65.69  175.24   1
  -6  -8  -1   32.85  118.10   1
   6   8   1  134.48  116.47   1
   6   8   2  527.05  136.44   1
  -6  -8  -2  504.58  226.33   1
   6   8   2  956.35  333.73   1
   6   8   2  889.67  289.13   1
  -6  -8  -2  801.32  296.18   1
   6   8   2  789.99  242.17   1
  -6  -8  -3  229.95  159.90   1
   6   8   3   64.85  120.97   1
  -6  -8  -3  233.92  145.87   1
   6   8   3  106.37  216.52   1
   6   8   3  185.90  148.98   1
  -6  -8  -3  177.75  185.20   1
  -6  -8  -3 -199.53  199.76   1
   6   8   4   -7.26  112.68   1
   6   8   4  149.00  159.12   1
  -6  -8  -4  122.92  133.75   1
   6   8   4  217.10  203.51   1
  -6  -8  -4    5.95  132.72   1
  -6  -8  -4  109.37  136.54   1
   6   8   5 2028.50  384.26   1
   6   8   5 2174.61  497.68   1
  -6  -8  -5 1709.64  388.37   1
   6   8   5 2057.37  420.25   1
  -6  -8  -5 1785.71  380.83   1
   6   8   6 2988.66  496.68   1
   6   8   6 3361.30  604.58   1
  -6  -8  -6 3156.84  511.10   1
   6   8   6 4237.66  598.31   1
   6   8   7 4884.93  670.52   1
   6   8   7 5240.55  780.62   1
   6   8   7 5689.93  674.97   1
  -6  -8  -7 5154.35  666.72   1
   6   8   8 5384.10  755.56   1
   6   8   8 4616.88  776.84   1
   6   8   8 5212.01  669.07   1
  -6  -8  -8 3705.47  586.81   1
   6   9  -5    1.16  172.16   1
   6   9  -5  477.08  284.49   1
  -6  -9   5   67.87  154.51   1
   6   9  -5   84.71  177.65   1
  -6 -14   4  282.06  226.63  -2
   6   9  -4  282.06  226.63   1
  -6 -14   4   45.24  173.81  -2
   6   9  -4   45.24  173.81   1
   6  14  -4   27.65  143.12  -2
  -6  -9   4   27.65  143.12   1
  -6 -14   4  277.00  231.94  -2
   6   9  -4  277.00  231.94   1
  -6 -14   3 1113.08  341.25  -2
   6   9  -3 1113.08  341.25   1
  -6 -14   3  834.82  306.52  -2
   6   9  -3  834.82  306.52   1
   6  14  -3  931.10  361.77  -2
  -6  -9   3  931.10  361.77   1
  -6 -14   3  892.44  338.56  -2
   6   9  -3  892.44  338.56   1
  -6 -14   2  -21.25  191.90  -2
   6   9  -2  -21.25  191.90   1
  -6 -14   2  343.13  176.90  -2
   6   9  -2  343.13  176.90   1
   6  14  -2  342.32  250.09  -2
  -6  -9   2  342.32  250.09   1
  -6 -14   2  -37.77  165.91  -2
   6   9  -2  -37.77  165.91   1
  -6 -14   1 1106.18  284.88  -2
   6   9  -1 1106.18  284.88   1
  -6 -14   1 1022.86  336.55  -2
   6   9  -1 1022.86  336.55   1
   6  14  -1  267.07  182.98  -2
  -6  -9   1  267.07  182.98   1
  -6 -14   1  528.49  278.57  -2
   6   9  -1  528.49  278.57   1
   6   9   0  943.50  308.25   1
   6   9   0  918.29  317.05   1
  -6  -9   0 1118.71  344.01   1
   6   9   1  128.80  171.33   1
   6   9   1 -213.39  255.62   1
  -6  -9  -1  341.25  232.05   1
   6   9   2  -83.01  175.27   1
   6   9   2  -14.95  188.10   1
  -6  -9  -2  110.69  151.30   1
  -6  -9  -3  113.65  144.89   1
   6   9   3   30.93  146.43   1
  -6  -9  -3  274.55  193.23   1
   6   9   4 2162.52  525.03   1
   6   9   4 2394.42  480.99   1
  -6  -9  -4 1886.13  429.75   1
  -6  -9  -4 2419.57  470.97   1
  -6  -9  -5 1037.67  308.90   1
   6   9   5  360.91  186.00   1
   6   9   5  613.55  320.55   1
   6   9   5 1023.00  324.88   1
   6   9   6  428.82  245.34   1
   6   9   6  614.43  327.77   1
  -6  -9  -6  276.97  228.55   1
   6   9   6  765.45  308.09   1
   6   9   7 -202.54  239.14   1
  -6  -9  -7   75.61  161.49   1
   6   9   7 -316.18  257.88   1
  -6 -15   3  199.71  182.79  -2
   6  10  -3  199.71  182.79   1
  -6 -15   3  104.47  224.38  -2
   6  10  -3  104.47  224.38   1
   6  15  -3  -40.61  136.10  -2
  -6 -10   3  -40.61  136.10   1
  -6 -15   3  -58.83  175.90  -2
   6  10  -3  -58.83  175.90   1
  -6 -15   2 -190.83  203.73  -2
   6  10  -2 -190.83  203.73   1
  -6 -15   2  158.32  227.15  -2
   6  10  -2  158.32  227.15   1
   6  15  -2  321.54  277.76  -2
  -6 -10   2  321.54  277.76   1
  -6 -15   2  159.43  162.64  -2
   6  10  -2  159.43  162.64   1
  -6 -15   1 2414.18  516.43  -2
   6  10  -1 2414.18  516.43   1
  -6 -15   1 2160.86  495.59  -2
   6  10  -1 2160.86  495.59   1
   6  15  -1 2149.42  501.03  -2
  -6 -10   1 2149.42  501.03   1
  -6 -15   1 1107.93  415.48  -2
   6  10  -1 1107.93  415.48   1
   6  10   0  726.84  349.73   1
   6  10   0  647.92  291.16   1
  -6 -10   0 1613.57  444.28   1
   6  10   0  856.62  286.77   1
   6  10   1  463.58  274.48   1
   6  10   1  477.27  238.00   1
  -6 -10  -1  682.98  299.21   1
   6  10   2  -32.07  184.03   1
   6  10   2   -8.19  188.49   1
  -6 -10  -2  -27.38  201.42   1
   6  10   3   20.32  159.33   1
  -6 -10  -3  230.40  219.23   1
  -6 -10  -3  115.64  177.12   1
   6  10   4  128.50  186.82   1
   6  10   4  174.26  214.30   1
  -6 -10  -4 -160.39  216.39   1
  -6 -10  -4 -123.99  170.58   1
  -6 -10  -5  768.22  296.65   1
   6  10   5 1164.71  359.04   1
   7  -4  -2 1319.75  341.64   1
  -7   4   2 1460.16  463.33   1
   7  -4  -2 1351.06  385.41   1
  -7   4   2 1596.69  476.26   1
   7  -4  -1 1199.95  344.46   1
  -7   4   1 2206.06  577.38   1
   7  -4  -1 1492.25  443.14   1
  -7   4   1 1523.16  407.81   1
   7  -4   0 3946.02  574.76   1
  -7   4   0 4042.99  738.38   1
   7  -4   0 4683.00  752.84   1
  -7   4   0 3593.43  671.00   1
  -7   4  -1  880.72  366.20   1
   7  -4   1 1466.44  390.14   1
  -7   4  -1 1833.90  495.89   1
   7  -4   1 1780.96  509.39   1
   7  -4   2 6492.71  770.60   1
  -7   4  -2 6059.15  907.43   1
  -7   4  -2 5612.07  814.93   1
   7  -4   2 5135.78  808.03   1
  -7   4  -3 3314.90  629.44   1
   7  -4   3 3966.25  618.19   1
  -7   4  -3 4312.30  770.77   1
   7  -4   3 4287.33  742.80   1
  -7   4  -4 1983.74  480.91   1
   7  -4   4 2491.99  526.90   1
  -7   4  -4 1694.70  500.04   1
   7  -4   4 1670.53  490.30   1
  -7   4  -5  951.66  381.65   1
   7  -4   5  938.60  358.00   1
  -7   4  -5  826.62  385.08   1
   7  -4   5  702.95  329.95   1
  -7   4  -6 3550.73  640.21   1
   7   3  -4  119.71  199.18  -2
  -7   3   4  119.71  199.18   1
   7   3  -4  -43.03  189.16  -2
  -7   3   4  -43.03  189.16   1
  -7  -3   4  753.03  311.68  -2
   7  -3  -4  753.03  311.68   1
   7   3  -4  464.46  333.32  -2
  -7   3   4  464.46  333.32   1
   7   3  -3 1634.77  462.39  -2
  -7   3   3 1634.77  462.39   1
  -7  -3   3 1020.31  310.41  -2
   7  -3  -3 1020.31  310.41   1
   7   3  -3  607.89  301.53  -2
  -7   3   3  607.89  301.53   1
  -7  -3   3 1106.15  367.88  -2
   7  -3  -3 1106.15  367.88   1
   7   3  -3  803.34  345.57  -2
  -7   3   3  803.34  345.57   1
   7  -3  -2 1712.95  372.33   1
  -7   3   2 1536.51  468.04   1
   7  -3  -2 1792.06  484.96   1
  -7   3   2 1510.21  437.04   1
   7  -3  -1  -65.32  177.45   1
  -7   3   1  158.24  189.29   1
   7  -3  -1 -308.94  254.25   1
  -7   3   1  -10.68  185.41   1
   7  -3   0 -268.04  238.89   1
  -7   3   0  -41.94  177.54   1
   7  -3   0  -83.81  262.49   1
  -7   3   0   31.46  168.99   1
  -7   3  -1  644.72  293.95   1
   7  -3   1  466.55  217.51   1
  -7   3  -1 1035.10  404.04   1
   7  -3   1  974.36  328.73   1
  -7   3  -2 1445.78  410.30   1
   7  -3   2 1961.74  442.74   1
  -7   3  -2 1382.96  421.04   1
   7  -3   2 2206.39  522.59   1
   7  -3   3 8712.01  873.41   1
  -7   3  -3 8643.99 1025.15   1
   7  -3   3 9196.50 1031.58   1
  -7   3  -3 8632.94  962.12   1
   7  -3   4 9033.84  900.55   1
  -7   3  -4 8968.62 1070.81   1
   7  -3   4 9509.24 1056.79   1
  -7   3  -4 9440.33  995.60   1
  -7   3  -5  425.91  244.33   1
   7  -3   5  548.37  256.76   1
  -7   3  -5  875.14  382.16   1
   7  -3   5  456.60  254.69   1
   7  -3   6 7187.70  851.88   1
  -7   3  -6 8737.01 1067.21   1
   7  -3   6 6816.41  933.93   1
  -7   3  -6 5622.87  806.18   1
   7   2   7 5081.50  767.61  -2
  -7   3  -7 5081.50  767.61   1
  -7  -2  -7 4844.22  708.88  -2
   7  -3   7 4844.22  708.88   1
   7   2   7 6388.16  942.31  -2
  -7   3  -7 6388.16  942.31   1
  -7  -2  -7 5356.65  861.47  -2
   7  -3   7 5356.65  861.47   1
   7   4  -5  600.54  314.15  -2
  -7   2   5  600.54  314.15   1
   7   4  -5  -64.54  175.83  -2
  -7   2   5  -64.54  175.83   1
  -7  -4   5  569.39  294.21  -2
   7  -2  -5  569.39  294.21   1
   7   4  -5  647.10  305.82  -2
  -7   2   5  647.10  305.82   1
   7   4  -4  871.71  352.98  -2
  -7   2   4  871.71  352.98   1
  -7  -4   4  985.18  231.63  -2
   7  -2  -4  985.18  231.63   1
   7   4  -4  489.16  257.60  -2
  -7   2   4  489.16  257.60   1
  -7  -4   4  886.92  303.51  -2
   7  -2  -4  886.92  303.51   1
   7   4  -4  849.05  366.63  -2
  -7   2   4  849.05  366.63   1
   7   4  -3  238.52  269.97  -2
  -7   2   3  238.52  269.97   1
  -7  -4   3  231.13  146.69  -2
   7  -2  -3  231.13  146.69   1
   7   4  -3  498.67  257.39  -2
  -7   2   3  498.67  257.39   1
  -7  -4   3  116.57  199.49  -2
   7  -2  -3  116.57  199.49   1
   7   4  -3  935.08  376.99  -2
  -7   2   3  935.08  376.99   1
   7  -2  -2 1246.82  291.88   1
  -7   2   2 1273.10  386.95   1
   7  -2  -2 1330.56  384.26   1
  -7   2   2 1133.56  378.69   1
   7  -2  -1  896.45  254.16   1
  -7   2   1  672.29  248.32   1
   7  -2  -1  531.91  258.95   1
  -7   2   1  977.24  347.65   1
   7  -2   0 1366.07  323.83   1
  -7   2   0 1303.83  395.05   1
   7  -2   0 1840.88  480.73   1
  -7   2   0 1627.19  438.66   1
  -7   2  -1 3164.28  587.84   1
   7  -2   1 3373.93  493.53   1
  -7   2  -1 2589.18  531.81   1
   7  -2   1 2612.48  538.76   1
   7  -2   223103.60 1325.18   1
  -7   2  -222453.20 1516.47   1
   7  -2   224544.80 1632.85   1
  -7   2  -221564.30 1454.12   1
  -7   2  -3  937.41  362.03   1
   7  -2   3 1163.44  326.35   1
  -7   2  -3 1228.30  442.13   1
   7  -2   3 1656.37  463.65   1
  -7   2  -4 1697.77  434.30   1
   7  -2   4 1790.88  397.38   1
  -7   2  -4 2127.64  527.68   1
   7  -2   4 2061.95  485.86   1
  -7   2  -5 -275.15  249.06   1
   7  -2   5    8.86  156.51   1
  -7   2  -5  193.10  243.83   1
   7  -2   5  281.11  231.32   1
  -7   2  -6 1039.27  335.80   1
   7  -2   6 1236.68  374.18   1
  -7   2  -6 1453.68  454.82   1
   7  -2   6  964.12  349.83   1
   7   3   7 3475.26  622.64  -2
  -7   2  -7 3475.26  622.64   1
  -7  -3  -7 3006.87  595.02  -2
   7  -2   7 3006.87  595.02   1
   7   3   7 3178.71  664.78  -2
  -7   2  -7 3178.71  664.78   1
  -7  -3  -7 2953.83  622.61  -2
   7  -2   7 2953.83  622.61   1
  -7  -3  -811490.10 1078.42  -2
   7  -2   811490.10 1078.42   1
   7   3   810580.30 1189.36  -2
  -7   2  -810580.30 1189.36   1
  -7  -3  -811812.20 1236.18  -2
   7  -2   811812.20 1236.18   1
   7   3   811353.80 1131.87  -2
  -7   2  -811353.80 1131.87   1
   7   5  -6  720.39  338.29  -2
  -7   1   6  720.39  338.29   1
   7   5  -6  830.48  331.92  -2
  -7   1   6  830.48  331.92   1
   7   5  -6  226.30  216.90  -2
  -7   1   6  226.30  216.90   1
   7   5  -5 3033.37  544.35  -2
  -7   1   5 3033.37  544.35   1
  -7  -5   5 2363.80  392.29  -2
   7  -1  -5 2363.80  392.29   1
   7   5  -5 2163.27  465.36  -2
  -7   1   5 2163.27  465.36   1
   7   5  -5 3450.46  677.57  -2
  -7   1   5 3450.46  677.57   1
  -7  -5   4 3637.31  425.90  -2
   7  -1  -4 3637.31  425.90   1
   7   5  -4 3543.49  575.84  -2
  -7   1   4 3543.49  575.84   1
  -7  -5   4 3519.57  425.01  -2
   7  -1  -4 3519.57  425.01   1
   7   5  -4 3753.76  621.25  -2
  -7   1   4 3753.76  621.25   1
  -7  -5   4 3368.18  587.85  -2
   7  -1  -4 3368.18  587.85   1
   7   5  -4 3494.16  636.42  -2
  -7   1   4 3494.16  636.42   1
  -7  -5   3 3558.33  451.14  -2
   7  -1  -3 3558.33  451.14   1
   7   5  -3 3920.64  593.91  -2
  -7   1   3 3920.64  593.91   1
  -7  -5   3 2985.15  343.78  -2
   7  -1  -3 2985.15  343.78   1
   7   5  -3 3074.90  553.57  -2
  -7   1   3 3074.90  553.57   1
  -7  -5   3 2441.85  514.98  -2
   7  -1  -3 2441.85  514.98   1
   7   5  -3 3172.93  606.78  -2
  -7   1   3 3172.93  606.78   1
   7  -1  -2  193.62  132.15   1
   7  -1  -2  200.06  117.92   1
  -7   1   2  235.57  173.98   1
   7  -1  -2  201.41  211.21   1
  -7   1   2  183.70  213.32   1
   7  -1  -1 9493.79  763.97   1
   7  -1  -1 6520.17  331.19   1
  -7   1   1 8590.96  870.15   1
   7  -1  -1 8461.10  887.33   1
  -7   1   1 8368.03  908.25   1
   7  -1   0 1024.59  264.02   1
  -7   1   0  640.40  269.45   1
   7  -1   0  715.67  299.86   1
  -7   1   0  695.68  308.66   1
  -7   1  -1  -69.11  125.94   1
   7  -1   1   64.82  127.46   1
  -7   1  -1   91.53  169.72   1
   7  -1   1  -74.25  133.65   1
  -7   1  -2  -67.10  176.46   1
   7  -1   2  218.55  164.69   1
  -7   1  -2  260.77  191.48   1
   7  -1   2  344.52  221.39   1
  -7   1  -3 3048.53  528.18   1
   7  -1   3 2236.11  417.81   1
  -7   1  -3 2272.58  475.49   1
   7  -1   3 2129.13  463.44   1
   7  -1   4 5011.03  631.61   1
  -7   1  -4 5943.13  780.59   1
   7  -1   4 4809.52  691.91   1
  -7   1  -4 5211.52  719.47   1
  -7   1  -5 3160.85  560.98   1
   7  -1   5 4125.39  605.54   1
  -7   1  -5 4075.02  658.06   1
   7  -1   5 3764.07  627.96   1
   7  -1   6 8134.68  832.12   1
  -7   1  -6 6957.09  868.00   1
   7  -1   6 6827.08  857.21   1
  -7   1  -6 7414.52  853.58   1
  -7  -4  -7 5950.89  745.09  -2
   7  -1   7 5950.89  745.09   1
   7   4   7 5254.40  788.00  -2
  -7   1  -7 5254.40  788.00   1
  -7  -4  -7 5751.56  812.50  -2
   7  -1   7 5751.56  812.50   1
   7   4   7 5248.78  754.85  -2
  -7   1  -7 5248.78  754.85   1
   7   4   8 1744.03  470.17  -2
  -7   1  -8 1744.03  470.17   1
  -7  -4  -8 1658.90  426.29  -2
   7  -1   8 1658.90  426.29   1
   7   4   8 2164.47  564.53  -2
  -7   1  -8 2164.47  564.53   1
  -7  -4  -8 1163.51  384.90  -2
   7  -1   8 1163.51  384.90   1
  -7  -4  -9 4823.92  693.66  -2
   7  -1   9 4823.92  693.66   1
   7   4   9 6007.95  934.93  -2
  -7   1  -9 6007.95  934.93   1
  -7  -4  -9 5604.04  823.39  -2
   7  -1   9 5604.04  823.39   1
   7   4   9 6315.45  897.21  -2
  -7   1  -9 6315.45  897.21   1
  -7   0   7 -271.89  213.24   1
   7   0  -7   42.86  186.41   1
  -7   0   7  315.74  240.42   1
  -7   0   7   57.81  214.32   1
   7   6  -6  -66.53  198.90  -2
  -7   0   6  -66.53  198.90   1
  -7  -6   6  158.03  156.67  -2
   7   0  -6  158.03  156.67   1
   7   6  -6 -384.34  232.88  -2
  -7   0   6 -384.34  232.88   1
   7   6  -6   -4.55  212.28  -2
  -7   0   6   -4.55  212.28   1
   7   6  -5  237.24  186.19  -2
  -7   0   5  237.24  186.19   1
  -7  -6   5  440.27  219.66  -2
   7   0  -5  440.27  219.66   1
   7   6  -5  518.89  248.78  -2
  -7   0   5  518.89  248.78   1
   7   6  -5  292.77  246.56  -2
  -7   0   5  292.77  246.56   1
   7   6  -4 3237.74  517.08  -2
  -7   0   4 3237.74  517.08   1
  -7  -6   4 3255.57  383.41  -2
   7   0  -4 3255.57  383.41   1
  -7  -6   4 3296.16  401.46  -2
   7   0  -4 3296.16  401.46   1
   7   6  -4 3100.98  518.23  -2
  -7   0   4 3100.98  518.23   1
   7   6  -4 3141.06  380.82  -2
  -7   0   4 3141.06  380.82   1
  -7  -6   4 2581.58  512.08  -2
   7   0  -4 2581.58  512.08   1
   7   6  -4 3597.20  619.95  -2
  -7   0   4 3597.20  619.95   1
   7   6  -3  196.24   88.14  -2
  -7   0   3  196.24   88.14   1
  -7  -6   3   18.62   77.44  -2
   7   0  -3   18.62   77.44   1
   7   6  -3  128.04  172.98  -2
  -7   0   3  128.04  172.98   1
  -7  -6   3 -190.27  135.09  -2
   7   0  -3 -190.27  135.09   1
   7   6  -3  206.54  187.10  -2
  -7   0   3  206.54  187.10   1
  -7  -6   3    6.59  151.33  -2
   7   0  -3    6.59  151.33   1
   7   6  -3  -30.91  176.47  -2
  -7   0   3  -30.91  176.47   1
   7   0  -2 9760.40  500.58   1
   7   0  -210314.10  743.02   1
  -7   0   210912.90  924.87   1
  -7   0   2 7700.50  302.77   1
   7   0  -210418.10  957.74   1
  -7   0   2 9269.66  944.85   1
   7   0  -113661.60  882.35   1
  -7   0   114203.40 1054.03   1
   7   0  -114498.10 1128.24   1
  -7   0   112893.60 1101.59   1
   7   0   029294.80 1332.24   1
  -7   0   027053.30 1483.56   1
   7   0   027303.00 1557.98   1
  -7   0   028133.30 1574.21   1
   7   0   1 7396.49  695.84   1
  -7   0  -1 6731.16  743.32   1
   7   0   1 7101.41  795.92   1
  -7   0  -1 7398.70  806.03   1
   7   0   2 4099.77  543.81   1
  -7   0  -2 4422.07  620.26   1
  -7   0  -2 4215.02  610.46   1
   7   0   2 4210.82  628.37   1
  -7   0  -3 1491.17  378.50   1
   7   0   3 1158.47  309.98   1
  -7   0  -3 1808.16  403.92   1
   7   0   3 2092.28  439.70   1
  -7   0  -4  588.01  252.65   1
   7   0   4  137.65  180.73   1
  -7   0  -4  546.27  252.31   1
   7   0   4  390.45  242.16   1
  -7   0  -5  752.44  267.08   1
   7   0   5  705.94   79.55   1
  -7   0  -5 1049.27  368.41   1
   7   0   6  682.83  146.46   1
  -7   0  -6 1475.60  407.66   1
   7   0   6  574.62  226.57   1
   7   0   6 1475.50  381.09   1
  -7   0  -6 1242.73  318.75   1
  -7   0  -6 1036.67  352.50   1
   7   0   6 1057.46  345.58   1
  -7  -5  -7  731.47  182.92  -2
   7   0   7  731.47  182.92   1
   7   5   7 1290.52  402.97  -2
  -7   0  -7 1290.52  402.97   1
  -7  -5  -7  752.22  202.69  -2
   7   0   7  752.22  202.69   1
  -7  -5  -7  868.78  300.45  -2
   7   0   7  868.78  300.45   1
   7   5   7  789.20  345.85  -2
  -7   0  -7  789.20  345.85   1
  -7  -5  -7  748.76  307.15  -2
   7   0   7  748.76  307.15   1
  -7  -5  -816683.90  967.64  -2
   7   0   816683.90  967.64   1
  -7  -5  -817387.50 1228.69  -2
   7   0   817387.50 1228.69   1
   7   5   815935.70 1367.58  -2
  -7   0  -815935.70 1367.58   1
  -7  -5  -814852.90 1258.45  -2
   7   0   814852.90 1258.45   1
   7   5   816458.30 1332.68  -2
  -7   0  -816458.30 1332.68   1
  -7  -5  -9 7213.64  816.21  -2
   7   0   9 7213.64  816.21   1
  -7  -5  -9 7522.85  927.08  -2
   7   0   9 7522.85  927.08   1
   7   5   9 6303.53  875.32  -2
  -7   0  -9 6303.53  875.32   1
   7   5  10  324.30  361.52  -2
  -7   0 -10  324.30  361.52   1
  -7  -5 -10 -211.85  185.35  -2
   7   0  10 -211.85  185.35   1
  -7  -5 -10  169.15  229.51  -2
   7   0  10  169.15  229.51   1
  -7  -1   7  392.46  225.57   1
   7   1  -7  527.45  185.65   1
  -7  -1   7  461.66  250.52   1
  -7  -1   7  826.08  367.43   1
   7   7  -6  293.07  199.05  -2
  -7  -1   6  293.07  199.05   1
  -7  -7   6   83.85  156.65  -2
   7   1  -6   83.85  156.65   1
   7   7  -6  226.13  162.56  -2
  -7  -1   6  226.13  162.56   1
   7   7  -6  525.51  210.73  -2
  -7  -1   6  525.51  210.73   1
   7   7  -6  -65.27  193.93  -2
  -7  -1   6  -65.27  193.93   1
   7   7  -5  201.78  127.40  -2
  -7  -1   5  201.78  127.40   1
  -7  -7   5  102.89  133.15  -2
   7   1  -5  102.89  133.15   1
   7   7  -5  -66.94  142.55  -2
  -7  -1   5  -66.94  142.55   1
  -7  -7   5  200.55  119.94  -2
   7   1  -5  200.55  119.94   1
   7   7  -5  125.21  154.90  -2
  -7  -1   5  125.21  154.90   1
   7   7  -5   51.56  144.04  -2
  -7  -1   5   51.56  144.04   1
   7   7  -4 2052.31  319.35  -2
  -7  -1   4 2052.31  319.35   1
  -7  -7   4 2306.40  340.67  -2
   7   1  -4 2306.40  340.67   1
   7   7  -4 2055.88  381.80  -2
  -7  -1   4 2055.88  381.80   1
  -7  -7   4 2483.56  352.87  -2
   7   1  -4 2483.56  352.87   1
   7   7  -4 1702.00  361.86  -2
  -7  -1   4 1702.00  361.86   1
   7   7  -4 2501.84  518.96  -2
  -7  -1   4 2501.84  518.96   1
   7   7  -3  237.20  121.89  -2
  -7  -1   3  237.20  121.89   1
  -7  -7   3  239.13  123.57  -2
   7   1  -3  239.13  123.57   1
   7   7  -3  405.63  189.85  -2
  -7  -1   3  405.63  189.85   1
   7   7  -3  788.88  193.23  -2
  -7  -1   3  788.88  193.23   1
   7   7  -3  184.98  183.64  -2
  -7  -1   3  184.98  183.64   1
  -7  -7   3  383.17  156.44  -2
   7   1  -3  383.17  156.44   1
   7   7  -3  271.58  162.25  -2
  -7  -1   3  271.58  162.25   1
  -7  -7   3  350.17  224.00  -2
   7   1  -3  350.17  224.00   1
   7   7  -3  475.52  224.91  -2
  -7  -1   3  475.52  224.91   1
   7   1  -2  906.87  226.68   1
  -7  -1   2  685.33  233.60   1
  -7  -1   2  687.30  114.00   1
   7   1  -2  511.72  272.00   1
  -7  -1   2  670.92  114.27   1
  -7  -1   2  793.71  295.21   1
   7   1  -1  -70.44  134.35   1
   7   1  -1  250.25  161.30   1
  -7  -1   1  293.35  189.88   1
   7   1  -1  -30.93  164.37   1
  -7  -1   1 -116.91  202.64   1
  -7  -1   0   66.79  133.32   1
   7   1   0  126.03  147.42   1
   7   1   0  -49.79  112.90   1
  -7  -1   0  -44.71  153.11   1
   7   1   0    6.45  141.42   1
  -7  -1  -1  431.81  228.02   1
   7   1   1  687.12  213.26   1
  -7  -1  -1  506.15  197.76   1
   7   1   1  369.96  173.10   1
  -7  -1  -2  654.79  283.75   1
  -7  -1  -2  820.65  251.05   1
   7   1   2  791.38  256.31   1
  -7  -1  -2  754.22  253.28   1
   7   1   2 1089.89  324.92   1
  -7  -1  -329932.10 1449.63   1
   7   1   329802.00 1407.91   1
   7   1   330871.80 1433.33   1
  -7  -1  -329329.40 1493.14   1
   7   1   331176.10 1644.17   1
  -7  -1  -327886.20 1522.11   1
   7   1   410967.40  840.07   1
   7   1   412711.60  949.26   1
  -7  -1  -411296.10  974.83   1
   7   1   411652.90 1009.96   1
  -7  -1  -411219.50  976.80   1
   7   1   5 8773.51  748.68   1
   7   1   5 9921.20  857.25   1
   7   1   5 8032.02  369.97   1
  -7  -1  -510531.10  967.80   1
   7   1   5 7090.86  339.20   1
   7   1   5 9047.65  897.29   1
  -7  -1  -5 8713.02  883.05   1
  -7  -1  -6 3555.49  603.83   1
   7   1   6 3571.99  473.36   1
   7   1   6 4425.99  591.19   1
  -7  -1  -6 3722.01  443.59   1
   7   1   6 3666.00  331.79   1
  -7  -1  -6 3656.27  611.90   1
   7   1   6 2980.88  529.04   1
  -7  -6  -7 7044.23  658.20  -2
   7   1   7 7044.23  658.20   1
  -7  -6  -7 8486.33  825.20  -2
   7   1   7 8486.33  825.20   1
   7   6   7 8437.25  947.47  -2
  -7  -1  -7 8437.25  947.47   1
  -7  -6  -7 8351.80  911.18  -2
   7   1   7 8351.80  911.18   1
   7   6   7 8702.53  928.81  -2
  -7  -1  -7 8702.53  928.81   1
   7   6   8 1390.57  435.89  -2
  -7  -1  -8 1390.57  435.89   1
  -7  -6  -8 1085.68  286.15  -2
   7   1   8 1085.68  286.15   1
  -7  -6  -8  982.07  310.65  -2
   7   1   8  982.07  310.65   1
  -7  -6  -8 1156.68  409.86  -2
   7   1   8 1156.68  409.86   1
   7   6   9  951.06  347.10  -2
  -7  -1  -9  951.06  347.10   1
  -7  -6  -9 1016.08  354.56  -2
   7   1   9 1016.08  354.56   1
  -7  -6  -9  747.27  329.38  -2
   7   1   9  747.27  329.38   1
   7   6  10 2016.38  520.72  -2
  -7  -1 -10 2016.38  520.72   1
  -7  -6 -10 2299.59  466.58  -2
   7   1  10 2299.59  466.58   1
  -7  -6 -10 2262.76  521.76  -2
   7   1  10 2262.76  521.76   1
   7   2  -7  130.26  209.99   1
  -7  -2   7   -6.66  150.24   1
  -7  -2   7   31.59  169.10   1
  -7  -8   6 -113.96  140.69  -2
   7   2  -6 -113.96  140.69   1
   7   8  -6  -82.26  107.26  -2
  -7  -2   6  -82.26  107.26   1
   7   8  -6  358.03  197.09  -2
  -7  -2   6  358.03  197.09   1
   7   8  -6  309.06  180.41  -2
  -7  -2   6  309.06  180.41   1
   7   8  -6   76.30  227.58  -2
  -7  -2   6   76.30  227.58   1
  -7  -8   5   93.09  128.88  -2
   7   2  -5   93.09  128.88   1
   7   8  -5  221.18  141.49  -2
  -7  -2   5  221.18  141.49   1
   7   8  -5   52.06   89.35  -2
  -7  -2   5   52.06   89.35   1
   7   8  -5  148.27  121.05  -2
  -7  -2   5  148.27  121.05   1
   7   8  -5    5.14  189.02  -2
  -7  -2   5    5.14  189.02   1
   7   8  -4  146.50  154.47  -2
  -7  -2   4  146.50  154.47   1
   7   8  -4  144.16  137.74  -2
  -7  -2   4  144.16  137.74   1
   7   8  -4  132.05  116.08  -2
  -7  -2   4  132.05  116.08   1
   7   8  -4  -85.19  169.91  -2
  -7  -2   4  -85.19  169.91   1
  -7  -8   4    5.46  103.81  -2
   7   2  -4    5.46  103.81   1
   7   8  -4   93.04  134.39  -2
  -7  -2   4   93.04  134.39   1
   7   8  -4  -14.74  178.12  -2
  -7  -2   4  -14.74  178.12   1
   7   8  -3  -10.99   82.25  -2
  -7  -2   3  -10.99   82.25   1
   7   8  -3   48.63  101.90  -2
  -7  -2   3   48.63  101.90   1
   7   8  -3  132.39  116.61  -2
  -7  -2   3  132.39  116.61   1
   7   8  -3  -55.80  116.39  -2
  -7  -2   3  -55.80  116.39   1
  -7  -8   3   14.13  106.10  -2
   7   2  -3   14.13  106.10   1
   7   8  -3  109.39  113.83  -2
  -7  -2   3  109.39  113.83   1
  -7  -8   3  -49.53  160.03  -2
   7   2  -3  -49.53  160.03   1
   7   8  -3  151.79  167.39  -2
  -7  -2   3  151.79  167.39   1
  -7  -2   2 9432.86  670.77   1
   7   2  -210369.40  722.36   1
  -7  -2   210105.90  507.03   1
  -7  -2   210796.50  784.96   1
   7   2  -210288.70  955.92   1
  -7  -2   211263.10  982.03   1
  -7  -2   211104.40  528.31   1
   7   2  -1  664.55  208.38   1
   7   2  -1  797.32  223.36   1
  -7  -2   1  729.35  225.69   1
  -7  -2   1  815.39  109.92   1
  -7  -2   1  918.07  104.89   1
   7   2  -1  838.92  274.66   1
  -7  -2   1 1242.70  369.22   1
   7   2   018143.10 1001.00   1
   7   2   017154.20  951.42   1
  -7  -2   016967.20 1000.20   1
   7   2   018028.30 1225.33   1
  -7  -2   018472.00 1195.74   1
  -7  -2  -1 6722.91  598.30   1
   7   2   1 7608.98  733.36   1
   7   2   1 7276.25  659.37   1
   7   2   1 7168.50  644.41   1
  -7  -2  -1 7336.52  666.49   1
   7   2   1 6282.03  723.59   1
  -7  -2  -1 7174.78  760.50   1
  -7  -2  -2  497.04  221.45   1
  -7  -2  -2  663.21  214.69   1
   7   2   2  381.44  183.41   1
   7   2   2  520.04  215.34   1
   7   2   2  568.32  182.72   1
  -7  -2  -2  370.64  183.41   1
   7   2   2  229.77  147.70   1
  -7  -2  -3 4331.08  515.22   1
   7   2   3 4287.78  545.63   1
   7   2   3 4135.08  529.47   1
  -7  -2  -3 4882.02  588.37   1
   7   2   3 3963.62  574.16   1
  -7  -2  -3 4845.08  640.32   1
  -7  -2  -4 1485.32  374.31   1
  -7  -2  -4 1823.81  349.24   1
   7   2   4 1323.52  302.01   1
   7   2   4 1748.88  373.40   1
   7   2   4 1374.62  130.73   1
  -7  -2  -4 1634.11  361.52   1
   7   2   4 2186.90  433.43   1
   7   2   5 4693.57  552.55   1
   7   2   5 4740.50  604.27   1
   7   2   5 4695.01  361.57   1
  -7  -2  -5 4466.62  606.42   1
   7   2   5 5222.85  666.59   1
  -7  -2  -5 4943.88  654.51   1
  -7  -2  -6  664.68  303.28   1
  -7  -2  -6  238.66  121.07   1
   7   2   6  401.45  197.60   1
   7   2   6  900.01  297.34   1
  -7  -2  -6  605.82  231.37   1
  -7  -2  -6  721.32  295.83   1
   7   2   6  400.86  158.56   1
   7   2   6  399.45  231.34   1
   7   7   7 1514.90  439.13  -2
  -7  -2  -7 1514.90  439.13   1
  -7  -7  -7 1351.62  364.51  -2
   7   2   7 1351.62  364.51   1
   7   7   7 1035.29  262.61  -2
  -7  -2  -7 1035.29  262.61   1
  -7  -7  -7 1554.24  386.89  -2
   7   2   7 1554.24  386.89   1
   7   7   7 1497.92  332.94  -2
  -7  -2  -7 1497.92  332.94   1
  -7  -7  -7 1608.88  426.93  -2
   7   2   7 1608.88  426.93   1
  -7  -7  -814705.70 1015.48  -2
   7   2   814705.70 1015.48   1
  -7  -7  -813950.00 1052.11  -2
   7   2   813950.00 1052.11   1
   7   7   813683.90  808.62  -2
  -7  -2  -813683.90  808.62   1
  -7  -7  -814615.60 1168.99  -2
   7   2   814615.60 1168.99   1
   7   7   815558.10 1283.34  -2
  -7  -2  -815558.10 1283.34   1
  -7  -7  -9 4668.94  597.04  -2
   7   2   9 4668.94  597.04   1
   7   7   9 4609.65  744.96  -2
  -7  -2  -9 4609.65  744.96   1
  -7  -7  -9 4749.55  628.04  -2
   7   2   9 4749.55  628.04   1
  -7  -7  -9 4338.91  662.69  -2
   7   2   9 4338.91  662.69   1
   7   7  10 1489.42  448.95  -2
  -7  -2 -10 1489.42  448.95   1
  -7  -7 -10 1772.27  427.29  -2
   7   2  10 1772.27  427.29   1
  -7  -7 -10 1398.33  439.58  -2
   7   2  10 1398.33  439.58   1
  -7  -3   8  534.98  327.26   1
  -7  -3   8  579.69  365.22   1
  -7  -3   7  160.79  196.55   1
  -7  -3   7  492.87  286.39   1
   7   9  -6  163.74  130.63  -2
  -7  -3   6  163.74  130.63   1
   7   9  -6  386.04  240.18  -2
  -7  -3   6  386.04  240.18   1
   7   9  -5  167.57  138.96  -2
  -7  -3   5  167.57  138.96   1
   7   9  -5   58.53  126.60  -2
  -7  -3   5   58.53  126.60   1
   7   9  -5  -73.71  102.78  -2
  -7  -3   5  -73.71  102.78   1
   7   9  -5   47.58  192.79  -2
  -7  -3   5   47.58  192.79   1
   7   9  -4  127.91  135.65  -2
  -7  -3   4  127.91  135.65   1
   7   9  -4  189.46  137.43  -2
  -7  -3   4  189.46  137.43   1
   7   9  -4  -34.38  164.31  -2
  -7  -3   4  -34.38  164.31   1
   7   9  -4   74.57  124.65  -2
  -7  -3   4   74.57  124.65   1
   7   9  -4   38.22   93.21  -2
  -7  -3   4   38.22   93.21   1
   7   9  -4  336.06  214.06  -2
  -7  -3   4  336.06  214.06   1
   7   9  -3  129.95  104.45  -2
  -7  -3   3  129.95  104.45   1
   7   9  -3  324.16  180.72  -2
  -7  -3   3  324.16  180.72   1
   7   9  -3  171.06  134.08  -2
  -7  -3   3  171.06  134.08   1
  -7  -9   3 -101.04  118.61  -2
   7   3  -3 -101.04  118.61   1
   7   9  -3  244.45  134.94  -2
  -7  -3   3  244.45  134.94   1
   7   9  -3  289.64  154.25  -2
  -7  -3   3  289.64  154.25   1
   7   9  -3  328.66  243.75  -2
  -7  -3   3  328.66  243.75   1
  -7  -3   2 3776.36  354.07   1
   7   3  -2 4267.26  485.09   1
  -7  -3   2 4043.89  383.42   1
  -7  -3   2 3282.41  394.83   1
  -7  -3   2 4203.46  357.70   1
  -7  -3   2 4196.90  586.01   1
   7   3  -2 4024.33  630.99   1
  -7  -3   1  159.00  146.69   1
   7   3  -1  899.91  295.10   1
  -7  -3   1  269.60   87.49   1
   7   3  -1  346.21  162.47   1
   7   3  -1  302.21  138.53   1
  -7  -3   1  440.43  183.32   1
   7   3  -1  300.18  209.27   1
  -7  -3   1  275.32  108.79   1
  -7  -3   016629.50  783.03   1
   7   3   018899.40 1182.59   1
  -7  -3   018163.10  570.00   1
   7   3   017672.60  989.80   1
   7   3   018143.30  888.53   1
  -7  -3   017430.50  908.72   1
  -7  -3   017713.90  446.39   1
   7   3   017939.60 1206.92   1
  -7  -3   018819.80 1187.07   1
  -7  -3  -1  506.11  233.00   1
  -7  -3  -1  316.66  128.77   1
   7   3   1  390.45  200.64   1
   7   3   1 1061.61  277.73   1
   7   3   1  927.80  237.29   1
  -7  -3  -1  836.09  223.91   1
   7   3   1  547.62  280.93   1
  -7  -3  -2 -105.05  161.67   1
   7   3   2  151.31   65.93   1
  -7  -3  -2  -37.37  116.08   1
   7   3   2  128.93  147.21   1
   7   3   2   67.31   98.32   1
   7   3   2  142.14  106.88   1
  -7  -3  -2  -81.30  121.22   1
   7   3   2    0.37  132.07   1
  -7  -3  -322293.90 1084.00   1
   7   3   322757.70 1244.85   1
   7   3   322435.20 1174.67   1
   7   3   323434.40 1213.50   1
   7   3   318364.30  594.41   1
  -7  -3  -323986.20 1234.53   1
   7   3   323233.10 1339.03   1
  -7  -3  -321251.00 1277.97   1
  -7  -3  -4 1260.67  341.10   1
   7   3   4 1598.95  342.62   1
  -7  -3  -4 1702.05  326.03   1
   7   3   4 1097.86  275.49   1
  -7  -3  -4 1218.87  121.46   1
  -7  -3  -4 1457.00  322.61   1
   7   3   4 1535.63  375.75   1
   7   3   4 1128.75  187.32   1
  -7  -3  -5 5750.42  640.59   1
   7   3   5 4795.74  574.29   1
   7   3   5 6274.98  644.93   1
   7   3   5 5565.90  467.55   1
  -7  -3  -5 5265.70  336.98   1
   7   3   5 4793.45  638.26   1
  -7  -3  -5 5481.45  705.72   1
   7   3   6 3689.67  529.36   1
   7   3   6 3866.88  522.73   1
  -7  -3  -6 3661.08  344.32   1
  -7  -3  -6 3753.42  470.59   1
   7   3   6 4373.83  596.75   1
  -7  -3  -6 4392.91  644.38   1
  -7  -8  -7 8537.42  804.33  -2
   7   3   7 8537.42  804.33   1
  -7  -8  -7 7970.35  658.28  -2
   7   3   7 7970.35  658.28   1
  -7  -8  -7 9348.96  831.66  -2
   7   3   7 9348.96  831.66   1
   7   8   7 8763.02  599.97  -2
  -7  -3  -7 8763.02  599.97   1
   7   8   7 7865.21  645.43  -2
  -7  -3  -7 7865.21  645.43   1
  -7  -8  -710119.80  921.26  -2
   7   3   710119.80  921.26   1
   7   8   7 9076.49  962.94  -2
  -7  -3  -7 9076.49  962.94   1
  -7  -8  -8 5758.59  682.17  -2
   7   3   8 5758.59  682.17   1
  -7  -8  -8 4850.17  616.91  -2
   7   3   8 4850.17  616.91   1
   7   8   8 5799.92  560.51  -2
  -7  -3  -8 5799.92  560.51   1
  -7  -8  -8 7160.35  794.49  -2
   7   3   8 7160.35  794.49   1
   7   8   8 6969.27  893.71  -2
  -7  -3  -8 6969.27  893.71   1
  -7  -8  -9 1013.40  372.97  -2
   7   3   9 1013.40  372.97   1
   7   8   9 1005.95  421.13  -2
  -7  -3  -9 1005.95  421.13   1
  -7  -8  -9 1187.39  339.10  -2
   7   3   9 1187.39  339.10   1
  -7  -8  -9 1001.68  320.95  -2
   7   3   9 1001.68  320.95   1
   7   8   9 1010.19  265.27  -2
  -7  -3  -9 1010.19  265.27   1
  -7  -8  -9 1271.83  368.88  -2
   7   3   9 1271.83  368.88   1
  -7  -8 -10  -84.60  233.37  -2
   7   3  10  -84.60  233.37   1
  -7  -8 -10  572.07  261.31  -2
   7   3  10  572.07  261.31   1
   7   8  10  218.62  168.38  -2
  -7  -3 -10  218.62  168.38   1
  -7  -8 -10  733.48  305.78  -2
   7   3  10  733.48  305.78   1
  -7  -8 -10  382.07  252.99  -2
   7   3  10  382.07  252.99   1
  -7  -4   7  389.29  236.29   1
  -7  -4   7  323.51  227.10   1
   7  10  -6  218.11  113.29  -2
  -7  -4   6  218.11  113.29   1
   7  10  -6  365.34  215.41  -2
  -7  -4   6  365.34  215.41   1
   7  10  -5  599.63  236.32  -2
  -7  -4   5  599.63  236.32   1
   7  10  -5  113.63  200.36  -2
  -7  -4   5  113.63  200.36   1
   7  10  -4  280.83  157.49  -2
  -7  -4   4  280.83  157.49   1
   7  10  -4  368.96  122.56  -2
  -7  -4   4  368.96  122.56   1
   7  10  -4  221.87   95.89  -2
  -7  -4   4  221.87   95.89   1
   7  10  -4  639.56  274.15  -2
  -7  -4   4  639.56  274.15   1
   7  10  -4  541.80  212.98  -2
  -7  -4   4  541.80  212.98   1
   7  10  -3  794.86  131.71  -2
  -7  -4   3  794.86  131.71   1
   7  10  -3  498.11  142.97  -2
  -7  -4   3  498.11  142.97   1
   7  10  -3 1204.08  265.78  -2
  -7  -4   3 1204.08  265.78   1
   7  10  -3  865.18  276.80  -2
  -7  -4   3  865.18  276.80   1
   7  10  -3  642.32  200.11  -2
  -7  -4   3  642.32  200.11   1
  -7  -4   2 7768.67  336.68   1
  -7  -4   2 8362.06  341.92   1
   7   4  -210990.70  940.33   1
  -7  -4   210186.60  676.67   1
  -7  -4   2 9606.27  543.42   1
  -7  -4   210609.80  632.67   1
  -7  -4   2 9797.09  840.71   1
  -7  -4   1 2237.13  416.29   1
  -7  -4   1 2239.20  190.01   1
  -7  -4   1 2042.90  173.08   1
   7   4  -1 2309.03  420.59   1
  -7  -4   1 2387.91  310.36   1
   7   4  -1 2071.11  345.86   1
   7   4  -1 2045.51  394.57   1
  -7  -4   1 2383.66  277.26   1
  -7  -4   1 2372.57  294.67   1
  -7  -4   0 9986.75  461.93   1
   7   4   011431.50  932.10   1
   7   4   010842.50  799.81   1
  -7  -4   010691.00  586.44   1
   7   4   011452.70  871.20   1
  -7  -4   010619.90  517.79   1
   7   4   011549.50  649.59   1
  -7  -4   011340.60  663.82   1
   7   4   011425.50  988.66   1
  -7  -4   010447.90  865.69   1
  -7  -4  -125656.40  858.01   1
   7   4   126335.50 1397.51   1
  -7  -4  -126348.80  868.59   1
   7   4   125880.50 1244.77   1
  -7  -4  -122793.00  685.93   1
   7   4   126633.30 1289.65   1
   7   4   125599.80 1047.42   1
  -7  -4  -128535.80 1131.56   1
   7   4   123466.70  838.55   1
   7   4   126875.10 1464.02   1
  -7  -4  -124816.50 1349.32   1
  -7  -4  -2 2519.26  314.74   1
  -7  -4  -2 2374.07  443.40   1
   7   4   2 2390.11  428.74   1
   7   4   2 2339.35  401.92   1
   7   4   2 2489.17  409.51   1
   7   4   2 1960.20  249.59   1
   7   4   2 2334.14  344.70   1
   7   4   2 2454.86  436.23   1
  -7  -4  -2 2138.44  204.18   1
  -7  -4  -3  127.98  159.15   1
   7   4   3  203.04  175.43   1
  -7  -4  -3  303.72  137.31   1
   7   4   3  326.55  149.27   1
   7   4   3  296.14  166.20   1
   7   4   3  378.23  169.38   1
  -7  -4  -3  246.23   80.38   1
   7   4   3  243.29  152.97   1
   7   4   3  299.77  125.19   1
  -7  -4  -418046.60 1003.63   1
   7   4   418730.70 1176.79   1
   7   4   417643.40 1071.02   1
   7   4   416901.80  997.53   1
   7   4   415939.90  793.19   1
  -7  -4  -416904.80  648.60   1
   7   4   416975.70 1123.90   1
  -7  -4  -417822.30 1188.47   1
  -7  -4  -5 9812.12  797.24   1
   7   4   5 8976.90  829.92   1
   7   4   5 9095.05  803.69   1
   7   4   5 9624.55  751.30   1
  -7  -4  -5 8724.84  523.96   1
   7   4   5 9277.97  835.50   1
  -7  -4  -510087.90  928.40   1
  -7  -4  -6   91.71  123.85   1
  -7  -4  -6  220.73  190.28   1
   7   4   6  -63.21  144.67   1
   7   4   6  292.32  206.31   1
   7   4   6  343.12  223.87   1
   7   4   6  191.74  154.41   1
   7   4   6    9.20  116.28   1
  -7  -9  -7 1318.72  422.05  -2
   7   4   7 1318.72  422.05   1
   7   9   7 1086.61  415.09  -2
  -7  -4  -7 1086.61  415.09   1
  -7  -9  -7  544.59  289.08  -2
   7   4   7  544.59  289.08   1
  -7  -9  -7  844.59  278.69  -2
   7   4   7  844.59  278.69   1
  -7  -9  -7 1222.49  333.93  -2
   7   4   7 1222.49  333.93   1
  -7  -9  -7  811.96  365.43  -2
   7   4   7  811.96  365.43   1
   7   9   7  601.47  259.07  -2
  -7  -4  -7  601.47  259.07   1
  -7  -9  -8 3272.17  595.65  -2
   7   4   8 3272.17  595.65   1
   7   9   8 3242.63  614.97  -2
  -7  -4  -8 3242.63  614.97   1
  -7  -9  -8 3316.38  563.67  -2
   7   4   8 3316.38  563.67   1
  -7  -9  -8 3392.51  540.57  -2
   7   4   8 3392.51  540.57   1
  -7  -9  -8 3529.78  532.90  -2
   7   4   8 3529.78  532.90   1
   7   9   8 3156.98  418.08  -2
  -7  -4  -8 3156.98  418.08   1
  -7  -9  -9  870.98  376.24  -2
   7   4   9  870.98  376.24   1
   7   9   9  818.24  348.19  -2
  -7  -4  -9  818.24  348.19   1
  -7  -9  -9  363.73  242.18  -2
   7   4   9  363.73  242.18   1
  -7  -9  -9  367.99  180.02  -2
   7   4   9  367.99  180.02   1
   7   9   9  213.35  167.99  -2
  -7  -4  -9  213.35  167.99   1
  -7  -9  -9  521.46  245.08  -2
   7   4   9  521.46  245.08   1
  -7  -9 -10 3530.56  734.73  -2
   7   4  10 3530.56  734.73   1
  -7  -9 -10 3243.42  565.33  -2
   7   4  10 3243.42  565.33   1
   7   9  10 2902.79  656.19  -2
  -7  -4 -10 2902.79  656.19   1
  -7  -9 -10 1790.69  405.82  -2
   7   4  10 1790.69  405.82   1
  -7  -5   7  168.07  233.84   1
  -7  -5   7  -88.81  190.69   1
   7  11  -6 -200.51  178.27  -2
  -7  -5   6 -200.51  178.27   1
   7  11  -6   52.57  192.29  -2
  -7  -5   6   52.57  192.29   1
   7  11  -5   -3.33  154.50  -2
  -7  -5   5   -3.33  154.50   1
   7  11  -5   10.29  114.52  -2
  -7  -5   5   10.29  114.52   1
   7  11  -4  -90.21  147.62  -2
  -7  -5   4  -90.21  147.62   1
   7  11  -4  565.19  240.58  -2
  -7  -5   4  565.19  240.58   1
  -7 -11   3 1168.87  340.43  -2
   7   5  -3 1168.87  340.43   1
  -7 -11   3  783.53  282.82  -2
   7   5  -3  783.53  282.82   1
   7  11  -3  715.59  215.80  -2
  -7  -5   3  715.59  215.80   1
   7  11  -3  807.32  225.84  -2
  -7  -5   3  807.32  225.84   1
   7  11  -3 1180.86  298.66  -2
  -7  -5   3 1180.86  298.66   1
  -7  -5   2   46.10  146.24   1
   7   5  -2  -81.33  172.91   1
   7   5  -2  107.63  148.46   1
  -7  -5   2  115.41  133.29   1
  -7  -5   2  158.39  108.81   1
  -7  -5   1 1008.40  282.79   1
   7   5  -1 1340.84  336.00   1
  -7  -5   1 1151.38  222.20   1
   7   5  -1  953.58  282.98   1
  -7  -5   1 1240.48  263.06   1
  -7  -5   0 -130.42  161.43   1
   7   5   0   10.21  137.40   1
  -7  -5   0  122.51   82.07   1
   7   5   0  258.26  143.85   1
   7   5   0  -14.42   60.44   1
  -7  -5   0  204.82  139.27   1
  -7  -5  -1 3448.26  208.42   1
   7   5   1 3067.61  478.49   1
  -7  -5  -1 3083.89  326.13   1
  -7  -5  -1 3723.40  403.13   1
   7   5   1 3341.58  475.86   1
   7   5   1 3699.97  374.33   1
   7   5   1 3483.72  495.10   1
   7   5   1 3540.86  542.83   1
  -7  -5  -1 3746.54  515.97   1
  -7  -5  -2 1141.10  302.77   1
   7   5   2 1189.77  311.09   1
  -7  -5  -2 1342.80  201.13   1
  -7  -5  -2 1148.25  190.83   1
   7   5   2 1201.29  299.03   1
   7   5   2 1383.42  317.77   1
   7   5   2 1545.57  273.71   1
  -7  -5  -2 1366.38  243.29   1
   7   5   2 1221.75  320.06   1
  -7  -5  -324958.70  994.92   1
   7   5   325349.10 1394.02   1
   7   5   325910.40 1316.35   1
   7   5   324670.30 1266.31   1
   7   5   323443.20 1140.74   1
   7   5   322863.00 1300.57   1
  -7  -5  -325101.80 1365.87   1
  -7  -5  -323498.40  860.43   1
  -7  -5  -415422.70  884.57   1
   7   5   414574.80 1070.20   1
   7   5   415473.60 1023.88   1
   7   5   414959.90  981.35   1
   7   5   415482.50  901.58   1
   7   5   415374.30  991.92   1
   7   5   414028.90 1000.10   1
  -7  -5  -415335.60  734.24   1
  -7  -5  -415684.60 1109.80   1
  -7  -5  -539462.60 1554.75   1
   7   5   536195.90 1725.88   1
   7   5   538312.00 1646.37   1
   7   5   537626.60 1532.17   1
   7   5   534561.00 1428.15   1
   7   5   536359.50 1606.73   1
  -7  -5  -536354.70 1204.11   1
  -7  -5  -539458.90 1831.86   1
   7   5   6 5053.72  637.01   1
   7   5   6 4840.49  665.38   1
   7   5   6 5634.45  664.74   1
   7   5   6 5233.36  576.08   1
  -7  -5  -6 5236.88  500.67   1
   7   5   6 5795.29  639.13   1
  -7  -5  -6 6122.83  763.47   1
  -7 -10  -7  262.57  219.13  -2
   7   5   7  262.57  219.13   1
   7  10   7  274.62  240.23  -2
  -7  -5  -7  274.62  240.23   1
  -7 -10  -7  124.37  179.96  -2
   7   5   7  124.37  179.96   1
   7  10   7  160.81  131.83  -2
  -7  -5  -7  160.81  131.83   1
  -7 -10  -7  356.45  216.62  -2
   7   5   7  356.45  216.62   1
  -7 -10  -7  172.77  192.35  -2
   7   5   7  172.77  192.35   1
  -7 -10  -7   11.87  149.12  -2
   7   5   7   11.87  149.12   1
   7  10   8 3387.05  464.23  -2
  -7  -5  -8 3387.05  464.23   1
  -7 -10  -8 3214.02  597.56  -2
   7   5   8 3214.02  597.56   1
  -7 -10  -8 3964.95  659.80  -2
   7   5   8 3964.95  659.80   1
  -7 -10  -8 3874.99  487.63  -2
   7   5   8 3874.99  487.63   1
  -7 -10  -8 2302.75  447.45  -2
   7   5   8 2302.75  447.45   1
  -7 -10  -8 4095.68  552.26  -2
   7   5   8 4095.68  552.26   1
   7  10   8 4975.12  796.27  -2
  -7  -5  -8 4975.12  796.27   1
  -7 -10  -9 2173.28  509.85  -2
   7   5   9 2173.28  509.85   1
   7  10   9 3606.35  683.25  -2
  -7  -5  -9 3606.35  683.25   1
  -7 -10  -9 3030.27  559.66  -2
   7   5   9 3030.27  559.66   1
  -7 -10  -9 1833.47  422.71  -2
   7   5   9 1833.47  422.71   1
   7  10   9 2214.91  409.43  -2
  -7  -5  -9 2214.91  409.43   1
  -7 -10 -10  781.92  371.64  -2
   7   5  10  781.92  371.64   1
  -7 -10 -10  321.27  209.67  -2
   7   5  10  321.27  209.67   1
  -7 -10 -10  284.71  245.54  -2
   7   5  10  284.71  245.54   1
   7  10  10  174.79  171.73  -2
  -7  -5 -10  174.79  171.73   1
   7   6  -7   76.62  181.96   1
  -7  -6   7 -360.17  238.16   1
  -7 -12   6  489.92  224.37  -2
   7   6  -6  489.92  224.37   1
   7  12  -6  729.17  306.05  -2
  -7  -6   6  729.17  306.05   1
   7  12  -6  350.88  185.03  -2
  -7  -6   6  350.88  185.03   1
  -7 -12   5  814.28  300.28  -2
   7   6  -5  814.28  300.28   1
  -7 -12   5  923.50  363.42  -2
   7   6  -5  923.50  363.42   1
   7  12  -5  417.67  255.39  -2
  -7  -6   5  417.67  255.39   1
   7  12  -5  446.56  222.03  -2
  -7  -6   5  446.56  222.03   1
   7  12  -4 1079.78  275.62  -2
  -7  -6   4 1079.78  275.62   1
  -7 -12   4 1074.70  361.98  -2
   7   6  -4 1074.70  361.98   1
  -7 -12   4 1077.15  319.78  -2
   7   6  -4 1077.15  319.78   1
   7  12  -4 1017.23  293.57  -2
  -7  -6   4 1017.23  293.57   1
   7  12  -3  -58.45  135.93  -2
  -7  -6   3  -58.45  135.93   1
  -7 -12   3   35.97  175.51  -2
   7   6  -3   35.97  175.51   1
  -7 -12   3  202.12  216.93  -2
   7   6  -3  202.12  216.93   1
   7  12  -3  -11.21  136.99  -2
  -7  -6   3  -11.21  136.99   1
  -7  -6   2 1330.08  320.05   1
   7   6  -2 1803.43  434.10   1
  -7  -6   2 1414.36  306.00   1
   7   6  -2 1629.84  409.89   1
  -7  -6   2 1705.22  345.84   1
  -7  -6   1 2532.29  425.27   1
   7   6  -1 2738.97  494.76   1
   7   6  -1 2182.21  368.92   1
  -7  -6   1 1985.02  339.68   1
   7   6  -1 3141.43  505.57   1
  -7  -6   1 2417.73  390.17   1
  -7  -6   0  554.48  220.13   1
  -7  -6   0  523.77  177.30   1
   7   6   0  588.86  200.20   1
   7   6   0  531.07  260.67   1
   7   6   0  667.26  258.99   1
   7   6   0  371.68   83.68   1
  -7  -6   0  806.22  225.37   1
   7   6   0  238.55  138.70   1
  -7  -6  -1 2881.75  445.58   1
   7   6   1 3494.90  532.14   1
  -7  -6  -1 3493.55  434.02   1
   7   6   1 3315.33  330.27   1
   7   6   1 3530.29  520.79   1
   7   6   1 3177.45  429.13   1
  -7  -6  -2  602.72  229.87   1
   7   6   2  235.42  187.13   1
   7   6   2  286.40  194.78   1
   7   6   2  631.64  185.73   1
  -7  -6  -2  412.55  161.99   1
   7   6   2  393.98  151.52   1
  -7  -6  -3 7050.64  503.47   1
   7   6   3 6286.25  729.83   1
   7   6   3 7035.32  712.70   1
   7   6   3 6028.32  612.11   1
   7   6   3 6269.95  584.47   1
  -7  -6  -3 6072.15  670.50   1
  -7  -6  -3 5557.88  486.32   1
  -7  -6  -4  -37.55  130.14   1
   7   6   4  -64.03  151.91   1
  -7  -6  -4  101.37  103.66   1
   7   6   4   15.01  121.26   1
   7   6   4   76.35  146.11   1
  -7  -6  -4  119.17  107.55   1
   7   6   4  137.21  159.57   1
   7   6   4  438.07  234.87   1
  -7  -6  -5   96.36  134.57   1
   7   6   5   98.64  124.93   1
  -7  -6  -5  -21.65  158.97   1
   7   6   5  -16.57  198.51   1
  -7  -6  -5  128.89  130.24   1
   7   6   5   11.80  147.37   1
   7   6   5  288.18  207.14   1
   7   6   6  594.44  301.63   1
  -7  -6  -6  366.87  223.55   1
   7   6   6  786.87  345.51   1
   7   6   6  702.73  304.98   1
   7   6   6  813.21  276.27   1
  -7  -6  -6  973.24  280.65   1
  -7 -11  -7 1628.75  426.35  -2
   7   6   7 1628.75  426.35   1
   7  11   7 1253.24  429.74  -2
  -7  -6  -7 1253.24  429.74   1
  -7 -11  -7 1017.81  348.29  -2
   7   6   7 1017.81  348.29   1
   7  11   7 1509.25  345.03  -2
  -7  -6  -7 1509.25  345.03   1
  -7 -11  -7 1780.95  403.41  -2
   7   6   7 1780.95  403.41   1
  -7 -11  -7 1464.49  351.61  -2
   7   6   7 1464.49  351.61   1
  -7 -11  -8 6340.13  827.61  -2
   7   6   8 6340.13  827.61   1
  -7 -11  -8 6037.39  810.25  -2
   7   6   8 6037.39  810.25   1
  -7 -11  -8 6682.02  681.21  -2
   7   6   8 6682.02  681.21   1
   7  11   8 5684.26  626.77  -2
  -7  -6  -8 5684.26  626.77   1
   7  11   8 7185.68  910.31  -2
  -7  -6  -8 7185.68  910.31   1
  -7 -11  -910237.80 1084.54  -2
   7   6   910237.80 1084.54   1
  -7 -11  -9 7240.76  899.27  -2
   7   6   9 7240.76  899.27   1
   7  11   9 8896.12  838.25  -2
  -7  -6  -9 8896.12  838.25   1
   7  11   910669.80 1165.68  -2
  -7  -6  -910669.80 1165.68   1
  -7 -13   6  717.43  300.07  -2
   7   7  -6  717.43  300.07   1
  -7 -13   6  -20.64  242.11  -2
   7   7  -6  -20.64  242.11   1
   7  13  -6  252.18  250.06  -2
  -7  -7   6  252.18  250.06   1
  -7 -13   5  819.49  285.31  -2
   7   7  -5  819.49  285.31   1
  -7 -13   5  609.05  258.60  -2
   7   7  -5  609.05  258.60   1
   7  13  -5  -39.71  206.08  -2
  -7  -7   5  -39.71  206.08   1
   7  13  -4  903.65  258.97  -2
  -7  -7   4  903.65  258.97   1
  -7 -13   4  578.34  239.07  -2
   7   7  -4  578.34  239.07   1
  -7 -13   4  861.47  307.06  -2
   7   7  -4  861.47  307.06   1
   7  13  -4  346.98  204.73  -2
  -7  -7   4  346.98  204.73   1
  -7 -13   4  415.01  246.34  -2
   7   7  -4  415.01  246.34   1
   7  13  -3  436.67  166.15  -2
  -7  -7   3  436.67  166.15   1
  -7 -13   3  530.58  228.03  -2
   7   7  -3  530.58  228.03   1
  -7 -13   3  862.47  297.76  -2
   7   7  -3  862.47  297.76   1
   7  13  -3  360.09  187.96  -2
  -7  -7   3  360.09  187.96   1
  -7  -7   2  -62.33  116.62   1
   7   7  -2   88.33  184.41   1
   7   7  -2  244.82  130.93   1
  -7  -7   2 -190.19  176.36   1
  -7  -7   1  115.64  130.95   1
   7   7  -1  -40.57  136.42   1
  -7  -7   1 -113.73  125.27   1
  -7  -7   0  361.41  175.70   1
   7   7   0  586.07  237.60   1
   7   7   0  560.71  274.30   1
  -7  -7   0  256.30  155.16   1
   7   7   0  766.32  256.98   1
  -7  -7  -1   -0.31  107.79   1
   7   7   1  238.75  245.88   1
   7   7   1 -167.02  213.12   1
  -7  -7  -1  -16.22  101.01   1
   7   7   1   54.98  123.94   1
  -7  -7  -2 1270.36  305.35   1
   7   7   2 1181.44  346.04   1
   7   7   2 1366.42  347.37   1
  -7  -7  -2 1473.35  329.69   1
  -7  -7  -3 6123.59  581.51   1
   7   7   3 6962.73  819.75   1
  -7  -7  -3 5117.50  586.22   1
   7   7   3 6517.19  718.01   1
   7   7   3 6193.54  573.07   1
  -7  -7  -3 7006.66  731.78   1
   7   7   4 5761.75  524.88   1
   7   7   4 5947.43  758.26   1
   7   7   4 6973.95  742.84   1
  -7  -7  -4 6803.08  751.87   1
  -7  -7  -4 6137.29  591.61   1
   7   7   5 6473.12  625.98   1
   7   7   5 6220.82  784.86   1
   7   7   5 5658.00  665.87   1
  -7  -7  -5 6466.58  775.42   1
  -7  -7  -5 6467.18  619.00   1
  -7  -7  -6  889.05  246.36   1
   7   7   6 1082.65  324.85   1
  -7  -7  -6 1014.95  371.08   1
   7   7   6  988.28  358.07   1
   7   7   6  994.97  299.46   1
  -7 -12  -7 2021.59  440.32  -2
   7   7   7 2021.59  440.32   1
   7  12   7 1661.73  457.84  -2
  -7  -7  -7 1661.73  457.84   1
  -7 -12  -7 1950.75  475.75  -2
   7   7   7 1950.75  475.75   1
  -7 -12  -7 2343.74  460.61  -2
   7   7   7 2343.74  460.61   1
   7  12   7 2488.93  431.55  -2
  -7  -7  -7 2488.93  431.55   1
  -7 -12  -8 2134.68  502.16  -2
   7   7   8 2134.68  502.16   1
  -7 -12  -8 1963.47  542.85  -2
   7   7   8 1963.47  542.85   1
   7  12   8 3415.59  656.04  -2
  -7  -7  -8 3415.59  656.04   1
   7  12   8 1930.45  413.00  -2
  -7  -7  -8 1930.45  413.00   1
  -7 -12  -8 3256.46  529.83  -2
   7   7   8 3256.46  529.83   1
  -7 -14   5 -366.34  264.40  -2
   7   8  -5 -366.34  264.40   1
   7  14  -5 -116.70  175.71  -2
  -7  -8   5 -116.70  175.71   1
  -7 -14   5    8.12  168.29  -2
   7   8  -5    8.12  168.29   1
  -7 -14   4 1197.81  359.94  -2
   7   8  -4 1197.81  359.94   1
  -7 -14   4 1689.89  430.44  -2
   7   8  -4 1689.89  430.44   1
   7  14  -4  951.53  362.48  -2
  -7  -8   4  951.53  362.48   1
  -7 -14   4 1387.56  446.49  -2
   7   8  -4 1387.56  446.49   1
  -7 -14   3 3248.77  541.50  -2
   7   8  -3 3248.77  541.50   1
  -7 -14   3 2783.02  508.43  -2
   7   8  -3 2783.02  508.43   1
   7  14  -3 2889.28  544.04  -2
  -7  -8   3 2889.28  544.04   1
  -7 -14   3 3433.79  598.93  -2
   7   8  -3 3433.79  598.93   1
   7   8  -2  602.99  281.25   1
   7   8  -2  845.79  336.15   1
  -7  -8   2  322.57  198.84   1
  -7  -8   1  515.90  208.03   1
   7   8  -1   21.94  137.35   1
   7   8  -1  653.96  248.24   1
  -7  -8   1  119.75  171.25   1
  -7  -8   0  153.77  140.78   1
   7   8   0    0.87  177.74   1
   7   8   0   60.01  141.80   1
  -7  -8   0  237.24  186.79   1
  -7  -8  -1  172.78  146.44   1
   7   8   1  469.19  224.08   1
   7   8   1  426.69  249.06   1
  -7  -8  -1  314.55  191.54   1
  -7  -8  -2  130.99  129.64   1
   7   8   2   87.94  147.62   1
   7   8   2  184.43  192.34   1
  -7  -8  -2  323.93  209.12   1
  -7  -8  -3 1885.07  381.08   1
   7   8   3 1734.59  448.13   1
   7   8   3 1552.33  375.46   1
  -7  -8  -3 1860.12  385.50   1
  -7  -8  -3 1675.21  331.64   1
  -7  -8  -4   75.33  166.02   1
   7   8   4 -267.58  231.06   1
  -7  -8  -4 -133.23  152.16   1
  -7  -8  -5 1401.50  361.54   1
   7   8   5  967.49  360.95   1
   7   8   5 1456.56  371.56   1
  -7  -8  -5 1216.29  308.56   1
   7   8   6 4673.18  598.51   1
   7   8   6 4274.93  690.21   1
  -7  -8  -6 4428.72  671.38   1
  -7  -8  -6 3513.66  513.49   1
   7   8   6 4595.58  638.83   1
  -7 -13  -7  952.93  326.92  -2
   7   8   7  952.93  326.92   1
  -7 -13  -7  815.82  385.16  -2
   7   8   7  815.82  385.16   1
   7  13   7  475.68  309.96  -2
  -7  -8  -7  475.68  309.96   1
  -7 -13  -7 1367.57  399.03  -2
   7   8   7 1367.57  399.03   1
   7  13   7  133.13  187.90  -2
  -7  -8  -7  133.13  187.90   1
  -7 -15   4  113.33  161.13  -2
   7   9  -4  113.33  161.13   1
  -7 -15   4  520.27  258.01  -2
   7   9  -4  520.27  258.01   1
   7  15  -4 -217.10  214.02  -2
  -7  -9   4 -217.10  214.02   1
  -7 -15   4  139.09  183.40  -2
   7   9  -4  139.09  183.40   1
  -7 -15   3  296.56  235.23  -2
   7   9  -3  296.56  235.23   1
  -7 -15   3  264.67  194.02  -2
   7   9  -3  264.67  194.02   1
   7  15  -3  570.23  351.40  -2
  -7  -9   3  570.23  351.40   1
  -7 -15   3  710.14  277.34  -2
   7   9  -3  710.14  277.34   1
   7   9  -2 1763.03  419.28   1
   7   9  -2 1726.82  426.98   1
  -7  -9   2 1279.86  389.13   1
   7   9  -2 1850.25  489.89   1
   7   9  -1   15.93  192.87   1
   7   9  -1   13.33  191.92   1
  -7  -9   1  231.74  217.86   1
   7   9   0 2061.18  482.26   1
   7   9   0 2333.57  490.89   1
  -7  -9   0 2336.45  497.07   1
   7   9   1 1120.48  362.82   1
   7   9   1  642.50  356.78   1
  -7  -9  -1  423.36  272.13   1
  -7  -9  -2  136.92  193.87   1
   7   9   2 -533.42  277.66   1
   7   9   2   25.96  189.92   1
  -7  -9  -2  -48.83  150.44   1
  -7  -9  -3 2380.74  431.40   1
   7   9   3 2452.37  548.73   1
  -7  -9  -3 2362.65  429.11   1
   7   9   3 1712.57  419.35   1
  -7  -9  -3 1911.59  434.00   1
   7   9   4 7432.53  932.01   1
   7   9   4 8112.30  879.58   1
  -7  -9  -4 8753.98  837.85   1
  -7  -9  -4 7103.08  751.55   1
   7   9   5 3145.84  626.52   1
   7   9   5 2895.84  530.09   1
  -7  -9  -5 2681.42  479.95   1
  -7  -9  -6  888.02  296.21   1
   7   9   6 1061.25  343.65   1
   7  10  -2  268.17  273.20   1
  -7 -10   2  348.01  248.66   1
   7  10  -2  175.46  231.92   1
   7  10  -1  194.35  207.85   1
   7  10  -1  -58.45  180.13   1
  -7 -10   1  -92.51  169.69   1
   7  10   0  296.15  260.40   1
   7  10   0  -39.78  211.87   1
  -7 -10   0  -23.95  195.27   1
   7  10   1  -48.11  182.63   1
   7  10   1  242.55  227.68   1
  -7 -10  -1 -164.13  221.07   1
   7  10   2  644.73  347.86   1
   7  10   2  388.65  212.12   1
  -7 -10  -2  212.11  198.51   1
  -7 -10  -3   84.53  157.08   1
   7  10   3  116.85  232.02   1
   7  10   3  201.59  171.47   1
  -7 -10  -3  147.64  181.86   1
   7  10   4  349.66  259.29   1
  -7 -10  -4  -85.72  183.95   1
   8  -3  -1   57.23  154.12   1
  -8   3   1 -362.38  265.34   1
   8  -3  -1  209.48  250.56   1
  -8   3   1 -213.31  269.76   1
  -8   3   0  360.61  279.35   1
   8  -3   0  533.78  327.46   1
  -8   3   0   98.48  203.94   1
   8  -3   0  463.33  341.48   1
  -8   3  -1  802.08  360.77   1
   8  -3   1 1031.93  309.40   1
  -8   3  -1 1309.88  465.89   1
   8  -3   1  532.14  284.84   1
  -8   3  -2  -40.61  166.18   1
   8  -3   2   17.83  196.39   1
  -8   3  -2  619.30  305.46   1
   8  -3   2  173.67  201.64   1
  -8   3  -3 2092.38  556.59   1
   8  -3   3 2639.46  516.23   1
  -8   3  -3 1875.54  518.60   1
   8  -3   3 2619.01  600.60   1
   8  -3   4 5851.38  806.12   1
  -8   3  -4 6251.13  923.09   1
  -8   3  -4 6635.53  909.91   1
  -8   2   3  337.75  289.28   1
   8  -2  -3  -11.86  139.53   1
  -8   2   3 -210.02  217.06   1
   8  -2  -3  -28.42  165.29   1
   8  -2  -2 -197.34  231.77   1
  -8   2   2  137.52  249.84   1
   8  -2  -2  323.70  236.05   1
  -8   2   2   60.04  168.99   1
   8  -2  -1  -16.48  140.64   1
  -8   2   1   99.80  259.55   1
   8  -2  -1  593.01  376.82   1
  -8   2   1  231.79  243.80   1
  -8   2   0  172.77  238.22   1
   8  -2   0  289.22  230.43   1
  -8   2   0  290.62  262.10   1
   8  -2   0  -47.35  208.73   1
  -8   2  -1 3061.22  622.55   1
   8  -2   1 2813.83  488.57   1
  -8   2  -1 5079.81  792.39   1
   8  -2   1 4028.56  718.36   1
  -8   2  -2 3219.76  623.73   1
   8  -2   2 3611.19  589.56   1
  -8   2  -2 3723.53  680.62   1
   8  -2   2 3566.86  686.92   1
  -8   2  -3  837.53  319.34   1
   8  -2   3 1405.00  400.55   1
  -8   2  -3 1798.25  515.05   1
   8  -2   3  618.13  310.64   1
  -8   2  -4  -68.63  164.63   1
   8  -2   4  165.72  233.38   1
  -8   2  -4  -67.42  212.50   1
   8  -2   4  543.20  296.63   1
   8   4   5 3265.56  630.75  -2
  -8   2  -5 3265.56  630.75   1
  -8  -4  -5 3513.20  616.31  -2
   8  -2   5 3513.20  616.31   1
   8   4   5 2775.98  612.19  -2
  -8   2  -5 2775.98  612.19   1
  -8  -4  -5 3334.02  664.03  -2
   8  -2   5 3334.02  664.03   1
   8   4   6  -59.58  214.02  -2
  -8   2  -6  -59.58  214.02   1
  -8  -4  -6  -75.65  232.45  -2
   8  -2   6  -75.65  232.45   1
   8   4   6  165.17  204.63  -2
  -8   2  -6  165.17  204.63   1
  -8  -4  -6  -56.57  184.31  -2
   8  -2   6  -56.57  184.31   1
  -8   1   4 -282.37  222.08   1
  -8   1   4 -220.09  221.37   1
   8  -1  -4   54.05  148.06   1
  -8   1   4  191.00  275.06   1
  -8   1   3  896.30  309.61   1
   8  -1  -3  660.37  251.90   1
  -8   1   3  969.28  373.40   1
   8  -1  -3  668.36  295.22   1
  -8   1   3  940.29  373.11   1
   8  -1  -2  346.99  229.67   1
  -8   1   2 -159.26  169.58   1
   8  -1  -2  336.92  262.65   1
  -8   1   2   51.34  191.49   1
   8  -1  -1  -44.42  157.20   1
  -8   1   1  268.40  226.88   1
   8  -1  -1   52.52  168.40   1
  -8   1   1  -38.37  214.20   1
  -8   1   0 3211.95  640.80   1
   8  -1   0 3618.37  536.87   1
  -8   1   0 2552.08  544.37   1
   8  -1   0 2460.01  546.75   1
  -8   1  -1  653.71  336.58   1
   8  -1   1  524.49  232.55   1
  -8   1  -1  385.12  271.65   1
   8  -1   1  605.71  300.08   1
  -8   1  -2  291.45  276.79   1
   8  -1   2  369.04  230.91   1
  -8   1  -2  -85.36  233.46   1
   8  -1   2   80.28  244.38   1
  -8   1  -3  164.20  208.63   1
   8  -1   3   48.36  166.07   1
  -8   1  -3  347.96  251.99   1
   8  -1   3  156.25  181.71   1
   8  -1   4 5809.70  745.07   1
  -8   1  -4 6558.08  884.27   1
   8  -1   4 5478.51  811.62   1
  -8   1  -4 5469.59  813.21   1
   8   5   5 4042.14  725.53  -2
  -8   1  -5 4042.14  725.53   1
  -8  -5  -5 3604.78  581.45  -2
   8  -1   5 3604.78  581.45   1
   8   5   5 3467.15  670.14  -2
  -8   1  -5 3467.15  670.14   1
  -8  -5  -5 4218.17  701.64  -2
   8  -1   5 4218.17  701.64   1
  -8  -5  -6 8487.58  920.12  -2
   8  -1   6 8487.58  920.12   1
   8   5   6 8051.01 1027.65  -2
  -8   1  -6 8051.01 1027.65   1
  -8  -5  -6 8798.54 1042.51  -2
   8  -1   6 8798.54 1042.51   1
   8   5   6 7703.14  959.54  -2
  -8   1  -6 7703.14  959.54   1
   8   5   7 2791.02  601.59  -2
  -8   1  -7 2791.02  601.59   1
  -8  -5  -7 2998.91  607.96  -2
   8  -1   7 2998.91  607.96   1
   8   5   7 4201.92  761.38  -2
  -8   1  -7 4201.92  761.38   1
  -8  -5  -7 3366.01  708.26  -2
   8  -1   7 3366.01  708.26   1
  -8   0   5  186.12  196.35   1
  -8   0   5  346.52  261.86   1
  -8   0   4  333.06  228.76   1
   8   0  -4  428.97  175.69   1
  -8   0   4  587.49  316.76   1
   8   0  -4   48.83  164.82   1
  -8   0   4  549.91  342.43   1
  -8   0   3 2942.60  517.76   1
   8   0  -3 3122.43  446.34   1
  -8   0   3 2723.14  527.49   1
   8   0  -3 3660.10  633.27   1
  -8   0   3 3484.05  661.09   1
   8   0  -2  543.25  217.30   1
  -8   0   2  395.69  231.79   1
   8   0  -2  546.48  269.58   1
  -8   0   2 1080.87  403.76   1
   8   0  -1  178.18  156.58   1
  -8   0   1  -11.28  161.09   1
   8   0  -1  -32.79  158.41   1
  -8   0   0 3645.93  626.66   1
   8   0   0 3560.18  513.70   1
  -8   0   0 3758.13  604.28   1
   8   0   0 3960.24  646.43   1
  -8   0  -1  299.21  241.85   1
   8   0   1  312.99  221.98   1
  -8   0  -1  595.51  306.32   1
   8   0   1  315.69  240.56   1
  -8   0  -2 3804.01  648.16   1
   8   0   2 4636.26  623.68   1
  -8   0  -2 4177.39  649.70   1
   8   0   2 3812.14  672.88   1
  -8   0  -3 -204.73  214.12   1
   8   0   3   49.97  175.19   1
  -8   0  -3  -99.63  186.76   1
   8   0   3 -246.93  157.20   1
  -8   0  -4 1484.71  418.91   1
   8   0   4 1660.27  415.25   1
  -8   0  -4 1401.27  419.42   1
   8   0   4 1305.48  417.50   1
   8   6   5 3049.62  611.39  -2
  -8   0  -5 3049.62  611.39   1
  -8  -6  -5 3439.96  591.83  -2
   8   0   5 3439.96  591.83   1
   8   6   5 3132.66  592.99  -2
  -8   0  -5 3132.66  592.99   1
  -8  -6  -5 3428.39  629.30  -2
   8   0   5 3428.39  629.30   1
   8   6   6 1464.01  426.04  -2
  -8   0  -6 1464.01  426.04   1
  -8  -6  -6  574.85  241.79  -2
   8   0   6  574.85  241.79   1
   8   6   6 1037.97  340.75  -2
  -8   0  -6 1037.97  340.75   1
  -8  -6  -6 1276.82  386.70  -2
   8   0   6 1276.82  386.70   1
   8   6   7 3147.26  623.40  -2
  -8   0  -7 3147.26  623.40   1
  -8  -6  -7 2224.99  482.65  -2
   8   0   7 2224.99  482.65   1
   8   6   7 3076.80  640.35  -2
  -8   0  -7 3076.80  640.35   1
  -8  -6  -7 2220.42  549.16  -2
   8   0   7 2220.42  549.16   1
   8   6   8  501.13  253.08  -2
  -8   0  -8  501.13  253.08   1
  -8  -6  -8 1002.84  401.46  -2
   8   0   8 1002.84  401.46   1
   8   6   8 1179.66  464.56  -2
  -8   0  -8 1179.66  464.56   1
  -8  -6  -8 1113.30  404.79  -2
   8   0   8 1113.30  404.79   1
   8   8  -6  924.22  405.92  -2
  -8  -1   6  924.22  405.92   1
  -8  -1   5  298.48  186.53   1
  -8  -1   5    1.26  171.09   1
  -8  -1   5  151.70  237.68   1
  -8  -1   4 1247.58  328.48   1
   8   1  -4 1593.29  312.39   1
  -8  -1   4 1624.35  374.03   1
  -8  -1   4 1635.51  454.09   1
  -8  -1   3 4599.48  582.36   1
   8   1  -3 5328.73  550.83   1
  -8  -1   3 5192.31  663.43   1
   8   1  -3 3998.03  664.55   1
  -8  -1   3 4787.35  747.65   1
  -8  -1   2 1834.27  358.43   1
   8   1  -2 1634.63  330.24   1
  -8  -1   2 1447.19  371.57   1
   8   1  -2 1718.86  428.90   1
  -8  -1   2 1527.94  432.38   1
   8   1  -1  264.99  181.98   1
  -8  -1   1  522.19  237.49   1
   8   1  -1  569.94  296.77   1
  -8  -1   1   73.69  171.54   1
  -8  -1   0   -0.48  151.98   1
   8   1   0   72.67  127.07   1
  -8  -1   0  339.13  210.10   1
   8   1   0 -124.87  244.74   1
   8   1   113578.10  985.85   1
  -8  -1  -112165.50 1022.98   1
   8   1   111888.80 1106.61   1
  -8  -1  -112981.90 1137.64   1
  -8  -1  -2  993.31  333.63   1
   8   1   2  947.09  286.06   1
  -8  -1  -2 1089.70  326.09   1
   8   1   2  637.58  316.66   1
  -8  -1  -3   -2.95  152.09   1
  -8  -1  -3   66.75  189.10   1
   8   1   3  -33.93  200.37   1
   8   1   4 6394.67  706.89   1
   8   1   4 7044.53  773.27   1
  -8  -1  -4 7662.59  855.78   1
   8   1   4 7147.02  872.42   1
  -8  -1  -4 6772.82  847.21   1
   8   7   5  220.94  228.81  -2
  -8  -1  -5  220.94  228.81   1
  -8  -7  -5   17.26  140.51  -2
   8   1   5   17.26  140.51   1
  -8  -7  -5  249.05  204.37  -2
   8   1   5  249.05  204.37   1
   8   7   5  208.03  184.80  -2
  -8  -1  -5  208.03  184.80   1
  -8  -7  -5  205.86  263.37  -2
   8   1   5  205.86  263.37   1
  -8  -7  -6 5487.35  642.74  -2
   8   1   6 5487.35  642.74   1
  -8  -7  -6 7099.06  794.39  -2
   8   1   6 7099.06  794.39   1
   8   7   6 6545.22  872.55  -2
  -8  -1  -6 6545.22  872.55   1
  -8  -7  -6 6102.26  806.18  -2
   8   1   6 6102.26  806.18   1
   8   7   6 6513.48  844.85  -2
  -8  -1  -6 6513.48  844.85   1
  -8  -7  -7 4314.05  567.56  -2
   8   1   7 4314.05  567.56   1
  -8  -7  -7 4854.27  665.80  -2
   8   1   7 4854.27  665.80   1
   8   7   7 4429.80  733.39  -2
  -8  -1  -7 4429.80  733.39   1
  -8  -7  -7 3592.59  645.10  -2
   8   1   7 3592.59  645.10   1
   8   7   7 5233.64  783.40  -2
  -8  -1  -7 5233.64  783.40   1
   8   7   8  544.65  295.73  -2
  -8  -1  -8  544.65  295.73   1
  -8  -7  -8   46.69  139.38  -2
   8   1   8   46.69  139.38   1
  -8  -7  -8  584.94  318.95  -2
   8   1   8  584.94  318.95   1
  -8  -7  -8  -19.13  190.69  -2
   8   1   8  -19.13  190.69   1
   8   1   9 1745.90  465.68   1
   8   1   9 2586.53  566.16   1
   8   9  -6  339.88  296.63  -2
  -8  -2   6  339.88  296.63   1
  -8  -2   5 -272.37  228.77   1
  -8  -2   4   77.96  129.86   1
   8   2  -4   47.93  106.47   1
  -8  -2   4 -104.46  145.90   1
  -8  -2   4  -27.40  170.26   1
  -8  -2   3  -29.41  103.76   1
   8   2  -3   95.35  138.60   1
  -8  -2   3 -123.45  144.10   1
   8   2  -3    9.18  200.75   1
  -8  -2   3 -182.08  184.90   1
  -8  -2   2 1227.72  287.65   1
   8   2  -2 1210.64  270.21   1
  -8  -2   2 1254.58  305.92   1
   8   2  -2 1044.73  297.71   1
  -8  -2   2 1577.71  418.03   1
  -8  -2   1  504.77  251.55   1
   8   2  -1  697.30  226.45   1
  -8  -2   1  665.53  243.70   1
   8   2  -1  526.99  282.48   1
  -8  -2   0 -290.50  239.00   1
   8   2   0   38.15  120.70   1
  -8  -2   0  299.36  173.73   1
   8   2   0    2.34  152.26   1
  -8  -2  -1 1680.13  411.20   1
  -8  -2  -1 2023.12  380.89   1
   8   2   1 1849.93  376.33   1
  -8  -2  -1 1942.62  375.05   1
   8   2   1 1835.29  444.43   1
  -8  -2  -219963.80 1156.66   1
   8   2   220265.80 1278.30   1
   8   2   221090.90 1234.80   1
  -8  -2  -219111.90 1209.44   1
   8   2   218957.20 1359.27   1
  -8  -2  -219664.90 1365.03   1
  -8  -2  -3  493.02  229.86   1
   8   2   3  209.74  202.82   1
   8   2   3  288.60  189.30   1
  -8  -2  -3  415.23  205.69   1
   8   2   3  131.29  176.89   1
  -8  -2  -4  662.18  262.47   1
   8   2   4  623.57  266.22   1
   8   2   4  495.25  233.51   1
  -8  -2  -4  812.31  306.15   1
   8   2   4  983.03  374.91   1
   8   8   5  236.86  230.62  -2
  -8  -2  -5  236.86  230.62   1
  -8  -8  -5   69.40  127.32  -2
   8   2   5   69.40  127.32   1
  -8  -8  -5   37.92  162.76  -2
   8   2   5   37.92  162.76   1
   8   8   5   -4.10  164.21  -2
  -8  -2  -5   -4.10  164.21   1
  -8  -8  -5   12.81  176.24  -2
   8   2   5   12.81  176.24   1
   8   8   6  581.53  315.81  -2
  -8  -2  -6  581.53  315.81   1
  -8  -8  -6  473.90  323.06  -2
   8   2   6  473.90  323.06   1
  -8  -8  -6  111.29  202.20  -2
   8   2   6  111.29  202.20   1
   8   8   6  -25.16  177.64  -2
  -8  -2  -6  -25.16  177.64   1
  -8  -8  -6  371.52  222.45  -2
   8   2   6  371.52  222.45   1
   8   8   7  477.90  257.45  -2
  -8  -2  -7  477.90  257.45   1
  -8  -8  -7  310.85  179.33  -2
   8   2   7  310.85  179.33   1
  -8  -8  -7  973.23  348.30  -2
   8   2   7  973.23  348.30   1
  -8  -8  -7  256.28  214.04  -2
   8   2   7  256.28  214.04   1
  -8  -8  -8 5936.10  694.68  -2
   8   2   8 5936.10  694.68   1
  -8  -8  -8 6047.61  745.58  -2
   8   2   8 6047.61  745.58   1
  -8  -8  -8 5060.64  762.11  -2
   8   2   8 5060.64  762.11   1
   8   8   8 5647.67  838.71  -2
  -8  -2  -8 5647.67  838.71   1
   8   2   9 9239.71  955.31   1
   8   2   9 8679.31  995.20   1
  -8  -2  -910372.00 1169.65   1
   8  10  -6   29.03  187.65  -2
  -8  -3   6   29.03  187.65   1
  -8  -3   5 -138.17  162.60   1
  -8  -3   4  373.77  223.78   1
  -8  -3   3  924.86  218.39   1
   8   3  -3 1015.04  241.14   1
  -8  -3   3 1245.47  375.64   1
  -8  -3   2  868.03  197.47   1
   8   3  -2 1183.01  291.32   1
  -8  -3   2 1306.65  273.86   1
   8   3  -2 1238.31  387.22   1
  -8  -3   2 1637.09  428.35   1
  -8  -3   1  378.91  242.04   1
   8   3  -1   27.28  123.26   1
  -8  -3   1  271.22  171.15   1
   8   3  -1   -2.84  133.23   1
  -8  -3   0  553.66  276.79   1
  -8  -3   0  416.46  186.66   1
   8   3   0  268.36  217.59   1
   8   3   0  560.24  230.94   1
   8   3   0  267.38  123.40   1
  -8  -3   0  660.79  219.46   1
   8   3   0  345.65  243.94   1
  -8  -3  -1  430.49  249.82   1
  -8  -3  -1  470.06  190.59   1
   8   3   1  260.75  189.88   1
   8   3   1  548.46  202.23   1
   8   3   1  350.89  177.61   1
  -8  -3  -1  256.39  148.73   1
   8   3   1  544.47  318.05   1
  -8  -3  -2   35.75  143.38   1
  -8  -3  -2 -122.13  138.01   1
   8   3   2 -104.19  127.52   1
   8   3   2  -15.15  120.32   1
  -8  -3  -2  313.23  191.49   1
   8   3   2   68.26  194.35   1
  -8  -3  -3  990.61  343.61   1
   8   3   3 1109.19  329.62   1
  -8  -3  -3 1406.30  318.68   1
   8   3   3 1128.09  327.87   1
  -8  -3  -3  945.60  277.89   1
   8   3   3 1098.56  341.90   1
  -8  -3  -4 3246.47  568.72   1
   8   3   4 3555.35  556.24   1
  -8  -3  -4 3759.52  532.15   1
   8   3   4 4351.42  599.60   1
  -8  -3  -4 3555.37  546.59   1
   8   3   4 4235.90  655.22   1
   8   9   5  665.83  299.48  -2
  -8  -3  -5  665.83  299.48   1
  -8  -9  -5  300.43  196.69  -2
   8   3   5  300.43  196.69   1
  -8  -9  -5  470.82  230.01  -2
   8   3   5  470.82  230.01   1
   8   9   5  348.24  228.78  -2
  -8  -3  -5  348.24  228.78   1
  -8  -9  -5  883.87  311.56  -2
   8   3   5  883.87  311.56   1
  -8  -9  -611100.50  958.62  -2
   8   3   611100.50  958.62   1
  -8  -9  -610218.70  930.57  -2
   8   3   610218.70  930.57   1
  -8  -9  -611225.10 1054.80  -2
   8   3   611225.10 1054.80   1
   8   9   612311.10 1132.42  -2
  -8  -3  -612311.10 1132.42   1
  -8  -9  -7 6211.05  722.38  -2
   8   3   7 6211.05  722.38   1
  -8  -9  -7 5957.32  704.85  -2
   8   3   7 5957.32  704.85   1
  -8  -9  -7 7175.09  855.39  -2
   8   3   7 7175.09  855.39   1
   8   9   7 7062.46  910.72  -2
  -8  -3  -7 7062.46  910.72   1
   8   9   8 -110.76  228.97  -2
  -8  -3  -8 -110.76  228.97   1
  -8  -9  -8  432.04  251.33  -2
   8   3   8  432.04  251.33   1
  -8  -9  -8   66.41  163.19  -2
   8   3   8   66.41  163.19   1
  -8  -9  -8  318.66  244.60  -2
   8   3   8  318.66  244.60   1
  -8  -3  -9 -125.09  242.61   1
   8   3   9  118.46  204.47   1
   8   3   9  259.75  242.57   1
   8   3   9  -31.65  178.74   1
   8  11  -6 -152.21  173.06  -2
  -8  -4   6 -152.21  173.06   1
  -8  -4   5   47.29  148.95   1
  -8  -4   5 -122.11  182.73   1
  -8  -4   4  743.59  221.24   1
  -8  -4   4  899.65  340.23   1
  -8  -4   3   35.11   80.27   1
  -8  -4   3 -204.11  172.85   1
  -8  -4   2  111.84  158.30   1
   8   4  -2   44.98  150.70   1
  -8  -4   2   42.56  100.84   1
  -8  -4   2   90.70   95.06   1
  -8  -4   1  331.71  231.35   1
   8   4  -1  371.51  162.58   1
  -8  -4   1  218.29   76.08   1
   8   4  -1   84.32  160.74   1
  -8  -4   1   43.57  127.81   1
   8   4  -1  178.80  210.73   1
  -8  -4   1  128.65   95.62   1
  -8  -4   0  164.50  214.84   1
   8   4   0 -172.93  193.62   1
   8   4   0   70.83  136.03   1
   8   4   0   45.83   90.11   1
  -8  -4   0  108.10  102.14   1
  -8  -4   0  203.57   79.09   1
   8   4   0   45.35  147.81   1
  -8  -4  -1  433.32  257.14   1
   8   4   1   48.17  146.31   1
  -8  -4  -1   70.79   83.13   1
   8   4   1  374.35  201.61   1
   8   4   1  287.96  159.87   1
  -8  -4  -1  114.15  112.88   1
   8   4   1  157.31  132.24   1
  -8  -4  -1   37.80   24.04   1
  -8  -4  -2 5075.59  480.34   1
   8   4   2 4685.76  638.88   1
   8   4   2 5552.13  669.30   1
   8   4   2 4966.65  541.37   1
  -8  -4  -2 5417.27  585.51   1
   8   4   2 3885.96  292.56   1
   8   4   2 5098.06  728.14   1
  -8  -4  -2 4982.00  699.70   1
  -8  -4  -3  120.38  192.84   1
   8   4   3 -258.20  220.24   1
  -8  -4  -3  -82.63  129.01   1
   8   4   3  209.60  213.77   1
   8   4   3  -32.14  133.99   1
  -8  -4  -4 1436.53  407.35   1
   8   4   4 1484.43  378.34   1
  -8  -4  -4 1506.69  297.83   1
   8   4   4 1764.74  375.98   1
   8   4   4 1373.28  368.48   1
   8  10   5  -30.52  185.47  -2
  -8  -4  -5  -30.52  185.47   1
  -8 -10  -5  202.02  198.70  -2
   8   4   5  202.02  198.70   1
  -8 -10  -5  266.50  222.49  -2
   8   4   5  266.50  222.49   1
  -8 -10  -5  259.63  164.08  -2
   8   4   5  259.63  164.08   1
   8  10   6  323.11  261.40  -2
  -8  -4  -6  323.11  261.40   1
  -8 -10  -6  759.41  314.15  -2
   8   4   6  759.41  314.15   1
  -8 -10  -6  377.22  211.35  -2
   8   4   6  377.22  211.35   1
  -8 -10  -6  631.83  251.34  -2
   8   4   6  631.83  251.34   1
   8  10   7 1184.59  400.76  -2
  -8  -4  -7 1184.59  400.76   1
  -8 -10  -7 1028.53  372.07  -2
   8   4   7 1028.53  372.07   1
  -8 -10  -7 1334.46  377.77  -2
   8   4   7 1334.46  377.77   1
  -8 -10  -7 1036.38  319.70  -2
   8   4   7 1036.38  319.70   1
   8  10   8 2936.25  635.03  -2
  -8  -4  -8 2936.25  635.03   1
  -8 -10  -8 3191.41  574.11  -2
   8   4   8 3191.41  574.11   1
  -8 -10  -8 2771.09  521.12  -2
   8   4   8 2771.09  521.12   1
  -8 -10  -8 3880.87  634.79  -2
   8   4   8 3880.87  634.79   1
  -8  -4  -9 1789.53  546.41   1
   8   4   9 1937.03  459.21   1
   8   4   9 2549.56  551.47   1
   8   4   9 2756.24  602.60   1
   8  12  -6  453.63  225.76  -2
  -8  -5   6  453.63  225.76   1
   8  12  -6  193.85  239.14  -2
  -8  -5   6  193.85  239.14   1
  -8  -5   5   62.48  112.47   1
  -8  -5   5  -61.90  140.82   1
  -8  -5   4  -91.09  133.52   1
  -8  -5   4  375.63  228.51   1
  -8  -5   3  666.28  251.50   1
  -8  -5   3  773.78  288.42   1
  -8  -5   2 2015.25  411.58   1
   8   5  -2 3262.73  562.93   1
  -8  -5   2 2136.44  348.01   1
  -8  -5   1  192.52  150.69   1
   8   5  -1   88.66  180.62   1
   8   5  -1  162.36  135.30   1
  -8  -5   1  502.48  144.98   1
  -8  -5   0   91.28  127.63   1
   8   5   0   48.22  160.55   1
   8   5   0   68.25  115.32   1
   8   5   0   53.97  136.02   1
  -8  -5   0   54.66   82.06   1
  -8  -5  -1  -53.14  162.98   1
   8   5   1   55.39   89.83   1
   8   5   1    5.43  147.96   1
   8   5   1  236.16  211.40   1
   8   5   1  164.55  169.62   1
   8   5   1  100.15  117.20   1
  -8  -5  -1  316.15  114.19   1
   8   5   1   83.21  143.43   1
   8   5   2 5118.59  679.73   1
   8   5   2 5477.53  643.68   1
   8   5   2 5234.38  639.71   1
   8   5   2 5631.94  549.97   1
   8   5   2 4563.82  416.61   1
   8   5   2 6095.79  764.09   1
  -8  -5  -2 4668.96  642.75   1
  -8  -5  -2 5598.60  357.04   1
   8   5   3 6196.32  762.41   1
   8   5   3 5950.84  693.54   1
   8   5   3 5536.67  645.22   1
   8   5   3 6289.64  632.45   1
   8   5   3 5276.87  686.09   1
  -8  -5  -3 5868.28  376.11   1
  -8  -5  -3 6511.85  762.68   1
  -8  -5  -4  866.34  320.88   1
   8   5   4  984.27  371.81   1
   8   5   4 1022.05  337.58   1
  -8  -5  -4  305.41  120.86   1
   8   5   4  983.51  357.73   1
   8   5   4  787.21  357.82   1
   8  11   5 1612.19  419.70  -2
  -8  -5  -5 1612.19  419.70   1
  -8 -11  -5 2001.09  468.56  -2
   8   5   5 2001.09  468.56   1
  -8 -11  -5 1448.60  394.39  -2
   8   5   5 1448.60  394.39   1
  -8 -11  -5 1398.95  339.66  -2
   8   5   5 1398.95  339.66   1
  -8 -11  -5 1057.83  302.55  -2
   8   5   5 1057.83  302.55   1
   8  11   6 2204.82  516.43  -2
  -8  -5  -6 2204.82  516.43   1
  -8 -11  -6 1283.18  379.34  -2
   8   5   6 1283.18  379.34   1
  -8 -11  -6 1361.20  343.03  -2
   8   5   6 1361.20  343.03   1
  -8 -11  -6 1892.05  384.68  -2
   8   5   6 1892.05  384.68   1
  -8 -11  -6 1950.59  426.25  -2
   8   5   6 1950.59  426.25   1
   8  11   7 1558.45  455.17  -2
  -8  -5  -7 1558.45  455.17   1
  -8 -11  -7 1617.06  428.95  -2
   8   5   7 1617.06  428.95   1
  -8 -11  -7 1172.28  360.13  -2
   8   5   7 1172.28  360.13   1
  -8 -11  -7 1313.94  315.20  -2
   8   5   7 1313.94  315.20   1
  -8 -11  -7 1251.57  386.22  -2
   8   5   7 1251.57  386.22   1
   8  11   8 2226.51  557.99  -2
  -8  -5  -8 2226.51  557.99   1
  -8 -11  -8 1750.10  437.31  -2
   8   5   8 1750.10  437.31   1
  -8 -11  -8 2019.01  456.43  -2
   8   5   8 2019.01  456.43   1
  -8 -11  -8 1505.01  318.81  -2
   8   5   8 1505.01  318.81   1
  -8 -11  -8 1803.81  433.65  -2
   8   5   8 1803.81  433.65   1
   8   5   9 -152.95  178.30   1
   8   5   9  241.50  225.03   1
   8   5   9  104.83  186.64   1
  -8  -6   5   49.16  136.21   1
  -8  -6   5  -42.89  160.29   1
  -8  -6   4  327.09  174.92   1
  -8  -6   4  220.56  184.35   1
  -8  -6   3  131.67  205.92   1
   8   6  -3  267.99  197.44   1
   8   6  -3  -85.53  200.22   1
  -8  -6   3  278.77  166.21   1
  -8  -6   2   61.27  124.95   1
   8   6  -2  142.10  155.32   1
   8   6  -2  -88.24  138.06   1
  -8  -6   2  182.20  115.45   1
  -8  -6   1  887.16  277.58   1
   8   6  -1  640.14  258.45   1
   8   6  -1 1004.08  318.99   1
  -8  -6   1  833.57  252.39   1
  -8  -6   0  114.97  153.96   1
   8   6   0   66.01  171.11   1
   8   6   0  -90.26  138.54   1
   8   6   0  -18.44  131.10   1
  -8  -6   0   53.17   85.68   1
   8   6   1 4741.79  681.05   1
  -8  -6  -1 4306.16  470.44   1
   8   6   1 5087.45  672.21   1
   8   6   1 4150.37  480.05   1
  -8  -6  -1 4615.27  614.69   1
  -8  -6  -213365.40  698.19   1
   8   6   215582.50 1202.93   1
  -8  -6  -212417.60  783.87   1
   8   6   216094.20 1151.24   1
   8   6   211753.10  788.14   1
  -8  -6  -212888.10 1033.41   1
  -8  -6  -3 3724.99  577.83   1
   8   6   3 3593.45  601.34   1
   8   6   3 4487.96  604.50   1
   8   6   3 3808.93  608.20   1
  -8  -6  -3 3721.13  375.73   1
  -8  -6  -4   29.28   80.74   1
  -8  -6  -4   32.14  187.86   1
   8   6   4  447.61  228.83   1
   8   6   4  460.88  242.08   1
   8   6   4  115.56  137.45   1
   8  12   5 1970.70  468.89  -2
  -8  -6  -5 1970.70  468.89   1
  -8 -12  -5 1717.80  451.46  -2
   8   6   5 1717.80  451.46   1
  -8 -12  -5 1938.11  433.13  -2
   8   6   5 1938.11  433.13   1
  -8 -12  -5 1583.62  384.93  -2
   8   6   5 1583.62  384.93   1
   8  12   5 1940.29  315.98  -2
  -8  -6  -5 1940.29  315.98   1
  -8 -12  -5 1672.23  397.08  -2
   8   6   5 1672.23  397.08   1
   8  12   6 2095.16  486.13  -2
  -8  -6  -6 2095.16  486.13   1
  -8 -12  -6 3303.23  612.10  -2
   8   6   6 3303.23  612.10   1
  -8 -12  -6 2332.52  480.02  -2
   8   6   6 2332.52  480.02   1
  -8 -12  -6 2281.63  430.67  -2
   8   6   6 2281.63  430.67   1
  -8 -12  -6 2232.62  446.90  -2
   8   6   6 2232.62  446.90   1
  -8 -12  -7 6062.98  749.21  -2
   8   6   7 6062.98  749.21   1
  -8 -12  -7 7059.60  878.89  -2
   8   6   7 7059.60  878.89   1
  -8 -12  -7 5626.49  726.06  -2
   8   6   7 5626.49  726.06   1
  -8 -12  -7 6557.38  706.11  -2
   8   6   7 6557.38  706.11   1
  -8 -12  -7 5824.15  699.34  -2
   8   6   7 5824.15  699.34   1
   8  12   7 5818.55  839.80  -2
  -8  -6  -7 5818.55  839.80   1
  -8 -12  -8  593.44  303.03  -2
   8   6   8  593.44  303.03   1
   8  12   8  801.48  347.88  -2
  -8  -6  -8  801.48  347.88   1
  -8 -12  -8  290.66  205.40  -2
   8   6   8  290.66  205.40   1
  -8 -12  -8  718.66  242.02  -2
   8   6   8  718.66  242.02   1
   8   7  -5  229.11  239.35   1
  -8  -7   5  186.21  189.31   1
   8   7  -4  155.55  204.21   1
  -8  -7   4  405.72  251.54   1
  -8  -7   3  184.37  166.05   1
   8   7  -3  370.88  264.10   1
   8   7  -3  101.81  169.52   1
  -8  -7   3 -114.01  147.66   1
  -8  -7   2  126.85  129.55   1
   8   7  -2 -206.39  203.26   1
   8   7  -2  180.16  160.38   1
  -8  -7   2 -135.85  193.73   1
  -8  -7   1  330.62  169.80   1
   8   7  -1  500.61  249.13   1
   8   7  -1   41.33  158.37   1
  -8  -7   1  527.10  213.27   1
  -8  -7   0  469.98  243.76   1
   8   7   0  276.23  212.22   1
  -8  -7   0  175.24  123.35   1
  -8  -7  -1  398.00  251.14   1
   8   7   1   85.19  145.10   1
   8   7   1   87.18  174.36   1
  -8  -7  -1 -230.46  166.67   1
  -8  -7  -2  -70.87  165.58   1
   8   7   2 -158.33  172.85   1
  -8  -7  -2   70.91  159.55   1
   8   7   2   61.10  203.62   1
  -8  -7  -2   73.37  125.87   1
  -8  -7  -3  259.33  175.64   1
   8   7   3  510.52  287.19   1
  -8  -7  -3  346.50  177.53   1
   8   7   3  546.88  253.57   1
  -8  -7  -4  888.88  338.92   1
   8   7   4  940.53  383.73   1
   8   7   4 1060.34  347.45   1
  -8  -7  -4  217.90  150.60   1
   8  13   5 2574.42  543.20  -2
  -8  -7  -5 2574.42  543.20   1
  -8 -13  -5 3471.58  625.05  -2
   8   7   5 3471.58  625.05   1
  -8 -13  -5 3119.79  541.15  -2
   8   7   5 3119.79  541.15   1
   8  13   5 3429.41  440.51  -2
  -8  -7  -5 3429.41  440.51   1
   8  13   6 3952.20  665.02  -2
  -8  -7  -6 3952.20  665.02   1
  -8 -13  -6 3075.08  602.20  -2
   8   7   6 3075.08  602.20   1
  -8 -13  -6 2664.51  461.13  -2
   8   7   6 2664.51  461.13   1
   8  13   6 2396.74  382.90  -2
  -8  -7  -6 2396.74  382.90   1
   8  13   7 3751.64  672.93  -2
  -8  -7  -7 3751.64  672.93   1
  -8 -13  -7 2959.21  598.28  -2
   8   7   7 2959.21  598.28   1
  -8 -13  -7 2263.29  456.93  -2
   8   7   7 2263.29  456.93   1
   8   8  -4  431.12  240.31   1
   8   8  -4  142.20  206.20   1
  -8  -8   4  555.15  274.68   1
   8   8  -3  492.78  278.48   1
   8   8  -3  383.26  248.89   1
  -8  -8   3  295.16  218.35   1
   8   8  -2   43.90  258.12   1
   8   8  -2  -96.11  154.92   1
  -8  -8   2  -37.13  167.12   1
  -8  -8   1  621.61  237.20   1
   8   8  -1   44.68  188.36   1
   8   8  -1  781.17  329.48   1
  -8  -8   1  381.18  225.26   1
  -8  -8   0   75.40  123.43   1
   8   8   0  305.06  235.97   1
   8   8   0 -128.80  191.59   1
  -8  -8   0  178.36  113.32   1
  -8  -8  -1  469.26  250.28   1
   8   8   1  436.77  278.21   1
   8   8   1  518.97  256.37   1
  -8  -8  -1  365.81  232.08   1
  -8  -8  -2 2618.09  483.89   1
   8   8   2 2703.55  564.18   1
   8   8   2 3027.04  531.57   1
  -8  -8  -2 2373.12  428.68   1
  -8  -8  -3 2161.37  457.68   1
   8   8   3 2036.69  483.18   1
   8   8   3 2001.72  455.10   1
  -8  -8  -3 1300.27  304.24   1
  -8  -8  -3 1721.90  332.67   1
  -8  -8  -4   32.45  152.51   1
   8   8   4   67.93  167.63   1
   8   8   4  188.42  194.37   1
  -8  -8  -4  -56.79  115.70   1
   8  14   5  512.45  273.76  -2
  -8  -8  -5  512.45  273.76   1
  -8 -14  -5  861.42  385.94  -2
   8   8   5  861.42  385.94   1
   8  14   5  137.15  139.90  -2
  -8  -8  -5  137.15  139.90   1
  -8 -14  -5  776.53  299.97  -2
   8   8   5  776.53  299.97   1
   8  14   6  123.63  154.70  -2
  -8  -8  -6  123.63  154.70   1
   8  14   6   85.48  215.12  -2
  -8  -8  -6   85.48  215.12   1
  -8 -14  -6  408.37  252.45  -2
   8   8   6  408.37  252.45   1
  -8 -14  -6  -40.40  139.77  -2
   8   8   6  -40.40  139.77   1
   8   9  -2  216.97  202.04   1
   8   9  -2  547.51  292.03   1
  -8  -9   2   45.49  177.75   1
   8   9  -1  -42.25  186.47   1
   8   9  -1   82.44  231.08   1
  -8  -9   1  136.79  197.79   1
   8   9   0  339.70  247.07   1
   8   9   0  142.29  232.17   1
  -8  -9   0  190.90  230.93   1
   8   9   1  162.22  200.33   1
   8   9   1  300.93  241.98   1
  -8  -9  -1  301.47  175.83   1
   8   9   2  266.15  257.02   1
   8   9   2  278.62  242.44   1
  -8  -9  -2  174.36  160.40   1
  -8  -9  -3  856.51  278.25   1
   8   9   3  460.96  277.53   1
  -8  -9  -3 1012.52  278.92   1
   8   9   3  870.98  362.42   1
  -8  -9  -3  158.60  168.73   1
  -8  -9  -4 1324.98  326.43   1
  -8  -9  -4 1501.55  412.07   1
   8   9   4 1085.92  426.77   1
   8   9   4 1092.03  380.99   1
  -8 -15  -5 1212.38  400.33  -2
   8   9   5 1212.38  400.33   1
   8  15   5  835.56  279.96  -2
  -8  -9  -5  835.56  279.96   1
   9  -1  -1  357.06  172.80   1
  -9   1   1  322.51  256.48   1
   9  -1  -1  350.87  221.66   1
  -9   1   0 2323.66  580.77   1
   9  -1   0 2026.22  456.03   1
  -9   1   0 1665.73  496.52   1
   9  -1   0 1951.03  560.27   1
  -9   1  -1 1838.91  525.55   1
   9  -1   1 2271.41  468.84   1
  -9   1  -1 2000.17  529.50   1
   9  -1   1 1334.36  383.34   1
   9   6   2  941.72  379.42  -2
  -9   1  -2  941.72  379.42   1
  -9  -6  -2 1226.29  337.60  -2
   9  -1   2 1226.29  337.60   1
   9   6   2 1160.46  435.55  -2
  -9   1  -2 1160.46  435.55   1
  -9  -6  -2  931.76  420.71  -2
   9  -1   2  931.76  420.71   1
   9   6   3   73.15  240.00  -2
  -9   1  -3   73.15  240.00   1
  -9  -6  -3  503.98  230.39  -2
   9  -1   3  503.98  230.39   1
   9   6   3  637.51  287.34  -2
  -9   1  -3  637.51  287.34   1
  -9  -6  -3  732.57  328.78  -2
   9  -1   3  732.57  328.78   1
   9   6   4  672.55  276.49  -2
  -9   1  -4  672.55  276.49   1
  -9  -6  -4  741.70  296.28  -2
   9  -1   4  741.70  296.28   1
   9   6   4 1297.04  461.66  -2
  -9   1  -4 1297.04  461.66   1
   9   6   510885.20 1249.73  -2
  -9   1  -510885.20 1249.73   1
  -9   0   2   44.90  189.63   1
   9   0  -2  343.18  244.43   1
  -9   0   2  280.21  251.03   1
   9   0  -2 -190.71  289.32   1
  -9   0   2  175.47  215.45   1
  -9   0   1  796.83  341.88   1
   9   0  -1  482.79  223.75   1
  -9   0   1  785.92  364.03   1
   9   0  -1  207.86  183.83   1
  -9   0   0 1496.44  462.52   1
   9   0   0 1931.49  427.61   1
  -9   0   0 2023.27  495.67   1
   9   0   0 1697.14  497.46   1
  -9   0  -1 1406.55  423.19   1
   9   0   1 2542.25  506.88   1
  -9   0  -1 1635.35  462.69   1
   9   0   1 1406.08  462.60   1
   9   7   2 1269.40  467.37  -2
  -9   0  -2 1269.40  467.37   1
  -9  -7  -2 1504.33  395.67  -2
   9   0   2 1504.33  395.67   1
   9   7   2 1494.60  408.92  -2
  -9   0  -2 1494.60  408.92   1
  -9  -7  -2 1930.68  544.82  -2
   9   0   2 1930.68  544.82   1
  -9  -7  -312002.40 1066.09  -2
   9   0   312002.40 1066.09   1
   9   7   310938.50 1153.44  -2
  -9   0  -310938.50 1153.44   1
  -9  -7  -310863.00 1201.00  -2
   9   0   310863.00 1201.00   1
   9   7   310417.00 1167.83  -2
  -9   0  -310417.00 1167.83   1
   9   7   4 2750.27  620.51  -2
  -9   0  -4 2750.27  620.51   1
  -9  -7  -4 3380.00  591.58  -2
   9   0   4 3380.00  591.58   1
   9   7   4 3583.16  687.90  -2
  -9   0  -4 3583.16  687.90   1
  -9  -7  -4 3612.64  722.84  -2
   9   0   4 3612.64  722.84   1
   9   7   5 4346.32  792.17  -2
  -9   0  -5 4346.32  792.17   1
  -9  -7  -5 3693.32  634.03  -2
   9   0   5 3693.32  634.03   1
   9   7   5 4445.57  783.89  -2
  -9   0  -5 4445.57  783.89   1
  -9  -7  -5 3158.65  685.12  -2
   9   0   5 3158.65  685.12   1
  -9   0  -6 -552.23  324.23   1
  -9   0  -6    6.48  231.07   1
   9   0   6  241.31  299.12   1
   9   1  -3  -27.25  127.70   1
  -9  -1   3   21.41  183.35   1
   9   1  -3  -57.05  163.39   1
  -9  -1   3  100.53  218.87   1
  -9  -1   2  410.98  188.40   1
   9   1  -2  263.82  165.86   1
  -9  -1   2  -74.90  154.63   1
   9   1  -2  774.98  396.25   1
  -9  -1   2  596.44  300.80   1
  -9  -1   1 -142.37  187.33   1
   9   1  -1  314.55  228.39   1
  -9  -1   1   12.05  165.80   1
   9   1  -1   63.44  229.32   1
  -9  -1   0  110.43  197.93   1
   9   1   0  466.78  231.22   1
  -9  -1   0  -74.19  213.27   1
   9   1   0  288.70  166.53   1
  -9  -1  -1 1606.51  440.39   1
   9   1   1 1563.88  404.95   1
  -9  -1  -1 1679.55  435.34   1
   9   1   1 1918.69  511.06   1
   9   8   2  338.43  289.00  -2
  -9  -1  -2  338.43  289.00   1
  -9  -8  -2  212.91  210.60  -2
   9   1   2  212.91  210.60   1
   9   8   2   93.88  161.97  -2
  -9  -1  -2   93.88  161.97   1
  -9  -8  -2  -63.08  192.24  -2
   9   1   2  -63.08  192.24   1
   9   8   3  -20.59  171.20  -2
  -9  -1  -3  -20.59  171.20   1
  -9  -8  -3   12.68  166.73  -2
   9   1   3   12.68  166.73   1
   9   8   3  -12.31  204.88  -2
  -9  -1  -3  -12.31  204.88   1
  -9  -8  -3   99.96  181.40  -2
   9   1   3   99.96  181.40   1
   9   8   4  198.37  207.58  -2
  -9  -1  -4  198.37  207.58   1
  -9  -8  -4   11.36  206.04  -2
   9   1   4   11.36  206.04   1
   9   8   4  486.68  318.67  -2
  -9  -1  -4  486.68  318.67   1
  -9  -8  -4  111.36  191.85  -2
   9   1   4  111.36  191.85   1
  -9  -8  -5 5677.41  755.82  -2
   9   1   5 5677.41  755.82   1
   9   8   5 6736.38  876.92  -2
  -9  -1  -5 6736.38  876.92   1
  -9  -8  -5 7489.52  977.71  -2
   9   1   5 7489.52  977.71   1
   9   8   5 5850.66  857.54  -2
  -9  -1  -5 5850.66  857.54   1
  -9  -1  -6 2511.26  568.79   1
   9   1   6 2979.98  583.15   1
  -9  -1  -6 3013.48  623.62   1
   9   1   6 2660.30  577.58   1
  -9  -1  -7 8665.72 1079.57   1
   9   1   7 8228.55 1052.58   1
  -9  -2   4  194.34  190.62   1
   9   2  -3  344.23  187.06   1
  -9  -2   3  -43.20  184.86   1
   9   2  -3  224.49  262.13   1
   9   2  -2 2021.07  382.58   1
  -9  -2   2 1579.90  378.36   1
   9   2  -2 1866.12  500.11   1
  -9  -2   2 1978.73  515.96   1
  -9  -2   1 2743.64  579.16   1
   9   2  -1 2640.62  462.48   1
  -9  -2   1 2973.87  507.11   1
   9   2  -1 3216.91  648.38   1
  -9  -2   0 3352.32  645.57   1
   9   2   0 2655.69  474.26   1
  -9  -2   0 3588.92  566.29   1
   9   2   0 3518.76  652.81   1
  -9  -2  -1 1603.55  445.50   1
   9   2   1 1093.06  330.51   1
  -9  -2  -1 1601.86  392.34   1
   9   2   1 1354.80  425.44   1
   9   9   2  282.94  229.24  -2
  -9  -2  -2  282.94  229.24   1
  -9  -9  -2  757.49  289.02  -2
   9   2   2  757.49  289.02   1
   9   9   2  627.67  287.54  -2
  -9  -2  -2  627.67  287.54   1
  -9  -9  -2  579.35  303.90  -2
   9   2   2  579.35  303.90   1
   9   9   3 2775.80  583.66  -2
  -9  -2  -3 2775.80  583.66   1
  -9  -9  -3 2421.92  463.85  -2
   9   2   3 2421.92  463.85   1
   9   9   3 2314.38  491.04  -2
  -9  -2  -3 2314.38  491.04   1
  -9  -9  -3 2611.42  544.13  -2
   9   2   3 2611.42  544.13   1
   9   9   4  333.14  198.71  -2
  -9  -2  -4  333.14  198.71   1
  -9  -9  -4  629.78  278.58  -2
   9   2   4  629.78  278.58   1
  -9  -9  -4  479.72  213.45  -2
   9   2   4  479.72  213.45   1
   9   9   4  798.88  306.10  -2
  -9  -2  -4  798.88  306.10   1
  -9  -9  -4  590.93  299.28  -2
   9   2   4  590.93  299.28   1
   9   9   5 5146.53  804.35  -2
  -9  -2  -5 5146.53  804.35   1
  -9  -9  -5 5157.21  695.30  -2
   9   2   5 5157.21  695.30   1
  -9  -9  -5 5111.84  706.59  -2
   9   2   5 5111.84  706.59   1
   9   9   5 4889.09  735.05  -2
  -9  -2  -5 4889.09  735.05   1
  -9  -9  -5 5168.75  805.25  -2
   9   2   5 5168.75  805.25   1
  -9  -2  -6  447.65  366.76   1
   9   2   6  546.77  298.46   1
   9   2   6  307.10  305.72   1
  -9  -2  -6  950.71  451.95   1
   9   2   6  549.62  328.90   1
  -9  -2  -7 1203.26  428.78   1
   9   2   7 1438.67  375.89   1
   9   2   7 1697.48  433.01   1
   9   2   7 2125.69  522.35   1
  -9  -3   4 -380.89  238.23   1
   9   3  -3  300.66  186.57   1
  -9  -3   3 -171.94  165.89   1
  -9  -3   2 -131.51  216.81   1
   9   3  -2 -232.99  170.92   1
  -9  -3   2  230.68  171.54   1
   9   3  -2  487.05  353.65   1
  -9  -3   1 1592.11  445.10   1
   9   3  -1 1418.74  339.80   1
  -9  -3   1 1233.28  300.05   1
   9   3  -1 1930.09  498.06   1
  -9  -3   0 2151.00  485.75   1
   9   3   0 2808.42  479.83   1
  -9  -3   0 2297.32  411.12   1
   9   3   0 1806.27  470.15   1
  -9  -3  -1  728.49  314.30   1
   9   3   1  690.76  255.51   1
  -9  -3  -1  542.73  238.07   1
   9   3   1  825.88  340.79   1
   9  10   2  764.84  319.76  -2
  -9  -3  -2  764.84  319.76   1
  -9 -10  -2  866.91  308.54  -2
   9   3   2  866.91  308.54   1
  -9 -10  -2  234.31  180.67  -2
   9   3   2  234.31  180.67   1
   9  10   2  944.06  322.23  -2
  -9  -3  -2  944.06  322.23   1
  -9 -10  -2 1377.85  506.16  -2
   9   3   2 1377.85  506.16   1
   9  10   3 3419.10  652.45  -2
  -9  -3  -3 3419.10  652.45   1
  -9 -10  -3 3402.47  566.19  -2
   9   3   3 3402.47  566.19   1
  -9 -10  -3 2802.79  527.44  -2
   9   3   3 2802.79  527.44   1
   9  10   3 2580.30  469.73  -2
  -9  -3  -3 2580.30  469.73   1
  -9 -10  -3 3616.92  641.92  -2
   9   3   3 3616.92  641.92   1
   9  10   4  940.34  315.13  -2
  -9  -3  -4  940.34  315.13   1
  -9 -10  -4 1145.17  356.89  -2
   9   3   4 1145.17  356.89   1
  -9 -10  -4 1202.18  341.77  -2
   9   3   4 1202.18  341.77   1
   9  10   4  843.56  299.06  -2
  -9  -3  -4  843.56  299.06   1
  -9 -10  -4  959.53  332.82  -2
   9   3   4  959.53  332.82   1
   9  10   5 2504.98  559.46  -2
  -9  -3  -5 2504.98  559.46   1
  -9 -10  -5 1929.02  445.79  -2
   9   3   5 1929.02  445.79   1
  -9 -10  -5 2139.71  448.28  -2
   9   3   5 2139.71  448.28   1
   9  10   5 2307.88  514.58  -2
  -9  -3  -5 2307.88  514.58   1
  -9 -10  -5 2087.29  544.51  -2
   9   3   5 2087.29  544.51   1
   9   3   6 6465.34  779.20   1
   9   3   6 6830.35  803.61   1
   9   3   6 7562.02  966.51   1
  -9  -3  -6 7511.40  934.95   1
   9   3   711479.10 1043.98   1
   9   3   710781.10 1041.10   1
   9   3   711605.60 1170.56   1
  -9  -3  -710542.00 1160.28   1
  -9  -4   4   73.17  156.40   1
  -9  -4   3  541.86  312.11   1
  -9  -4   2 1299.29  419.04   1
   9   4  -2  852.24  291.81   1
  -9  -4   1  642.69  270.61   1
   9   4  -1  771.02  273.92   1
   9   4  -1 1237.00  419.17   1
  -9  -4   0  -20.82  165.08   1
   9   4   0  251.07  263.50   1
   9   4   0  135.24  179.46   1
  -9  -4   0  146.35  146.40   1
   9   4   0  751.38  339.14   1
  -9  -4  -1  493.72  245.49   1
   9   4   1 1166.78  360.23   1
   9   4   1  842.33  287.64   1
  -9  -4  -1  975.71  279.64   1
   9   4   1 1629.17  553.46   1
   9  11   2 2611.73  537.10  -2
  -9  -4  -2 2611.73  537.10   1
  -9 -11  -2 1572.39  414.10  -2
   9   4   2 1572.39  414.10   1
  -9 -11  -2 2286.07  457.15  -2
   9   4   2 2286.07  457.15   1
   9  11   2 1798.54  362.51  -2
  -9  -4  -2 1798.54  362.51   1
  -9 -11  -2 2501.14  550.24  -2
   9   4   2 2501.14  550.24   1
   9  11   3 2330.44  517.85  -2
  -9  -4  -3 2330.44  517.85   1
  -9 -11  -3 2056.74  486.70  -2
   9   4   3 2056.74  486.70   1
  -9 -11  -3 1973.74  429.20  -2
   9   4   3 1973.74  429.20   1
   9  11   3 2229.71  435.81  -2
  -9  -4  -3 2229.71  435.81   1
  -9 -11  -3 2035.34  487.43  -2
   9   4   3 2035.34  487.43   1
   9  11   4 1317.12  384.34  -2
  -9  -4  -4 1317.12  384.34   1
  -9 -11  -4 1155.21  374.69  -2
   9   4   4 1155.21  374.69   1
  -9 -11  -4 1337.42  383.75  -2
   9   4   4 1337.42  383.75   1
  -9 -11  -4 1249.48  407.25  -2
   9   4   4 1249.48  407.25   1
   9  11   5 4038.42  701.48  -2
  -9  -4  -5 4038.42  701.48   1
  -9 -11  -5 3731.48  616.69  -2
   9   4   5 3731.48  616.69   1
  -9 -11  -5 4121.66  664.32  -2
   9   4   5 4121.66  664.32   1
  -9 -11  -5 3287.80  630.15  -2
   9   4   5 3287.80  630.15   1
  -9  -4  -6 1617.74  493.62   1
   9   4   6 1481.82  421.41   1
   9   4   6 1532.09  445.75   1
   9   4   6  998.37  371.74   1
  -9  -4  -7  302.81  276.72   1
   9   4   7  -67.55  196.79   1
   9   4   7  -96.81  183.88   1
   9   4   7  125.60  202.23   1
  -9  -5   4   39.66  186.99   1
  -9  -5   3  344.83  223.97   1
  -9  -5   2 -169.05  187.44   1
  -9  -5   1   -8.21  180.52   1
   9   5  -1  157.14  260.16   1
  -9  -5   0 1136.99  381.96   1
   9   5   0 1477.52  428.79   1
   9   5   0 1177.42  344.60   1
  -9  -5  -1  901.76  375.96   1
   9   5   1  380.84  232.35   1
   9   5   1  248.06  225.64   1
   9   5   1  664.68  318.94   1
   9  12   2  985.63  392.49  -2
  -9  -5  -2  985.63  392.49   1
  -9 -12  -2 1239.56  397.45  -2
   9   5   2 1239.56  397.45   1
  -9 -12  -2 1277.81  385.16  -2
   9   5   2 1277.81  385.16   1
  -9 -12  -2 1111.59  409.38  -2
   9   5   2 1111.59  409.38   1
   9  12   3 1763.86  468.35  -2
  -9  -5  -3 1763.86  468.35   1
  -9 -12  -3 1084.68  356.42  -2
   9   5   3 1084.68  356.42   1
  -9 -12  -3 1611.55  411.32  -2
   9   5   3 1611.55  411.32   1
  -9 -12  -3 1044.24  363.51  -2
   9   5   3 1044.24  363.51   1
   9  12   4  220.10  222.71  -2
  -9  -5  -4  220.10  222.71   1
  -9 -12  -4  106.74  205.64  -2
   9   5   4  106.74  205.64   1
  -9 -12  -4  152.10  151.43  -2
   9   5   4  152.10  151.43   1
  -9 -12  -4  322.30  232.77  -2
   9   5   4  322.30  232.77   1
   9  12   5 1993.70  523.30  -2
  -9  -5  -5 1993.70  523.30   1
  -9 -12  -5 2212.52  507.76  -2
   9   5   5 2212.52  507.76   1
  -9 -12  -5 1446.53  400.36  -2
   9   5   5 1446.53  400.36   1
  -9 -12  -5 1213.17  444.74  -2
   9   5   5 1213.17  444.74   1
   9   5   6 8649.09  945.83   1
   9   5   6 7557.08  867.70   1
   9   5   6 7014.24  852.40   1
  -9  -5  -6 8556.21 1012.55   1
  -9  -5  -7 2156.35  539.52   1
   9   5   7 1630.63  433.46   1
   9   5   7 3186.82  568.21   1
   9   5   7 2526.23  535.56   1
  -9  -6   4  605.70  380.02   1
  -9  -6   3  -54.86  198.42   1
  -9  -6   2  143.60  209.47   1
   9   6  -2  489.76  279.75   1
  -9  -6   1   29.32  163.85   1
   9   6  -1  843.79  340.39   1
   9   6  -1  538.97  286.71   1
  -9  -6   0 3965.52  634.63   1
   9   6   0 5371.58  776.49   1
   9   6   0 4371.38  678.30   1
  -9  -6  -1 2035.78  449.24   1
   9   6   1 1721.25  462.74   1
   9   6   1 2532.50  518.48   1
   9  13   2  256.14  169.42  -2
  -9  -6  -2  256.14  169.42   1
  -9 -13  -2  202.73  160.68  -2
   9   6   2  202.73  160.68   1
  -9 -13  -2  208.42  189.72  -2
   9   6   2  208.42  189.72   1
   9  13   3  -64.33  217.39  -2
  -9  -6  -3  -64.33  217.39   1
  -9 -13  -3  -40.24  161.78  -2
   9   6   3  -40.24  161.78   1
  -9 -13  -3  450.04  273.91  -2
   9   6   3  450.04  273.91   1
  -9 -13  -3  -37.24  180.00  -2
   9   6   3  -37.24  180.00   1
  -9 -13  -3  231.89  279.42  -2
   9   6   3  231.89  279.42   1
   9  13   4  -39.35  189.44  -2
  -9  -6  -4  -39.35  189.44   1
  -9 -13  -4  175.24  201.92  -2
   9   6   4  175.24  201.92   1
  -9 -13  -4  -91.99  146.62  -2
   9   6   4  -91.99  146.62   1
  -9 -13  -4  107.45  159.40  -2
   9   6   4  107.45  159.40   1
  -9 -13  -4   84.61  189.62  -2
   9   6   4   84.61  189.62   1
   9  13   5  603.42  360.83  -2
  -9  -6  -5  603.42  360.83   1
  -9 -13  -5  773.46  346.62  -2
   9   6   5  773.46  346.62   1
  -9 -13  -5  708.84  315.77  -2
   9   6   5  708.84  315.77   1
  -9 -13  -5 1289.92  341.71  -2
   9   6   5 1289.92  341.71   1
  -9 -13  -5  742.57  386.61  -2
   9   6   5  742.57  386.61   1
  -9  -6  -6  945.07  373.15   1
   9   6   6  494.47  298.02   1
   9   6   6 1291.98  381.20   1
   9   6   6  909.95  321.58   1
   9   6   6  685.77  310.17   1
  -9  -6  -7  172.49  199.60   1
   9   6   7   70.76  206.78   1
   9   6   7  258.90  221.45   1
   9   6   7 -358.91  223.02   1
   9   6   7  232.17  168.25   1
   9   7  -3  238.21  237.94   1
  -9  -7   2   16.38  210.43   1
   9   7  -2 -128.99  227.54   1
   9   7  -2  -47.03  169.10   1
  -9  -7   1   99.19  184.68   1
   9   7  -1  361.77  259.80   1
   9   7  -1  575.11  289.17   1
  -9  -7   0 2449.27  493.07   1
   9   7   0 1320.31  421.78   1
   9   7   0 2157.59  505.53   1
  -9  -7  -1 2111.88  468.81   1
   9   7   1 2034.06  498.88   1
   9   7   1 2987.37  561.53   1
   9  14   2  648.46  300.48  -2
  -9  -7  -2  648.46  300.48   1
  -9 -14  -2  667.94  320.29  -2
   9   7   2  667.94  320.29   1
  -9 -14  -2  848.19  314.11  -2
   9   7   2  848.19  314.11   1
  -9 -14  -3 5650.05  783.53  -2
   9   7   3 5650.05  783.53   1
  -9 -14  -3 6328.98  784.60  -2
   9   7   3 6328.98  784.60   1
   9  14   3 5500.81  763.37  -2
  -9  -7  -3 5500.81  763.37   1
  -9 -14  -4 5542.65  791.49  -2
   9   7   4 5542.65  791.49   1
   9  14   4 4866.80  731.93  -2
  -9  -7  -4 4866.80  731.93   1
  -9 -14  -4 5738.19  740.14  -2
   9   7   4 5738.19  740.14   1
   9  14   5 4620.65  735.56  -2
  -9  -7  -5 4620.65  735.56   1
  -9 -14  -5 4541.67  747.56  -2
   9   7   5 4541.67  747.56   1
  -9 -14  -5 4006.07  607.73  -2
   9   7   5 4006.07  607.73   1
  -9  -7  -6 1010.37  355.97   1
   9   7   6 1211.47  419.88   1
   9   7   6  431.47  231.07   1
   9   8  -2   22.64  236.25   1
   9   8  -1   91.95  256.13   1
  -9  -8   0  339.44  201.86   1
   9   8   0  101.20  228.41   1
   9   8   0  241.23  243.90   1
  -9  -8  -1  -46.49  149.92   1
   9   8   1   50.78  215.66   1
   9   8   1  353.90  259.14   1
   9  15   2  462.63  258.28  -2
  -9  -8  -2  462.63  258.28   1
  -9 -15  -2  431.03  272.08  -2
   9   8   2  431.03  272.08   1
  -9 -15  -2  710.19  316.84  -2
   9   8   2  710.19  316.84   1
   9  15   3 1069.47  356.07  -2
  -9  -8  -3 1069.47  356.07   1
  -9 -15  -3 1681.45  473.75  -2
   9   8   3 1681.45  473.75   1
  -9 -15  -3 1623.27  410.58  -2
   9   8   3 1623.27  410.58   1
   9  15   4  717.77  327.97  -2
  -9  -8  -4  717.77  327.97   1
  -9 -15  -4  643.88  260.98  -2
   9   8   4  643.88  260.98   1
 -10  -9  -2  561.51  269.95  -2
  10   1   2  561.51  269.95   1
  10   9   2  477.22  264.20  -2
 -10  -1  -2  477.22  264.20   1
  10  10   0  130.82  190.60  -2
 -10  -2   0  130.82  190.60   1
  10  10   0  282.72  167.63  -2
 -10  -2   0  282.72  167.63   1
  10  10   1  843.41  392.91  -2
 -10  -2  -1  843.41  392.91   1
 -10 -10  -1   67.02  229.91  -2
  10   2   1   67.02  229.91   1
  10  10   1  143.79  192.38  -2
 -10  -2  -1  143.79  192.38   1
 -10 -10  -1  748.28  347.27  -2
  10   2   1  748.28  347.27   1
  10  10   2  328.14  300.54  -2
 -10  -2  -2  328.14  300.54   1
 -10 -10  -2  524.49  269.38  -2
  10   2   2  524.49  269.38   1
  10  10   2 -117.86  244.39  -2
 -10  -2  -2 -117.86  244.39   1
 -10 -10  -2  200.83  268.68  -2
  10   2   2  200.83  268.68   1
  10   2   3  100.82  171.41   1
 -10  -2  -3  101.21  191.19   1
  10   2   3  192.61  282.63   1
 -10  -2  -4 2808.12  589.43   1
  10  11  -1  410.37  330.04  -2
 -10  -3   1  410.37  330.04   1
 -10 -11   1  235.43  219.50  -2
  10   3  -1  235.43  219.50   1
  10  11   0  127.16  214.80  -2
 -10  -3   0  127.16  214.80   1
 -10 -11   0  277.29  187.48  -2
  10   3   0  277.29  187.48   1
 -10 -11   0  345.26  305.49  -2
  10   3   0  345.26  305.49   1
  10  11   1   22.10  184.41  -2
 -10  -3  -1   22.10  184.41   1
 -10 -11  -1  693.37  324.99  -2
  10   3   1  693.37  324.99   1
  10  11   1  430.12  250.51  -2
 -10  -3  -1  430.12  250.51   1
 -10 -11  -1  498.72  477.18  -2
  10   3   1  498.72  477.18   1
  10  11   2  918.83  390.11  -2
 -10  -3  -2  918.83  390.11   1
 -10 -11  -2  519.59  330.36  -2
  10   3   2  519.59  330.36   1
  10  11   2  660.32  279.60  -2
 -10  -3  -2  660.32  279.60   1
 -10 -11  -2  137.12  198.13  -2
  10   3   2  137.12  198.13   1
 -10  -3  -3  242.40  238.10   1
  10   3   3  -11.03  179.57   1
  10   3   3  180.04  138.04   1
 -10  -3  -3  488.43  252.46   1
  10   3   3  383.74  326.25   1
 -10  -3  -4  395.66  317.07   1
  10   3   4   71.88  171.00   1
  10   3   4 -153.92  191.87   1
 -10  -3  -4  533.15  273.83   1
  10   3   4 -119.91  192.53   1
  10   3   5    3.59  168.48   1
 -10  -3  -5  261.59  252.82   1
  10   3   5    9.58  249.22   1
  10  12  -1  225.60  236.06  -2
 -10  -4   1  225.60  236.06   1
 -10 -12   1  554.05  269.30  -2
  10   4  -1  554.05  269.30   1
  10  12   0  414.06  247.43  -2
 -10  -4   0  414.06  247.43   1
 -10 -12   0  286.44  240.43  -2
  10   4   0  286.44  240.43   1
 -10 -12   0  280.31  297.20  -2
  10   4   0  280.31  297.20   1
  10  12   1 3196.39  649.96  -2
 -10  -4  -1 3196.39  649.96   1
 -10 -12  -1 3015.13  570.48  -2
  10   4   1 3015.13  570.48   1
 -10 -12  -1 2841.44  683.51  -2
  10   4   1 2841.44  683.51   1
  10  12   2  573.45  304.28  -2
 -10  -4  -2  573.45  304.28   1
 -10 -12  -2  536.08  291.36  -2
  10   4   2  536.08  291.36   1
 -10 -12  -2  703.94  308.42  -2
  10   4   2  703.94  308.42   1
  10  12   2  591.49  275.86  -2
 -10  -4  -2  591.49  275.86   1
 -10 -12  -2  793.97  429.61  -2
  10   4   2  793.97  429.61   1
 -10  -4  -3 -305.50  317.10   1
  10   4   3  175.75  199.05   1
  10   4   3 -173.52  229.97   1
 -10  -4  -3   49.84  156.96   1
  10   4   3 -208.65  232.35   1
 -10  -4  -4 1265.49  422.48   1
  10   4   4  964.70  353.58   1
  10   4   4 1396.15  427.69   1
  10   4   4 1547.00  478.71   1
 -10  -4  -5 6003.28  904.07   1
  10   4   5 3638.68  650.96   1
  10   4   5 4637.82  776.58   1
  10  13  -1  344.56  263.98  -2
 -10  -5   1  344.56  263.98   1
  10  13   0   14.44  223.62  -2
 -10  -5   0   14.44  223.62   1
 -10 -13   0  -45.49  206.20  -2
  10   5   0  -45.49  206.20   1
  10  13   1  443.86  339.54  -2
 -10  -5  -1  443.86  339.54   1
 -10 -13  -1  125.36  204.18  -2
  10   5   1  125.36  204.18   1
 -10 -13  -1   -2.65  195.80  -2
  10   5   1   -2.65  195.80   1
 -10 -13  -1  -42.54  199.14  -2
  10   5   1  -42.54  199.14   1
  10  13   2  673.32  338.53  -2
 -10  -5  -2  673.32  338.53   1
 -10 -13  -2  558.99  246.60  -2
  10   5   2  558.99  246.60   1
 -10 -13  -2  622.38  306.37  -2
  10   5   2  622.38  306.37   1
 -10 -13  -2  836.07  346.71  -2
  10   5   2  836.07  346.71   1
 -10  -5  -3  723.03  366.83   1
  10   5   3  330.11  262.69   1
  10   5   3  735.85  310.87   1
  10   5   3  433.30  271.05   1
 -10  -5  -4 1176.71  400.84   1
  10   5   4  585.63  251.09   1
  10   5   4  356.94  229.53   1
  10   5   4  902.45  420.00   1
 -10  -5  -5 -341.90  294.79   1
  10   5   5   -3.87  166.62   1
  10   5   5  248.38  289.59   1
  10  14   0  -32.05  218.18  -2
 -10  -6   0  -32.05  218.18   1
  10  14   1  785.45  358.19  -2
 -10  -6  -1  785.45  358.19   1
  10  14   2  -15.64  192.79  -2
 -10  -6  -2  -15.64  192.79   1
 -10 -14  -2  446.67  313.35  -2
  10   6   2  446.67  313.35   1
 -10  -6  -3  348.80  292.26   1
  10   6   3 -323.42  306.64   1
  10   6   3  -58.69  193.43   1
  10   6   3 -156.21  171.07   1
 -10  -6  -4 1951.01  531.65   1
  10   6   4 1717.32  462.29   1
   0   0   0    0.00    0.00
;
_shelx_hkl_checksum              74761
loop_
_symmetry_equiv_pos_as_xyz
'x, y, z'
'-x, -y, -z'
loop_
_atom_site_label
_atom_site_type_symbol
_atom_site_fract_x
_atom_site_fract_y
_atom_site_fract_z
_atom_site_U_iso_or_equiv
_atom_site_adp_type
_atom_site_occupancy
_atom_site_site_symmetry_order
_atom_site_calc_flag
_atom_site_refinement_flags_posn
_atom_site_refinement_flags_adp
S S 0.07027(16) 0.24846(15) 0.44162(15) 0.0622(4) Uani 1 1 d . .
N1 N -0.6360(7) 0.6780(6) -0.0347(5) 0.0756(14) Uani 1 1 d . .
N2 N -0.6144(5) 0.7510(4) 0.1752(4) 0.0465(9) Uani 1 1 d . .
N3 N -0.3693(4) 0.5672(4) 0.3358(3) 0.0395(8) Uani 1 1 d . .
N4 N -0.2263(4) 0.4899(4) 0.4047(4) 0.0445(9) Uani 1 1 d . .
H4 H -0.189219 0.548624 0.446752 0.053 Uiso 1 1 d R U
N5 N -0.1374(4) 0.2680(4) 0.2530(3) 0.0419(8) Uani 1 1 d . .
H5 H -0.227643 0.327898 0.209957 0.05 Uiso 1 1 d R U
N6 N -0.3692(6) 0.8554(6) 0.1183(5) 0.0655(11) Uani 1 1 d . .
O1 O -0.3941(5) 0.9191(5) 0.2317(4) 0.0747(11) Uani 1 1 d . .
O2 O -0.2472(6) 0.8515(7) 0.0262(5) 0.1101(17) Uani 1 1 d . .
C1 C -0.7009(7) 0.6863(6) 0.0982(6) 0.0611(14) Uani 1 1 d . .
C2 C -0.5046(8) 0.7381(7) -0.0447(6) 0.0734(16) Uani 1 1 d . .
H2 H -0.436077 0.747698 -0.126576 0.088 Uiso 1 1 calc R U
C3 C -0.4868(7) 0.7827(6) 0.0825(5) 0.0556(12) Uani 1 1 d . .
C4 C -0.6511(5) 0.7821(5) 0.3233(4) 0.0465(10) Uani 1 1 d . .
H4A H -0.748401 0.747709 0.360781 0.056 Uiso 1 1 calc R U
H4B H -0.690571 0.899905 0.342689 0.056 Uiso 1 1 calc R U
C5 C -0.4935(5) 0.6950(5) 0.3960(4) 0.0372(9) Uani 1 1 d . .
C6 C -0.1051(5) 0.3391(5) 0.3575(4) 0.0400(9) Uani 1 1 d . .
C7 C -0.5021(5) 0.7683(6) 0.5341(5) 0.0498(11) Uani 1 1 d . .
H7A H -0.609999 0.864073 0.554538 0.075 Uiso 1 1 calc R U
H7B H -0.500984 0.688655 0.602677 0.075 Uiso 1 1 calc R U
H7C H -0.400765 0.799391 0.534074 0.075 Uiso 1 1 calc R U
C8 C -0.8500(7) 0.6328(8) 0.1590(7) 0.0830(18) Uani 1 1 d . .
H8A H -0.871946 0.651358 0.25718 0.124 Uiso 1 1 calc R U
H8B H -0.956201 0.695158 0.121727 0.124 Uiso 1 1 calc R U
H8C H -0.817284 0.517466 0.137137 0.124 Uiso 1 1 calc R U
C9 C -0.0373(6) 0.0978(5) 0.2065(5) 0.0541(12) Uani 1 1 d . .
H9A H -0.083513 0.072186 0.129272 0.081 Uiso 1 1 calc R U
H9B H 0.086303 0.081577 0.179456 0.081 Uiso 1 1 calc R U
H9C H -0.048274 0.026714 0.279809 0.081 Uiso 1 1 calc R U
loop_
_atom_site_aniso_label
_atom_site_aniso_U_11
_atom_site_aniso_U_22
_atom_site_aniso_U_33
_atom_site_aniso_U_23
_atom_site_aniso_U_13
_atom_site_aniso_U_12
S 0.0528(7) 0.0405(7) 0.0907(10) -0.0094(6) -0.0446(7) -0.0012(5)
N1 0.097(3) 0.052(3) 0.065(3) -0.006(2) -0.049(3) 0.001(2)
N2 0.049(2) 0.0333(19) 0.051(2) -0.0023(17) -0.0259(18) -0.0013(16)
N3 0.0385(18) 0.0330(18) 0.045(2) -0.0004(15) -0.0182(15) -0.0060(15)
N4 0.0392(18) 0.0326(18) 0.057(2) -0.0098(16) -0.0243(16) -0.0015(15)
N5 0.0359(17) 0.0362(19) 0.048(2) -0.0057(16) -0.0180(15) -0.0025(14)
N6 0.080(3) 0.058(3) 0.059(3) 0.013(2) -0.017(3) -0.024(2)
O1 0.100(3) 0.070(3) 0.069(3) 0.002(2) -0.020(2) -0.045(2)
O2 0.111(4) 0.145(5) 0.083(3) 0.011(3) 0.007(3) -0.065(4)
C1 0.066(3) 0.037(3) 0.074(4) -0.006(2) -0.043(3) 0.000(2)
C2 0.094(4) 0.055(3) 0.052(3) 0.004(3) -0.030(3) 0.000(3)
C3 0.066(3) 0.044(3) 0.050(3) 0.007(2) -0.025(2) -0.007(2)
C4 0.043(2) 0.039(2) 0.051(3) -0.009(2) -0.0143(19) -0.0044(19)
C5 0.034(2) 0.034(2) 0.042(2) -0.0008(18) -0.0090(17) -0.0087(17)
C6 0.034(2) 0.033(2) 0.052(3) -0.0013(19) -0.0126(18) -0.0083(17)
C7 0.043(2) 0.047(3) 0.054(3) -0.010(2) -0.008(2) -0.009(2)
C8 0.069(4) 0.071(4) 0.111(5) -0.019(3) -0.039(3) -0.018(3)
C9 0.056(3) 0.040(3) 0.058(3) -0.013(2) -0.016(2) -0.005(2)
loop_
_atom_type_symbol
_atom_type_description
_atom_type_scat_dispersion_real
_atom_type_scat_dispersion_imag
_atom_type_scat_source
C C 0.0033 0.0016 'International Tables Vol C Tables 4.2.6.8 and 6.1.1.4'
H H 0 0 'International Tables Vol C Tables 4.2.6.8 and 6.1.1.4'
N N 0.0061 0.0033 'International Tables Vol C Tables 4.2.6.8 and 6.1.1.4'
O O 0.0106 0.006 'International Tables Vol C Tables 4.2.6.8 and 6.1.1.4'
S S 0.1246 0.1234 'International Tables Vol C Tables 4.2.6.8 and 6.1.1.4'
loop_
_exptl_crystal_face_index_h
_exptl_crystal_face_index_k
_exptl_crystal_face_index_l
_exptl_crystal_face_perp_dist
2 2 1 0.0717
1 1 -1 0.0734
-1 0 0 0.0834
0 -1 1 0.0742
-1 -1 2 0.0525
-1 1 -2 0.1094
-2 -1 2 0.0712
1 0 -2 0.0328
1 1 1 0.0851
0 -1 -2 0.0595
0 2 1 0.1007
loop_
_geom_angle_atom_site_label_1
_geom_angle_atom_site_label_2
_geom_angle_atom_site_label_3
_geom_angle
C1 N1 C2 106.4(4)
C1 N2 C3 105.6(4)
C1 N2 C4 127.0(4)
C3 N2 C4 127.5(3)
C5 N3 N4 116.7(3)
C6 N4 N3 119.4(3)
C6 N4 H4 116.4
N3 N4 H4 117.9
C6 N5 C9 123.6(3)
C6 N5 H5 117.8
C9 N5 H5 118.5
O2 N6 O1 124.3(5)
O1 N6 C3 120.3(5)
O2 N6 C3 115.4(5)
N1 C1 N2 111.2(5)
N1 C1 C8 125.5(5)
N2 C1 C8 123.2(5)
N1 C2 C3 110.0(5)
N1 C2 H2 125
C3 C2 H2 125
C2 C3 N2 106.8(5)
C2 C3 N6 128.6(5)
N2 C3 N6 124.6(4)
N2 C4 C5 114.2(3)
N2 C4 H4A 108.7
C5 C4 H4A 108.7
N2 C4 H4B 108.7
C5 C4 H4B 108.7
H4A C4 H4B 107.6
N3 C5 C7 126.7(3)
N3 C5 C4 117.9(3)
C7 C5 C4 115.3(3)
N5 C6 N4 117.5(3)
N5 C6 S 123.8(3)
N4 C6 S 118.6(3)
C5 C7 H7A 109.5
C5 C7 H7B 109.5
H7A C7 H7B 109.5
C5 C7 H7C 109.5
H7A C7 H7C 109.5
H7B C7 H7C 109.5
C1 C8 H8A 109.5
C1 C8 H8B 109.5
H8A C8 H8B 109.5
C1 C8 H8C 109.5
H8A C8 H8C 109.5
H8B C8 H8C 109.5
N5 C9 H9A 109.5
N5 C9 H9B 109.5
H9A C9 H9B 109.5
N5 C9 H9C 109.5
H9A C9 H9C 109.5
H9B C9 H9C 109.5
loop_
_geom_bond_atom_site_label_1
_geom_bond_atom_site_label_2
_geom_bond_distance
S C6 1.689(4)
N1 C1 1.327(7)
N1 C2 1.348(7)
N2 C1 1.364(5)
N2 C3 1.383(6)
N2 C4 1.451(5)
N3 C5 1.275(5)
N3 N4 1.384(4)
N4 C6 1.358(5)
N4 H4 0.8273
N5 C6 1.316(5)
N5 C9 1.448(5)
N5 H5 0.8923
N6 O1 1.209(5)
N6 O2 1.231(6)
N6 C3 1.416(6)
C1 C8 1.499(8)
C2 C3 1.359(7)
C2 H2 0.93
C4 C5 1.509(5)
C4 H4A 0.97
C4 H4B 0.97
C5 C7 1.492(6)
C7 H7A 0.96
C7 H7B 0.96
C7 H7C 0.96
C8 H8A 0.96
C8 H8B 0.96
C8 H8C 0.96
C9 H9A 0.96
C9 H9B 0.96
C9 H9C 0.96
loop_
_geom_hbond_atom_site_label_D
_geom_hbond_atom_site_label_H
_geom_hbond_atom_site_label_A
_geom_hbond_distance_DH
_geom_hbond_distance_HA
_geom_hbond_distance_DA
_geom_hbond_angle_DHA
_geom_hbond_site_symmetry_A
_geom_hbond_publ_flag
N4 H4 S 0.8300 2.6300 3.457(4) 174.00 2_566 yes
N5 H5 N1 0.8900 2.2000 2.960(6) 143.00 2_465 yes
C7 H7C S 0.9600 2.6200 3.514(5) 155.00 2_566 yes
C8 H8B O2 0.9600 2.5700 3.530(8) 177.00 1_455 yes
C9 H9B O2 0.9600 2.4300 3.155(7) 132.00 2_565 yes
loop_
_geom_torsion_atom_site_label_1
_geom_torsion_atom_site_label_2
_geom_torsion_atom_site_label_3
_geom_torsion_atom_site_label_4
_geom_torsion
C5 N3 N4 C6 169.2(4)
C2 N1 C1 N2 0.1(5)
C2 N1 C1 C8 -180.0(5)
C3 N2 C1 N1 -0.6(5)
C4 N2 C1 N1 178.5(4)
C3 N2 C1 C8 179.5(4)
C4 N2 C1 C8 -1.4(7)
C1 N1 C2 C3 0.5(6)
N1 C2 C3 N2 -0.8(5)
N1 C2 C3 N6 -178.0(5)
C1 N2 C3 C2 0.8(5)
C4 N2 C3 C2 -178.3(4)
C1 N2 C3 N6 178.1(4)
C4 N2 C3 N6 -1.0(7)
O1 N6 C3 C2 164.5(5)
O2 N6 C3 C2 -13.9(8)
O1 N6 C3 N2 -12.2(7)
O2 N6 C3 N2 169.4(4)
C1 N2 C4 C5 122.3(4)
C3 N2 C4 C5 -58.8(5)
N4 N3 C5 C7 -1.1(6)
N4 N3 C5 C4 180.0(3)
N2 C4 C5 N3 -22.5(5)
N2 C4 C5 C7 158.4(3)
C9 N5 C6 N4 -169.4(4)
C9 N5 C6 S 6.5(6)
N3 N4 C6 N5 -4.9(6)
N3 N4 C6 S 179.0(3)
