#------------------------------------------------------------------------------
#$Date: 2020-06-04 03:56:13 +0300 (Thu, 04 Jun 2020) $
#$Revision: 252592 $
#$URL: file:///home/coder/svn-repositories/cod/cif/4/51/76/4517657.cif $
#------------------------------------------------------------------------------
#
# This file is available in the Crystallography Open Database (COD),
# http://www.crystallography.net/
#
# All data on this site have been placed in the public domain by the
# contributors.
#
data_4517657
loop_
_publ_author_name
'Hua, Guoxiong'
'Cordes, David B.'
'Slawin, Alexandra M. Z.'
'Woollins, J. Derek'
_publ_section_title
;
 Novel Five- and Six-Membered Rings of Phosphorus-Selenium Heterocycles
 from Selenation of Amido-Schiff Bases.
;
_journal_issue                   20
_journal_name_full               'ACS omega'
_journal_page_first              11737
_journal_page_last               11744
_journal_paper_doi               10.1021/acsomega.0c01064
_journal_volume                  5
_journal_year                    2020
_chemical_formula_moiety         'C16 H12 N2 O2 Se'
_chemical_formula_sum            'C16 H12 N2 O2 Se'
_chemical_formula_weight         343.24
_space_group_crystal_system      triclinic
_space_group_IT_number           2
_space_group_name_Hall           '-P 1'
_space_group_name_H-M_alt        'P -1'
_atom_sites_solution_hydrogens   geom
_atom_sites_solution_primary     direct
_atom_sites_solution_secondary   difmap
_audit_creation_date             2018-04-16
_audit_creation_method           'by CrystalStructure 4.3'
_cell_angle_alpha                95.836(13)
_cell_angle_beta                 96.199(7)
_cell_angle_gamma                107.677(14)
_cell_formula_units_Z            2
_cell_length_a                   7.495(4)
_cell_length_b                   7.590(4)
_cell_length_c                   12.690(6)
_cell_measurement_reflns_used    1788
_cell_measurement_temperature    173
_cell_measurement_theta_max      25.40
_cell_measurement_theta_min      1.60
_cell_volume                     676.9(6)
_computing_cell_refinement       'CrystalClear-SM Expert 2.1 b45'
_computing_data_collection
'CrystalClear-SM Expert 2.1 b45 (Rigaku, 2015)'
_computing_data_reduction        'CrystalClear-SM Expert 2.1 b45'
_computing_molecular_graphics    'CrystalStructure 4.3'
_computing_publication_material  'CrystalStructure 4.3 (Rigaku, 2018)'
_computing_structure_refinement  'SHELXL Version 2018/3 (Sheldrick, 2008)'
_computing_structure_solution    'DIRDIF99-PATTY (Gould, et al., 1999)'
_diffrn_ambient_temperature      173
_diffrn_detector_area_resol_mean 5.814
_diffrn_measured_fraction_theta_full 0.955
_diffrn_measured_fraction_theta_max 0.951
_diffrn_measurement_device_type  'Rigaku XtaLAB P200'
_diffrn_measurement_method       \w
_diffrn_radiation_type           'Mo K\a'
_diffrn_radiation_wavelength     0.71075
_diffrn_reflns_av_R_equivalents  0.0822
_diffrn_reflns_av_unetI/netI     0.0938
_diffrn_reflns_Laue_measured_fraction_full 0.955
_diffrn_reflns_Laue_measured_fraction_max 0.951
_diffrn_reflns_limit_h_max       8
_diffrn_reflns_limit_h_min       -9
_diffrn_reflns_limit_k_max       9
_diffrn_reflns_limit_k_min       -8
_diffrn_reflns_limit_l_max       15
_diffrn_reflns_limit_l_min       -15
_diffrn_reflns_number            5498
_diffrn_reflns_point_group_measured_fraction_full 0.955
_diffrn_reflns_point_group_measured_fraction_max 0.951
_diffrn_reflns_theta_full        25.242
_diffrn_reflns_theta_max         25.409
_diffrn_reflns_theta_min         1.631
_diffrn_standards_number         0
_exptl_absorpt_coefficient_mu    2.780
_exptl_absorpt_correction_T_max  0.920
_exptl_absorpt_correction_T_min  0.438
_exptl_absorpt_correction_type   multi-scan
_exptl_absorpt_process_details   'REQAB (Rigaku, 1998)'
_exptl_crystal_colour            colorless
_exptl_crystal_density_diffrn    1.684
_exptl_crystal_density_method    'not measured'
_exptl_crystal_description       prism
_exptl_crystal_F_000             344.00
_exptl_crystal_size_max          0.240
_exptl_crystal_size_mid          0.100
_exptl_crystal_size_min          0.030
_refine_diff_density_max         1.06
_refine_diff_density_min         -0.51
_refine_ls_extinction_method     none
_refine_ls_goodness_of_fit_ref   0.989
_refine_ls_hydrogen_treatment    constr
_refine_ls_number_parameters     191
_refine_ls_number_reflns         2362
_refine_ls_number_restraints     0
_refine_ls_R_factor_all          0.0672
_refine_ls_R_factor_gt           0.0475
_refine_ls_shift/su_max          0.000
_refine_ls_structure_factor_coef Fsqd
_refine_ls_weighting_details
'w = 1/[\s^2^(Fo^2^)+(0.0685P)^2^] where P=(Fo^2^+2Fc^2^)/3'
_refine_ls_weighting_scheme      calc
_refine_ls_wR_factor_gt          0.1081
_refine_ls_wR_factor_ref         0.1300
_reflns_Friedel_coverage         0.000
_reflns_number_gt                1811
_reflns_number_total             2362
_reflns_threshold_expression     F^2^>2.0\s(F^2^)
_cod_data_source_file            ao0c01064_si_001.cif
_cod_data_source_block           7
_cod_depositor_comments
'Adding full bibliography for 4517654--4517661.cif.'
_cod_database_code               4517657
_shelx_res_file
;
TITL HW526n
    shelxl.res
    created by SHELXL-2018/3 at 15:53:32 on 16-Apr-2018
CELL  0.71075 7.49500 7.59000 12.69000 95.83600 96.19900 107.67700
ZERR  2 0.00400 0.00400 0.00600 0.01300 0.00700 0.01400
LATT 1
SFAC C H N O SE
UNIT 32 24 4 4 2
L.S. 5
FMAP 2
PLAN 5
BOND $H
CONF
LIST 4
TEMP -100.0
ACTA
SIZE 0.240 0.100 0.030
WGHT    0.068500
FVAR       0.33002
SE1   5    0.208062    0.161893    0.447606    11.00000    0.03183    0.04330 =
         0.03277    0.00182    0.00646    0.01793
O9    4    1.114372    0.457237    0.660470    11.00000    0.03924    0.06741 =
         0.03785   -0.00382   -0.00117    0.02456
O11   4    1.010112    0.563161    0.813186    11.00000    0.04595    0.05652 =
         0.03310   -0.00243    0.00228    0.02339
N3    3    0.522347    0.149125    0.368822    11.00000    0.03579    0.05157 =
         0.03276   -0.00019    0.00536    0.02266
N4    3    0.376002    0.064848    0.286004    11.00000    0.03443    0.04295 =
         0.03530    0.00080    0.00494    0.01514
C2    1    0.470207    0.208617    0.456098    11.00000    0.03149    0.03868 =
         0.03476    0.00854    0.00871    0.02150
C5    1    0.207667    0.053372    0.308185    11.00000    0.03872    0.03486 =
         0.02690    0.00461    0.00550    0.02139
C6    1    0.608092    0.304944    0.552637    11.00000    0.02655    0.02707 =
         0.03403    0.00419    0.00419    0.00966
C7    1    0.799296    0.329384    0.551059    11.00000    0.04916    0.03848 =
         0.02935    0.00260    0.00587    0.02807
AFIX  43
H7    2    0.843462    0.287262    0.488943    11.00000   -1.20000
AFIX   0
C8    1    0.920717    0.416337    0.642400    11.00000    0.02652    0.03334 =
         0.03898    0.00896    0.00728    0.01180
C10   1    1.176225    0.549475    0.769108    11.00000    0.03672    0.05041 =
         0.03896    0.00526   -0.00120    0.01345
AFIX  23
H10A  2    1.267492    0.675538    0.770527    11.00000   -1.20000
H10B  2    1.238955    0.476666    0.811547    11.00000   -1.20000
AFIX   0
C12   1    0.861251    0.481366    0.733608    11.00000    0.04106    0.03501 =
         0.02883    0.00405    0.00027    0.01046
C13   1    0.670845    0.455578    0.735867    11.00000    0.04208    0.04616 =
         0.03797   -0.00221    0.01020    0.01651
AFIX  43
H13   2    0.627307    0.496123    0.798615    11.00000   -1.20000
AFIX   0
C14   1    0.547431    0.369515    0.644405    11.00000    0.03210    0.04837 =
         0.04109    0.00329    0.00563    0.01952
AFIX  43
H14   2    0.416523    0.353428    0.643595    11.00000   -1.20000
AFIX   0
C15   1    0.037079   -0.027992    0.228938    11.00000    0.03056    0.03207 =
         0.03377    0.00841    0.00702    0.01348
C16   1    0.046418   -0.120974    0.130721    11.00000    0.03729    0.04170 =
         0.03737    0.00615    0.00792    0.01887
AFIX  43
H16   2    0.163141   -0.135605    0.116020    11.00000   -1.20000
AFIX   0
C17   1   -0.115026   -0.193531    0.052974    11.00000    0.04608    0.04346 =
         0.03364   -0.00037    0.00623    0.01806
AFIX  43
H17   2   -0.107313   -0.259715   -0.013166    11.00000   -1.20000
AFIX   0
C18   1   -0.283751   -0.169994    0.071375    11.00000    0.04457    0.03792 =
         0.03325    0.00532    0.00174    0.01887
C19   1   -0.295435   -0.082477    0.170447    11.00000    0.03229    0.04106 =
         0.04259    0.00498    0.00377    0.01710
AFIX  43
H19   2   -0.412818   -0.069416    0.185032    11.00000   -1.20000
AFIX   0
C20   1   -0.139503   -0.014652    0.247511    11.00000    0.04214    0.04542 =
         0.03123    0.00163    0.00714    0.02296
AFIX  43
H20   2   -0.151333    0.042922    0.315305    11.00000   -1.20000
AFIX   0
C21   1   -0.458806   -0.241458   -0.015292    11.00000    0.04724    0.04735 =
         0.04093    0.00210   -0.00207    0.01688
AFIX 137
H21A  2   -0.493736   -0.377497   -0.032688    11.00000   -1.20000
H21B  2   -0.429995   -0.183698   -0.079702    11.00000   -1.20000
H21C  2   -0.564357   -0.208767    0.011228    11.00000   -1.20000
AFIX   0
HKLF 4




REM  HW526n
REM wR2 = 0.1300, GooF = S = 0.989, Restrained GooF = 0.989 for all data
REM R1 = 0.0475 for 1811 Fo > 4sig(Fo) and 0.0672 for all 2362 data
REM 191 parameters refined using 0 restraints

END

WGHT      0.0685      0.0000

REM Highest difference peak  1.059,  deepest hole -0.511,  1-sigma level  0.137
Q1    1   0.1967  0.0440  0.4401  11.00000  0.05    1.06
Q2    1   0.2121  0.2746  0.4632  11.00000  0.05    0.97
Q3    1   0.1113  0.0801  0.3858  11.00000  0.05    0.66
Q4    1   0.2930  0.2474  0.5076  11.00000  0.05    0.57
Q5    1   0.1171  0.0708  0.5433  11.00000  0.05    0.54
;
_shelx_res_checksum              17943
_shelx_hkl_file
;
   0   0   1  605.61   32.06
   0  -1   0   98.68    6.29
   0  -1   1   -0.29    2.64
  -1   0   1  132.95    8.23
   0   0  -2    2.63    1.19
   0   0   2    1.37    1.29
   0   0   2    3.76    4.39
   0   0  -2    5.78    3.85
   1  -1   0  211.74   12.00
  -1   1   0  209.16   11.88
   0  -1  -1    5.47    2.50
   0  -1  -1   15.11    4.70
  -1   0  -1   64.30    5.52
  -1   0  -1   39.63    3.92
   1   0   1   61.25    5.29
  -1   1   1    2.27    1.73
   1  -1  -1    2.84    1.65
   1  -1   1  121.76   10.68
  -1   1  -1   72.43    5.00
   1  -1   1   71.46    4.97
   0  -1   2    9.23    1.26
   0   1  -2   13.17    3.42
   0   1  -2    7.96    1.13
   0  -1   2   11.32    3.18
   1   0  -2 1308.09   68.40
  -1   0   2 1249.20   66.23
  -1   0   2 1427.38   75.42
   0  -1  -2  763.64   45.65
   0  -1  -2  589.01   31.30
   1   1   0  219.58   18.90
   1   1   0  255.85   17.22
   1  -1  -2  138.34    9.35
   1  -1  -2  117.63    7.16
  -1   1   2  111.52    6.93
   1   0   2  263.03   16.96
  -1   0  -2  283.29   18.12
   1  -1   2  943.18   52.55
   1  -1   2  681.00   36.06
  -1   1  -2  667.81   35.48
   0   0   3   10.14    1.79
   0   0   3   13.51    4.77
   0   0  -3   14.55    3.95
   0   0  -3   10.37    1.51
   1   1  -2  409.45   25.60
   1   1  -2  301.33   16.36
  -1  -1   2  446.26   29.76
  -1  -1   2  332.05   18.10
  -1  -1  -1   61.73    3.78
   1   1   1   53.76    3.82
  -1  -1  -1   79.79    6.99
   0  -1   3    6.98    1.37
   0  -1   3   10.35    3.73
   0   1  -3    9.74    3.46
   0   1  -3    6.49    1.23
  -1   0   3   19.37    2.50
  -1   0   3   18.06    2.89
   1   0  -3   18.96    2.70
   1   0  -3   17.69    2.02
  -1   2   0 2506.45  130.90
   1  -2   0 2403.35  125.15
   1  -2   0 2691.23  237.51
  -2   1   0   17.70    2.29
   2  -1   0   26.15    4.04
   1  -2   1  675.95   36.00
   1  -2   1  954.41   54.41
  -1   2  -1  939.40   52.28
  -2   1   1   31.44    2.84
   2  -1  -1   31.94    3.00
   0  -2   0   18.90    3.64
   0   2   0   17.97    3.81
   0   2   0   15.78    2.03
   0  -2   0   15.35    2.05
   0   2  -1  252.04   14.08
   0  -2   1  261.22   14.57
   0  -2   1  326.39   21.83
   0  -2   1  277.97   15.79
   2   0  -1  102.87    6.46
  -2   0   1  107.31    6.69
   2   0  -1  170.50   12.47
  -2   0   1  172.20   12.65
   2   0   0   44.64    3.45
  -2   0   0   47.96    3.64
   2   0   0   61.36    5.63
   1  -2  -1  105.25    6.54
  -1   1   3    0.45    1.68
   1  -1  -3    1.70    2.41
  -1   1   3    2.76    3.43
   1  -1  -3    0.04    1.71
   2  -1   1  165.30   10.88
  -2   1  -1  118.73    7.35
   1  -1   3  297.35   18.63
  -1   1  -3  294.50   19.04
   1  -1   3  236.88   13.22
   1  -1   3  244.29   13.11
   0  -1  -3  146.62    8.44
   0  -1  -3  164.24   12.43
   1   0   3  687.72   43.37
  -1   0  -3  740.55   46.91
  -1   0  -3  505.80   26.58
  -1  -1   3   10.90    1.76
  -1  -1   3   12.22    2.39
  -1  -1  -2    7.38    3.07
   1   1   2    5.91    1.37
  -1  -1  -2    6.01    1.04
   0  -2  -1   16.54    3.39
   0   2   1   13.69    3.28
   0   2   1   14.50    2.07
   0  -2  -1   13.43    1.96
   0  -2   2 5793.90  508.84
   0  -2   2 5994.10  524.22
   0  -2   2 5302.00  462.79
  -1   2  -2   10.13    3.62
   1  -2   2    7.60    1.70
   1  -2   2    7.14    4.15
  -2   0   2  100.96    6.34
   2   0  -2  140.37   10.53
  -2   0   2  171.08   12.77
   2   0   1  330.34   18.13
  -2   0  -1  316.23   17.42
   2   0   1  440.19   28.18
  -2   0  -1  470.58   31.77
  -2   1   2   68.47    4.81
   2  -1  -2   68.68    4.70
   0   0   4  141.96   11.58
   0   0  -4  116.01    6.72
   0   0  -4  145.63   10.33
   0   0   4  104.01    6.39
  -1   2   2  252.03   16.57
   1  -2  -2  190.54   10.90
   1  -2  -2  286.94   17.46
   2  -1   2  177.21   12.07
  -2   1  -2  149.20    8.85
   2  -2   0   39.06    3.28
  -2   2   0   40.15    3.32
   2  -2   0   51.31    5.08
  -2   2   0   47.82    4.71
   1   0  -4  276.30   16.44
  -1   0   4  228.23   12.96
   1   0  -4  225.58   12.53
   0   1  -4  148.46    8.28
   0  -1   4  201.13   13.41
   0   1  -4  186.45   12.65
   0  -1   4  169.63    9.60
  -2   2   1  261.95   14.74
  -2   2   1  321.95   22.06
   2  -2  -1  276.24   15.34
  -2   2  -1  123.29    8.90
   2  -2   1  120.55    8.60
  -2   2  -1  103.70    6.55
   2  -2   1  110.71    6.87
   0   2   2    2.61    1.48
   0  -2  -2    2.12    1.60
   0  -2  -2    1.18    3.00
   0   2   2    2.40    2.69
   0  -2   3  415.92   22.16
   0  -2   3  448.73   25.25
   0  -2   3  414.80   22.39
  -2   0   3  447.58   24.32
  -2   0  -2   59.66    4.11
  -2   0  -2   85.71    7.33
   2   0   2   65.08    4.54
   2   0   2   75.45    6.51
   1   2  -1   28.13    4.73
  -1  -2   1   30.50    4.46
  -1  -2   1   26.08    2.38
  -1  -2   1   24.17    2.74
  -2  -1   1  349.37   25.21
   2   1  -1  389.00   24.58
  -2  -1   1  292.49   16.32
   2   1  -1  283.80   16.30
   1  -2   3   13.54    3.93
  -1   2  -3   13.01    1.95
   1  -2   3   13.62    1.85
  -1   2  -3   14.38    3.73
   2  -1  -3  184.20   10.58
  -2   1   3  176.85   10.27
  -2   1   3  199.97   11.70
  -1  -2   0  227.30   16.41
  -1  -2   0  202.71   11.47
  -1  -2   0  199.53   10.82
   1   2   0  214.10   14.88
   2   1   0  213.29   15.56
  -2  -1   0  291.13   20.92
  -2  -1   0  217.63   12.45
   2   1   0  210.02   12.29
  -1  -1   4  129.63    7.75
  -1  -1   4  127.66    8.24
   1   1  -4  144.40    9.25
  -1   1   4  131.31   10.44
   1  -1  -4  111.61    8.18
  -1   1   4   91.00    5.95
   1  -1  -4   96.17    5.95
  -1  -1  -3   11.73    1.34
   1   1   3   11.58    1.64
  -1  -1  -3   15.43    3.74
   1   2  -2  171.79    9.40
  -1  -2   2  166.91   12.26
  -1  -2   2  159.60    9.05
   1  -1   4   18.25    1.69
   1  -1   4   20.17    4.59
  -1   1  -4   19.55    1.68
  -1   1  -4   25.52    4.49
   2   1  -2   28.10    2.55
  -2  -1   2   24.28    2.34
   2   1  -2   33.11    4.84
  -2  -1   2   31.11    4.01
   2  -2  -2  199.62   11.37
  -2   2   2  201.90   11.61
  -2   2   2  264.30   16.00
  -2   2   2  212.40   12.26
   2  -2   2   88.78    6.80
  -2   2  -2   83.10    5.47
   2  -2   2   81.89    5.39
  -2   2  -2   95.50    7.73
   0  -1  -4  352.71   22.75
   0   1   4  372.18   29.07
   0  -1  -4  337.88   18.26
  -1   0  -4  269.29   14.40
  -1   0  -4  328.52   22.18
   1   0   4  318.62   19.98
  -1  -2  -1  536.62   36.09
   1   2   1  430.90   23.62
  -1  -2  -1  385.65   23.96
   1   2   1  438.88   29.10
   1  -2  -3  272.16   15.10
  -1   2   3  244.97   16.85
   1  -2  -3  309.67   18.77
   2   1   1  137.65    8.21
   2   1   1  143.95    8.03
  -2  -1  -1  166.66   11.91
   2  -1   3   98.50    7.70
  -2   1  -3   80.94    5.24
   1   2  -3    6.86    1.06
  -1  -2   3    6.86    2.27
  -1  -2   3    8.20    3.48
  -1  -2   3    6.73    1.38
   2   1  -3    7.84    1.53
  -2  -1   3    9.32    3.54
   2   1  -3    9.02    3.68
  -2  -1   3    7.64    1.68
   0  -2  -3   86.65    7.39
   0   2   3   96.89    7.71
   0   2   3   85.57    5.63
   0  -2  -3   89.25    5.61
   0  -2   4   38.35    4.24
   0  -2   4   35.88    2.55
  -2   0   4  405.34   22.16
  -2   0  -3   -1.04    3.12
   2   0   3   -1.46    2.63
   2   0   3   -0.99    1.51
   2   0   3    0.70    0.82
  -1   3   0    8.84    1.69
   1  -3   0    9.07    3.31
   1  -3   0   13.45    3.80
   1  -3   0    9.55    1.74
   1  -3   1   -0.69    2.79
  -1   3  -1    1.50    1.44
   1  -3   1    0.28    1.54
   0   0  -5    9.66    3.51
   0   0   5    6.27    1.57
   0   0  -5    7.83    1.37
  -3   1   1  456.33   24.72
   3  -1  -1  451.11   24.33
   3  -1   0  229.79   12.94
  -3   1   0  241.81   13.57
   3  -1   0  316.00   20.07
   2  -1  -4  135.53    8.07
  -2   1   4  143.53    8.98
  -2   1   4  126.09    7.76
   1  -2   4   35.30    5.29
   1  -2   4   33.80    2.35
   1  -2   4   33.31    2.92
  -1   0   5  360.36   19.82
   1   0  -5  430.66   24.85
   1   0  -5  382.61   20.60
   0  -1   5   73.14    4.70
   0  -1   5   90.01    7.70
   0   1  -5   78.95    7.10
   0   1  -5   67.60    4.12
  -2   2   3    3.88    1.65
  -2   2   3    3.14    2.24
  -2   2   3    4.43    2.92
   2  -2  -3    3.54    1.43
   2  -2   3  348.73   19.05
  -2   2  -3  333.14   20.99
  -2   2  -3  348.53   19.12
   2  -2   3  379.76   23.63
  -1  -2  -2  217.50   16.05
   1   2   2  218.06   12.39
  -1  -2  -2  227.10   12.43
   1   2   2  215.43   14.89
  -2  -1  -2  364.48   23.03
   2   1   2  343.64   18.40
   2   1   2  338.10   18.58
  -1   3   1   13.09    1.84
   1  -3  -1   14.16    1.89
   1  -3  -1   13.88    3.41
   1  -3   2   41.37    3.32
  -1   3  -2   40.20    3.33
   1  -3   2   40.08    4.54
  -1   3  -2   40.10    3.76
   0  -3   1   36.38    4.97
   0   3  -1   27.19    3.20
   0  -3   1   26.33    3.07
   0  -3   1   32.92    4.06
  -3   1   2   84.97    8.17
   3  -1  -2  129.81   13.31
  -3   1   2  141.32   14.33
   3  -1   1  206.67   19.65
  -3   1  -1  174.02   15.90
   3  -1   1  181.63   16.51
   0   3   0  399.29   35.50
   0   3   0  461.47   43.15
   0  -3   0  358.50   34.55
   0  -3   0  423.51   37.56
  -3   0   1  437.85   45.54
  -3   0   1  331.15   29.56
   3   0  -1  443.27   43.24
   3   0  -1  379.28   33.73
   1   1  -5   20.25    3.28
  -1  -1   5   15.66    3.10
  -1  -1   5   16.51    2.29
   2  -3   0   50.50    5.15
   2  -3   0   69.73    8.12
  -2   3   0   55.68    7.79
  -3   0   0  458.80   44.82
   3   0   0  290.47   25.96
   3   0   0  352.70   35.37
  -3   0   0  277.46   24.85
  -1  -1  -4  141.67   12.72
   1   1   4  129.46   11.92
  -1  -1  -4  181.88   19.09
   0   3  -2  146.64   13.49
   0  -3   2  147.50   13.76
   0  -3   2  147.19   13.53
   0  -3   2  161.59   16.31
  -3   2   0    1.94    1.34
   3  -2   0    1.95    1.58
  -3   2   0    1.82    3.09
   3  -2   0    1.89    3.28
  -2   3  -1   86.95    9.60
   2  -3   1   89.66    8.55
   2  -3   1   88.34    9.26
   3  -2  -1  240.44   21.62
  -3   2   1  231.35   20.88
  -3   2   1  335.81   31.56
   3  -2  -1  337.82   31.41
   3   0  -2   19.99    4.19
  -3   0   2   19.07    2.51
   3   0  -2   18.30    2.47
  -1   1   5    4.39    3.93
   1  -1  -5    1.99    1.38
   1  -1  -5    1.96    2.92
  -1   1   5    1.95    1.67
  -1  -2   4   64.81    6.24
   1   2  -4   62.46    5.84
  -1  -2   4   67.78    7.00
  -1  -2   4   69.60    8.28
  -1   2   4  527.49   50.37
   1  -2  -4  673.83   42.26
   1  -2  -4  624.97   55.16
  -1   1  -5   16.40    3.80
  -1   1  -5   16.47    1.97
   1  -1   5   14.92    1.96
   1  -1   5   14.50    5.00
   2   1  -4   10.66    1.74
  -2  -1   4   12.96    3.73
  -2  -1   4   11.17    2.48
  -2  -1   4    9.34    1.98
   2  -3  -1  180.67   16.41
   2  -1   4  383.29   36.19
  -2   1  -4  369.76   35.51
   0  -3  -1   79.62    9.07
   0   3   1   84.37    8.05
   0  -3  -1   86.80    8.23
   0   3   1   87.09    9.35
  -3   2  -1   64.17    6.39
   3  -2   1   78.29    8.41
  -3   2  -1   75.99    8.28
   0   1   5  258.22   26.01
   0  -1  -5  282.01   25.07
   0  -1  -5  320.25   31.13
   1  -3  -2    1.00    1.31
  -1   3   2    0.26    1.39
   1  -3  -2    2.58    5.23
   3   0   1  277.56   24.83
  -3   0  -1  284.81   25.57
  -3   0  -1  387.77   36.97
   3   0   1  372.47   35.53
  -1   0  -5  324.64   28.63
   1   0   5  396.00   38.15
  -1   0  -5  367.95   35.11
  -1   3  -3   26.53    3.23
   1  -3   3   25.88    4.63
  -1   3  -3   29.73    4.37
   1  -3   3   25.93    3.14
  -3   1   3  250.41   22.57
   3  -1  -3  364.23   34.44
  -3   1   3  365.95   35.43
  -2   3  -2  115.70   11.88
   2  -3   2  120.19   11.16
   2  -3   2  120.19   12.16
  -3   2   2   69.94    7.76
   3  -2  -2   77.00    8.63
   3  -2  -2   57.96    5.84
  -3   2   2   51.54    5.27
   3  -1   2  156.77   14.36
  -3   1  -2  142.71   13.17
   3  -1   2  165.57   16.39
  -2  -2   1   23.93    2.84
   2   2  -1   22.33    2.35
  -2  -2   1   23.21    3.95
   0  -3   3   13.58    2.57
   0  -3   3   13.62    3.69
   0  -3   3   14.81    2.15
   0  -3   3   14.55    1.66
   0  -2  -4   91.68    8.56
   0  -2  -4   79.37    8.90
   0   2   4   87.65    8.52
   0   2   4   83.33    9.71
   0  -2   5   87.23    8.08
   0  -2   5   91.22    9.59
  -2   0   5   47.22    5.00
   3   0  -3  166.64   17.31
   3   0  -3  132.57   12.24
  -3   0   3  124.82   11.57
  -2  -2   2    3.83    1.38
  -2  -2   2    2.24    2.73
   2   2  -2    4.10    0.98
   2   2   0    0.74    3.42
  -2  -2   0   -0.33    2.83
  -2   2   4  124.74   11.64
   2  -2  -4  132.34   12.20
   2  -2  -4  147.33   13.77
  -2   2   4  179.94   17.26
   2   0   4    5.78    1.69
   2   0   4    6.14    1.20
   2   0   4    6.75    3.17
  -2   0  -4    7.25    3.54
  -1  -2  -3  229.44   20.41
   1   2   3  253.54   24.48
   1   2   3  237.73   21.67
  -1  -2  -3  203.87   20.48
   2  -2   4  195.59   17.69
   2  -2   4  203.09   19.99
  -2   2  -4  213.83   20.82
   2  -3  -2  100.23    9.46
  -2   3   2   70.81    7.75
  -2   3   2   62.59    7.63
  -2  -1  -3   13.88    3.75
   2   1   3   10.93    1.63
   2   1   3   10.04    1.92
  -3   2  -2   70.13    7.74
   3  -2   2   80.73    8.78
  -3   2  -2   72.65    7.15
  -2   1   5   38.83    4.74
  -2   1   5   36.09    4.05
   2  -1  -5   39.41    4.58
   2  -1  -5   37.61    3.99
   1  -2   5  114.32   12.06
   1  -2   5  120.02   10.84
   1  -2   5  126.43   11.68
   0  -3  -2  135.86   13.66
   0  -3  -2  143.63   13.16
   0   3   2  152.17   13.99
   0   3   2  122.39   12.81
  -3   0  -2  554.98   53.16
   3   0   2  515.31   45.72
  -3   0  -2  445.99   39.61
   3   0   2  532.33   50.48
  -1  -3   1    0.62    1.09
  -1  -3   1    1.55    2.90
  -1  -3   1    1.34    0.77
   1   3  -1    1.61    3.39
  -2  -2   3   47.17    5.96
  -2  -2   3   47.09    4.87
   2   2  -3   48.38    4.70
   2   2   1   56.49    5.63
  -2  -2  -1   77.15    8.65
   2   2   1   62.90    6.27
   2   2   1   72.86    8.21
   2  -3   3    0.24    1.42
  -2   3  -3    1.34    3.41
   2  -3   3    0.83    3.36
  -3   2   3  235.99   21.33
  -3   2   3  272.71   24.67
  -3   2   3  337.48   31.99
   3  -2  -3  226.35   20.40
   0   0   6   16.52    2.34
   0   0  -6   19.23    3.89
   0   0  -6   19.45    2.24
   3   1  -1   91.62    8.69
  -3  -1   1   85.97    8.15
   3   1  -1  108.07   11.44
  -3  -1   1  115.83   12.50
   1   0  -6  678.56   39.03
  -1   0   6  615.77   54.51
   1   0  -6  700.97   43.16
   0  -1   6  290.40   27.56
   0  -1   6  255.06   22.84
   0   1  -6  252.25   22.37
   0   1  -6  271.95   26.08
  -1  -3   2   70.66    6.59
  -1  -3   2   75.93    8.59
   1   3  -2   66.59    7.87
  -1  -3   2   69.83    6.80
  -1  -3   0   41.94    4.46
  -1  -3   0   43.52    5.75
   1   3   0   44.47    4.81
   1   3   0   46.16    6.29
  -1   3   3   16.62    3.53
   1  -3  -3   23.22    4.17
   1  -3  -3   23.47    2.82
  -1   3   3   22.68    2.91
  -1  -2   5    2.46    2.22
   1   2  -5    4.08    1.01
  -1  -2   5    5.62    1.42
   1  -3   4  295.99   27.73
   1  -3   4  316.51   27.90
   1  -3   4  293.67   26.23
  -1   3  -4  361.85   33.47
  -2  -1   5   93.54   10.42
   2   1  -5   92.74    8.62
  -2  -1   5   86.92    8.35
  -2  -1   5   90.92    8.96
  -3  -1   2  148.20   15.36
   3   1  -2  129.47   11.97
  -3  -1   2  123.50   11.43
   3   1  -2  161.57   16.45
  -3   1   4   10.66    1.94
  -3   1   4   11.02    2.29
  -3   1   4   13.22    4.41
  -3  -1   0   38.89    4.16
   3   1   0   44.60    5.88
  -3  -1   0   45.88    6.13
   3   1   0   40.66    4.30
   0   3  -4    1.39    1.99
   0  -3   4    0.94    0.84
   0  -3   4    1.50    2.29
   0  -3   4    0.80    1.30
   3  -1   3   21.73    4.00
  -3   1  -3   16.96    2.36
   3  -1   3   18.83    2.75
   3  -3   0   24.19    4.12
   3  -3   0   25.53    3.12
  -3   3   0   24.57    4.11
  -3   3   0   25.01    3.13
   3   0  -4   13.78    2.17
  -3   0   4   12.41    2.10
   3   0  -4   17.46    3.93
   1   1  -6  169.12   16.14
  -1  -1   6  170.95   16.30
  -1  -1   6  152.58   14.01
   1   1   5   31.27    3.48
   1   1   5   30.88    4.99
  -1  -1  -5   36.85    3.66
  -1  -1  -5   37.77    5.71
  -2   3   3   27.04    4.52
  -2   3   3   28.21    4.97
   2  -3  -3   29.46    3.42
  -1   2   5    9.61    4.50
  -1   2   5   11.12    2.18
   1  -2  -5   12.25    1.93
   1  -2  -5   14.03    3.44
  -3   3   1   64.50    6.44
   3  -3  -1   73.59    8.15
   3  -3  -1   73.28    7.16
  -3   3   1   55.93    6.65
  -3   3  -1  310.18   27.77
   3  -3   1  326.43   30.17
   3  -3   1  316.22   28.23
  -3   3  -1  354.84   33.11
  -3   2  -3  147.77   13.59
   3  -2   3  136.44   13.71
  -3   2  -3  155.71   15.83
   2  -1   5   18.14    4.07
  -2   1  -5   17.68    4.34
  -1  -3   3   10.47    2.57
  -1  -3   3    7.23    1.67
  -1  -3   3    7.81    3.24
  -1  -3   3    7.82    1.36
  -1  -3  -1   73.13    7.15
   1   3   1   60.24    7.16
  -1  -3  -1   67.88    7.97
   1   3   1   58.83    5.96
   3   1  -3  272.65   26.78
   3   1  -3  276.83   24.74
  -3  -1   3  257.27   23.12
  -3  -1   3  282.55   28.45
  -1   1   6  234.17   24.02
   1  -1  -6  196.63   17.68
   1  -1  -6  198.57   19.18
  -3  -1  -1    0.36    1.24
   3   1   1   -0.04    3.23
  -3  -1  -1    0.37    3.22
   3   1   1    0.04    1.06
   1  -1   6   25.80    5.42
  -1   1  -6   23.70    4.52
  -1   1  -6   24.77    2.58
   1  -1   6   26.57    2.92
  -2  -2   4  112.04   10.46
   2   2  -4  112.97   10.32
  -2  -2   4  127.83   12.20
  -2  -2   4  113.36   12.11
  -2  -2  -2   84.99    9.45
   2   2   2   80.17    8.93
   2   2   2   79.76    7.66
   2   2   2   74.49    7.20
   0  -3  -3   52.47    5.73
   0  -3  -3   50.78    5.11
   0   3   3   40.53    5.37
   0   3   3   45.64    4.76
   1   2   4  275.37   19.46
  -1  -2  -4  278.68   21.74
  -1  -2  -4  255.51   15.01
   1   2   4  270.59   16.55
   2   1   4    0.84    0.96
  -2  -1  -4    0.36    2.95
   2  -2  -5  283.72   16.95
  -2   2   5  358.96   23.40
  -2   2   5  231.57   14.31
   2  -2  -5  276.12   17.22
   3  -3  -2    3.97    1.53
  -3   3   2    4.62    1.57
   3  -3  -2    6.19    2.91
  -3   3   2    8.17    3.05
   3   0   3   14.51    2.14
  -3   0  -3   16.95    3.49
   3   0   3   17.11    3.50
   3   0   3   15.71    1.58
  -3   3  -2  217.92   15.07
  -3   3  -2  200.55   12.41
   3  -3   2  192.88   13.33
   3  -3   2  203.20   12.48
   0   1   6   13.97    2.08
   0  -1  -6   19.08    1.88
   0  -1  -6   20.56    3.98
   0   1   6   25.00    5.52
   2  -2   5   52.00    6.24
   2  -2   5   43.48    3.54
   2  -2   5   43.55    2.99
   0  -2  -5  145.08    8.98
   0  -2  -5  138.77   11.01
   0   2   5  149.42   11.86
   0   2   5  144.05    9.47
   0  -2   6  170.20   10.40
   0  -2   6  174.83   12.34
  -1   0  -6  435.82   28.87
  -1   0  -6  395.45   22.80
  -3   2   4  211.46   13.06
  -3   2   4  224.62   13.96
  -3   2   4  304.67   21.91
   3  -2  -4  213.28   13.04
   2   0  -6   15.43    2.66
  -2   0   6   16.80    2.45
  -2   3  -4   24.59    4.28
   2  -3   4   23.86    4.79
   2  -3   4   21.61    2.47
  -2   3  -4   23.78    2.59
   2   0   5   23.99    2.12
  -2   0  -5   30.63    4.58
   2   0   5   25.46    4.01
   2   0   5   23.67    2.48
   1  -4   1  105.84    6.97
  -1   4  -1  102.56    6.94
   1  -4   1  104.55    7.68
   1  -4   1   89.90    7.49
   1  -4   0   58.02    4.72
   1  -4   0   53.43    5.15
  -1   4   0   57.70    4.31
   1  -4   0   62.33    4.51
   2  -1  -6  303.28   18.88
  -2   1   6  320.34   20.57
  -2   1   6  290.12   17.72
   2  -1  -6  298.76   17.67
  -1  -3   4  130.02    8.76
  -1  -3   4  140.66    8.74
  -1  -3   4  133.48    8.53
  -1  -3   4  138.42   10.95
   1   3   2  129.76    8.41
   1   3   2  121.72    9.58
  -1  -3  -2  121.12    9.54
  -1  -3  -2  125.16    7.82
   1  -3  -4  343.00   20.38
  -1   3   4  265.30   19.58
   1  -3  -4  340.54   22.51
  -1   3   4  325.40   19.79
   1  -2   6  134.04   10.66
   1  -2   6  151.40    9.18
   1  -2   6  147.71    9.36
  -4   1   1   28.00    2.65
  -4   1   1   42.01    5.00
   4  -1  -1   37.59    4.90
   4  -1  -1   33.77    3.03
   1  -3   5  176.17   10.90
  -1   3  -5  181.21   12.81
   1  -3   5  162.16   11.74
   1  -3   5  177.45   10.55
  -3  -1   4   66.50    4.85
   3   1  -4   75.09    6.98
  -3  -1   4   75.15    6.94
   3   1  -4   70.32    4.90
   0   3  -5   22.75    3.16
   0  -3   5   21.28    2.32
   0  -3   5   21.56    1.89
   0  -3   5   19.45    3.52
  -3   1   5    2.07    1.48
  -3   1   5    0.82    1.76
  -3   1   5    1.30    2.93
   1  -4   2 1017.92   65.11
  -1   4  -2 1172.46   31.04
   1  -4   2 1118.12   31.89
   1  -4   2 1162.79   29.99
   3   1   2  142.26    8.57
  -3  -1  -2  144.31   11.07
   3   1   2  125.53    8.24
  -4   1   0    3.91    3.23
   4  -1   0    3.18    3.15
  -4   1   0    1.67    1.32
   4  -1   0    2.54    1.32
  -3   0   5   52.32    4.47
   3   0  -5   61.43    4.47
  -3   0   5   55.20    4.25
  -2   4   0    2.07    1.33
   2  -4   0    1.70    1.36
   3  -1   4   38.98    2.75
   3  -1   4   37.17    3.21
   3  -1   4   38.29    4.62
  -2   4  -1    6.66    1.89
   2  -4   1    4.38    2.95
   2  -4   1    5.90    1.67
  -2   4  -1    5.58    1.75
   2  -3  -4  216.87   13.58
   2  -3  -4  212.02   12.95
  -2   3   4  194.74   12.34
  -2   3   4  187.95   13.84
   4  -1  -2   37.92    4.86
   4  -1  -2   28.81    2.72
  -4   1   2   27.02    2.73
  -4   1   2   45.96    5.54
  -1  -2   6   77.57    5.32
   1   2  -6   79.02    5.06
  -1  -2   6   79.71    6.25
   1   2  -6   80.64    6.50
  -2  -1   6   58.04    4.46
  -2  -1   6   65.98    6.47
   2   1  -6   63.36    4.41
  -2  -1   6   59.17    4.89
   4  -2  -1  810.64   50.55
  -4   2   1  649.57   37.84
  -4   2   1  962.74   60.87
   1  -4  -1   62.20    4.45
  -1   4   1   59.83    4.47
   1  -4  -1   77.64    7.39
  -4   2   0  469.00   30.16
  -4   2   0  426.64   25.12
   4  -2   0  475.17   30.35
   4  -2   0  421.47   24.76
  -3   3   3   26.91    2.91
  -3   3   3   21.97    3.72
   3  -3  -3   25.71    2.58
  -3   3   3   24.50    2.57
  -3   2  -4  280.33   16.87
  -3   2  -4  318.10   22.06
   3  -2   4  280.29   19.54
   3  -3   3   93.75    7.55
  -3   3  -3  108.64    9.03
   3  -3   3  116.71    7.59
  -3   3  -3  109.25    7.25
   2   2  -5  228.27   13.64
  -2  -2   5  203.07   12.86
  -2  -2   5  226.33   13.82
  -2  -2   5  241.18   17.82
  -2   4   1   12.75    1.87
   2  -4  -1   13.47    1.90
   2   2   3   -0.02    3.09
   2   2   3    0.97    1.32
   2   2   3    1.72    1.22
  -2  -2  -3   -0.98    3.04
  -2   4  -2    5.51    1.72
   2  -4   2    3.86    3.12
   2  -4   2    5.06    1.60
  -2   4  -2    4.77    2.42
   0   4  -1   27.59    2.64
   0  -4   1   22.48    3.60
   0  -4   1   30.09    3.13
   0  -4   1   26.17    2.44
   4  -1   1   70.13    4.98
   4  -1   1   76.68    6.92
  -4   1  -1   64.50    4.70
  -4   2   2   25.69    2.60
  -4   2   2   36.00    4.58
   4  -2  -2   35.85    4.93
   1   0  -7   52.03    5.19
   1   0  -7   54.99    3.85
  -1   0   7   53.61    4.22
  -4   2  -1  148.71   11.08
   4  -2   1  151.59    9.58
   4  -2   1  155.24   11.40
  -4   2  -1  140.66    9.02
   0   1  -7  262.89   15.39
   0   1  -7  235.06   16.28
   0  -1   7  255.07   18.39
   0  -1   7  255.71   15.41
   1  -4   3  499.06   29.25
  -1   4  -3  479.72   28.61
  -1   4  -3  514.09   30.24
   1  -4   3  426.38   26.16
   0  -4   0   30.11    2.66
   0   4   0   26.48    4.03
   0  -4   0   23.51    3.76
   0   4   0   29.67    2.73
   0  -4   2   25.48    2.87
   0  -4   2   27.97    2.60
   0  -4   2   25.40    4.02
   0   4  -2   27.85    2.70
   4   0  -1   52.17    3.97
   4   0  -1   55.01    5.93
  -4   0   1   45.49    3.53
   0   0  -7   35.82    4.62
   0   0  -7   35.57    2.69
   0  -3  -4    1.09    1.05
   0   3   4    0.78    1.43
   0   3   4   -0.79    2.94
   0  -3  -4    2.03    3.35
  -4   1   3   23.07    2.54
   4  -1  -3   20.02    2.27
  -4   1   3   23.02    3.83
   4  -1  -3   24.97    4.47
   4   0  -2  273.53   20.60
  -4   0   2  248.75   15.09
   4   0  -2  256.57   15.48
   4   0   0   32.34    4.53
  -4   0   0   24.49    2.55
   4   0   0   23.88    2.36
   1   1  -7   37.43    4.39
  -1  -1   7   35.23    4.35
  -1  -1   7   29.89    2.81
  -2  -3   1   74.13    6.66
   2   3  -1   79.14    7.52
   1  -2  -6    7.96    3.52
  -1   2   6    8.97    2.09
  -1   2   6    6.88    4.15
   1  -2  -6    8.12    1.50
   1   1   6   46.13    3.63
  -1  -1  -6   51.08    3.45
  -1  -1  -6   51.02    5.78
   1   1   6   55.53    6.18
   3   0   4  118.90    9.04
   3   0   4  103.92    6.45
   3   0   4  108.82    7.26
  -3   0  -4  117.57    9.13
   3   2  -1   -1.67    1.09
   2   3  -2  130.13   10.61
  -2  -3   2  133.97    8.52
  -2  -3   2  117.86    9.44
  -2  -3   2  135.46    8.64
  -3   2   5  180.62   14.12
  -3   2   5  142.22    9.59
  -3   2   5  118.20    7.85
   3  -2  -5  125.71    8.04
   2  -1   6   14.97    4.27
   2  -1   6   16.75    2.22
  -2   1  -6   18.68    4.21
   2  -3   5   20.26    1.73
   2  -3   5   19.46    2.29
  -2   3  -5   18.54    4.16
   2  -3   5   14.88    4.36
  -3  -2   2  221.79   13.48
   3   2  -2  243.85   14.82
  -3  -2   2  232.41   17.10
  -1  -3   5   28.22    3.28
  -1  -3   5   28.95    2.50
   1   3  -5   31.69    2.38
  -1  -3   5   34.02    5.12
  -2   4   2  183.81   11.61
   2  -4  -2  182.37   11.25
  -1  -3  -3   38.49    4.72
   1   3   3   39.83    3.36
  -1  -3  -3   46.29    3.32
   1   3   3   43.78    5.22
   2  -4   3   56.38    4.23
  -2   4  -3   58.72    5.69
   2  -4   3   42.21    5.29
  -2   4  -3   51.35    4.01
  -2  -3   0  120.39    9.69
   2   3   0  109.90    9.16
   0  -4  -1   93.58    6.20
   0  -4  -1   78.90    7.04
   0   4   1   76.43    6.89
   0   4   1   91.46    6.18
   0  -4   3   27.57    4.52
   0  -4   3   22.49    2.80
   0  -4   3   27.05    2.05
   0  -4   3   25.66    2.56
  -1  -2  -5   24.04    4.68
   1   2   5   20.72    4.18
   1   2   5   26.46    2.85
  -1  -2  -5   26.37    2.10
   3   1  -5  216.54   13.09
  -3  -1   5  217.86   15.85
  -3  -1   5  211.35   13.03
  -3  -1   5  255.47   15.99
   3   2   0  196.75   12.57
  -3  -2   0  208.14   15.19
   2   1   5   32.89    2.81
  -2  -1  -5   40.09    5.25
  -2  -1  -5   36.68    2.60
   3   1   3  101.56    6.35
  -3  -1  -3  111.20    8.89
   3   1   3  103.42    7.06
  -4   2   3    0.25    1.46
  -4   2   3    0.67    3.24
   4  -2  -3    1.25    3.49
  -4   1  -2  166.44   10.44
   4  -1   2  197.01   13.92
   4  -1   2  174.71   10.87
   2  -2  -6  304.18   18.06
  -2   2   6  380.86   24.94
   2  -2  -6  300.25   18.82
   4  -2   2  116.65    7.62
   4  -2   2  111.10    8.89
  -4   2  -2  107.39    8.84
  -4   2  -2  106.45    7.09
   4   0  -3  642.63   44.18
   4   0  -3  579.21   33.72
  -4   0   3  523.52   30.66
   1  -1  -7  151.56   11.38
   1  -1  -7  156.87    9.60
  -1   1   7  141.66   11.79
   4   0   1   -0.36    1.24
  -4   0  -1    0.82    1.23
  -4   0  -1   -0.08    3.56
   4   0   1   -1.01    3.28
   2  -2   6   20.55    4.44
   2  -2   6   22.82    1.54
   2  -2   6   24.55    2.27
   2   3  -3  162.04   11.96
  -2  -3   3  185.01    6.28
  -2  -3   3  166.89    8.55
   3  -4   0   67.81    3.35
   3  -4   0   53.06    4.15
  -3   4   0   61.69    5.38
   1  -1   7   14.60    4.72
  -1   1  -7   19.69    4.01
  -1   1  -7   14.56    1.28
   1  -1   7   14.09    1.64
  -3  -2   3  346.73   10.55
   3   2  -3  344.58    9.96
  -3  -2   3  372.57   18.06
  -3   3   4   15.81    3.75
  -3   3   4   16.10    2.83
   3  -3  -4   15.06    1.90
  -3   3   4   13.75    1.71
  -3   4  -1  133.93    7.44
   3  -4   1  152.53    5.58
   3  -4   1  136.21    7.22
   4  -3   0  102.75    6.17
  -4   3   0   82.98    3.85
  -4   3   0   83.92    5.34
   4  -3   0   86.60    3.97
  -1   4  -4    8.89    2.60
   1  -4   4    8.38    1.67
   1  -4   4    7.15    3.07
   1  -4   4    8.41    1.03
   0  -2  -6  247.01    7.33
   0   2   6  196.94   13.46
   0   2   6  254.58    8.90
   0  -2  -6  255.17   13.74
  -3   3  -4  145.62    5.56
   3  -3   4  140.99    5.26
  -3   3  -4  154.40    8.53
   3  -3   4  127.04    7.26
   0  -2   7   15.47    1.65
   0  -2   7   14.24    3.87
  -2   0   7   70.75    4.67
   2   0  -7   67.36    4.51
  -2   0   7   72.19    3.86
   4  -3  -1  108.01    6.27
  -4   3   1   88.98    4.12
  -4   3   1   90.91    6.03
   4  -3  -1   95.52    4.11
  -1   3   5  175.62    6.67
   1  -3  -5  186.32    8.79
   1  -3  -5  181.03    6.09
   0  -3   6    6.30    2.91
   0   3  -6    5.75    2.74
   0  -3   6    4.38    1.65
   0  -3   6    5.42    1.21
   3  -4  -1  267.61    8.39
  -3   4   1  196.46    9.47
  -2   0  -6  253.22   11.93
   2   0   6  239.63   11.06
   2   0   6  250.81    7.59
  -2   0  -6  258.62    7.10
  -3   0   6   85.65    4.36
   3   0  -6  101.94    4.03
  -3   0   6  101.31    4.52
   1  -3   6   60.19    2.47
   1  -3   6   61.53    3.25
  -1   3  -6   56.84    4.92
   1  -3   6   53.06    5.15
   4  -1  -4   23.38    4.09
  -4   1   4   24.25    2.28
  -4   1   4   29.29    4.26
   4  -1  -4   22.77    2.10
  -3   1   6    2.82    3.52
  -3   1   6    2.65    2.03
  -3   1   6    1.71    1.52
  -2  -3  -1    3.43    3.43
   2   3   1    2.49    3.37
   2  -3  -5   20.96    2.50
   2  -3  -5   23.67    2.15
  -2   3   5   20.46    2.19
  -2   3   5   19.76    4.55
   4  -3   1   77.93    5.65
  -4   3  -1   68.77    3.65
  -4   3  -1   78.76    5.78
   0   1   7    0.63    1.56
   0   1   7    0.72    4.44
   0  -1  -7    2.22    3.47
   0  -1  -7    0.64    1.02
  -3   1  -5   22.32    4.43
   3  -1   5   22.81    4.00
   3  -1   5   27.66    2.38
   3  -1   5   27.22    1.64
  -3  -2  -1    5.38    4.06
   3   2   1    5.90    1.47
   3   2   1    4.58    3.04
  -1   0  -7   98.39    3.34
  -1   0  -7  108.17    7.45
   1   0   7   91.27    3.94
  -3   2  -5    7.49    3.98
   3  -2   5    9.15    3.63
  -2  -2   6  241.11    8.74
   2   2  -6  257.76    7.60
  -2  -2   6  250.46   12.40
  -2  -2   6  230.39    7.54
  -3   4  -2   25.17    4.64
   3  -4   2   24.57    2.23
   3  -4   2   18.23    3.53
  -2  -2  -4  250.27   12.55
   2   2   4  200.31   10.55
  -2  -2  -4  243.66    6.74
   2   2   4  203.67    6.95
   0   4   2   97.84    6.87
   0  -4  -2  108.93    6.65
   0   4   2  124.52    5.04
   0  -4  -2  123.72    4.68
   4  -3  -2   71.27    5.32
  -4   3   2   68.27    5.48
  -4   3   2   61.10    3.33
   4  -3  -2   63.13    3.30
   0  -4   4  863.79   36.55
   0  -4   4  925.90   61.97
   0  -4   4  919.21   60.47
   0  -4   4  917.43   60.27
  -2   1   7   77.34    5.46
   2  -1  -7   69.79    4.57
   2  -1  -7   60.57    2.84
  -2   1   7   63.47    3.76
   1  -2   7  137.68    8.36
   1  -2   7  168.05    5.43
  -1   2  -7  182.00    5.32
  -1   4   3   -0.96    2.84
   1  -4  -3    0.86    1.21
   1  -4  -3   -2.09    3.17
  -1   4   3    1.32    1.38
  -2  -3   4   60.56    3.03
   2   3  -4   60.51    2.33
  -2  -3   4   74.56    4.47
  -2  -3   4   48.07    4.61
  -1  -2   7  175.85    6.14
   1   2  -7  199.25    8.32
  -1  -2   7  171.83    7.66
   1   2  -7  177.48    5.49
  -2   4  -4   51.07    4.56
   2  -4   4   54.04    3.04
   2  -4   4   35.53    4.67
  -2   4  -4   54.90    3.18
   4   0  -4   62.93    5.73
   4   0  -4   60.31    3.21
  -4   0   4   60.38    3.23
   2   1  -7   14.61    2.48
  -2  -1   7   14.31    2.68
  -2  -1   7   13.22    1.94
   2   1  -7   17.15    1.67
   3   2  -4   58.57    2.84
  -3  -2   4   52.36    2.93
  -3  -2   4   49.07    4.95
   3  -4  -2  167.54    5.88
  -4   0  -2    0.02    3.29
  -4   0  -2    0.14    1.26
   4   0   2   -0.20    3.26
   4   0   2    1.46    1.40
  -4   2   4   67.12    3.81
  -4   2   4   58.12    3.30
  -4   2   4   83.30    5.85
  -1  -4   1  132.08    4.91
  -1  -4   1  101.54    6.38
   1   4  -1  138.26    8.14
  -1  -4   1  134.66    4.12
  -1  -4   2   82.71    5.65
  -1  -4   2  100.21    4.13
  -1  -4   2   97.08    3.36
   1   4  -2   89.31    6.15
  -4   2  -3   24.57    2.12
   4  -2   3   31.63    2.47
  -4   2  -3   30.33    4.28
   4  -2   3   26.98    4.11
   4  -1   3  287.09    9.03
  -4   1  -3  255.75    8.10
   4  -1   3  279.75   12.41
  -4   3  -2   13.42    2.10
   4  -3   2   10.45    3.49
  -4   3  -2   14.93    4.08
   4   1  -1  126.77    7.73
   4   1  -1  112.77    4.68
  -4  -1   1  120.11    8.66
  -4  -1   1  116.49    4.74
  -1  -4   0   55.57    2.96
  -1  -4   0   53.65    5.05
   1   4   0   62.36    3.26
   1   4   0   66.58    5.62
   4   1  -2   32.96    4.39
  -4  -1   2   37.75    4.47
   4   1  -2   37.49    2.59
  -4  -1   2   32.29    2.28
   0  -3  -5   13.96    3.88
   0   3   5   17.90    2.06
   0   3   5   12.42    3.49
   0  -3  -5   19.09    1.75
  -1  -3   6   74.15    4.50
   1   3  -6   80.96    2.97
  -1  -3   6   75.92    3.38
   1   3   4   28.23    4.05
   1   3   4   36.27    2.61
  -1  -3  -4   37.90    2.04
  -1  -3  -4   32.20    4.54
   2   3   2    0.73    1.50
  -2  -3  -2   10.59    3.36
   2   3   2    8.05    3.39
   2   3   2    7.59    1.87
  -3  -1   6   61.40    3.45
  -3  -1   6   60.61    3.93
   3   1  -6   56.93    2.82
  -3  -1   6   64.80    5.84
   4   1   0  161.57    9.38
  -4  -1   0  151.10    5.60
   4   1   0  171.09    6.22
   3   0   5   40.18    2.78
   3   0   5   44.96    2.25
  -3   0  -5   49.62    5.17
   3   0   5   41.29    4.35
   3  -4   3    0.87    3.22
   3  -4   3    2.29    1.33
  -3   4  -3    1.75    3.70
  -4   3   3  207.17    7.05
   4  -3  -3  234.39   10.95
  -4   3   3  205.01   10.59
   4  -3  -3  218.13    7.19
   3  -2  -6   19.92    1.95
  -3   2   6   23.09    3.23
  -3   2   6   23.85    4.29
  -3   2   6   19.51    2.29
   3   2   2   29.00    4.10
   3   2   2   30.23    2.19
  -3  -2  -2   35.97    4.67
   3   2   2   31.46    2.04
  -1  -4   3   17.77    1.95
  -1  -4   3   12.43    3.57
  -1  -4   3   17.77    1.46
  -1  -4   3   17.46    2.43
   3   1   4  204.93    6.36
  -3  -1  -4  168.48   10.97
   3   1   4  194.84    7.06
   2  -3   6  101.88    7.27
  -2   3  -6  113.46    6.96
   2  -3   6  109.37    4.51
   2  -3   6  117.33    3.81
  -1   4  -5    1.13    2.65
   1  -4   5   -0.00    3.36
   1  -4   5    0.37    0.84
   1  -4   5   -0.26    1.40
   4   1  -3    1.23    1.25
  -4  -1   3    0.20    3.37
   4   1  -3    1.42    3.97
  -4  -1   3    0.31    1.16
  -4   1   5  197.31    6.90
   4  -1  -5  192.79    6.56
  -4   1   5  219.92   13.88
  -4   1   5  208.37    7.73
  -3   3   5   47.35    3.95
  -3   3   5   52.35    5.24
   3  -3  -5   47.03    2.76
  -1   0   8   35.53    2.83
  -1   0   8   37.31    4.92
   1   0  -8   30.87    3.96
   1   0  -8   36.35    2.10
   0  -1   8   65.65    3.24
   0   1  -8   67.05    2.59
   0  -1   8   64.22    6.13
   0   1  -8   69.21    5.53
  -1  -4  -1   30.17    2.15
   1   4   1   25.72    4.03
   1   4   1   26.80    2.12
  -1  -4  -1   26.03    4.23
   3  -3   5   42.71    2.76
  -3   3  -5   41.04    4.80
  -3   3  -5   44.59    2.91
   3  -3   5   42.01    4.58
  -3   4   3   41.02    5.11
   0   4   3  169.33    6.44
   0  -4  -3  165.33    8.90
   0  -4  -3  164.25    5.66
   1  -2  -7   13.39    3.41
  -1   2   7   11.55    4.67
   1  -2  -7   13.40    1.44
  -1   2   7   12.82    2.16
   0  -4   5  103.61    4.31
   0  -4   5  100.50    5.29
   0  -4   5  103.75    3.56
   0   0  -8  118.70    7.50
   0   0  -8  112.16    3.80
  -1  -1   8   28.60    2.37
  -1  -1   8   24.39    3.63
   1   1  -8   30.11    3.69
  -2  -3   5   43.01    5.22
  -2  -3   5   40.94    2.59
   2   3  -5   36.85    1.77
  -2  -3   5   47.23    3.60
   1   1   7  109.87    7.77
  -1  -1  -7  117.13    8.33
   1   1   7   97.69    4.33
  -1  -1  -7  111.76    3.71
   1   2   6   43.97    5.25
  -1  -2  -6   56.41    5.81
   1   2   6   54.13    3.29
  -1  -2  -6   53.42    2.34
  -3  -2   5    7.67    1.83
  -3  -2   5   10.66    4.03
  -3  -2   5   10.38    2.69
   3   2  -5    9.62    1.41
   2  -1   7   72.76    3.62
   2  -1   7   76.19    8.01
  -2   1  -7   80.25    8.04
   4   1   1  136.17   11.68
  -4  -1  -1  161.39   11.44
  -4  -1  -1  185.13   15.72
   4   1   1  142.14   10.16
  -4   3  -3    4.57    3.85
  -4   3  -3    5.11    1.89
   4  -3   3    2.82    3.29
   4   0  -5   45.78    3.93
  -4   0   5   40.64    3.70
  -4   0   5   42.16    5.75
   2   1   6   64.31    5.00
  -2  -1  -6   70.05    4.96
   2   1   6   77.18    7.56
  -2  -1  -6   81.75    8.48
  -4   0  -3   26.28    2.77
   4   0   3   29.85    4.50
  -4   0  -3   36.66    4.93
   4   0   3   28.51    2.93
   2  -4  -4  260.76   18.00
   2  -4  -4  254.40   17.34
  -2   4   4  187.68   14.27
  -2   4   4  288.53   19.77
   2  -2  -7   67.15    6.02
  -2   2   7   77.74    8.05
   2  -2  -7   75.01    5.63
  -1  -4   4  113.62    8.66
  -1  -4   4  105.76    9.71
  -1  -4   4  114.57    8.03
  -1  -4   4  106.38    7.79
  -2   4  -5  128.84   10.61
   2  -4   5  147.29    9.93
   2  -4   5  101.06    9.19
   2  -4   5  131.11    9.33
  -1   4   4    1.31    1.55
   1  -4  -4    1.29    1.39
  -1   4   4    2.90    2.96
   1  -4  -4    0.45    3.31
   0  -3   7    7.34    1.44
   0  -3   7    5.07    3.35
   0   3  -7    5.62    3.13
  -4   2   5   59.08    4.80
  -4   2   5   64.45    5.38
  -4   2   5   85.48    8.53
   2  -2   7   51.74    4.37
   2  -2   7   52.31    3.93
   2  -2   7   47.18    5.73
  -3   0   7  115.10    8.87
   3   0  -7  110.05    7.83
  -3   0   7  120.11   11.34
  -3   0   7  108.91    8.17
   1  -3  -6  116.08    8.26
  -1   3   6  116.46    8.71
  -1   3   6   84.93    8.79
   1  -3  -6  130.57   10.80
  -4  -1   4   -0.48    2.97
   4   1  -4    0.34    3.41
   4   1  -4    0.61    1.30
  -4  -1   4   -0.11    1.19
   4  -2   4   21.84    4.13
  -4   2  -4   16.72    3.93
  -4   2  -4   21.87    2.62
   4  -2   4   24.08    2.72
   2  -3  -6    0.13    1.37
  -2   3   6   -0.26    1.55
   2  -3  -6    1.00    1.88
  -2   3   6   -2.38    3.51
   1  -3   7   46.61    3.59
  -1   3  -7   46.35    5.57
   1  -3   7   43.93    5.76
   1  -3   7   50.88    4.35
  -3   1   7   11.69    3.95
  -3   1   7    9.01    1.99
  -3   1   7   10.55    2.76
  -4   4   0    1.09    3.22
   4  -4   0    1.33    2.91
  -4   4   0    0.62    1.43
   4  -4   0    0.84    1.47
  -2  -2   7   55.17    5.01
  -2  -2   7   59.83    4.88
  -2  -2   7   72.90    7.85
   2   2  -7   71.52    5.24
  -4   3   4   80.36    6.29
  -4   3   4   75.18    7.15
  -4   3   4   82.06    6.48
   4  -3  -4   79.13    6.06
   4  -1   4  213.67   16.41
  -4   1  -4  188.08   13.20
   4  -1   4  199.81   13.85
   3  -4   4    4.64    3.56
   3  -4   4    0.20    1.48
  -3   4  -4    2.09    3.75
   3  -1   6   59.45    6.26
  -3   1  -6   62.23    6.83
   3  -1   6   56.51    4.26
   3  -1   6   56.37    4.64
  -2  -2  -5  132.11   11.41
   2   2   5   97.93    9.45
  -2  -2  -5  115.47    7.87
   2   2   5  101.16    7.64
   3  -2   6  105.25    7.77
   3  -2   6  102.40    9.12
   1  -1  -8  121.97   10.02
  -1   1   8  109.87   10.06
   1  -1  -8  142.45    9.86
   0  -2  -7  171.15   14.84
   0   2   7  156.07   13.82
   0   2   7  163.27   11.77
   0  -2  -7  167.65   11.46
   4  -4  -1   12.87    3.16
   4  -4  -1   12.85    2.09
  -4   4   1   14.05    2.26
  -4   4   1   10.79    3.17
  -2   0   8  101.84    7.78
   2   0  -8  104.41    8.50
  -2   0   8  110.30    9.14
   2   3   3   -0.32    3.06
   2   3   3   -0.01    1.13
  -2  -3  -3    0.00    0.66
  -2  -3  -3    1.32    3.31
   0  -2   8   -0.40    1.28
   0   2  -8    0.30    3.33
   0  -2   8   -1.65    3.17
  -1   1  -8   33.82    2.69
   1  -1   8   28.32    5.11
  -1   1  -8   35.82    5.05
   4  -4   1  278.99   18.94
  -4   4  -1  262.50   18.04
  -4   4  -1  277.23   20.68
   4  -4   1  236.18   17.60
   1  -5   1   21.98    3.21
   1  -5   1   16.19    3.24
   1  -5   1   27.79    2.78
  -1   5  -1   26.85    2.81
   2  -5   1   68.60    5.36
   2  -5   1   60.62    6.28
  -2   5  -1   64.38    5.14
   2  -5   1   56.62    5.87
   1   4   2   33.33    3.05
   1   4   2   31.78    4.54
  -1  -4  -2   35.30    4.97
  -1  -4  -2   36.93    3.11
   3   2   3   -0.17    3.29
   3   2   3    4.48    1.44
   3   2   3    3.53    1.19
  -3  -2  -3    2.82    3.10
   2   0   7  136.65    9.68
  -2   0  -7  121.53   10.22
  -2   0  -7  140.28    9.51
  -2   5   0   28.11    2.85
   2  -5   0   30.29    2.95
   1  -5   0   18.58    3.67
  -1   5   0   24.11    2.51
   1  -5   0   28.62    2.81
   1  -5   0   24.32    2.98
   1  -5   2    3.74    1.43
   1  -5   2    3.27    2.58
   1  -5   2    4.25    3.28
  -1   5  -2    3.33    1.52
   4   1   2  103.29    8.95
   4   1   2  111.07    8.14
   4   1   2   93.11    6.94
  -4  -1  -2  115.16   10.46
   2  -5   2   19.58    4.15
   2  -5   2   17.79    4.13
  -2   5  -2   21.21    2.38
   2  -5   2   20.38    2.41
   5  -2  -1    6.15    1.66
  -5   2   1    6.11    3.74
   5  -2  -1    6.09    3.56
  -5   2   1    7.55    1.82
   5  -1  -1  167.35   13.32
  -5   1   1  185.85   15.83
   5  -1  -1  144.82   10.20
  -5   1   1  144.19   10.28
   5  -2   0    3.98    1.50
  -5   2   0    7.39    3.69
   5  -2   0    4.19    3.54
  -5   2   0    4.38    1.74
   3  -4  -4    1.57    1.45
  -3   4   4    1.59    1.40
  -3   4   4    8.24    3.62
  -3   4   4    2.98    2.81
   0   1   8    5.56    1.68
   0  -1  -8    5.18    3.76
   0   1   8    5.08    4.82
   0  -1  -8    5.21    1.20
   3   3  -2    0.58    4.20
  -3  -3   2    0.26    1.18
  -3  -3   2    0.12    1.48
  -3  -3   2   -1.19    3.61
  -4   4   2    1.52    1.71
  -4   4   2    0.91    2.77
   4  -4  -2    0.56    1.45
   4  -4  -2    0.30    2.81
  -3  -3   1   20.01    4.24
   3   3  -1   22.74    4.77
   1   2  -8  271.70   19.69
  -1  -2   8  283.23   20.30
  -1  -2   8  304.77   21.88
   1   2  -8  304.44   21.47
  -5   1   2  122.93    8.87
  -5   1   2  162.21   14.07
   5  -1  -2  126.35    9.04
   5  -1  -2  133.31   11.37
   1  -4   6   -0.12    0.92
  -1   4  -6   -0.12    2.59
   1  -4   6    1.87    1.52
   1  -4   6   -0.25    3.33
   2   1  -8  180.92   12.29
   2   1  -8  199.28   14.59
  -2  -1   8  175.18   12.41
  -1   0  -8   -2.52    3.08
   1   0   8   -0.47    1.50
  -1   0  -8    0.38    0.93
   2  -1  -8   25.86    3.67
  -2   1   8   21.20    2.98
   2  -1  -8   23.25    2.33
  -2   1   8   26.18    4.27
   5  -1   0   64.88    6.70
   5  -1   0   54.02    4.39
  -5   1   0   52.85    4.37
  -5   1   0   61.52    6.26
  -1  -3   7   28.52    2.76
   1   3  -7   27.90    2.34
  -1  -3   7   27.08    3.72
  -2   5   1    8.65    1.72
   2  -5  -1    9.11    1.72
  -1  -3  -5  114.87    7.98
   1   3   5   84.34    8.62
  -1  -3  -5  114.14   10.42
   1   3   5  109.34    8.25
   4  -4   2  194.64   15.01
   4  -4   2  228.70   15.66
  -4   4  -2  244.12   16.86
  -4   4  -2  212.16   16.53
   5  -2  -2   12.07    1.83
   5  -2  -2   18.60    4.30
  -5   2   2   16.87    3.97
  -5   2   2   14.26    2.14
  -1   2  -8  256.59   17.05
   1  -2   8  229.15   15.49
   1  -2   8  188.07   15.69
  -3  -1   7   36.08    3.53
   3   1  -7   39.96    3.36
   4  -1  -6   99.85    7.37
  -4   1   6   93.53    7.08
  -4   1   6  108.43   10.48
  -4   1   6  101.44    7.81
  -1  -4   5   47.39    3.78
  -1  -4   5   47.18    6.21
  -1  -4   5   47.21    4.05
  -1  -4   5   48.36    4.65
   4  -3   4   53.77    5.92
  -4   3  -4   61.53    6.90
  -4   3  -4   63.95    5.22
   3   1   5  109.53    8.12
  -3  -1  -5   97.62    8.75
   3   1   5  112.93    8.03
   0  -3  -6   29.54    2.64
   0   3   6   27.87    3.09
   0  -3  -6   25.73    4.85
   0   3   6   21.67    4.38
   1  -5  -1   29.21    4.34
   1  -5  -1   44.53    4.03
  -1   5   1   39.79    3.52
   1  -5  -1   44.17    3.70
   1  -5   3    3.03    2.39
  -1   5  -3    2.59    1.55
   1  -5   3    0.57    3.61
   1  -5   3    3.59    1.46
  -2  -3   6    3.40    1.40
  -2  -3   6    3.95    2.07
  -2  -3   6    7.01    4.44
   2   3  -6    2.96    0.90
   0   4   4  136.09   11.82
   0  -4  -4  164.98   14.04
   0  -4  -4  180.11   12.39
   0   4   4  187.22   13.20
   0   4  -6   41.39    4.45
   0  -4   6   33.90    2.81
   0  -4   6   38.90    3.57
   0  -4   6   31.74    4.07
  -3  -2   6   -0.57    2.34
  -3  -2   6    1.65    3.58
   3   2  -6    0.63    1.03
  -3  -2   6    1.85    1.54
   3   3  -3    9.76    3.86
  -3  -3   3    9.85    3.76
  -3  -3   3   11.44    1.63
   3   3  -3   12.25    1.29
   4   1  -5   -0.04    1.15
  -4  -1   5   -0.14    1.28
   4   1  -5    2.65    3.78
  -4  -1   5   -2.60    3.02
   3   3   0  129.69   11.18
  -3  -3   0  141.36   11.69
   5  -2   1   39.44    3.60
  -5   2  -1   30.04    4.25
  -5   2  -1   33.19    3.20
   5  -2   1   33.43    4.81
  -3   3   6  101.00    8.56
  -3   3   6   93.79    9.22
   3  -3  -6   98.19    7.26
  -3   0  -6    8.02    4.22
   3   0   6    9.18    3.67
   3   0   6    9.44    1.54
   3   0   6    8.71    1.90
   4   0  -6  136.02   10.13
  -4   0   6  126.19    9.62
  -4   0   6  155.57   13.89
  -4   0   6  148.17   11.37
   3  -2  -7   41.70    3.77
  -3   2   7   49.28    5.23
  -3   2   7   47.51    6.14
  -3   2   7   41.99    3.91
  -2   5  -3   57.73    4.96
   2  -5   3   37.04    5.06
  -2   5  -3   55.81    5.16
   2  -5   3   63.48    5.26
   2  -3   7   15.81    2.33
   2  -3   7   11.75    4.72
  -2   3  -7   15.37    4.33
   2  -3   7   15.25    1.70
  -5   1   3   48.84    5.69
   5  -1  -3   55.03    6.88
  -5   1   3   47.12    4.21
   5  -1  -3   49.06    4.27
   3  -3   6    2.17    3.03
   3  -3   6    1.69    0.96
  -3   3  -6    0.20    4.07
   3  -3   6    1.89    1.41
   4   0   4  126.73   11.05
   4   0   4  119.47    9.18
   4   0   4  119.36    8.71
  -4   0  -4  126.53   11.35
   5  -1   1   40.54    5.36
  -5   1  -1   37.80    3.60
   5  -1   1   38.88    3.62
  -5   1  -1   50.35    6.15
   0  -5   1    9.83    3.33
   0  -5   1   19.13    2.63
   0   5  -1   19.35    2.36
   0  -5   1   17.80    2.06
  -3   5   0   17.31    2.40
   3  -5   0   19.65    2.44
  -3   5  -1    1.59    1.41
   3  -5   1    0.19    2.63
  -3   5  -1    0.63    1.64
   3  -5   1    0.71    1.41
  -2  -4   2   20.71    4.15
   2   4  -2   24.97    4.77
  -2  -4   2   28.59    3.01
  -2  -4   2   30.45    3.16
  -2  -4   1   80.21    7.94
   2   4  -1   89.06    8.95
  -5   2   3  103.31    9.44
   5  -2  -3   85.25    6.74
  -5   2   3   88.87    7.06
   5  -2  -3  103.98    9.84
   0  -5   2  107.37    9.63
   0  -5   2  127.85    9.92
   0   5  -2  139.20   10.47
   0  -5   2  132.16    9.88
   2  -4  -5   45.68    4.44
  -2   4   5   32.25    4.66
  -2   4   5   47.55    4.36
   2  -4  -5   50.09    4.33
   4   2  -2    0.72    1.06
  -4  -2   2   -0.20    1.04
  -4  -2   2    1.87    3.62
  -4  -2   1    9.18    1.65
   4   2  -1    8.34    1.58
  -4  -2   1    6.85    4.14
   2  -4   6  131.69    9.45
   2  -4   6   99.46    9.46
  -2   4  -6  129.25   11.11
   2  -4   6  137.13   10.31
   2  -5  -2   53.15    4.50
  -2   5   2   51.70    4.53
  -4   3   5  235.30   18.39
  -4   3   5  222.56   16.69
   4  -3  -5  223.90   16.26
  -4   3   5  226.40   16.68
  -5   3   1   16.58    3.89
   5  -3  -1   10.95    1.76
   5  -3  -1   15.52    3.78
  -5   3   1   11.07    1.87
  -4   2   6   30.22    3.48
  -4   2   6   36.39    5.38
  -4   2   6   32.03    3.40
  -4   4   3    0.53    1.55
  -4   4   3    7.23    3.24
   4  -4  -3    1.35    1.31
   0   5   0   16.13    2.18
   0  -5   0   14.70    3.74
   0  -5   0   19.32    2.15
   0   5   0   16.36    3.91
   5  -3   0   71.91    7.18
  -5   3   0   66.98    6.87
  -5   3   0   70.71    5.89
   5  -3   0   66.27    5.46
  -3   4  -5   11.70    4.07
   3  -4   5   13.72    4.20
  -3   4  -5   13.78    2.27
   3  -4   5   14.02    2.00
   1   4   3    1.54    3.51
   1   4   3    0.12    1.28
  -1  -4  -3   -0.67    3.26
  -1  -4  -3    0.11    0.79
  -1   4   5    2.61    1.51
   1  -4  -5    2.66    1.40
   1  -4  -5    1.08    3.34
  -1   4   5    1.23    3.19
  -5   0   1   65.23    5.35
   5   0  -1   67.60    5.52
   5   0  -1   81.96    8.26
  -4   4  -3  124.56    9.46
   4  -4   3  133.63   10.05
  -4   4  -3  103.89    9.92
   4  -4   3  106.93    9.56
   3  -5  -1   54.70    4.61
  -3   5   1   56.34    4.92
   2   4  -3    9.32    4.01
  -2  -4   3    9.47    1.75
  -2  -4   3    8.94    1.52
  -2  -4   3    8.17    3.62
   4  -2   5    2.84    1.64
  -4   2  -5    2.79    4.34
  -4   2  -5    1.13    1.41
   4  -2   5    2.13    2.89
   2   4   0   63.22    6.87
  -2  -4   0   67.91    7.11
  -3   5  -2    0.35    1.66
   3  -5   2    0.86    1.41
  -3   5  -2    1.74    2.25
   3  -5   2   -0.50    2.93
   5   0  -2   21.62    2.45
   5   0  -2   17.21    4.24
  -5   0   2   18.22    2.21
  -3  -3   4   22.73    2.50
   3   3  -4   23.83    2.12
   3   3  -4   23.61    4.79
  -3  -3   4   23.13    4.53
  -3  -3  -1   67.71    7.37
   3   3   1   80.23    8.17
   1  -5  -2  190.05   13.82
   1  -5  -2  182.22   14.70
  -1   5   2  146.87   12.14
  -1   5   2  211.33   15.67
   1  -5   4    2.59    1.51
   1  -5   4    1.64    2.88
   1  -5   4    2.91    3.74
   4   1   3   29.90    3.03
  -4  -1  -3   39.36    5.46
   4   1   3   29.37    2.58
   0  -5   3   24.62    2.64
   0  -5   3   24.74    2.16
   0  -5   3   23.40    3.19
   0  -5   3   18.58    4.10
  -4  -2   3   -0.27    3.74
   4   2  -3    4.07    1.24
  -4  -2   3    2.64    1.24
   2   3   4    1.55    1.47
  -2  -3  -4    0.48    0.61
  -2  -3  -4   -0.23    3.48
   2   3   4    1.22    3.51
  -4  -2   0   14.06    1.99
  -4  -2   0   11.17    3.85
   4   2   0   15.38    1.94
  -5   3   2   12.73    2.01
  -5   3   2   15.12    3.85
   5  -3  -2   15.51    3.81
   5  -2   2   26.27    2.84
  -5   2  -2   28.25    3.05
  -5   2  -2   19.75    3.92
   5  -2   2   26.81    4.57
   4  -1   5   97.86    7.71
   4  -1   5   97.02    7.13
   4  -1   5   74.79    7.15
   5   0   0   70.17    5.64
  -5   0   0   70.78    5.85
   5   0   0   70.39    7.11
  -5   3  -1  151.81   11.38
  -5   3  -1  148.36   12.66
   5  -3   1  155.49   12.99
   5  -3   1  162.89   12.08
   3   2   4    6.90    3.83
  -3  -2  -4    5.09    3.87
   3   2   4    6.78    1.67
   3   2   4    5.43    1.29
  -1  -2  -7   42.35    3.42
  -1  -2  -7   45.66    6.34
   1   2   7   39.55    3.89
   1   2   7   25.92    4.58
  -5   1   4   42.25    3.91
   5  -1  -4   41.50    3.81
  -5   1   4   41.42    5.67
   5  -1  -4   44.61    5.99
   1  -2  -8    3.60    3.16
  -1   2   8    3.10    2.19
  -1   2   8    6.89    4.81
   1  -2  -8    5.44    1.35
   2   1   7   13.58    3.80
  -2  -1  -7   22.41    4.96
   2   1   7   20.47    2.42
  -2  -1  -7   21.69    1.98
  -2   5  -4   95.57    7.99
   2  -5   4   68.26    7.26
  -2   5  -4   96.10    7.47
   2  -5   4  102.18    7.91
   5   0  -3   36.80    3.49
   5   0  -3   38.26    5.91
  -5   0   3   34.06    3.23
  -1   0   9   36.29    3.77
   1   0  -9   44.49    3.66
  -1   0   9   39.67    5.42
   1   0  -9   36.84    4.49
   0  -3   8   78.20    6.05
   0  -3   8   69.37    6.62
   0   3  -8   75.27    7.36
   0   3  -8   90.30    6.68
  -5   1  -2    3.10    3.93
   5  -1   2    2.26    1.45
  -5   1  -2    1.45    1.47
   5  -1   2    0.42    3.49
   0   5   1    0.77    3.17
   0  -5  -1    0.27    1.03
   0   5   1    0.68    1.23
   0  -5  -1   -1.19    3.04
   0   1  -9   15.61    3.99
   0  -1   9   11.54    4.95
   0   1  -9   13.02    1.48
   0  -1   9   13.40    2.23
  -3   0   8   55.80    5.37
  -3   0   8   60.02    7.21
   3   0  -8   51.46    4.19
  -3   0   8   53.89    4.82
   2  -1   8  142.72   10.72
   2  -1   8  142.61   12.69
   2  -1   8  157.46   11.55
  -2   1  -8  149.86   12.87
   1   1  -9   36.37    4.63
  -1  -1   9   36.07    3.66
   1   1   8  185.24   16.30
  -1  -1  -8  246.05   15.32
  -1  -1  -8  244.15   20.01
   1   1   8  202.83   14.92
   2  -3  -7    5.19    2.35
  -2   3   7    3.13    3.93
  -2   3   7    6.39    1.94
   2  -3  -7    6.50    1.59
   5  -2  -4   84.80    8.32
  -5   2   4   92.09    8.89
   5  -2  -4   74.99    5.98
  -5   2   4   78.10    6.37
  -2  -2   8    8.45    2.92
  -2  -2   8    7.49    1.97
   2   2  -8    7.37    1.24
   1  -3  -7   52.46    5.96
  -1   3   7   49.20    4.48
   1  -3  -7   44.98    3.82
  -1   3   7   39.91    5.95
  -3   4   5    1.23    1.67
  -3   4   5   -0.35    3.26
  -3   4   5    0.30    3.46
   3  -4  -5    0.41    1.50
   2  -2  -8   65.68    5.20
   2  -2  -8   59.80    5.92
  -2   2   8   70.42    7.78
  -3   5   2   38.24    3.75
   3  -5  -2   35.11    3.26
  -1  -4   6    3.71    1.46
  -1  -4   6    5.96    1.36
  -1  -4   6    2.96    2.43
  -1  -4   6    1.63    4.36
   2   2   6  104.54   10.42
   2   2   6  126.19    9.62
  -2  -2  -6  138.08    9.89
  -2  -2  -6  133.50   13.14
  -3   1   8   53.20    5.19
  -3   1   8   59.39    5.26
  -2  -4   4    2.71    3.74
  -2  -4   4    3.14    2.31
  -2  -4   4    2.43    1.18
  -2  -4   4    3.78    1.46
   1  -3   8    2.66    1.30
   1  -3   8    1.35    1.58
   1  -3   8    3.81    3.65
  -1   3  -8    3.88    3.68
   2   4   1    1.94    3.70
  -2  -4  -1    4.44    3.45
   0   0  -9  140.34   10.14
   0   0   9  108.10   11.09
   0   0  -9  128.57   11.10
  -3   5  -3   67.18    5.55
   3  -5   3   67.73    5.51
  -3   5  -3   64.91    6.44
   3  -5   3   49.15    5.78
   2  -2   8   68.77    7.40
   2  -2   8   77.48    5.99
   3  -2   7   60.06    6.36
   3  -2   7   76.38    6.14
   4   1  -6    0.38    1.09
  -4  -1   6    0.49    1.40
   4   2  -4   56.48    4.67
  -4  -2   4   54.34    4.59
   4   2  -4   46.85    5.91
  -4  -2   4   44.02    5.21
   3  -1   7   64.24    5.41
  -3   1  -7   64.62    6.89
   3  -1   7   67.62    5.29
   3  -1   7   57.93    6.37
   5   0   1  182.60   14.07
   5   0   1  169.36   11.12
  -5   0  -1  148.87    9.99
   5  -3  -3   14.18    3.96
  -5   3   3    8.24    3.71
  -5   3   3    8.85    1.88
  -4   3  -5  158.95   10.62
   4  -3   5  121.69   10.16
  -4   3  -5  146.63   12.03
   4   2   1   46.18    3.40
   4   2   1   34.44    4.72
   4   2   1   49.98    4.02
  -4  -2  -1   55.17    6.47
   0  -5   4   76.79    6.15
   0  -5   4   83.97    5.53
   0  -5   4   88.28    6.34
   0  -5   4   72.86    7.47
   2  -5  -3    0.88    1.03
  -2   5   3    0.24    1.53
   5  -3   2   94.19    8.18
  -5   3  -2   89.68    6.46
   5  -3   2   97.41    6.90
  -5   3  -2   94.86    8.83
   1  -4   7    7.93    1.34
   1  -4   7    5.81    3.82
  -1   4  -7    9.37    3.51
   1  -4   7    8.34    1.85
  -4   4   4   61.71    5.32
  -4   4   4   40.80    4.96
   4  -4  -4   59.73    4.62
  -3  -3   5   76.62    6.24
  -3  -3   5   58.60    6.54
  -3  -3   5   64.90    4.91
   3   3  -5   61.99    4.27
  -2  -3   7    5.45    2.33
   2   3  -7    4.79    1.00
  -2  -3   7    4.15    1.56
  -2  -3   7    0.65    4.51
  -4   1   7  252.54   16.58
   4  -1  -7  274.05   16.35
  -4   1   7  300.33   23.10
  -4   1   7  256.04   16.65
   3   3   2  131.09   10.94
  -3  -3  -2  119.71    9.90
  -3  -2   7   -0.37    4.13
  -3  -2   7    1.85    1.74
   3   2  -7    1.17    1.14
  -3  -2   7    0.64    2.39
   0   4   5   63.25    6.41
   0  -4  -5   60.57    6.58
   0   4   5   75.46    5.69
   0  -4  -5   70.88    5.05
   4  -4   4  110.17    7.62
  -4   4  -4   92.54    8.24
   4  -4   4   78.49    7.35
  -4   4  -4  103.97    7.31
   5   0  -4    7.84    3.68
  -5   0   4    4.45    3.40
  -5   0   4    7.61    1.72
   5   0  -4    7.78    1.81
   0   4  -7   85.00    7.10
   0  -4   7   59.63    5.37
   0  -4   7   80.14    5.88
   0  -4   7   78.95    5.46
   0   2   8  147.49   10.26
   0   2   8  132.85   11.77
   0  -2  -8  136.67   11.52
   0  -2  -8  157.92   10.15
  -2   0   9   38.69    4.82
  -2   0   9   37.56    3.74
   2   0  -9   39.48    4.54
   0  -2   9    0.96    1.64
   0  -2   9    1.71    3.91
   0   2  -9    1.44    2.95
   1  -5  -3   72.22    5.22
  -1   5   3   51.61    5.46
   1  -5  -3   66.81    6.57
  -1   5   3   75.83    5.69
  -1  -3   8   83.07    6.61
  -1  -3   8   93.88    6.54
   1   3  -8  110.16    7.15
  -1  -3  -6  189.66   12.00
  -1  -3  -6  166.16   14.83
   1   3   6  148.40   12.70
   1   3   6  176.92   12.08
  -5   2  -3  158.02   10.52
   5  -2   3  170.37   11.27
   5  -2   3  144.52   11.36
  -5   2  -3  143.04   11.66
  -4   0   7  124.28   10.83
   4   0  -7  136.59    9.08
  -4   0   7  128.72    9.24
  -4   0   7  139.82    9.59
   1  -5   5    3.51    1.58
  -1   5  -5    3.24    2.21
   1  -5   5    4.23    3.14
   1  -5   5    3.72    0.86
   3   1  -8   25.88    2.41
  -3  -1   8   24.17    2.91
  -2   0  -8  155.73   12.57
  -2   0  -8  157.30    9.95
   2   0   8  145.80    9.64
   1  -1  -9   91.32    6.13
   1  -1  -9   88.53    7.82
  -1   1   9   72.71    7.90
   0  -5  -2   11.42    1.72
   0  -5  -2    9.26    3.36
   0   5   2    8.37    3.46
   0   5   2   11.56    1.75
  -3  -1  -6  100.59    9.11
   3   1   6   82.96    7.67
   3   1   6   79.11    5.62
   3   1   6   73.66    5.50
   4   0   5  214.24   13.51
   4   0   5  215.02   14.03
   4   0   5  198.38   14.88
  -4   0  -5  196.84   15.74
  -1   1  -9   43.36    3.10
   1  -1   9   54.25    6.96
  -1   1  -9   42.82    5.61
   1   4   4   63.42    6.52
  -1  -4  -4   89.41    6.03
   1   4   4   91.35    6.63
  -1  -4  -4   76.37    7.68
   5  -1  -5   28.88    4.94
  -5   1   5   30.21    3.12
  -5   1   5   35.15    5.25
   5  -1  -5   33.16    3.19
  -4   3   6   24.04    3.26
   4  -3  -6   22.74    2.69
  -4   3   6   25.14    2.90
  -4   3   6   21.43    4.70
   3  -3  -7   69.13    5.14
  -3   3   7   58.75    5.95
  -3   5   3   55.43    4.54
   3  -5  -3   52.87    4.17
   5  -1   3   53.27    5.84
   5  -1   3   56.05    4.44
  -5   1  -3   46.00    3.83
  -1  -2   9   55.29    4.39
   1   2  -9   60.25    4.20
  -1  -2   9   54.24    5.47
   1   2  -9   46.49    5.01
  -2  -1   9   60.74    5.00
   2   1  -9   65.40    4.61
   2   1  -9   60.55    5.60
   3  -4   6   54.14    4.26
  -3   4  -6   62.80    6.61
   3  -4   6   51.98    3.60
   3  -4   6   41.01    5.64
  -2   5  -5   27.81    3.74
   2  -5   5   18.78    4.32
   2  -5   5   29.73    2.93
   0   3   7   26.69    4.83
   0   3   7   38.49    3.74
   0  -3  -7   30.49    5.35
   0  -3  -7   32.63    2.63
  -2  -4   5    8.06    1.70
  -2  -4   5    8.70    4.37
  -2  -4   5    7.32    2.48
  -2  -4   5    7.87    1.43
   4  -5   0   53.31    4.30
   4  -5   0   36.02    4.48
  -4   5   0   41.76    5.08
  -2  -4  -2   59.78    6.10
   2   4   2   84.99    7.82
   1   5  -1   38.86    5.23
  -1  -5   1   51.03    3.93
  -1  -5   1   43.67    5.28
  -1  -5   1   54.53    3.71
  -1  -5   2   54.84    4.79
  -1  -5   2   31.81    4.51
  -1  -5   2   44.18    3.15
  -1  -5   2   41.00    3.35
   3  -5   4   52.28    5.94
   3  -5   4   67.09    5.00
  -3   5  -4   67.91    6.66
  -3   5  -4   67.76    5.25
   4   1   4   10.64    1.39
   4   1   4   11.74    1.96
  -4  -1  -4   10.46    3.92
  -2   4   6   38.50    5.27
   2  -4  -6   52.30    4.81
   2  -4  -6   54.17    4.21
  -2   4   6   57.21    4.65
   5   0   2   58.22    5.91
  -5   0  -2   77.71    7.74
  -5   0  -2   62.09    4.80
   5   0   2   66.15    4.94
   3  -3   7   -0.06    0.99
   3  -3   7   -1.62    3.91
   3  -3   7    0.50    1.50
  -3   3  -7    3.78    4.62
  -4   5  -1   86.69    7.82
   4  -5   1  100.23    7.05
   4  -5   1   65.99    6.19
  -4  -2   5  183.89   12.15
   4   2  -5  168.99   13.20
   4   2  -5  173.86   11.30
  -4  -2   5  184.42   14.16
   5  -4   0   87.61    6.26
  -5   4   0   94.84    6.88
   5  -4   0   91.88    7.93
  -5   4   0   89.13    8.08
  -5   3   4   13.23    2.21
  -5   3   4    8.88    3.54
  -5   2   5  240.91   18.52
  -5   2   5  198.02   13.00
   5  -2  -5  206.08   13.41
  -5   2   5  235.95   15.54
   2  -1  -9    8.14    1.34
  -2   1   9    6.20    2.18
  -2   1   9    6.16    3.79
   2  -1  -9    7.18    2.62
   2  -4   7   58.56    4.05
  -2   4  -7   57.96    6.40
   2  -4   7   45.65    6.02
   2  -4   7   58.64    4.53
  -4   2   7  109.95    8.26
  -4   2   7  128.00   11.57
  -4   2   7  103.96    7.48
  -5   4   1  149.03   10.12
   5  -4  -1  140.14   10.95
  -5   4   1  135.70   10.59
   5  -4  -1  154.39   10.32
   4   2   2  124.31   10.26
  -4  -2  -2  159.96   12.70
   4   2   2  147.39    9.61
   4   2   2  124.11    8.42
   3   0   7    5.71    3.68
  -3   0  -7    9.99    4.73
   3   0   7   11.58    1.74
   3   0   7    9.43    1.99
   3  -2  -8   13.14    1.96
  -3   2   8    9.54    2.24
   3  -2  -8   12.40    2.69
  -3   2   8   10.51    3.53
   1  -2   9   89.35    8.51
   1  -2   9  124.45    8.33
  -1   2  -9  118.84    7.66
  -1   2  -9  103.97    8.96
  -4   5   1   98.77    8.69
   4  -5  -1  108.89    7.56
  -5   3  -3  106.97    9.24
  -5   3  -3  104.02    7.36
   5  -3   3   81.95    7.29
   5  -3   3  107.19    7.49
   0  -1  -9    6.13    1.26
   0   1   9    2.44    4.25
   0   1   9    4.88    2.07
   0  -1  -9    7.86    4.06
  -2   3  -8   22.87    4.86
   2  -3   8   22.73    2.06
   2  -3   8   20.37    5.15
   2  -3   8   21.92    2.72
   0  -5   5   22.20    2.46
   0  -5   5   19.31    4.59
   0  -5   5   18.87    3.13
   0  -5   5   20.14    1.83
   1  -4  -6   39.41    5.20
  -1   4   6   35.63    3.39
   1  -4  -6   34.31    2.86
  -1   4   6   21.56    4.19
  -1   0  -9    0.57    0.94
   1   0   9    2.02    1.84
  -1   0  -9    1.56    3.31
  -5  -1   2    4.99    4.23
   5   1  -2    8.44    4.30
  -5  -1   2    5.69    1.35
   5   1  -2    5.76    1.62
  -5  -1   1    3.12    4.19
   5   1  -1    1.06    1.16
  -5  -1   1    0.50    1.22
   5   1  -1    1.41    3.21
  -4   2  -6   24.78    4.66
   4  -2   6   25.47    4.43
   4  -2   6   31.66    3.14
   4  -2   6   26.43    2.17
   1   5   0   48.39    5.64
  -1  -5   0   53.60    6.05
  -1  -5   0   61.60    4.54
   1   5   0   66.02    5.00
  -1  -5   3   20.01    2.79
  -1  -5   3   19.81    2.20
  -1  -5   3   13.84    3.80
  -1  -5   3   19.46    1.80
   5  -4   1    5.09    3.34
   5  -4   1    7.27    1.97
  -5   4  -1    7.52    1.95
  -5   4  -1    4.13    3.74
  -2  -3  -5   53.07    6.48
   2   3   5   46.49    5.65
   2   3   5   46.10    4.08
  -2  -3  -5   47.37    3.30
   3   2   5    4.55    1.33
   3   2   5    3.03    3.95
  -3  -2  -5    7.08    4.61
   3   2   5    3.05    1.54
  -4   5  -2   82.37    7.66
   4  -5   2   89.32    6.39
   4  -5   2   66.41    6.34
   5   0  -5    9.96    1.95
  -5   0   5    6.44    4.09
   5   0  -5    6.78    4.01
  -5   0   5    7.38    1.80
   5  -4  -2   68.89    6.75
  -5   4   2   60.82    6.23
   5  -4  -2   77.99    5.74
  -5   4   2   72.17    5.17
   4  -1   6   23.71    4.42
   4  -1   6   29.88    3.03
   4  -1   6   29.54    2.37
  -2   5   4   25.22    4.22
  -2   5   4   29.06    2.90
   2  -5  -4   27.95    2.51
  -5  -1   3   58.77    6.36
   5   1  -3   55.64    6.14
  -5  -1   3   47.98    3.79
   5   1  -3   63.81    4.69
   3   3  -6   20.00    1.76
  -3  -3   6   17.98    2.32
  -3  -3   6   13.81    4.28
  -3  -3   6   25.30    3.44
  -5  -1   0   11.58    1.84
  -5  -1   0   12.54    4.96
   5   1   0    8.19    3.80
   5   1   0   11.20    1.66
  -1  -4   7   17.10    1.96
  -1  -4   7   23.03    5.74
  -1  -4   7   19.95    2.43
  -1  -4   7   16.19    2.87
  -3  -3  -3   58.29    6.52
   3   3   3   47.39    5.40
   3   3   3   50.88    3.97
  -4   5   2   22.78    2.56
   4  -5  -2   26.30    2.65
   3  -4  -6    5.60    1.80
  -3   4   6    2.10    3.75
  -3   4   6    5.85    1.76
  -3   4   6    3.01    3.55
  -4   4   5  138.47    9.79
  -4   4   5   89.63    8.57
   4  -4  -5  135.56    8.60
  -4  -1   7   52.10    4.06
   4   1  -7   55.76    3.99
   0   5   3   23.43    4.11
   0  -5  -3   29.86    2.63
   0   5   3   27.83    2.74
   0  -5  -3   21.12    4.13
   4  -4   5   33.64    4.87
  -4   4  -5   45.69    3.81
  -4   4  -5   46.01    6.14
   4  -4   5   47.00    3.77
  -5   4  -2    4.51    2.05
  -5   4  -2    0.26    3.88
   5  -4   2   -0.56    3.25
  -1  -5  -1   16.78    3.86
   1   5   1   15.63    3.81
  -1  -5  -1   24.30    2.26
   1   5   1   22.73    2.37
  -1  -5   4   -0.91    3.26
  -1  -5   4    0.08    1.38
  -1  -5   4   -1.11    1.81
  -1  -5   4    0.22    0.85
  -5   2  -4   71.29    5.03
   5  -2   4   74.74    6.86
  -5   2  -4   77.35    7.27
   5  -2   4   90.76    6.20
   1  -5  -4   37.72    5.11
   1  -5  -4   37.02    3.09
  -1   5   4   39.91    3.56
  -1   5   4   28.80    4.13
   4  -3   6  107.45    7.09
  -4   3  -6  114.76    9.83
   4  -3   6   94.63    8.08
  -1   5  -6   70.32    5.86
   1  -5   6   57.38    5.74
   1  -5   6   66.77    4.80
   1  -5   6   67.31    4.31
   3  -5  -4   63.77    4.60
  -3   5   4   67.47    4.97
  -4   5  -3   52.73    6.02
   4  -5   3   37.21    4.79
   4  -5   3   57.26    4.25
   5   1  -4   78.07    5.39
  -5  -1   4   74.85    5.24
   5   1  -4   67.84    7.01
  -5  -1   4   74.07    7.29
  -5   4   3  128.00   10.23
  -5   4   3  137.83    8.92
   5  -4  -3  121.88    9.81
  -2  -4   6   40.22    4.17
  -2  -4   6   35.00    2.97
  -2  -4   6   35.32    3.14
  -2  -4   6   28.18    4.90
  -5   1   6    1.57    1.57
   5  -1  -6    1.31    1.75
  -5   1   6    0.40    4.00
  -5   1   6    1.75    2.11
  -5   0  -3  172.13   13.18
   5   0   3  135.61    8.62
  -5   0  -3  139.21    8.88
  -2  -4  -3   25.83    4.19
   2   4   3   29.81    4.72
   2   4   3   37.30    3.12
   0  -3   9   89.30    7.15
   0  -3   9  117.77    7.57
   0   3  -9  122.60    7.41
  -5  -1  -1   99.74    6.70
  -5  -1  -1  111.72    9.75
   5   1   1   89.41    5.99
  -3   0   9   75.84    5.98
  -3   0   9   84.37    6.16
   3   0  -9   87.62    5.71
  -3   0   9   73.16    7.53
  -3   5  -5   39.50    5.02
   3  -5   5   46.10    3.73
  -3   5  -5   46.12    3.97
   3  -5   5   33.31    5.07
   2   2  -9   -0.21    1.07
  -2  -2   9    0.53    1.61
   2   2  -9    0.58    2.39
   1   2   8   51.42    4.32
  -1  -2  -8   56.68    3.75
  -1  -2  -8   66.44    7.13
   1   2   8   52.61    6.32
  -2  -3   8    7.59    1.77
  -2  -3   8    4.81    5.71
  -2  -3   8    5.70    2.49
   2   3  -8    8.65    1.24
  -4  -2   6   37.52    5.70
  -4  -2   6   35.21    3.13
   4   2  -6   40.76    3.15
  -5   3   5   20.95    2.52
  -5   3   5   22.36    2.74
  -5   3   5   20.53    4.64
   2   2   7   18.63    4.57
  -2  -2  -7   16.36    4.86
  -2  -2  -7   21.98    1.78
   2   2   7   18.57    2.35
  -3  -2   8   15.00    2.48
  -3  -2   8   15.68    4.51
   3   2  -8   19.44    1.97
  -2   3   8   55.61    4.44
   2  -3  -8   53.95    3.95
   2  -3  -8   56.82    5.20
  -2   3   8   48.57    6.17
  -2  -1  -8  151.34    8.98
   2   1   8  138.54    8.90
  -2  -1  -8  123.26    9.99
   2   1   8  109.09   10.10
   5  -1   4   10.53    1.99
  -5   1  -4    7.78    1.69
   5  -1   4    9.21    3.64
   4   2   3  154.98   11.77
   4   2   3  196.73   11.86
   4   2   3  160.07   10.08
  -4  -2  -3  209.21   15.71
   1  -4   8   28.89    2.34
   1  -4   8   31.86    2.94
   1  -4   8   26.92    4.70
  -1   4  -8   35.32    4.78
   2  -5   6   -0.44    1.38
   2  -5   6    2.10    3.13
  -2   5  -6    1.22    2.99
   2  -5   6    0.74    0.99
  -1   3   8    4.32    1.98
  -1   3   8    3.12    4.30
   1  -3  -8    3.89    3.55
   1  -3  -8    3.97    1.13
   5  -3   4   33.89    3.04
   5  -3   4   28.50    4.70
  -5   3  -4   33.08    3.18
  -5   3  -4   28.16    4.71
   0   4   6   27.33    4.42
   0  -4  -6   28.43    5.10
   0   4   6   37.24    3.39
   0  -4  -6   32.09    2.60
  -4   1   8   57.78    4.66
   4  -1  -8   57.32    4.11
  -4   1   8   59.59    5.12
  -4   1   8   55.81    6.56
  -1   2   9   69.31    5.48
   1  -2  -9   78.22    7.16
  -1   2   9   64.50    8.07
   1  -2  -9   70.16    4.66
  -3   1   9   42.53    3.78
   3  -1  -9   36.16    3.83
  -3   1   9   42.33    4.82
   0  -4   8  121.09    8.00
   0   4  -8  134.55    9.80
   0  -4   8   91.06    7.10
   0  -4   8  122.19    7.69
   1  -3   9   -0.44    3.91
   1  -3   9   -0.68    1.41
  -1   3  -9    2.50    3.83
   3  -2   8   37.41    3.30
   3  -2   8   28.51    5.26
  -4   5   3   73.05    5.35
   4  -5  -3   76.16    5.36
   5  -2  -6  280.44   16.76
  -5   2   6  327.39   26.81
  -5   2   6  303.41   20.47
  -5   2   6  294.77   18.05
   1   4   5   70.18    5.16
   1   4   5   51.03    5.77
  -1  -4  -5   62.10    6.68
  -1  -4  -5   75.03    4.84
   0  -5   6    9.83    2.94
   0  -5   6    9.89    1.83
   0  -5   6   10.22    4.48
   0  -5   6    9.56    1.31
  -3  -4   2   35.94    5.03
   3   4  -2   31.06    5.63
  -2   2   9   32.34    5.30
   2  -2  -9   35.90    4.20
  -4   0   8    4.15    2.33
   4   0  -8    2.91    1.46
  -4   0   8    5.53    4.02
  -4   0   8    1.92    1.89
  -2   1  -9    0.84    4.79
   2  -1   9    0.66    1.56
   2  -1   9   -0.65    1.41
   2  -6   1   31.71    2.88
   2  -6   1   19.94    3.65
  -2   6  -1   29.27    2.82
   3  -1   8   89.18    5.86
   3  -1   8   89.04    6.13
  -3   1  -8   87.47    8.26
   4   3  -2   58.50    6.39
  -4  -3   2   55.97    6.05
   3   4  -1    1.15    4.24
  -3  -4   1   -1.25    3.65
   1   0 -10    5.68    3.03
  -1   0  10    1.50    4.48
  -1   0  10    2.76    2.34
   1   1 -10   53.96    5.43
  -1  -1  10   63.43    4.95
   0   1 -10    0.40    3.53
   0  -1  10   -0.26    1.60
  -1  -1  -9    3.11    0.99
  -1  -1  -9   -0.59    3.89
   1   1   9    1.41    4.56
   1   1   9    3.71    1.92
   4   3  -1   23.79    4.66
  -4  -3   1   30.46    4.68
  -5   4  -3    8.20    4.44
  -5   4  -3   -0.44    1.90
   5  -4   3    0.35    3.53
   4   0   6   79.10    5.74
  -4   0  -6   90.33    8.27
   4   0   6   74.24    5.10
   2  -6   0   94.47    6.27
  -2   6   0   81.00    5.56
   5   0  -6   28.39    2.78
  -5   0   6   23.03    4.47
  -5   0   6   29.35    3.37
  -5   0   6   28.92    2.91
  -2   6  -2   28.25    2.80
   2  -6   2   23.72    4.21
   2  -6   2   34.88    3.05
  -4  -1  -5    1.57    4.23
   4   1   5    1.49    1.48
   4   1   5   -0.29    1.03
  -4   3   7    0.61    3.82
  -4   3   7   -0.73    2.44
  -4   3   7    2.20    1.97
   3   4  -3   48.94    6.19
  -3  -4   3   56.31    4.23
  -3  -4   3   36.28    4.68
   1   5   2    8.38    3.63
  -1  -5  -2   10.23    3.94
   1   5   2    9.40    1.58
  -1  -5   5    1.39    0.92
  -1  -5   5    1.76    2.35
  -1  -5   5    1.40    1.48
  -1  -5   5   -0.88    3.28
   4   3  -3   74.74    4.79
  -4  -3   3   67.12    4.71
  -4  -3   3   68.98    6.84
   3  -4   7    1.98    4.12
   3  -4   7    1.73    1.01
  -3   4  -7    4.38    4.19
   1   3  -9   47.16    3.20
  -1  -3   9   42.71    3.44
   1   3   7    9.34    4.06
  -1  -3  -7   14.32    4.95
   1   3   7   15.51    2.56
  -1  -3  -7   14.76    1.49
  -1   6  -1    3.23    1.48
   1  -6   1    2.62    2.90
   1  -6   1    3.54    1.33
  -3  -1   9    0.36    1.91
   3   1  -9    1.15    1.21
   0   0 -10  237.17   16.35
  -1   6  -2    8.05    1.67
   1  -6   2    6.85    3.09
   1  -6   2    7.83    2.79
   1  -6   2    8.47    1.61
   6  -2  -1   62.27    6.74
  -6   2   1   54.72    5.79
   6  -2  -1   51.73    3.86
  -6   2   1   62.32    4.63
   3   4   0    4.71    4.43
  -3  -4   0   -0.65    3.70
   3   1   7   23.64    2.57
  -3  -1  -7   27.04    4.74
   3   1   7   22.25    2.23
   5   1  -5   54.84    4.12
  -5  -1   5   53.09    4.01
  -3  -3   7   91.67   12.11
  -3  -3   7   81.88    5.81
   3   3  -7   80.99    9.17
  -6   2   2   28.68    2.92
   6  -2  -2   30.24    5.18
   6  -2  -2   26.79    2.76
  -6   2   2   38.73    6.55
   1  -6   0   11.92    3.30
   1  -6   0   19.81    2.07
  -1   6   0   19.38    2.23
  -4  -3   0    9.52    4.35
   4   3   0   10.92    3.84
  -2   4   7   25.18    3.01
   2  -4  -7   23.34    3.44
  -2   4   7   19.46    4.51
   2  -4  -7   22.64    2.31
   6  -2   0  110.85   13.98
   6  -2   0  103.58   11.83
  -6   2   0   98.60   11.32
  -6   2   0  103.94   12.99
  -5   4   4  165.21   19.98
  -5   4   4  204.34   22.86
  -5  -1  -2    1.85    4.10
   5   1   2    2.25    0.96
  -2   5   5   41.39    5.32
   2  -5  -5   37.50    4.71
  -2   5   5   25.36    4.12
   2  -5  -5   30.49    3.37
   4  -5   4   19.27    3.73
  -4   5  -4   30.74    4.98
   3  -3  -8   77.83    9.39
  -3   3   8   69.34    9.27
   3   3   4   29.15    5.01
   3   3   4   38.30    4.85
   3   3   4   34.53    4.59
  -3  -3  -4   38.40    6.67
  -2   6   1  139.28   15.76
   2  -6  -1  135.16   15.20
  -2   6  -3   17.56    2.25
   2  -6   3   18.56    4.57
   2  -6   3   16.42    2.08
   2  -6   3   12.86    4.14
  -4   2   8   20.45    3.51
  -4   2   8   20.78    2.67
  -4   2   8   26.17    5.17
   2  -4   8   24.14    5.34
   2  -4   8   42.68    5.02
  -2   4  -8   35.31    6.18
   3  -6   1  103.71   11.85
  -3   6  -1   95.78   11.01
   0   5   4   26.09    4.27
   0  -5  -4   34.68    6.17
   0   5   4   39.45    5.05
   0  -5  -4   39.37    4.78
   0  -2  -9   87.22    9.82
   0   2   9   78.94    9.51
   0  -2  -9   84.15   11.01
   0   2   9   83.68   11.42
  -2   0  10   33.84    5.43
  -2   0  10   41.38    5.62
   2   0 -10   35.64    5.27
  -6   1   1   31.76    4.22
   6  -1  -1   26.40    2.57
   6  -1  -1   26.99    4.50
  -6   1   1   38.81    6.75
  -3  -4   4   73.74   10.04
  -3  -4   4   87.39   10.02
   3   4  -4   80.00   10.55
   0  -2  10   17.71    2.29
   0   2 -10   12.29    3.53
  -3   6   0   43.16    5.45
   3  -6   0   45.65    5.61
   3  -3   8    2.17    3.54
  -3   3  -8    0.68    4.12
   3  -3   8    0.89    1.15
   1  -6   3   35.59    4.51
   1  -6   3   25.33    4.59
   1  -6   3   27.40    3.84
  -1   6  -3   35.10    4.57
   6  -1  -2   17.15    4.80
   6  -1  -2   17.02    2.14
  -6   1   2   25.75    5.17
  -6   1   2   18.50    2.33
  -4  -3   4   40.91    5.01
  -4  -3   4   32.84    5.62
   4   3  -4   39.06    4.58
  -4   4   6   25.11    3.96
  -4   4   6   17.79    4.17
  -2  -3  -6  132.78   16.49
  -2  -3  -6  156.10   17.25
   2   3   6  117.94   15.01
   2   3   6  154.14   17.70
  -2   0  -9   29.34    2.39
   2   0   9   29.25    3.05
  -2   0  -9   30.95    5.52
   4  -2   7   57.04    6.59
  -4   2  -7   62.13    9.09
   4  -2   7   68.00    8.07
  -1   4   7   72.47    9.68
  -1   4   7  125.16   14.40
   1  -4  -7  111.07   13.55
   1  -4  -7  118.06   13.27
   0  -3  -8   35.73    4.32
   0   3   8   32.30    4.58
   0  -3  -8   31.45    4.45
   0   3   8   26.39    4.97
   3   2   6   13.11    1.92
   3   2   6   14.94    2.24
  -3  -2  -6   14.15    4.53
   3   2   6   14.19    3.94
   3  -6   2   20.35    4.06
   3  -6   2   23.21    2.53
  -3   6  -2   22.58    2.55
  -1  -4   8    4.00    4.83
  -1  -4   8    5.42    3.05
  -1  -4   8    7.70    2.05
  -1  -4   8    6.41    1.45
  -5   2  -5  196.47   23.40
  -5   2  -5  181.61   20.40
   5  -2   5  208.89   23.31
   6  -1   0   13.80    1.99
  -6   1   0   15.56    2.19
  -6   1   0   11.86    4.33
  -6   2   3  106.77   13.28
   6  -2  -3  115.57   14.75
  -6   2   3  109.00   12.46
   6  -2  -3  103.48   11.81
  -4   4  -6   32.09    6.53
   4  -4   6   28.10    4.88
  -4   4  -6   38.55    5.10
  -6   3   1   20.72    2.67
  -6   3   1   23.43    4.61
   6  -3  -1   22.89    4.69
   1  -1 -10   15.15    3.34
  -1   1  10   17.90    5.41
   1   2 -10   30.19    4.31
  -1  -2  10   32.34    4.33
  -2  -1  10   40.15    5.36
   2   1 -10   40.30    5.90
   1  -5  -5    6.29    1.46
  -1   5   5    4.88    1.76
   1  -5  -5    4.25    3.28
  -1   5   5    5.89    3.32
  -6   2  -1  156.63   18.91
   6  -2   1  133.97   16.28
   6  -2   1  132.80   15.04
  -6   2  -1  122.89   13.97
   4   1  -8   36.88    4.47
  -4  -1   8   41.05    5.27
   1  -6  -1   11.81    1.74
  -1   6   1   11.90    1.89
  -3   5   5   32.53    6.44
  -1   1 -10  134.87   16.38
   3  -2  -9    8.89    2.77
  -3   2   9    2.67    3.58
  -3   2   9    6.53    2.00
  -4   5   4   -1.08    1.84
  -4   5   4    2.60    4.20
  -4   5   4    0.54    3.18
   5   0   4   48.92    6.12
   5   0   4   50.40    6.05
  -5   0  -4   54.71    7.95
   3   0   8   -0.75    1.36
  -3   0  -8   -0.88    4.13
   3   0   8    0.32    1.43
  -6   3   0   -0.37    4.00
   6  -3   0   -0.87    3.86
  -6   3   0    0.49    1.80
   1  -5   7   47.77    6.90
  -1   5  -7   60.65    7.93
   1  -5   7   58.78    7.06
   1  -5   7   56.86    6.51
   2   4  -7   59.96    6.80
  -2  -4   7   49.21    7.92
  -2  -4   7   57.68    7.46
  -2  -4   7   52.38    6.28
  -3   6   1    7.94    2.00
   3  -6  -1    8.61    1.77
  -3  -4  -1   -1.00    3.82
   3   4   1    2.89    3.91
   6  -1  -3   -3.16    3.74
  -6   1   3    0.58    1.29
   6  -1  -3   -0.10    1.12
  -6   1   3    1.39    4.25
  -2  -4  -4   43.07    7.02
   2   4   4   29.40    4.41
   2   4   4   47.36    5.86
   2  -3   9   54.67    6.39
  -2   3  -9   52.55    7.58
  -5   5   0   -0.19    1.71
  -5   5   0   -1.69    3.65
   2   5  -2   13.57    3.65
  -2  -5   2   13.22    3.99
   4  -1   7    6.29    2.00
  -4   1  -7    7.92    4.80
   4  -1   7    5.64    1.35
  -3   5  -6   76.21   10.00
   3  -5   6   85.77    9.61
   3  -5   6   47.66    7.35
  -3   4   7   23.18    4.41
  -3   4   7   35.06    4.78
   6  -3  -2   71.59    9.66
  -6   3   2   84.21   10.85
  -6   3   2   75.90    8.88
  -4  -2   7   53.46    8.29
  -4  -2   7   62.24    7.45
   4   2  -7   66.66    7.72
  -5   3   6   48.14    6.18
  -5   3   6   44.43    5.63
  -5   3   6   45.77    7.05
  -4  -3  -1   -0.57    3.87
   2   5  -1    0.96    4.02
  -2  -5   1    0.16    3.75
  -5   1   7    1.82    1.82
  -5   1   7   -1.81    3.48
   5  -1  -7    1.41    1.47
  -5   1   7    1.94    2.17
   5  -4   4    1.34    3.58
  -5   4  -4    1.26    1.97
  -5   4  -4   -2.24    3.95
  -5   5   1    2.94    3.49
  -5   5   1    0.69    1.75
   4   2   4   70.48    8.31
  -4  -2  -4   80.02   10.94
   4   2   4   52.17    6.16
   2  -1 -10   11.72    3.39
  -2   1  10    9.01    4.24
  -2   1  10    5.61    2.62
  -5   5  -1    1.98    3.85
  -5   5  -1    0.69    1.79
  -2   6   2  137.01   15.50
   2  -6  -2  117.49   13.28
   5  -3   5    0.30    3.96
  -5   3  -5    4.87    2.04
  -5   3  -5    5.81    4.30
   1  -2  10   34.88    4.40
  -1   2 -10   32.77    5.85
  -2  -5   3   20.32    4.46
  -2  -5   3   30.65    3.42
  -5  -2   2   75.43   10.08
  -5  -2   2   66.09    7.76
   5   2  -2   63.36    7.46
   2  -6   4    0.80    3.52
   2  -6   4    0.30    3.55
  -2   6  -4    2.82    1.49
   2  -6   4    0.95    1.31
   5  -1   5    1.63    0.86
   5  -1   5    2.35    1.70
  -4   3  -7   77.49   10.19
   4  -3   7   62.92    8.79
   1   5   3   23.38    4.27
  -1  -5  -3   28.15    4.82
   1   5   3   34.07    4.34
  -1  -5   6   27.56    2.80
  -1  -5   6   15.90    4.72
  -1  -5   6   26.69    2.45
  -1  -5   6   28.99    3.83
   1  -6   4  293.92   33.20
   1  -6   4  426.34    7.31
   1  -6   4  404.69    5.03
   1  -6   4  317.80   37.02
  -3   6  -3   55.21    6.89
   3  -6   3   58.58    6.95
  -3   6  -3   58.40    6.97
  -6   3  -1    7.22    1.93
   6  -3   1    8.35    3.91
  -6   3  -1    8.16    4.31
   5   2  -1   86.64   10.03
  -5  -2   1   93.71   10.81
  -5  -2   1   93.85   12.06
   6  -1   1  239.50   26.63
  -6   1  -1  231.20   25.79
  -6   1  -1  281.36   32.94
   0  -6   1   37.36    5.86
   0   6  -1   62.59    7.40
   0  -6   2   37.70    4.69
   0  -6   2   22.49    4.17
   0  -6   2   36.95    4.91
  -3  -4   5  176.17   19.71
  -3  -4   5  137.35   17.02
   0  -5   7   23.27    2.73
   0  -5   7   23.30    5.67
   0  -5   7   19.23    3.65
   0  -5   7   23.50    2.25
   2  -5   7    0.07    0.82
   2  -5   7   -3.08    4.14
  -2   5  -7    2.35    3.18
   0   1  10    9.95    2.36
   0  -1 -10   11.46    3.98
  -4  -3   5   15.63    4.20
   4   3  -5   16.73    1.69
  -4  -3   5   15.20    1.95
  -5  -2   3   48.85    7.30
   5   2  -3   60.10    7.08
  -5  -2   3   56.56    6.72
  -2  -5   0   12.40    3.76
   2   5   0   16.05    4.46
   1   0  10   15.08    2.53
  -1   0 -10    9.12    4.65
   5   1  -6   42.11    5.13
  -5  -1   6   43.67    5.43
  -5   2   7  230.45   25.77
  -5   2   7  209.97   23.68
  -5   2   7  197.87   24.26
  -6   2   4   99.05   11.41
   6  -2  -4   98.01   11.21
   6  -2  -4  101.49   13.17
  -6   2   4  113.32   14.40
  -6   3   3   74.73    9.97
   6  -3  -3   67.08    9.26
  -6   3   3   67.62    8.05
  -5   5   2   36.03    4.79
  -5   5   2   22.85    4.08
  -5   0   7  126.05   14.40
   5   0  -7  117.49   13.27
  -5   0   7  110.92   14.05
   3  -6  -2   28.64    2.82
  -3   6   2   25.90    2.82
  -5  -1  -3    0.26    4.52
   5   1   3    1.01    1.10
   5   1   3    0.73    0.95
   6  -1  -4   22.66    2.00
  -6   1   4   23.64    2.31
  -6   1   4   19.74    4.11
   6  -1  -4   30.22    6.71
  -6   2  -2    4.74    1.93
  -6   2  -2    6.70    4.49
   6  -2   2    5.71    3.39
   6  -2   2    5.15    1.69
  -5   5  -2    9.16    2.18
  -5   5  -2    9.94    4.49
   5  -5   2    7.23    3.19
  -5   4   5  141.13   16.17
  -5   4   5  123.21   17.87
  -5   4   5   92.79   12.15
   0   6   0   63.74    9.45
   0  -6   0   41.58    7.38
   0  -6   3   20.88    2.81
   0  -6   3   20.77    1.19
   0  -6   3   13.06    3.66
   0  -6   3   22.93    2.01
  -4   5  -5    2.32    4.10
   4  -5   5    1.46    3.69
  -1   6   2   17.86    1.90
   1  -6  -2   16.84    1.73
  -5  -2   0   13.55    4.42
   5   2   0   15.29    1.82
  -2  -3   9    1.95    1.81
   2   3  -9    1.70    0.89
  -2  -3   9    1.23    4.60
  -2  -5   4   41.63    6.27
  -2  -5   4   25.46    4.17
  -2  -5   4   51.78    8.09
  -3  -2   9   41.56    8.21
   3   2  -9   46.77    6.90
  -3  -2   9   43.65    6.82
  -6   0   2   51.68    9.13
  -6   0   2   62.94    9.36
   6   0  -2   53.01    7.94
  -6   0   1   49.30    7.47
   6   0  -1   45.96    6.91
  -1  -4  -6   78.43   11.31
  -1  -4  -6   63.94   11.15
   1   4   6   71.85   10.73
   1   4   6   48.15    8.24
   3   4   2   29.92    6.45
  -3  -4  -2   29.69    6.48
   0  -4  -7   17.60    4.93
   0  -4  -7   18.49    1.56
   0   4   7   15.09    3.92
   0   4   7   19.26    2.29
  -5  -2   4   20.27    1.75
   5   2  -4   23.20    1.86
  -5  -2   4   26.93    4.51
   1  -4   9   38.08    5.74
  -1   4  -9   29.55    5.81
  -6   3  -2    4.19    4.37
  -6   3  -2    3.80    2.06
   6  -3   2    1.57    3.65
   0  -4   9   32.79    5.04
   0   4  -9   30.30    5.84
  -4   1   9   24.79    5.28
  -4   1   9   14.47    2.62
  -4   1   9   18.55    2.55
  -4  -3  -2   -2.03    4.50
   6   0  -3   26.22    2.02
  -6   0   3   35.03    7.20
  -6   0   3   33.46    5.24
  -2  -2  10    8.43    2.30
   2   2 -10    7.77    3.27
  -4  -1  -6    9.47    5.10
   4   1   6   11.09    1.96
   4   1   6   10.89    1.50
  -4   0   9   40.97    6.55
  -4   0   9   40.86    8.39
  -4   6   0   11.81    2.36
   6   0   0    4.38    1.33
  -6   0   0    4.17    1.50
   0  -3  10   58.52    8.70
  -4   6  -1   27.28    2.72
  -4   6  -1   23.63    2.49
   3   0 -10   46.80    7.57
  -3   0  10   45.09    7.21
  -3   6  -4   29.48    4.88
  -3   6  -4   25.81    2.77
  -2  -5  -1    5.79    3.39
   2   5   1    7.37    4.07
  -2  -2  -8   21.49    1.27
   2   2   8   19.01    2.26
  -2  -2  -8   20.40    5.46
   3   3  -8   52.76    7.70
  -3  -3   8   43.40    6.68
  -3  -3   8   45.80    8.83
   6  -1   2   18.68    1.95
  -6   1  -2   18.58    5.18
  -6   1  -2   17.32    2.02
  -4   3   8    2.07    2.03
  -4   3   8    2.34    2.79
  -4   3   8    3.97    4.12
  -2   3   9   73.37   12.32
   2  -3  -9   73.41   11.40
  -2   3   9   79.23   11.82
   2  -6  -3   12.10    1.63
  -2   6   3   14.92    1.84
  -3  -3  -5    3.23    3.85
   3   3   5    0.51    3.44
   3   3   5    2.17    1.70
   3   3   5    2.08    1.30
   0  -5  -5   51.61    7.61
   0   5   5   54.95    8.35
   0  -5  -5   39.41    7.56
   0   5   5   34.96    6.71
   4   0   7  140.38   20.13
  -4   0  -7  164.15   24.52
   4   0   7  149.73   21.61
   0   6   1   59.69    8.89
   0   6   1   39.31    7.19
   0  -6  -1   37.14    6.70
  -2   5   6   79.61   11.77
   2  -5  -6   72.10   10.59
  -2   5   6   46.55    7.98
   1  -6   5  189.59    3.34
   1  -6   5  119.99   18.81
   1  -6   5  143.41   21.11
   1  -6   5  210.20    5.15
   0  -6   4   20.84    2.91
   0  -6   4   15.74    4.19
   0  -6   4   27.54    2.14
   0  -6   4   21.51    1.32
   1   2   9    0.74    1.70
   1   2   9    1.24    4.45
  -1  -2  -9    2.75    4.84
  -1  -2  -9    0.90    0.80
  -5   5   3   25.97    3.86
  -5   5   3   44.94    7.04
  -2   6  -5    7.61    2.19
   2  -6   5    5.73    3.92
   2  -6   5   10.98    1.89
   3  -4   8   34.24    6.84
   3  -4   8   48.34    7.06
  -3   4  -8   50.48    8.82
  -4   5   5    3.88    1.90
  -4   5   5    3.27    2.98
  -4   5   5   -7.58    2.29
  -6   4   1   64.52    9.63
   6  -4  -1   59.49    9.82
  -6   4   1   64.23   10.36
   6  -3  -4   48.20    8.63
  -6   3   4   58.89    9.87
  -6   3   4   58.42    8.81
   6  -4   0   15.18    3.44
  -6   4   0   17.34    2.16
  -6   4   0   15.20    4.08
  -2  -1  -9   15.24    4.58
   2   1   9   16.98    2.15
  -2  -1  -9   17.37    1.25
   1  -3  -9   13.02    4.16
  -1   3   9    5.75    4.54
  -1   3   9    9.99    2.20
  -4   6   1   15.67    2.40
   5  -5   3   43.96    7.63
  -5   5  -3   66.91   10.04
  -5   5  -3   47.13    8.45
   5   2   1   27.07    1.54
   5   2   1   28.67    2.17
  -5  -2  -1   33.73    6.75
   3  -2   9   31.16    4.84
  -4   6  -2    1.71    2.19
  -4   6  -2    3.21    2.13
  -3   1  10   70.05   11.08
   3  -1 -10   69.03   10.70
  -3   1  10   55.83    8.57
   1  -3  10    9.59    1.84
  -3  -4   6   32.51    6.73
   3   4  -6   45.45    6.66
  -3  -4   6   46.55    7.11
   6  -2  -5   25.71    4.54
  -6   2   5   27.90    2.35
  -6   2   5   31.89    6.63
  -4  -3   6    6.99    1.57
   4   3  -6    8.40    1.17
  -4  -3   6    9.29    4.81
  -5   4  -5   66.45    9.88
   5  -4   5   50.08    8.47
  -5   4  -5   64.51   11.19
  -3   6   3   20.05    2.39
   3  -6  -3   17.39    1.68
  -2  -5   5   73.32   11.10
  -2  -5   5   41.34    7.64
  -2  -5   5   66.17    9.71
  -4   4   7  120.53   18.23
  -4   4   7  112.63   18.22
   6  -1  -5   37.03    5.82
  -6   1   5   28.70    4.45
  -6   1   5   32.30    5.18
  -3   1  -9   46.91    8.32
   3  -1   9   51.05    7.67
  -6   4   2   28.35    4.32
   6  -4  -2   31.61    6.19
  -6   4   2   30.53    5.10
   6   0  -4   22.51    2.21
  -6   0   4   13.95    1.67
  -6   0   4   19.04    4.25
  -5   0  -5    0.66    4.02
   5   0   5    0.76    0.86
   5   0   5    0.18    1.40
   1  -2 -10  172.48    8.52
  -1   2  10  135.25   21.11
  -1   2  10  142.86   21.03
   6  -4   1   42.01    7.46
  -6   4  -1   49.57    7.57
  -6   4  -1   47.40    8.51
  -5   2  -6   98.13   15.33
   5  -2   6   92.74   13.40
  -3   5   6   40.28    6.31
  -3   5   6   28.96    4.28
  -3   5   6   22.38    3.64
  -1  -3  10   -0.95    1.46
   2  -2 -10   23.85    3.62
  -2   2  10   19.60    4.88
   1   3   8   10.34    2.08
  -1  -3  -8   13.45    1.22
   1   3   8    7.75    4.31
  -1  -3  -8   11.52    5.18
  -6   2  -3    4.35    1.85
   6  -2   3    5.39    1.70
  -6   2  -3    6.52    4.34
  -3  -1  10   10.47    2.33
  -6   0  -1   50.19    7.61
   6   0   1   52.89    7.92
   2   4  -8   84.22   12.09
  -2  -4   8   66.72   11.44
  -2  -4   8   59.74    8.89
  -4   4  -7    1.61    4.36
   4  -4   7    3.29    1.13
   4  -4   7    4.34    3.98
   2   4   5    1.23    3.34
   2   4   5    3.11    1.37
  -2  -4  -5    3.94    3.66
   1   5   4   50.88    7.71
   1   5   4   33.48    6.41
  -1  -5  -4   53.63    9.38
   5   2  -5   38.30    5.80
  -5  -2   5   41.92    6.40
  -5  -2   5   30.46    6.30
   2  -1  10   67.48    9.98
  -2   1 -10   61.67   10.35
  -1  -5   7    7.12    1.67
  -1  -5   7    7.59    4.81
  -1  -5   7    5.31    2.80
  -1  -5   7    5.94    1.39
  -2   4   8    3.12    3.76
  -2   4   8    1.88    2.07
   2  -4  -8    4.31    2.61
  -1   5   6    2.52    1.79
  -1   5   6    2.78    3.36
   1  -5  -6    0.11    3.24
   1  -5  -6    1.35    1.21
   1  -6  -3   19.62    1.80
  -1   6   3   19.19    3.52
  -1   6   3   21.60    2.18
  -3   5  -7   17.78    3.84
   3  -5   7   15.81    3.97
   3  -5   7   24.95    1.45
  -5   3   7  152.24   22.20
  -5   3   7  146.46   22.73
  -5   3   7  167.16    5.22
  -4  -2   8  115.46   18.00
   4   2  -8  144.53   20.71
  -4  -2   8  130.33   18.90
  -3  -1  -8   20.20    4.79
   3   1   8   17.45    2.01
   3   1   8   15.06    2.01
   1  -5   8   21.02    3.71
  -1   5  -8   31.59    5.74
   1  -5   8   34.88    5.22
  -4   2   9  123.62   18.01
  -4   2   9  121.79   19.20
  -4   2   9  130.21   19.33
  -1  -1  11   70.05   10.57
   1   1 -11   68.99   10.95
  -2   4  -9   54.34    9.45
   2  -4   9   56.00    8.19
  -1  -4   9   29.30    4.72
  -1  -4   9   35.11    5.60
  -4  -2  -5   64.36   10.76
   4   2   5   64.38    9.48
   4   2   5   79.09   11.68
  -3   3   9   60.95   10.25
   3  -3  -9   55.47    8.72
  -1  -1 -10    0.71    4.60
   1   1  10    1.28    1.87
  -4   6   2   62.14    9.33
  -2  -3  -7   13.89    4.47
   2   3   7   17.27    2.32
   2   3   7   16.04    4.58
  -5  -1   7   29.77    4.86
   5   1  -7   27.09    1.88
  -1   0  11   10.43    2.91
   1   0 -11    7.21    3.09
  -6   3  -3  175.45    4.71
  -6   3  -3  160.97   24.04
   6  -3   3  136.63   20.61
   0  -1  11    1.67    1.98
   0   1 -11    4.11    3.52
  -5   1   8    8.36    4.85
  -5   1   8    8.23    2.21
   5  -3   6   16.58    1.35
  -5   3  -6   21.17    5.72
  -4   6  -3   45.84    7.14
  -4   6  -3   40.22    6.80
  -4  -1   9  142.65   20.66
   3   2   7   99.16   14.52
  -3  -2  -7  148.77   22.54
   3   2   7  106.81   15.57
   4  -2   8   22.32    1.65
  -2  -5  -2   11.78    4.12
   2   5   2   15.73    4.31
   5   1   4   15.97    1.38
   5   1   4   17.60    2.71
  -5  -1  -4   18.76    5.82
   3  -3   9    9.23    1.57
  -3   3  -9   11.18    4.43
   0   6   2   59.61    8.86
   0   6   2   38.45    7.03
   0  -6  -2   44.54    7.79
  -1   4   8  184.29    6.13
  -1   4   8  115.09   17.91
   1  -4  -8  175.10    3.89
   1  -4  -8  181.94    8.31
   0  -6   5   -1.06    4.35
   0  -6   5    1.48    0.96
   0  -6   5    1.01    1.44
   0  -6   5   -2.53    2.37
  -6   4   3    1.80    2.10
  -6   4   3    2.01    3.26
  -5   4   6   16.97    2.74
  -5   4   6   20.50    3.27
  -5   4   6   16.30    3.91
   5  -1   6   16.52    1.47
   5  -1   6   14.71    1.92
   3   4   3   20.99    5.05
  -3  -4  -3   17.65    4.55
   0  -5   8    4.10    1.82
   0  -5   8    2.90    1.31
   0  -5   8    3.09    3.28
   0   5  -8    3.12    3.09
  -3   6  -5   17.03    3.13
  -3   6  -5   16.79    2.23
  -6   4  -2   68.00    8.22
   6  -4   2   63.16    8.73
  -6   4  -2   59.02    8.35
  -4   5  -6    8.41    2.04
  -4   5  -6    9.72    4.80
   4  -5   6    2.97    4.00
  -4  -3  -3   -2.20    4.45
   4   3   3    1.94    2.27
   4   3   3    1.22    1.51
   6  -1   3    0.93    1.50
  -6   1  -3    0.27    3.82
  -6   1  -3    1.97    1.73
  -3   4   8   13.60    4.11
   3  -4  -8   17.74    3.22
  -3   4   8   17.93    3.14
  -5   5   4   67.98    8.60
  -5   5   4   41.04    6.24
   0   0 -11  112.24   14.19
  -5  -2  -2    3.83    4.43
   5   2   2    6.12    1.41
   5   2   2    6.54    1.08
  -5   0   8  149.06   18.82
  -5   0   8  190.41    5.33
   2  -5   8   19.19    2.54
   2  -5   8    9.56    3.76
  -2   5  -8   18.58    4.63
  -6   3   5   13.77    2.38
  -6   3   5   12.25    2.36
  -6   3   5    9.82    4.04
  -1  -6   2    1.31    1.81
  -1  -6   2   -0.22    3.42
  -5   5  -4   46.17    5.90
   5  -5   4   34.11    5.83
  -5   5  -4   37.18    6.75
   0   3   9   -0.04    2.01
   0  -3  -9    4.46    4.26
   0  -3  -9    2.61    1.13
   0   3   9   -0.94    4.37
   4  -1   8    0.87    1.43
  -4   1  -8   -0.24    4.18
  -5   2   8    5.33    2.26
  -5   2   8    7.55    4.19
  -5   2   8    1.58    2.02
  -6   0   5   82.39   11.28
   6   0  -5   77.98    9.22
  -6   0   5   79.03    9.37
  -1  -6   1    1.34    3.21
   0   2  10   16.34    2.86
   0  -2 -10   19.32    5.04
   2   0 -11   24.26    4.25
  -2   0  11   19.47    3.60
   1  -6   6   15.07    1.14
   1  -6   6   10.36    4.50
   1  -6   6   14.49    3.42
   1  -6   6   17.31    2.04
   2  -6  -4   14.17    1.78
  -2   6   4   14.49    1.98
   0   2 -11   39.02    6.49
   0  -2  11   49.68    6.21
  -4   3  -8   30.51    6.64
  -6   0  -2    7.30    1.70
   6   0   2    5.26    1.40
   2   0  10   47.39    6.03
  -2   0 -10   50.89    8.28
  -3   2  10    2.33    2.07
   3  -2 -10    2.05    2.62
  -3   2  10    2.17    3.15
   2  -6   6   16.11    1.35
   2  -6   6    7.32    3.74
  -2   6  -6   16.04    2.92
  -1  -6   3   16.77    2.29
  -1  -6   3    9.79    3.83
  -3   0  -9   65.83    9.76
   3   0   9   73.51    8.76
  -2  -5   6   38.14    4.78
  -2  -5   6   33.28    6.63
  -2   3 -10   80.08   10.75
   2  -3  10  113.20   12.99
  -2  -1  11   32.28    4.72
   2   1 -11   30.83    5.10
   1   2 -11   30.04    5.05
  -1  -2  11   36.27    4.82
  -3   6   4   30.35    4.30
  -6   1   6   33.22    4.51
  -6   1   6   28.81    5.47
  -6  -1   2   13.75    4.29
  -6  -1   2   13.72    1.81
   6   1  -2   12.65    1.91
  -4   6   3   94.43   11.18
  -6   2   6    1.32    2.04
  -6   2   6    0.99    1.99
  -6   2   6    2.18    4.24
   5   2  -6   35.48    4.44
  -5  -2   6   22.52    4.83
  -5  -2   6   31.33    4.12
  -1  -6   0   -0.39    3.29
   1   6   0    1.67    3.68
  -3  -4   7   -5.51    4.27
  -3  -4   7    2.74    1.73
   3   4  -7    3.07    0.86
  -6  -1   1  135.93   15.62
   6   1  -1  164.53   18.84
  -6  -1   1  147.21   18.33
  -4   6  -4   50.40    6.35
  -4   6  -4   45.49    6.73
   1  -1 -11   27.00    5.19
   4   3  -7    5.81    1.14
  -4  -3   7    4.27    1.55
  -4  -3   7    6.82    4.41
  -4   5   6    8.87    3.72
  -4   5   6    8.93    3.38
  -4   5   6   14.33    2.15
  -1   1 -11    0.82    3.84
  -6  -1   3   29.05    3.85
   6   1  -3   32.28    4.34
  -6   4   4   22.75    3.57
  -6   4   4   22.40    3.66
  -6   4   4   14.84    3.73
  -6   2  -4    2.45    4.13
  -6   2  -4    3.76    1.78
  -4  -4   2   17.03    3.97
   1   4   7    1.68    3.35
   1   4   7    3.63    1.65
  -1  -4  -7    1.42    4.76
  -2  -3  10   67.87   10.77
  -2  -3  10   58.23    7.25
  -6   4  -3  151.53   17.41
  -6   4  -3  143.47   17.94
   6  -4   3  118.14   14.80
  -1  -6   4   17.79    4.92
  -1  -6   4   23.89    3.84
  -3  -2  10   37.79    5.27
  -3  -2  10   35.13    7.28
  -2   1  11   35.99    5.16
   2  -1 -11   33.06    5.07
  -1   6   4   48.90    6.14
  -1   6   4   28.62    5.01
  -3  -3   9   45.47    8.88
   3   3  -9   49.77    5.87
  -3  -3   9   45.26    5.86
  -4  -4   3   10.83    4.07
   0  -5  -6   27.97    5.68
   0   5   6   19.54    4.47
   0   5   6   36.56    4.84
  -4  -4   1   27.43    5.32
  -6   3  -4    9.21    2.19
  -6   3  -4    9.04    5.00
   1  -2  11   16.24    2.20
  -1   2 -11    9.48    4.17
  -5   4  -6   39.08    7.39
  -5   4  -6   38.59    5.22
   6   1   0   15.40    1.79
  -6  -1   0   10.97    4.63
   3   3   6    3.78    1.81
  -3  -3  -6    1.11    4.28
   3   3   6    2.72    1.50
   0   6   3    6.44    3.48
   0   6   3   10.84    1.65
   0  -6   6  128.01   14.76
   0  -6   6  118.97   13.51
   0  -6   6  112.42   13.54
   0  -6   6   77.12   10.66
   2   5   3   31.91    5.84
  -2  -5  -3   30.17    5.97
   4   1   7   22.80    3.24
  -4  -1  -7   21.52    5.64
   4   1   7   20.94    3.22
  -2   5   7   36.85    5.98
  -2   5   7   73.56    8.97
   0   4   8   -1.81    3.46
   0   4   8    0.32    1.84
   0  -4  -8    0.80    1.01
   0  -4  -8   -3.83    4.17
  -5   6   0   26.39    4.08
  -5   6   0   25.23    4.67
   0  -4  10    5.79    1.57
   0   4 -10    7.57    4.14
  -6  -1   4   32.56    4.24
   6   1  -4   37.77    4.86
   1   6   1    2.55    3.60
   1   6   1    6.57    1.46
  -1  -6  -1    5.72    3.54
  -1  -5  -5   24.72    5.40
   1   5   5   18.24    4.55
   1   5   5   28.95    4.02
  -1  -5   8   26.63    3.57
  -1  -5   8   25.31    3.64
  -1  -5   8   20.75    5.64
  -4   0  10    1.18    1.90
  -4   0  10    1.70    5.75
   1  -4  10   72.42    8.48
  -1   4 -10   51.04    7.55
  -4   1  10   -3.78    5.07
  -4   1  10    0.43    1.86
  -5   6  -1   77.56   10.01
   0  -1 -11    0.18    4.17
   0   1  11    0.13    2.62
  -4   3   9   12.45    3.42
  -4   3   9   13.14    2.37
  -4   3   9   13.87    5.13
  -3  -5   2   56.81    8.38
  -5   5   5  156.43   18.46
  -5   5   5   90.16   11.74
  -5  -2  -3   11.19    4.71
   5   2   3    9.22    1.24
   5   2   3    8.71    1.39
  -5   0  -6    9.51    5.35
   5   0   6    7.83    1.59
   5   0   6   13.50    1.57
  -6   5   0   66.37    8.21
  -6   5   0   62.74    8.96
   1   0  11    2.37    1.90
  -1   0 -11    0.23    4.34
  -3   6  -6   15.04    3.45
   3  -6   6   14.71    1.38
  -6   0   6   77.03   10.65
  -6   0   6   85.63   10.22
   6   0  -6   86.98   10.21
  -4  -4   4    3.15    3.81
  -4  -4   0   79.02   10.72
  -6   5   1   39.91    6.53
  -6   5   1   49.29    6.22
  -5   6   1   44.60    5.91
  -6   1  -4    0.80    4.92
  -6   1  -4    2.85    1.57
   6  -1   4    2.34    1.56
  -3   5   7    8.96    3.80
  -3   5   7   10.09    3.72
  -3   5   7   19.82    3.45
  -5  -1   8    1.50    1.54
   5   1  -8    0.39    1.21
  -3   4  -9   61.98    9.28
   3  -4   9   55.15    6.45
  -3  -4  -4   34.81    6.72
   3   4   4   24.15    3.50
   3   4   4   35.29    4.94
  -3  -5   3   22.15    4.84
  -4   4   8   53.37    7.66
  -4   4   8   56.23    8.93
   4   0   8   45.18    5.57
   4   0   8   42.48    5.49
  -4   0  -8   40.86    7.44
  -3  -5   1   20.07    4.86
   5  -5   5   55.63    8.14
  -5   5  -5   79.54   10.93
  -5   5  -5   83.34    9.90
   2   4  -9   29.92    3.62
  -2  -4   9   26.10    3.72
  -2  -4   9   19.81    6.18
  -5  -3   2   24.30    5.47
   6   0   3   74.39    8.88
  -6   0  -3   84.73   10.05
  -6   3   6    4.56    3.95
  -6   3   6    0.45    1.79
  -6   3   6    2.35    1.63
   5  -2   7   19.73    2.63
  -5   2  -7   21.82    5.49
   2   4   6    0.68    1.38
  -2  -4  -6   -0.48    4.20
   2   4   6    2.85    3.92
  -4  -3  -4   17.17    4.69
   4   3   4   16.35    2.04
   4   3   4   18.85    2.72
  -2  -2  11    6.12    2.59
   2   2 -11    8.04    3.63
  -5   3   8   26.51    4.00
  -5   3   8   22.19    5.92
  -5   3   8   27.47    4.44
  -4  -2   9  110.32   14.60
  -4  -2   9  121.67   14.22
   4   2  -9  135.33   15.42
  -6   5  -1   42.89    5.58
  -6   5  -1   46.08    7.40
  -3   5  -8    6.84    4.43
   3  -5   8    3.13    1.29
   5   1   5  115.40   13.23
  -5  -1  -5  112.46   15.16
   5   1   5  119.53   13.95
  -5  -3   3    2.13    4.57
   5   3  -3    1.84    0.65
   2   2   9    1.53    1.85
  -2  -2  -9   -0.87    5.31
  -2  -2  -9   -0.06    0.67
  -5  -3   1   82.20   11.32
  -6  -1  -1    0.60    4.64
   6   1   1    0.96    1.21
  -1  -6   5    3.90    4.51
  -1  -6   5    4.27    2.05
   4  -4   8    0.90    1.08
  -4   4  -8   -2.42    4.25
  -3   0  11    1.73    2.31
   3   0 -11    4.23    2.88
   0  -3  11   22.94    3.53
  -5   6  -2   75.67    9.93
  -4   6   4   11.26    2.06
   1  -5  -7   -0.27    0.92
  -1   5   7   -1.39    1.53
  -1   5   7   -1.88    3.37
   4   2   6    7.72    1.59
   4   2   6    5.62    1.31
  -4  -2  -6    5.30    5.41
  -5   4   7    2.81    2.27
  -5   4   7    4.82    2.71
  -5   4   7   -0.06    3.40
  -6   5   2   31.44    5.46
  -6   5   2   41.38    5.47
  -2   3  10   12.40    2.45
   2  -3 -10   13.61    3.30
  -2   3  10    5.57    4.01
  -2  -5   7   31.18    7.42
  -2  -5   7   29.56    4.71
   2  -7   1    2.11    1.43
  -2   7  -1   -2.13    1.53
   1  -6   7    8.06    1.12
   1  -6   7    4.35    3.04
   1  -5   9   36.84    5.61
  -1   5  -9   42.43    7.59
   5  -3   7    2.52    1.04
  -5   3  -7   -1.80    4.92
  -4   6  -5   42.31    7.52
  -4   6  -5   41.40    6.64
  -4   5  -7   46.88    8.80
   4  -5   7   38.20    5.78
   4  -5   7   25.71    5.96
  -2   6   5    4.07    1.98
   2  -6  -5    5.35    1.38
  -2   6   5    2.36    3.65
  -2   7  -2    4.32    1.51
   2  -7   2    3.07    1.32
  -6   4   5   70.77   11.71
  -6   4   5   94.73   14.18
  -6   4   5  100.88   15.01
  -5   1   9   69.64   10.63
  -5   1   9   64.37   11.52
  -3  -5   4    3.26    3.90
  -5   6   2   75.89   11.48
  -3  -5   0   37.23    6.95
  -5  -2   7    2.82    1.50
   5   2  -7    3.92    1.21
  -5  -2   7    2.90    4.35
  -2   6  -7   29.38    5.53
   2  -6   7   29.73    4.52
   2  -6   7   20.28    5.02
   2  -7   0    2.91    1.29
  -2   7   0    1.00    1.56
   3  -2  10   10.79    1.75
   6   1  -5   17.01    3.07
  -6  -1   5   14.71    1.78
   1  -3 -10    5.25    4.15
  -1   3  10    4.48    4.80
  -1   3  10    6.25    2.69
  -1  -2 -10   87.35   14.35
   1   2  10   58.27    9.11
  -3   6   5   41.43    6.56
  -6   1   7   11.12    2.31
  -6   1   7    9.21    3.99
  -6   4  -4   19.10    3.69
  -6   4  -4   22.39    5.81
   6  -4   4   18.22    5.19
   3  -1 -11   58.24    9.31
  -3   1  11   69.70   10.74
  -5  -3   4    0.20    4.06
   5   3  -4    1.94    0.88
   1   4 -10   91.20   14.42
  -1  -4  10   66.99   10.04
   2   1  10   34.98    5.69
  -2  -1 -10   46.91    9.38
   0   5  -9    0.77    3.26
   0  -5   9   -0.03    1.22
  -4  -4   5   -0.51    4.02
  -5  -3   0    1.62    4.31
   1  -3  11    7.05    1.79
  -6   5  -2   13.18    4.82
  -6   5  -2   16.45    3.40
   2  -4  -9   -3.03    2.79
  -2   4   9    0.75    1.84
  -2   4   9    1.06    3.85
   5  -1   7  117.82   17.15
  -3   7  -1   30.23    4.93
  -4  -4  -1   80.20   13.07
  -4  -1  10   42.94    6.92
  -6   2   7   28.09    4.81
  -6   2   7   19.67    5.43
  -1  -3  11    0.92    1.74
   1   3   9    6.35    2.46
  -1  -3  -9    3.89    0.98
  -1  -3  -9    2.08    4.23
  -1  -6  -2   32.57    6.42
   1   6   2   53.25    8.07
   1   6   2   35.22    6.79
  -3  -1  11   13.69    2.76
  -4   2  10   86.10   14.23
  -4   2  10   96.39   14.45
  -5   0   9  158.54    4.99
  -5   0   9  118.24   19.01
  -2  -3  -8   37.10    7.53
   2   3   8   50.61    8.02
  -2   7  -3   12.12    1.97
   2  -7   3   11.91    1.81
   3  -1  10   28.66    4.71
  -3   1 -10   22.13    5.91
   2  -4  10    4.27    1.49
  -2   4 -10    4.84    3.98
  -3   7   0   22.97    3.96
  -3  -4   8   14.43    6.06
  -3  -4   8   15.82    3.07
   3   4  -8   15.88    2.57
  -7   2   1    1.50    1.57
  -7   2   1   -0.42    4.24
  -3   7  -2   14.01    1.99
  -3  -2  -8  114.31   18.31
   3   2   8   82.38   12.36
   3   2   8   73.50   11.04
  -4  -3   8    4.30    4.88
  -4  -3   8    1.73    1.67
   4   3  -8    2.00    1.02
   3   1   9   31.28    5.18
   3   1   9   27.16    4.57
  -3  -1  -9   28.56    6.67
  -1   7  -1   23.93    4.06
  -7   2   2    5.66    1.84
  -7   2   2    7.40    4.21
  -1   7  -2   24.83    4.14
  -5   6  -3   22.79    5.29
  -6   2  -5   46.63    9.17
  -6   2  -5   37.07    5.98
  -6   5   3    4.02    2.15
  -6   5   3    7.31    2.03
  -6   5   3    3.17    3.39
  -2   5  -9   -0.38    3.29
   2  -5   9    1.91    1.35
  -3   3  10    4.17    3.93
   3  -3 -10    8.18    2.73
   4  -2   9  129.73   18.89
  -5   2   9    2.49    2.12
  -5   2   9   -1.73    4.92
   2  -2 -11   21.46    4.76
   0   6   4    2.15    3.29
   0   6   4    0.53    1.41
   1  -2 -11  137.22   21.01
  -1   2  11  122.94   18.30
  -2   7   1    5.87    1.74
  -6   3  -5    3.30    1.76
  -6   3  -5   -1.18    4.51
   0  -6   7    5.79    4.44
   0  -6   7   13.56    1.92
   0  -6   7   13.65    1.43
   0  -6   7   13.75    3.36
  -7   2   0   28.63    6.50
  -7   2   0   40.45    6.41
   3  -4  -9   10.29    2.54
  -3   4   9   11.09    2.57
  -3   4   9    7.86    4.38
  -1   4   9  164.40    5.79
   1  -4  -9  157.56    8.19
  -1   4   9  107.55   16.90
  -7   3   1   34.17    5.55
  -7   3   1   38.39    7.48
  -1   6   5   52.60    8.90
  -1   6   5   86.31   12.95
  -2  -5  -4   69.18   11.55
   2   5   4   57.26    9.75
   2   5   4   76.46   11.39
  -2   2 -11   11.91    4.85
  -3  -5   5   -0.48    4.05
  -1   7   0   53.50    8.12
   6   1   2    0.35    0.94
   6   1   2    0.93    1.19
  -6  -1  -2   -2.50    5.07
  -3   3 -10   39.60    7.76
  -2   1 -11    2.07    4.02
   2  -1  11    4.30    2.15
  -1   7  -3   20.89    3.69
  -3  -5  -1   16.74    4.73
  -4   5   7   24.85    5.57
  -4   5   7   34.00    5.83
  -4   5   7   22.62    5.47
  -7   2   3    0.94    1.82
  -7   2   3    1.57    4.01
  -3   7   1   29.31    4.94
  -5   6   3   36.93    6.06
   7  -3  -2   38.77    7.64
  -7   3   2   42.20    7.65
  -7   3   2   46.27    7.31
  -3   7  -3    3.77    1.84
  -7   3   0    6.51    3.68
  -7   3   0    6.65    1.90
  -1  -6   6   40.26    6.12
  -1  -6   6   32.64    5.68
  -1  -6   6   34.42    7.58
   5   3  -5    5.09    1.09
  -5  -3   5    6.43    4.44
  -6   0   7   43.95    8.47
  -6   0   7   39.88    6.29
   1   1 -12   10.16    3.42
  -1  -1  12   21.22    4.35
  -5  -3  -1    1.80    4.24
   4  -3   9   14.51    1.58
  -4   3  -9   17.72    6.41
  -7   1   2    3.75    5.23
  -7   1   2    1.19    1.64
   7  -1  -2    0.76    1.36
   5   2   4   25.77    4.20
   5   2   4   25.84    4.12
  -5  -2  -4   24.18    6.35
  -1  -1 -11   23.76    6.36
   1   1  11   25.50    4.52
  -7   1   1   23.86    4.10
   7  -1  -1   24.25    3.96
  -7   1   1   27.21    6.46
  -4   1  -9   -3.70    4.58
   4  -1   9    0.08    1.47
  -2   7  -4    2.69    1.69
  -5   5   6    6.68    3.20
  -5   5   6   15.37    3.33
  -6   5  -3    2.48    2.14
  -6   5  -3    3.31    4.67
  -5   4  -7   81.81   13.47
   1   0 -12   53.18    8.81
  -1   0  12   48.39    7.87
   6   0   4   61.85    9.18
  -6   0  -4   57.93   10.05
   6   0   4   50.54    7.70
   0   1 -12    1.15    3.30
   0  -1  12   -0.74    2.58
   3  -6   7    0.32    1.04
  -3   6  -7   -1.74    3.07
  -7   2  -1  112.35   17.64
  -7   2  -1  116.21   17.10
  -2  -6   2   23.02    5.63
  -6  -1   6    1.02    1.42
   6   1  -6    0.22    1.39
  -4  -4   6    2.06    4.85
   4   4  -6    1.97    0.83
   5  -5   6   31.46    6.47
  -5   5  -6   42.88    6.81
  -5   5  -6   40.32    8.26
   6  -1   5   24.21    3.77
   6  -1   5   21.65    3.73
   7  -3  -3   52.87    9.39
  -7   3   3   70.95   10.73
  -7   3   3   65.42   10.95
  -4   6   5   71.96   10.87
  -7   1   3   21.35    5.87
  -7   1   3   26.92    4.51
  -4  -4  -2   18.07    5.32
  -6   3   7   21.29    5.59
  -6   3   7   20.67    3.97
  -6   3   7   22.77    4.15
   0   3  10   54.74    8.73
   0  -3 -10   63.38   10.80
   0   5   7    1.45    1.68
   0  -5  -7    1.05    4.29
   0   5   7   -1.38    3.46
  -7   1   0   14.39    1.92
   7  -1   0   12.77    1.63
  -7   1   0   13.46    5.56
  -7   3  -1   56.32    8.66
  -7   3  -1   47.40    8.41
  -1   7   1   13.36    1.76
  -2  -6   3   50.47    7.94
  -2  -6   3   28.84    6.44
   2   6  -1    5.10    4.02
  -2  -6   1    3.97    4.01
   1  -7   4   10.72    1.09
  -3  -3  10   32.06    5.50
  -3  -3  10   43.43    9.70
  -1  -5  -6   32.53    7.00
   1   5   6   23.87    5.47
   1   5   6   36.57    5.86
  -2   7   2   37.26    5.95
   3   4   5   86.22   12.79
   3   4   5   67.97   10.24
  -3  -4  -5   84.03   13.92
  -1  -5   9    9.43    5.52
  -1  -5   9   10.99    1.63
  -4   6  -6   44.88    7.21
  -4   6  -6   36.11    6.79
  -6   5   4    0.72    3.43
  -6   5   4    0.69    1.84
  -6   5   4    1.68    2.11
  -5   6  -4   12.46    4.22
  -7   2   4   13.30    5.01
  -7   2   4    6.27    1.86
  -3   2  11    1.74    2.74
   3  -2 -11    3.34    2.87
  -6   4   6  101.42   15.15
  -6   4   6   76.98   12.63
  -6   4   6   95.17   14.19
   3   3   7    6.22    1.92
  -3  -3  -7    8.27    4.92
   3   3   7    7.01    1.66
  -1  -4  -8   42.76    8.13
   1   4   8   50.12    7.82
   1   4   8   40.28    7.67
   3   0  10   76.24   11.40
  -3   0 -10   67.89   11.47
  -4  -3  -5   40.37    8.04
   4   3   5   32.63    5.32
   4   3   5   42.51    6.58
  -4   7  -1   19.48    3.78
  -3   7   2   24.46    4.25
   1   6   3   31.10    6.37
   1   6   3   47.05    7.21
   0   0 -12   30.42    6.75
  -6  -2   2   25.93    6.93
   6   2  -2   17.34    3.06
   2   0 -12   15.12    3.38
  -2   0  12   15.68    3.34
   0   2  11    0.47    2.41
   0  -2 -11    1.16    3.91
  -2  -5   8    7.70    1.63
  -2  -5   8    6.32    5.18
  -2   3 -11    2.45    4.07
   2  -3  11    2.37    1.65
  -4   7   0   -0.64    2.26
  -5  -1   9    5.10    1.90
  -5  -1   9    5.84    4.88
   0  -2  12  135.34   19.85
   0   2 -12  111.84   17.24
  -3   7  -4    6.98    1.84
  -2   5   8    9.49    2.10
  -2   5   8    7.59    3.59
  -6   4  -5    6.43    2.14
  -6   4  -5    8.86    4.89
   2   0  11   10.53    2.20
  -2   0 -11   11.84    5.53
  -2  -3  11   22.87    7.08
  -2  -3  11   25.69    4.73
  -6  -2   3    6.74    4.52
   6   2  -3    3.14    1.25
  -3  -2  11   45.50    9.63
  -3  -2  11   55.93    8.85
   2   1 -12    1.38    3.78
  -2  -1  12    1.30    2.41
  -1  -2  12   13.24    2.49
   1   2 -12   10.00    3.65
  -6  -2   1   61.44   10.84
   6   2  -1   65.36    9.84
   5   0   7   28.45    4.77
   5   0   7   26.82    4.33
  -5   0  -7   27.54    6.57
  -1   6  -8    7.42    3.16
   1  -6   8    6.20    1.19
  -5  -2   8    0.40    1.61
  -5  -2   8   -3.16    4.36
   5   2  -8    0.96    1.07
  -4   7  -2   11.60    2.38
  -4  -1  -8    6.38    5.52
   4   1   8    7.53    1.87
   4   1   8    6.70    1.65
  -3  -5   6    0.47    4.26
   5   1   6   37.71    5.84
   5   1   6   33.21    5.35
  -5  -1  -6   34.85    8.18
  -2  -6   4   19.50    5.61
  -2  -6   0   15.65    4.32
   2   6   0   17.11    5.07
  -3  -5  -2    7.07    3.93
  -7   1   4   41.37    6.27
  -7   1   4   36.36    3.39
  -2   6   6    1.46    1.72
  -3   5   8   -2.27    3.28
  -3   5   8   -0.17    2.13
  -7   4   1    3.93    2.01
  -7   4   1    3.88    4.16
  -5   6   4   35.60    3.69
   5   3  -6   21.06    1.99
  -5  -3   6   10.42    4.65
  -7   1  -1    4.25    4.86
  -7   1  -1    0.19    1.63
   7  -1   1    0.26    1.26
  -4   7   1   10.34    2.45
   0   7  -1    7.35    1.55
  -5   4   8    2.03    2.16
  -5   4   8    2.68    4.23
  -5   4   8    2.55    3.09
  -2  -4  10   17.91    2.38
  -2  -4  10   15.93    6.40
  -7   3   4    5.26    2.08
  -7   3   4    9.28    4.51
  -3   6   6   22.11    2.84
  -6   1   8    6.97    5.02
  -6   1   8    4.80    1.95
  -7   4   0   27.29    3.12
  -7   4   0   30.45    5.20
   2  -7   5   17.94    1.69
  -2  -4  -7    7.50    4.93
   2   4   7   11.15    1.84
  -2   6  -8   43.27    5.04
   2  -6   8   39.35    3.09
  -5  -3  -2    5.52    5.08
  -7   2  -2   42.25    3.82
  -7   2  -2   55.94    7.35
  -6  -1  -3    0.98    4.78
   6   1   3    0.86    1.18
   6   1   3    0.66    0.93
  -5   3   9   49.42    4.62
  -5   3   9   45.19    4.83
  -5   3   9   46.53    6.68
  -4  -2  10    3.40    5.59
  -4  -2  10    0.54    2.14
  -3   5  -9    6.15    3.94
   3  -5   9    5.77    1.31
  -5   2  -8   -2.05    5.57
   5  -2   8    1.11    1.18
  -4   4   9   22.56    5.33
  -4   4   9   16.35    3.87
  -4   4   9   21.21    3.15
   0   4   9    1.98    2.14
   0   4   9   -2.77    3.91
   0  -4  -9   -0.85    4.45
  -7   4   2   15.50    4.73
  -7   4   2   16.49    2.83
  -7   3  -2   34.76    3.48
  -7   3  -2   42.72    6.26
   4  -5   8   30.06    2.51
  -4   5  -8   30.04    5.16
   6   2  -4   13.33    1.75
  -6  -2   4   11.21    5.00
   0  -4  11    3.93    1.99
   0   4 -11    6.33    4.39
  -1   1  12   13.10    3.29
   1  -1 -12   18.93    4.09
  -4   3  10   13.70    5.17
  -4   3  10   23.28    3.19
  -4   3  10   18.13    4.12
  -6   2   8   41.54    3.98
  -6   2   8   44.29    6.55
  -4   0  11   41.64    6.88
  -4   0  11   35.58    3.98
   6   2   0   15.06    1.58
  -6  -2   0   16.35    5.42
  -6   5  -4   -0.71    4.95
  -6   5  -4    2.62    2.53
   4   2   7   -0.59    1.39
   4   2   7   -0.03    1.39
  -4  -2  -7    3.67    5.90
  -1   7   2    3.85    1.51
  -1   1 -12    8.26    4.94
   1  -7   5    6.35    0.98
  -4   1  11   -0.73    2.11
  -4   1  11   -2.91    5.46
   1  -4  11   51.94    4.17
  -1   4 -11   41.82    5.67
  -5   3  -8   12.59    5.36
   5  -3   8    2.53    1.29
  -3   4 -10   27.60    5.44
   3  -4  10   31.08    2.79
  -4   7  -3   35.62    3.54
  -4   7  -3   36.78    3.73
  -1  -6   7   16.93    5.14
  -1  -6   7   30.19    2.75
  -1   5   8    1.33    2.07
  -1   5   8   -0.59    3.61
   4  -4   9    4.90    1.30
  -4   4  -9   12.19    4.73
   0   7   0   15.95    2.06
  -2   1  12    4.57    3.16
   2  -1 -12    3.04    3.63
   0   6   5    0.86    3.13
   0   6   5    0.79    1.57
  -7   4  -1    8.60    4.66
  -7   4  -1    6.71    2.26
  -3  -4   9   10.89    5.80
  -3  -4   9    9.06    2.04
   3   4  -9    9.48    1.11
  -4   0  -9    5.01    5.98
   4   0   9    7.30    1.66
  -7   2   5   41.71    3.89
  -7   2   5   40.77    5.87
  -1   2 -12   -1.32    3.73
   1  -2  12   -1.83    2.21
   0  -6   8    0.62    5.48
   0  -6   8    7.56    1.32
  -1   5 -10    8.83    4.39
   1  -5  10   12.05    1.73
  -6   2  -6   53.06    6.88
   6  -2   6   38.24    3.11
  -7   0   2   49.37    4.13
  -7   0   2   45.74    6.63
   7   0  -2   50.92    4.24
  -4  -3   9    9.93    2.16
   4   3  -9    9.13    1.21
  -4  -3   9    9.30    5.35
   6  -3   6    3.16    1.15
  -6   3  -6    2.60    5.85
  -5   1  10   13.45    2.59
  -5   1  10    8.77    5.58
  -2   7   3   35.11    3.53
   7   0  -1   85.11    6.44
  -7   0   1   93.06    9.50
  -7   0   1  104.81    3.78
  -2  -6   5   19.48    5.34
  -2  -6  -1    1.06    3.95
   2   6   1    2.02    3.93
  -4  -4   7   20.60    5.47
   4   4  -7   35.19    2.71
  -2  -5  -5    0.20    4.55
   2   5   5    6.06    1.56
   2   5   5    5.26    4.00
  -3   7   3   12.70    2.16
  -7   4   3   71.71    7.24
  -7   4   3   77.59    6.20
  -4   7   2    8.77    2.27
  -6  -1   7    1.56    1.58
   6   1  -7    1.93    1.13
  -4  -4  -3   12.46    5.09
   7   0  -3   22.52    2.56
  -7   0   3   14.59    5.31
  -7   0   3   20.81    2.43
   0   5 -10    6.39    3.38
   0  -5  10    7.49    1.71
  -6   6   0    2.41    3.64
  -6   6   0   -2.53    2.23
  -3   7  -5    5.26    2.30
  -3   7  -5    4.54    2.12
  -6   5   5    0.43    2.28
  -6   5   5    3.90    3.64
  -1   6   6   95.48    4.18
  -6   0   8    5.28    4.51
  -6   0   8    8.79    1.96
  -7   1   5   74.90    5.78
  -7   1   5   86.04    9.24
  -5   6  -5    3.76    3.96
   5  -1   8   42.65    3.55
  -2  -2  12    9.49    2.86
   2   2 -12    3.13    3.84
  -5   0  10    3.85    5.15
  -5   0  10   -0.03    1.98
  -6   6   1    2.29    3.59
  -6   6  -1   15.06    2.88
  -6   6  -1   11.98    4.05
   7  -1   2    9.30    1.52
  -7   1  -2   14.69    5.15
  -7   1  -2   11.16    2.00
  -6  -2   5    3.02    4.90
   6   2  -5    5.33    1.27
   2   2  10   12.43    2.39
  -2  -2 -10   12.97    6.35
   5   2   5   27.34    2.65
  -5  -2  -5   37.65    6.23
   0  -1 -12   53.42    6.33
   0   1  12   54.77    5.19
   6   0   5   33.83    2.78
   6   0   5   30.76    3.08
  -6   0  -5   36.05    6.29
   7   0   0   32.06    3.01
   1   4 -11   24.54    5.09
  -1  -4  11   22.20    2.69
  -6  -2  -1   67.09    7.59
   6   2   1   54.23    4.06
  -1   0 -12   45.13    6.52
   1   0  12   41.07    4.16
  -5   5   7   15.09    3.73
   3   0 -12    5.06    3.15
  -3   0  12    0.42    2.65
   0  -3  12    7.61    2.39
   0   7   1   18.53    2.18
  -7   3   5   -4.86    3.39
  -7   3   5   -0.46    1.83
  -4  -1  11   21.80    3.01
  -4  -1  11   19.71    6.28
  -4   6   6   18.74    2.97
  -2   3  11   32.59    4.03
   2  -3 -11   31.19    4.44
  -4   5   8   24.29    4.84
  -4   5   8   46.54    4.47
  -7   4  -2    7.57    4.57
  -7   4  -2    7.91    2.33
   1   6   4   48.01    4.09
   1   6   4   30.76    4.94
  -3  -5   7    5.36    5.71
  -2   5 -10    6.95    4.42
   2  -5  10    8.03    1.68
  -4   7  -4   34.39    3.73
  -4   7  -4   39.55    3.75
  -7   0   4    3.75    4.26
   7   0  -4    1.59    1.67
  -7   0   4    0.39    1.43
  -5   2  10   20.19    3.22
  -5   2  10   14.04    4.95
  -3  -5  -3   -1.24    4.69
  -7   3  -3   -1.77    5.17
  -7   3  -3    3.80    2.27
  -7   2  -3   59.22    4.88
  -7   2  -3   68.00    7.55
  -2   4  10    7.88    2.56
  -2   4  10    7.33    4.32
   2  -4 -10    6.48    3.11
   5  -5   7    4.48    1.20
  -5   5  -7    3.64    4.40
   3  -6   8    2.87    1.11
  -3   6  -8    1.98    3.54
  -6   6   2   23.00    4.52
   4  -6   7   20.90    2.01
  -4   6  -7   21.73    4.55
  -6   4   7   52.33    4.67
  -6   4   7   50.38    4.95
  -6   4   7   37.99    5.24
   2   3   9   36.00    3.89
  -2  -3  -9   36.31    6.11
   5   3  -7   23.60    2.17
  -5  -3   7   14.28    4.97
   6  -1   6    7.60    1.27
   2  -7   6   40.44    3.09
  -4   2  11   37.01    6.24
  -4   2  11   51.38    4.77
  -6   3   8    7.86    2.57
  -6   3   8    8.93    2.55
  -6   3   8    5.16    4.66
  -6   6  -2   -0.21    4.06
  -6   6  -2    2.40    2.74
   3  -2  11   16.96    2.37
  -5   6   5   19.43    2.77
   3   2   9   27.59    2.87
  -3  -2  -9   34.01    6.40
   3   2   9   29.07    3.12
   2  -4  11    9.90    1.81
  -2   4 -11   11.64    4.91
  -5  -3  -3   53.43    7.07
  -1   3  11    0.06    2.53
   1  -3 -11    1.26    4.26
  -7   4   4   40.29    5.51
  -7   4   4   51.94    4.54
  -1  -3  12    9.71    2.24
  -1   7   3    0.99    1.55
  -1  -3 -10    5.39    5.44
   1   3  10    7.30    2.30
  -5   4  -8   68.80    8.47
  -3  -1  12   24.27    3.77
  -3  -1  12   19.74    6.17
   3  -1 -12   16.87    3.70
  -3   1  12   18.15    3.15
  -1  -2 -11   43.39    6.35
   1   2  11   30.63    3.82
   1  -7   6    0.50    0.97
  -6   4  -6   16.81    6.03
  -6   4  -6   20.33    2.88
   1  -3  12   42.55    3.86
   4  -2  10   60.44    4.65
  -2  -1 -11   45.71    7.14
   2   1  11   38.81    3.97
  -4   7   3   14.40    2.71
  -3   4  10   26.33    3.55
  -3   4  10   23.46    5.01
   3   1  10    0.95    1.63
  -3  -1 -10   -0.44    4.90
  -2  -6   6    3.98    4.52
  -3  -4  -6   64.00    7.97
   3   4   6   40.11    3.71
  -2  -5   9    1.89    1.70
  -2  -5   9    1.27    6.16
  -2  -6  -2    6.02    4.27
   2   6   2    5.55    4.05
  -6  -1  -4    3.51    4.93
   6   1   4    0.18    0.95
   7   0   1   43.23    3.66
  -6   5  -5   47.05    4.37
  -6   5  -5   52.88    7.18
  -3   1 -11   35.37    6.04
   3  -1  11   45.01    4.05
  -7   2   6   38.47    3.89
  -7   2   6   38.77    6.37
  -3   3  11   -1.05    2.38
   3  -3 -11    0.27    2.83
   4   3   6   10.99    1.96
  -4  -3  -6   15.89    6.01
  -5   7   0   31.85    3.53
  -1   4  10   27.20    3.38
   1  -4 -10   24.94    4.73
  -1   4  10   19.82    4.63
  -5   7  -1   11.73    2.54
  -5  -2   9   23.05    6.15
  -5  -2   9   31.77    3.20
   1   5   7    2.04    3.78
   1   5   7    0.53    1.55
  -1  -5  -7   -1.41    4.84
  -1  -5  10   39.73    3.63
  -1  -5  10   40.98    8.24
  -3   3 -11   34.54    6.28
   6   2  -6    4.24    1.22
  -6  -2   6    2.42    4.34
  -7   1   6   26.15    3.12
  -7   1   6   26.72    6.16
  -3   7   4    4.15    1.90
  -4   3 -10    5.76    5.26
   4  -3  10    4.91    1.43
   1  -6   9    0.65    1.46
  -1   6  -9   -3.48    2.80
  -2   7   4   46.02    4.21
   0   5   8   24.54    3.00
   0   5   8   18.36    4.56
  -7   0   5    9.86    1.80
  -7   0   5    6.46    4.32
   0   7   2   20.01    2.30
  -5  -1  10    3.17    5.60
  -5  -1  10   -0.75    1.96
  -4  -5   2    0.50    4.97
   2  -2 -12   -0.51    3.10
  -2   2  12    4.21    2.58
  -7   5   1   17.74    3.23
  -7   5   1   12.66    4.11
   6   2   2   34.89    2.87
  -6  -2  -2   28.85    5.57
  -5   7   1   38.03    3.95
  -7   5   0   15.34    2.88
  -7   5   0   12.83    4.63
  -1  -6   8   10.43    1.63
  -1  -6   8    5.89    5.35
  -3   7  -6    8.57    2.37
   3  -7   6    8.79    1.27
  -4  -5   3    0.71    4.78
  -3  -3  11    6.90    2.33
  -3  -3  11   10.14    6.57
  -7   4  -3   53.81    3.35
  -7   4  -3   55.59    6.35
  -5   7  -2    6.09    2.58
  -7   1  -3   32.78    5.62
  -7   1  -3   31.75    2.58
  -6   6  -3   10.89    4.50
  -6   6  -3   18.07    2.91
  -5  -4   2   -1.15    4.55
   4  -1  10   -1.18    1.75
  -4   1 -10   -0.34    4.86
   1  -2 -12   32.19    4.47
  -1   2  12   32.89    3.43
  -2   6   7   12.13    2.15
  -6   1   9   29.42    5.85
  -6   1   9   33.35    3.04
  -3   6   7   11.35    2.29
  -5  -4   3   17.27    4.50
  -2   2 -12   32.00    5.09
  -3  -3  -8   -0.92    6.00
   3   3   8   -0.00    1.38
   3   3   8    0.12    1.94
   5   1   7    6.96    1.57
   5   1   7    7.54    1.76
  -5  -1  -7    9.73    5.49
   4   4  -8    8.20    0.98
  -4  -4   8    7.19    5.82
  -4  -5   1   -1.09    4.47
  -6   5   6   -0.51    2.13
  -6   5   6   -1.95    3.08
   2  -6   9   25.03    1.72
  -2   6  -9   19.02    3.52
  -2   1 -12   16.39    4.72
   2  -1  12   14.06    2.69
  -4   7  -5   30.29    2.86
  -4   7  -5   26.18    3.10
  -7   5   2    1.90    2.56
  -7   5   2    3.24    3.91
  -4  -4  -4   -0.72    5.40
  -7   3   6    0.35    4.20
  -7   3   6    0.77    2.24
  -5  -4   1   -2.99    4.36
  -6  -1   8    3.59    1.94
  -6  -1   8    0.20    4.46
  -5   6  -6    2.90    4.13
  -7   5  -1   17.80    4.67
  -7   5  -1   22.65    2.65
   5   0   8   16.03    1.74
  -5   0  -8   21.42    5.88
  -2   5   9   31.40    3.21
  -6   2   9   32.65    2.96
  -6   2   9   26.34    5.67
  -5   4   9   19.19    3.01
  -5   4   9   15.70    4.86
  -5   4   9   16.04    3.41
  -4  -5   4    8.68    4.56
   1   4   9   14.85    2.39
  -1  -4  -9   11.27    5.34
   0   6   6    2.47    1.73
  -7   4   5   28.04    4.68
  -7   4   5   41.00    3.11
  -7   4   5   41.05    2.94
  -5  -4   4   19.48    5.06
   0  -6   9   27.76    2.08
   0  -6   9   22.15    5.56
  -7   3  -4   -2.13    5.04
  -7   3  -4    2.39    2.14
  -1  -1  13   19.86    2.76
   1   1 -13    8.97    3.95
  -3   5   9    8.65    2.82
  -4   5  -9   22.03    5.25
   4  -5   9   28.89    1.88
   1   1  12   -1.93    2.22
  -1  -1 -12   -2.02    4.51
   0  -7   6   15.15    5.11
  -5   7   2   45.66    3.42
  -7   2  -4   48.51    3.05
  -7   2  -4   42.87    6.09
   7   0   2   18.26    1.80
  -2  -4  11    9.56    6.61
  -2  -4  11    8.70    2.51
   0   3  11   50.46    3.60
   0  -3 -11   50.67    5.75
   6  -3   7   33.83    1.94
  -6   3  -7   38.54    6.12
  -5   7  -3    5.72    2.16
  -5   7  -3    2.87    2.30
  -6   2  -7   28.90    6.20
   6  -2   7   25.84    1.75
  -4  -1  -9   38.41    6.23
   4   1   9   30.17    2.31
  -3  -4  10    1.53    2.19
  -3  -4  10   -4.85    6.84
  -2  -4  -8   28.49    5.63
   2   4   8   26.03    2.62
  -5   3  10   20.16    3.12
  -5   3  10   16.80    5.21
  -4  -2  11    6.38    2.40
  -4  -2  11   14.88    7.05
   2   5   6   29.56    2.37
  -2  -5  -6   35.32    5.83
  -4  -5   0   -4.17    4.49
  -4  -3  10    4.34    1.98
  -4  -3  10    6.64    6.35
  -1   0  13   61.32    3.86
   1   0 -13   53.20    4.98
  -3  -5   8    1.86    5.12
  -2  -3  12   22.60    2.82
  -6   0   9   -0.48    4.79
  -6   0   9    0.23    2.12
  -3  -2  12   31.89    6.65
  -3  -2  12   44.52    3.85
  -3   5 -10    5.33    4.56
   3  -5  10    5.42    1.60
   0  -1  13    2.82    2.71
   0   1 -13    5.73    3.72
  -3  -5  -4    0.25    5.05
   3  -2 -12   15.91    3.38
  -4   7   4   15.78    2.43
  -5  -4   0    3.94    4.40
  -5   2  -9    5.53    4.91
   5  -2   9    4.44    1.44
  -7   5   3    6.32    2.55
  -7   5   3    3.55    3.45
   2  -7   7   18.17    1.40
  -3   0 -11   30.52    5.49
   3   0  11   34.71    2.74
  -1   7   4   10.43    2.08
  -5  -3   8   14.32    5.23
  -4  -2  -8    1.87    6.29
   4   2   8    0.78    1.42
  -4   4  10    5.28    4.44
  -4   4  10   10.76    4.08
  -4   4  10   12.57    3.11
  -2  -6   7    1.48    5.04
   2   6   3    2.65    3.88
   2  -3  12   15.40    2.33
  -7  -1   1   10.56    4.88
  -7   5  -2    4.47    2.44
  -7   5  -2   -0.19    4.80
   1  -7   7   -2.58    4.79
   1  -7   7    0.65    1.12
   1   6   5    1.57    1.46
   5  -3   9   39.19    1.90
  -5   3  -9   43.06    5.91
  -1   6   7   87.44    3.94
  -5   6   6    2.53    2.28
   6   0   6   27.32    1.83
   6   0   6   30.79    2.40
  -6   0  -6   29.26    5.71
  -5  -3  -4   11.07    5.18
  -7   0   6   -0.86    1.75
  -7   0   6   -2.83    4.66
  -5  -2  -6   14.48    5.44
   5   2   6   10.94    1.60
  -4  -5   5   17.73    4.93
  -4   6   7   -0.67    2.44
  -3  -6   2    1.79    4.21
  -6   6  -4   18.55    2.99
  -6   6  -4   11.21    4.70
  -1   5   9   10.79    2.52
   2   0 -13   30.66    4.01
  -2   0  13   39.00    3.91
   0  -2 -12   10.47    4.53
   0   2  12    6.72    2.78
  -4   4 -10    2.56    5.48
  -5  -4   5   18.75    5.47
  -5   5   8    3.14    2.64
  -5   5   8    0.93    3.57
   0  -2  13   75.66    4.02
   0   2 -13   58.38    5.19
  -7   2   7   29.72    5.18
  -7   2   7   41.72    3.40
  -4   3  11   30.94    5.80
  -3  -6   3    6.46    4.94
   0   4  10   21.49    2.69
   0  -4 -10   22.79    5.21
   0   7   3   28.52    2.24
  -6  -2   7   26.20    5.05
   2   1 -13    3.19    3.52
  -2  -1  13    7.76    3.07
   1   2 -13   -3.60    3.42
  -1  -2  13    2.45    2.40
   1  -5  11    5.05    1.92
  -1   5 -11   -0.09    3.68
   0   4 -12    0.17    4.18
   0  -4  12   -1.96    1.91
   2   0  12    1.42    2.55
  -2   0 -12   -3.79    5.48
   0   0  13    7.32    3.14
   0   0 -13    9.05    4.35
  -6   4   8    9.57    2.81
  -6   4   8   10.54    4.16
  -4   0  12   45.74    6.87
  -4   0  12   50.05    3.86
  -4   6  -8   23.43    4.57
   4  -6   8   22.85    1.57
  -5   1  11   29.11    6.25
  -5   1  11   33.60    3.25
  -7   4  -4   25.96    5.86
  -7   4  -4   23.00    2.58
  -3  -6   1    7.15    4.77
  -6   5  -6    1.41    2.31
  -6   5  -6    2.85    5.35
  -6  -2  -3   15.76    5.26
  -7   1   7   13.12    2.64
  -7   1   7    9.60    4.80
   3  -4  11   23.87    1.97
  -3   4 -11   30.08    5.16
   0  -5  11   21.10    2.25
   0   5 -11   21.67    4.27
  -7  -1   0   22.41    5.85
  -6  -3   2    8.28    5.22
  -5   5  -8   27.63    6.07
   5  -5   8   20.55    1.60
  -5   7   3   93.95    4.16
  -4   1  12   -0.61    5.41
  -4   1  12    3.04    2.53
  -6  -1  -5   17.11    5.69
   6   1   5   15.25    1.52
  -1   4 -12   36.87    5.01
   1  -4  12   44.15    2.74
  -6  -3   3   45.11    5.62
  -3   6  -9    0.04    3.50
   3  -6   9    2.13    1.36
  -3   7   5    0.66    1.82
  -5   0  11   10.78    2.62
  -5   0  11    3.52    5.70
  -4   0 -10    5.94    5.65
   4   0  10    3.68    2.01
  -4  -5  -1   -5.38    5.28
  -3  -6   4    4.44    4.60
  -7   1  -4   56.53    6.46
  -6   3   9   -3.32    4.54
  -6   3   9   -1.07    2.54
  -6   4  -7   -3.04    6.03
   6  -4   7    2.77    1.18
  -1  -7   5    6.17    4.22
   6  -1   7    2.04    1.10
  -5   7  -4    1.00    2.61
  -5   7  -4   -1.67    2.20
  -5   1  -9   16.74    5.32
   5  -1   9   19.51    1.92
  -2   7   5   25.47    2.61
  -4   5   9   29.98    5.03
  -4   5   9   52.75    3.59
  -6  -3   1    2.88    5.30
  -5  -4  -1   16.86    4.86
   3  -7   7    5.61    1.21
  -3   7  -7    6.16    2.73
  -4   7  -6   23.44    3.36
  -4   7  -6   24.86    2.57
  -7   5   4    4.37    3.49
  -7   5   4    5.27    2.64
  -6  -3   4    0.54    5.13
   1  -1 -13    1.76    3.83
  -1   1  13   -1.01    3.02
  -7   5  -3   57.51    3.33
  -7   5  -3   46.62    5.80
  -3  -6   0   26.83    5.31
   7   0   3    0.76    0.94
  -7   4   6   29.28    2.84
  -7   4   6   19.82    4.40
  -2  -5  10    0.19    2.07
  -2  -5  10    0.07    6.36
  -7   3   7    0.12    4.25
  -7   3   7    2.16    2.60
  -1   1 -13   43.67    5.62
   2  -1 -13   16.30    3.98
   1   4 -12   12.91    4.63
  -1  -4  12   14.34    2.47
   0  -7   7    6.52    5.40
  -2   8  -1   33.04    2.47
  -2   8  -2   25.62    2.21
  -4  -5   6   11.88    4.97
  -1  -6   9   12.87    6.80
  -1  -6   9   11.86    1.68
   5  -4   9   32.84    1.70
  -5   4  -9   37.41    5.87
  -4  -1  12    8.66    5.84
  -4  -1  12    8.98    2.72
  -5   2  11    3.02    2.73
  -5   2  11    0.33    5.24
   3   4   7   10.14    1.85
  -3  -4  -7   10.22    5.36
  -2   5 -11   15.68    4.81
   2  -5  11   16.90    1.85
  -5  -2  10   47.35    3.28
  -1   2 -13    2.64    3.97
   1  -2  13    9.05    2.37
  -6   5   7    2.44    3.37
  -6   5   7    6.99    2.45
  -3   8  -1   -0.90    1.86
  -4  -4   9   29.68    6.23
  -5  -4   6    5.82    4.90
  -4  -3  -7   36.25    6.64
   4   3   7   22.51    2.41
  -3   8  -2    4.57    1.73
  -7   3  -5    6.45    2.18
  -7   3  -5    7.63    6.09
  -7  -1  -1   44.48    6.25
  -5   6  -7   12.42    4.59
   5  -6   7   13.60    1.66
   2   2 -13    7.16    3.74
  -2  -2  13    8.45    2.85
  -6  -3   0    2.64    4.73
  -4  -4  -5   11.90    6.13
  -3  -6   5    4.84    5.11
  -3   8   0   28.88    2.63
  -2  -2 -11    0.56    5.36
   2   2  11    3.94    2.43
  -2   8   0   33.89    2.46
  -6  -1   9    3.24    2.21
  -6  -1   9    3.50    5.19
  -7   2  -5    6.26    5.28
  -2   8  -3   17.81    2.14
  -4   7   5   33.92    2.84
   1  -6  10    1.87    1.74
  -1   6 -10    0.75    3.66
  -7   0   7    7.93    5.04
  -7   0   7    9.54    2.29
  -2  -3 -10    6.56    5.41
   2   3  10    7.07    2.39
  -2   4  11   25.07    3.54
  -3   0  13   -0.08    2.61
   3   0 -13    0.63    3.55
   1   5   8   16.25    2.24
   0  -3  13    5.51    2.53
  -1  -5  11   12.85    6.53
  -1  -5  11   18.71    2.25
  -6   6  -5   63.95    6.33
  -6   6  -5   72.55    3.48
  -6  -3   5    8.58    4.58
  -4   2  12   20.97    5.10
  -4   2  12   25.03    3.32
   2  -3 -12   18.27    4.13
  -2   3  12   17.47    3.12
  -3  -2 -10   22.85    6.36
   3   2  10   16.18    2.24
  -2  -6   8    2.93    5.58
  -3   8  -3   15.45    2.30
  -6   1  10   10.47    5.67
  -6   1  10   17.23    2.84
  -3   6   8   17.38    2.96
  -2   6   8   33.90    3.17
  -5  -1  11    8.27    2.51
  -5  -1  11    4.16    6.13
  -1  -7   6    3.44    5.00
  -5   7   4    3.99    2.36
   2  -4  12   16.69    2.13
  -2   4 -12   12.99    4.59
  -1   7   5    1.73    1.71
  -3  -5   9   10.65    6.12
  -4  -5  -2   10.03    5.22
   0  -1 -13   48.46    5.95
   0   1  13   54.48    3.99
  -8   2   2   45.81    3.04
  -8   2   2   41.87    5.72
  -3  -6  -1   21.54    5.27
  -8   2   1   17.78    2.33
  -8   2   1   14.80    5.40
  -8   3   1    7.80    2.56
  -8   3   1    7.65    4.79
  -2   7  -8    4.75    2.83
   2  -7   8    5.85    1.24
  -3  -5  -5   -2.49    4.81
  -1   0 -13   22.40    5.48
   1   0  13   26.20    2.89
   1  -7   8    1.68    5.46
   1  -7   8    5.43    1.45
  -3   4  11   73.28    4.16
  -8   3   2    0.21    2.10
  -8   3   2    0.63    4.79
   0   7   4   14.62    1.90
   2  -6  10   28.24    1.91
  -2   6 -10   21.59    4.07
  -5   7  -5   12.35    3.12
  -5   7  -5    9.65    2.37
  -5  -4  -2   20.99    5.31
  -3   8   1   26.81    2.71
  -6   7   0   12.05    2.80
  -5  -3   9   12.24    5.78
  -3   2 -12   26.85    5.73
   3  -2  12   23.28    2.47
  -1   8  -2    0.67    1.45
  -1  -3  13   22.65    2.75
   1   3 -13   13.48    3.88
   0   6   7    3.69    1.79
   4  -2  11   16.37    2.24
   0   5   9   21.31    2.61
  -3  -1  13   34.97    3.80
  -6  -2   8   34.03    5.40
  -1  -3 -11   24.31    6.10
   1   3  11   15.41    2.71
   5   1   8    1.42    1.53
  -5  -1  -8    4.81    5.46
  -1   8  -1   15.49    1.85
  -7   5   5    2.23    3.28
  -7   5   5    7.63    2.70
  -2   8   1    1.20    1.71
   0  -6  10   41.40    2.51
   0  -6  10   32.85    6.92
  -6   7  -1   20.19    2.81
  -6   2  10    3.62    5.38
  -6   2  10   15.06    3.08
  -7   4  -5   42.61    2.84
  -7   4  -5   42.13    6.88
  -2   8  -4   31.58    2.53
  -1   3  12   22.25    3.38
   1  -3 -12   22.13    5.18
  -7   6   0   15.30    2.69
  -7   6   0   10.25    4.20
  -8   3   0    7.56    2.48
  -8   3   0    6.01    4.46
  -8   2   3   51.47    6.06
  -8   2   3   48.49    3.11
  -5  -3  -5    6.85    5.15
  -5   6   7   43.00    3.42
   3  -1 -13    8.28    3.61
  -3   1  13    5.62    2.89
  -6   7   1    1.50    2.56
   3   1  11   -0.15    2.08
  -3  -1 -11    7.32    5.46
  -6  -2  -4   12.34    5.35
  -7   6   1   62.44    3.70
  -3  -3  12    5.56    6.19
  -3  -3  12    2.96    2.64
  -7   2   8   45.09    3.45
  -7   2   8   39.11    5.77
  -8   2   0   10.43    2.25
  -8   2   0   14.08    5.25
  -6  -3  -1    8.33    5.03
   3  -3 -12   -0.19    3.52
  -3   3  12   -0.00    3.03
   1  -3  13    2.75    1.99
  -1   4  11    5.00    2.41
  -4   8  -1   15.57    2.44
  -7   5  -4   31.60    5.90
  -7   5  -4   32.96    3.03
  -7  -1   6   13.20    5.28
  -4   3 -11   -7.86    5.29
   4  -3  11    1.24    1.49
   1   2  12   28.13    3.21
  -1  -2 -12   34.80    5.99
  -8   3   3    0.88    2.50
  -8   3   3    6.06    4.91
  -7   1   8    6.62    5.29
  -7   1   8    4.85    2.28
  -6   0  10    2.47    5.04
  -6   0  10    3.34    2.67
  -5   4  10   42.11    6.36
   3   3   9    8.68    2.13
  -3  -3  -9   16.13    6.47
   6  -3   8   21.88    1.63
  -6   3  -8   22.51    5.81
  -2  -5  -7   18.68    6.01
   2   1  12   16.85    2.58
  -2  -1 -12   17.86    5.44
  -3  -6   6   10.63    5.14
  -7   6  -1    9.52    2.85
  -7   6  -1    7.37    4.23
   3  -1  12   11.91    2.55
  -3   1 -12   20.30    5.18
  -4   8   0   30.54    3.00
   6  -2   8   19.46    1.73
  -6   2  -8   24.13    6.02
   7   1   2   45.80    2.11
  -7  -1  -2   59.01    6.79
  -3   8  -4    0.72    2.00
  -1   8   0   21.00    2.05
  -4   8  -2    9.64    2.39
  -5   0  -9   16.90    6.48
   5   0   9   22.49    2.25
  -3  -4  11    9.51    2.77
  -3  -4  11   13.52    7.21
  -4  -5   7    6.86    5.06
  -3   3 -12   13.65    5.10
  -4   5 -10   15.87    5.40
   4  -5  10   18.69    1.61
  -4  -3  11   44.90    3.54
  -4  -3  11   38.93    7.02
  -7   6   2   31.37    3.12
  -5  -4   7   16.43    5.40
  -7   1  -5   43.57    6.96
   7  -1   5   33.16    1.83
  -6   5  -7    3.13    5.69
   6   0   7   23.12    1.91
  -6   0  -7   20.05    5.83
  -2   5  10   14.74    3.11
   4  -7   7    4.89    1.23
  -4   7  -7    6.23    3.05
  -3   7   6    8.58    2.48
   4  -1  11   21.21    2.53
  -4   1 -11   18.35    5.48
   7   0   4   -0.23    1.09
  -6  -3   6   19.94    5.57
  -4   6   8    1.02    2.42
  -6   7   2    6.28    2.54
  -8   3  -1    2.67    4.86
  -8   3  -1    3.18    2.31
  -5  -2  -7   20.49    5.89
   5   2   7   15.56    1.85
  -3   5  10   -1.87    2.67
  -8   1   2   24.72    5.53
  -8   1   2   28.36    2.68
  -8   2   4   24.43    5.41
  -8   2   4   33.92    3.03
  -7   4   7    5.43    2.53
  -7   4   7    7.53    3.99
  -1   6   8    8.24    1.96
  -3   8   2   25.19    2.66
   1   4  10   13.54    2.49
  -1  -4 -10   14.13    5.96
  -2  -4  12    0.29    6.43
  -2  -4  12    2.64    2.46
  -8   1   1   19.42    5.42
   3  -7   8   23.27    1.64
  -3   7  -8   22.24    3.40
  -2   7   6    0.63    2.00
  -8   4   1   29.47    5.02
  -8   4   1   36.03    3.23
  -4   8   1   27.35    2.86
  -6  -1  -6   21.50    5.78
   6   1   6   19.39    1.81
  -8   2  -1    9.12    2.50
  -8   2  -1    8.77    4.90
  -5   3  11   25.09    3.51
  -5   3  11   13.79    4.92
  -6   4   9   32.75    5.59
  -6   4   9   44.24    3.40
  -2  -4  -9   10.60    6.17
   2   4   9   11.93    2.19
  -4  -2  12   -0.43    2.66
  -5   5   9    5.01    2.91
  -2   2  13    4.68    3.11
   2  -2 -13    6.07    4.31
  -4   8  -3   14.12    2.46
   4  -6   9    6.64    1.44
  -4   6  -9    6.75    4.60
   0  -7   8    4.31    5.37
  -8   1   3   21.25    2.35
  -8   1   3   21.82    5.95
  -7   6  -2   33.84    3.15
  -7   6  -2   28.22    4.98
  -8   4   2   15.33    2.76
  -8   4   2   11.18    4.62
   3  -5  11   -0.60    1.51
  -3   5 -11    2.70    5.11
  -8   3   4   21.57    2.68
  -8   3   4   21.89    5.17
  -2   8   2    0.11    1.79
  -8   4   0   57.30    3.58
  -8   4   0   47.70    5.74
  -3  -6  -2   16.22    4.67
  -7   3   8   16.58    2.73
  -7   3   8   11.52    5.06
   2  -8   5   24.82    1.42
  -2   2 -13   14.16    5.03
  -4  -2  -9   -5.87    6.08
   4   2   9    1.48    1.68
   1  -2 -13   14.13    4.47
  -1   2  13   17.14    3.27
   4   1  10   33.34    2.70
  -4  -1 -10   40.63    6.26
  -1   8   1   16.27    2.03
   5  -2  10    3.80    1.59
  -1  -7   7    6.65    5.05
   6  -4   8   13.82    1.51
  -6   4  -8   13.98    5.49
   5  -3  10   17.34    1.84
  -5   3 -10   17.27    6.03
   5  -5   9    5.08    1.28
  -5   5  -9    3.04    5.10
  -4   4  11    2.29    2.64
  -4   4  11   -2.66    4.51
  -7   6   3   21.70    2.70
  -8   1   0   37.02    6.03
  -7  -2   2    7.12    4.88
  -2   1 -13   19.33    5.31
   2  -1  13   20.18    2.74
   2   3 -13   28.08    4.79
  -2  -3  13   26.39    3.15
  -7  -2   3   39.80    5.89
  -5   7   5    5.20    2.42
  -4  -5  -3   23.87    5.66
  -3  -2  13   15.80    3.48
  -7   0   8    7.42    2.30
  -7   0   8    9.04    5.09
   7  -3   6   10.44    1.41
  -7   3  -6   15.35    6.56
   3  -6  10    7.15    1.62
  -3   6 -10    6.07    4.29
  -6   6  -6   22.05    2.83
  -6   6  -6   20.88    5.43
  -6   3  10   -2.83    5.14
  -6   3  10   -0.50    2.65
  -6  -3  -2    8.54    5.56
  -8   4   3   18.65    2.63
  -8   4   3   13.75    4.67
  -4   7   6   33.58    2.95
  -6   5   8    8.46    2.47
   6  -1   8    6.81    1.62
  -8   1   4    9.65    5.02
  -8   1   4    5.83    2.34
  -3   8  -5   14.41    2.47
  -5  -4  -3   23.93    5.60
  -1   5  10   35.81    3.38
  -8   4  -1   31.75    2.98
  -8   4  -1   28.80    5.78
  -7  -2   1    9.25    5.25
   0   3  12   17.65    2.88
   0  -3 -12   27.11    5.97
  -6   7   3    2.16    2.46
  -4   4 -11   47.64    6.10
  -5   7  -6    9.29    2.53
  -5   7  -6   10.22    3.72
  -1  -6  10   -3.28    6.75
  -1  -6  10    0.91    2.00
  -4  -4  10   47.68    7.40
  -8   3  -2   29.59    2.81
  -8   3  -2   36.80    6.43
  -7   5   6   17.31    2.69
  -7   5   6    9.44    3.94
   7  -2   6    4.45    1.10
  -7   2  -6    7.81    6.27
   5  -6   8    6.42    1.44
  -5   6  -8    8.18    5.00
  -4   8   2    1.24    2.01
  -1   5 -12    1.40    3.86
   1  -5  12    0.26    1.85
   1   1 -14   15.82    4.33
  -1  -1  14   17.95    3.14
  -8   2   5   38.03    3.04
  -8   2   5   37.91    5.58
  -7  -1   7   41.09    5.82
   3  -2 -13   56.07    4.86
  -5   1  12   24.07    6.46
  -5   1  12   20.70    3.22
   1   1  13    5.35    2.69
  -1  -1 -13   13.39    5.59
  -7  -2   4   24.34    5.79
  -3  -6   7   32.10    6.33
   0  -5  12   16.12    2.47
   0   5 -12   17.99    4.51
  -4  -4  -6   13.38    6.36
  -4   8  -4    8.18    2.41
  -2  -6   9    7.45    6.40
  -2  -5  11    5.04    7.52
  -2  -5  11    1.64    2.20
   3   0  12   20.01    2.52
  -3   0 -12   19.98    5.63
  -4   3  12   21.96    5.75
  -4   5  10   27.14    3.28
  -5   0  12   16.67    6.24
  -5   0  12   24.50    3.15
  -8   2  -2   -2.65    5.09
  -8   2  -2   -0.57    2.33
  -7   6  -3   24.30    3.05
  -7   6  -3   16.16    4.72
   2  -3  13    0.47    2.03
  -7  -1  -3   34.95    6.14
  -7   5  -5    6.33    5.42
  -7   5  -5   -1.08    2.19
  -6  -1  10   -2.91    5.56
  -6  -1  10    2.55    2.58
   0   4  11   20.59    2.97
   0  -4 -11   29.48    5.42
  -5  -2  11   58.57    3.84
  -2  -7   5    0.50    5.37
   1   0 -14   18.40    4.79
   0  -4  13    6.73    2.32
   0   4 -13    4.14    4.13
  -8   1  -1   12.60    5.50
  -8   3   5   63.73    3.63
  -8   3   5   58.28    6.49
  -3   8   3   22.50    2.65
  -6  -3   7   15.19    4.83
  -4   0  13   42.67    3.74
  -4   0  13   32.87    6.16
   0  -1  14   25.03    3.09
   0   1 -14   21.80    4.14
  -3   4 -12    9.96    5.36
   3  -4  12   13.18    2.04
  -1   7   6    2.04    1.72
   5  -1  10   11.11    2.12
  -5   1 -10    7.84    5.67
  -3  -4  -8    3.65    6.45
  -7   4  -6   43.08    6.90
  -7   4  -6   37.52    3.27
  -7  -2   0    0.98    5.13
  -4  -5   8    3.13    5.45
   1  -7   9    7.39    1.80
   1  -7   9    8.34    5.97
  -1   8   2   27.95    2.28
  -8   4   4    0.65    2.23
  -8   4   4    0.27    3.69
  -2   7  -9    4.00    3.18
   2  -7   9    3.55    1.53
  -3  -5  10    8.79    6.50
  -4  -3  -8    4.23    5.66
  -5  -4   8   16.44    5.54
  -2   8   3    0.01    1.86
   5  -4  10    5.44    1.45
  -5   4 -10    6.03    5.14
  -7   6   4    2.40    2.83
  -4   1  13    8.81    3.14
  -4   1  13    8.53    5.72
  -6  -2  -5    6.00    5.79
   4   0  11    0.44    1.80
  -4   0 -11    1.57    5.86
  -3  -5  -6    3.43    6.14
   1  -4  13   21.16    2.46
  -1   4 -13   20.07    4.39
  -2   0  14   15.08    3.68
   2   0 -14   17.76    4.21
  -2  -1  14   -0.38    3.25
   2   1 -14   -2.79    4.16
  -5   8  -1    3.64    2.30
   0   2  13   11.76    3.03
   0  -2 -13    9.14    5.56
   1   2 -14    4.48    3.85
  -1  -2  14    5.95    3.11
  -8   1   5    1.28    2.35
  -8   1   5   -2.71    4.97
  -5  -3  10    1.39    6.35
  -8   4  -2   28.52    2.95
  -8   4  -2   26.44    5.67
   0   2 -14   21.06    4.07
   0  -2  14   30.64    3.54
   2  -8   6    7.84    1.36
  -5   8   0   12.03    2.52
  -7  -2   5   18.81    5.55
   1  -6  11    3.83    1.81
  -1   6 -11    2.52    3.63
   2   0  13   -1.06    2.44
  -2   0 -13   -0.47    5.39
  -7   2   9   28.12    3.11
  -7   2   9   17.61    5.84
  -7   1   9    0.45    5.41
  -7   1   9   -0.27    2.40
  -5  -3  -6    0.42    6.22
  -5   2  12   15.99    3.11
  -5   2  12   17.73    5.73
  -5   8  -2    3.85    2.52
   2  -5  12   39.68    2.40
  -2   5 -12   26.89    4.74
  -8   0   2    1.45    5.30
  -5   6   8   49.80    3.59
   0   0  14   -1.97    2.76
   0   0 -14    0.65    4.23
  -6   1  11    3.75    5.42
  -6   1  11   11.16    3.13
  -3   6   9   39.97    3.25
   1   4 -13   14.35    4.44
  -1  -4  13   17.23    2.75
  -7   0  -5    2.42    6.16
   7   0   5    2.04    1.03
  -4  -1  13    1.64    6.28
  -4  -1  13    1.34    2.90
  -8   0   3   -1.13    5.36
  -6   7   4    5.02    2.86
  -4   8   3   13.55    2.46
  -5   8   1    4.21    2.68
  -8   0   1    0.45    5.26
  -2   6   9   42.69    3.23
  -8   5   1   14.49    2.75
  -8   5   1   10.42    4.38
   1   5   9   14.24    2.20
   4  -7   8   -0.42    1.23
  -4   7  -8   -1.32    3.22
  -5  -5   3   27.32    5.92
  -1  -5  12    4.07    2.12
  -1  -5  12   -0.69    6.26
  -5  -5   2   -5.91    4.84
  -7   1  -6   15.58    5.55
   7  -1   6   14.44    1.47
  -8   3  -3   32.97    6.65
  -8   3  -3   25.01    2.75
   0   6   8   26.20    2.47
   3  -8   6   11.80    1.48
  -4   8  -5    2.44    2.15
  -8   5   0    0.74    3.77
  -8   5   0    0.73    2.72
  -7   4   8    6.32    2.98
  -7   4   8    4.15    4.00
   0  -6  11   25.16    7.33
   0  -6  11   17.81    2.14
  -8   2   6    6.59    2.55
  -8   2   6    7.74    5.50
  -5  -1  12   -1.47    6.31
  -5  -1  12   -0.99    2.62
  -6  -3  -3    9.85    5.06
  -2  -7   6    1.74    5.92
  -1  -7   8    0.66    6.19
   2  -6  11   35.91    2.26
  -2   6 -11   23.07    4.66
  -8   5   2   37.14    3.46
  -8   5   2   22.79    4.53
  -7  -2  -1    2.43    5.02
  -3   7   7   13.93    2.73
  -8   1  -2   34.71    6.34
  -6   5  -8    3.50    5.70
  -6   2  11   40.35    6.84
  -6   2  11   46.29    3.60
  -7   6  -4    1.31    4.57
  -7   6  -4    1.58    2.57
   0  -7   9    5.42    6.61
  -5  -5   4   12.31    4.84
  -5  -5   1    4.38    5.59
  -8   2  -3    9.07    6.08
  -8   2  -3    5.67    2.53
  -5   8  -3   27.58    2.75
  -6   0  11    7.14    2.74
  -6   0  11    1.63    5.46
  -8   0   4   21.30    6.31
  -6   6   7   16.49    3.11
  -4  -5  -4    6.56    5.21
   5   1   9    0.11    1.66
  -5  -1  -9    2.68    6.20
  -3   7  -9    6.60    3.53
   3  -7   9    6.58    1.28
  -5   7   6   -0.06    2.15
  -1   1  14    0.84    3.68
   1  -1 -14    2.80    4.24
  -8   0   0    5.53    5.14
   2  -1 -14   13.31    4.04
  -8   4   5    1.96    2.34
  -8   4   5    4.38    3.65
   2   2 -14    2.58    3.98
  -2  -2  14    2.99    2.79
   6  -3   9   -0.21    1.32
  -6   3  -9   -1.13    5.73
  -2   7   7   11.82    2.42
  -8   5  -1    0.63    2.56
  -8   5  -1    1.97    4.72
  -5  -4  -4   11.87    5.37
  -8   3   6   48.64    6.25
  -8   3   6   53.58    3.69
   2   3  11    1.42    2.38
  -2  -3 -11    4.32    5.76
  -1   1 -14   10.05    5.33
   1  -1  14    9.46    2.67
  -4  -6   3   14.19    5.21
  -4  -6   2   15.73    5.67
   1  -2  14   10.68    2.79
  -1   2 -14    5.29    4.16
  -3  -6   8   13.25    6.09
  -2   4  12   10.49    2.83
   2   2  12   11.86    2.76
  -2  -2 -12   19.36    6.62
   0   5  10    5.61    2.37
  -7  -1   8   19.92    5.26
  -7   3   9   14.54    2.81
  -7   3   9   13.94    5.37
  -3  -2 -11    8.28    6.43
   3   2  11    8.62    2.46
  -7  -2   6    8.57    4.73
  -5   8   2   35.22    3.08
  -6   2  -9   19.40    6.37
   6  -2   9   14.80    1.69
   6   0   8   13.81    1.92
  -6   0  -8   13.44    6.06
  -6   6  -7   10.25    4.59
  -8   4  -3   23.70    2.85
  -8   4  -3   28.01    6.01
  -4   2  13    2.99    5.08
  -4   2  13    5.96    3.37
   5  -7   7   34.78    1.79
  -5   7  -7   27.67    4.44
  -3   8   4   12.89    2.63
  -8   1   6    6.10    2.43
  -8   1   6    2.98    4.94
  -7   5   7   13.82    2.84
  -7   0   9   19.33    3.05
  -7   0   9   13.42    4.84
  -6  -1  -7   18.02    6.28
   6   1   7   15.84    1.85
  -4   6   9    2.08    2.54
  -8   5   3   57.24    5.74
  -8   5   3   68.40    3.72
  -5   4  11   38.21    5.98
  -3  -4  12   11.68    7.84
  -3  -4  12    5.26    3.06
  -7   6   5    0.19    2.50
  -6  -4   3   35.55    6.60
  -6  -4   2    9.40    5.19
   2  -4  13   -0.27    1.93
  -2   4 -13   -3.19    4.72
  -4  -3  12   13.99    2.91
  -4  -3  12   10.15    7.40
   3   0 -14    2.15    4.06
  -3   0  14    0.53    2.91
  -7  -1  -4    9.79    5.52
  -3   4  12   22.63    3.38
  -6  -3   8    3.53    5.20
  -4  -6   4   14.10    5.84
  -5  -2  -8   30.28    6.49
   0  -3  14    1.38    2.37
  -4  -6   1   17.22    5.75
  -3  -3  13   -5.61    6.61
  -3  -3  13    0.78    2.82
  -6   4  10   15.54    5.02
  -6   4  10   26.50    3.40
  -5  -5   5    3.49    5.03
  -4   7   7   24.13    2.89
   2  -3 -13   13.43    4.16
  -2   3  13    5.99    3.00
  -5  -5   0    3.05    5.10
   7  -3   7   14.81    1.49
  -7   3  -7   20.71    6.03
  -4   5 -11   10.27    4.94
   4  -5  11   12.48    1.68
  -7   5  -6    3.27    5.91
  -7   5  -6    1.00    2.36
   4  -2  12    9.42    2.19
   4  -6  10    2.80    1.30
  -4   6 -10    3.90    4.86
   3   3  10   12.01    2.49
  -3  -3 -10    9.77    5.97
  -2   8   4    6.70    1.95
  -6  -4   4   20.31    6.17
  -1   6   9    0.13    2.28
  -5   5  10   -0.64    2.98
  -5   0 -10   26.34    6.23
   5   0  10   30.72    2.48
  -6  -4   1   19.31    5.25
  -8   0   5   20.61    5.75
   1   3 -14   -0.93    3.94
  -1  -3  14    3.69    3.14
  -3  -1  14   14.35    3.46
   2  -8   7    0.69    1.34
  -1  -3 -12   24.38    6.73
   1   3  12   18.28    3.12
   3  -2  13   11.94    2.42
  -3   2 -13    9.10    5.11
  -4   3 -12   -5.12    5.10
   4  -3  12    3.57    1.98
  -5   8  -4   39.72    3.23
  -8   5  -2   -5.99    4.36
  -8   5  -2   -1.74    2.42
  -8   0  -1   21.52    6.12
  -6   4  -9   10.60    5.93
   6  -4   9    8.23    1.43
   7  -2   7    0.38    1.21
  -7   2  -7    3.07    6.04
  -4  -5   9    4.80    6.52
  -1   4  12    6.02    2.92
  -2  -6  10   17.89    7.53
  -4   8   4    0.87    2.48
   3   1  12    6.94    2.68
  -3  -1 -12    5.90    6.29
  -2   5  11   -0.22    2.49
  -3   5  11   19.94    3.13
  -5  -4   9    3.68    6.21
  -3   3  13    7.19    3.09
   0  -1 -14   33.67    5.85
   0   1  14   23.45    3.50
  -7  -2  -2    2.74    5.73
  -6   7   5   16.49    2.86
  -1   3  13   10.89    2.93
   1  -3 -13   16.03    5.53
  -5   5 -10   -3.74    5.48
   5  -5  10   -0.69    1.41
   1   0  14   37.64    3.65
  -1   0 -14   34.44    5.39
  -5   6  -9   27.02    5.51
   5  -6   9   21.66    1.55
  -4  -6   5    0.18    5.24
  -3   1  14    7.17    3.17
   3  -1 -14   10.40    4.73
  -4  -4  11   49.57    8.35
  -2  -7   7    8.24    5.63
  -4  -6   0    4.72    5.13
  -2  -4  13   -2.87    6.62
  -2  -4  13   -0.40    2.55
  -5   3  12    1.02    5.79
  -5   3  12    5.88    3.20
  -8   5   4   40.28    3.56
  -8   3  -4   35.90    3.16
  -8   3  -4   36.50    6.14
  -4  -2  13    5.16    2.97
   2   4  10   13.31    2.30
  -2  -4 -10   20.36    6.98
  -1  -6  11   -3.04    6.77
  -1  -6  11    2.59    2.42
   1  -3  14    3.31    2.46
  -7   7  -1    1.14    2.74
  -8   1  -3   29.63    6.66
   7  -4   7    6.50    1.29
  -7   4  -7    6.73    5.93
  -4  -4  -7   14.59    6.35
  -5   8   3   21.86    2.93
   3  -5  12    8.63    2.01
  -3   5 -12    6.32    4.75
  -8   2   7    7.26    2.63
  -8   2   7   -2.74    5.29
  -6   3  11    5.48    3.03
  -6   3  11    7.70    5.90
  -3   3 -13   22.49    5.67
   3  -6  11   18.92    1.89
  -3   6 -11   17.92    4.77
  -1  -2 -13   13.54    5.88
   1   2  13   12.34    2.82
  -6  -4   5    1.84    5.04
   3  -8   7    8.43    1.29
  -3   1 -13    3.37    5.08
   3  -1  13    1.52    2.26
   4  -1  12   23.55    2.56
  -4   1 -12   24.55    5.94
   1   4  11    1.47    2.26
  -1  -4 -11    3.60    5.58
  -1   7   7    9.29    2.14
   6  -1   9   10.89    1.95
  -6  -4   0   11.17    5.51
  -2  -1 -13    6.54    5.75
   2   1  13   10.85    2.96
  -4  -2 -10    7.99    5.69
   4   2  10    7.33    2.19
  -7   6  -5    5.84    5.10
  -7   6  -5   10.46    2.92
  -6  -1  11   12.72    6.08
  -6  -1  11   22.27    2.98
  -6  -2  -6    2.30    5.86
  -5  -5   6    1.79    4.90
  -8   4   6    1.23    2.56
  -8   4   6   -1.29    4.17
   1  -7  10    8.31    1.88
   1  -7  10    3.97    6.50
   5  -3  11   12.34    2.01
  -5   3 -11   18.44    6.12
   5  -2  11    6.54    2.11
  -5  -5  -1    8.05    5.36
  -8   2  -4   14.10    2.91
  -8   2  -4   15.27    6.45
  -7  -2   7    9.76    5.13
  -6  -3  -4   15.04    5.85
  -2   7 -10    1.99    3.16
   2  -7  10    3.41    1.52
  -2  -5  12    9.27    7.17
  -2  -5  12    9.72    2.95
  -4  -1 -11    6.89    5.50
   4   1  11    6.15    1.95
  -4   4  12    4.76    4.78
  -4   4  12    7.69    3.18
  -3  -5  11    8.17    8.08
  -7   7  -2    2.45    2.81
  -8   4  -4    1.85    5.54
  -8   4  -4    3.61    2.76
  -8   3   7   32.10    5.93
  -8   3   7   38.73    3.35
  -8   1   7   23.53    5.51
  -8   1   7   34.60    3.17
  -3  -5  -7   14.04    6.09
  -7   0  -6    0.69    5.97
   7   0   6    6.59    1.34
  -5  -2  12    1.34    2.44
  -1  -7   9    1.77    6.75
  -5  -3  11    7.32    7.19
  -7   1  10    5.76    5.69
  -7   1  10    3.71    2.91
  -8   0   6   12.67    6.28
  -7   2  10   24.07    3.49
  -7   2  10   17.97    5.53
  -8   5  -3    2.56    5.43
  -8   5  -3    1.28    2.29
  -1   5  11   25.69    3.33
   2  -2 -14    2.71    3.96
  -2   2  14    0.72    3.52
  -4   5  11   19.23    3.38
  -2  -3  14    2.22    3.30
   2   3 -14    2.39    4.08
  -7   6   6   -2.96    2.64
  -4   4 -12   26.69    6.04
  -4  -6   6    4.02    5.93
  -3  -2  14   10.45    3.60
  -5  -3  -7    2.23    5.68
  -5   8  -5   15.87    2.61
  -4   7  -9    3.46    3.70
   4  -7   9    5.50    1.47
  -4  -6  -1    5.03    5.44
  -3   8   5    5.48    2.40
   0  -5  13    8.30    2.83
   0   5 -13   12.34    4.31
  -1   5 -13   -0.09    4.18
   1  -5  13    1.31    2.13
  -4  -5  -5   14.46    6.65
  -7   4   9    2.43    2.59
  -7   4   9   -3.58    4.24
  -6   8   0   26.86    3.15
  -5   1  13   15.75    6.68
  -5   1  13   26.04    3.45
  -3  -4  -9   -1.04    6.41
  -6   8  -1   12.01    2.82
  -5   6   9   49.88    3.64
  -3  -6   9   -4.92    6.89
   7  -1   7    9.45    1.49
   2  -2  14    0.59    2.83
  -2   2 -14    7.28    5.18
  -5   0  13    5.98    6.44
  -5   0  13   -0.41    2.83
  -5   7   7   -0.47    2.41
  -6  -4   6    0.94    5.29
  -7  -1   9   19.38    6.11
  -5  -4  -5   15.37    6.57
  -4  -3  -9    7.00    7.14
  -1   2  14   19.66    3.51
   1  -2 -14   30.37    4.72
  -8   5   5   23.49    3.01
  -6   6   8    9.51    3.10
  -6  -4  -1    1.30    5.47
   0  -7  10   -2.11    6.31
  -6  -3   9    2.92    6.08
  -6   8   1   63.62    3.91
  -2   1 -14   14.18    5.26
   2  -1  14   14.70    3.15
  -8   6   1    4.01    2.59
  -4   3  13   21.03    5.97
  -5   4 -11   -1.29    6.04
   5  -4  11    0.94    1.68
  -7   5   8   29.59    3.22
  -3   7   8    3.87    2.31
  -6   8  -2    3.97    2.75
  -8   6   0    4.25    2.99
  -7  -3   3    9.17    5.16
  -5   1 -11    2.03    5.91
   5  -1  11    0.77    1.81
  -1   6 -12    7.55    4.17
   1  -6  12    9.15    2.31
  -7  -3   2   14.92    5.59
  -2   8   5   23.14    2.57
  -7  -1  -5    9.27    5.71
   5  -7   8   20.90    1.63
  -5   7  -8   14.24    3.73
  -7   7  -3    1.38    2.99
  -7  -2  -3    3.96    5.57
   0  -3 -13    3.37    5.91
   0   3  13    2.19    2.60
  -5   8   4    4.81    2.73
  -6   5  -9   20.54    5.74
   6  -5   9   17.66    1.62
  -6   1  12    2.66    5.87
  -6   1  12    3.39    3.04
  -4   8   5   -1.38    2.54
   2  -8   8    1.71    1.54
   0   4  12   39.84    3.60
   6  -6   8   19.95    1.65
  -6   6  -8   18.81    5.30
  -3   6  10    7.05    3.08
   3  -2 -14   25.81    4.41
   3  -4  13    0.12    2.04
  -3   4 -13   -0.34    4.96
  -5  -5   7   -2.28    5.68
  -7   0  10   22.81    6.57
  -7   0  10   38.41    3.57
   3  -7  10    1.98    1.59
  -3   7 -10   -0.65    3.55
   0   4 -14   39.06    4.93
   0  -4  14   41.93    3.27
  -4   0  14    8.91    6.71
  -4   0  14   25.65    3.82
  -8   6   2    3.42    2.74
  -2  -7   8    7.70    5.93
  -7  -3   4    0.12    5.31
   0   6   9   21.72    2.48
  -3   0 -13   14.47    6.19
   3   0  13   15.75    2.96
  -6   7   6   10.77    2.90
  -5  -5  -2    0.82    5.88
  -8   6  -1    7.75    3.23
   7  -5   7    0.49    1.33
  -7   5  -7   -1.36    6.03
  -2   7   8    1.52    2.22
  -7  -3   1   16.24    5.81
   4  -8   7    3.34    1.35
   2  -3  14    3.77    2.37
  -2   6  10   16.01    2.82
   0  -6  12    3.56    2.28
   0  -6  12   -4.21    6.54
  -7   3  10   17.64    5.73
  -7   3  10   23.91    3.65
  -1  -1  15    1.65    3.32
   1   1 -15    4.28    3.98
  -8   1  -4    1.78    6.48
   8  -1   4    1.37    0.99
   1   1  14    8.66    3.14
  -1  -1 -14   12.25    5.23
  -3  -7   5   10.43    6.51
  -8   3  -5   25.97    3.10
  -8   3  -5   37.33    6.72
  -6   8   2   66.61    3.88
   4   0  12    1.92    2.37
  -4   0 -12    4.59    5.98
  -5   2  13   27.02    3.53
  -5   2  13   20.30    5.82
   1   5  10   18.40    2.50
  -1  -5  13    0.16    7.76
  -1  -5  13    0.01    2.38
  -4   1  14   14.50    3.47
  -4   1  14   10.00    6.38
  -6   0  12    1.61    6.39
  -6   0  12    7.16    3.31
   2  -5  13    3.21    2.05
  -2   5 -13    3.34    4.94
  -2   6 -12    3.41    4.02
   2  -6  12    0.40    1.77
  -4   7   8    6.71    2.50
  -1   4 -14    2.64    3.91
   1  -4  14    2.24    2.52
  -6   8  -3   -0.30    2.56
  -8   2   8    2.93    2.63
  -8   2   8   -0.07    4.90
  -6   2  12   27.20    3.52
  -6   2  12   20.08    5.58
  -3   9  -1    6.47    2.05
  -8   4   7   13.17    4.61
  -8   4   7   19.89    3.04
  -4  -5  10   -1.22    6.44
  -3   9  -2    5.68    2.16
  -5  -1  13    9.55    6.69
  -5  -1  13    7.38    3.05
  -8   0   7   24.28    5.90
  -6  -1  -8    8.70    6.64
  -7   6  -6    4.28    2.65
  -7   6  -6    3.79    5.63
  -8   5  -4    7.49    5.93
  -8   5  -4   15.86    3.10
  -4  -6   7    8.65    5.58
   1   0 -15   14.58    4.53
  -5  -4  10   -5.12    7.12
  -7   3  -8   10.64    6.16
   7  -3   8    8.10    1.44
   3  -8   8   10.32    1.38
  -8  -1   5   16.26    5.60
   0   1 -15   23.09    4.65
  -1  -4  14    3.25    2.86
   1   4 -14    1.72    4.26
  -4  -6  -2   -0.40    5.41
  -6   3 -10    2.23    5.61
   6  -3  10   -0.08    1.35
  -2   9  -2    0.26    1.75
  -8   6   3    8.17    2.94
  -4  -1  14    0.28    6.15
  -4  -1  14    4.29    3.42
  -7  -3   5   -1.58    5.50
  -2   9  -1    9.14    1.94
  -4   6  10   17.27    3.32
   6   0   9    0.21    1.75
  -6   0  -9   -4.12    6.42
   2   1 -15   -0.67    3.63
  -2  -1  15    8.03    3.42
   8  -2   5   18.80    1.39
  -8   2  -5   23.03    6.29
  -1  -2  15    9.24    3.19
   1   2 -15    7.09    3.97
  -3   9   0    3.28    2.12
  -6  -4   7    0.63    4.88
  -8   4  -5    0.24    2.46
  -8   4  -5    0.32    5.93
  -8   6  -2   32.32    3.21
  -7  -3   0   28.61    6.10
   5   1  10    0.58    1.92
  -5  -1 -10    0.73    6.22
  -3   9  -3    9.51    1.97
  -2   0  15    1.57    3.26
   2   0 -15    3.55    3.85
   0   2  14   32.52    3.85
   0  -2 -14   28.83    6.56
  -8   1   8   19.79    6.11
  -8   1   8   36.34    3.41
  -5   8  -6    8.74    2.65
   6  -2  10   19.79    2.02
  -6   2 -10   18.45    6.56
   0   2 -15    7.16    4.37
   0  -2  15    9.41    3.17
  -2   9  -3   -0.95    1.81
  -6  -4  -2   -2.23    5.47
  -2  -6  11    4.98    7.51
  -6   4  11   17.94    3.45
  -6   4  11   16.36    5.45
  -7   7  -4    1.22    2.43
  -7   2  -8    1.42    6.01
   7  -2   8    0.03    1.16
   2   0  14    0.53    2.75
  -2   0 -14    3.88    5.30
  -8   3   8   19.72    3.16
  -8   3   8   12.15    4.86
  -5  -2  -9    2.71    6.40
  -6  -3  -5    6.19    5.94
  -3  -4  13    9.14    8.05
  -3  -4  13   14.63    3.33
   4  -6  11   -0.23    1.64
  -4   6 -11    0.78    4.97
  -8   5   6    9.50    3.18
  -4  -3  13   13.98    3.23
  -4  -3  13   10.66    7.32
  -7   4  -8   10.27    5.73
   7  -4   8    8.59    1.40
  -5   4  12   13.98    5.55
   0   5  11    5.90    2.27
  -3  -7   6   -1.22    6.43
  -8  -1  -1    3.02    5.84
  -4   9  -1    1.85    2.42
  -6   8   3   15.88    3.13
  -7   6   7    3.20    2.91
  -5   5  11    3.49    2.88
   0   0 -15   -1.94    4.93
   0   0  15    4.11    2.96
   5  -6  10   16.07    1.56
  -5   6 -10   17.47    5.36
  -4   9  -2    0.11    2.21
  -9   3   2   46.35    3.55
  -9   3   2   38.31    5.35
  -6   4 -10   10.45    5.22
   6  -4  10   11.84    1.56
  -9   3   1   21.60    3.22
  -9   3   1   19.47    5.05
  -1   6  10   -1.78    2.24
  -4  -4  12    2.14    7.55
  -3   9   1    0.35    1.92
  -6   8  -4   -2.33    2.52
  -6   7  -7    6.19    4.29
  -4   9   0    9.02    2.42
  -6  -2  -7   -4.03    5.82
   2   3  12    1.44    2.52
  -2  -3 -12   -3.68    5.99
   4  -5  12    6.14    1.90
  -4   5 -12    6.60    5.48
  -3   9  -4    4.40    2.27
  -1   7   8   21.91    2.62
  -1  -7  10   -0.26    7.36
  -3   8   6    4.78    2.53
  -5   8   5   33.63    2.98
  -1  -6  12    8.75    2.64
  -1  -6  12   10.77    8.40
  -3  -2 -12   -2.19    6.17
   3   2  12   -0.05    2.13
  -3  -3  14    2.73    3.05
  -3  -3  14   -4.00    7.25
  -8   6   4    9.72    3.09
  -5  -5   8    5.35    6.54
  -2   4  13   39.03    3.79
   1  -7  11   15.30    2.39
   1  -7  11    7.54    6.33
   2   2 -15   21.10    4.41
  -2  -2  15   28.47    4.13
  -4   2  14   -4.37    5.69
  -4   2  14    2.84    3.48
;
_shelx_hkl_checksum              88420
loop_
_space_group_symop_id
_space_group_symop_operation_xyz
1 +X,+Y,+Z
2 -X,-Y,-Z
loop_
_atom_site_label
_atom_site_type_symbol
_atom_site_fract_x
_atom_site_fract_y
_atom_site_fract_z
_atom_site_U_iso_or_equiv
_atom_site_adp_type
_atom_site_occupancy
_atom_site_site_symmetry_order
_atom_site_calc_flag
_atom_site_refinement_flags_posn
_atom_site_refinement_flags_adp
_atom_site_refinement_flags_occupancy
_atom_site_disorder_assembly
_atom_site_disorder_group
Se1 Se 0.20806(7) 0.16189(7) 0.44761(4) 0.0347(2) Uani 1 1 d . . . . .
O9 O 1.1144(5) 0.4572(6) 0.6605(3) 0.0478(10) Uani 1 1 d . . . . .
O11 O 1.0101(5) 0.5632(5) 0.8132(3) 0.0445(9) Uani 1 1 d . . . . .
N3 N 0.5223(6) 0.1491(6) 0.3688(3) 0.0385(10) Uani 1 1 d . . . . .
N4 N 0.3760(6) 0.0648(6) 0.2860(3) 0.0373(10) Uani 1 1 d . . . . .
C2 C 0.4702(7) 0.2086(7) 0.4561(4) 0.0321(11) Uani 1 1 d . . . . .
C5 C 0.2077(7) 0.0534(7) 0.3082(4) 0.0312(11) Uani 1 1 d . . . . .
C6 C 0.6081(6) 0.3049(6) 0.5526(4) 0.0290(11) Uani 1 1 d . . . . .
C7 C 0.7993(7) 0.3294(6) 0.5511(4) 0.0359(12) Uani 1 1 d . . . . .
H7 H 0.843462 0.287262 0.488943 0.043 Uiso 1 1 calc R U . . .
C8 C 0.9207(7) 0.4163(7) 0.6424(4) 0.0320(11) Uani 1 1 d . . . . .
C10 C 1.1762(8) 0.5495(8) 0.7691(4) 0.0427(13) Uani 1 1 d . . . . .
H10A H 1.267492 0.675538 0.770527 0.051 Uiso 1 1 calc R U . . .
H10B H 1.238955 0.476666 0.811547 0.051 Uiso 1 1 calc R U . . .
C12 C 0.8613(7) 0.4814(7) 0.7336(4) 0.0358(12) Uani 1 1 d . . . . .
C13 C 0.6708(8) 0.4556(7) 0.7359(4) 0.0418(13) Uani 1 1 d . . . . .
H13 H 0.627307 0.496123 0.798615 0.050 Uiso 1 1 calc R U . . .
C14 C 0.5474(7) 0.3695(7) 0.6444(4) 0.0392(12) Uani 1 1 d . . . . .
H14 H 0.416523 0.353428 0.643595 0.047 Uiso 1 1 calc R U . . .
C15 C 0.0371(7) -0.0280(6) 0.2289(4) 0.0309(11) Uani 1 1 d . . . . .
C16 C 0.0464(7) -0.1210(7) 0.1307(4) 0.0371(12) Uani 1 1 d . . . . .
H16 H 0.163141 -0.135605 0.116020 0.045 Uiso 1 1 calc R U . . .
C17 C -0.1150(8) -0.1935(7) 0.0530(4) 0.0406(13) Uani 1 1 d . . . . .
H17 H -0.107313 -0.259715 -0.013166 0.049 Uiso 1 1 calc R U . . .
C18 C -0.2838(8) -0.1700(7) 0.0714(4) 0.0376(12) Uani 1 1 d . . . . .
C19 C -0.2954(7) -0.0825(7) 0.1704(4) 0.0376(12) Uani 1 1 d . . . . .
H19 H -0.412818 -0.069416 0.185032 0.045 Uiso 1 1 calc R U . . .
C20 C -0.1395(7) -0.0147(7) 0.2475(4) 0.0377(12) Uani 1 1 d . . . . .
H20 H -0.151333 0.042922 0.315305 0.045 Uiso 1 1 calc R U . . .
C21 C -0.4588(8) -0.2415(8) -0.0153(4) 0.0457(14) Uani 1 1 d . . . . .
H21A H -0.493736 -0.377497 -0.032688 0.055 Uiso 1 1 calc R U . . .
H21B H -0.429995 -0.183698 -0.079702 0.055 Uiso 1 1 calc R U . . .
H21C H -0.564357 -0.208767 0.011228 0.055 Uiso 1 1 calc R U . . .
loop_
_atom_site_aniso_label
_atom_site_aniso_U_11
_atom_site_aniso_U_22
_atom_site_aniso_U_33
_atom_site_aniso_U_23
_atom_site_aniso_U_13
_atom_site_aniso_U_12
Se1 0.0318(3) 0.0433(4) 0.0328(3) 0.0018(2) 0.0065(2) 0.0179(3)
O9 0.039(2) 0.067(3) 0.038(2) -0.0038(18) -0.0012(16) 0.025(2)
O11 0.046(2) 0.057(2) 0.033(2) -0.0024(16) 0.0023(16) 0.023(2)
N3 0.036(2) 0.052(3) 0.033(2) -0.0002(19) 0.0054(18) 0.023(2)
N4 0.034(2) 0.043(3) 0.035(2) 0.0008(19) 0.0049(18) 0.015(2)
C2 0.031(3) 0.039(3) 0.035(3) 0.009(2) 0.009(2) 0.021(2)
C5 0.039(3) 0.035(3) 0.027(2) 0.005(2) 0.005(2) 0.021(2)
C6 0.027(3) 0.027(3) 0.034(3) 0.004(2) 0.004(2) 0.010(2)
C7 0.049(3) 0.038(3) 0.029(3) 0.003(2) 0.006(2) 0.028(3)
C8 0.027(3) 0.033(3) 0.039(3) 0.009(2) 0.007(2) 0.012(2)
C10 0.037(3) 0.050(3) 0.039(3) 0.005(2) -0.001(2) 0.013(3)
C12 0.041(3) 0.035(3) 0.029(3) 0.004(2) 0.000(2) 0.010(3)
C13 0.042(3) 0.046(3) 0.038(3) -0.002(2) 0.010(2) 0.017(3)
C14 0.032(3) 0.048(3) 0.041(3) 0.003(2) 0.006(2) 0.020(3)
C15 0.031(3) 0.032(3) 0.034(3) 0.008(2) 0.007(2) 0.013(2)
C16 0.037(3) 0.042(3) 0.037(3) 0.006(2) 0.008(2) 0.019(3)
C17 0.046(3) 0.043(3) 0.034(3) 0.000(2) 0.006(2) 0.018(3)
C18 0.045(3) 0.038(3) 0.033(3) 0.005(2) 0.002(2) 0.019(3)
C19 0.032(3) 0.041(3) 0.043(3) 0.005(2) 0.004(2) 0.017(3)
C20 0.042(3) 0.045(3) 0.031(3) 0.002(2) 0.007(2) 0.023(3)
C21 0.047(3) 0.047(3) 0.041(3) 0.002(3) -0.002(2) 0.017(3)
loop_
_atom_type_symbol
_atom_type_description
_atom_type_scat_dispersion_real
_atom_type_scat_dispersion_imag
_atom_type_scat_source
C C 0.0033 0.0016
;
International Tables for Crystallography
(Vol. C, Tables 4.2.6.8 and 6.1.1.4)
;
H H 0.0000 0.0000
;
International Tables for Crystallography
(Vol. C, Table 6.1.1.4)
;
N N 0.0061 0.0033
;
International Tables for Crystallography
(Vol. C, Tables 4.2.6.8 and 6.1.1.4)
;
O O 0.0106 0.0060
;
International Tables for Crystallography
(Vol. C, Tables 4.2.6.8 and 6.1.1.4)
;
Se Se -0.0929 2.2259
;
International Tables for Crystallography
(Vol. C, Tables 4.2.6.8 and 6.1.1.4)
;
loop_
_geom_angle_atom_site_label_1
_geom_angle_atom_site_label_2
_geom_angle_atom_site_label_3
_geom_angle
_geom_angle_site_symmetry_1
_geom_angle_site_symmetry_3
_geom_angle_publ_flag
C5 Se1 C2 82.6(2) . . ?
C8 O9 C10 106.6(4) . . ?
C12 O11 C10 105.8(4) . . ?
C2 N3 N4 114.5(4) . . ?
C5 N4 N3 115.3(4) . . ?
N3 C2 C6 122.0(4) . . ?
N3 C2 Se1 114.0(4) . . ?
C6 C2 Se1 123.9(3) . . ?
N4 C5 C15 122.5(4) . . ?
N4 C5 Se1 113.5(4) . . ?
C15 C5 Se1 123.9(4) . . ?
C7 C6 C14 120.2(4) . . ?
C7 C6 C2 119.3(4) . . ?
C14 C6 C2 120.5(4) . . ?
C8 C7 C6 117.2(4) . . ?
C8 C7 H7 121.4 . . ?
C6 C7 H7 121.4 . . ?
C7 C8 O9 128.1(5) . . ?
C7 C8 C12 122.8(5) . . ?
O9 C8 C12 109.1(4) . . ?
O9 C10 O11 107.3(4) . . ?
O9 C10 H10A 110.3 . . ?
O11 C10 H10A 110.3 . . ?
O9 C10 H10B 110.3 . . ?
O11 C10 H10B 110.3 . . ?
H10A C10 H10B 108.5 . . ?
O11 C12 C8 111.2(4) . . ?
O11 C12 C13 128.7(5) . . ?
C8 C12 C13 120.2(4) . . ?
C14 C13 C12 117.6(5) . . ?
C14 C13 H13 121.2 . . ?
C12 C13 H13 121.2 . . ?
C13 C14 C6 122.0(5) . . ?
C13 C14 H14 119.0 . . ?
C6 C14 H14 119.0 . . ?
C16 C15 C20 117.4(5) . . ?
C16 C15 C5 120.3(4) . . ?
C20 C15 C5 122.4(5) . . ?
C15 C16 C17 120.6(5) . . ?
C15 C16 H16 119.7 . . ?
C17 C16 H16 119.7 . . ?
C18 C17 C16 120.7(5) . . ?
C18 C17 H17 119.6 . . ?
C16 C17 H17 119.6 . . ?
C17 C18 C19 118.9(5) . . ?
C17 C18 C21 121.0(5) . . ?
C19 C18 C21 120.1(5) . . ?
C20 C19 C18 120.6(5) . . ?
C20 C19 H19 119.7 . . ?
C18 C19 H19 119.7 . . ?
C19 C20 C15 121.6(5) . . ?
C19 C20 H20 119.2 . . ?
C15 C20 H20 119.2 . . ?
C18 C21 H21A 109.5 . . ?
C18 C21 H21B 109.5 . . ?
H21A C21 H21B 109.5 . . ?
C18 C21 H21C 109.5 . . ?
H21A C21 H21C 109.5 . . ?
H21B C21 H21C 109.5 . . ?
loop_
_geom_bond_atom_site_label_1
_geom_bond_atom_site_label_2
_geom_bond_distance
_geom_bond_site_symmetry_2
_geom_bond_publ_flag
Se1 C5 1.873(5) . ?
Se1 C2 1.876(5) . ?
O9 C8 1.377(6) . ?
O9 C10 1.440(6) . ?
O11 C12 1.363(6) . ?
O11 C10 1.446(7) . ?
N3 C2 1.297(6) . ?
N3 N4 1.380(6) . ?
N4 C5 1.301(6) . ?
C2 C6 1.480(7) . ?
C5 C15 1.464(7) . ?
C6 C7 1.391(7) . ?
C6 C14 1.392(7) . ?
C7 C8 1.364(7) . ?
C7 H7 0.9500 . ?
C8 C12 1.382(7) . ?
C10 H10A 0.9900 . ?
C10 H10B 0.9900 . ?
C12 C13 1.384(7) . ?
C13 C14 1.370(7) . ?
C13 H13 0.9500 . ?
C14 H14 0.9500 . ?
C15 C16 1.388(7) . ?
C15 C20 1.400(7) . ?
C16 C17 1.403(7) . ?
C16 H16 0.9500 . ?
C17 C18 1.370(8) . ?
C17 H17 0.9500 . ?
C18 C19 1.385(7) . ?
C18 C21 1.536(7) . ?
C19 C20 1.368(7) . ?
C19 H19 0.9500 . ?
C20 H20 0.9500 . ?
C21 H21A 0.9800 . ?
C21 H21B 0.9800 . ?
C21 H21C 0.9800 . ?
loop_
_geom_torsion_atom_site_label_1
_geom_torsion_atom_site_label_2
_geom_torsion_atom_site_label_3
_geom_torsion_atom_site_label_4
_geom_torsion
_geom_torsion_site_symmetry_1
_geom_torsion_site_symmetry_2
_geom_torsion_site_symmetry_3
_geom_torsion_site_symmetry_4
_geom_torsion_publ_flag
C2 N3 N4 C5 -1.6(6) . . . . ?
N4 N3 C2 C6 -179.1(4) . . . . ?
N4 N3 C2 Se1 0.7(5) . . . . ?
C5 Se1 C2 N3 0.1(4) . . . . ?
C5 Se1 C2 C6 180.0(4) . . . . ?
N3 N4 C5 C15 178.6(4) . . . . ?
N3 N4 C5 Se1 1.7(5) . . . . ?
C2 Se1 C5 N4 -1.0(4) . . . . ?
C2 Se1 C5 C15 -177.9(4) . . . . ?
N3 C2 C6 C7 -1.4(7) . . . . ?
Se1 C2 C6 C7 178.8(3) . . . . ?
N3 C2 C6 C14 179.0(4) . . . . ?
Se1 C2 C6 C14 -0.8(7) . . . . ?
C14 C6 C7 C8 0.6(7) . . . . ?
C2 C6 C7 C8 -179.0(4) . . . . ?
C6 C7 C8 O9 -179.7(4) . . . . ?
C6 C7 C8 C12 -0.9(7) . . . . ?
C10 O9 C8 C7 179.9(5) . . . . ?
C10 O9 C8 C12 1.0(5) . . . . ?
C8 O9 C10 O11 -0.9(5) . . . . ?
C12 O11 C10 O9 0.4(5) . . . . ?
C10 O11 C12 C8 0.2(5) . . . . ?
C10 O11 C12 C13 178.7(5) . . . . ?
C7 C8 C12 O11 -179.7(4) . . . . ?
O9 C8 C12 O11 -0.7(6) . . . . ?
C7 C8 C12 C13 1.6(8) . . . . ?
O9 C8 C12 C13 -179.4(4) . . . . ?
O11 C12 C13 C14 179.6(5) . . . . ?
C8 C12 C13 C14 -1.9(8) . . . . ?
C12 C13 C14 C6 1.7(8) . . . . ?
C7 C6 C14 C13 -1.0(8) . . . . ?
C2 C6 C14 C13 178.5(5) . . . . ?
N4 C5 C15 C16 9.4(7) . . . . ?
Se1 C5 C15 C16 -174.0(3) . . . . ?
N4 C5 C15 C20 -170.0(5) . . . . ?
Se1 C5 C15 C20 6.6(7) . . . . ?
C20 C15 C16 C17 1.6(7) . . . . ?
C5 C15 C16 C17 -177.7(4) . . . . ?
C15 C16 C17 C18 1.7(8) . . . . ?
C16 C17 C18 C19 -3.6(8) . . . . ?
C16 C17 C18 C21 177.3(4) . . . . ?
C17 C18 C19 C20 2.3(8) . . . . ?
C21 C18 C19 C20 -178.6(5) . . . . ?
C18 C19 C20 C15 1.1(8) . . . . ?
C16 C15 C20 C19 -3.0(7) . . . . ?
C5 C15 C20 C19 176.4(5) . . . . ?
