#------------------------------------------------------------------------------
#$Date: 2020-07-02 00:17:53 +0300 (Thu, 02 Jul 2020) $
#$Revision: 253627 $
#$URL: file:///home/coder/svn-repositories/cod/cif/4/51/78/4517827.cif $
#------------------------------------------------------------------------------
#
# This file is available in the Crystallography Open Database (COD),
# http://www.crystallography.net/
#
# All data on this site have been placed in the public domain by the
# contributors.
#
data_4517827
loop_
_publ_author_name
'Yu, Qiong'
'Yang, Hongwei'
'Imler, Gregory H.'
'Parrish, Damon A.'
'Cheng, Guangbin'
'Shreeve, Jean'ne M.'
_publ_section_title
;
 Derivatives of 3,6-Bis(3-aminofurazan-4-ylamino)-1,2,4,5-tetrazine:
 Excellent Energetic Properties with Lower Sensitivities.
;
_journal_name_full               'ACS applied materials &amp; interfaces'
_journal_paper_doi               10.1021/acsami.0c08526
_journal_year                    2020
_chemical_formula_moiety         'C10 H6 N20 O18, 2(C H2 Cl2)'
_chemical_formula_sum            'C6 H5 Cl2 N10 O9'
_chemical_formula_weight         432.10
_space_group_crystal_system      triclinic
_space_group_IT_number           2
_space_group_name_Hall           '-P 1'
_space_group_name_H-M_alt        'P -1'
_atom_sites_solution_hydrogens   mixed
_audit_creation_method           SHELXL-2014/7
_cell_angle_alpha                86.144(6)
_cell_angle_beta                 88.008(6)
_cell_angle_gamma                73.919(6)
_cell_formula_units_Z            2
_cell_length_a                   6.2712(12)
_cell_length_b                   8.2089(16)
_cell_length_c                   15.652(3)
_cell_measurement_reflns_used    2560
_cell_measurement_temperature    173(2)
_cell_measurement_theta_max      25.32
_cell_measurement_theta_min      3.38
_cell_volume                     772.4(3)
_computing_structure_refinement  'SHELXL-2014/7 (Sheldrick, 2014)'
_diffrn_ambient_temperature      173(2)
_diffrn_measured_fraction_theta_full 0.993
_diffrn_measured_fraction_theta_max 0.988
_diffrn_measurement_device_type  'PHOTON 100 CMOS detector'
_diffrn_measurement_method       'omega scan'
_diffrn_radiation_type           MoK\a
_diffrn_radiation_wavelength     0.71073
_diffrn_reflns_av_R_equivalents  0.0451
_diffrn_reflns_av_unetI/netI     0.0515
_diffrn_reflns_Laue_measured_fraction_full 0.993
_diffrn_reflns_Laue_measured_fraction_max 0.988
_diffrn_reflns_limit_h_max       7
_diffrn_reflns_limit_h_min       -7
_diffrn_reflns_limit_k_max       9
_diffrn_reflns_limit_k_min       -9
_diffrn_reflns_limit_l_max       18
_diffrn_reflns_limit_l_min       -18
_diffrn_reflns_number            8156
_diffrn_reflns_point_group_measured_fraction_full 0.993
_diffrn_reflns_point_group_measured_fraction_max 0.988
_diffrn_reflns_theta_full        25.242
_diffrn_reflns_theta_max         25.418
_diffrn_reflns_theta_min         2.967
_diffrn_source                   'fine-focus sealed tube'
_exptl_absorpt_coefficient_mu    0.496
_exptl_absorpt_correction_T_max  0.7452
_exptl_absorpt_correction_T_min  0.6183
_exptl_absorpt_correction_type   multi-scan
_exptl_absorpt_process_details   'SADABS (Bruker, 2014)'
_exptl_crystal_density_diffrn    1.858
_exptl_crystal_description       plate
_exptl_crystal_F_000             434
_exptl_crystal_size_max          0.250
_exptl_crystal_size_mid          0.230
_exptl_crystal_size_min          0.130
_refine_diff_density_max         0.508
_refine_diff_density_min         -0.450
_refine_diff_density_rms         0.099
_refine_ls_extinction_method     none
_refine_ls_goodness_of_fit_ref   1.044
_refine_ls_hydrogen_treatment    mixed
_refine_ls_matrix_type           full
_refine_ls_number_parameters     275
_refine_ls_number_reflns         2814
_refine_ls_number_restraints     82
_refine_ls_restrained_S_all      1.033
_refine_ls_R_factor_all          0.1134
_refine_ls_R_factor_gt           0.0760
_refine_ls_shift/su_max          0.003
_refine_ls_shift/su_mean         0.000
_refine_ls_structure_factor_coef Fsqd
_refine_ls_weighting_details
'w=1/[\s^2^(Fo^2^)+(0.0822P)^2^+3.3701P] where P=(Fo^2^+2Fc^2^)/3'
_refine_ls_weighting_scheme      calc
_refine_ls_wR_factor_gt          0.1939
_refine_ls_wR_factor_ref         0.2164
_reflns_Friedel_coverage         0.000
_reflns_number_gt                1908
_reflns_number_total             2814
_reflns_threshold_expression     'I > 2\s(I)'
_cod_data_source_file            am0c08526_si_003.cif
_cod_data_source_block           1
_cod_database_code               4517827
_shelx_shelxl_version_number     2014/7
_shelx_space_group_comment
;
The symmetry employed for this shelxl refinement is uniquely defined
by the following loop, which should always be used as a source of
symmetry information in preference to the above space-group names.
They are only intended as comments.
;
_shelx_estimated_absorpt_t_min   0.886
_shelx_estimated_absorpt_t_max   0.938
_shelx_res_file
;

    1.res created by SHELXL-2014/7


TITL 1 in P-1
CELL 0.71073   6.2712   8.2089  15.6517  86.144  88.008  73.919
ZERR    2.00   0.0012   0.0016   0.0032   0.006   0.006   0.006
LATT 1
SFAC C  H  N  O  Cl
UNIT 12 10 20 18 4
omit -2  -1   3
omit -2  -3   4
L.S. 10
ACTA
BOND $h
FMAP 2
PLAN 20
sadi n6 o8a n6 o9a n6 o8z n6 o9z
sadi .03 o8a o9a o8z o9z
sadi .02 n10a o8a n10a o9a n10z o8z n10z o9z
sadi .02 n6 n10a n6 n10z
flat n6 n10z o8z o9z
flat n6 n10a o8a o9a
size 0.25 0.23 0.13
simu .02 .03 n10a > o9z
TEMP -100.150
WGHT    0.082200    3.370120
FVAR       0.25546   0.36163
MOLE 1
C1    1    0.633597   -0.135542    0.974241    11.00000    0.02316    0.01698 =
         0.02455    0.00308    0.00098    0.00301
C4    1    0.968373    0.036328    0.716009    11.00000    0.03493    0.01649 =
         0.02609    0.00227   -0.00120   -0.00398
AFIX  23
H4A   2    0.909487    0.044501    0.657531    11.00000   -1.20000
H4B   2    1.131191   -0.013345    0.712646    11.00000   -1.20000
AFIX   0
C5    1    0.917607    0.212945    0.749174    11.00000    0.05442    0.01683 =
         0.02800    0.00399   -0.00719   -0.00772
C6    1    0.772529    0.353891    0.439196    11.00000    0.10893    0.05599 =
         0.06134    0.01246    0.01809    0.01094
AFIX  23
H6A   2    0.736974    0.456953    0.472286    11.00000   -1.20000
H6B   2    0.706432    0.386922    0.381912    11.00000   -1.20000
AFIX   0
CL1   5    1.062629    0.277998    0.427067    11.00000    0.09778    0.05564 =
         0.04831   -0.00454   -0.01430   -0.00260
CL2   5    0.652288    0.206178    0.490766    11.00000    0.12454    0.08053 =
         0.08853    0.01931   -0.03323   -0.04675
N1    3    0.322320   -0.011268    1.051198    11.00000    0.02450    0.01898 =
         0.03035   -0.00062    0.00604    0.00311
N2    3    0.461795   -0.153910    1.024137    11.00000    0.02771    0.01841 =
         0.02878    0.00182    0.00415    0.00140
N3    3    0.775887   -0.283916    0.949242    11.00000    0.02661    0.01664 =
         0.03599    0.00663    0.01124    0.00176
H3    2    0.771887   -0.370958    0.974625    11.00000   -1.20000
N6    3    0.869797   -0.075441    0.771802    11.00000    0.02343    0.02027 =
         0.02914    0.00081    0.00036   -0.00410
N7    3    1.055470    0.315435    0.698287    11.00000    0.06681    0.03054 =
         0.03479    0.01009   -0.00891   -0.02347
N8    3    0.674768    0.311088    0.739845    11.00000    0.06258    0.02378 =
         0.04169   -0.00236   -0.00379    0.00954
N9    3    0.983181    0.212003    0.841950    11.00000    0.08474    0.02803 =
         0.02824    0.00010   -0.00544   -0.02527
O2    4    1.123040    0.267970    0.628091    11.00000    0.10192    0.04295 =
         0.04198    0.00155    0.01083   -0.03682
O3    4    1.080229    0.436458    0.733024    11.00000    0.10741    0.03944 =
         0.05258    0.00040   -0.01152   -0.03683
O4    4    0.632811    0.420980    0.682614    11.00000    0.08457    0.04420 =
         0.06909    0.02349   -0.02994   -0.00800
O5    4    0.546527    0.264628    0.788352    11.00000    0.06387    0.05991 =
         0.06424    0.01728    0.02682    0.02832
O6    4    0.874892    0.323533    0.885159    11.00000    0.12900    0.04407 =
         0.03996   -0.01610    0.00660   -0.02844
O7    4    1.149358    0.099563    0.862455    11.00000    0.07219    0.04917 =
         0.04105    0.01135   -0.02246   -0.02971
PART 1
N10A  3    0.659948   -0.086331    0.746115    21.00000    0.01140    0.07451 =
         0.04368    0.00023    0.00235   -0.01090
O8A   4    0.600557   -0.204442    0.782861    21.00000    0.01687    0.08993 =
         0.06283    0.01599    0.00395   -0.02003
O9A   4    0.559553    0.022328    0.694213    21.00000    0.02185    0.07834 =
         0.03873    0.00692    0.00607    0.00435
PART 2
N10Z  3    0.689150   -0.118226    0.736571   -21.00000    0.02041    0.05189 =
         0.03907    0.00427    0.00269   -0.00452
O8Z   4    0.662688   -0.256501    0.765061   -21.00000    0.02764    0.07566 =
         0.06189    0.01839   -0.00117   -0.03160
O9Z   4    0.577760   -0.020064    0.683405   -21.00000    0.03186    0.06918 =
         0.04798    0.00993   -0.00960    0.00344
PART 0
O1    4    1.303681   -0.398102    0.856906    11.00000    0.02106    0.03215 =
         0.05235    0.01391    0.00874    0.00348
N4    3    1.208527   -0.274877    0.795573    11.00000    0.02437    0.02320 =
         0.04358    0.00876    0.00299   -0.00139
C2    1    1.006177   -0.209831    0.820889    11.00000    0.01948    0.01840 =
         0.02982   -0.00204    0.00079   -0.00371
C3    1    0.967280   -0.294997    0.900942    11.00000    0.02182    0.01172 =
         0.03542   -0.00230    0.00599   -0.00202
N5    3    1.150387   -0.409793    0.921492    11.00000    0.02168    0.02091 =
         0.04331    0.00378    0.00617    0.00039
HKLF 4

REM  1 in P-1
REM R1 =  0.0760 for    1908 Fo > 4sig(Fo)  and  0.1134 for all    2814 data
REM    275 parameters refined using     82 restraints

END

WGHT      0.1170      2.1487

REM Highest difference peak  0.508,  deepest hole -0.450,  1-sigma level  0.099
Q1    1   1.0256  0.4091  0.3478  11.00000  0.05    0.51
Q2    1   0.7630  0.0670  0.5382  11.00000  0.05    0.47
Q3    1   0.7662  0.2256  0.4024  11.00000  0.05    0.46
Q4    1   0.5013 -0.0892  0.5788  11.00000  0.05    0.46
Q5    1   0.6457  0.2052  0.6218  11.00000  0.05    0.40
Q6    1   0.6936  0.2626  0.4198  11.00000  0.05    0.40
Q7    1   0.5521  0.3214  0.6577  11.00000  0.05    0.39
Q8    1   1.3113  0.2381  0.3903  11.00000  0.05    0.37
Q9    1   0.9015 -0.0525  0.8266  11.00000  0.05    0.36
Q10   1   0.6201 -0.3058  0.6993  11.00000  0.05    0.36
Q11   1   0.3282  0.2779  0.5175  11.00000  0.05    0.36
Q12   1   0.6048 -0.3990  1.0482  11.00000  0.05    0.35
Q13   1   1.2578  0.3576  0.4547  11.00000  0.05    0.35
Q14   1   0.7820  0.0959  0.6460  11.00000  0.05    0.34
Q15   1   1.2554 -0.1611  0.7575  11.00000  0.05    0.34
Q16   1   0.6581  0.2959  0.4406  11.00000  0.05    0.34
Q17   1   0.7156  0.4238  0.5029  11.00000  0.05    0.34
Q18   1   1.3134  0.0784  0.9191  11.00000  0.05    0.33
Q19   1   1.1718  0.1279  0.7742  11.00000  0.05    0.33
Q20   1   0.8222 -0.4163  0.7206  11.00000  0.05    0.32
;
_shelx_res_checksum              52847
_shelx_hkl_file
;
  -1   0   0  163.66    3.88
  -1   0   0  169.52    3.94
   1   0   0  170.40    3.94
  -2   0   0   14.24    0.58
  -2   0   0   16.33    0.74
   2   0   0   17.86    0.76
  -3   0   0   78.17    1.94
  -3   0   0   74.45    2.11
  -3   0   0   75.87    1.94
   3   0   0   77.05    2.14
  -4   0   0   13.28    0.72
  -4   0   0   13.35    0.90
  -4   0   0   13.83    0.69
   4   0   0   13.28    0.93
  -5   0   0    0.15    0.42
  -5   0   0   -0.07    0.41
  -5   0   0   -0.16    0.52
   5   0   0    0.13    0.60
  -6   0   0    7.87    0.90
  -6   0   0    5.52    0.92
  -6   0   0    6.31    0.67
  -7   0   0    1.30    1.02
  -7   1   0   -0.56    0.88
  -7   1   0    0.85    1.15
  -7   1   0    1.73    0.88
  -6   1   0    4.99    0.96
  -6   1   0    6.28    0.83
  -6   1   0    5.54    0.77
  -5   1   0    0.94    0.61
  -5   1   0   -0.17    0.50
  -5   1   0   -0.25    0.51
  -4   1   0    3.55    0.51
  -4   1   0    2.54    0.54
  -4   1   0    2.50    0.48
  -3   1   0   14.51    0.80
  -3   1   0   14.67    0.74
  -2   1   0  213.31    4.98
  -2   1   0  203.60    4.94
   1  -1   0  102.78    2.52
  -1   1   0  104.92    2.53
  -1  -1   0    1.84    0.24
  -1  -1   0    1.93    0.16
   1   1   0    1.72    0.23
   1   1   0    2.04    0.24
  -2  -1   0   51.30    1.47
   2   1   0   50.00    1.46
  -3  -1   0    7.90    0.68
   3   1   0    7.16    0.70
  -4  -1   0   26.19    1.16
   4   1   0   24.65    1.16
  -5  -1   0   -0.21    0.59
   5   1   0    0.33    0.56
  -6  -1   0    0.97    0.60
   6   1   0    1.82    0.69
  -7  -1   0    0.44    0.93
  -6   2   0   -0.44    0.82
  -6   2   0    1.40    0.94
  -6   2   0    1.50    0.86
  -5   2   0   44.84    1.76
  -5   2   0   40.99    1.76
  -5   2   0   41.71    1.69
  -4   2   0   11.05    0.94
  -4   2   0    9.95    0.96
  -4   2   0   11.14    0.99
  -3   2   0   27.52    1.07
  -3   2   0   25.40    1.08
  -2   2   0   50.59    1.44
  -2   2   0   51.43    1.51
   1  -2   0   12.31    0.67
  -1   2   0   11.92    0.68
   0  -2   0  666.96   15.28
   0  -2   0  677.11   15.40
   0   2   0  658.27   15.35
   0   2   0  651.79   15.28
  -1  -2   0  430.69    9.90
  -1  -2   0  423.13    9.86
   1   2   0  424.47    9.90
   1   2   0  429.33    9.86
  -2  -2   0    6.18    0.63
  -2  -2   0    4.56    0.37
   2   2   0    5.32    0.61
  -3  -2   0    1.03    0.39
   3   2   0    0.61    0.35
   4   2   0    0.66    0.44
  -5  -2   0   21.40    1.27
  -6  -2   0    3.20    0.66
   6   2   0    2.98    0.75
  -7  -2   0    3.20    0.85
  -6   3   0    1.20    0.99
  -6   3   0    2.28    1.08
  -6   3   0    0.71    1.05
  -5   3   0    2.67    0.90
  -5   3   0    2.90    0.80
  -5   3   0    3.39    0.90
  -4   3   0    1.83    0.60
  -4   3   0    1.78    0.65
  -3   3   0   10.99    0.82
  -3   3   0    9.24    0.95
  -2   3   0    9.43    0.77
  -2   3   0   10.43    0.72
   1  -3   0   25.65    1.01
  -1   3   0   26.51    1.04
  -1   3   0   28.41    0.93
   0  -3   0  108.91    2.69
   0  -3   0  105.98    2.77
   0   3   0  109.09    2.78
   0   3   0  109.89    2.68
  -1  -3   0   58.14    1.60
  -1  -3   0   56.64    1.58
   1   3   0   56.82    1.60
   1   3   0   57.65    1.60
  -3  -3   0    5.25    0.70
  -3  -3   0    5.14    0.43
   3   3   0    5.15    0.47
   3   3   0    4.78    0.72
  -4  -3   0   14.99    1.00
   4   3   0   14.91    1.04
  -5  -3   0    2.35    0.56
   5   3   0    1.43    0.57
  -6  -3   0    0.11    0.62
   6   3   0    0.13    0.55
  -7  -3   0   -0.04    0.72
   7   3   0    0.84    0.90
  -5   4   0    4.90    1.49
  -5   4   0    2.82    0.91
  -5   4   0    3.19    1.03
  -4   4   0    9.59    1.08
  -4   4   0   10.11    1.30
  -4   4   0    8.54    1.34
  -3   4   0   23.40    1.25
  -3   4   0   23.86    1.35
  -3   4   0   24.14    1.15
  -2   4   0   40.26    1.42
  -2   4   0   41.85    1.53
   1  -4   0   94.43    2.63
  -1   4   0   97.68    2.52
  -1   4   0   98.16    2.67
   0  -4   0   58.87    1.67
   0  -4   0   61.01    1.79
   0   4   0   60.98    1.81
   0   4   0   59.16    1.67
  -1  -4   0    8.78    0.69
  -1  -4   0    6.97    0.63
   1   4   0    7.28    0.67
   1   4   0    7.25    0.67
  -2  -4   0   19.56    0.82
  -2  -4   0   20.56    0.94
   2   4   0   19.82    0.86
   2   4   0   20.53    0.96
  -3  -4   0   -0.12    0.27
  -3  -4   0    0.41    0.41
   3   4   0   -0.08    0.29
   3   4   0   -0.15    0.35
  -4  -4   0    1.57    0.49
  -4  -4   0    1.52    0.33
   4   4   0    1.71    0.36
  -5  -4   0    4.86    0.73
   5   4   0    5.41    0.77
  -7  -4   0    0.55    0.67
   7   4   0    3.18    0.89
  -5   5   0    0.15    1.81
  -5   5   0    0.34    1.11
  -5   5   0    1.17    1.21
  -5   5   0   -0.01    0.97
  -4   5   0    0.78    0.89
  -4   5   0    0.84    0.87
  -4   5   0    1.06    0.70
  -3   5   0    7.66    0.87
  -3   5   0    7.33    0.90
  -3   5   0    6.88    0.96
  -2   5   0   11.41    1.69
  -2   5   0   11.86    1.08
   1  -5   0    8.44    0.83
  -1   5   0    9.23    0.96
  -1   5   0    9.36    0.89
   0  -5   0    0.05    0.37
   0  -5   0    0.19    0.38
   0   5   0    0.03    0.40
   0   5   0    0.40    0.41
  -1  -5   0   51.65    1.65
  -1  -5   0   54.52    1.67
   1   5   0   52.04    1.69
   1   5   0   53.11    1.66
  -2  -5   0   17.73    0.90
  -2  -5   0   17.82    0.99
   2   5   0   19.45    0.97
   2   5   0   18.41    1.00
  -3  -5   0   15.36    0.86
  -3  -5   0   16.11    1.02
   3   5   0   15.20    0.88
   3   5   0   15.00    1.04
  -4  -5   0    1.97    1.00
  -4  -5   0   -0.16    0.35
   4   5   0    0.58    0.42
   4   5   0   -0.35    0.72
  -5  -5   0    1.25    0.50
  -5  -5   0    0.73    0.36
   5   5   0   -0.11    0.43
   5   5   0    0.51    0.51
  -6  -5   0    6.90    1.00
   6   5   0    8.00    1.17
  -7  -5   0    2.72    0.73
   7   5   0    1.21    0.86
  -4   6   0    6.22    1.21
  -4   6   0    5.63    1.23
  -4   6   0    5.60    0.95
  -3   6   0   -0.68    0.70
  -3   6   0   -0.01    0.85
  -3   6   0   -1.02    0.71
  -2   6   0    2.00    0.72
  -2   6   0    2.51    0.62
   1  -6   0   63.28    2.03
  -1   6   0   58.80    1.94
  -1   6   0   62.18    2.10
   0  -6   0   14.89    1.05
   0  -6   0   13.65    1.51
   0   6   0   15.97    1.05
   0   6   0   15.79    1.20
  -1  -6   0    8.77    1.00
  -1  -6   0   10.02    0.86
   1   6   0    9.94    0.98
   1   6   0   10.58    0.96
  -2  -6   0   20.92    1.07
  -2  -6   0   17.56    1.16
   2   6   0   18.53    1.16
   2   6   0   20.49    1.14
  -3  -6   0   31.91    1.42
  -3  -6   0   33.84    1.32
   3   6   0   31.96    1.49
   3   6   0   31.22    1.33
  -4  -6   0   64.83    1.96
  -4  -6   0   61.77    2.15
   4   6   0   63.48    2.21
   4   6   0   64.71    1.97
  -5  -6   0    1.52    0.50
  -5  -6   0    0.87    0.46
   5   6   0    1.56    0.57
   5   6   0    1.61    0.57
  -6  -6   0   -0.27    0.55
   6   6   0   -0.52    0.65
  -3   7   0   -0.87    0.80
  -3   7   0    0.63    0.98
  -3   7   0    0.75    0.91
  -2   7   0    0.09    0.80
  -2   7   0    1.34    0.67
  -1   7   0    4.81    0.78
  -1   7   0    7.02    1.06
   0  -7   0   26.20    1.41
   0  -7   0   30.24    1.27
   0   7   0   25.57    1.44
   0   7   0   30.70    1.44
  -1  -7   0    3.43    0.53
  -1  -7   0    2.86    0.67
   1   7   0    3.59    0.69
  -2  -7   0    0.34    0.60
   2   7   0    0.82    0.64
   2   7   0    0.96    0.65
  -3  -7   0    0.97    0.54
  -3  -7   0    0.27    0.58
   3   7   0    1.14    0.60
   3   7   0    0.44    0.76
  -4  -7   0    0.10    0.61
  -4  -7   0    1.32    0.59
   4   7   0    0.76    0.59
   4   7   0    1.07    0.75
  -5  -7   0    4.99    0.72
  -5  -7   0    4.18    0.77
   5   7   0    4.10    0.82
   5   7   0    4.39    0.76
   6   7   0    1.17    0.76
   6   7   0    2.43    0.85
  -2   8   0   -0.22    0.93
  -2   8   0    3.15    0.83
  -1   8   0    7.66    1.02
   0  -8   0    3.99    0.84
   0   8   0    3.36    0.86
  -1  -8   0    8.04    1.26
   1   8   0   10.72    1.17
   1   8   0    7.01    0.96
  -2  -8   0   10.53    1.06
   2   8   0    9.06    1.25
  -3  -8   0    7.16    1.11
  -3  -8   0    4.75    0.85
   3   8   0    5.27    0.89
   3   8   0    5.89    1.04
  -4  -8   0    2.58    0.70
   4   8   0    2.16    0.79
   4   8   0    2.33    0.96
  -5  -8   0    2.43    1.20
  -5  -8   0    0.41    0.72
   5   8   0    1.97    1.04
   5   8   0    1.53    0.92
  -1   9   0   -0.12    1.05
   0  -9   0   -0.19    0.95
   0   9   0    2.90    0.78
   0   9   0    0.58    1.02
  -1  -9   0    1.95    0.66
  -1  -9   0    1.65    1.15
   1   9   0    0.33    0.74
  -2  -9   0    5.94    1.10
   2   9   0    7.62    1.07
   2   9   0    7.42    1.20
  -3  -9   0    5.77    1.05
  -3  -9   0    6.70    0.96
   3   9   0    6.20    1.21
   3   9   0    4.37    1.02
  -4  -9   0    1.18    0.94
  -4  -9   0    2.48    1.02
   4   9   0    2.08    1.00
   4   9   0    1.28    1.14
   4   9  -1    1.12    0.99
   4   9  -1    3.08    1.14
  -4  -9   1    1.85    0.97
  -4  -9   1    0.76    1.15
   3   9  -1   -0.91    1.01
   3   9  -1   -0.19    0.85
  -3  -9   1   -0.72    0.72
  -3  -9   1   -0.07    0.92
   2   9  -1    1.31    0.89
   2   9  -1    2.19    1.06
  -2  -9   1    2.16    0.70
  -2  -9   1    1.26    1.00
   1   9  -1    3.37    0.82
   1   9  -1    4.02    1.02
  -1  -9   1    4.40    1.06
  -1  -9   1    5.17    0.73
   0   9  -1    2.07    0.78
   0   9  -1   -0.11    0.91
   0  -9   1    2.80    0.73
  -1   9  -1    1.46    0.99
   5   8  -1    2.17    1.03
   5   8  -1    1.39    0.84
  -5  -8   1    1.38    0.78
  -5  -8   1   -0.80    0.80
   4   8  -1    0.22    0.72
   4   8  -1    1.72    0.91
  -4  -8   1    1.25    0.71
  -4  -8   1   -0.15    0.85
   3   8  -1    5.95    0.98
   3   8  -1    5.49    0.85
  -3  -8   1    8.44    1.14
  -3  -8   1    5.14    0.91
   2   8  -1    3.39    0.89
   2   8  -1    3.82    0.74
  -2  -8   1    3.12    0.80
   1   8  -1   -0.02    0.71
   1   8  -1    1.55    0.63
  -1  -8   1    0.37    0.70
  -1  -8   1   -0.19    0.78
   0   8  -1    5.13    0.84
   0  -8   1    4.90    0.82
  -1   8  -1    3.57    0.70
  -1   8  -1    1.75    0.80
   1  -8   1    2.09    0.60
  -2   8  -1    2.27    0.88
  -2   8  -1    3.15    0.87
   6   7  -1    0.89    0.83
   6   7  -1   -1.00    0.82
  -6  -7   1   -0.88    0.68
  -6  -7   1    0.84    0.63
   5   7  -1    2.59    0.80
   5   7  -1    2.13    0.73
  -5  -7   1    2.51    0.66
  -5  -7   1    1.28    0.67
   4   7  -1    1.66    0.61
   4   7  -1    2.63    0.78
  -4  -7   1    0.27    0.56
  -4  -7   1    1.87    0.59
   3   7  -1    7.79    1.06
  -3  -7   1    9.49    1.06
   2   7  -1   36.80    1.57
   2   7  -1   34.26    1.58
  -2  -7   1   37.34    1.48
  -2  -7   1   32.34    1.56
   1   7  -1   34.15    1.52
   1   7  -1   39.10    1.60
  -1  -7   1   40.65    1.51
  -1  -7   1   34.17    1.56
   0   7  -1    2.06    0.55
   0   7  -1    1.26    0.59
   0  -7   1    1.58    0.62
  -1   7  -1   11.18    1.13
  -1   7  -1   14.32    1.16
   1  -7   1   10.73    1.07
  -2   7  -1    7.42    1.15
  -3   7  -1    4.24    0.78
  -3   7  -1    3.09    0.93
  -3   7  -1    5.18    1.00
   6   6  -1   -1.02    0.63
   6   6  -1   -0.21    0.61
  -6  -6   1    0.44    0.49
  -6  -6   1   -0.73    0.62
   5   6  -1    2.22    0.64
   5   6  -1    1.43    0.58
  -5  -6   1    1.08    0.52
  -5  -6   1    1.05    0.51
   4   6  -1   15.77    1.06
   4   6  -1   18.67    1.24
  -4  -6   1   16.91    1.16
  -4  -6   1   16.04    1.03
   3   6  -1    7.38    1.05
   3   6  -1    9.01    0.93
  -3  -6   1    7.76    0.99
  -3  -6   1    7.31    0.87
   2   6  -1    9.28    1.02
   2   6  -1    9.84    0.96
  -2  -6   1    7.99    0.81
  -2  -6   1    8.17    0.99
   1   6  -1    6.20    0.89
   1   6  -1    8.39    0.91
  -1  -6   1    6.82    0.76
  -1  -6   1    5.89    0.90
   0   6  -1    2.17    0.54
   0  -6   1    2.47    0.55
   0  -6   1    1.36    0.88
  -1   6  -1   16.42    1.03
   1  -6   1   17.26    1.01
  -2   6  -1    3.13    0.62
  -2   6  -1    2.88    0.66
   2  -6   1    2.85    0.56
  -3   6  -1    8.39    1.31
  -3   6  -1    8.47    1.32
  -3   6  -1    8.53    1.01
  -4   6  -1    0.48    1.04
  -4   6  -1    3.54    1.05
  -4   6  -1    0.73    0.84
   7   5  -1   -1.18    0.80
  -7  -5   1   -1.24    0.68
   6   5  -1    6.40    0.87
  -6  -5   1    7.64    0.99
   5   5  -1    1.25    0.50
   5   5  -1    0.58    0.54
  -5  -5   1    0.32    0.43
  -5  -5   1    1.13    0.41
   4   5  -1    0.04    0.66
   4   5  -1    0.15    0.42
  -4  -5   1   -0.01    0.38
   3   5  -1    3.14    0.62
   3   5  -1    3.82    0.50
  -3  -5   1    3.79    0.56
  -3  -5   1    4.48    0.67
   2   5  -1    7.19    0.78
   2   5  -1    6.11    0.81
  -2  -5   1    5.83    0.68
  -2  -5   1    6.73    0.79
   1   5  -1   13.52    0.89
   1   5  -1   12.70    0.81
  -1  -5   1   13.14    0.85
  -1  -5   1   11.52    0.79
   0   5  -1    2.81    0.53
   0   5  -1    2.17    0.44
   0  -5   1    2.38    0.43
   0  -5   1    1.42    0.43
  -1   5  -1   15.23    0.89
  -1   5  -1   13.96    1.03
   1  -5   1   14.54    0.95
  -2   5  -1    3.17    1.14
  -2   5  -1    2.79    0.57
   2  -5   1    2.80    0.82
  -3   5  -1    1.44    0.67
  -3   5  -1    1.79    0.53
  -3   5  -1    1.18    0.65
  -4   5  -1    0.13    0.80
  -4   5  -1    0.33    0.81
  -4   5  -1   -0.01    0.67
  -5   5  -1    3.27    1.23
  -5   5  -1    1.06    1.19
  -5   5  -1    1.65    0.98
   7   4  -1    2.85    0.82
  -7  -4   1    0.44    0.67
   6   4  -1    0.08    0.61
  -6  -4   1    1.06    0.57
   5   4  -1    0.19    0.49
   5   4  -1   -0.12    0.37
  -5  -4   1   -0.19    0.52
   4   4  -1   48.38    1.48
   4   4  -1   47.49    1.78
  -4  -4   1   49.92    1.78
  -4  -4   1   48.80    1.44
   3   4  -1   32.25    1.28
   3   4  -1   32.10    1.11
  -3  -4   1   30.77    1.07
  -3  -4   1   31.99    1.26
   2   4  -1   41.55    1.32
   2   4  -1   42.67    1.41
  -2  -4   1   42.10    1.39
  -2  -4   1   41.95    1.31
   1   4  -1   28.56    1.07
   1   4  -1   27.87    1.01
  -1  -4   1   27.39    1.03
  -1  -4   1   28.95    1.03
   0   4  -1   30.13    1.00
   0   4  -1   31.28    1.18
   0  -4   1   30.25    1.14
   0  -4   1   30.86    1.01
  -1   4  -1    7.73    0.64
  -1   4  -1    6.63    0.75
   1  -4   1    5.14    0.68
  -2   4  -1    2.60    0.48
  -2   4  -1    2.54    0.55
   2  -4   1    2.37    0.47
  -3   4  -1   22.65    1.33
  -3   4  -1   22.01    1.20
  -3   4  -1   23.33    1.06
  -4   4  -1    1.95    0.74
  -4   4  -1    1.70    0.62
  -4   4  -1    1.19    0.73
  -5   4  -1    1.71    1.00
  -5   4  -1    1.14    0.95
  -5   4  -1    0.05    0.80
   7   3  -1    5.65    0.96
  -7  -3   1    5.82    0.85
   6   3  -1   -0.12    0.55
  -6  -3   1   -1.12    0.91
   5   3  -1   21.12    1.28
  -5  -3   1   21.85    1.20
   4   3  -1    6.64    0.58
   4   3  -1    6.28    0.90
  -4  -3   1    8.33    0.89
  -4  -3   1    4.80    0.51
   3   3  -1    2.12    0.33
   3   3  -1    1.70    0.44
  -3  -3   1    2.09    0.45
  -3  -3   1    1.53    0.29
   2   3  -1  214.37    5.21
   2   3  -1  220.39    5.12
  -2  -3   1  213.51    5.11
  -2  -3   1  210.82    5.21
   1   3  -1    7.57    0.57
  -1  -3   1    9.21    0.58
  -1  -3   1    6.07    0.57
   0   3  -1    0.96    0.26
   0   3  -1    0.44    0.32
   0  -3   1    0.77    0.27
   0  -3   1   -0.11    0.28
  -1   3  -1   37.87    1.06
  -1   3  -1   35.54    1.24
   1  -3   1   35.00    1.21
  -2   3  -1    2.09    0.40
  -2   3  -1    1.23    0.43
  -2   3  -1    1.67    0.34
   2  -3   1    1.47    0.40
  -3   3  -1    1.69    0.54
  -3   3  -1    2.64    0.46
  -4   3  -1    1.24    0.60
  -4   3  -1    1.18    0.55
  -5   3  -1   11.47    1.36
  -5   3  -1   11.18    1.25
  -5   3  -1   10.32    1.21
  -6   3  -1    3.53    1.09
  -6   3  -1    1.90    1.01
  -6   3  -1    0.98    1.06
   7   2  -1    1.68    0.90
  -7  -2   1    1.85    0.81
   6   2  -1    0.97    0.63
  -6  -2   1    0.99    0.55
   5   2  -1    2.03    0.57
  -5  -2   1    1.21    0.51
   4   2  -1  163.09    3.81
   4   2  -1  158.90    4.17
  -4  -2   1  159.97    4.17
  -4  -2   1  156.80    3.80
   3   2  -1    0.21    0.37
   3   2  -1    0.42    0.25
  -3  -2   1    0.10    0.40
  -3  -2   1    0.26    0.22
   2   2  -1   18.00    0.83
   2   2  -1   18.95    0.67
  -2  -2   1   17.26    0.66
  -2  -2   1   18.48    0.84
   1   2  -1  105.55    2.69
   1   2  -1  111.04    2.68
  -1  -2   1  109.00    2.68
  -1  -2   1  111.74    2.69
   0   2  -1  101.44    2.46
   0   2  -1  103.67    2.58
   0  -2   1  104.69    2.46
   0  -2   1  103.05    2.57
  -1   2  -1   32.18    1.08
  -1   2  -1   34.16    0.92
   1  -2   1   30.80    1.05
  -2   2  -1    2.86    0.46
  -2   2  -1    2.07    0.39
   2  -2   1    2.79    0.38
  -3   2  -1   78.25    2.16
  -3   2  -1   75.25    2.10
  -4   2  -1    3.19    0.57
  -4   2  -1    3.37    0.60
  -5   2  -1   28.66    1.40
  -5   2  -1   28.43    1.40
  -5   2  -1   27.82    1.46
  -6   2  -1    0.94    0.82
  -6   2  -1   -0.41    0.92
  -6   2  -1    0.94    0.83
  -7  -1   1    0.75    0.88
   6   1  -1    2.32    0.73
  -6  -1   1    2.10    0.73
  -5  -1   1   13.51    0.78
  -5  -1   1   10.35    1.36
  -5  -1   1   14.08    0.78
   4   1  -1   13.79    0.97
  -4  -1   1   14.40    0.93
  -4  -1   1   12.62    0.66
   3   1  -1  205.63    4.74
   3   1  -1  199.35    4.95
  -3  -1   1  196.12    4.95
  -3  -1   1  203.07    4.73
   2   1  -1   32.42    1.13
   2   1  -1   35.56    0.94
  -2  -1   1   35.22    0.94
  -2  -1   1   32.38    1.12
   1   1  -1    0.88    0.18
   1   1  -1    0.58    0.22
  -1  -1   1    0.77    0.23
  -1  -1   1    0.75    0.18
   0   1  -1    1.17    0.25
   0   1  -1    0.42    0.13
  -1   1  -1   33.07    0.88
  -1   1  -1   32.80    0.97
   1  -1   1   31.58    0.95
  -2   1  -1  291.17    6.82
  -2   1  -1  286.08    6.80
   2  -1   1  278.46    6.79
   2  -1   1  307.07    6.84
  -3   1  -1   13.04    0.74
  -3   1  -1   12.33    0.69
   3  -1   1   11.76    0.80
  -4   1  -1    1.23    0.44
  -4   1  -1    0.90    0.47
  -4   1  -1    1.42    0.43
  -5   1  -1    2.12    0.52
  -5   1  -1    1.61    0.55
  -5   1  -1    2.04    0.65
  -6   1  -1   20.80    1.27
  -6   1  -1   18.41    1.52
  -6   1  -1   19.10    1.30
  -7   1  -1    3.28    0.88
  -7   1  -1    4.41    1.29
  -7   0   1   -0.15    0.99
  -7   0   1    1.26    0.69
  -6   0   1    3.59    0.66
  -6   0   1    3.56    0.82
  -6   0   1    4.17    0.65
  -5   0   1    1.09    0.47
  -5   0   1    0.90    0.45
   4   0  -1   12.72    0.96
  -4   0   1   13.77    0.76
  -4   0   1   12.57    0.87
  -4   0   1   13.66    0.77
   3   0  -1   17.31    0.89
  -3   0   1   16.85    0.86
  -3   0   1   17.19    0.69
   2   0  -1  201.92    4.83
  -2   0   1  201.13    4.71
  -2   0   1  198.68    4.83
   1   0  -1   75.24    1.71
   1   0  -1   63.80    1.76
  -1   0   1   72.44    1.70
  -1   0  -1   53.92    1.34
  -1   0  -1   53.05    1.28
   1   0   1   53.49    1.28
   1   0   1   53.31    1.34
  -2   0  -1   98.04    2.44
  -2   0  -1  102.90    2.57
   2   0   1  106.93    2.59
  -3   0  -1  159.93    4.02
  -3   0  -1  170.79    3.85
  -3   0  -1  156.31    3.82
   3   0   1  159.07    4.02
  -4   0  -1    0.05    0.31
  -4   0  -1    0.07    0.30
  -4   0  -1    0.06    0.41
   4   0   1    0.12    0.46
  -5   0  -1   -0.48    0.55
  -5   0  -1    0.28    0.40
  -5   0  -1    0.17    0.36
   5   0   1    0.31    0.58
  -6   0  -1    3.66    0.81
   6   0   1    2.44    0.84
  -7   0  -1    0.90    1.06
  -7   1   1    1.24    1.25
  -7   1   1    1.56    0.94
  -6   1   1   -0.33    0.67
  -6   1   1    0.93    0.77
  -6   1   1   -0.06    0.67
  -5   1   1    6.29    0.99
  -5   1   1    7.08    0.94
  -4   1   1    0.65    0.46
  -4   1   1    0.24    0.44
  -4   1   1    0.85    0.46
  -3   1   1   10.48    0.70
  -3   1   1   12.31    0.76
  -3   1   1   10.92    0.69
  -2   1   1    1.23    0.30
  -2   1   1    1.06    0.29
  -1  -1  -1  113.68    2.74
   1   1   1  114.49    2.63
   1   1   1  112.53    2.74
  -2  -1  -1  356.19    8.32
   2   1   1  353.51    8.32
  -3  -1  -1   -0.10    0.32
   3   1   1    0.00    0.33
  -4  -1  -1   15.23    0.90
   4   1   1   14.07    0.94
  -5  -1  -1    1.62    0.53
   5   1   1    1.36    0.58
  -6  -1  -1    2.73    0.77
   6   1   1    2.59    0.75
  -7  -1  -1    0.55    0.88
   7   1   1   -0.04    1.04
  -6   2   1    1.77    0.89
  -6   2   1    0.95    0.86
  -6   2   1    1.21    0.92
  -5   2   1   26.91    1.43
  -5   2   1   24.19    1.37
  -4   2   1    1.50    0.54
  -4   2   1    1.30    0.54
  -4   2   1    1.57    0.54
  -3   2   1    2.61    0.46
  -3   2   1    3.10    0.47
  -2   2   1    1.08    0.35
  -1   2   1   71.95    1.94
  -1   2   1   73.58    1.91
   0  -2  -1    0.99    0.30
   0   2   1    0.86    0.31
   0   2   1    1.80    0.32
  -1  -2  -1    3.65    0.32
   1   2   1    3.06    0.32
  -2  -2  -1  102.89    2.64
  -2  -2  -1   99.05    2.42
   2   2   1  105.17    2.65
   2   2   1  101.50    2.42
  -3  -2  -1    0.54    0.39
   3   2   1    0.25    0.36
  -4  -2  -1    0.81    0.44
   4   2   1    0.19    0.44
   5   2   1   -1.47    0.85
  -6  -2  -1    0.27    0.56
   6   2   1    1.45    0.68
  -7  -2  -1   -0.49    0.81
   7   2   1    0.28    0.95
  -6   3   1   -0.11    1.00
  -6   3   1    1.86    1.19
  -6   3   1    1.17    1.07
  -5   3   1   10.67    1.53
  -5   3   1   10.95    1.32
  -4   3   1    2.06    0.68
  -4   3   1    2.94    0.61
  -4   3   1    3.79    0.64
  -3   3   1   54.73    1.79
  -3   3   1   59.30    1.88
  -2   3   1    5.64    0.71
  -1   3   1   17.22    0.79
  -1   3   1   15.87    0.84
   0  -3  -1    1.01    0.34
   0   3   1    0.68    0.35
  -1  -3  -1    0.42    0.33
  -1  -3  -1    0.09    0.28
   1   3   1    0.47    0.31
   1   3   1   -0.44    0.28
  -2  -3  -1  158.34    3.95
  -2  -3  -1  161.29    3.80
   2   3   1  158.04    3.80
   2   3   1  155.97    3.94
  -3  -3  -1    1.15    0.22
  -3  -3  -1    0.94    0.38
   3   3   1    1.21    0.25
   3   3   1    1.10    0.39
  -4  -3  -1    0.54    0.45
   4   3   1    0.15    0.43
  -5  -3  -1    2.74    0.59
   5   3   1    2.55    0.61
  -6  -3  -1   -0.06    0.49
   6   3   1   -0.73    0.60
  -7  -3  -1   -0.80    0.72
   7   3   1    1.78    0.91
  -5   4   1    5.84    1.02
  -5   4   1    5.42    1.02
  -5   4   1    8.90    1.25
  -5   4   1    6.81    1.19
  -4   4   1    5.37    0.89
  -4   4   1    4.63    0.75
  -4   4   1    4.25    0.82
  -3   4   1    5.20    0.74
  -3   4   1    7.09    0.92
  -3   4   1    7.31    1.05
  -2   4   1    2.99    0.55
  -2   4   1    3.12    0.56
  -1   4   1    1.26    0.41
  -1   4   1    1.77    0.45
   0  -4  -1   49.28    1.48
   0  -4  -1   48.10    1.53
   0   4   1   48.35    1.55
   0   4   1   50.85    1.51
  -1  -4  -1    6.79    0.62
  -1  -4  -1    7.65    0.69
   1   4   1    6.82    0.70
   1   4   1    7.00    0.69
  -2  -4  -1   32.35    1.19
  -2  -4  -1   31.72    1.08
   2   4   1   32.29    1.21
   2   4   1   33.27    1.11
  -3  -4  -1    4.39    0.53
  -3  -4  -1    5.37    0.72
   3   4   1    3.78    0.54
   3   4   1    5.38    0.78
  -4  -4  -1   35.58    1.46
  -4  -4  -1   34.49    1.05
   4   4   1   33.94    1.08
   4   4   1   35.26    1.49
  -5  -4  -1    1.84    0.56
   5   4   1    1.53    0.60
  -6  -4  -1    2.28    0.53
   6   4   1    2.68    0.67
  -7  -4  -1    1.29    0.69
   7   4   1    1.80    0.86
  -5   5   1   -0.28    1.24
  -5   5   1   -0.62    1.28
  -5   5   1   -0.50    1.01
  -5   5   1    1.66    0.96
  -4   5   1    4.16    0.97
  -4   5   1    3.72    1.00
  -4   5   1    4.81    0.89
  -3   5   1    2.85    0.68
  -3   5   1    2.99    0.78
  -3   5   1    3.52    0.73
  -2   5   1    5.32    0.74
  -1   5   1    1.97    0.56
  -1   5   1    1.38    0.52
   0  -5  -1   -0.15    0.39
   0  -5  -1   -0.18    0.33
   0   5   1   -0.02    0.43
   0   5   1    0.43    0.44
  -1  -5  -1   34.48    1.30
  -1  -5  -1   34.75    1.25
   1   5   1   35.15    1.33
   1   5   1   34.95    1.32
  -2  -5  -1   32.63    1.19
  -2  -5  -1   30.52    1.29
   2   5   1   32.36    1.22
   2   5   1   32.68    1.28
  -4  -5  -1   25.13    0.99
  -4  -5  -1   24.03    1.59
   4   5   1   23.81    1.00
  -5  -5  -1   21.12    1.18
   5   5   1   19.88    1.26
  -6  -5  -1    1.11    0.54
   6   5   1    1.76    0.73
  -7  -5  -1    1.40    0.69
   7   5   1   -0.56    0.82
  -4   6   1    0.62    1.11
  -4   6   1    0.87    0.92
  -4   6   1    0.36    1.19
  -3   6   1    3.35    0.97
  -3   6   1    3.18    0.88
  -3   6   1    3.69    0.84
  -2   6   1   12.55    1.13
  -2   6   1   10.15    1.30
  -1   6   1   11.29    1.13
  -1   6   1    9.42    1.14
   0  -6  -1    1.35    0.55
   0   6   1    1.74    0.56
   0   6   1    2.00    0.58
  -1  -6  -1    2.76    0.51
  -1  -6  -1    1.69    0.55
   1   6   1    1.80    0.59
   1   6   1    2.05    0.57
  -2  -6  -1    1.01    0.43
  -2  -6  -1    1.42    0.54
   2   6   1    1.47    0.56
   2   6   1    1.44    0.52
  -3  -6  -1    0.22    0.44
  -3  -6  -1    0.72    0.43
   3   6   1    0.42    0.47
   3   6   1   -0.21    0.50
  -4  -6  -1    6.03    0.85
  -4  -6  -1    7.53    0.91
   4   6   1    7.35    1.02
  -5  -6  -1    0.22    0.50
   5   6   1    0.40    0.49
   5   6   1    0.20    0.55
  -6  -6  -1    0.01    0.55
   6   6   1    0.51    0.66
  -3   7   1    2.12    1.11
  -3   7   1    0.90    0.87
  -3   7   1    0.83    0.91
  -2   7   1   20.53    1.68
  -2   7   1   24.03    1.46
  -1   7   1    2.00    0.77
  -1   7   1    1.70    0.59
   0  -7  -1   31.60    1.55
   0   7   1   35.63    1.56
   0   7   1   32.19    1.57
  -1  -7  -1    3.83    0.57
  -1  -7  -1    3.26    0.69
   1   7   1    4.09    0.71
   1   7   1    4.94    0.78
  -2  -7  -1    1.14    0.85
  -2  -7  -1   -0.22    0.56
   2   7   1    0.27    0.59
  -3  -7  -1   15.42    1.23
  -3  -7  -1   19.26    1.15
   3   7   1   15.10    1.30
   3   7   1   18.28    1.20
  -4  -7  -1    1.80    0.56
  -4  -7  -1    1.51    0.59
   4   7   1    1.41    0.60
   4   7   1    1.48    0.65
  -5  -7  -1    0.80    0.55
   5   7   1   -0.59    0.66
   5   7   1    0.79    0.62
  -6  -7  -1    1.86    0.70
   6   7   1    1.34    0.76
  -2   8   1   -0.10    1.04
  -2   8   1    0.60    0.84
  -1   8   1   24.61    1.80
  -1   8   1   27.66    1.68
   0  -8  -1    0.33    0.73
   0   8   1    0.66    0.83
   0   8   1    1.43    0.67
  -1  -8  -1    0.63    0.71
   1   8   1    0.96    0.77
   1   8   1    1.18    0.61
  -2  -8  -1    0.77    0.57
  -2  -8  -1   -0.06    0.70
   2   8   1    1.80    0.68
   2   8   1   -0.17    0.73
  -3  -8  -1   10.99    1.16
  -3  -8  -1    9.43    1.10
   3   8   1    9.49    1.26
   3   8   1    9.96    1.15
  -4  -8  -1    1.72    0.91
   4   8   1    1.93    0.86
   4   8   1    2.51    0.83
  -5  -8  -1    4.59    0.93
   5   8   1    3.99    0.97
   5   8   1    5.47    0.90
  -1   9   1    3.97    1.36
   0  -9  -1    0.11    1.06
   0   9   1    1.15    0.76
  -1  -9  -1    3.97    1.13
   1   9   1    5.04    0.88
   1   9   1    3.69    1.12
  -2  -9  -1    1.45    1.01
   2   9   1    2.19    0.90
   2   9   1    1.81    1.05
   3   9   1    1.05    0.90
   3   9   1    0.70    1.11
  -4  -9  -1   -0.86    0.85
   4   9   1    0.25    1.01
   4   9   1    0.28    1.06
   4   9  -2   -0.01    1.08
   4   9  -2    1.46    1.02
  -4  -9   2   -0.92    0.93
  -4  -9   2    1.78    0.90
   3   9  -2    3.13    1.05
   3   9  -2    2.45    0.93
  -3  -9   2    1.65    0.83
  -3  -9   2    0.69    1.01
   2   9  -2    5.93    0.99
   2   9  -2    5.88    1.14
  -2  -9   2    5.81    1.13
   1   9  -2    2.82    0.78
   1   9  -2    1.68    0.95
  -1  -9   2    2.38    0.64
  -1  -9   2    2.45    0.99
   0   9  -2   10.41    1.36
   0   9  -2    8.89    1.50
   0  -9   2   13.16    1.22
   5   8  -2    0.30    0.97
   5   8  -2   -0.11    0.91
  -5  -8   2   -0.62    0.85
  -5  -8   2    1.07    0.81
   4   8  -2    4.24    1.01
   4   8  -2    4.81    0.94
  -4  -8   2    6.90    0.90
  -4  -8   2    4.02    0.84
   3   8  -2    1.44    0.84
   3   8  -2    0.78    0.71
  -3  -8   2   -0.61    0.74
  -3  -8   2    1.13    0.62
   2   8  -2    2.65    0.71
   2   8  -2    2.52    0.82
  -2  -8   2    2.52    0.80
  -2  -8   2    3.46    0.62
   1   8  -2    0.13    0.73
   1   8  -2    0.82    0.58
  -1  -8   2   -0.03    0.73
  -1  -8   2    0.30    0.50
   0   8  -2   23.09    1.41
   0   8  -2   21.26    1.35
   0  -8   2   24.95    1.19
   0  -8   2   21.10    1.40
  -1   8  -2   13.69    1.27
  -1   8  -2    9.21    1.21
   1  -8   2   11.43    1.12
  -2   8  -2    0.53    0.84
   6   7  -2    0.38    0.88
   6   7  -2   -0.36    0.83
  -6  -7   2    0.70    0.69
   5   7  -2    4.13    0.92
   5   7  -2    4.23    0.84
  -5  -7   2    3.29    0.80
  -5  -7   2    4.62    0.75
   4   7  -2    2.90    0.79
   4   7  -2    2.99    0.70
  -4  -7   2    1.64    0.64
  -4  -7   2    4.00    0.67
   3   7  -2    0.21    1.04
   3   7  -2    0.97    0.74
  -3  -7   2    1.35    0.66
  -3  -7   2    0.74    1.09
   2   7  -2   18.54    1.27
   2   7  -2   17.39    1.22
  -2  -7   2   16.57    1.25
  -2  -7   2   17.45    1.10
   1   7  -2   14.37    1.11
   1   7  -2   13.42    1.13
  -1  -7   2   10.63    1.13
  -1  -7   2   13.78    0.93
   0   7  -2    0.96    0.53
   0   7  -2    2.68    0.60
   0  -7   2    1.80    0.61
   0  -7   2    1.49    0.47
  -1   7  -2   14.25    1.14
  -1   7  -2   10.62    1.01
  -2   7  -2   23.21    1.47
   2  -7   2   28.73    1.39
  -3   7  -2    2.26    0.89
   6   6  -2    6.90    0.84
   6   6  -2    4.13    0.91
  -6  -6   2    6.16    0.68
  -6  -6   2    5.17    0.73
   5   6  -2   21.68    1.42
   5   6  -2   22.39    1.29
  -5  -6   2   23.20    1.20
  -5  -6   2   22.78    1.37
   4   6  -2    7.58    0.95
   4   6  -2    7.41    1.07
  -4  -6   2    9.82    0.92
  -4  -6   2    6.22    1.02
   3   6  -2    0.98    0.56
   3   6  -2    1.35    0.53
  -3  -6   2    1.51    0.49
  -3  -6   2    0.99    0.60
   2   6  -2    6.01    0.96
   2   6  -2    5.92    0.92
  -2  -6   2    7.14    0.94
  -2  -6   2    6.88    0.80
   1   6  -2   34.65    1.42
   1   6  -2   32.92    1.30
  -1  -6   2   33.17    1.34
  -1  -6   2   32.24    1.33
   0   6  -2   14.26    1.44
   0   6  -2   12.70    0.89
   0  -6   2   13.45    0.95
   0  -6   2   12.73    0.94
  -1   6  -2   60.11    1.82
  -1   6  -2   67.19    2.16
   1  -6   2   63.83    2.09
  -2   6  -2    4.98    0.72
   2  -6   2    6.00    0.83
  -3   6  -2    1.74    0.74
  -4   6  -2    0.17    0.94
  -4   6  -2    2.42    1.06
   7   5  -2    2.78    0.90
  -7  -5   2   -1.23    0.69
   6   5  -2    3.81    0.82
  -6  -5   2    4.48    0.55
  -6  -5   2    2.50    0.61
   5   5  -2   31.03    1.34
   5   5  -2   28.52    1.42
  -5  -5   2   29.95    1.19
  -5  -5   2   27.05    1.40
   4   5  -2    3.03    0.54
  -4  -5   2    2.64    0.49
   3   5  -2   11.68    0.88
  -3  -5   2    9.89    0.83
  -3  -5   2   10.80    0.96
   2   5  -2   69.73    2.04
   2   5  -2   67.98    2.04
  -2  -5   2   68.02    2.04
  -2  -5   2   69.35    2.02
   1   5  -2   21.44    0.97
   1   5  -2   22.35    1.07
  -1  -5   2   23.52    1.03
  -1  -5   2   23.32    1.02
   0   5  -2   18.14    0.84
   0   5  -2   19.51    1.06
   0  -5   2   18.33    0.86
   0  -5   2   18.27    0.98
  -1   5  -2    1.45    0.52
  -1   5  -2    1.24    0.38
   1  -5   2    0.58    0.39
  -2   5  -2   20.38    0.99
  -2   5  -2   19.48    2.10
   2  -5   2   21.17    1.18
  -3   5  -2    0.91    0.46
  -3   5  -2    1.05    0.61
  -3   5  -2    0.82    0.61
  -4   5  -2    4.83    0.73
  -4   5  -2    4.60    0.89
  -4   5  -2    5.23    0.97
  -5   5  -2    3.32    0.99
  -5   5  -2    4.39    1.21
  -5   5  -2    5.43    1.28
   7   4  -2    0.41    0.78
  -7  -4   2   -1.08    0.70
   6   4  -2    8.97    1.19
  -6  -4   2    6.09    0.98
   5   4  -2   20.17    0.97
   5   4  -2   18.01    1.23
  -5  -4   2   19.91    1.16
  -5  -4   2   16.42    0.86
   4   4  -2   13.43    0.88
   4   4  -2   12.62    1.05
  -4  -4   2   15.22    1.04
  -4  -4   2   13.52    0.78
   3   4  -2    6.76    0.69
   3   4  -2    5.84    0.77
  -3  -4   2    5.78    0.63
  -3  -4   2    5.81    0.76
   2   4  -2    0.71    0.38
   2   4  -2    0.93    0.36
  -2  -4   2    0.82    0.36
  -2  -4   2    0.94    0.35
   1   4  -2   22.98    0.91
   1   4  -2   23.59    0.99
  -1  -4   2   23.15    0.90
  -1  -4   2   21.77    0.94
   0   4  -2   37.40    1.31
   0   4  -2   34.73    1.07
   0  -4   2   35.23    1.26
   0  -4   2   37.49    1.10
  -1   4  -2    6.05    0.76
   1  -4   2    5.11    0.65
  -2   4  -2    8.26    0.58
  -2   4  -2    8.89    0.72
  -2   4  -2    8.80    0.92
   2  -4   2    7.82    0.83
  -3   4  -2   12.26    0.99
  -3   4  -2   11.77    1.14
  -3   4  -2   11.73    0.83
   3  -4   2   12.96    1.00
  -4   4  -2    0.32    0.66
  -4   4  -2    1.00    0.72
  -4   4  -2    0.20    0.53
  -5   4  -2    1.55    0.83
  -5   4  -2    3.14    1.02
  -5   4  -2    2.99    0.98
   7   3  -2    2.75    0.80
  -7  -3   2    1.54    0.68
   6   3  -2    1.32    0.63
  -6  -3   2    1.68    0.79
   5   3  -2    1.46    0.59
   5   3  -2    1.71    0.41
  -5  -3   2    1.48    0.38
  -5  -3   2    1.33    0.56
   4   3  -2   -0.35    0.44
   4   3  -2    0.29    0.37
  -4  -3   2    0.41    0.32
  -4  -3   2    0.51    0.46
   3   3  -2   14.95    0.73
   3   3  -2   15.93    0.92
  -3  -3   2   14.03    0.70
  -3  -3   2   15.92    0.89
   2   3  -2  273.26    6.54
   2   3  -2  281.07    6.47
  -2  -3   2  268.29    6.53
  -2  -3   2  269.67    6.45
   1   3  -2  241.56    5.64
   1   3  -2  230.64    5.58
  -1  -3   2  234.72    5.58
  -1  -3   2  235.88    5.63
   0   3  -2    0.66    0.23
   0   3  -2    0.43    0.33
   0  -3   2    0.35    0.22
   0  -3   2   -0.16    0.31
  -1   3  -2    1.91    0.39
   1  -3   2    1.15    0.34
  -2   3  -2  141.42    3.63
  -2   3  -2  143.35    3.44
  -2   3  -2  136.81    3.41
   2  -3   2  145.23    3.64
  -3   3  -2    4.99    0.64
  -3   3  -2    4.30    0.66
   3  -3   2    4.08    0.55
  -4   3  -2   -0.12    0.49
  -4   3  -2    0.28    0.59
  -5   3  -2    7.37    0.92
  -6   3  -2    0.95    1.00
  -6   3  -2    1.59    1.03
  -6   3  -2    0.87    1.01
   7   2  -2    0.18    0.84
  -7  -2   2    1.30    0.79
   6   2  -2    2.34    0.60
  -6  -2   2    0.18    0.64
   5   2  -2    0.96    0.52
  -5  -2   2   -0.67    0.36
  -5  -2   2    0.03    0.46
   4   2  -2   10.47    0.94
   4   2  -2   11.37    0.70
  -4  -2   2   11.06    0.67
  -4  -2   2   13.32    0.94
   3   2  -2   21.37    0.80
   3   2  -2   20.00    1.01
  -3  -2   2   21.96    1.01
  -3  -2   2   22.06    0.79
   2   2  -2   68.76    1.75
   2   2  -2   66.80    1.86
  -2  -2   2   65.27    1.72
  -2  -2   2   64.73    1.85
   1   2  -2    2.42    0.31
   1   2  -2    1.92    0.30
  -1  -2   2    2.17    0.33
  -1  -2   2    2.51    0.33
   0   2  -2  174.52    4.09
   0   2  -2  175.49    4.23
   0  -2   2  180.05    4.10
   0  -2   2  175.04    4.23
  -1   2  -2    3.73    0.57
   1  -2   2    4.25    0.52
  -2   2  -2   37.48    1.21
  -2   2  -2   37.80    1.08
   2  -2   2   38.32    1.21
  -3   2  -2    5.73    0.64
  -3   2  -2    3.89    0.50
   3  -2   2    4.66    0.64
  -4   2  -2    1.28    0.50
  -4   2  -2    0.51    0.48
  -5   2  -2    1.70    0.70
  -5   2  -2    2.83    0.64
  -5   2  -2    2.32    0.62
  -6   2  -2    1.57    0.92
  -6   2  -2    3.23    0.83
  -6   2  -2    2.68    0.83
  -7  -1   2   -1.55    0.85
  -6  -1   2    2.98    0.53
  -6  -1   2    3.54    0.75
  -6  -1   2    3.60    0.59
   5   1  -2   21.13    1.31
  -5  -1   2   23.26    1.24
  -5  -1   2   21.42    1.00
   4   1  -2    9.00    0.88
  -4  -1   2    8.72    0.82
  -4  -1   2    8.71    0.67
   3   1  -2   25.12    0.85
   3   1  -2   24.27    1.06
  -3  -1   2   24.19    0.86
  -3  -1   2   25.02    1.06
   2   1  -2  258.56    6.28
   2   1  -2  266.59    6.16
  -2  -1   2  267.69    6.17
  -2  -1   2  261.81    6.29
   1   1  -2   22.92    0.80
   1   1  -2   24.08    0.75
  -1  -1   2   22.60    0.79
  -1  -1   2   23.56    0.75
   0   1  -2    0.97    0.21
   0  -1   2    0.75    0.14
   0  -1   2    0.94    0.21
  -1   1  -2  101.28    2.51
  -1   1  -2   99.19    2.40
   1  -1   2  100.10    2.50
   1  -1   2  107.98    2.41
  -2   1  -2   23.96    0.84
  -2   1  -2   24.39    0.82
   2  -1   2   25.14    0.85
   2  -1   2   22.99    0.83
  -3   1  -2   38.80    1.20
  -3   1  -2   38.45    1.26
   3  -1   2   38.90    1.31
  -4   1  -2    6.74    0.73
  -4   1  -2    5.69    0.85
   4  -1   2    5.90    0.88
  -5   1  -2   27.79    1.17
  -5   1  -2   25.66    1.37
  -5   1  -2   27.97    1.23
  -6   1  -2   13.92    1.46
  -6   1  -2   13.47    1.10
  -6   1  -2   14.63    1.21
  -7   0   2    0.90    0.77
  -7   0   2    1.29    1.06
  -7   0   2    1.02    0.80
  -6   0   2    1.18    0.63
  -6   0   2   -0.29    0.61
  -6   0   2    0.71    0.69
  -5   0   2    0.36    0.48
  -5   0   2    0.85    0.51
  -5   0   2    0.17    0.48
  -4   0   2    1.14    0.47
  -4   0   2    0.88    0.39
  -3   0   2    3.79    0.64
  -3   0   2    3.31    0.51
   2   0  -2   26.78    0.89
  -2   0   2   26.33    0.99
  -2   0   2   27.61    0.88
   1   0  -2   86.65    2.14
  -1   0   2   88.12    2.13
  -1   0  -2   36.66    0.91
  -1   0  -2   32.97    0.94
   1   0   2   34.58    0.95
   1   0   2   35.18    0.90
  -2   0  -2  100.65    2.40
  -2   0  -2   93.48    2.26
   2   0   2   92.55    2.39
   2   0   2   91.77    2.27
  -3   0  -2    1.07    0.25
  -3   0  -2    1.67    0.36
   3   0   2    1.06    0.37
  -4   0  -2    1.21    0.33
  -4   0  -2    1.16    0.44
  -4   0  -2    1.06    0.31
   4   0   2    0.39    0.45
  -5   0  -2    0.40    0.35
  -5   0  -2    0.28    0.38
  -5   0  -2    0.31    0.57
   5   0   2   -0.24    0.63
  -6   0  -2    1.54    0.75
   6   0   2   -0.29    0.74
  -7   0  -2   -0.80    0.98
  -6   1   2    0.22    0.82
  -6   1   2   -0.24    0.72
  -6   1   2    0.16    0.78
  -5   1   2    1.95    0.60
  -5   1   2    1.23    0.59
  -5   1   2    1.76    0.58
  -4   1   2    2.27    0.52
  -4   1   2    1.96    0.53
  -4   1   2    1.35    0.48
  -3   1   2    0.61    0.35
  -3   1   2    0.44    0.34
  -2   1   2    6.93    0.58
  -2   1   2    7.44    0.63
  -1   1   2   33.44    1.04
   0  -1  -2    3.27    0.36
   0   1   2    3.42    0.37
   0   1   2    4.41    0.38
  -1  -1  -2   48.92    1.38
  -1  -1  -2   58.37    1.49
   1   1   2   60.99    1.50
   1   1   2   57.84    1.37
  -2  -1  -2   14.90    0.73
   2   1   2   14.66    0.75
  -3  -1  -2   28.38    1.08
   3   1   2   28.04    1.09
  -4  -1  -2    6.21    0.76
   4   1   2    6.24    0.83
  -5  -1  -2   10.64    1.00
   5   1   2   10.01    1.07
  -6  -1  -2    2.57    0.73
   6   1   2    2.45    0.84
  -7  -1  -2    0.68    0.95
   7   1   2    2.57    1.14
  -6   2   2   10.31    1.40
  -6   2   2    9.93    1.71
  -6   2   2   10.25    1.68
  -5   2   2    4.42    0.75
  -5   2   2    4.43    0.74
  -5   2   2    3.63    0.74
  -4   2   2    4.73    0.64
  -4   2   2    6.17    0.90
  -4   2   2    4.38    0.65
  -3   2   2    1.39    0.45
  -3   2   2    0.98    0.43
  -3   2   2    1.42    0.42
  -2   2   2    4.22    0.62
  -2   2   2    3.34    0.42
  -1   2   2  227.81    5.59
  -1   2   2  242.05    5.61
   0   2   2    8.64    0.60
  -1  -2  -2  115.70    2.88
   1   2   2  115.40    2.87
   1   2   2  113.55    2.78
  -2  -2  -2  149.01    3.67
   2   2   2  145.30    3.67
   2   2   2  147.55    3.45
  -3  -2  -2    8.11    0.71
   3   2   2    6.76    0.72
  -4  -2  -2    1.59    0.48
   4   2   2    1.58    0.50
   5   2   2    2.55    0.81
  -6  -2  -2   -0.78    0.60
   6   2   2   -0.25    0.70
  -7  -2  -2   -0.07    0.86
   7   2   2    1.79    1.04
  -6   3   2    1.09    1.14
  -6   3   2    0.96    1.07
  -6   3   2    1.48    1.15
  -5   3   2    0.17    0.76
  -5   3   2   -0.15    0.80
  -5   3   2    0.05    0.69
  -4   3   2   11.97    1.12
  -4   3   2   12.24    1.20
  -4   3   2   11.48    1.07
  -3   3   2   17.82    1.10
  -3   3   2   16.24    1.00
  -3   3   2   17.77    1.03
  -2   3   2   71.31    2.05
  -2   3   2   70.37    2.06
  -1   3   2   23.71    0.99
  -1   3   2   23.12    0.97
   0  -3  -2   52.11    1.51
   0   3   2   51.37    1.54
   0   3   2   53.49    1.54
  -1  -3  -2  173.87    4.17
   1   3   2  167.97    4.10
   1   3   2  166.61    4.15
  -2  -3  -2   13.91    0.79
   2   3   2   14.01    0.81
   2   3   2   12.21    0.61
  -3  -3  -2    5.83    0.72
   3   3   2    4.60    0.39
   3   3   2    6.07    0.77
  -4  -3  -2    0.36    0.40
   4   3   2    0.54    0.47
  -5  -3  -2   17.29    1.10
   5   3   2   16.35    1.20
  -6  -3  -2    1.48    0.53
   6   3   2    1.79    0.69
  -7  -3  -2   -0.20    0.71
   7   3   2   -0.39    0.86
  -5   4   2    2.85    0.92
  -5   4   2    4.02    1.16
  -5   4   2    1.97    1.01
  -5   4   2    4.39    1.00
  -4   4   2    5.73    0.90
  -4   4   2    4.35    0.74
  -4   4   2    4.76    0.78
  -4   4   2    4.80    0.88
  -3   4   2    3.64    0.73
  -3   4   2    3.01    0.64
  -3   4   2    3.56    0.66
  -2   4   2   34.74    1.38
  -2   4   2   33.01    1.38
  -1   4   2   61.06    1.86
  -1   4   2   62.84    1.90
   0   4   2    1.74    0.42
  -1  -4  -2   59.19    1.74
   1   4   2   58.68    1.75
   1   4   2   58.35    1.71
  -2  -4  -2   17.60    0.92
  -2  -4  -2   14.84    0.73
   2   4   2   15.99    0.82
   2   4   2   17.94    0.95
  -3  -4  -2    7.37    0.79
   3   4   2    7.54    0.81
   3   4   2    6.94    0.58
  -4  -4  -2   24.64    1.25
   4   4   2   21.91    1.23
  -5  -4  -2    1.80    0.51
   5   4   2    2.45    0.59
  -6  -4  -2    1.33    0.61
   6   4   2    0.59    0.62
  -7  -4  -2   -0.98    0.69
   7   4   2   -0.30    0.85
  -5   5   2    1.26    1.30
  -5   5   2    0.98    1.04
  -5   5   2    0.19    1.31
  -5   5   2    0.76    1.05
  -4   5   2    4.32    0.89
  -4   5   2    3.36    1.38
  -4   5   2    4.47    1.01
  -3   5   2   -0.35    0.65
  -3   5   2    0.80    0.78
  -2   5   2    0.83    0.65
  -2   5   2    1.49    0.64
  -1   5   2   43.97    1.63
  -1   5   2   42.72    1.62
   0  -5  -2    2.72    0.52
   0   5   2    2.37    0.52
   0   5   2    3.08    0.58
  -1  -5  -2   11.48    0.91
   1   5   2   12.63    0.92
   1   5   2   10.39    0.84
  -2  -5  -2   27.55    1.09
  -2  -5  -2   27.38    1.23
   2   5   2   27.82    1.15
   2   5   2   27.35    1.22
  -3  -5  -2   17.89    1.06
   3   5   2   19.19    1.11
   3   5   2   17.14    0.90
  -4  -5  -2    0.29    0.43
   4   5   2    0.45    0.37
   4   5   2    0.88    0.71
  -5  -5  -2   25.62    1.31
   5   5   2   25.44    1.41
  -6  -5  -2    0.93    0.48
   6   5   2    3.33    0.69
   7   5   2    0.73    0.84
  -4   6   2    2.95    1.00
  -4   6   2    5.85    1.20
  -4   6   2    2.17    1.29
  -4   6   2    2.20    0.98
  -3   6   2    0.57    0.98
  -3   6   2   -0.88    0.67
  -2   6   2   -0.53    0.74
  -2   6   2    0.41    0.55
  -1   6   2    4.08    0.67
  -1   6   2    5.21    0.81
   0  -6  -2   12.92    1.07
   0   6   2   15.04    1.16
   0   6   2   13.36    1.12
  -1  -6  -2    4.42    0.63
   1   6   2    4.60    0.68
   1   6   2    5.92    0.93
  -2  -6  -2   32.47    1.45
  -2  -6  -2   34.52    1.34
   2   6   2   35.15    1.43
   2   6   2   32.89    1.49
  -3  -6  -2    1.80    0.56
   3   6   2    1.50    0.52
   3   6   2    1.06    0.58
  -4  -6  -2    5.57    0.87
   4   6   2    6.73    1.05
   4   6   2    4.58    0.58
  -5  -6  -2    1.41    0.61
   5   6   2    2.25    0.51
   5   6   2    2.93    0.70
  -6  -6  -2    2.75    0.70
   6   6   2    4.31    0.81
  -3   7   2   -0.23    0.92
  -3   7   2   -0.41    1.48
  -2   7   2    2.73    0.74
  -2   7   2    0.93    0.94
  -1   7   2    0.90    0.78
  -1   7   2    1.31    0.65
   0  -7  -2   11.11    1.21
   0   7   2   11.44    1.28
   0   7   2   13.52    1.15
  -1  -7  -2    4.04    0.72
   1   7   2    4.46    0.83
   1   7   2    6.40    1.01
  -2  -7  -2   -0.04    0.57
   2   7   2    0.30    0.62
   2   7   2   -1.02    0.83
  -3  -7  -2    0.38    0.59
   3   7   2    0.30    0.62
   3   7   2    1.67    0.58
  -4  -7  -2    1.66    0.51
   4   7   2    1.00    0.57
   4   7   2    1.93    0.72
  -5  -7  -2   -0.09    0.52
   5   7   2   -0.05    0.55
   5   7   2   -0.08    0.66
  -6  -7  -2   -0.19    0.58
   6   7   2    0.88    0.72
  -2   8   2    0.03    1.82
  -1   8   2    3.47    1.06
  -1   8   2    3.12    0.75
   0  -8  -2    1.20    0.81
   0   8   2   -0.11    0.85
   0   8   2    0.71    0.61
  -1  -8  -2    2.44    0.88
   1   8   2    3.97    0.82
  -2  -8  -2   13.44    1.38
   2   8   2   16.75    1.36
   2   8   2   15.14    1.51
  -3  -8  -2    3.26    0.77
   3   8   2    5.17    0.91
  -4  -8  -2   -0.15    0.63
   4   8   2   -0.46    0.85
   4   8   2    0.40    0.88
  -5  -8  -2   -0.39    0.63
   5   8   2    0.94    0.78
   5   8   2   -0.50    0.79
  -1   9   2    1.06    1.30
   0  -9  -2   -0.19    1.00
   0   9   2   -0.52    1.16
   0   9   2   -0.23    0.76
  -1  -9  -2    7.12    1.19
   1   9   2    6.43    1.21
   1   9   2   10.18    1.45
  -2  -9  -2    7.87    1.13
   2   9   2    5.60    1.21
  -3  -9  -2   -0.61    0.84
   3   9   2   -0.95    1.00
   3   9   2    0.53    0.95
  -4  -9  -2    1.06    0.91
   4   9   2    1.75    0.98
   4   9   2    1.42    1.23
   4   9  -3    1.40    1.14
   4   9  -3    3.11    1.14
  -4  -9   3    3.64    0.98
  -4  -9   3    2.87    1.11
   3   9  -3    0.58    1.03
   3   9  -3   -0.70    0.91
  -3  -9   3    1.26    0.73
  -3  -9   3   -0.60    0.97
   2   9  -3    1.79    0.87
  -2  -9   3    1.59    0.73
   1   9  -3    0.54    0.73
   1   9  -3    1.25    0.86
  -1  -9   3    1.64    0.99
  -1  -9   3    3.20    0.66
   0   9  -3    2.86    0.83
   0   9  -3    3.19    0.84
   0  -9   3    3.14    0.68
   5   8  -3    0.50    0.94
   5   8  -3    0.69    0.93
  -5  -8   3   -0.93    0.92
  -5  -8   3   -0.23    0.79
   4   8  -3   -0.37    0.86
   4   8  -3    0.53    0.82
  -4  -8   3   -0.95    0.76
  -4  -8   3    0.97    0.75
   3   8  -3    3.34    0.89
   3   8  -3    2.99    0.81
  -3  -8   3    2.67    0.84
  -3  -8   3    3.27    0.70
   2   8  -3    2.90    0.80
   2   8  -3    4.91    0.85
  -2  -8   3    3.84    0.84
   1   8  -3    3.66    0.77
   1   8  -3    3.76    0.74
  -1  -8   3    2.84    0.77
  -1  -8   3    4.65    0.59
   0   8  -3    9.22    1.12
   0   8  -3   13.67    1.15
   0  -8   3   12.44    1.01
   0  -8   3    9.99    1.16
  -1   8  -3    2.94    0.73
   1  -8   3    2.28    0.61
  -2   8  -3    2.56    0.89
   6   7  -3    4.69    1.05
   6   7  -3    3.70    1.06
  -6  -7   3    3.52    0.83
  -6  -7   3    2.41    0.90
   5   7  -3    5.39    0.97
   5   7  -3    4.48    0.88
  -5  -7   3    6.24    0.87
  -5  -7   3    3.88    0.84
   4   7  -3    0.58    0.72
   4   7  -3   -0.03    1.13
  -4  -7   3    0.53    0.71
  -4  -7   3    0.12    0.69
   3   7  -3   21.95    1.40
   3   7  -3   19.72    1.33
  -3  -7   3   22.90    1.25
  -3  -7   3   20.83    1.59
   2   7  -3    8.56    1.10
   2   7  -3    8.87    1.09
  -2  -7   3    7.78    1.10
  -2  -7   3    7.54    0.94
   1   7  -3   16.33    1.12
   1   7  -3   17.70    1.18
  -1  -7   3   16.93    0.98
  -1  -7   3   15.36    1.18
   0   7  -3   39.28    1.64
   0   7  -3   36.05    1.37
   0  -7   3   37.00    1.45
   0  -7   3   37.27    1.47
  -1   7  -3   14.89    1.17
   1  -7   3   11.60    1.03
  -2   7  -3   -0.96    0.62
   2  -7   3    1.09    0.55
  -3   7  -3    3.55    1.06
   6   6  -3    0.81    0.71
   6   6  -3   -0.14    0.79
  -6  -6   3   -0.49    0.63
  -6  -6   3    1.63    0.62
   5   6  -3   10.69    1.25
   5   6  -3   11.51    1.23
  -5  -6   3   10.19    1.42
  -5  -6   3   11.54    1.05
   4   6  -3    0.79    0.57
   4   6  -3    0.14    0.61
  -4  -6   3    0.52    0.50
  -4  -6   3    0.38    0.58
   3   6  -3    0.04    0.56
   3   6  -3    0.04    0.48
  -3  -6   3    0.46    0.52
  -3  -6   3    0.30    0.46
   2   6  -3    3.31    0.59
   2   6  -3    2.96    0.58
  -2  -6   3    3.24    0.61
  -2  -6   3    1.90    0.47
   1   6  -3    1.07    0.49
   1   6  -3    1.34    0.48
  -1  -6   3    0.70    0.51
  -1  -6   3    1.30    0.49
   0   6  -3    1.47    0.53
   0   6  -3    1.45    0.44
   0  -6   3    2.06    0.48
   0  -6   3    0.74    0.47
  -1   6  -3   19.01    1.21
   1  -6   3   16.26    0.99
  -2   6  -3    4.03    0.71
   2  -6   3    4.50    0.62
  -3   6  -3    5.52    0.93
  -4   6  -3    3.53    1.19
   7   5  -3    1.74    1.42
  -7  -5   3    0.08    0.93
   6   5  -3    9.77    1.21
   6   5  -3    6.83    0.78
  -6  -5   3    8.06    1.08
  -6  -5   3    7.15    0.72
   5   5  -3   18.79    1.27
   5   5  -3   20.51    1.25
  -5  -5   3   21.74    1.21
  -5  -5   3   18.58    1.04
   4   5  -3    8.88    0.94
  -4  -5   3    7.20    0.83
  -4  -5   3   10.75    1.33
   3   5  -3   57.05    1.81
   3   5  -3   55.03    1.87
  -3  -5   3   54.69    1.86
  -3  -5   3   54.83    1.75
   2   5  -3    2.15    0.48
   2   5  -3    1.92    0.48
  -2  -5   3    1.92    0.44
  -2  -5   3    1.66    0.47
   1   5  -3    0.65    0.37
   1   5  -3    0.52    0.43
  -1  -5   3    1.00    0.40
  -1  -5   3    0.12    0.33
   0   5  -3    0.46    0.33
   0   5  -3    0.58    0.46
   0  -5   3    0.76    0.35
   0  -5   3    0.39    0.40
  -1   5  -3    6.76    0.93
   1  -5   3    6.74    0.79
  -2   5  -3   58.21    2.09
   2  -5   3   56.07    1.96
   3  -5   3    3.92    0.68
  -4   5  -3    5.08    0.96
  -4   5  -3    2.69    0.65
  -5   5  -3    6.99    1.15
  -5   5  -3    7.70    1.41
  -5   5  -3    7.49    1.00
   7   4  -3    3.89    0.86
  -7  -4   3    4.13    0.85
   6   4  -3    3.72    0.60
   6   4  -3    5.02    0.85
  -6  -4   3    3.34    0.71
  -6  -4   3    3.64    0.53
   5   4  -3    2.10    0.55
   5   4  -3    1.92    0.52
  -5  -4   3    2.65    0.60
  -5  -4   3    1.51    0.45
   4   4  -3   78.99    2.22
   4   4  -3   74.43    2.37
  -4  -4   3   78.06    2.40
  -4  -4   3   73.63    2.13
   3   4  -3    2.13    0.50
   3   4  -3    2.15    0.47
  -3  -4   3    2.02    0.48
  -3  -4   3    1.46    0.40
   2   4  -3    4.78    0.62
   2   4  -3    4.35    0.65
  -2  -4   3    4.12    0.46
  -2  -4   3    4.35    0.51
   1   4  -3   48.89    1.45
   1   4  -3   50.96    1.59
  -1  -4   3   51.68    1.47
  -1  -4   3   49.95    1.55
   0   4  -3    8.51    0.51
   0   4  -3    9.41    0.81
   0  -4   3    8.02    0.73
   0  -4   3    8.77    0.55
  -1   4  -3   14.30    0.92
   1  -4   3   13.37    0.83
  -2   4  -3    3.67    0.60
   2  -4   3    3.86    0.55
  -3   4  -3   11.66    1.13
   3  -4   3    9.01    0.97
  -4   4  -3    0.83    0.56
  -4   4  -3    2.54    0.73
  -4   4  -3    1.76    0.67
  -5   4  -3    0.82    0.80
  -5   4  -3    1.28    0.94
  -5   4  -3    0.99    0.96
   7   3  -3   -1.52    0.74
  -7  -3   3    0.87    0.72
   6   3  -3    6.42    1.07
  -6  -3   3    5.09    0.55
  -6  -3   3    4.83    0.68
   5   3  -3    8.33    1.05
   5   3  -3    5.91    0.80
  -5  -3   3    6.09    0.74
  -5  -3   3    6.73    0.98
   4   3  -3    2.32    0.55
   4   3  -3    1.95    0.47
  -4  -3   3    2.06    0.41
  -4  -3   3    2.91    0.53
   3   3  -3   56.60    1.82
   3   3  -3   59.67    1.69
  -3  -3   3   57.30    1.65
  -3  -3   3   58.99    1.84
   2   3  -3   56.77    1.71
   2   3  -3   60.99    1.67
  -2  -3   3   58.20    1.65
  -2  -3   3   57.31    1.71
   1   3  -3  119.67    2.95
   1   3  -3  113.72    2.86
  -1  -3   3  114.24    2.86
  -1  -3   3  114.90    2.93
   0   3  -3    7.19    0.66
   0  -3   3    6.51    0.62
  -1   3  -3   47.25    1.52
   1  -3   3   49.94    1.51
  -2   3  -3   43.19    1.46
   2  -3   3   44.29    1.46
  -3   3  -3    0.31    0.49
  -3   3  -3    0.61    0.37
   3  -3   3    0.03    0.42
  -4   3  -3    0.62    0.52
  -4   3  -3    0.16    0.58
  -5   3  -3    3.03    0.81
  -5   3  -3    2.27    0.76
  -6   3  -3    0.14    1.01
  -6   3  -3    1.61    1.07
  -6   3  -3    1.29    0.98
  -7  -2   3   -0.87    0.71
   6   2  -3   11.51    1.14
  -6  -2   3    9.25    0.90
  -6  -2   3   10.94    1.38
   5   2  -3    6.19    0.96
   5   2  -3    7.06    0.81
  -5  -2   3    6.39    0.87
  -5  -2   3    5.73    0.77
   3   2  -3   26.25    1.11
   3   2  -3   26.00    0.96
  -3  -2   3   26.20    1.11
  -3  -2   3   25.17    0.93
   2   2  -3   45.39    1.44
   2   2  -3   49.05    1.38
  -2  -2   3   48.30    1.46
  -2  -2   3   48.04    1.38
  -1  -2   3   25.21    0.91
   0   2  -3    1.07    0.33
   0  -2   3    1.73    0.35
  -1   2  -3   56.49    1.60
   1  -2   3   56.61    1.59
  -2   2  -3   34.39    0.99
  -2   2  -3   36.32    1.19
   2  -2   3   34.26    1.15
  -3   2  -3   35.51    1.27
  -3   2  -3   34.97    1.17
   3  -2   3   35.27    1.26
  -4   2  -3    2.47    0.53
  -4   2  -3    2.35    0.54
  -5   2  -3   13.16    1.16
  -5   2  -3   14.18    1.19
  -6   2  -3    5.27    0.87
  -6   2  -3    4.74    0.99
  -6   2  -3    4.48    0.90
  -7  -1   3    0.92    0.86
  -6  -1   3    5.30    0.65
  -5  -1   3    7.60    0.87
  -5  -1   3    7.92    0.84
   4   1  -3    4.56    0.52
   4   1  -3    4.80    0.67
  -4  -1   3    4.79    0.51
  -4  -1   3    4.60    0.76
   3   1  -3    1.45    0.33
   3   1  -3    1.81    0.41
  -3  -1   3    1.37    0.33
  -3  -1   3    1.85    0.45
   2   1  -3   19.26    0.76
  -2  -1   3   20.23    0.77
   1   1  -3  156.08    3.73
  -1  -1   3  156.91    3.73
  -1  -1   3  151.34    3.73
   0   1  -3  195.08    4.63
   0  -1   3  196.51    4.64
  -1   1  -3  115.27    2.79
   1  -1   3  111.67    2.78
  -2   1  -3   95.16    2.40
  -2   1  -3   98.02    2.45
   2  -1   3   98.91    2.45
   2  -1   3   97.66    2.41
  -3   1  -3   58.07    1.66
  -3   1  -3   59.62    1.71
   3  -1   3   61.23    1.67
   3  -1   3   62.26    1.74
  -4   1  -3   24.79    1.14
  -4   1  -3   23.63    1.02
   4  -1   3   26.01    1.18
  -5   1  -3    1.25    0.61
  -5   1  -3    0.58    0.47
   5  -1   3    0.16    0.62
  -6   1  -3    0.26    0.59
  -6   1  -3    0.78    0.79
  -6   1  -3   -0.29    0.62
  -7   0   3    1.03    0.84
  -7   0   3    0.91    0.92
  -7   0   3    1.15    1.01
  -6   0   3    2.27    0.72
  -6   0   3    2.87    0.76
  -5   0   3   16.00    1.08
  -5   0   3   15.56    1.07
  -4   0   3    0.94    0.45
  -4   0   3    0.86    0.41
   3   0  -3    6.44    0.65
  -3   0   3    6.25    0.59
  -3   0   3    7.45    0.70
   2   0  -3  102.03    2.52
  -2   0   3   99.13    2.51
  -2   0   3   98.31    2.61
   1   0  -3  193.40    4.54
  -1   0   3  188.98    4.53
   0   0  -3   34.80    0.96
   0   0  -3   33.91    0.97
   0   0   3   34.33    0.97
   0   0   3   34.49    0.97
  -1   0  -3    1.10    0.24
  -1   0  -3    1.45    0.27
   1   0   3    1.13    0.26
   1   0   3    1.02    0.25
  -2   0  -3   22.57    0.82
  -2   0  -3   22.78    0.70
   2   0   3   21.32    0.82
   2   0   3   20.24    0.68
  -3   0  -3    4.77    0.44
  -3   0  -3    6.52    0.63
   3   0   3    4.92    0.42
   3   0   3    5.33    0.64
  -4   0  -3    4.92    0.52
  -4   0  -3    5.75    0.81
   4   0   3    5.79    0.65
  -5   0  -3   18.85    1.22
   5   0   3   17.16    1.26
  -6   0  -3   13.51    1.37
   6   0   3   17.13    1.54
  -7   0  -3   -1.67    1.03
  -6   1   3    1.57    1.13
  -6   1   3    1.62    0.81
  -6   1   3    0.18    0.77
  -5   1   3    3.08    0.66
  -5   1   3    2.87    0.65
  -5   1   3    3.57    0.67
  -4   1   3    0.96    0.46
  -4   1   3    1.30    0.47
  -3   1   3   42.59    1.36
  -3   1   3   40.81    1.42
  -2   1   3  116.21    2.93
   1  -1  -3    2.05    0.35
  -1   1   3    2.02    0.34
   0  -1  -3  113.47    2.70
   0  -1  -3  106.99    2.65
   0   1   3  102.85    2.65
   0   1   3  112.58    2.70
  -1  -1  -3  570.53   12.72
  -1  -1  -3  541.88   12.80
   1   1   3  565.51   12.72
   1   1   3  539.42   12.79
  -2  -1  -3   17.02    0.75
   2   1   3   15.28    0.76
  -3  -1  -3    6.07    0.64
   3   1   3    5.45    0.66
  -4  -1  -3    1.39    0.46
   4   1   3    0.91    0.48
  -5  -1  -3    3.34    0.71
   5   1   3    1.83    0.65
  -6  -1  -3    0.19    0.67
   6   1   3    0.05    0.71
  -7  -1  -3    0.10    0.92
   7   1   3    0.96    1.12
  -6   2   3    3.84    1.07
  -6   2   3    2.79    0.95
  -6   2   3    2.05    0.93
  -5   2   3    7.93    0.91
  -5   2   3    8.51    1.19
  -5   2   3    8.02    1.17
  -4   2   3    2.74    0.60
  -4   2   3    2.93    0.61
  -3   2   3   17.94    0.96
  -3   2   3   17.21    0.96
  -3   2   3   17.46    0.94
  -2   2   3  129.28    3.30
  -1   2   3   23.19    0.95
  -1   2   3   20.57    0.92
   0  -2  -3  976.64   22.82
   0   2   3  951.70   22.43
   0   2   3 1000.00   22.75
  -1  -2  -3   31.60    1.08
   1   2   3   31.35    1.08
   1   2   3   31.35    0.96
  -2  -2  -3  417.67    9.80
   2   2   3  414.85    9.80
   2   2   3  412.20    9.59
   2   2   3  423.07    9.59
  -3  -2  -3   75.74    2.16
   3   2   3   76.73    2.18
  -4  -2  -3   13.76    0.93
   4   2   3   11.98    0.95
   5   2   3   27.16    1.61
  -6  -2  -3    1.50    0.67
   6   2   3    1.80    0.77
  -7  -2  -3    3.17    0.92
   7   2   3    5.07    1.17
  -6   3   3   -1.65    1.20
  -6   3   3   -0.82    1.02
  -6   3   3    0.09    1.06
  -5   3   3    0.24    0.78
  -5   3   3    1.20    0.80
  -5   3   3    1.78    0.76
  -4   3   3   22.86    1.40
  -4   3   3   24.05    1.34
  -4   3   3   22.80    1.31
  -3   3   3    9.13    1.00
  -3   3   3   10.23    1.10
  -3   3   3    9.09    0.90
  -3   3   3    9.74    0.94
  -2   3   3   25.82    1.09
  -2   3   3   27.41    1.16
  -2   3   3   27.00    1.12
  -1   3   3    0.94    0.38
  -1   3   3    0.75    0.37
   0  -3  -3   71.74    1.99
   0   3   3   74.32    2.03
   0   3   3   70.50    1.97
  -1  -3  -3   53.49    1.59
   1   3   3   53.20    1.60
   1   3   3   53.29    1.52
  -2  -3  -3   10.02    0.75
   2   3   3   10.22    0.79
   2   3   3    8.17    0.56
  -3  -3  -3   46.34    1.56
   3   3   3   47.81    1.59
  -4  -3  -3   12.84    0.93
   4   3   3   11.76    0.97
  -5  -3  -3    2.87    0.64
   5   3   3    2.40    0.62
  -6  -3  -3   -0.22    0.51
   6   3   3    0.99    0.68
   7   3   3   -0.48    0.97
  -5   4   3    3.62    1.13
  -5   4   3    4.43    0.94
  -5   4   3    4.71    1.21
  -5   4   3    6.16    1.09
  -4   4   3   19.15    1.49
  -4   4   3   18.91    1.37
  -3   4   3   26.56    1.87
  -3   4   3   27.77    1.51
  -3   4   3   32.89    1.65
  -2   4   3    8.50    0.98
  -2   4   3    8.73    0.92
  -1   4   3   33.51    1.31
  -1   4   3   34.58    1.34
   0  -4  -3    0.56    0.39
   0   4   3   -0.15    0.34
   0   4   3    0.32    0.42
  -1  -4  -3    2.02    0.41
   1   4   3    1.91    0.43
   1   4   3    1.16    0.36
  -2  -4  -3  123.19    3.25
   2   4   3  120.80    3.09
   2   4   3  123.80    3.26
  -3  -4  -3   23.25    1.09
   3   4   3   21.32    0.83
   3   4   3   21.37    1.11
  -4  -4  -3   15.27    1.07
   4   4   3   16.44    1.14
  -5  -4  -3   24.35    1.25
   5   4   3   25.35    1.35
  -6  -4  -3   -0.39    0.56
   6   4   3    0.51    0.63
  -7  -4  -3   -0.26    0.78
   7   4   3    2.22    0.89
  -5   5   3    3.03    1.16
  -5   5   3    0.75    1.34
  -5   5   3    0.65    1.40
  -5   5   3    1.42    1.04
  -4   5   3   12.36    1.30
  -4   5   3    9.62    1.43
  -4   5   3   10.69    1.73
  -3   5   3   12.46    1.07
  -3   5   3   15.50    1.27
  -3   5   3   15.71    1.41
  -2   5   3   48.10    1.77
  -2   5   3   43.52    1.81
  -1   5   3   20.71    1.26
  -1   5   3   19.72    1.16
   0  -5  -3   18.83    1.04
   0   5   3   18.30    1.05
   0   5   3   18.31    1.13
  -1  -5  -3    1.96    0.46
   1   5   3    2.04    0.45
  -2  -5  -3    3.42    0.57
   2   5   3    1.76    0.45
   2   5   3    2.26    0.53
  -3  -5  -3    6.85    0.89
   3   5   3    7.16    0.76
   3   5   3    6.22    0.92
  -4  -5  -3    1.28    0.45
   4   5   3    0.37    0.34
   4   5   3    1.56    0.55
  -5  -5  -3    2.78    0.56
   5   5   3    2.79    0.64
  -6  -5  -3    6.66    0.94
   6   5   3    8.93    1.14
  -7  -5  -3   -0.76    0.63
   7   5   3   -0.07    0.82
  -4   6   3    0.04    1.01
  -4   6   3    0.09    1.07
  -4   6   3    1.35    0.86
  -4   6   3    0.10    1.31
  -3   6   3    4.97    0.73
  -3   6   3    7.10    1.52
  -3   6   3    7.23    0.99
  -2   6   3    3.43    0.91
  -2   6   3    3.20    0.69
  -1   6   3    3.38    0.67
  -1   6   3    5.03    0.85
   0  -6  -3   30.63    1.44
   0   6   3   31.98    1.52
  -1  -6  -3    5.98    0.94
   1   6   3    7.62    1.06
   1   6   3    7.38    0.93
  -2  -6  -3   20.21    1.19
   2   6   3   20.70    1.29
   2   6   3   23.14    1.24
   3   6   3    0.80    0.62
   3   6   3    0.63    0.51
  -4  -6  -3    0.68    0.46
   4   6   3    0.15    0.44
   4   6   3    0.60    0.55
   5   6   3   11.42    1.13
  -6  -6  -3    2.89    0.65
   6   6   3    2.77    0.79
  -3   7   3   -1.07    0.68
  -3   7   3    1.09    1.32
  -3   7   3    1.00    0.91
  -2   7   3   10.64    1.26
  -2   7   3   13.18    1.39
  -1   7   3    1.06    0.60
  -1   7   3    0.75    0.85
   0  -7  -3   21.17    1.40
   0   7   3   20.91    1.29
   0   7   3   20.78    1.53
  -1  -7  -3   14.78    1.20
   1   7   3   14.15    1.32
   1   7   3   16.37    1.23
  -2  -7  -3    5.06    0.98
   2   7   3    6.36    1.38
  -3  -7  -3    4.27    0.71
   3   7   3    7.13    1.11
  -4  -7  -3    6.34    0.96
   4   7   3   10.13    1.06
   4   7   3    8.97    1.17
  -5  -7  -3    0.42    0.55
   5   7   3    0.31    0.55
   5   7   3   -0.21    0.64
  -6  -7  -3   -1.03    0.62
   6   7   3    0.30    0.74
  -2   8   3    3.59    0.90
  -2   8   3    0.10    1.27
  -1   8   3    0.17    1.09
  -1   8   3    1.51    0.74
   0  -8  -3    3.64    0.90
   0   8   3    3.18    1.01
   0   8   3    4.89    0.75
  -1  -8  -3   12.30    1.40
   1   8   3   13.28    1.34
   1   8   3   11.36    1.53
  -2  -8  -3    0.60    0.67
   2   8   3    0.82    0.82
   2   8   3    1.06    0.70
  -3  -8  -3    5.52    0.85
   3   8   3    9.29    1.39
   3   8   3    6.07    0.99
  -4  -8  -3   -0.93    0.62
   4   8   3    2.27    0.85
   4   8   3    0.57    1.32
  -5  -8  -3    0.51    0.70
   5   8   3    0.76    0.76
   5   8   3    1.86    0.88
  -1   9   3    0.05    1.38
   0  -9  -3    1.24    1.08
   0   9   3    0.47    1.22
   0   9   3    3.62    0.84
  -1  -9  -3    0.09    0.99
   1   9   3    0.74    0.89
   1   9   3   -0.06    1.13
  -2  -9  -3    0.98    1.10
   2   9   3    3.32    0.96
   2   9   3    1.60    1.09
  -3  -9  -3   -0.11    0.88
   3   9   3    2.28    0.96
   3   9   3   -0.30    1.04
  -4  -9  -3   -1.46    0.86
   4   9   3    0.25    1.07
   4   9   3    1.11    1.00
   4   9  -4    2.01    1.21
   4   9  -4    4.23    1.25
  -4  -9   4    3.13    1.03
  -4  -9   4    3.06    1.24
   3   9  -4   11.08    1.33
   3   9  -4   11.25    1.29
  -3  -9   4   10.55    1.37
  -3  -9   4   13.17    1.44
   2   9  -4    2.23    0.96
   2   9  -4    2.19    0.85
  -2  -9   4    2.45    1.05
  -2  -9   4    3.66    0.75
   1   9  -4   -0.24    0.77
   1   9  -4    0.31    0.83
  -1  -9   4    1.36    0.67
  -1  -9   4    1.32    0.93
   0   9  -4   -0.84    1.08
   0  -9   4    3.73    0.94
   5   8  -4    8.69    1.25
   5   8  -4    7.62    1.37
  -5  -8   4    9.58    1.35
  -5  -8   4    9.35    1.11
   4   8  -4    0.43    0.91
   4   8  -4   -0.63    0.82
  -4  -8   4   -0.40    0.82
  -4  -8   4    0.20    0.70
   3   8  -4    0.52    0.80
   3   8  -4    0.60    0.74
  -3  -8   4    1.25    0.88
  -3  -8   4   -0.38    0.78
   2   8  -4    1.73    0.71
   2   8  -4    3.63    0.80
  -2  -8   4    1.56    0.84
  -2  -8   4    2.74    0.65
   1   8  -4    1.59    0.68
   1   8  -4    0.70    0.60
  -1  -8   4    0.43    0.53
  -1  -8   4    1.33    0.73
   0   8  -4    0.86    0.61
   0  -8   4    1.09    0.53
  -1   8  -4    0.53    0.71
   1  -8   4    2.50    0.69
  -2   8  -4    1.37    0.86
   2  -8   4    5.37    0.91
   6   7  -4   -0.49    1.06
   6   7  -4    0.77    1.37
  -6  -7   4    0.40    1.23
  -6  -7   4   -1.23    0.87
   5   7  -4    0.26    0.87
   5   7  -4    0.72    0.86
  -5  -7   4    1.52    0.71
  -5  -7   4   -0.15    0.74
   4   7  -4    7.56    1.00
   4   7  -4    7.53    0.88
  -4  -7   4    9.34    1.12
  -4  -7   4    8.11    1.30
   3   7  -4    7.10    0.85
   3   7  -4    7.80    1.15
  -3  -7   4    8.58    1.01
  -3  -7   4    6.45    0.98
   2   7  -4   45.27    1.84
   2   7  -4   48.17    1.78
  -2  -7   4   51.94    1.81
  -2  -7   4   47.80    1.82
   1   7  -4    1.64    0.56
   1   7  -4    0.53    0.53
  -1  -7   4    0.12    0.39
  -1  -7   4    0.56    0.57
   0  -7   4    5.43    0.79
  -1   7  -4   32.92    1.55
   1  -7   4   33.78    1.41
  -2   7  -4    8.47    1.28
   2  -7   4   11.32    1.07
  -3   7  -4    2.26    1.06
   3  -7   4    4.59    0.93
   6   6  -4    0.97    0.89
   6   6  -4    0.74    0.81
  -6  -6   4    0.77    0.70
   5   6  -4    7.16    0.97
   5   6  -4    6.43    0.91
  -5  -6   4    6.86    1.08
   4   6  -4    0.71    0.61
   4   6  -4    1.41    0.62
  -4  -6   4    1.68    0.55
  -4  -6   4    0.88    0.61
   3   6  -4    1.77    0.62
   3   6  -4    1.80    0.58
  -3  -6   4    1.68    0.55
  -3  -6   4    2.60    0.64
   2   6  -4   -0.62    0.47
   2   6  -4   -0.20    0.50
  -2  -6   4   -0.58    0.38
  -2  -6   4    0.12    0.52
   1   6  -4    9.82    1.55
   1   6  -4    9.61    0.84
  -1  -6   4    8.26    0.93
  -1  -6   4   10.02    0.88
   0   6  -4    0.83    0.54
   0   6  -4    1.32    0.39
   0  -6   4    0.36    0.44
  -1   6  -4    0.53    0.50
   1  -6   4    0.60    0.41
  -2   6  -4    0.15    0.60
   2  -6   4    1.29    0.57
  -3   6  -4    4.12    0.87
   3  -6   4    4.36    0.78
  -4   6  -4    1.12    1.12
   7   5  -4   -0.26    0.77
   6   5  -4    2.53    0.77
   6   5  -4    3.42    0.83
  -6  -5   4    3.59    0.65
  -6  -5   4    2.19    0.63
   5   5  -4    1.09    0.65
   5   5  -4   -0.55    0.54
  -5  -5   4    0.57    0.50
  -5  -5   4    0.24    0.51
   4   5  -4    8.04    0.95
   4   5  -4    8.58    1.33
  -4  -5   4    7.92    1.01
  -4  -5   4    6.63    0.86
   3   5  -4   -0.21    0.49
   3   5  -4    0.59    0.46
  -3  -5   4    0.23    0.42
  -3  -5   4    0.41    0.52
   2   5  -4    0.87    0.46
   2   5  -4    0.96    0.45
  -2  -5   4    1.84    0.43
  -2  -5   4    1.04    0.46
   1   5  -4    4.96    0.66
   1   5  -4    5.02    0.79
  -1  -5   4    5.30    0.71
  -1  -5   4    3.91    0.53
   0   5  -4    0.37    0.46
   0  -5   4    0.25    0.38
  -1   5  -4    2.44    0.59
   1  -5   4    3.04    0.59
  -2   5  -4   19.86    1.25
   2  -5   4   14.98    1.01
  -3   5  -4   34.69    1.71
   3  -5   4   34.67    1.53
  -4   5  -4    4.34    0.96
   7   4  -4    0.46    0.80
  -7  -4   4    0.56    0.84
   6   4  -4    2.26    0.66
   6   4  -4    2.97    0.67
  -6  -4   4    3.56    0.61
  -6  -4   4    2.99    0.62
   5   4  -4    3.30    0.67
   5   4  -4    2.89    0.62
  -5  -4   4    3.01    0.60
  -5  -4   4    3.13    0.54
   4   4  -4    0.60    0.52
   4   4  -4    0.58    0.51
  -4  -4   4    0.61    0.43
  -4  -4   4    1.20    0.47
   3   4  -4    1.23    0.46
   3   4  -4    0.61    0.48
  -3  -4   4    0.91    0.46
  -3  -4   4    0.86    0.39
   2   4  -4    4.00    0.50
   2   4  -4    3.83    0.50
  -2  -4   4    4.12    0.67
  -2  -4   4    4.08    0.47
   1   4  -4   56.07    1.60
   1   4  -4   59.35    1.77
  -1  -4   4   56.81    1.61
  -1  -4   4   57.46    1.73
   0   4  -4    1.78    0.43
   0  -4   4    1.90    0.40
  -1   4  -4   52.13    1.73
   1  -4   4   52.61    1.69
  -2   4  -4   13.80    1.08
   2  -4   4   14.53    0.97
  -3   4  -4   11.21    1.17
   3  -4   4   11.02    1.04
  -4   4  -4    2.04    0.72
  -4   4  -4    1.32    0.62
   4  -4   4    1.24    0.65
  -5   4  -4    0.85    1.01
  -5   4  -4    1.21    0.89
  -5   4  -4   -0.69    0.74
  -7  -3   4   -0.06    0.57
  -7  -3   4   -1.62    0.76
   6   3  -4    7.56    1.14
   6   3  -4    7.28    1.06
  -6  -3   4    5.96    0.65
  -6  -3   4    8.30    1.08
   5   3  -4   10.22    0.94
   5   3  -4   11.36    1.07
  -5  -3   4    9.50    1.00
  -5  -3   4   12.39    0.90
   4   3  -4   11.05    0.94
   4   3  -4   12.21    1.05
  -4  -3   4   11.91    0.87
  -4  -3   4   13.00    1.01
   3   3  -4   46.11    1.58
   3   3  -4   46.87    1.50
  -3  -3   4   47.30    1.59
  -3  -3   4   46.20    1.47
   2   3  -4   42.88    1.37
   2   3  -4   42.85    1.36
  -2  -3   4   40.35    1.36
  -2  -3   4   42.07    1.33
   1   3  -4    0.95    0.30
   1   3  -4    1.37    0.37
  -1  -3   4    1.01    0.35
  -1  -3   4    0.63    0.29
   0   3  -4   35.07    1.22
   0  -3   4   34.57    1.19
  -1   3  -4  111.18    2.92
   1  -3   4  110.56    2.92
  -2   3  -4    0.44    0.41
   2  -3   4    0.32    0.35
  -3   3  -4   12.69    1.03
  -3   3  -4   12.66    0.72
   3  -3   4   12.67    0.96
  -4   3  -4   11.11    1.18
  -4   3  -4   11.66    0.94
   4  -3   4   11.96    1.05
  -5   3  -4    0.14    0.77
  -5   3  -4   -1.32    0.64
  -6   3  -4    0.23    1.06
  -6   3  -4   -0.74    1.27
  -7  -2   4    0.45    0.66
  -7  -2   4    1.18    0.75
  -6  -2   4    6.09    0.95
  -6  -2   4    6.71    0.97
   5   2  -4    1.06    0.52
   5   2  -4    1.16    0.49
  -5  -2   4    1.38    0.49
  -5  -2   4    0.41    0.47
   4   2  -4   10.57    0.98
   4   2  -4    9.41    0.83
  -4  -2   4   10.53    0.82
  -4  -2   4    9.95    0.93
   3   2  -4  111.04    2.85
   3   2  -4  109.68    2.97
  -3  -2   4  109.91    2.83
  -3  -2   4  109.17    2.98
   2   2  -4    4.26    0.58
   2   2  -4    4.49    0.63
  -2  -2   4    3.76    0.58
  -2  -2   4    3.65    0.61
   1   2  -4  367.19    8.60
   1   2  -4  371.70    8.66
  -1  -2   4  363.37    8.65
  -1  -2   4  373.11    8.62
   0   2  -4    8.07    0.64
   0  -2   4    7.49    0.38
   0  -2   4    7.92    0.65
  -1   2  -4   58.01    1.65
   1  -2   4   57.73    1.65
  -2   2  -4   17.36    0.84
   2  -2   4   16.59    0.81
  -3   2  -4   20.09    0.85
  -3   2  -4   20.74    1.00
   3  -2   4   19.73    0.95
  -4   2  -4    3.89    0.60
  -4   2  -4    3.65    0.57
   4  -2   4    3.74    0.56
  -5   2  -4    5.48    0.77
  -5   2  -4    5.09    0.71
  -6   2  -4    1.78    0.85
  -6   2  -4    2.15    0.82
  -6   2  -4   -0.09    0.92
  -7  -1   4    2.57    0.89
  -7  -1   4    4.06    0.93
  -7  -1   4    2.19    0.78
  -6  -1   4    0.09    0.54
  -6  -1   4    0.23    0.59
  -5  -1   4    2.02    0.54
  -5  -1   4    2.29    0.54
   4   1  -4    2.64    0.49
  -4  -1   4    3.45    0.51
  -4  -1   4    2.83    0.53
   3   1  -4   45.74    1.40
  -3  -1   4   46.91    1.42
  -3  -1   4   45.95    1.56
   2   1  -4    8.47    0.62
  -2  -1   4    9.11    0.62
  -2  -1   4    8.33    0.69
   1   1  -4   18.94    0.81
  -1  -1   4   17.93    0.77
  -1  -1   4   19.56    0.81
   0   1  -4   16.22    0.76
   0  -1   4   15.66    0.76
  -1   1  -4  178.71    4.12
  -1   1  -4  173.31    4.24
   1  -1   4  175.39    4.24
   1  -1   4  179.23    4.12
  -2   1  -4   10.54    0.53
  -2   1  -4   10.37    0.61
   2  -1   4    9.56    0.55
   2  -1   4   10.15    0.59
  -3   1  -4   51.68    1.52
  -3   1  -4   52.34    1.50
   3  -1   4   51.77    1.54
   3  -1   4   51.43    1.49
  -4   1  -4   -0.37    0.45
  -4   1  -4   -0.25    0.40
   4  -1   4   -0.56    0.49
  -5   1  -4    6.90    0.87
  -5   1  -4    7.46    0.84
   5  -1   4    8.17    1.10
  -6   1  -4    1.09    0.58
  -6   1  -4    0.56    0.84
  -6   1  -4    1.18    0.65
  -7   0   4    0.05    0.99
  -7   0   4    1.40    1.04
  -7   0   4    0.43    0.87
  -6   0   4    0.94    0.73
  -6   0   4    2.57    0.73
  -6   0   4    1.97    0.77
  -5   0   4    0.68    0.51
  -5   0   4    1.57    0.49
  -4   0   4   10.24    0.87
  -4   0   4   11.52    0.92
   3   0  -4    4.27    0.64
  -3   0   4    5.40    0.65
  -3   0   4    4.58    0.47
   2   0  -4  161.45    3.87
  -2   0   4  153.03    3.93
  -2   0   4  158.27    3.86
   1   0  -4   13.87    0.69
  -1   0   4   13.20    0.70
   0   0  -4  174.92    4.15
   0   0  -4  175.68    4.16
   0   0   4  172.27    4.16
   0   0   4  172.63    4.16
  -1   0  -4  648.57   15.12
  -1   0  -4  676.82   15.13
   1   0   4  632.54   15.11
   1   0   4  673.31   15.13
  -2   0  -4   96.68    2.32
  -2   0  -4   94.06    2.38
   2   0   4   91.98    2.31
   2   0   4   92.73    2.39
  -3   0  -4  110.20    2.83
  -3   0  -4  109.26    2.67
   3   0   4  110.69    2.84
   3   0   4  107.09    2.66
  -4   0  -4    0.44    0.31
  -4   0  -4    0.02    0.44
   4   0   4    0.02    0.48
  -5   0  -4    0.52    0.58
   5   0   4    1.04    0.59
  -6   0  -4    0.78    0.71
   6   0   4    0.54    0.80
  -7   0  -4    4.67    1.22
   7   0   4    6.48    1.45
  -6   1   4    1.13    0.90
  -6   1   4    1.43    0.85
  -6   1   4    0.30    0.75
  -5   1   4   12.69    1.15
  -5   1   4   12.37    1.22
  -5   1   4   12.90    1.16
  -4   1   4   -0.10    0.46
  -4   1   4    0.03    0.43
  -3   1   4   42.98    1.48
  -3   1   4   42.45    1.40
   2  -1  -4    1.27    0.37
  -2   1   4    1.19    0.31
   1  -1  -4    6.12    0.60
  -1   1   4    5.72    0.57
  -1   1   4    5.31    0.68
   0  -1  -4  487.43   11.20
   0  -1  -4  487.16   11.16
   0   1   4  471.79   11.16
   0   1   4  480.45   11.20
  -2  -1  -4    1.35    0.32
  -2  -1  -4    0.97    0.23
   2   1   4    1.15    0.34
   2   1   4    0.72    0.22
  -3  -1  -4   41.84    1.38
   3   1   4   40.90    1.39
  -4  -1  -4    4.84    0.79
   4   1   4    3.53    0.59
  -5  -1  -4    0.90    0.59
   5   1   4    1.13    0.63
  -6  -1  -4    2.80    0.77
   6   1   4    3.08    0.88
  -7  -1  -4    0.75    1.05
   7   1   4    0.58    1.19
  -6   2   4    0.44    0.90
  -6   2   4    1.29    0.90
  -6   2   4    0.92    1.01
  -5   2   4   -0.24    0.70
  -5   2   4    1.38    0.65
  -5   2   4    0.25    0.68
  -4   2   4   16.76    1.12
  -4   2   4   16.89    1.17
  -4   2   4   16.76    1.18
  -3   2   4    4.54    0.56
  -3   2   4    4.86    0.75
  -2   2   4    0.57    0.36
  -1   2   4   59.80    1.75
  -1   2   4   62.69    1.81
   0  -2  -4   38.74    1.25
   0   2   4   36.17    1.19
   0   2   4   38.94    1.28
  -1  -2  -4  311.53    7.27
   1   2   4  304.01    7.26
   1   2   4  303.30    7.16
  -2  -2  -4  210.79    5.25
   2   2   4  219.47    5.08
   2   2   4  219.62    5.28
  -3  -2  -4  125.90    3.30
   3   2   4  126.02    3.31
  -4  -2  -4    2.49    0.54
   4   2   4    2.51    0.53
   5   2   4    0.31    0.64
  -6  -2  -4    0.33    0.65
   6   2   4    0.05    0.67
  -7  -2  -4    2.41    0.98
   7   2   4    3.94    1.20
  -6   3   4    0.52    1.08
  -6   3   4    2.15    1.32
  -6   3   4   -0.50    1.13
  -5   3   4    0.25    0.80
  -5   3   4   -0.19    0.83
  -5   3   4    1.37    0.82
  -4   3   4   11.87    1.57
  -3   3   4    1.36    0.60
  -3   3   4    1.42    0.50
  -3   3   4    1.14    0.52
  -2   3   4    7.52    0.76
  -2   3   4    7.67    0.85
  -2   3   4    7.22    0.75
  -1   3   4   42.46    1.45
  -1   3   4   42.17    1.42
   0  -3  -4   53.75    1.64
   0   3   4   54.88    1.70
   0   3   4   54.93    1.61
  -1  -3  -4  231.07    5.58
   1   3   4  225.72    5.56
   1   3   4  229.70    5.48
  -2  -3  -4    1.52    0.42
   2   3   4    0.18    0.28
   2   3   4    0.83    0.41
  -3  -3  -4    1.17    0.40
   3   3   4    0.68    0.24
   3   3   4    1.39    0.46
  -4  -3  -4    2.65    0.53
   4   3   4    1.68    0.54
  -5  -3  -4    1.17    0.52
   5   3   4    1.24    0.58
  -6  -3  -4   -1.00    0.56
   6   3   4   -0.28    0.66
   7   3   4    0.07    1.04
  -5   4   4    2.70    1.20
  -5   4   4    3.59    1.03
  -5   4   4    3.87    1.16
  -4   4   4   12.16    1.21
  -4   4   4   11.37    1.45
  -4   4   4    8.85    1.31
  -4   4   4    9.19    1.38
  -3   4   4    5.19    0.86
  -3   4   4    6.91    0.94
  -3   4   4    5.99    0.91
  -2   4   4    1.28    0.46
  -2   4   4    0.89    0.57
  -2   4   4    1.27    0.52
  -1   4   4   17.24    1.06
  -1   4   4   16.67    0.93
  -1   4   4   16.86    0.98
   0  -4  -4   17.52    0.94
   0   4   4   17.39    1.01
   0   4   4   17.33    0.92
  -1  -4  -4   23.53    1.06
   1   4   4   22.73    1.01
   1   4   4   25.41    1.15
   2   4   4    1.26    0.42
   2   4   4    0.55    0.36
  -3  -4  -4    3.47    0.57
   3   4   4    3.17    0.56
   3   4   4    2.91    0.39
   3   4   4    2.55    0.38
  -4  -4  -4    2.00    0.51
   4   4   4    1.86    0.57
  -5  -4  -4    1.18    0.52
   5   4   4    0.12    0.51
  -6  -4  -4    0.02    0.47
   6   4   4    2.15    0.64
   7   4   4   -0.90    0.92
  -5   5   4    0.49    1.48
  -5   5   4   -0.09    1.36
  -5   5   4    0.30    1.04
  -5   5   4    2.24    1.23
  -4   5   4   -0.18    0.99
  -4   5   4    0.48    0.73
  -4   5   4    0.55    0.86
  -4   5   4    0.98    0.90
  -3   5   4   10.16    1.14
  -3   5   4   11.09    1.04
  -3   5   4    8.55    1.09
  -2   5   4   -0.11    0.41
  -2   5   4    0.40    0.67
  -2   5   4    0.60    0.58
  -1   5   4   16.30    1.10
  -1   5   4   15.39    1.26
   0  -5  -4   18.41    1.07
   0   5   4   18.52    1.19
   0   5   4   17.63    1.04
  -1  -5  -4   37.99    1.48
   1   5   4   38.87    1.51
   1   5   4   40.54    1.44
  -2  -5  -4   33.45    1.38
   2   5   4   33.80    1.29
   2   5   4   32.93    1.41
  -3  -5  -4    0.90    0.51
   3   5   4    1.04    0.45
   3   5   4    1.61    0.57
  -4  -5  -4   39.45    1.60
   4   5   4   40.74    1.67
   4   5   4   38.88    1.25
   4   5   4   39.04    1.26
  -5  -5  -4    1.11    0.44
   5   5   4    0.53    0.57
  -6  -5  -4    1.89    0.64
   6   5   4    2.25    0.70
  -7  -5  -4   -0.36    0.70
   7   5   4    2.08    0.89
  -4   6   4    0.34    1.40
  -4   6   4   -0.63    1.05
  -4   6   4    0.88    0.86
  -3   6   4   12.58    1.85
  -3   6   4   12.83    1.18
  -3   6   4   11.86    1.44
  -2   6   4   -0.30    0.81
  -2   6   4    1.44    0.56
  -2   6   4    0.59    0.42
  -1   6   4    0.96    0.59
  -1   6   4    1.26    0.74
   0  -6  -4    2.71    0.67
   0   6   4    2.24    0.72
   0   6   4    3.63    0.76
  -1  -6  -4   14.87    1.11
   1   6   4   16.54    1.12
   1   6   4   16.07    1.27
  -2  -6  -4   25.16    1.32
   2   6   4   24.74    1.28
   2   6   4   24.92    1.38
  -3  -6  -4    0.39    0.47
   3   6   4    1.14    0.54
   3   6   4    0.98    0.66
  -4  -6  -4    5.63    0.76
   4   6   4    5.52    0.83
   4   6   4    5.20    0.77
  -5  -6  -4    1.50    0.56
   5   6   4    1.38    0.62
  -6  -6  -4    8.33    1.04
   6   6   4    9.51    1.26
  -3   7   4   -0.35    0.73
  -3   7   4    0.32    1.39
  -3   7   4   -0.02    0.90
  -2   7   4   -0.06    1.02
  -2   7   4    0.47    0.51
  -2   7   4   -1.22    0.63
  -1   7   4    3.47    1.62
   0  -7  -4    4.83    1.01
   0   7   4    5.17    0.93
   1   7   4    1.51    0.93
   1   7   4    1.05    0.57
  -2  -7  -4    0.20    0.59
   2   7   4   -0.32    0.65
  -3  -7  -4   -0.42    0.48
   3   7   4    1.50    0.63
   3   7   4    0.55    0.59
  -4  -7  -4   19.49    1.35
   4   7   4   15.34    1.26
   4   7   4   18.53    1.20
  -5  -7  -4    0.10    0.55
   5   7   4    0.27    0.55
   5   7   4    0.77    0.56
   5   7   4    1.03    0.66
   6   7   4    0.21    0.83
  -2   8   4    1.16    1.37
  -2   8   4    1.11    0.88
  -1   8   4   -0.04    1.13
  -1   8   4    2.06    0.75
   0  -8  -4    0.65    0.83
   0   8   4   -0.25    0.64
   0   8   4    0.84    0.99
  -1  -8  -4    1.77    0.79
   1   8   4    1.06    0.88
   1   8   4    3.87    0.79
  -2  -8  -4    5.59    0.89
   2   8   4    4.74    0.87
   2   8   4    4.38    1.00
  -3  -8  -4    1.37    0.74
   3   8   4    2.73    0.80
   3   8   4    2.29    0.89
  -4  -8  -4   -0.57    0.60
   4   8   4   -0.06    0.74
  -5  -8  -4    1.65    0.71
   5   8   4    2.93    0.78
   5   8   4    1.98    0.81
   5   8   4    2.11    0.84
   0  -9  -4    0.38    1.10
   0   9   4    2.77    0.87
   0   9   4    1.66    1.31
  -1  -9  -4   -0.77    0.99
   1   9   4    0.25    1.19
   1   9   4    1.36    0.89
  -2  -9  -4    2.91    1.02
   2   9   4    1.52    1.03
   2   9   4    3.18    1.03
  -3  -9  -4    0.11    0.85
   3   9   4   -0.26    1.08
   3   9   4    0.45    0.98
  -4  -9  -4    1.77    0.83
   4   9   4    2.68    1.04
   4   9   4    1.24    1.11
   3   9  -5   -0.83    1.10
   3   9  -5    1.53    1.02
  -3  -9   5    0.53    1.09
  -3  -9   5    1.03    0.83
   2   9  -5    0.85    0.98
   2   9  -5    1.06    0.91
  -2  -9   5    2.87    0.77
  -2  -9   5    2.95    1.06
   1   9  -5    1.95    0.78
  -1  -9   5    1.41    0.71
  -1  -9   5    1.85    0.96
   5   8  -5    0.05    1.05
   5   8  -5    0.28    1.16
  -5  -8   5   -0.32    1.08
  -5  -8   5    1.69    1.09
   4   8  -5   -0.88    0.91
   4   8  -5   -0.51    1.01
  -4  -8   5   -1.63    0.88
   3   8  -5    0.39    0.77
   3   8  -5   -0.55    0.83
  -3  -8   5   -0.07    0.80
  -3  -8   5    0.93    0.68
   2   8  -5    1.25    0.72
   2   8  -5    1.62    0.77
  -2  -8   5    1.41    0.84
  -2  -8   5    0.87    0.57
   1   8  -5    7.58    0.82
   1   8  -5    7.91    1.15
  -1  -8   5    6.34    0.94
  -1  -8   5    8.16    1.28
   0   8  -5    5.87    0.85
   0  -8   5    6.61    0.96
  -1   8  -5   -0.35    0.62
   1  -8   5    0.72    0.64
   6   7  -5    0.86    1.15
   6   7  -5    1.16    1.20
  -6  -7   5    2.34    0.89
  -6  -7   5    0.50    1.01
   5   7  -5    0.32    0.89
   5   7  -5   -0.22    0.92
  -5  -7   5   -0.41    0.72
  -5  -7   5   -0.79    0.81
   4   7  -5    1.70    0.85
   4   7  -5    2.56    0.85
  -4  -7   5    2.71    0.71
  -4  -7   5    1.23    0.85
   3   7  -5    0.52    0.69
   3   7  -5   -1.04    0.66
  -3  -7   5   -0.26    0.67
  -3  -7   5    0.36    0.54
   2   7  -5    5.51    0.76
   2   7  -5    7.23    1.06
  -2  -7   5    6.76    1.12
  -2  -7   5    6.23    0.83
   1   7  -5    1.13    0.54
   1   7  -5    0.95    0.53
  -1  -7   5    1.05    0.42
  -1  -7   5    0.97    0.56
   0   7  -5    6.06    0.79
  -1   7  -5   16.06    1.22
   1  -7   5   15.57    1.03
  -2   7  -5   -0.41    0.65
   2  -7   5    1.42    0.66
  -3   7  -5   -0.47    1.00
   3  -7   5    2.37    0.92
   6   6  -5    0.05    0.94
   6   6  -5   -0.28    0.97
  -6  -6   5   -0.30    0.73
  -6  -6   5   -1.58    0.80
   5   6  -5    0.38    0.75
   5   6  -5   -0.94    0.80
  -5  -6   5   -0.52    0.62
   4   6  -5    0.12    0.69
   4   6  -5   -0.76    0.61
  -4  -6   5    0.06    0.62
   3   6  -5    0.13    0.62
   3   6  -5    1.27    0.73
  -3  -6   5    0.32    0.56
   2   6  -5    1.41    0.56
   2   6  -5    2.79    0.75
  -2  -6   5    2.08    0.49
  -2  -6   5    2.15    0.56
   1   6  -5   49.34    1.63
   1   6  -5   54.86    1.90
  -1  -6   5   52.39    1.80
  -1  -6   5   54.85    1.71
   0   6  -5   32.57    1.50
   0  -6   5   32.19    1.37
  -1   6  -5   -0.57    0.51
   1  -6   5    0.89    0.42
  -2   6  -5    0.00    0.57
   2  -6   5    2.02    0.54
  -3   6  -5    2.06    0.83
   3  -6   5    1.31    0.68
  -4   6  -5   -0.52    1.21
   6   5  -5    0.86    0.80
   6   5  -5    0.26    0.72
  -6  -5   5    0.69    0.66
  -6  -5   5    0.64    0.63
   5   5  -5    2.36    0.72
   5   5  -5    1.67    0.70
  -5  -5   5    2.41    0.70
  -5  -5   5    0.54    0.56
   4   5  -5    3.67    0.67
   4   5  -5    3.26    0.68
  -4  -5   5    3.20    0.57
  -4  -5   5    3.25    0.68
   3   5  -5   12.84    1.10
   3   5  -5   15.05    1.07
  -3  -5   5   14.29    1.08
  -3  -5   5   13.92    0.98
   2   5  -5    0.19    0.47
   2   5  -5    0.66    0.47
  -2  -5   5    0.82    0.46
  -2  -5   5    0.36    0.39
   1   5  -5    2.43    0.55
   1   5  -5    2.32    0.46
  -1  -5   5    2.27    0.46
  -1  -5   5    2.37    0.45
   0   5  -5    9.81    0.99
   0  -5   5    9.88    0.89
   1  -5   5   50.49    2.06
  -2   5  -5   15.02    1.14
   2  -5   5   13.04    1.00
  -3   5  -5    5.08    0.88
   3  -5   5    8.29    1.05
  -4   5  -5    2.13    1.00
   4  -5   5    4.75    1.37
   7   4  -5   -0.29    0.82
  -7  -4   5   -0.29    0.70
   6   4  -5    7.98    1.11
   6   4  -5    6.45    0.87
  -6  -4   5    5.80    0.75
  -6  -4   5    5.09    0.68
   5   4  -5    4.04    0.70
   5   4  -5    4.92    0.71
  -5  -4   5    4.29    0.63
  -5  -4   5    3.70    0.59
   4   4  -5    0.25    0.52
   4   4  -5   -0.12    0.83
  -4  -4   5    0.10    0.45
   3   4  -5   21.08    1.08
   3   4  -5   20.90    1.15
  -3  -4   5   20.58    1.15
  -3  -4   5   19.50    1.06
   2   4  -5    6.45    0.74
   2   4  -5    6.70    0.76
  -2  -4   5    6.70    0.76
  -2  -4   5    6.23    0.71
   1   4  -5  180.90    4.38
   1   4  -5  184.96    4.57
  -1  -4   5  179.27    4.54
  -1  -4   5  177.69    4.38
   0   4  -5   68.62    2.07
   0  -4   5   69.42    2.06
  -1   4  -5   18.70    1.08
   1  -4   5   18.21    1.00
  -2   4  -5    1.17    0.50
   2  -4   5    1.66    0.47
  -3   4  -5   10.65    1.31
  -4   4  -5    1.00    0.72
   4  -4   5    0.21    0.63
  -5   4  -5    0.72    1.01
  -7  -3   5   -0.56    0.69
   6   3  -5    0.33    0.64
   6   3  -5   -0.02    0.62
  -6  -3   5    0.24    0.58
  -6  -3   5    0.56    0.58
   5   3  -5    2.83    0.62
   5   3  -5    4.00    0.67
  -5  -3   5    5.15    0.85
  -5  -3   5    2.94    0.60
   4   3  -5    4.57    0.64
   4   3  -5    5.01    0.70
  -4  -3   5    5.20    0.87
  -4  -3   5    3.62    0.58
   3   3  -5   40.70    1.43
   3   3  -5   40.83    1.49
  -3  -3   5   39.98    1.48
  -3  -3   5   39.45    1.38
   2   3  -5   68.29    1.94
   2   3  -5   65.83    1.92
  -2  -3   5   65.91    1.93
  -2  -3   5   67.66    1.94
   1   3  -5    5.06    0.57
   1   3  -5    6.79    0.70
  -1  -3   5    6.58    0.67
  -1  -3   5    6.75    0.58
   0   3  -5   53.27    1.63
   0  -3   5   51.55    1.61
  -1   3  -5   28.75    1.16
   1  -3   5   30.15    1.14
  -2   3  -5   18.95    1.05
   2  -3   5   18.58    0.95
  -3   3  -5    5.20    0.66
   3  -3   5    4.67    0.61
  -4   3  -5   49.12    1.84
  -4   3  -5   44.90    1.52
   4  -3   5   48.63    1.76
  -5   3  -5    0.78    0.82
  -5   3  -5   -0.13    0.70
  -6   3  -5    0.69    1.07
  -6   3  -5   -0.15    1.03
  -7  -2   5    0.95    0.77
  -7  -2   5    1.06    0.79
  -6  -2   5    1.50    0.63
  -6  -2   5    2.41    0.63
   5   2  -5   33.86    1.39
  -5  -2   5   32.09    1.34
  -5  -2   5   31.63    1.47
   4   2  -5   14.73    1.10
   4   2  -5   14.47    0.99
  -4  -2   5   16.14    1.07
  -4  -2   5   16.34    0.97
   3   2  -5    3.38    0.49
   3   2  -5    3.65    0.54
  -3  -2   5    4.32    0.55
  -3  -2   5    4.28    0.65
   2   2  -5   74.99    2.06
  -2  -2   5   71.87    2.03
  -2  -2   5   73.53    2.08
   1   2  -5   31.66    1.12
  -1  -2   5   31.80    1.05
  -1  -2   5   30.72    1.10
   0   2  -5   81.07    2.14
   0  -2   5   75.66    1.94
   0  -2   5   79.30    2.14
  -1   2  -5    0.67    0.33
   1  -2   5    0.60    0.33
  -2   2  -5   23.11    0.98
   2  -2   5   21.87    0.94
  -3   2  -5   68.23    1.97
  -3   2  -5   65.18    1.80
   3  -2   5   65.75    1.95
  -4   2  -5    3.85    0.57
  -4   2  -5    3.94    0.62
   4  -2   5    3.09    0.56
  -5   2  -5    0.64    0.63
  -5   2  -5    0.16    0.63
  -6   2  -5    8.02    0.96
  -7  -1   5   -0.51    0.93
  -7  -1   5   -0.02    0.84
  -7  -1   5    0.89    0.86
  -6  -1   5    1.07    0.68
  -6  -1   5    0.31    0.54
   5   1  -5    4.65    0.67
  -5  -1   5    5.07    0.82
  -5  -1   5    5.56    0.65
   4   1  -5   41.31    1.48
  -4  -1   5   41.13    1.47
  -4  -1   5   41.74    1.62
   3   1  -5    1.25    0.38
  -3  -1   5    1.71    0.40
  -3  -1   5    1.86    0.44
   2   1  -5    2.36    0.39
  -2  -1   5    2.65    0.40
  -2  -1   5    2.99    0.40
   1   1  -5   95.77    2.46
  -1  -1   5   92.78    2.45
  -1  -1   5   94.19    2.43
   0   1  -5  313.04    7.36
   0  -1   5  311.04    7.29
   0  -1   5  313.33    7.37
  -1   1  -5   66.96    1.66
  -1   1  -5   64.16    1.78
   1  -1   5   65.09    1.65
   1  -1   5   65.41    1.79
  -2   1  -5   57.83    1.61
  -2   1  -5   56.04    1.51
   2  -1   5   56.48    1.52
   2  -1   5   57.39    1.60
  -3   1  -5    0.97    0.35
  -3   1  -5    0.95    0.36
   3  -1   5    0.66    0.37
   3  -1   5    0.69    0.32
  -4   1  -5    0.58    0.41
  -4   1  -5    0.41    0.47
   4  -1   5    0.90    0.41
   4  -1   5    0.93    0.50
  -5   1  -5    1.55    0.53
  -5   1  -5    1.11    0.60
   5  -1   5    2.16    0.70
  -6   1  -5    0.96    0.61
  -6   1  -5   -0.37    0.88
  -6   1  -5    0.85    0.66
  -6   0   5    0.57    0.74
  -6   0   5    1.07    0.70
  -5   0   5   -0.23    0.50
  -5   0   5   -1.25    0.55
   4   0  -5   42.76    1.56
  -4   0   5   43.57    1.53
  -4   0   5   41.82    1.61
   3   0  -5   13.13    0.82
  -3   0   5   12.08    0.84
  -3   0   5   11.90    0.79
   2   0  -5   -0.18    0.32
  -2   0   5    0.17    0.30
  -2   0   5    0.74    0.36
   1   0  -5  142.21    3.51
  -1   0   5  141.29    3.51
   0   0  -5   37.62    1.16
   0   0   5   35.04    1.15
  -1   0  -5  156.90    3.84
  -1   0  -5  160.18    3.86
   1   0   5  159.82    3.85
   1   0   5  161.11    3.86
  -2   0  -5    4.20    0.48
  -2   0  -5    5.33    0.56
   2   0   5    4.44    0.56
   2   0   5    4.37    0.48
  -3   0  -5   38.74    1.30
  -3   0  -5   40.87    1.18
   3   0   5   39.82    1.15
   3   0   5   37.63    1.31
  -4   0  -5    2.70    0.39
  -4   0  -5    2.99    0.57
   4   0   5    2.09    0.55
   4   0   5    2.79    0.36
  -5   0  -5    0.78    0.59
   5   0   5    0.29    0.61
  -6   0  -5   -0.17    0.75
   6   0   5   -0.25    0.87
  -7   0  -5    3.42    1.27
   7   0   5    2.90    1.32
  -6   1   5   -0.91    0.76
  -6   1   5    1.31    0.96
  -5   1   5   50.79    1.91
  -5   1   5   46.69    1.84
  -4   1   5    7.93    0.97
  -4   1   5   10.54    1.01
   3  -1  -5   21.01    1.02
  -3   1   5   21.14    1.01
  -3   1   5   19.12    1.02
   2  -1  -5   21.54    0.97
  -2   1   5   22.43    0.94
   1  -1  -5   60.28    1.67
  -1   1   5   59.46    1.74
  -1   1   5   55.34    1.66
   0  -1  -5   99.41    2.54
   0  -1  -5   99.53    2.50
   0   1   5   97.24    2.51
   0   1   5   97.09    2.56
  -1  -1  -5  314.76    7.57
  -1  -1  -5  325.48    7.52
   1   1   5  316.13    7.58
   1   1   5  330.06    7.53
  -2  -1  -5    5.05    0.63
  -2  -1  -5    4.76    0.45
   2   1   5    4.65    0.45
   2   1   5    4.51    0.63
  -3  -1  -5   39.63    1.08
  -3  -1  -5   39.11    1.40
   3   1   5   38.40    1.06
   3   1   5   40.88    1.38
  -4  -1  -5    6.45    0.86
   4   1   5    5.97    0.70
  -5  -1  -5   16.13    1.24
   5   1   5   15.72    1.27
  -6  -1  -5   -0.11    0.77
   6   1   5   -0.78    0.79
  -7  -1  -5    1.40    1.04
   7   1   5    2.70    1.31
  -6   2   5    0.04    0.96
  -6   2   5    0.65    0.98
  -6   2   5   -0.80    1.08
  -5   2   5    0.80    0.77
  -5   2   5    0.91    0.67
  -5   2   5    0.33    0.71
  -4   2   5    4.49    0.76
  -4   2   5    5.42    0.71
  -3   2   5   24.13    1.16
  -3   2   5   24.05    1.14
  -2   2   5   17.01    1.02
  -2   2   5   17.60    0.90
   1  -2  -5   10.17    0.71
  -1   2   5    8.01    0.69
  -1   2   5   10.63    0.81
   0  -2  -5  174.59    4.29
   0  -2  -5  179.36    4.24
   0   2   5  171.73    4.23
   0   2   5  166.43    4.29
  -1  -2  -5   17.36    0.86
  -1  -2  -5   17.35    0.78
   1   2   5   16.60    0.75
   1   2   5   19.25    0.92
  -2  -2  -5   11.18    0.59
  -2  -2  -5   12.19    0.77
   2   2   5   11.18    0.77
   2   2   5   10.93    0.56
  -3  -2  -5    8.25    0.73
   3   2   5    7.95    0.78
  -4  -2  -5   -0.30    0.42
   4   2   5    0.35    0.50
   5   2   5    2.11    1.10
  -6  -2  -5    2.03    0.68
   6   2   5    1.21    0.81
  -7  -2  -5   -0.33    0.90
   7   2   5    0.02    1.14
  -6   3   5    1.81    1.33
  -6   3   5    0.84    1.18
  -6   3   5    0.56    1.16
  -5   3   5    0.57    0.80
  -5   3   5   -0.33    0.90
  -5   3   5    0.86    0.80
  -4   3   5    5.65    0.81
  -4   3   5    6.30    0.86
  -4   3   5    6.04    0.85
  -3   3   5    0.51    0.47
  -3   3   5    1.01    0.60
  -2   3   5   13.75    1.02
  -2   3   5   12.16    0.88
  -1   3   5   23.01    1.03
  -1   3   5   21.68    1.09
  -1  -3  -5    1.69    0.39
   1   3   5    3.39    0.54
   1   3   5    1.91    0.37
  -2  -3  -5   11.85    0.84
   2   3   5   13.40    0.87
   2   3   5   12.15    0.67
  -3  -3  -5   41.56    1.46
   3   3   5   38.19    1.11
   3   3   5   38.55    1.13
   3   3   5   39.47    1.47
  -4  -3  -5    0.22    0.45
   4   3   5    0.01    0.45
  -5  -3  -5    3.09    0.59
   5   3   5    3.67    0.67
  -6  -3  -5    2.69    0.75
   6   3   5    5.02    0.92
  -7  -3  -5    4.78    1.04
   7   3   5    3.71    1.17
  -5   4   5    1.11    0.97
  -5   4   5    1.77    1.09
  -5   4   5    2.06    1.23
  -5   4   5    0.20    0.97
  -4   4   5    0.60    0.79
  -4   4   5    1.51    0.84
  -4   4   5   -0.20    0.66
  -4   4   5    1.14    0.66
  -3   4   5    4.48    0.69
  -3   4   5    4.24    0.63
  -3   4   5    4.69    0.84
  -2   4   5   20.66    1.09
  -2   4   5   17.59    1.12
  -2   4   5   17.66    1.22
  -1   4   5    2.56    0.49
  -1   4   5    2.35    0.56
  -1   4   5    2.15    0.50
   0  -4  -5    7.15    0.76
   0   4   5    6.63    0.70
   0   4   5    6.64    0.71
   0   4   5    5.32    0.86
  -1  -4  -5    0.79    0.38
   1   4   5    1.42    0.48
   1   4   5    0.57    0.36
   1   4   5    1.09    0.36
  -2  -4  -5  109.19    2.99
   2   4   5  110.45    2.83
   2   4   5  105.42    2.99
   2   4   5  110.82    2.83
  -3  -4  -5    0.06    0.43
   3   4   5   -0.02    0.31
   3   4   5   -0.28    0.32
   3   4   5    0.42    0.47
   4   4   5    0.76    0.65
  -5  -4  -5    0.58    0.47
   5   4   5    1.62    0.54
  -6  -4  -5    1.90    0.65
   6   4   5    3.84    0.82
   7   4   5   -0.76    1.00
  -4   5   5   11.72    1.41
  -4   5   5    9.47    1.19
  -4   5   5   11.57    1.66
  -4   5   5    9.41    1.39
  -3   5   5    5.56    0.79
  -3   5   5    6.63    0.97
  -3   5   5    5.27    0.99
  -2   5   5    0.05    0.52
  -2   5   5   -0.35    0.73
  -2   5   5    0.33    0.47
  -1   5   5   -0.15    0.60
  -1   5   5    0.40    0.65
  -1   5   5    0.70    0.55
   0  -5  -5   22.23    1.21
   0   5   5   22.95    1.18
   0   5   5   23.58    1.34
   0   5   5   23.81    1.12
  -1  -5  -5   32.89    1.38
   1   5   5   31.07    1.33
   1   5   5   34.70    1.47
   1   5   5   33.90    1.29
  -2  -5  -5   17.16    1.09
   2   5   5   17.35    1.13
   2   5   5   15.20    0.95
   2   5   5   17.22    1.00
  -3  -5  -5    2.08    0.57
   3   5   5    1.36    0.43
   3   5   5    1.74    0.49
   3   5   5    1.58    0.59
  -4  -5  -5    3.25    0.67
   4   5   5    2.07    0.41
   4   5   5    2.88    0.43
   4   5   5    3.20    0.76
  -5  -5  -5    0.50    0.42
   5   5   5    0.20    0.59
  -6  -5  -5   -0.35    0.53
   6   5   5    0.10    0.60
  -7  -5  -5   -0.33    0.73
   7   5   5   -0.25    0.93
  -4   6   5   -0.05    1.89
  -4   6   5    0.41    1.14
  -4   6   5    0.87    1.48
  -4   6   5    0.27    0.86
  -3   6   5    1.48    1.13
  -3   6   5    1.55    0.63
  -3   6   5    3.01    0.76
  -2   6   5    7.89    1.18
  -2   6   5    9.15    0.93
  -2   6   5    7.72    0.87
  -1   6   5    0.32    0.53
  -1   6   5    0.01    0.72
  -1   6   5   -0.51    0.41
   0  -6  -5    1.32    0.61
   0   6   5    1.84    0.56
   0   6   5    1.47    0.70
  -1  -6  -5    0.62    0.56
   1   6   5    0.75    0.64
   1   6   5    1.12    0.51
  -2  -6  -5    2.96    0.78
   2   6   5    4.02    0.64
   2   6   5    3.91    0.74
  -3  -6  -5   -0.25    0.48
   3   6   5   -0.03    0.54
   3   6   5   -0.40    0.56
   3   6   5    0.08    0.45
  -4  -6  -5    0.26    0.47
   4   6   5    0.57    0.56
   4   6   5    0.86    0.48
   4   6   5    1.14    0.51
  -5  -6  -5    1.05    0.45
   5   6   5    1.43    0.65
  -6  -6  -5    0.63    0.56
   6   6   5    1.09    0.65
  -3   7   5    1.34    1.46
  -3   7   5    4.24    0.80
  -3   7   5    3.34    1.00
  -2   7   5    2.36    0.75
  -2   7   5    3.29    1.19
  -1   7   5    0.17    0.50
  -1   7   5    0.67    0.64
  -1   7   5    0.13    0.90
   0  -7  -5    8.85    1.20
   0   7   5    8.54    1.07
   0   7   5    8.40    1.01
  -1  -7  -5   10.87    1.15
   1   7   5    8.03    1.12
   1   7   5    8.57    1.30
  -2  -7  -5    2.02    0.57
   2   7   5    1.60    0.71
   2   7   5    1.85    0.78
  -3  -7  -5    2.19    0.57
   3   7   5    2.79    0.75
   3   7   5    2.02    0.65
  -4  -7  -5    5.62    1.19
   4   7   5    4.00    0.80
   4   7   5    7.34    1.12
   4   7   5    4.39    0.70
  -5  -7  -5   -0.98    0.49
   5   7   5    1.32    0.75
   5   7   5    0.06    0.54
   5   7   5    0.33    0.54
  -6  -7  -5   -0.46    0.59
   6   7   5   -0.15    0.80
  -2   8   5   -0.21    1.44
  -2   8   5    0.27    0.78
  -2   8   5   -1.81    0.95
  -1   8   5   -0.29    1.18
  -1   8   5   -0.83    0.58
   0  -8  -5    5.90    1.02
   0   8   5    5.57    0.92
   0   8   5    5.05    1.15
  -1  -8  -5    3.82    0.95
   1   8   5    2.95    0.78
   1   8   5    3.14    1.04
  -2  -8  -5    1.62    0.70
   2   8   5    0.68    0.86
   2   8   5    1.38    0.82
  -3  -8  -5    0.43    0.69
   3   8   5    0.95    0.79
   3   8   5   -0.08    0.77
  -4  -8  -5    5.99    0.88
   4   8   5    4.35    1.06
   4   8   5    4.91    0.93
   4   8   5    5.57    1.58
   5   8   5   -0.33    0.74
   5   8   5    0.42    0.74
   5   8   5   -0.02    0.83
   0  -9  -5    1.22    1.22
   0   9   5    2.46    0.92
   0   9   5    0.08    1.35
  -1  -9  -5    2.65    1.20
   1   9   5    1.60    1.25
   1   9   5    3.75    1.01
  -2  -9  -5    0.96    0.92
   2   9   5   -0.56    1.13
   2   9   5    2.46    1.05
  -3  -9  -5    0.96    0.86
   3   9   5   -1.09    1.00
   3   9   5    0.36    1.05
  -4  -9  -5    1.00    0.87
   4   9   5   -1.04    1.08
   4   9   5    1.79    1.09
   4   9   5   -0.25    0.91
   3   9  -6    7.23    1.29
   3   9  -6    7.37    1.28
  -3  -9   6    8.45    1.06
  -3  -9   6    6.69    1.30
   2   9  -6    7.82    1.12
   2   9  -6    7.25    1.09
  -2  -9   6    6.24    0.88
  -2  -9   6    7.58    1.21
  -1  -9   6   -0.29    0.90
   4   8  -6   -0.60    0.98
   4   8  -6    0.35    1.02
  -4  -8   6   -0.48    1.10
  -4  -8   6    1.91    0.77
   3   8  -6    0.70    0.91
   3   8  -6    1.00    0.84
  -3  -8   6    0.34    0.89
   2   8  -6    4.70    0.89
  -2  -8   6    3.83    0.67
  -2  -8   6    3.34    0.90
   1   8  -6   -0.61    0.61
  -1  -8   6    1.20    0.54
  -1  -8   6    0.71    0.72
   0   8  -6   -0.18    0.63
   0  -8   6    0.58    0.59
  -1   8  -6    0.81    0.79
   1  -8   6    2.59    0.70
   5   7  -6   -0.24    1.05
   5   7  -6   -0.32    1.00
  -5  -7   6   -1.33    0.86
  -5  -7   6   -0.05    0.82
   4   7  -6    3.51    0.92
   4   7  -6    1.87    0.85
  -4  -7   6    1.72    0.72
  -4  -7   6    1.71    0.88
   3   7  -6    3.36    0.75
   3   7  -6    3.31    0.84
  -3  -7   6    3.17    0.70
  -3  -7   6    3.25    0.93
   2   7  -6    0.47    0.63
   2   7  -6    0.84    0.62
  -2  -7   6   -0.34    0.63
  -2  -7   6   -0.16    0.45
   1   7  -6    6.12    0.77
   1   7  -6    7.31    0.95
  -1  -7   6    6.87    1.02
  -1  -7   6    9.83    0.95
   0   7  -6    1.72    0.63
   0  -7   6    0.71    0.45
  -1   7  -6   -0.31    0.57
   1  -7   6   -0.27    0.49
  -2   7  -6   -0.18    0.76
   2  -7   6    2.15    0.68
   6   6  -6    1.68    0.94
   6   6  -6    0.78    1.09
  -6  -6   6   -1.63    0.86
  -6  -6   6    0.18    0.83
   5   6  -6    4.15    0.98
   5   6  -6    3.68    0.97
  -5  -6   6    1.98    0.81
  -5  -6   6    1.79    0.72
   4   6  -6   -0.14    0.62
   4   6  -6    1.05    0.72
  -4  -6   6    0.02    0.55
  -4  -6   6   -0.98    0.60
   3   6  -6    3.73    0.72
   3   6  -6    5.25    0.77
  -3  -6   6    3.70    0.64
  -3  -6   6    4.22    0.71
   2   6  -6    2.34    0.65
   2   6  -6    2.95    0.61
  -2  -6   6    1.85    0.45
  -2  -6   6    2.44    0.62
   1   6  -6    8.96    1.02
   1   6  -6   10.01    0.86
  -1  -6   6    8.91    0.95
  -1  -6   6    8.67    0.85
   0   6  -6    0.61    0.53
   0  -6   6   -0.13    0.40
  -1   6  -6    4.41    0.69
   1  -6   6    6.45    0.80
  -2   6  -6   64.16    2.37
   2  -6   6   66.89    2.76
  -3   6  -6    1.16    0.90
   3  -6   6    2.32    0.82
   6   5  -6    3.79    0.87
   6   5  -6    2.74    0.95
  -6  -5   6    3.05    0.85
  -6  -5   6    2.07    0.81
   5   5  -6    0.84    0.68
   5   5  -6    0.03    0.73
  -5  -5   6   -0.51    0.59
  -5  -5   6    0.63    0.96
   4   5  -6   52.25    2.01
   4   5  -6   50.81    1.91
  -4  -5   6   50.32    1.98
  -4  -5   6   51.05    1.82
   3   5  -6   31.20    1.43
   3   5  -6   32.15    1.48
  -3  -5   6   32.55    1.40
  -3  -5   6   30.46    1.46
   2   5  -6    0.97    0.48
   2   5  -6    0.93    0.51
  -2  -5   6    0.29    0.39
  -2  -5   6    1.02    0.49
   1   5  -6   15.90    0.88
   1   5  -6   16.59    1.10
  -1  -5   6   15.94    0.95
  -1  -5   6   16.53    0.91
   0   5  -6   48.34    2.10
  -1   5  -6   15.13    1.14
   1  -5   6   13.96    0.93
  -2   5  -6    0.46    0.55
   2  -5   6    0.66    0.48
  -3   5  -6   14.01    1.45
   3  -5   6   14.21    1.25
  -4   5  -6    1.96    1.06
   4  -5   6    1.43    1.00
   6   4  -6   -0.88    0.64
   6   4  -6   -0.21    0.81
  -6  -4   6   -0.83    0.58
  -6  -4   6    0.08    0.67
   5   4  -6    0.76    0.64
   5   4  -6    0.44    0.60
  -5  -4   6    0.12    0.50
  -5  -4   6   -0.20    0.56
   4   4  -6    0.05    0.56
   4   4  -6    0.55    0.61
  -4  -4   6    0.03    0.55
  -4  -4   6    0.57    0.50
   3   4  -6   23.50    1.18
   3   4  -6   24.46    1.24
  -3  -4   6   22.72    1.15
  -3  -4   6   24.29    1.26
   2   4  -6    2.76    0.52
   2   4  -6    3.52    0.52
  -2  -4   6    3.42    0.51
  -2  -4   6    4.09    0.56
   1   4  -6   23.76    1.14
  -1  -4   6   22.20    0.92
  -1  -4   6   22.49    1.06
   0   4  -6    0.70    0.44
   0  -4   6    0.90    0.40
  -1   4  -6   17.79    1.09
   1  -4   6   17.37    1.00
  -2   4  -6   24.01    1.32
   2  -4   6   27.88    1.26
  -3   4  -6    3.35    0.85
   3  -4   6    2.98    0.62
  -4   4  -6    1.08    0.79
   4  -4   6    0.90    0.68
  -5   4  -6    0.26    1.08
  -7  -3   6    0.13    0.82
   6   3  -6   12.75    1.38
  -6  -3   6   14.51    1.19
  -6  -3   6   14.04    1.30
   5   3  -6    3.63    0.70
  -5  -3   6    3.61    0.60
  -5  -3   6    3.81    0.67
   4   3  -6    2.97    0.61
   4   3  -6    3.12    1.07
  -4  -3   6    3.40    0.60
   3   3  -6   99.95    2.83
   3   3  -6  100.03    2.78
  -3  -3   6   99.20    2.75
  -3  -3   6  101.26    2.85
   2   3  -6    7.80    0.74
  -2  -3   6    6.87    0.73
  -2  -3   6    7.39    0.70
   1   3  -6    1.64    0.42
  -1  -3   6    1.89    0.35
  -1  -3   6    1.63    0.38
   0   3  -6   15.20    0.90
   0  -3   6   14.47    0.85
  -1   3  -6   10.98    0.82
   1  -3   6    9.25    0.76
  -2   3  -6   30.08    1.29
   2  -3   6   31.49    1.29
  -3   3  -6    0.35    0.51
   3  -3   6    0.09    0.47
  -4   3  -6   15.41    1.28
   4  -3   6   15.04    1.15
  -5   3  -6   -0.09    0.66
  -5   3  -6    0.14    1.41
  -7  -2   6    0.52    0.85
   6   2  -6    6.33    0.91
  -6  -2   6    7.37    1.02
  -6  -2   6    7.91    1.20
   5   2  -6   12.04    1.14
  -5  -2   6    9.46    1.05
  -5  -2   6   11.41    1.02
   4   2  -6   -0.40    0.50
  -4  -2   6   -0.35    0.74
  -4  -2   6   -0.14    0.47
   3   2  -6    0.71    0.47
  -3  -2   6    0.35    0.38
  -3  -2   6    1.09    0.45
   2   2  -6   51.25    1.61
  -2  -2   6   49.46    1.57
  -2  -2   6   51.03    1.61
   1   2  -6   38.71    1.29
  -1  -2   6   37.64    1.29
  -1  -2   6   37.92    1.21
   0   2  -6    5.72    0.67
   0  -2   6    5.66    0.47
   0  -2   6    5.50    0.51
   0  -2   6    6.58    0.65
  -1   2  -6    2.67    0.44
   1  -2   6    2.46    0.41
  -2   2  -6   33.65    1.23
   2  -2   6   32.93    1.22
  -3   2  -6    3.28    0.42
  -3   2  -6    3.97    0.57
   3  -2   6    4.25    0.63
   3  -2   6    3.90    0.54
  -4   2  -6    3.30    0.60
  -4   2  -6    3.16    0.56
   4  -2   6    2.72    0.55
  -5   2  -6    3.64    0.76
  -5   2  -6    4.30    0.75
  -6   2  -6    0.66    0.85
  -6   2  -6   -0.21    0.95
  -6  -1   6    0.29    0.56
  -6  -1   6   -0.52    0.71
   5   1  -6    6.63    0.81
  -5  -1   6    6.30    0.75
  -5  -1   6    7.15    0.87
   4   1  -6    2.62    0.58
  -4  -1   6    2.61    0.54
   3   1  -6    0.90    0.41
  -3  -1   6    1.28    0.40
  -3  -1   6    1.74    0.44
   2   1  -6   12.12    0.77
  -2  -1   6   12.18    0.80
  -2  -1   6   12.62    0.76
   1   1  -6  256.69    6.09
  -1  -1   6  249.47    6.08
   0   1  -6   57.68    1.67
   0  -1   6   57.47    1.60
   0  -1   6   58.61    1.67
  -1   1  -6    1.55    0.28
  -1   1  -6    0.82    0.34
   1  -1   6    1.67    0.31
   1  -1   6    1.23    0.33
  -2   1  -6    7.72    0.66
  -2   1  -6    7.31    0.56
   2  -1   6    6.65    0.64
   2  -1   6    6.86    0.57
  -3   1  -6   33.30    1.19
  -3   1  -6   32.58    1.15
   3  -1   6   33.39    1.18
   3  -1   6   33.19    1.16
  -4   1  -6   10.82    0.96
  -4   1  -6   11.30    0.89
   4  -1   6   10.04    0.95
   4  -1   6   11.27    0.81
  -5   1  -6   23.31    1.38
  -5   1  -6   22.24    1.16
   5  -1   6   22.87    1.42
  -6   1  -6    0.86    0.92
  -6   1  -6    0.65    0.64
   6  -1   6    1.32    1.15
  -6   0   6    4.79    1.14
  -6   0   6    5.36    0.81
  -5   0   6    1.46    0.57
  -5   0   6    0.35    0.63
   4   0  -6    3.46    0.63
  -4   0   6    4.01    0.62
   3   0  -6    1.51    0.44
  -3   0   6    1.25    0.42
  -3   0   6    1.52    0.46
   2   0  -6   18.26    0.88
  -2   0   6   18.51    0.88
   1   0  -6   23.02    0.93
  -1   0   6   22.29    0.95
   0   0  -6   19.23    0.84
   0   0   6   19.53    0.85
   0   0   6   19.59    0.86
  -1   0  -6  257.83    6.20
  -1   0  -6  272.22    6.23
   1   0   6  260.76    6.22
   1   0   6  256.78    6.20
  -2   0  -6   31.75    1.11
  -2   0  -6   33.60    1.09
   2   0   6   33.96    1.15
   2   0   6   34.17    1.09
  -3   0  -6    7.23    0.63
  -3   0  -6    8.60    0.73
   3   0   6    7.43    0.78
   3   0   6    6.57    0.58
  -4   0  -6    1.75    0.53
  -4   0  -6    1.20    0.38
   4   0   6    1.61    0.54
   4   0   6    0.98    0.33
  -5   0  -6   20.06    1.29
   5   0   6   18.41    1.31
  -6   0  -6    2.07    0.87
   6   0   6    2.43    0.95
  -6   1   6   -0.52    0.99
  -6   1   6    0.97    0.93
  -6   1   6    0.21    0.84
  -5   1   6   22.71    1.52
  -5   1   6   24.63    1.33
  -4   1   6    3.21    0.64
  -4   1   6    2.93    0.54
   3  -1  -6    6.67    0.89
  -3   1   6    8.69    0.84
  -3   1   6    8.37    0.85
   2  -1  -6   88.31    2.42
  -2   1   6   87.43    2.41
   1  -1  -6   21.99    0.92
  -1   1   6   20.13    0.91
  -1   1   6   19.29    0.99
   0  -1  -6    2.94    0.40
   0  -1  -6    3.05    0.44
   0   1   6    2.98    0.41
   0   1   6    3.20    0.50
  -1  -1  -6    1.19    0.32
  -1  -1  -6    1.38    0.35
   1   1   6    1.20    0.33
   1   1   6    1.47    0.39
  -2  -1  -6    4.24    0.48
  -2  -1  -6    3.81    0.52
   2   1   6    4.15    0.65
   2   1   6    3.68    0.52
  -3  -1  -6    0.27    0.37
  -3  -1  -6    0.25    0.29
   3   1   6    0.30    0.25
   3   1   6    0.07    0.43
  -4  -1  -6   23.77    1.20
   4   1   6   21.89    1.22
  -5  -1  -6    8.96    1.14
   5   1   6    8.74    1.18
  -6  -1  -6    0.22    0.77
   6   1   6   -0.79    0.82
  -7  -1  -6    4.26    1.21
   7   1   6    6.15    1.43
  -6   2   6    0.53    1.14
  -6   2   6   -0.85    0.94
  -6   2   6   -0.77    0.98
  -5   2   6    1.96    0.80
  -5   2   6    2.16    0.81
  -4   2   6   19.22    1.25
  -4   2   6   16.99    1.18
  -3   2   6    0.79    0.46
  -2   2   6   44.24    1.49
  -2   2   6   45.31    1.63
   1  -2  -6    1.34    0.43
  -1   2   6    1.05    0.38
  -1   2   6    1.00    0.46
   0  -2  -6    5.66    0.66
   0  -2  -6    4.67    0.68
   0   2   6    5.45    0.61
   0   2   6    5.36    0.75
  -1  -2  -6    4.13    0.62
  -1  -2  -6    3.72    0.42
   1   2   6    3.44    0.42
   1   2   6    4.71    0.72
  -2  -2  -6   61.03    1.85
  -2  -2  -6   63.80    1.70
   2   2   6   64.22    1.71
   2   2   6   62.86    1.88
  -3  -2  -6    2.98    0.52
  -3  -2  -6    3.04    0.35
   3   2   6    2.49    0.31
   3   2   6    3.03    0.55
  -4  -2  -6    5.54    0.88
   4   2   6    7.00    1.00
  -5  -2  -6    1.64    0.68
  -6  -2  -6    5.27    0.90
   6   2   6    8.32    1.07
  -7  -2  -6   -0.98    1.01
   7   2   6    1.14    1.31
  -5   3   6    0.33    0.83
  -5   3   6   -0.13    0.76
  -5   3   6   -0.97    0.91
  -4   3   6    3.49    0.71
  -4   3   6    2.46    0.76
  -4   3   6    2.95    0.69
  -4   3   6    2.07    0.75
  -3   3   6    6.59    1.09
  -3   3   6    6.35    0.91
  -2   3   6   19.45    1.03
  -2   3   6   17.96    1.18
  -1   3   6   22.80    1.16
  -1   3   6   22.30    1.04
   0  -3  -6  143.51    3.68
   0   3   6  140.80    3.70
   0   3   6  139.88    3.60
  -1  -3  -6   15.51    0.90
   1   3   6   17.78    1.00
   1   3   6   16.07    0.82
  -2  -3  -6   37.06    1.36
   2   3   6   37.91    1.20
   2   3   6   37.36    1.40
  -3  -3  -6    2.05    0.50
   3   3   6    1.08    0.32
   3   3   6    1.76    0.50
  -4  -3  -6    6.47    0.87
   4   3   6    4.96    0.75
  -5  -3  -6    0.12    0.53
   5   3   6    0.28    0.59
  -6  -3  -6    8.74    1.35
   6   3   6    9.53    1.44
   7   3   6    1.62    1.17
  -5   4   6   -1.89    1.05
  -5   4   6    0.97    0.99
  -5   4   6    0.73    0.99
  -5   4   6    1.68    1.25
  -4   4   6   -0.09    0.84
  -4   4   6    0.16    0.74
  -4   4   6   -0.32    0.68
  -4   4   6   -0.93    0.77
  -3   4   6    2.98    0.66
  -3   4   6    2.42    0.60
  -3   4   6    2.95    0.79
  -2   4   6   26.41    1.32
  -2   4   6   23.56    1.39
  -2   4   6   22.49    1.68
  -1   4   6    1.29    0.46
  -1   4   6    0.94    0.56
   0  -4  -6   26.52    1.20
   0   4   6   24.41    1.30
   0   4   6   28.14    1.15
  -1  -4  -6    4.42    0.59
   1   4   6    4.29    0.66
   1   4   6    4.18    0.50
  -2  -4  -6  103.83    2.92
   2   4   6  102.20    2.73
   2   4   6  105.16    2.94
   2   4   6  104.58    2.74
  -3  -4  -6   14.22    1.05
   3   4   6   12.42    0.81
   3   4   6   12.83    0.75
   3   4   6   13.43    1.09
  -4  -4  -6    3.78    0.64
   4   4   6    3.70    0.97
  -5  -4  -6    9.95    0.96
   5   4   6   13.18    1.20
  -6  -4  -6   -0.20    0.57
   6   4   6    0.71    0.78
  -7  -4  -6   -0.58    0.79
   7   4   6    0.75    1.12
  -4   5   6    1.86    0.89
  -4   5   6    0.42    1.60
  -4   5   6    0.56    0.91
  -4   5   6    1.09    1.07
  -3   5   6    5.25    0.85
  -3   5   6    6.35    0.90
  -3   5   6    6.12    1.09
  -2   5   6    0.38    0.52
  -2   5   6   -0.28    0.43
  -1   5   6    0.53    0.57
  -1   5   6    0.36    0.64
  -1   5   6    0.84    0.46
   0  -5  -6   29.40    1.40
   0   5   6   31.09    1.34
   0   5   6   32.83    1.34
   0   5   6   32.38    1.53
  -1  -5  -6    1.68    0.53
   1   5   6    0.66    0.47
   1   5   6    2.34    0.65
   1   5   6    1.90    0.50
  -2  -5  -6   20.59    1.23
   2   5   6   21.08    1.09
   2   5   6   20.00    1.28
   2   5   6   21.26    1.14
   3   5   6   74.74    2.12
   3   5   6   69.05    2.06
  -4  -5  -6    1.78    0.53
   4   5   6    1.06    0.54
   4   5   6    0.75    0.39
   4   5   6    0.90    0.42
  -5  -5  -6   -0.71    0.45
   5   5   6    0.77    0.57
  -6  -5  -6    2.26    0.56
   6   5   6    3.40    0.87
  -7  -5  -6   -1.36    0.73
   7   5   6    2.21    1.24
  -4   6   6   -0.99    1.19
  -4   6   6    0.64    1.58
  -4   6   6    1.18    0.96
  -4   6   6    0.13    1.18
  -3   6   6    1.99    0.74
  -3   6   6    1.88    1.18
  -3   6   6    1.60    0.60
  -2   6   6    0.24    0.79
  -2   6   6   -0.40    0.53
  -2   6   6   -0.50    0.87
  -1   6   6   -0.48    0.50
  -1   6   6   -0.77    0.81
  -1   6   6    0.54    0.49
   0   6   6    7.65    1.28
   0   6   6    6.73    0.98
   0   6   6    6.42    0.87
  -1  -6  -6   -0.18    0.89
   1   6   6    0.67    0.67
   1   6   6    0.50    0.54
   1   6   6    0.87    0.53
  -2  -6  -6   13.81    1.13
   2   6   6   15.96    1.30
   2   6   6   15.79    1.13
   2   6   6   14.26    1.11
  -3  -6  -6    6.25    0.93
   3   6   6    5.92    0.83
   3   6   6    7.09    0.95
   3   6   6    6.22    0.73
  -4  -6  -6    6.36    0.88
   4   6   6    8.82    0.95
   4   6   6    6.60    0.84
   4   6   6    7.35    1.05
  -5  -6  -6   10.80    1.06
   5   6   6    9.33    1.18
  -6  -6  -6   -0.46    0.58
   6   6   6    1.31    0.77
  -3   7   6    6.17    1.71
  -3   7   6    4.41    0.83
  -3   7   6    6.61    1.13
  -2   7   6   16.45    2.11
  -2   7   6   24.68    1.55
  -2   7   6   23.29    1.28
  -1   7   6   11.11    1.02
  -1   7   6   10.39    1.31
  -1   7   6   10.92    1.19
   0  -7  -6   16.11    1.32
   0   7   6   17.50    1.07
   0   7   6   15.35    1.60
   0   7   6   18.08    1.25
  -1  -7  -6   30.45    1.59
   1   7   6   32.45    1.60
   1   7   6   32.06    1.49
   1   7   6   29.58    1.71
  -2  -7  -6   -0.58    0.55
   2   7   6   -0.05    0.54
   2   7   6    0.15    0.67
   2   7   6   -0.45    0.62
  -3  -7  -6    7.58    0.98
   3   7   6    6.79    1.12
   3   7   6    6.86    0.86
   3   7   6    7.12    1.10
  -4  -7  -6    8.43    0.94
   4   7   6   10.29    1.15
   4   7   6    9.95    1.17
   4   7   6   10.92    1.25
  -5  -7  -6    0.08    0.54
   5   7   6    1.52    0.59
   5   7   6    0.87    0.65
   5   7   6    1.14    0.60
  -6  -7  -6   -1.09    0.67
   6   7   6    0.61    0.87
  -2   8   6    0.26    1.51
  -1   8   6   -1.18    1.21
  -1   8   6    1.94    0.66
  -1   8   6   -1.09    0.74
   0  -8  -6    5.36    0.99
   0   8   6    4.36    0.86
   0   8   6    3.22    0.66
   0   8   6    3.40    1.11
  -1  -8  -6    1.40    0.76
   1   8   6    1.31    0.65
   1   8   6    0.11    0.92
   1   8   6   -0.21    0.74
   2   8   6   16.91    1.60
   2   8   6   15.79    1.66
   2   8   6   18.00    1.41
  -3  -8  -6    0.41    0.69
   3   8   6    1.20    0.95
   3   8   6   -0.97    0.80
   3   8   6    0.32    0.72
  -4  -8  -6    1.12    0.61
   4   8   6   -0.09    0.71
   4   8   6    1.17    1.08
   4   8   6    0.53    0.81
  -5  -8  -6    0.37    0.60
   5   8   6    0.18    0.72
   5   8   6    0.96    0.77
   5   8   6   -0.76    0.78
   0  -9  -6    5.61    1.38
   0   9   6    3.56    0.79
   0   9   6    5.88    1.01
   0   9   6    5.84    1.58
  -1  -9  -6    0.61    1.07
   1   9   6    1.21    0.95
   1   9   6   -0.43    1.25
   1   9   6    1.12    0.79
  -2  -9  -6    0.61    0.92
   2   9   6   -0.46    1.06
   2   9   6    1.99    1.10
   2   9   6   -0.14    0.82
  -3  -9  -6    1.58    0.87
   3   9   6    2.47    1.23
   3   9   6    1.12    1.19
   3   9   6    1.02    0.97
  -4  -9  -6    0.20    0.84
   4   9   6    3.93    1.20
   4   9   6    3.08    1.05
   4   9   6   -0.46    1.08
   4   8  -7    1.58    1.13
   4   8  -7    0.45    1.07
  -4  -8   7    0.74    0.85
  -4  -8   7    1.98    1.87
   3   8  -7    0.00    0.80
   3   8  -7   -0.22    0.99
  -3  -8   7    0.78    0.69
  -3  -8   7   -0.21    0.91
   2   8  -7   15.31    1.48
   2   8  -7   14.48    1.44
  -2  -8   7   14.68    1.16
  -2  -8   7   10.55    1.55
   1   8  -7    0.73    0.69
  -1  -8   7    0.56    0.54
   0   8  -7    0.09    0.77
   0  -8   7    2.15    0.61
  -1   8  -7    0.05    0.80
   1  -8   7    2.25    0.77
   5   7  -7    4.65    1.19
   5   7  -7    2.56    1.16
  -5  -7   7    2.50    0.96
  -5  -7   7    0.92    0.99
   4   7  -7   17.23    1.62
   4   7  -7   19.08    1.69
  -4  -7   7   17.31    1.64
  -4  -7   7   19.88    1.46
   3   7  -7   16.56    1.43
   3   7  -7   18.42    1.69
  -3  -7   7   19.56    1.53
  -3  -7   7   15.24    2.44
   2   7  -7    3.34    0.74
   2   7  -7    2.94    0.70
  -2  -7   7    1.80    0.72
   1   7  -7    4.14    0.72
  -1  -7   7    2.65    0.51
  -1  -7   7    2.45    0.65
   0   7  -7    0.57    0.62
   0  -7   7    1.67    0.51
  -1   7  -7    9.45    1.04
   1  -7   7   10.83    1.04
  -2   7  -7    1.84    0.88
   2  -7   7    1.11    0.75
   6   6  -7   -1.43    1.02
   6   6  -7    0.19    1.14
  -6  -6   7   -0.97    0.87
  -6  -6   7   -0.90    0.83
   5   6  -7    2.87    0.92
   5   6  -7    1.86    0.98
  -5  -6   7    1.79    0.76
  -5  -6   7    2.52    0.84
   4   6  -7    1.77    0.78
   4   6  -7    0.42    0.66
  -4  -6   7    0.71    0.72
  -4  -6   7   -0.12    0.58
   3   6  -7    0.33    0.66
   3   6  -7   -0.32    0.58
  -3  -6   7   -0.82    0.60
  -3  -6   7   -0.01    0.48
   2   6  -7    9.60    1.04
   2   6  -7    8.53    0.99
  -2  -6   7    6.49    0.83
  -2  -6   7    7.77    1.02
   1   6  -7    1.09    0.54
  -1  -6   7    1.15    0.37
  -1  -6   7    2.13    0.53
   0   6  -7    2.63    0.60
   0  -6   7    3.36    0.55
  -1   6  -7   -0.76    0.52
   1  -6   7    0.67    0.43
  -2   6  -7    3.10    0.79
   2  -6   7    2.63    0.65
  -3   6  -7    6.07    1.13
   3  -6   7    6.27    0.96
   6   5  -7   -0.11    0.83
   6   5  -7    1.54    0.98
  -6  -5   7    1.15    0.84
  -6  -5   7    2.44    0.88
   5   5  -7    0.16    0.91
   5   5  -7   -0.49    0.70
  -5  -5   7   -0.37    0.67
  -5  -5   7    0.15    0.67
   4   5  -7   46.79    1.88
  -4  -5   7   38.76    2.34
  -4  -5   7   45.14    1.88
   3   5  -7    1.71    0.64
   3   5  -7    1.74    0.75
  -3  -5   7    2.34    0.67
   2   5  -7    1.20    0.53
   2   5  -7    0.64    0.62
  -2  -5   7    1.10    0.53
   1   5  -7    4.87    1.21
  -1  -5   7    6.73    0.84
  -1  -5   7    6.81    0.77
   0   5  -7    4.06    0.67
   0  -5   7    3.87    0.56
  -1   5  -7    0.10    0.50
   1  -5   7   -0.42    0.40
  -2   5  -7    3.84    0.71
  -3   5  -7    9.34    1.42
   3  -5   7    8.19    1.22
  -4   5  -7    1.64    1.05
   4  -5   7    3.03    0.98
   6   4  -7    5.70    1.04
  -6  -4   7    4.81    0.93
  -6  -4   7    5.07    0.80
   5   4  -7    0.11    0.67
  -5  -4   7    0.29    0.64
  -5  -4   7   -0.63    0.60
   4   4  -7   -0.30    0.52
   4   4  -7   -0.18    0.59
  -4  -4   7    0.34    0.56
  -4  -4   7   -0.17    0.54
   3   4  -7   14.71    1.10
   3   4  -7   13.24    1.14
  -3  -4   7   15.04    1.05
  -3  -4   7   16.39    1.15
   2   4  -7   11.71    0.97
  -2  -4   7   11.72    0.88
  -2  -4   7   13.02    0.97
   1   4  -7   12.98    0.94
  -1  -4   7   12.95    0.88
  -1  -4   7   13.44    0.78
   0   4  -7   27.58    1.27
   0  -4   7   24.80    1.16
  -1   4  -7    0.47    0.47
   1  -4   7   -0.06    0.41
  -2   4  -7    3.48    0.97
  -3   4  -7   -0.05    0.60
   3  -4   7    0.25    0.55
  -4   4  -7    0.37    0.81
   4  -4   7    1.66    0.77
  -5   4  -7    2.17    1.14
   5  -4   7    3.70    1.06
   6   3  -7    4.01    0.90
  -6  -3   7    3.03    0.85
  -6  -3   7    3.59    0.75
   5   3  -7    3.52    0.74
  -5  -3   7    4.12    0.60
  -5  -3   7    4.09    0.73
   4   3  -7    2.96    0.63
  -4  -3   7    1.57    0.59
  -4  -3   7    2.40    0.61
   3   3  -7    5.11    0.68
  -3  -3   7    5.49    0.65
  -3  -3   7    6.43    0.91
   2   3  -7    3.13    0.51
  -2  -3   7    3.22    0.50
  -2  -3   7    3.08    0.53
   1   3  -7    5.01    0.76
  -1  -3   7    4.37    0.68
  -1  -3   7    5.62    0.65
   0  -3   7    7.03    0.51
   0  -3   7    7.28    0.75
  -1   3  -7    1.07    0.45
   1  -3   7   -0.06    0.37
  -2   3  -7   38.57    1.49
   2  -3   7   39.19    1.49
  -3   3  -7    4.03    0.65
   3  -3   7    3.89    0.62
  -4   3  -7    0.97    0.68
   4  -3   7    0.64    0.57
  -5   3  -7    2.45    0.94
   5  -3   7    3.74    0.87
   6   2  -7    0.16    0.89
  -6  -2   7   -0.43    0.72
  -6  -2   7   -0.86    0.56
   5   2  -7   13.33    1.24
  -5  -2   7   12.36    1.16
  -5  -2   7   14.53    1.06
   4   2  -7   -0.14    0.50
  -4  -2   7    0.83    0.47
  -4  -2   7    0.72    0.52
   3   2  -7   67.71    2.08
  -3  -2   7   67.09    2.06
  -3  -2   7   68.91    2.14
   2   2  -7    5.49    0.74
  -2  -2   7    6.08    0.72
  -2  -2   7    4.28    0.67
   1   2  -7   19.93    0.97
  -1  -2   7   20.21    0.89
  -1  -2   7   19.74    0.97
   0   2  -7    6.79    0.71
   0  -2   7    7.14    0.60
   0  -2   7    7.14    0.69
  -1   2  -7   56.54    1.71
   1  -2   7   54.84    1.71
  -2   2  -7   16.37    0.97
   2  -2   7   16.77    0.93
  -3   2  -7   16.10    1.06
   3  -2   7   15.11    1.00
  -4   2  -7    3.60    0.57
  -4   2  -7    3.91    0.65
   4  -2   7    3.50    0.58
   4  -2   7    4.04    0.60
  -5   2  -7    2.21    0.74
  -5   2  -7    1.40    0.67
   5  -2   7    1.96    0.66
  -6   2  -7   -0.13    0.86
  -6   2  -7   -0.05    0.97
  -6  -1   7   -0.40    0.58
   5   1  -7    9.89    1.24
  -5  -1   7    8.92    1.15
  -5  -1   7   10.23    0.99
   4   1  -7    0.82    0.54
  -4  -1   7    1.34    0.52
  -4  -1   7    2.21    0.52
   3   1  -7   33.61    1.35
  -3  -1   7   35.30    1.38
  -3  -1   7   35.80    1.35
   2   1  -7   17.48    0.91
  -2  -1   7   16.17    0.89
  -2  -1   7   16.80    0.88
   1   1  -7    5.67    0.68
  -1  -1   7    5.44    0.67
   0   1  -7    7.58    0.71
   0  -1   7    7.33    0.65
   0  -1   7    7.74    0.68
  -1   1  -7   28.80    1.10
  -1   1  -7   30.42    0.98
   1  -1   7   30.74    1.10
   1  -1   7   30.14    1.00
  -2   1  -7    3.26    0.45
  -2   1  -7    3.68    0.56
   2  -1   7    2.63    0.44
   2  -1   7    3.08    0.41
  -3   1  -7    0.71    0.40
  -3   1  -7    0.86    0.44
   3  -1   7    0.05    0.40
   3  -1   7    0.44    0.40
  -4   1  -7    4.47    0.60
  -4   1  -7    5.65    0.87
   4  -1   7    4.18    0.61
   4  -1   7    3.87    0.53
  -5   1  -7    1.76    0.60
  -5   1  -7    2.78    0.73
   5  -1   7    2.02    0.54
   5  -1   7    1.94    0.71
  -6   0   7   -1.11    0.83
  -6   0   7    1.29    0.67
  -5   0   7    0.85    0.51
  -5   0   7   -0.80    0.65
   4   0  -7    2.03    0.65
  -4   0   7    2.74    0.64
   3   0  -7   22.09    1.12
  -3   0   7   22.49    1.11
  -3   0   7   22.40    1.14
   2   0  -7    4.88    0.55
  -2   0   7    3.82    0.50
   1   0  -7   55.20    1.65
  -1   0   7   54.63    1.70
  -1   0   7   54.06    1.65
   0   0  -7   16.17    0.83
   0   0   7   16.56    0.86
   0   0   7   16.77    0.83
  -1   0  -7   85.93    2.27
  -1   0  -7   84.20    2.23
   1   0   7   82.94    2.24
   1   0   7   83.90    2.25
  -2   0  -7   94.84    2.51
  -2   0  -7   95.84    2.50
   2   0   7   95.85    2.53
   2   0   7   94.96    2.50
  -3   0  -7    4.04    0.49
  -3   0  -7    5.32    0.78
   3   0   7    3.76    0.47
   3   0   7    3.68    0.55
  -4   0  -7   38.73    1.48
  -4   0  -7   37.21    1.29
   4   0   7   36.41    1.22
   4   0   7   38.40    1.52
  -5   0  -7    2.76    0.68
  -5   0  -7    2.55    0.52
   5   0   7    2.46    0.73
  -6   0  -7   -0.73    0.84
   6   0   7   -0.68    0.94
  -6   1   7    0.66    0.83
  -6   1   7   -0.90    0.94
  -5   1   7    4.29    0.84
  -4   1   7    0.17    0.52
  -4   1   7   -0.49    0.54
   3  -1  -7    2.96    0.59
  -3   1   7    3.47    0.56
  -3   1   7    4.56    0.67
   2  -1  -7   18.15    0.97
  -2   1   7   18.87    0.93
   1  -1  -7    0.19    0.38
  -1   1   7    0.19    0.41
  -1   1   7   -0.16    0.33
   0  -1  -7   30.40    1.09
   0  -1  -7   29.93    1.12
   0   1   7   28.30    1.16
   0   1   7   28.91    1.09
  -1  -1  -7   22.63    0.92
  -1  -1  -7   22.45    0.96
   1   1   7   22.62    0.93
   1   1   7   23.37    1.02
  -2  -1  -7   43.61    1.34
  -2  -1  -7   44.90    1.45
   2   1   7   45.18    1.35
   2   1   7   43.46    1.45
  -3  -1  -7   30.60    1.04
  -3  -1  -7   30.52    1.25
   3   1   7   30.49    1.28
   3   1   7   29.90    1.03
   4   1   7    3.31    0.62
  -5  -1  -7   -0.21    0.56
   5   1   7    0.61    0.66
  -6  -1  -7    0.57    0.81
   6   1   7   -0.04    0.90
  -6   2   7    0.50    1.22
  -6   2   7   -0.74    0.92
  -5   2   7    0.33    0.64
  -5   2   7   -0.40    0.72
  -4   2   7   28.51    1.40
  -4   2   7   29.61    1.47
  -3   2   7   15.85    1.06
   2  -2  -7   84.67    2.43
  -2   2   7   81.41    2.51
  -2   2   7   83.87    2.41
   1  -2  -7    7.77    0.79
  -1   2   7    8.10    0.75
  -1   2   7    6.49    0.85
   0  -2  -7   29.81    1.18
   0  -2  -7   30.68    1.13
   0   2   7   29.66    1.25
   0   2   7   29.17    1.13
  -1  -2  -7  223.33    5.26
  -1  -2  -7  206.17    5.33
   1   2   7  220.99    5.27
   1   2   7  218.70    5.37
  -2  -2  -7   10.07    0.81
  -2  -2  -7    8.03    0.64
   2   2   7    6.93    0.64
   2   2   7    8.56    0.82
  -3  -2  -7   10.55    0.68
  -3  -2  -7   11.82    0.92
   3   2   7   10.19    0.65
   3   2   7   11.71    0.98
  -4  -2  -7   12.37    1.07
   4   2   7   10.98    1.12
  -5  -2  -7    4.46    0.75
   5   2   7    3.65    0.82
  -6  -2  -7   -0.34    0.70
   6   2   7    0.48    0.86
  -7  -2  -7    1.63    1.12
   7   2   7    0.12    1.32
  -5   3   7    3.86    0.94
  -5   3   7    6.13    1.08
  -5   3   7    6.05    1.19
  -4   3   7    1.48    0.71
  -4   3   7    0.72    0.66
  -4   3   7    3.13    0.89
  -3   3   7    2.51    0.58
  -3   3   7    1.58    0.67
  -2   3   7    2.58    0.49
  -2   3   7    1.67    0.62
  -1   3   7    1.87    0.44
  -1   3   7    1.26    0.55
   0  -3  -7   39.50    1.47
   0   3   7   42.20    1.57
   0   3   7   41.60    1.40
  -1  -3  -7    4.59    0.73
   1   3   7    5.35    0.65
   1   3   7    5.49    0.86
  -2  -3  -7    2.83    0.53
   2   3   7    1.85    0.42
   2   3   7    3.23    0.58
  -3  -3  -7   21.38    1.15
   3   3   7   21.38    0.90
   3   3   7   23.39    1.26
  -4  -3  -7    0.41    0.46
   4   3   7    0.00    0.57
  -5  -3  -7    2.56    0.63
   5   3   7    3.59    0.81
   6   3   7    1.28    0.85
  -7  -3  -7   -1.25    0.94
   7   3   7    1.40    1.33
  -5   4   7    1.80    1.00
  -5   4   7    1.54    1.01
  -5   4   7   -0.43    1.20
  -5   4   7    2.52    1.32
  -4   4   7    0.52    0.97
  -4   4   7    0.54    0.82
  -4   4   7   -0.49    0.75
  -3   4   7    1.88    0.65
  -3   4   7    1.22    0.52
  -3   4   7    1.43    0.77
  -2   4   7   23.32    1.18
  -2   4   7   21.30    1.39
  -1   4   7   36.74    1.47
  -1   4   7   37.13    1.63
   0  -4  -7   17.35    1.05
   0   4   7   17.22    1.22
   0   4   7   17.94    1.01
  -1  -4  -7   93.35    2.71
   1   4   7   92.77    2.76
   1   4   7   95.99    2.61
  -2  -4  -7   45.39    1.70
   2   4   7   44.55    1.70
   2   4   7   45.35    1.50
  -3  -4  -7   15.64    1.08
   3   4   7   16.82    1.18
   3   4   7   15.84    0.88
   3   4   7   15.16    0.88
  -4  -4  -7    2.27    0.54
   4   4   7    2.15    0.39
   4   4   7    1.89    0.58
  -5  -4  -7    5.83    0.75
   5   4   7    5.15    0.81
  -6  -4  -7   -0.88    0.59
   6   4   7   -0.55    0.80
  -7  -4  -7   -1.95    0.89
   7   4   7    0.13    1.22
  -4   5   7   -0.54    0.77
  -4   5   7    0.37    0.99
  -4   5   7   -0.60    1.00
  -4   5   7    2.11    1.25
  -3   5   7    1.51    0.68
  -3   5   7    2.30    0.66
  -3   5   7    1.63    0.86
  -2   5   7    3.65    0.56
  -2   5   7    4.31    0.92
  -2   5   7    3.97    0.67
  -1   5   7    4.01    0.68
  -1   5   7    3.56    0.78
   0  -5  -7    2.30    0.59
   0   5   7    2.15    0.55
   0   5   7    2.62    0.56
   0   5   7    1.50    0.61
  -1  -5  -7   15.02    1.09
   1   5   7   15.30    1.26
   1   5   7   14.64    1.02
   1   5   7   15.52    1.05
  -2  -5  -7    2.91    0.58
   2   5   7    2.96    0.58
   2   5   7    2.05    0.62
   2   5   7    2.86    0.57
  -3  -5  -7    2.25    0.54
   3   5   7    2.51    0.55
   3   5   7    2.56    0.64
   3   5   7    2.32    0.52
  -4  -5  -7   -0.34    0.41
   4   5   7   -0.11    0.45
   4   5   7   -0.13    0.41
   4   5   7   -0.16    0.56
   5   5   7    0.00    0.54
  -6  -5  -7   -0.03    0.62
   6   5   7   -1.12    0.77
  -3   6   7   13.83    1.24
  -3   6   7   12.81    2.13
  -3   6   7   12.84    1.45
  -2   6   7   22.42    1.34
  -2   6   7   21.82    1.22
  -2   6   7   23.53    1.83
  -1   6   7    5.13    0.80
  -1   6   7    5.58    0.98
  -1   6   7    4.49    0.61
   0  -6  -7    2.10    0.59
   0   6   7    3.03    0.55
   0   6   7    2.36    0.72
   0   6   7    1.79    0.59
  -1  -6  -7    1.03    0.51
   1   6   7    1.70    0.69
   1   6   7    0.39    1.16
   1   6   7    0.58    0.66
  -2  -6  -7    7.25    0.97
   2   6   7    7.29    1.14
   2   6   7    6.56    0.76
   2   6   7    6.98    1.04
  -3  -6  -7    1.66    0.51
   3   6   7    1.85    0.62
   3   6   7    0.84    0.60
   3   6   7    1.13    0.53
  -4  -6  -7    0.34    0.52
   4   6   7    0.46    0.50
   4   6   7    0.04    0.57
   4   6   7   -0.16    0.54
  -5  -6  -7    4.67    0.71
   5   6   7    3.75    0.77
  -6  -6  -7   -0.33    0.61
   6   6   7    0.58    0.73
  -3   7   7    1.21    1.27
  -3   7   7    0.33    1.61
  -3   7   7    0.98    1.02
  -2   7   7    1.40    0.62
  -2   7   7    1.14    1.27
  -2   7   7    3.64    0.80
  -1   7   7    1.79    0.67
  -1   7   7    2.97    1.06
  -1   7   7    2.80    0.55
   0  -7  -7    0.67    0.64
   0   7   7    0.62    0.58
   0   7   7    2.00    0.62
   0   7   7   -0.54    0.85
  -1  -7  -7    4.43    0.73
   1   7   7    4.12    0.77
   1   7   7    3.90    0.68
   1   7   7    4.10    0.91
  -2  -7  -7   16.25    1.16
   2   7   7   15.75    1.36
   2   7   7   14.24    1.37
   2   7   7   15.18    1.25
  -3  -7  -7    1.61    0.80
   3   7   7    0.81    0.72
   3   7   7    1.49    0.68
   3   7   7    0.54    0.73
  -4  -7  -7    2.66    0.56
   4   7   7    3.92    0.82
   4   7   7    2.73    0.68
   4   7   7    2.20    0.67
   5   7   7    0.20    0.59
   5   7   7    0.35    0.62
   5   7   7   -0.88    0.67
  -1   8   7    3.09    0.69
  -1   8   7    4.58    0.86
  -1   8   7    2.57    1.37
   0  -8  -7    2.52    0.92
   0   8   7   -0.18    1.09
   0   8   7    1.52    0.73
   0   8   7    2.13    0.66
  -1  -8  -7    1.36    0.96
   1   8   7    1.03    0.98
   1   8   7    1.18    0.87
   1   8   7    1.65    0.69
  -2  -8  -7    1.49    0.71
   2   8   7   -0.56    0.85
   2   8   7   -0.43    0.87
   2   8   7    1.45    0.78
  -3  -8  -7    1.31    0.65
   3   8   7    0.08    0.81
   3   8   7    2.09    0.77
   3   8   7    1.27    0.95
  -4  -8  -7    1.36    0.64
   4   8   7    1.22    0.79
   4   8   7   -0.37    0.77
   4   8   7    1.38    0.98
   5   8   7    0.58    0.84
   5   8   7   -0.29    0.81
   5   8   7   -1.25    0.79
   0  -9  -7    0.90    1.18
   0   9   7   -0.95    1.51
  -1  -9  -7   -0.33    1.03
   1   9   7   -0.44    1.29
   1   9   7   -0.64    1.00
   1   9   7    1.13    0.86
  -2  -9  -7    1.46    0.95
   2   9   7    0.46    0.93
   2   9   7   -1.71    1.06
   2   9   7    1.78    1.11
  -3  -9  -7    1.54    0.86
   3   9   7    0.05    0.98
   3   9   7   -1.41    1.15
   3   9   7    0.20    1.22
   4   9   7    0.37    1.08
   4   8  -8    1.99    1.21
   4   8  -8    1.45    1.13
  -4  -8   8    0.36    2.17
  -4  -8   8    1.43    0.93
   3   8  -8    0.82    1.03
   3   8  -8    0.45    0.93
  -3  -8   8    0.17    0.99
  -3  -8   8    0.93    0.75
   2   8  -8    1.50    0.79
  -2  -8   8    1.96    0.61
  -2  -8   8    0.23    0.87
   1   8  -8    0.79    0.77
  -1  -8   8   -0.41    0.57
   0   8  -8    0.94    0.77
   0  -8   8    1.22    0.65
   5   7  -8    0.56    1.19
   5   7  -8    0.79    1.23
  -5  -7   8    1.05    0.96
  -5  -7   8   -1.11    1.07
   4   7  -8    1.25    0.88
   4   7  -8    2.18    1.03
  -4  -7   8    1.50    0.96
  -4  -7   8    2.08    0.81
   3   7  -8    2.37    0.88
   3   7  -8    1.58    1.44
  -3  -7   8    0.96    1.62
  -3  -7   8    0.64    0.60
   2   7  -8    0.81    0.63
  -2  -7   8    0.23    0.50
  -2  -7   8    1.18    0.74
   1   7  -8   20.11    1.32
  -1  -7   8   14.72    1.04
   0   7  -8   26.80    1.53
   0  -7   8   24.38    1.25
  -1   7  -8    8.66    1.24
   1  -7   8   10.43    1.05
  -2   7  -8    1.17    0.92
   2  -7   8    2.56    0.80
   5   6  -8   -0.32    0.96
   5   6  -8   -0.48    1.00
  -5  -6   8   -0.08    0.78
  -5  -6   8    0.72    0.88
   4   6  -8    5.54    0.97
   4   6  -8    8.33    1.10
  -4  -6   8    7.14    0.88
  -4  -6   8    8.77    1.06
   3   6  -8   -0.07    0.64
  -3  -6   8   -0.66    0.52
  -3  -6   8   -0.25    0.63
   2   6  -8    8.59    1.07
  -2  -6   8    8.88    0.88
  -2  -6   8    9.37    1.07
   1   6  -8    2.97    0.64
  -1  -6   8    3.23    0.57
  -1  -6   8    4.30    0.53
   0   6  -8    6.70    1.07
   0  -6   8    6.98    0.82
  -1   6  -8    4.23    0.68
   1  -6   8    5.37    0.84
  -2   6  -8    8.30    1.05
   2  -6   8   11.07    1.21
  -3   6  -8    1.83    0.97
   3  -6   8    2.89    0.91
   6   5  -8    5.60    1.22
  -6  -5   8    2.18    0.85
  -6  -5   8    4.15    0.97
   5   5  -8   -1.15    0.84
  -5  -5   8   -0.87    0.83
  -5  -5   8   -0.43    0.72
   4   5  -8    6.35    0.87
  -4  -5   8    5.58    0.77
  -4  -5   8    5.96    0.92
   3   5  -8   -0.27    0.53
  -3  -5   8   -0.38    0.43
  -3  -5   8   -0.13    0.62
   2   5  -8    4.19    0.68
  -2  -5   8    4.04    0.58
  -2  -5   8    4.72    0.68
   1   5  -8   10.13    1.02
  -1  -5   8    9.85    0.84
  -1  -5   8    9.44    0.83
   0   5  -8    2.40    0.63
   0  -5   8    2.61    0.54
  -1   5  -8    1.29    0.55
   1  -5   8    0.31    0.42
  -2   5  -8    0.29    0.61
   2  -5   8    1.21    0.51
  -3   5  -8    4.16    0.89
  -4   5  -8    4.93    1.21
   4  -5   8    3.93    1.11
   6   4  -8   -0.70    1.01
  -6  -4   8   -0.68    0.77
  -6  -4   8   -0.41    0.85
   5   4  -8    1.19    0.78
  -5  -4   8    0.39    0.70
  -5  -4   8   -0.11    0.67
   4   4  -8    0.45    0.79
  -4  -4   8    0.50    0.60
   3   4  -8    3.43    0.68
  -3  -4   8    4.77    0.71
  -3  -4   8    4.15    0.66
   2   4  -8   26.24    1.27
  -2  -4   8   26.78    1.25
  -2  -4   8   25.85    1.20
   1   4  -8   -0.45    0.45
  -1  -4   8   -0.23    0.41
  -1  -4   8    0.32    0.41
   0   4  -8    8.69    0.95
   0  -4   8    7.88    0.85
  -1   4  -8    5.76    1.04
  -2   4  -8    9.53    1.08
   2  -4   8    7.70    0.96
  -3   4  -8    3.31    0.75
   3  -4   8    2.79    0.67
  -4   4  -8    7.06    1.04
   4  -4   8    6.83    0.98
   6   3  -8    3.19    1.02
  -6  -3   8    2.29    0.90
  -6  -3   8    2.96    0.67
   5   3  -8    0.55    0.75
  -5  -3   8    1.14    0.88
   4   3  -8    0.91    0.59
  -4  -3   8    0.12    0.57
  -4  -3   8    0.36    0.48
   3   3  -8    0.05    0.52
  -3  -3   8   -0.12    0.52
  -3  -3   8    0.30    0.51
   2   3  -8    6.04    0.87
  -2  -3   8    5.93    0.78
  -2  -3   8    7.15    0.88
   1   3  -8   56.10    1.87
  -1  -3   8   59.28    1.88
  -1  -3   8   60.87    1.76
   0   3  -8   62.54    1.95
   0  -3   8   61.30    1.70
   0  -3   8   61.40    1.66
   0  -3   8   61.87    1.94
  -1   3  -8    7.80    0.91
   1  -3   8   10.25    0.87
  -2   3  -8    7.37    0.99
   2  -3   8    7.19    0.91
  -3   3  -8   49.66    1.87
   3  -3   8   52.37    1.85
   4  -3   8    5.42    0.93
  -5   3  -8    0.27    0.94
   5  -3   8    0.33    0.82
   6   2  -8    0.26    0.95
  -6  -2   8   -0.58    0.67
  -6  -2   8    1.51    0.81
   5   2  -8   11.87    1.34
  -5  -2   8   11.60    1.25
   4   2  -8    1.22    0.59
  -4  -2   8    1.24    0.50
  -4  -2   8    1.33    0.59
   3   2  -8    1.19    0.52
  -3  -2   8    2.17    0.50
  -3  -2   8    1.90    0.52
   2   2  -8   10.21    0.88
  -2  -2   8    8.97    0.82
  -2  -2   8    9.00    0.82
   1   2  -8    9.37    0.83
  -1  -2   8    9.80    0.82
  -1  -2   8    8.94    0.76
   0   2  -8   33.13    1.26
   0  -2   8   33.07    1.26
   0  -2   8   34.20    1.16
  -1   2  -8  130.78    3.45
   1  -2   8  132.69    3.46
  -2   2  -8   22.77    1.14
   2  -2   8   21.87    1.09
  -3   2  -8    2.75    0.60
   3  -2   8    1.46    0.53
  -4   2  -8   19.69    1.28
  -4   2  -8   19.16    1.07
   4  -2   8   20.23    1.18
   4  -2   8   19.40    1.09
  -5   2  -8    1.60    0.72
  -5   2  -8    0.87    0.77
   5  -2   8    0.93    0.69
  -6  -1   8   -0.48    0.81
  -6  -1   8   -0.28    0.68
   5   1  -8    6.13    1.12
  -5  -1   8    6.35    1.37
   4   1  -8   14.65    1.21
  -4  -1   8   16.48    1.08
  -4  -1   8   16.81    1.16
   3   1  -8   -0.25    0.46
  -3  -1   8   -0.53    0.39
  -3  -1   8    0.00    0.43
   2   1  -8   50.04    1.63
  -2  -1   8   49.09    1.65
  -2  -1   8   48.30    1.60
   1   1  -8    4.59    0.69
  -1  -1   8    5.04    0.70
   0   1  -8    3.41    0.47
   0  -1   8    2.38    0.45
   0  -1   8    2.92    0.45
  -1   1  -8   10.39    0.77
   1  -1   8   11.10    0.78
   1  -1   8   11.49    0.73
  -2   1  -8    7.07    0.67
  -2   1  -8    6.38    0.76
   2  -1   8    5.42    0.73
   2  -1   8    5.52    0.71
  -3   1  -8   16.82    1.03
  -3   1  -8   17.95    0.95
   3  -1   8   16.80    0.96
   3  -1   8   16.41    0.99
  -4   1  -8   41.00    1.57
  -4   1  -8   43.32    1.57
   4  -1   8   43.56    1.50
   4  -1   8   41.75    1.55
  -5   1  -8    8.64    1.26
  -5   1  -8    8.94    1.12
   5  -1   8   10.25    1.29
   5  -1   8    9.44    0.99
  -6   1  -8    0.37    0.74
   6  -1   8    2.66    1.61
  -6   0   8    2.40    0.76
  -6   0   8    3.53    0.97
   5   0  -8   14.59    1.40
  -5   0   8   14.90    1.07
   4   0  -8   11.37    1.18
  -4   0   8   10.99    1.14
  -4   0   8   12.55    1.02
   3   0  -8    0.48    0.51
  -3   0   8    0.39    0.46
  -3   0   8   -0.20    0.44
   2   0  -8   26.69    1.16
  -2   0   8   26.85    1.14
   1   0  -8    0.18    0.36
  -1   0   8    0.69    0.37
  -1   0   8   -0.17    0.43
   0   0  -8    1.61    0.41
   0   0   8    1.04    0.37
   0   0   8    1.49    0.43
  -1   0  -8   10.46    0.75
  -1   0  -8    9.78    0.74
   1   0   8   10.19    0.78
   1   0   8   10.66    0.74
  -2   0  -8    1.47    0.43
  -2   0  -8    1.54    0.43
   2   0   8    1.52    0.45
   2   0   8    1.74    0.42
  -3   0  -8    3.45    0.54
  -3   0  -8    3.52    0.53
   3   0   8    3.32    0.57
   3   0   8    3.21    0.49
  -4   0  -8   14.64    0.99
  -4   0  -8   16.16    1.14
   4   0   8   13.43    0.86
   4   0   8   14.60    1.15
  -5   0  -8   10.79    1.24
   5   0   8   11.29    1.33
   5   0   8   10.14    0.80
  -6   0  -8    0.15    0.85
   6   0   8    0.03    0.97
  -6   1   8   -1.93    1.01
  -6   1   8   -1.52    0.84
  -5   1   8   -1.12    0.72
  -5   1   8    0.99    0.57
  -4   1   8    0.22    0.89
  -4   1   8    0.65    0.45
   3  -1  -8    4.71    0.68
  -3   1   8    4.07    0.79
  -3   1   8    4.35    0.61
   2  -1  -8   13.62    0.96
  -2   1   8   14.88    0.94
  -2   1   8   14.33    1.09
   1  -1  -8   11.34    0.85
  -1   1   8   12.16    0.95
   0  -1  -8   24.19    1.02
   0  -1  -8   23.14    1.04
   0   1   8   24.68    1.13
   0   1   8   23.96    1.02
  -1  -1  -8   15.71    0.89
  -1  -1  -8   16.89    0.86
   1   1   8   16.37    0.84
   1   1   8   15.55    0.95
  -2  -1  -8    9.81    0.74
  -2  -1  -8   10.68    0.81
   2   1   8   10.55    0.86
   2   1   8    9.51    0.72
  -3  -1  -8    0.47    0.39
  -3  -1  -8    0.69    0.48
   3   1   8    0.84    0.52
   3   1   8    0.42    0.36
  -4  -1  -8    2.50    0.61
  -4  -1  -8    2.29    0.43
   4   1   8    3.10    0.66
   4   1   8    1.75    0.38
  -5  -1  -8    2.77    0.79
   5   1   8    2.97    0.78
  -6  -1  -8    1.58    0.86
   6   1   8    1.65    1.01
  -5   2   8   -0.67    0.64
  -4   2   8   29.21    1.47
  -4   2   8   26.65    1.35
  -3   2   8    1.45    0.58
  -3   2   8    1.00    0.60
   2  -2  -8    0.10    0.45
  -2   2   8    0.30    0.57
  -2   2   8   -0.46    0.37
   1  -2  -8   14.28    0.94
  -1   2   8   15.57    1.06
  -1   2   8   15.87    0.96
   0  -2  -8    1.08    0.39
   0  -2  -8    0.97    0.41
   0   2   8    1.24    0.47
   0   2   8    0.63    0.37
  -1  -2  -8   46.89    1.58
  -1  -2  -8   46.98    1.49
   1   2   8   48.04    1.51
   1   2   8   48.67    1.65
  -2  -2  -8    8.28    0.72
  -2  -2  -8    7.61    0.81
   2   2   8    8.58    0.87
   2   2   8    7.62    0.72
  -3  -2  -8    7.17    0.89
  -3  -2  -8    7.56    0.73
   3   2   8    7.25    0.70
   3   2   8    8.08    1.01
  -4  -2  -8    4.97    0.72
   4   2   8    4.84    0.74
  -5  -2  -8    0.18    0.62
   5   2   8   -0.01    0.64
  -6  -2  -8   -0.30    0.75
   6   2   8    0.73    0.94
  -5   3   8   -0.26    0.93
  -5   3   8    0.62    0.85
  -5   3   8    1.65    1.10
  -5   3   8   -0.95    0.99
  -4   3   8    1.15    0.66
  -4   3   8    0.12    0.74
  -4   3   8    1.33    0.72
  -3   3   8   10.84    0.97
  -3   3   8   10.51    1.20
  -2   3   8   25.67    1.46
  -2   3   8   28.56    1.31
  -1   3   8   57.55    2.04
  -1   3   8   60.19    1.91
   0  -3  -8   11.49    0.94
   0  -3  -8   12.68    0.87
   0   3   8   12.00    1.07
   0   3   8   11.21    0.85
  -1  -3  -8    0.76    0.41
  -1  -3  -8    0.62    0.38
   1   3   8    0.32    0.39
   1   3   8    0.54    0.46
  -2  -3  -8    1.07    0.43
  -2  -3  -8    1.49    0.44
   2   3   8    1.22    0.42
   2   3   8    0.75    0.53
  -3  -3  -8   66.59    2.16
   3   3   8   68.35    2.22
   3   3   8   67.94    1.93
   4   3   8    4.39    1.06
  -5  -3  -8    0.30    0.54
   5   3   8   -0.17    0.71
  -6  -3  -8   -0.33    0.78
   6   3   8   -0.26    0.86
  -5   4   8    0.56    1.22
  -5   4   8   -1.13    1.19
  -5   4   8    0.60    1.10
  -4   4   8    0.20    0.74
  -4   4   8   -0.08    0.71
  -4   4   8    0.38    0.97
  -4   4   8    0.03    0.86
  -3   4   8    2.47    0.60
  -3   4   8    2.25    0.73
  -2   4   8    0.36    0.43
  -2   4   8   -0.76    0.63
  -1   4   8    1.56    0.62
  -1   4   8    1.52    0.69
   0  -4  -8   25.16    1.26
   0   4   8   25.75    1.44
   0   4   8   26.20    1.24
  -1  -4  -8    3.08    0.62
   1   4   8    2.82    0.71
   1   4   8    2.25    0.52
  -2  -4  -8    4.46    0.65
   2   4   8    4.65    0.70
   2   4   8    4.17    0.57
  -3  -4  -8    5.30    0.98
   3   4   8    4.96    0.78
   3   4   8    4.19    0.74
  -4  -4  -8    0.76    0.47
   4   4   8    2.26    0.45
   4   4   8    2.65    0.70
   4   4   8    1.48    0.44
  -5  -4  -8    0.64    0.56
   5   4   8    0.73    0.64
  -6  -4  -8    0.23    0.73
   6   4   8    1.31    0.97
  -4   5   8    1.07    0.89
  -4   5   8   -1.16    0.97
  -4   5   8   -0.18    1.07
  -4   5   8    1.03    0.99
  -3   5   8    4.75    0.68
  -3   5   8    5.65    1.14
  -3   5   8    5.13    0.80
  -2   5   8    1.17    0.49
  -2   5   8    1.11    0.75
  -2   5   8    0.59    0.53
  -1   5   8   10.72    0.95
  -1   5   8   10.08    1.25
   0  -5  -8    0.16    0.63
   0   5   8   -0.11    0.54
   1   5   8    1.46    0.87
   1   5   8    0.39    0.49
  -2  -5  -8    4.93    0.70
   2   5   8    6.45    0.94
   2   5   8    7.22    0.75
   2   5   8    6.29    0.98
  -3  -5  -8    0.22    0.52
   3   5   8    0.17    0.52
   3   5   8    1.08    0.53
   3   5   8    0.40    0.47
  -4  -5  -8   -0.24    0.44
   4   5   8   -0.25    0.43
   4   5   8    0.36    0.47
   4   5   8    0.41    0.61
  -5  -5  -8    0.76    0.50
   5   5   8    1.23    0.60
   6   5   8   -0.53    0.81
  -3   6   8   -0.44    0.68
  -3   6   8    0.26    0.78
  -3   6   8    2.06    1.28
  -2   6   8    0.20    0.63
  -2   6   8   -0.76    0.87
  -2   6   8   -0.79    0.49
  -1   6   8    1.35    0.48
  -1   6   8    0.70    0.80
  -1   6   8    1.48    0.56
   0  -6  -8    3.79    0.70
   0   6   8    2.18    0.53
   0   6   8    1.65    0.57
   0   6   8    1.63    0.72
  -1  -6  -8    1.06    0.54
   1   6   8    0.70    0.69
   1   6   8    0.36    0.50
   1   6   8   -0.31    0.52
  -2  -6  -8    1.39    0.55
   2   6   8    0.27    0.63
   2   6   8    0.32    0.54
   2   6   8    1.25    0.62
  -3  -6  -8    1.92    0.53
   3   6   8    1.17    0.55
   3   6   8    1.55    0.68
   3   6   8    2.38    0.66
  -4  -6  -8   -0.28    0.61
   4   6   8    0.73    0.55
   4   6   8    1.30    0.65
   4   6   8   -0.28    0.61
  -5  -6  -8   -0.53    0.55
   5   6   8    1.09    0.67
  -6  -6  -8    0.27    0.71
   6   6   8    0.13    0.76
  -2   7   8    1.27    0.62
  -2   7   8    0.71    1.24
  -2   7   8    1.17    0.80
  -1   7   8    1.51    1.06
  -1   7   8    1.06    0.55
  -1   7   8   -0.65    0.60
   0  -7  -8    1.44    0.67
   0   7   8   -0.25    0.51
   0   7   8   -0.01    0.61
   0   7   8    0.23    0.88
  -1  -7  -8    0.57    0.62
   1   7   8   -0.76    0.62
   1   7   8   -1.01    0.72
   1   7   8    1.26    0.58
  -2  -7  -8    5.76    0.96
   2   7   8    4.59    0.89
   2   7   8    5.11    0.79
   2   7   8    5.99    0.91
  -3  -7  -8   11.16    1.03
   3   7   8    7.76    1.26
   3   7   8    8.49    1.71
   3   7   8    8.04    1.11
  -4  -7  -8   12.19    1.09
   4   7   8   12.70    1.31
   4   7   8    9.14    1.43
   4   7   8   10.72    1.25
   5   7   8   -0.44    0.63
   5   7   8    0.10    0.73
   5   7   8    0.91    0.67
  -1   8   8   -0.11    0.68
  -1   8   8   -0.40    1.30
  -1   8   8    2.30    0.86
   0  -8  -8    0.92    0.88
   0   8   8    1.06    1.12
   0   8   8    1.82    0.68
   0   8   8    2.71    0.85
  -1  -8  -8    2.72    0.86
   1   8   8    2.93    0.96
   1   8   8    1.84    0.71
   1   8   8   -0.17    0.94
  -2  -8  -8    0.73    0.68
   2   8   8   -0.59    0.85
   2   8   8   -0.29    0.94
  -3  -8  -8    4.91    0.85
   3   8   8    4.76    1.12
   3   8   8    3.74    0.92
   3   8   8    4.02    1.03
   4   8   8    1.99    0.80
   4   8   8    0.70    0.80
   4   8   8    0.84    1.06
   5   8   8    2.20    0.86
   5   8   8    2.93    0.93
  -1  -9  -8    1.57    1.12
   1   9   8    0.78    0.85
   1   9   8   -1.37    1.11
  -2  -9  -8    3.60    1.11
   2   9   8    0.91    1.22
   2   9   8   -0.22    1.16
   2   9   8    2.17    1.07
  -3  -9  -8    0.06    0.86
   3   9   8   -1.63    1.12
   3   9   8   -0.16    1.01
   3   9   8    1.34    1.37
   3   8  -9    0.31    1.00
  -3  -8   9   -0.34    1.08
  -3  -8   9    1.16    0.85
   2   8  -9    2.16    0.84
  -2  -8   9    1.92    0.98
  -2  -8   9    2.56    0.70
   1   8  -9   -0.80    0.75
  -1  -8   9    0.93    0.63
   4   7  -9    0.56    1.00
  -4  -7   9    1.25    1.03
  -4  -7   9    0.47    0.77
   3   7  -9    1.62    0.90
  -3  -7   9    0.61    0.88
  -3  -7   9    0.35    0.64
   2   7  -9    3.98    0.82
  -2  -7   9    3.04    0.82
  -2  -7   9    2.23    0.55
   1   7  -9    4.46    0.81
  -1  -7   9    3.94    0.58
   0   7  -9   -0.24    0.67
   0  -7   9    0.30    0.55
  -1   7  -9   10.24    1.38
   1  -7   9    9.61    1.11
  -2   7  -9    8.05    1.23
   2  -7   9    4.67    0.89
   5   6  -9    1.76    1.12
  -5  -6   9   -0.76    1.02
  -5  -6   9   -0.91    1.23
   4   6  -9    0.28    0.86
  -4  -6   9    0.18    0.80
  -4  -6   9    0.64    0.87
   3   6  -9   -0.08    0.65
  -3  -6   9   -0.92    0.52
   2   6  -9   -0.11    0.57
  -2  -6   9   -0.12    0.43
  -2  -6   9    0.05    0.63
   1   6  -9   -0.93    0.50
  -1  -6   9   -0.06    0.71
   0   6  -9    0.06    0.54
   0  -6   9    0.13    0.46
  -1   6  -9    3.37    0.73
   1  -6   9    2.61    0.60
  -2   6  -9    1.99    0.81
   2  -6   9    0.45    0.67
  -3   6  -9    5.08    1.25
   3  -6   9    2.79    0.99
   6   5  -9    1.46    1.23
  -6  -5   9   -0.48    1.07
  -6  -5   9    1.79    1.04
   5   5  -9   -0.11    0.99
  -5  -5   9    1.02    0.81
  -5  -5   9    0.82    0.87
   4   5  -9    0.86    0.76
  -4  -5   9    1.46    0.63
  -4  -5   9    0.53    0.76
   3   5  -9    2.03    0.68
  -3  -5   9    0.84    0.53
  -3  -5   9    2.40    0.79
   2   5  -9    7.85    1.02
  -2  -5   9    7.46    0.82
  -2  -5   9    6.85    1.00
   1   5  -9   66.97    2.22
  -1  -5   9   65.07    2.12
  -1  -5   9   66.04    1.93
   0   5  -9   37.14    1.57
   0  -5   9   35.00    1.43
  -1   5  -9    9.20    1.08
   1  -5   9    8.58    0.85
  -2   5  -9   24.40    1.58
   2  -5   9   27.09    1.46
  -3   5  -9    6.54    1.09
   3  -5   9    5.55    0.94
  -4   5  -9    2.70    1.29
   4  -5   9    3.13    1.08
   6   4  -9    0.72    1.14
  -6  -4   9    1.12    0.84
  -6  -4   9   -0.13    0.92
   5   4  -9    1.18    0.86
  -5  -4   9    0.68    0.81
  -5  -4   9    0.89    0.72
   4   4  -9    0.41    0.63
  -4  -4   9    0.14    0.55
  -4  -4   9   -0.14    0.60
   3   4  -9   43.79    1.79
  -3  -4   9   42.22    1.70
  -3  -4   9   46.33    1.81
   2   4  -9    7.42    1.05
  -2  -4   9    8.67    0.98
  -2  -4   9    6.53    0.86
   1   4  -9    2.77    0.70
  -1  -4   9    3.26    0.54
  -1  -4   9    3.22    0.52
   0   4  -9    8.80    1.01
   0  -4   9   12.02    0.92
  -1   4  -9    0.51    0.51
   1  -4   9   -0.10    0.42
  -2   4  -9   12.66    1.21
   2  -4   9   14.83    1.11
  -3   4  -9    2.64    0.82
   3  -4   9    4.08    0.76
  -4   4  -9    2.55    1.00
   4  -4   9    1.88    0.89
   6   3  -9    2.75    1.11
  -6  -3   9    1.67    0.77
  -6  -3   9    1.34    0.98
   5   3  -9    0.25    0.77
  -5  -3   9    0.63    0.60
  -5  -3   9    1.44    0.78
   4   3  -9   11.90    1.44
  -4  -3   9   11.74    1.15
  -4  -3   9   10.65    1.17
   3   3  -9    4.58    0.69
  -3  -3   9    4.85    0.76
  -3  -3   9    4.56    0.67
   2   3  -9    1.46    0.52
  -2  -3   9   -0.08    0.42
  -2  -3   9    1.05    0.52
   1   3  -9   22.58    1.18
  -1  -3   9   23.62    1.19
  -1  -3   9   25.39    1.11
   0   3  -9   48.19    1.72
   0  -3   9   49.30    1.43
   0  -3   9   49.77    1.68
   0  -3   9   44.91    1.47
  -1   3  -9    9.13    0.95
   1  -3   9    9.51    0.88
  -2   3  -9   11.97    1.06
   2  -3   9   11.53    1.05
   3  -3   9   18.61    1.99
  -4   3  -9    3.58    0.88
   4  -3   9    3.80    0.78
  -5   3  -9    0.72    1.02
   5  -3   9    3.92    0.99
   6   2  -9    1.74    1.09
  -6  -2   9    0.59    0.66
  -6  -2   9    2.82    0.95
   5   2  -9    0.17    0.74
  -5  -2   9   -0.47    0.54
  -5  -2   9   -1.25    0.64
   4   2  -9   -0.34    0.65
  -4  -2   9   -0.74    0.44
  -4  -2   9   -0.66    1.02
   3   2  -9    0.54    0.51
  -3  -2   9    0.06    0.47
  -3  -2   9    0.83    0.51
   2   2  -9    9.10    0.92
  -2  -2   9    9.81    0.86
  -2  -2   9    7.48    0.92
   1   2  -9   19.63    1.11
  -1  -2   9   18.57    1.06
  -1  -2   9   20.10    1.00
   0   2  -9    1.12    0.42
   0  -2   9    0.94    0.41
   0  -2   9    0.89    0.44
  -1   2  -9   20.80    1.09
   1  -2   9   21.66    1.11
   1  -2   9   20.36    0.91
  -2   2  -9   10.86    1.02
   2  -2   9   11.84    1.00
  -3   2  -9    2.77    0.63
   3  -2   9    2.82    0.61
  -4   2  -9   10.77    1.22
   4  -2   9   11.36    0.99
   4  -2   9   12.38    1.11
  -5   2  -9    0.27    0.84
  -5   2  -9    0.20    0.70
   5  -2   9    0.54    0.68
   6   1  -9    1.97    1.09
  -6  -1   9    1.02    0.72
  -6  -1   9    1.97    0.95
   5   1  -9   -0.12    0.75
  -5  -1   9    0.24    0.69
  -5  -1   9   -0.36    0.53
   4   1  -9    5.22    0.91
  -4  -1   9    4.71    1.24
   3   1  -9    4.03    0.63
  -3  -1   9    4.50    0.62
  -3  -1   9    4.94    0.83
   2   1  -9   13.15    0.93
  -2  -1   9   13.58    0.98
  -2  -1   9   13.97    0.92
   1   1  -9   36.43    1.38
  -1  -1   9   36.99    1.39
  -1  -1   9   36.62    1.40
   0   1  -9   52.44    1.70
   0  -1   9   52.54    1.68
   0  -1   9   53.01    1.69
  -1   1  -9   56.57    1.80
   1  -1   9   57.79    1.70
   1  -1   9   55.88    1.79
  -2   1  -9   10.71    0.92
  -2   1  -9    9.97    0.81
   2  -1   9   11.49    0.88
   2  -1   9   10.73    0.90
  -3   1  -9    3.80    0.57
  -3   1  -9    3.23    0.60
   3  -1   9    2.74    0.55
   3  -1   9    3.61    0.57
  -4   1  -9    1.27    0.61
  -4   1  -9    1.40    0.57
   4  -1   9    1.79    0.61
   4  -1   9    1.22    0.57
  -5   1  -9    0.07    0.75
  -5   1  -9    0.33    0.68
   5  -1   9    0.59    0.77
   5  -1   9    0.74    0.57
  -6   1  -9    0.56    0.86
   6  -1   9    0.90    1.33
  -6   0   9    1.07    0.96
  -6   0   9    0.70    0.81
   5   0  -9    1.61    0.87
  -5   0   9    2.94    0.61
  -5   0   9    0.86    0.75
   4   0  -9    3.30    0.83
  -4   0   9    3.76    0.61
  -4   0   9    3.81    0.71
   3   0  -9   38.49    1.57
  -3   0   9   39.54    1.56
   2   0  -9    3.30    0.53
  -2   0   9    5.28    0.78
   1   0  -9   -0.22    0.41
  -1   0   9    0.01    0.46
  -1   0   9    0.25    0.40
   0   0  -9    1.66    0.42
   0   0   9    2.41    0.55
   0   0   9    2.43    0.43
  -2   0  -9    5.59    0.77
  -2   0  -9    5.21    0.80
   2   0   9    5.93    0.85
   2   0   9    4.18    0.56
  -3   0  -9    3.71    0.61
  -3   0  -9    2.91    0.55
   3   0   9    3.21    0.54
   3   0   9    3.16    0.62
  -4   0  -9    0.06    0.59
  -4   0  -9    0.72    0.55
   4   0   9    0.03    0.59
   4   0   9    0.02    0.43
  -5   0  -9    2.49    0.62
  -5   0  -9    2.06    0.77
   5   0   9    2.33    0.86
   5   0   9    1.86    0.48
  -6   0  -9    1.92    1.03
   6   0   9    0.41    1.14
  -6   1   9    0.99    0.90
  -6   1   9   -1.00    1.13
  -5   1   9    0.63    0.61
  -5   1   9   -1.32    0.71
   4  -1  -9   24.15    1.45
  -4   1   9   19.81    1.32
  -4   1   9   19.00    1.17
   3  -1  -9   15.18    1.20
  -3   1   9   17.93    1.19
   2  -1  -9    1.22    0.49
  -2   1   9    0.76    0.54
  -2   1   9    0.88    0.43
   1  -1  -9   58.59    1.89
  -1   1   9   60.97    1.91
  -1   1   9   61.76    2.01
   0  -1  -9   13.81    0.87
   0   1   9   14.13    1.02
   0   1   9   13.08    0.87
  -1  -1  -9   52.49    1.71
  -1  -1  -9   52.41    1.65
   1   1   9   53.61    1.66
   1   1   9   52.67    1.75
  -2  -1  -9   82.94    2.29
  -2  -1  -9   81.26    2.35
   2   1   9   82.40    2.30
   2   1   9   81.44    2.37
  -3  -1  -9   81.88    2.31
  -3  -1  -9   83.64    2.49
   3   1   9   86.01    2.33
   3   1   9   83.84    2.52
  -4  -1  -9   30.97    1.24
  -4  -1  -9   31.96    1.49
   4   1   9   33.73    1.59
   4   1   9   29.77    1.18
   5   1   9   -0.03    1.32
  -6  -1  -9    3.60    1.01
   6   1   9    4.35    1.21
  -5   2   9   -0.40    0.66
  -5   2   9   -0.66    1.05
  -4   2   9    1.43    0.67
  -4   2   9    3.01    0.70
  -4   2   9    1.71    0.58
   3  -2  -9    0.18    0.49
  -3   2   9    0.32    0.46
  -3   2   9   -0.17    0.53
   2  -2  -9    7.95    0.99
  -2   2   9    8.18    0.86
  -2   2   9    6.33    1.07
   1  -2  -9   -0.99    0.44
  -1   2   9   -0.40    0.42
   0  -2  -9    5.69    0.79
   0  -2  -9    6.21    0.77
   0   2   9    7.20    0.94
   0   2   9    5.68    0.75
  -1  -2  -9   20.34    0.99
  -1  -2  -9   20.44    1.07
   1   2   9   19.75    1.15
   1   2   9   19.53    0.99
  -2  -2  -9    9.25    0.84
  -2  -2  -9    9.28    0.89
   2   2   9    8.71    0.81
   2   2   9    8.43    0.96
  -3  -2  -9   12.40    0.88
  -3  -2  -9   12.33    1.08
   3   2   9   12.48    0.86
   3   2   9   12.66    1.18
  -4  -2  -9   -0.04    0.43
  -4  -2  -9    0.08    0.59
   4   2   9    0.12    0.64
   4   2   9   -0.22    0.39
  -5  -2  -9    4.73    0.83
   5   2   9    3.91    0.89
  -6  -2  -9   -1.08    0.88
   6   2   9    0.88    1.04
  -5   3   9   -1.74    0.87
  -5   3   9   -1.71    0.85
  -5   3   9    1.14    0.98
  -4   3   9    3.18    0.84
  -4   3   9    4.94    0.85
  -4   3   9    2.13    1.29
  -3   3   9   51.52    1.85
  -3   3   9   45.71    1.99
  -2   3   9   15.01    1.02
  -2   3   9   12.60    1.18
   1  -3  -9   -0.54    0.48
  -1   3   9    0.33    0.59
  -1   3   9   -0.39    0.44
   0  -3  -9    1.31    0.49
   0   3   9    1.32    0.46
   0   3   9    2.09    0.66
  -1  -3  -9   -0.09    0.46
  -1  -3  -9    0.76    0.48
   1   3   9    0.49    0.52
   1   3   9   -0.13    0.40
  -2  -3  -9    5.74    0.90
  -2  -3  -9    5.74    0.88
   2   3   9    6.96    0.84
  -3  -3  -9    2.27    0.59
  -3  -3  -9    1.62    0.50
   3   3   9    1.89    0.49
   3   3   9    1.88    0.63
  -4  -3  -9    1.88    0.63
   4   3   9    1.51    0.65
   4   3   9    1.91    0.44
  -5  -3  -9    3.72    0.83
   5   3   9    4.25    0.87
  -6  -3  -9   -0.44    0.83
   6   3   9    1.22    1.00
  -4   4   9    4.32    1.06
  -4   4   9    1.55    0.96
  -4   4   9    2.85    0.79
  -3   4   9    0.17    0.59
  -3   4   9    0.39    0.64
  -2   4   9    0.70    0.41
  -2   4   9    0.36    0.64
  -1   4   9   10.98    0.99
  -1   4   9   11.04    1.29
   0  -4  -9    3.15    0.58
   0   4   9    2.76    0.73
  -1  -4  -9    0.44    0.54
   1   4   9    0.19    0.45
   1   4   9    0.62    0.67
  -2  -4  -9   11.28    1.08
   2   4   9   10.26    0.99
   2   4   9   11.16    1.16
   3   4   9    3.13    0.55
   3   4   9    3.16    0.72
  -4  -4  -9    3.49    0.62
   4   4   9    4.08    0.54
   4   4   9    4.99    0.78
  -5  -4  -9   -0.95    0.55
   5   4   9    0.22    0.67
  -6  -4  -9   -1.04    0.71
   6   4   9    0.26    1.02
  -4   5   9   -1.59    0.85
  -4   5   9    1.78    1.17
  -4   5   9   -0.15    1.03
  -3   5   9    5.09    0.83
  -3   5   9    4.84    1.11
  -3   5   9    7.98    1.08
  -2   5   9    3.79    0.85
  -2   5   9    2.20    0.93
  -1   5   9    0.14    0.65
  -1   5   9    0.51    0.42
   0  -5  -9    6.88    0.93
   0   5   9    6.29    0.90
   0   5   9    7.42    0.91
  -1  -5  -9    0.54    0.47
   1   5   9    0.06    0.63
   1   5   9    0.19    0.49
  -2  -5  -9   45.31    1.81
   2   5   9   46.32    1.95
   2   5   9   47.52    1.72
  -3  -5  -9   14.88    1.14
   3   5   9   16.02    1.13
   3   5   9   16.36    1.10
   3   5   9   15.50    1.22
  -4  -5  -9   -0.10    0.44
   4   5   9    0.08    0.59
   4   5   9    0.36    0.48
   4   5   9    0.17    0.54
   5   5   9    0.11    0.59
  -6  -5  -9   -1.17    0.69
   6   5   9    1.95    0.99
  -3   6   9   -0.80    0.79
  -3   6   9    0.67    1.39
  -3   6   9   -0.23    0.68
  -2   6   9    0.09    0.55
  -2   6   9    1.44    0.94
  -2   6   9    0.47    0.62
  -1   6   9    3.65    0.58
  -1   6   9    4.41    0.74
  -1   6   9    4.12    0.92
   0  -6  -9    3.94    0.65
   0   6   9    4.40    0.65
   0   6   9    2.89    0.75
   0   6   9    4.18    0.69
  -1  -6  -9   12.15    1.07
   1   6   9   11.25    1.11
   1   6   9   11.09    1.16
   1   6   9   11.33    1.27
  -2  -6  -9    1.26    0.50
   2   6   9    0.97    0.70
   2   6   9   -0.64    0.92
  -3  -6  -9    6.68    0.99
   3   6   9    6.79    1.04
   3   6   9    5.79    0.83
   3   6   9    3.89    0.68
  -4  -6  -9    0.38    0.49
   4   6   9    0.38    0.60
   4   6   9    0.82    0.68
   4   6   9    0.83    0.61
   5   6   9    0.24    0.55
   5   6   9   -0.64    0.64
  -6  -6  -9   -1.46    0.74
   6   6   9    1.15    1.00
  -2   7   9   -1.28    1.20
  -2   7   9   -0.38    0.63
  -2   7   9    0.81    0.80
  -1   7   9   -0.62    0.96
  -1   7   9    0.14    0.56
  -1   7   9    0.86    0.71
   0  -7  -9    1.09    0.76
   0   7   9   -0.41    0.53
   0   7   9   -0.58    0.64
   0   7   9    0.70    0.93
  -1  -7  -9    4.50    0.97
   1   7   9    3.43    0.72
   1   7   9    2.17    0.83
   1   7   9    2.22    0.80
  -2  -7  -9   32.67    1.52
   2   7   9   31.92    1.73
   2   7   9   27.68    1.61
   2   7   9   24.77    1.69
  -3  -7  -9   26.71    1.46
   3   7   9   29.43    1.61
   3   7   9   33.09    1.82
   3   7   9   24.08    1.60
  -4  -7  -9    8.51    1.10
   4   7   9    7.21    1.01
   4   7   9    8.39    1.29
   4   7   9    7.69    1.05
  -5  -7  -9    2.82    0.64
   5   7   9    3.82    0.77
   5   7   9    3.96    0.80
   5   7   9    1.40    0.85
  -1   8   9   -0.05    0.92
  -1   8   9    0.15    1.41
   0  -8  -9    1.26    0.97
   0   8   9   -2.00    1.06
   0   8   9    0.13    0.69
   0   8   9    2.44    0.84
  -1  -8  -9    1.18    0.81
   1   8   9   -1.07    0.70
   1   8   9   -1.56    0.98
   1   8   9    1.52    0.91
   2   8   9    2.56    1.06
   2   8   9    3.31    1.05
   2   8   9    2.93    0.88
  -3  -8  -9    1.85    0.69
   3   8   9    0.36    0.84
   3   8   9   -0.75    0.85
   3   8   9    0.64    1.09
  -4  -8  -9    0.51    0.74
   4   8   9    2.20    0.95
   4   8   9    1.32    1.11
   4   8   9    0.80    0.88
  -2  -9  -9    3.28    1.04
   2   9   9    0.09    1.41
   2   9   9    1.32    1.29
   2   8 -10    0.21    1.46
  -2  -8  10    0.39    1.35
  -2  -8  10   -0.19    0.96
   4   7 -10    0.28    1.15
  -4  -7  10   -0.92    0.82
   3   7 -10    0.72    0.92
  -3  -7  10   -0.22    0.86
  -3  -7  10   -0.94    0.67
   2   7 -10    4.48    0.89
  -2  -7  10    4.44    0.88
  -2  -7  10    4.02    0.65
   1   7 -10    0.92    0.72
  -1  -7  10    3.50    0.59
   0   7 -10   -0.77    0.69
   0  -7  10    0.54    0.60
  -1   7 -10    1.47    0.84
   1  -7  10    3.18    0.68
   5   6 -10    1.04    1.18
  -5  -6  10   -0.06    1.13
  -5  -6  10    0.03    0.95
   4   6 -10   -0.87    0.93
  -4  -6  10   -0.29    0.73
  -4  -6  10    1.67    0.95
   3   6 -10   -0.21    0.73
  -3  -6  10   -0.60    0.56
  -3  -6  10    0.35    0.85
   2   6 -10    3.39    0.80
  -2  -6  10    4.09    0.78
  -2  -6  10    2.66    0.54
   1   6 -10    2.80    0.73
  -1  -6  10    3.68    0.55
  -1  -6  10    5.35    0.67
   0  -6  10   -0.43    0.48
  -1   6 -10   10.01    1.16
   1  -6  10    7.76    1.01
  -2   6 -10    6.33    1.09
   2  -6  10    8.39    1.28
   5   5 -10   -0.83    1.11
  -5  -5  10    0.66    1.04
  -5  -5  10    1.86    1.49
   4   5 -10    6.04    0.98
  -4  -5  10    6.24    0.86
  -4  -5  10    7.41    1.12
   3   5 -10    3.79    0.80
  -3  -5  10    4.63    1.63
  -3  -5  10    3.55    0.63
   2   5 -10    1.54    0.61
  -2  -5  10    2.30    0.49
  -2  -5  10    1.96    0.68
   1   5 -10    8.76    1.03
  -1  -5  10   10.02    0.93
  -1  -5  10    7.96    0.84
   0   5 -10    3.63    0.66
   0  -5  10    5.70    0.78
  -1   5 -10    4.94    0.74
   1  -5  10    6.02    0.74
  -2   5 -10    1.66    0.75
   2  -5  10    2.63    0.73
  -3   5 -10    0.36    0.93
   3  -5  10   -0.30    0.85
   6   4 -10   -1.26    1.25
  -6  -4  10   -0.01    0.88
   5   4 -10    0.19    0.93
  -5  -4  10    0.99    0.75
  -5  -4  10    1.51    0.81
   4   4 -10   -0.50    0.69
  -4  -4  10    0.36    0.62
  -4  -4  10   -0.79    0.65
   3   4 -10    1.36    0.65
  -3  -4  10    1.99    1.16
  -3  -4  10    0.71    0.50
   2   4 -10    6.89    0.82
  -2  -4  10    7.15    1.01
  -2  -4  10    6.46    0.86
   1   4 -10    0.41    0.52
  -1  -4  10    1.73    0.51
  -1  -4  10    0.38    0.48
   0   4 -10   31.39    1.46
   0  -4  10   31.76    1.35
  -1   4 -10    3.91    0.68
   1  -4  10    2.81    0.53
  -2   4 -10    5.02    0.78
   2  -4  10    7.73    1.05
  -3   4 -10    0.05    0.78
   3  -4  10    0.48    0.70
  -4   4 -10    1.19    1.03
   4  -4  10    0.45    1.42
   6   3 -10    2.70    1.20
  -6  -3  10    0.89    1.06
  -6  -3  10    1.11    0.78
   5   3 -10   -0.86    0.84
  -5  -3  10    0.57    0.83
  -5  -3  10   -0.36    0.66
   4   3 -10    6.92    0.88
  -4  -3  10    6.15    0.88
  -4  -3  10    7.15    0.94
   3   3 -10    5.94    0.75
  -3  -3  10    6.47    1.36
  -3  -3  10    6.94    0.76
   2   3 -10  103.64    3.45
  -2  -3  10  101.94    2.96
  -2  -3  10  103.14    3.07
   1   3 -10   -0.01    0.68
  -1  -3  10    0.10    0.48
   0   3 -10    2.73    0.56
   0  -3  10    3.05    0.47
   0  -3  10    2.82    0.56
  -1   3 -10   13.15    1.79
  -2   3 -10    0.99    0.62
   2  -3  10    0.84    0.57
  -3   3 -10   10.59    1.29
   3  -3  10   11.69    1.20
  -4   3 -10   -0.68    0.83
   4  -3  10    0.81    0.77
  -5   3 -10    0.00    1.11
   5  -3  10    0.96    0.97
   6   2 -10    3.58    1.23
  -6  -2  10    2.38    1.02
  -6  -2  10    1.45    0.74
   5   2 -10    0.67    0.87
  -5  -2  10   -0.52    0.71
  -5  -2  10    1.23    0.57
   4   2 -10    1.26    0.68
  -4  -2  10    2.32    0.61
  -4  -2  10    1.23    0.62
  -3  -2  10   14.60    1.29
   2   2 -10    2.18    0.57
  -2  -2  10    2.63    0.51
  -2  -2  10    2.19    0.62
   1   2 -10    1.98    0.54
  -1  -2  10    1.51    0.53
  -1  -2  10    1.92    0.57
  -1  -2  10    2.10    0.53
   0   2 -10   12.02    1.01
   0  -2  10   10.06    0.90
   0  -2  10   11.02    0.98
  -1   2 -10    0.31    0.50
   1  -2  10    0.47    0.45
   1  -2  10   -0.16    0.45
  -2   2 -10    8.00    1.01
   2  -2  10    7.85    1.00
  -3   2 -10    2.49    0.67
   3  -2  10    1.51    0.59
  -4   2 -10    0.80    0.72
  -4   2 -10    0.47    0.57
   4  -2  10    1.14    0.66
  -5   2 -10    6.14    0.88
  -5   2 -10    4.81    1.17
   6   1 -10    3.57    1.27
  -6  -1  10    3.82    0.80
  -6  -1  10    2.98    2.02
   5   1 -10   -0.42    0.82
  -5  -1  10   -0.89    0.73
  -5  -1  10    0.92    0.59
   4   1 -10   13.46    1.32
  -4  -1  10   15.28    1.21
  -4  -1  10   15.05    1.05
   3   1 -10   -0.29    0.73
  -3  -1  10    0.64    0.51
   2   1 -10   11.37    0.97
  -2  -1  10   12.28    1.03
  -2  -1  10   12.75    0.94
   1   1 -10   26.23    1.26
  -1  -1  10   26.06    1.21
  -1  -1  10   26.76    1.30
   0   1 -10    2.92    0.54
   0  -1  10    2.03    0.57
   0  -1  10    3.56    0.54
  -1   1 -10    0.30    0.50
   1  -1  10   -0.56    0.44
   1  -1  10    0.21    0.49
  -2   1 -10   22.74    1.24
  -2   1 -10   21.04    1.07
   2  -1  10   22.82    1.14
   2  -1  10   22.94    1.21
  -3   1 -10    8.63    0.96
  -3   1 -10    8.19    1.05
   3  -1  10    8.87    1.01
   3  -1  10    9.44    1.01
  -4   1 -10    9.82    1.14
  -4   1 -10    8.30    1.19
   4  -1  10   10.35    1.13
   4  -1  10    8.40    1.08
  -5   1 -10    1.17    0.77
  -5   1 -10    0.74    0.81
   5  -1  10    0.05    0.64
   5  -1  10    0.53    0.83
  -6   0  10    4.21    1.20
   5   0 -10    4.41    1.07
  -5   0  10    4.48    0.92
   4   0 -10    0.02    0.68
  -4   0  10   -0.29    0.45
  -4   0  10   -1.01    0.54
  -3   0  10   18.26    1.14
  -3   0  10   17.64    1.34
   2   0 -10   33.79    1.41
  -2   0  10   33.47    1.55
  -2   0  10   34.28    1.38
   1   0 -10   15.83    1.04
  -1   0  10   17.66    1.14
  -1   0  10   15.87    1.00
   0   0 -10    3.17    0.50
   0   0  10    2.38    0.59
   0   0  10    2.74    0.47
  -1   0 -10   57.38    1.82
  -1   0 -10   57.60    1.85
   1   0  10   59.29    1.89
   1   0  10   58.38    1.85
  -2   0 -10    8.70    0.93
  -2   0 -10    9.41    0.93
   2   0  10    8.91    0.97
   2   0  10    8.25    0.91
  -3   0 -10   48.91    1.76
  -3   0 -10   50.62    1.75
   3   0  10   51.43    1.75
   3   0  10   52.73    1.85
  -4   0 -10    0.42    0.62
  -4   0 -10    1.00    0.57
   4   0  10   -0.31    0.47
   4   0  10    0.70    0.69
  -5   0 -10    7.56    0.99
  -5   0 -10    6.57    0.79
   5   0  10    8.62    0.95
   5   0  10    9.25    1.53
  -6   0 -10   -0.79    1.02
   6   0  10   -1.16    1.14
  -5   1  10    1.77    0.67
   4  -1 -10   16.98    1.46
  -4   1  10   15.70    1.26
  -4   1  10   16.20    1.57
   3  -1 -10    1.33    0.60
  -3   1  10    1.26    0.52
  -3   1  10    2.40    0.69
   2  -1 -10    2.60    0.60
  -2   1  10    2.44    0.55
  -2   1  10    3.29    0.71
   1  -1 -10   67.17    2.14
  -1   1  10   69.57    2.25
  -1   1  10   69.58    2.15
   0  -1 -10   11.46    0.89
   0   1  10   12.04    1.09
   0   1  10   12.50    0.90
  -1  -1 -10    1.62    0.47
  -1  -1 -10    2.05    0.54
   1   1  10    1.62    0.56
   1   1  10    1.78    0.48
  -2  -1 -10    5.63    0.86
  -2  -1 -10    6.20    0.92
   2   1  10    6.00    1.01
   2   1  10    6.33    0.85
  -4  -1 -10    0.83    0.56
  -4  -1 -10    1.38    0.62
   4   1  10    0.83    0.72
   4   1  10    1.00    0.47
  -5  -1 -10    1.01    0.82
   5   1  10    0.83    1.09
   5   1  10    1.23    0.43
  -6  -1 -10    0.78    1.01
   6   1  10    1.00    1.17
  -5   2  10    2.64    0.91
  -5   2  10    1.44    0.72
  -5   2  10    0.30    0.95
  -4   2  10   -0.07    0.63
  -4   2  10    0.42    0.54
  -4   2  10   -0.30    0.69
   3  -2 -10    1.05    0.58
  -3   2  10    1.22    0.55
  -3   2  10    1.67    0.67
   2  -2 -10    1.78    0.73
  -2   2  10    0.19    0.49
  -2   2  10    1.30    0.73
   1  -2 -10    6.02    0.71
  -1   2  10    6.68    0.88
  -1   2  10    5.80    0.69
   0  -2 -10    0.17    0.47
   0  -2 -10    0.77    0.46
   0   2  10    0.70    0.58
   0   2  10    0.39    0.43
  -1  -2 -10   21.79    1.11
  -1  -2 -10   21.70    1.17
   1   2  10   21.39    1.10
   1   2  10   23.07    1.30
  -2  -2 -10    0.51    0.51
  -2  -2 -10    0.52    0.47
   2   2  10    0.36    0.47
   2   2  10    0.57    0.57
  -3  -2 -10    2.44    0.65
  -3  -2 -10    1.83    0.53
   3   2  10    1.78    0.65
   3   2  10    2.26    0.53
  -4  -2 -10   33.56    2.12
  -4  -2 -10   35.14    1.35
   4   2  10   37.96    1.33
   4   2  10   35.46    1.79
  -5  -2 -10    0.57    0.71
   5   2  10    0.74    0.92
   6   2  10    0.59    1.15
  -5   3  10   -0.72    0.92
  -5   3  10    1.11    1.12
  -5   3  10   -0.90    0.99
  -4   3  10    4.16    0.72
  -4   3  10    5.50    0.91
  -3   3  10    5.57    0.75
  -3   3  10    7.06    1.14
  -2   3  10   18.97    1.12
  -2   3  10   14.57    1.27
  -1   3  10   28.70    1.90
   0  -3 -10    9.77    0.98
   0  -3 -10    8.69    0.98
   0   3  10   10.48    0.95
   0   3  10   10.79    1.20
  -1  -3 -10   20.78    1.19
  -1  -3 -10   21.55    1.17
   1   3  10   23.00    1.15
   1   3  10   21.75    1.35
  -2  -3 -10    5.99    0.92
  -2  -3 -10    7.52    0.93
   2   3  10    8.54    1.12
   2   3  10    6.55    0.89
  -3  -3 -10    0.69    0.86
  -3  -3 -10   -0.33    0.51
   3   3  10   -0.04    0.47
   3   3  10   -0.06    0.60
  -4  -3 -10    0.30    0.53
   4   3  10    0.77    0.46
   4   3  10    1.37    0.70
  -5  -3 -10   -0.25    0.63
   5   3  10   -0.16    0.82
   6   3  10   -0.79    1.14
  -4   4  10    5.28    1.02
  -4   4  10    4.36    1.13
  -4   4  10    2.94    0.91
  -3   4  10    1.22    0.79
  -3   4  10    0.15    0.56
  -2   4  10    1.34    0.70
  -2   4  10    1.87    0.50
  -1   4  10    3.08    0.69
  -1   4  10    3.23    0.57
   0  -4 -10    6.48    0.96
   0   4  10    6.54    1.18
   0   4  10    7.22    0.95
  -1  -4 -10    5.73    0.74
   1   4  10    6.27    0.96
   1   4  10    5.56    1.33
  -2  -4 -10   -0.24    0.46
   2   4  10    0.51    0.65
   2   4  10   -1.12    0.48
  -3  -4 -10    8.92    1.02
   3   4  10    9.16    0.97
   3   4  10    9.96    1.15
  -4  -4 -10    9.39    1.03
   4   4  10    7.68    1.22
   4   4  10    8.89    0.93
  -5  -4 -10   -1.22    0.73
   5   4  10    0.35    0.85
   6   4  10    0.53    1.06
  -4   5  10    1.05    1.17
  -4   5  10    1.92    1.27
  -3   5  10    2.39    0.67
  -3   5  10    1.10    0.95
  -3   5  10    2.39    0.81
  -2   5  10   15.97    1.06
  -2   5  10   14.37    1.53
  -1   5  10   30.22    1.35
  -1   5  10   28.11    1.63
   0  -5 -10   17.01    1.12
   0   5  10   15.82    1.34
   0   5  10   17.49    1.08
  -1  -5 -10   21.86    1.29
   1   5  10   20.62    1.25
   1   5  10   19.44    1.48
  -2  -5 -10    3.36    0.64
   2   5  10    3.93    0.83
   2   5  10    3.93    0.66
  -3  -5 -10    1.26    0.47
   3   5  10    0.93    0.58
   3   5  10    0.81    0.55
   4   5  10   -0.24    0.59
   4   5  10   -0.13    0.53
   4   5  10   -0.09    0.61
  -5  -5 -10    4.69    0.72
   5   5  10    6.59    1.08
  -6  -5 -10    1.17    0.89
   6   5  10    2.92    1.26
  -3   6  10   -0.47    1.25
  -3   6  10    2.06    0.72
  -3   6  10    0.88    0.82
  -2   6  10    1.58    0.97
  -2   6  10    0.10    0.63
  -2   6  10   -0.42    0.56
  -1   6  10    9.57    1.48
  -1   6  10    9.23    1.12
  -1   6  10   10.44    0.96
   0  -6 -10    7.98    1.09
   0   6  10    6.45    0.97
   0   6  10    5.61    0.74
   0   6  10    4.85    0.73
  -1  -6 -10    7.46    0.97
   1   6  10    5.13    0.77
   1   6  10    5.39    0.89
   1   6  10    5.06    0.84
  -2  -6 -10    2.35    0.56
   2   6  10    3.00    0.76
   2   6  10    2.33    0.74
   2   6  10    3.14    0.70
  -3  -6 -10    6.11    0.80
   3   6  10    6.50    1.04
   3   6  10    7.65    0.93
   3   6  10    6.83    0.84
  -4  -6 -10    0.54    0.56
   4   6  10    0.54    0.72
   4   6  10    0.49    0.63
   4   6  10    0.06    0.69
  -5  -6 -10    0.29    0.64
   5   6  10    1.35    0.83
   5   6  10    0.49    0.62
   5   6  10    1.22    0.67
  -2   7  10   -0.65    1.38
  -2   7  10   -0.86    0.96
  -2   7  10    0.13    1.24
  -1   7  10    8.62    1.03
  -1   7  10    6.90    1.07
  -1   7  10    9.97    1.38
   0  -7 -10    2.14    0.76
   0   7  10    1.57    0.72
   0   7  10   -0.10    0.56
   0   7  10   -0.34    0.85
  -1  -7 -10    0.55    0.65
   1   7  10   -1.20    0.77
   1   7  10   -1.44    0.72
   1   7  10   -0.59    0.62
  -2  -7 -10    2.83    0.62
   2   7  10    1.31    0.81
   2   7  10    1.86    0.76
   2   7  10    1.99    0.87
  -3  -7 -10    8.66    0.95
   3   7  10    9.33    1.37
   3   7  10    8.79    1.10
   3   7  10    5.79    0.89
  -4  -7 -10    1.38    0.65
   4   7  10   -0.28    0.84
   4   7  10   -0.61    0.70
   4   7  10   -0.21    0.94
  -5  -7 -10    1.35    0.72
   5   7  10   -0.85    0.78
   5   7  10   -0.06    0.76
   5   7  10    0.31    0.84
   0  -8 -10    4.99    1.12
   0   8  10    1.93    0.78
   0   8  10    3.07    0.89
   0   8  10    1.59    1.25
   1   8  10   -1.08    1.05
   1   8  10    1.14    0.82
   1   8  10    2.18    1.02
  -2  -8 -10    3.66    0.78
   2   8  10    0.81    0.84
   2   8  10    2.40    1.07
   2   8  10    0.21    0.97
  -3  -8 -10    3.18    0.76
   3   8  10    4.42    1.65
   3   8  10    2.68    0.96
   3   8  10    3.04    1.18
  -4  -8 -10    0.43    1.23
   4   8  10   -0.61    1.17
   4   8  10   -2.42    1.31
   4   8  10    0.88    0.95
   3   7 -11   -0.27    0.90
  -3  -7  11    0.34    0.75
  -3  -7  11    0.62    1.01
   2   7 -11    4.47    0.97
  -2  -7  11    4.45    0.95
   1   7 -11   -1.50    0.70
  -1  -7  11   -0.25    0.58
   0  -7  11    0.41    0.67
   4   6 -11    1.16    1.08
  -4  -6  11   -0.28    0.74
   3   6 -11    3.62    0.95
  -3  -6  11    5.45    1.04
  -3  -6  11    3.12    0.73
   2   6 -11    6.65    0.97
  -2  -6  11    4.76    0.62
  -2  -6  11    6.12    0.90
   1   6 -11   -0.18    0.59
  -1  -6  11   -0.52    0.51
   0   6 -11    6.01    0.86
   0  -6  11    6.95    0.96
  -1   6 -11    2.03    0.72
   1  -6  11    2.68    0.69
  -2   6 -11   -0.55    0.95
   2  -6  11    0.41    0.76
   5   5 -11    1.77    1.23
  -5  -5  11    1.00    0.94
  -5  -5  11    0.62    1.04
   4   5 -11    1.98    0.91
  -4  -5  11    1.35    0.71
  -4  -5  11    1.22    0.91
   3   5 -11   23.49    1.63
  -3  -5  11   29.38    1.74
  -3  -5  11   28.42    1.72
   2   5 -11    3.62    0.73
  -2  -5  11    3.73    0.79
   1   5 -11   21.38    1.29
  -1  -5  11   21.90    1.16
   0   5 -11   -0.65    0.54
   0  -5  11   -0.19    0.48
  -1   5 -11    5.66    0.84
   1  -5  11    5.09    0.63
  -2   5 -11    0.72    0.79
   2  -5  11    1.44    0.72
  -3   5 -11    9.68    1.30
   3  -5  11   12.60    1.73
   5   4 -11    0.65    1.06
  -5  -4  11    0.24    0.83
  -5  -4  11   -0.14    0.84
   4   4 -11    0.77    0.83
  -4  -4  11    1.36    0.81
  -4  -4  11    1.21    0.64
   3   4 -11    5.19    0.81
  -3  -4  11    4.88    0.88
  -3  -4  11    4.02    0.65
   2   4 -11    4.67    0.75
  -2  -4  11    4.94    0.77
  -2  -4  11    4.66    0.64
   1   4 -11    0.36    0.54
  -1  -4  11    1.06    0.54
  -1  -4  11    1.03    0.46
   0   4 -11   20.30    1.23
   0  -4  11   19.26    1.09
  -1   4 -11    0.80    0.55
   1  -4  11    0.39    0.47
  -2   4 -11    0.20    0.67
   2  -4  11   -0.01    0.57
  -3   4 -11    0.84    0.89
  -4   4 -11   -0.06    1.14
   4  -4  11    0.75    1.06
   5   3 -11   -0.20    0.95
  -5  -3  11    0.22    0.74
  -5  -3  11   -0.23    1.08
   4   3 -11    7.00    0.92
  -4  -3  11    6.25    0.93
  -4  -3  11    7.62    1.03
   3   3 -11   -0.31    0.57
  -3  -3  11   -0.19    0.61
  -3  -3  11   -0.40    0.46
   2   3 -11   25.70    1.37
  -2  -3  11   27.29    1.40
  -2  -3  11   22.43    1.23
   1   3 -11    0.73    0.57
  -1  -3  11    1.16    0.54
  -1  -3  11    1.02    0.47
  -1  -3  11    0.08    0.56
   0   3 -11    1.58    0.56
   0  -3  11    1.91    0.57
   0  -3  11    2.02    0.52
   0  -3  11    1.70    0.50
  -1   3 -11    1.24    0.56
   1  -3  11    1.16    0.47
  -2   3 -11    2.26    0.64
   2  -3  11    1.90    0.59
  -3   3 -11   -0.03    0.72
   3  -3  11    0.20    0.66
  -4   3 -11    0.84    0.96
   4  -3  11    2.22    0.87
   5   2 -11    0.97    0.99
  -5  -2  11    1.67    0.62
  -5  -2  11    0.75    0.79
   4   2 -11    0.76    0.70
  -4  -2  11    0.07    0.61
   3   2 -11    7.28    0.79
  -3  -2  11    8.29    1.08
  -3  -2  11    6.37    0.91
   2   2 -11    8.70    1.04
  -2  -2  11    8.32    0.88
  -2  -2  11    8.33    1.08
  -1  -2  11   35.82    2.05
  -1  -2  11   43.14    1.67
  -1  -2  11   44.88    1.61
   0   2 -11   12.28    1.06
   0  -2  11   11.14    1.12
   0  -2  11    9.70    1.15
  -1   2 -11    3.14    0.61
   1  -2  11    3.67    0.62
   1  -2  11    4.38    0.61
  -2   2 -11   13.52    1.22
   2  -2  11   13.73    1.36
  -3   2 -11    6.06    1.57
   3  -2  11    4.72    1.18
  -4   2 -11    6.48    1.03
   4  -2  11    6.34    0.94
  -5   2 -11   -0.01    1.02
   5  -2  11   -0.01    0.89
   5   1 -11    4.36    1.07
  -5  -1  11    4.12    0.97
  -4  -1  11   -0.25    0.60
  -4  -1  11    0.19    0.54
   3   1 -11   18.31    1.23
  -3  -1  11   19.83    1.22
  -3  -1  11   18.24    1.14
   2   1 -11    1.12    0.81
  -2  -1  11    1.09    0.56
  -2  -1  11    1.41    0.60
   1   1 -11    9.53    1.02
  -1  -1  11    9.80    0.96
  -1  -1  11    8.72    1.09
   0   1 -11   36.43    1.48
   0  -1  11   36.28    1.55
   0  -1  11   37.06    1.45
  -1   1 -11    2.09    0.59
   1  -1  11    2.61    0.62
   1  -1  11    2.16    0.55
  -2   1 -11   15.12    1.03
  -2   1 -11   15.85    1.18
   2  -1  11   16.55    1.17
   2  -1  11   16.71    1.18
  -3   1 -11    7.73    1.04
  -3   1 -11    7.57    1.15
   3  -1  11    7.27    1.10
   3  -1  11    8.62    1.08
  -4   1 -11    8.45    1.17
  -4   1 -11    7.69    0.93
   4  -1  11    7.40    1.22
   4  -1  11    7.30    0.85
  -5   1 -11   -0.05    0.87
  -5   1 -11   -0.13    0.82
   5  -1  11    0.76    0.70
   5  -1  11   -0.03    0.86
   5   0 -11   -0.16    1.04
  -5   0  11    1.37    0.62
  -5   0  11    0.56    0.92
   4   0 -11    1.61    0.74
  -4   0  11    2.86    0.81
  -4   0  11    2.04    0.66
   3   0 -11    0.72    0.57
  -3   0  11    1.94    0.48
  -3   0  11    1.86    0.50
   2   0 -11    0.12    0.56
  -2   0  11   -0.07    0.54
  -2   0  11   -0.14    0.46
   1   0 -11    9.34    0.99
  -1   0  11    9.88    0.96
  -1   0  11    9.80    1.16
   0   0 -11   25.96    1.22
   0   0  11   25.87    1.22
   0   0  11   24.62    1.38
  -1   0 -11   48.31    1.71
  -1   0 -11   48.75    1.73
   1   0  11   50.94    1.80
   1   0  11   48.61    1.71
  -2   0 -11   16.85    1.14
  -2   0 -11   17.05    1.15
   2   0  11   18.47    1.21
   2   0  11   15.39    1.11
  -3   0 -11   -0.13    0.55
  -3   0 -11    0.42    0.58
   3   0  11    0.26    0.66
   3   0  11   -0.24    0.52
  -4   0 -11   41.90    1.76
  -4   0 -11   40.28    1.69
   4   0  11   42.89    1.87
   4   0  11   38.87    1.60
  -5   0 -11    1.00    0.86
  -5   0 -11    0.46    0.74
   5   0  11    0.54    0.93
   5   0  11    0.78    0.56
  -5   1  11    0.22    0.94
  -5   1  11    0.04    0.67
   4  -1 -11    3.86    0.94
  -4   1  11    4.28    0.82
  -4   1  11    2.83    0.78
  -4   1  11    3.15    0.65
   3  -1 -11    1.15    0.59
  -3   1  11    2.58    0.71
  -3   1  11    0.83    0.54
   2  -1 -11   -0.26    0.48
  -2   1  11    0.05    0.60
  -2   1  11   -0.76    0.40
   1  -1 -11    0.07    0.47
  -1   1  11    0.39    0.55
  -1   1  11    0.68    0.48
   0  -1 -11   -0.13    0.44
   0   1  11    0.11    0.58
   0   1  11    0.37    0.43
  -1  -1 -11    7.61    0.93
  -1  -1 -11    6.54    0.92
   1   1  11    8.53    1.12
   1   1  11    8.14    0.88
  -2  -1 -11   31.18    1.38
  -2  -1 -11   32.32    1.47
   2   1  11   32.15    1.38
   2   1  11   32.63    1.52
  -3  -1 -11   -0.40    0.55
  -3  -1 -11   -0.08    0.56
   3   1  11   -0.25    0.53
   3   1  11   -0.02    0.68
  -4  -1 -11    4.57    0.81
  -4  -1 -11    5.28    0.71
   4   1  11    4.19    0.90
   4   1  11    4.46    0.64
  -5  -1 -11    3.27    0.86
  -5  -1 -11    2.67    0.69
   5   1  11    2.58    0.58
   5   1  11    3.45    1.05
  -6  -1 -11    0.31    1.11
   6   1  11    0.65    1.27
  -5   2  11    0.26    0.96
  -5   2  11   -0.23    0.79
  -4   2  11    8.36    1.29
  -4   2  11    5.16    0.74
  -4   2  11    6.55    0.92
   3  -2 -11    1.13    0.61
  -3   2  11    1.29    0.53
   2  -2 -11    1.94    0.64
  -2   2  11    3.51    0.58
  -2   2  11    2.45    0.78
  -1   2  11    0.24    0.58
  -1   2  11   -0.17    0.62
   0  -2 -11   12.91    1.02
   0   2  11   14.41    1.26
   0   2  11   13.89    1.01
  -1  -2 -11   23.15    1.25
  -1  -2 -11   25.02    1.24
   1   2  11   24.68    1.41
   1   2  11   23.96    1.22
  -2  -2 -11    0.45    0.53
  -2  -2 -11    1.27    0.59
   2   2  11    0.45    0.62
   2   2  11    0.87    0.54
  -3  -2 -11    0.42    0.54
  -3  -2 -11    0.19    0.63
   3   2  11    0.67    0.67
   3   2  11    0.38    0.52
  -4  -2 -11    1.46    0.59
  -4  -2 -11    0.78    0.63
   4   2  11    1.02    0.54
   4   2  11    1.41    0.81
  -5  -2 -11    1.25    0.77
   5   2  11    2.34    0.99
  -6  -2 -11   -0.93    1.09
   6   2  11    1.52    1.29
  -4   3  11    1.08    0.79
  -4   3  11    2.07    0.84
  -3   3  11    4.98    0.89
  -3   3  11    1.99    1.02
   2  -3 -11    5.45    0.74
  -2   3  11    4.33    0.58
  -2   3  11    5.19    0.87
   1  -3 -11    1.59    0.61
  -1   3  11    1.92    0.78
  -1   3  11    1.65    0.50
   0  -3 -11    0.58    0.64
   0  -3 -11   -0.58    0.53
   0   3  11   -0.33    0.74
  -1  -3 -11    1.26    0.71
  -1  -3 -11    0.03    0.53
   1   3  11    1.29    0.72
   1   3  11    0.99    0.51
  -2  -3 -11   -0.59    0.55
   2   3  11   -0.14    0.67
   2   3  11   -1.12    0.53
  -3  -3 -11    4.59    0.69
  -3  -3 -11    2.74    0.65
   3   3  11    3.88    0.80
   3   3  11    4.39    0.65
  -4  -3 -11    4.00    0.76
   4   3  11    3.67    0.61
   4   3  11    4.04    0.92
  -5  -3 -11   -0.76    0.71
   5   3  11    0.10    0.89
  -6  -3 -11   -0.91    0.94
   6   3  11    0.98    1.24
  -4   4  11    2.51    1.12
  -4   4  11    2.94    0.87
  -3   4  11    0.17    0.73
  -2   4  11    0.46    0.74
  -2   4  11   -0.74    0.86
  -1   4  11   -0.03    0.62
  -1   4  11   -0.39    0.44
   0  -4 -11    8.57    1.07
   0   4  11    6.68    0.89
   0   4  11    9.77    0.98
  -1  -4 -11  140.57    3.91
   1   4  11  139.15    4.25
   1   4  11  140.13    4.02
  -2  -4 -11   21.80    1.29
   2   4  11   23.19    1.49
   2   4  11   22.72    1.32
  -3  -4 -11   10.08    1.06
   3   4  11   12.20    1.25
   3   4  11   11.14    1.08
  -4  -4 -11    0.13    0.56
   4   4  11    0.94    0.59
   4   4  11    0.65    0.81
  -5  -4 -11   -0.42    0.66
   5   4  11    0.03    0.92
  -6  -4 -11   -1.94    0.89
   6   4  11    0.55    1.33
  -3   5  11    0.46    0.99
  -3   5  11    1.25    0.69
  -2   5  11    0.00    0.80
  -2   5  11    0.72    0.56
  -1   5  11   12.15    1.63
  -1   5  11   14.85    1.42
   0  -5 -11    0.50    0.49
   0   5  11   -0.38    0.64
   0   5  11    1.31    0.47
  -1  -5 -11    7.61    1.01
   1   5  11    6.18    0.81
   1   5  11    5.40    0.89
  -2  -5 -11    1.87    0.51
   2   5  11    1.14    0.65
  -3  -5 -11    4.17    0.66
   3   5  11    3.78    0.69
   3   5  11    4.49    0.83
  -4  -5 -11   -0.47    0.51
   4   5  11    0.34    0.81
   4   5  11   -0.20    0.69
   4   5  11   -0.20    0.62
  -5  -5 -11    0.59    0.65
   5   5  11   -0.61    0.78
  -2   6  11    3.10    1.18
  -2   6  11    0.69    0.74
  -2   6  11    1.49    0.70
  -1   6  11    1.53    0.58
  -1   6  11   -0.12    0.78
  -1   6  11    0.02    0.64
   0  -6 -11    2.60    0.63
   0   6  11    0.94    0.54
   0   6  11    2.15    0.84
  -1  -6 -11   10.63    1.06
   1   6  11    9.87    1.19
  -2  -6 -11    2.74    0.64
   2   6  11    2.34    0.74
   2   6  11    1.07    0.77
   2   6  11    0.74    0.78
  -3  -6 -11    0.77    0.54
   3   6  11   -0.28    0.70
   3   6  11    0.06    0.75
  -4  -6 -11    1.09    0.58
   4   6  11   -0.15    0.68
   4   6  11   -0.67    0.75
   4   6  11   -0.42    0.81
  -5  -6 -11    2.19    0.71
   5   6  11    2.03    0.74
   5   6  11    0.91    0.85
   5   6  11    1.30    0.74
  -1   7  11   -1.27    0.72
  -1   7  11    0.10    1.06
  -1   7  11    1.23    0.65
   0  -7 -11    1.30    0.77
   0   7  11    1.14    0.71
   0   7  11   -0.41    0.95
   0   7  11    0.81    0.63
  -1  -7 -11    2.27    0.70
   1   7  11    0.41    0.86
   1   7  11    2.68    0.78
   1   7  11    0.12    0.84
  -2  -7 -11    2.32    0.64
   2   7  11   -0.37    0.77
   2   7  11    0.15    0.93
   2   7  11    0.85    0.83
  -3  -7 -11    8.82    1.13
   3   7  11    7.74    1.19
   3   7  11    7.97    1.05
  -4  -7 -11    0.50    0.69
   4   7  11   -0.45    0.80
   4   7  11    1.02    1.02
   4   7  11   -0.86    0.77
   0  -8 -11    3.58    1.04
   0   8  11    0.63    0.82
   0   8  11    1.78    1.03
   0   8  11   -2.59    1.30
  -1  -8 -11    2.66    0.87
   1   8  11   -0.96    1.04
   1   8  11    0.90    0.83
   1   8  11    0.02    1.00
   2   8  11    3.77    1.03
   2   8  11    3.29    1.19
  -3  -8 -11    1.92    0.82
   3   8  11    0.25    0.99
   3   8  11   -1.64    0.94
   3   8  11    0.68    1.24
   2   7 -12    1.65    0.90
  -2  -7  12    0.10    0.97
   1   7 -12   -1.18    1.05
  -1  -7  12    0.27    0.77
   4   6 -12    3.62    1.20
  -4  -6  12    2.59    0.90
  -4  -6  12    2.86    1.23
  -3  -6  12   -0.54    0.68
  -3  -6  12   -0.20    0.97
   2   6 -12   -0.64    0.72
  -2  -6  12   -0.99    0.56
  -2  -6  12    0.53    0.79
   1   6 -12   -1.08    0.62
  -1  -6  12   -1.08    0.58
   0   6 -12    5.58    0.84
   0  -6  12    5.99    0.69
  -1   6 -12    3.94    0.97
   1  -6  12    2.35    0.64
   4   5 -12    1.85    0.95
  -4  -5  12    0.05    1.03
  -4  -5  12    1.33    0.73
   3   5 -12   12.83    1.49
  -3  -5  12   17.23    1.67
  -3  -5  12   15.47    1.21
  -2  -5  12    2.82    0.53
  -2  -5  12    1.94    0.78
   1   5 -12   -0.31    0.56
  -1  -5  12    0.09    0.59
  -1  -5  12   -0.73    0.47
  -1  -5  12    0.43    0.67
   0   5 -12    2.82    0.69
   0  -5  12    3.05    0.55
  -1   5 -12    0.79    0.71
   1  -5  12    1.15    0.55
  -2   5 -12    0.87    0.91
   2  -5  12    0.72    0.81
   5   4 -12    0.39    1.14
  -5  -4  12   -1.25    0.88
  -5  -4  12    0.43    0.90
   4   4 -12   -1.27    0.89
  -4  -4  12    0.45    0.65
  -4  -4  12   -0.32    1.07
   3   4 -12    0.15    0.62
  -3  -4  12    0.07    0.68
  -3  -4  12   -0.26    0.74
   2   4 -12   14.34    1.20
  -2  -4  12   15.01    1.34
  -2  -4  12   16.28    1.13
   1   4 -12    7.09    0.89
  -1  -4  12    7.58    1.17
  -1  -4  12    7.32    0.80
  -1  -4  12    8.16    0.84
   0   4 -12    1.35    0.56
   0  -4  12    1.35    0.43
  -1   4 -12   22.34    1.42
   1  -4  12   25.20    1.64
  -2   4 -12   -0.96    0.70
   2  -4  12   -0.49    0.66
  -3   4 -12    3.82    1.02
   3  -4  12    2.90    0.99
   5   3 -12   -0.06    1.07
  -5  -3  12   -0.27    0.89
  -5  -3  12   -0.22    0.89
   4   3 -12    1.27    0.82
  -4  -3  12   -1.02    1.42
  -4  -3  12    2.04    1.09
   3   3 -12   -0.70    0.61
  -3  -3  12    0.48    0.64
  -3  -3  12   -0.70    0.46
   2   3 -12    1.06    0.56
  -2  -3  12    0.97    0.64
  -2  -3  12   -0.80    0.46
   1   3 -12   49.36    1.93
  -1  -3  12   50.22    1.82
  -1  -3  12   51.23    1.83
  -1  -3  12   50.59    1.92
   0   3 -12   18.93    1.26
   0  -3  12   19.85    1.12
   0  -3  12   20.96    1.30
   0  -3  12   21.15    1.15
  -1   3 -12   10.26    1.07
   1  -3  12   11.33    1.02
  -2   3 -12   37.76    1.78
   2  -3  12   40.56    1.72
  -3   3 -12    2.38    0.91
   3  -3  12    2.56    0.85
  -4   3 -12    4.35    1.13
   4  -3  12    5.83    1.07
   5   2 -12   -0.92    1.07
  -5  -2  12    1.08    0.82
  -5  -2  12   -0.21    0.81
   4   2 -12    3.00    0.84
  -4  -2  12    5.80    0.90
  -4  -2  12    4.00    0.83
   3   2 -12   20.20    1.31
  -3  -2  12   18.80    1.16
  -3  -2  12   19.60    1.34
   2   2 -12   11.51    1.11
  -2  -2  12    9.91    0.88
  -2  -2  12    8.80    1.19
   1   2 -12   10.71    1.07
  -1  -2  12    9.06    1.04
  -1  -2  12    8.86    1.20
  -1  -2  12    7.30    0.95
   0   2 -12    2.49    0.60
   0  -2  12    0.96    0.47
   0  -2  12    1.99    0.68
  -1   2 -12    0.08    0.53
   1  -2  12    0.13    0.48
   1  -2  12    1.13    0.61
  -2   2 -12   22.02    1.41
   2  -2  12   23.67    1.38
   2  -2  12   23.31    1.23
  -3   2 -12   -0.10    0.74
   3  -2  12   -0.52    0.65
  -4   2 -12   -0.74    0.89
   4  -2  12   -0.03    0.81
   5   1 -12    2.15    1.08
  -5  -1  12    2.48    0.71
  -5  -1  12    1.31    0.88
   4   1 -12    1.00    0.80
  -4  -1  12    1.63    0.74
  -4  -1  12    2.63    0.65
   3   1 -12    1.72    0.59
  -3  -1  12    2.02    0.55
  -3  -1  12    2.58    0.65
   2   1 -12    3.92    0.65
  -2  -1  12    6.98    1.31
  -2  -1  12    6.45    0.86
   1   1 -12   19.81    1.23
  -1  -1  12   19.58    1.39
  -1  -1  12   19.02    1.14
   0  -1  12    0.82    0.55
   0  -1  12    0.25    0.64
  -1   1 -12    2.32    0.58
   1  -1  12    3.01    0.76
   1  -1  12    3.39    0.72
  -2   1 -12   11.69    1.17
   2  -1  12   12.38    1.19
   2  -1  12   11.20    1.16
  -3   1 -12    1.54    0.69
  -3   1 -12    1.64    0.66
   3  -1  12    1.13    0.69
   3  -1  12    0.96    0.65
  -4   1 -12    2.22    0.76
  -4   1 -12    2.64    0.85
   4  -1  12    0.38    0.75
   4  -1  12    2.18    0.81
  -5   1 -12    5.62    1.02
  -5   1 -12    6.27    1.10
   5  -1  12    7.00    0.97
   5  -1  12    6.02    1.05
   5   0 -12   -2.32    1.03
  -5   0  12    1.18    0.87
  -5   0  12   -0.09    0.70
   4   0 -12    3.92    0.85
  -4   0  12    3.55    1.33
  -4   0  12    2.74    0.61
   3   0 -12   11.60    1.15
  -3   0  12   11.66    1.01
  -3   0  12   10.98    1.04
  -3   0  12   14.53    1.30
   2   0 -12    2.16    0.60
  -2   0  12    2.19    0.71
  -2   0  12    2.52    0.54
   1   0 -12    6.21    0.74
  -1   0  12    8.37    1.17
  -1   0  12    8.09    0.91
   0   0 -12    0.43    0.46
   0   0  12   -0.02    0.51
   0   0  12    0.41    0.68
  -1   0 -12    0.04    0.51
   1   0  12    0.23    0.63
   1   0  12    0.15    0.49
  -2   0 -12    0.60    0.56
  -2   0 -12   -0.10    0.55
   2   0  12    0.43    0.57
   2   0  12    0.93    0.67
  -3   0 -12    6.20    0.82
  -3   0 -12    5.35    0.81
   3   0  12    5.66    0.76
   3   0  12    5.02    0.88
  -4   0 -12   10.92    1.35
  -4   0 -12    9.40    1.33
   4   0  12   13.17    1.53
   4   0  12   10.12    1.21
  -5   0 -12    2.25    0.86
  -5   0 -12    0.91    0.98
   5   0  12    1.27    1.05
   5   0  12    0.76    0.73
  -5   1  12    1.03    0.75
  -5   1  12    2.55    0.89
   4  -1 -12   -0.14    0.84
  -4   1  12    1.44    0.77
  -4   1  12    0.30    0.61
  -4   1  12    0.53    0.73
   3  -1 -12    3.53    0.76
  -3   1  12    3.88    0.74
  -3   1  12    2.06    0.61
   2  -1 -12   12.18    1.07
  -2   1  12    9.59    0.95
  -2   1  12   11.13    1.24
   1  -1 -12   25.61    1.34
  -1   1  12   23.03    1.70
  -1   1  12   27.09    1.31
   0  -1 -12    4.21    0.61
   0   1  12    4.06    0.65
   0   1  12    5.15    0.86
  -1  -1 -12    5.99    0.93
  -1  -1 -12    6.29    0.78
   1   1  12    6.92    0.93
   1   1  12    7.28    0.86
  -2  -1 -12   13.85    1.19
  -2  -1 -12   12.33    1.14
   2   1  12   13.85    1.11
   2   1  12   12.48    1.30
  -3  -1 -12    1.09    0.63
  -3  -1 -12    1.37    0.64
   3   1  12    1.02    0.59
   3   1  12    0.72    0.78
  -4  -1 -12    0.16    0.73
  -4  -1 -12    0.39    0.67
   4   1  12   -0.53    0.80
   4   1  12    0.43    0.62
  -5  -1 -12    2.98    0.99
  -5  -1 -12    2.58    0.78
   5   1  12    2.37    0.64
   5   1  12    3.43    1.15
  -4   2  12    0.01    0.69
  -4   2  12    0.78    0.73
   3  -2 -12   59.05    2.16
  -3   2  12   54.35    2.26
   2  -2 -12   -0.41    0.54
  -2   2  12    1.19    0.64
  -2   2  12   -0.72    0.43
   1  -2 -12   11.39    1.02
  -1   2  12    9.27    1.26
  -1   2  12    9.35    0.94
   0   2  12    5.00    0.87
   0   2  12    5.36    0.96
  -1  -2 -12   -0.02    0.49
  -1  -2 -12   -0.20    0.52
   1   2  12   -0.28    0.49
   1   2  12    0.65    0.63
  -2  -2 -12    0.10    0.61
  -2  -2 -12    0.26    0.59
   2   2  12    0.64    0.56
   2   2  12   -0.03    0.69
  -3  -2 -12    0.66    0.60
   3   2  12   -1.00    1.09
   3   2  12    0.38    0.55
  -4  -2 -12    4.64    0.74
  -4  -2 -12    4.38    0.87
   4   2  12    5.04    1.05
   4   2  12    4.78    0.72
  -5  -2 -12    1.40    0.71
  -5  -2 -12    2.43    0.96
   5   2  12    1.22    1.11
   5   2  12    0.78    0.56
  -4   3  12    7.77    1.10
  -4   3  12    9.84    1.29
  -4   3  12    5.96    1.00
  -3   3  12   -0.21    0.64
  -3   3  12   -0.44    0.51
   2  -3 -12   19.79    1.24
  -2   3  12   17.43    1.40
  -2   3  12   19.10    1.14
   1  -3 -12    0.93    0.58
  -1   3  12    1.34    0.50
  -1   3  12    1.66    0.75
   0  -3 -12   -0.02    0.56
   0   3  12    0.81    0.70
   0   3  12    0.96    0.49
  -1  -3 -12   10.01    1.14
  -1  -3 -12    9.30    0.99
   1   3  12    9.20    1.14
   1   3  12   10.38    1.31
  -2  -3 -12    3.77    0.65
  -2  -3 -12    3.17    0.69
   2   3  12    2.69    0.70
   2   3  12    2.49    0.74
  -3  -3 -12    2.53    0.72
  -3  -3 -12    3.02    0.69
   3   3  12    3.32    0.85
   3   3  12    2.67    0.65
  -4  -3 -12    3.05    0.74
  -4  -3 -12    2.29    0.73
   4   3  12    2.73    0.67
   4   3  12    2.63    0.91
  -5  -3 -12    1.77    1.13
   5   3  12    3.02    1.21
  -4   4  12    1.96    1.20
  -3   4  12    3.49    0.78
  -3   4  12    3.55    0.69
  -2   4  12   13.13    1.46
  -2   4  12   13.45    1.10
  -1   4  12    0.94    0.71
  -1   4  12    0.54    0.47
   0  -4 -12    0.45    0.50
   0   4  12   -0.51    0.46
   0   4  12    0.03    0.70
  -1  -4 -12    3.46    0.57
  -1  -4 -12    3.46    0.68
   1   4  12    3.69    0.84
   1   4  12    2.75    0.63
  -2  -4 -12    1.17    0.55
   2   4  12    0.11    0.58
   2   4  12    0.01    0.64
  -3  -4 -12    2.46    0.58
   3   4  12    1.61    0.76
   3   4  12    1.10    0.66
   4   4  12    4.32    0.73
   4   4  12    3.68    1.01
  -5  -4 -12    0.01    0.81
   5   4  12   -1.07    0.98
   5   4  12    0.00    0.61
  -3   5  12    4.04    1.13
  -3   5  12    4.19    0.79
  -2   5  12    2.34    0.84
  -2   5  12    1.75    0.63
  -1   5  12    0.95    0.77
  -1   5  12    0.90    0.52
   0  -5 -12    3.86    1.21
   0   5  12    3.20    0.59
   0   5  12    2.94    0.76
  -1  -5 -12   11.35    1.15
   1   5  12    8.68    1.33
   1   5  12   10.17    1.21
  -2  -5 -12    0.88    0.58
   2   5  12   -0.80    0.59
   2   5  12   -0.78    0.63
  -3  -5 -12    1.50    0.56
   3   5  12    0.13    0.67
   3   5  12   -0.02    0.68
  -4  -5 -12    1.20    0.65
   4   5  12    1.55    0.92
   4   5  12    1.92    0.72
  -5  -5 -12   -0.45    0.74
   5   5  12   -0.07    0.93
   5   5  12    0.40    0.68
  -2   6  12    2.07    0.72
  -2   6  12   -0.68    0.98
  -2   6  12   -1.45    0.76
  -1   6  12   -0.21    0.62
   0  -6 -12   -0.58    0.60
   0   6  12    0.02    0.81
   0   6  12    0.09    0.56
  -1  -6 -12    0.64    0.56
  -2  -6 -12    1.01    0.57
   2   6  12   -0.24    0.74
  -3  -6 -12    0.39    0.57
   3   6  12   -0.53    0.71
   3   6  12    0.90    0.81
   3   6  12   -0.40    0.88
  -4  -6 -12    0.56    0.64
   4   6  12   -0.92    0.84
   4   6  12   -0.65    0.90
   4   6  12   -0.63    0.75
  -5  -6 -12   -0.20    0.76
   5   6  12   -0.14    0.88
   5   6  12    0.45    0.84
   5   6  12    0.68    0.78
  -1   7  12    1.73    0.92
  -1   7  12    0.89    1.16
  -1   7  12    2.11    0.87
   0  -7 -12    1.57    0.81
   0   7  12    1.68    0.86
   0   7  12    0.35    0.93
   0   7  12    0.61    0.72
  -1  -7 -12    2.56    0.68
   1   7  12    1.05    0.97
   1   7  12   -0.37    0.77
  -2  -7 -12    2.95    0.75
   2   7  12    0.32    0.99
   2   7  12    1.10    0.88
   2   7  12    3.10    0.94
   3   7  12    3.65    0.86
   3   7  12    7.20    1.32
   3   7  12    5.65    1.05
  -4  -7 -12   -0.33    0.75
   4   7  12    0.26    1.08
   4   7  12    0.57    0.91
   4   7  12   -1.45    0.93
   2   8  12   -1.31    1.04
   2   8  12    0.45    1.21
   3   6 -13   -0.90    0.94
  -3  -6  13   -0.79    1.07
  -3  -6  13    0.17    0.70
   2   6 -13   -1.04    0.76
  -2  -6  13    0.25    0.64
  -2  -6  13    1.25    0.91
   1   6 -13    0.68    0.73
  -1  -6  13    1.04    0.66
   0   6 -13   -0.11    0.83
   0  -6  13   -1.10    0.64
  -1   6 -13    1.30    1.05
   1  -6  13    2.10    0.85
   4   5 -13    0.23    1.04
  -4  -5  13    0.58    0.81
  -4  -5  13    0.22    1.10
   3   5 -13    0.47    0.84
  -3  -5  13    0.16    0.61
  -3  -5  13    0.89    1.01
   2   5 -13    2.75    0.72
  -2  -5  13    4.18    0.57
  -2  -5  13    5.27    0.97
   1   5 -13    1.40    0.68
  -1  -5  13    2.40    0.74
  -1  -5  13    2.90    0.57
  -1  -5  13    3.31    0.88
   0   5 -13    5.44    0.85
   0  -5  13    4.76    0.65
  -1   5 -13    0.68    0.79
   1  -5  13   -0.40    0.62
  -2   5 -13   -1.39    0.99
   2  -5  13   -0.15    0.82
   4   4 -13    2.61    0.95
  -4  -4  13    1.49    1.03
  -4  -4  13    2.17    0.76
   3   4 -13    0.15    0.63
  -3  -4  13   -1.16    0.82
  -3  -4  13    0.41    0.55
   2   4 -13   10.37    1.22
  -2  -4  13   10.43    1.42
  -2  -4  13   10.83    0.94
   1   4 -13   23.96    1.46
  -1  -4  13   25.31    1.25
  -1  -4  13   22.23    1.57
  -1  -4  13   22.01    1.43
   0   4 -13    0.19    0.58
   0  -4  13   -0.34    0.50
   0  -4  13   -0.52    0.46
  -1   4 -13    4.04    0.81
   1  -4  13    4.88    0.71
  -2   4 -13    3.21    0.95
   2  -4  13    1.69    0.77
  -3   4 -13    0.79    1.07
   3  -4  13    0.67    0.98
   5   3 -13   -0.30    1.21
  -5  -3  13   -0.38    0.92
  -5  -3  13   -0.56    0.98
   4   3 -13   -0.75    0.86
  -4  -3  13   -1.28    0.69
  -4  -3  13   -0.37    0.81
   3   3 -13    0.50    0.64
  -3  -3  13    1.05    0.57
  -3  -3  13    1.84    0.77
   2   3 -13    3.59    0.66
  -2  -3  13    4.33    0.83
  -2  -3  13    3.70    1.38
  -2  -3  13    5.03    1.01
   1   3 -13    1.99    0.61
  -1  -3  13    1.93    0.53
  -1  -3  13    2.88    0.83
  -1  -3  13    1.57    0.67
   0   3 -13   -0.34    0.53
   0  -3  13    0.47    0.47
   0  -3  13   -0.08    0.58
   0  -3  13    0.08    0.71
  -1   3 -13    3.29    0.71
   1  -3  13    4.37    0.67
  -2   3 -13    3.85    0.86
   2  -3  13    3.19    0.76
  -3   3 -13   -0.12    0.92
  -4   3 -13    1.07    1.22
   4  -3  13   -0.48    1.08
   5   2 -13    2.57    1.17
  -5  -2  13    1.10    0.93
  -5  -2  13    0.57    0.88
   4   2 -13    0.74    0.83
  -4  -2  13    0.96    0.67
  -4  -2  13    2.26    0.80
   3   2 -13   -0.01    0.62
  -3  -2  13    1.46    0.67
   2   2 -13   34.70    1.56
  -2  -2  13   33.31    1.70
  -2  -2  13   28.67    2.06
  -2  -2  13   32.73    1.38
   1   2 -13    3.47    0.65
  -1  -2  13    3.51    0.60
  -1  -2  13    3.75    0.73
  -1  -2  13    5.22    0.89
   0   2 -13   39.57    1.66
   0  -2  13   38.53    1.58
   0  -2  13   39.93    1.79
  -1   2 -13    1.77    0.61
   1  -2  13    1.72    0.72
   1  -2  13    1.35    0.57
  -2   2 -13    0.13    0.66
   2  -2  13   -0.27    0.60
   2  -2  13   -0.52    0.66
  -3   2 -13    5.05    0.95
   3  -2  13    4.26    0.83
  -4   2 -13    0.68    1.01
   4  -2  13    0.58    0.92
   5   1 -13    0.09    1.17
  -5  -1  13    1.84    0.82
  -5  -1  13    0.42    0.98
   4   1 -13    0.42    0.85
  -4  -1  13    1.86    0.67
  -4  -1  13    1.96    0.74
   3   1 -13   -0.88    0.61
  -3  -1  13    1.84    0.81
  -3  -1  13   -0.39    0.55
  -3  -1  13   -0.20    0.60
   2   1 -13   12.25    1.10
  -2  -1  13   12.40    1.22
  -2  -1  13   12.36    1.37
  -2  -1  13   12.75    0.96
   1   1 -13   -0.13    0.49
  -1  -1  13    0.33    0.48
  -1  -1  13    0.94    0.69
   0   1 -13    0.02    0.51
   0  -1  13   -0.21    0.72
   0  -1  13    0.54    0.45
  -1   1 -13    9.94    1.07
   1  -1  13    9.16    1.06
   1  -1  13   10.69    1.27
  -2   1 -13    0.53    0.65
   2  -1  13    0.14    0.69
   2  -1  13   -0.97    0.59
  -3   1 -13    2.03    0.79
  -3   1 -13    2.00    0.69
   3  -1  13    1.15    0.73
   3  -1  13    2.35    0.82
  -4   1 -13   -0.01    0.75
  -4   1 -13    0.82    0.89
   4  -1  13   -0.46    0.80
   4  -1  13   -0.70    0.85
  -5   1 -13    1.40    1.01
  -5   1 -13    1.31    1.06
   5  -1  13   -0.44    1.04
   5  -1  13    0.60    0.96
   5   0 -13    0.14    1.26
  -5   0  13    0.57    0.84
  -5   0  13   -0.02    0.99
   4   0 -13    1.03    0.83
  -4   0  13    0.13    0.68
  -4   0  13    1.35    0.74
  -4   0  13    0.06    0.67
   3   0 -13   -0.01    0.59
  -3   0  13    1.21    0.62
  -3   0  13    1.32    0.92
  -3   0  13    1.46    0.71
   2   0 -13    1.16    0.54
  -2   0  13    0.46    0.42
  -2   0  13    0.82    0.69
   1   0 -13    1.29    0.56
  -1   0  13    1.63    1.08
  -1   0  13    1.31    0.53
   0   0 -13    7.30    0.99
   0   0  13    6.63    0.94
   0   0  13    9.79    1.37
  -1   0 -13   10.13    1.13
   1   0  13   11.53    1.33
   1   0  13   10.82    1.01
  -2   0 -13    0.28    0.62
  -2   0 -13    0.69    0.75
   2   0  13    0.42    0.73
  -3   0 -13    9.63    1.28
  -3   0 -13    9.24    1.30
   3   0  13    9.40    1.06
   3   0  13   10.14    1.31
  -4   0 -13    0.06    0.84
  -4   0 -13    1.09    0.82
   4   0  13    0.21    0.75
   4   0  13   -0.01    0.93
  -5   0 -13    1.14    0.93
  -5   0 -13    0.45    1.55
   5   0  13   -0.10    0.86
   4  -1 -13    1.65    1.02
  -4   1  13    1.51    0.76
  -4   1  13    1.29    0.67
  -4   1  13    1.46    0.77
   3  -1 -13    2.63    0.71
  -3   1  13    2.86    0.71
  -3   1  13    3.25    0.75
   2  -1 -13    0.92    0.54
  -2   1  13   -0.38    0.45
  -2   1  13    1.25    0.73
   1  -1 -13    1.30    0.59
  -1   1  13    2.28    0.48
  -1   1  13    1.74    0.70
   0  -1 -13    0.10    0.50
   0   1  13    0.50    0.71
   0   1  13   -0.01    0.47
  -1  -1 -13    0.83    0.65
   1   1  13    1.46    0.77
   1   1  13    0.56    0.64
  -2  -1 -13    0.92    0.62
  -2  -1 -13   -0.34    0.61
   2   1  13    0.62    0.57
   2   1  13    0.11    0.72
  -3  -1 -13   12.65    1.37
  -3  -1 -13   10.49    1.28
   3   1  13    9.63    1.21
   3   1  13   10.49    1.55
  -4  -1 -13    7.10    0.94
  -4  -1 -13    7.17    1.03
   4   1  13    7.04    1.47
   4   1  13    8.40    1.28
  -5  -1 -13    1.40    1.03
  -5  -1 -13    1.69    0.87
   5   1  13    0.44    0.69
   5   1  13    1.52    1.26
   4  -2 -13    3.39    0.95
  -4   2  13    1.40    0.83
  -4   2  13    1.25    0.79
  -4   2  13    0.46    0.76
   3  -2 -13    3.43    0.79
  -3   2  13    3.66    0.59
   2  -2 -13    4.46    0.73
  -2   2  13    3.98    0.66
  -2   2  13    4.54    0.78
   1  -2 -13   -0.26    0.52
  -1   2  13    0.47    0.67
  -1   2  13   -0.83    0.42
   0  -2 -13    0.89    0.55
   0   2  13    0.90    0.72
   0   2  13    0.47    0.48
  -1  -2 -13   -0.34    0.62
  -1  -2 -13    0.58    0.57
   1   2  13   -0.09    0.90
   1   2  13   -0.43    0.51
  -2  -2 -13    7.62    1.19
  -2  -2 -13    7.16    0.86
   2   2  13    6.73    1.18
   2   2  13    7.71    1.06
  -3  -2 -13    7.69    1.20
  -3  -2 -13    9.37    1.26
   3   2  13    8.98    1.14
   3   2  13    6.10    0.96
  -4  -2 -13    1.95    0.75
  -4  -2 -13    3.23    0.81
   4   2  13    2.22    0.98
   4   2  13    1.78    0.73
  -5  -2 -13    1.55    1.01
  -5  -2 -13    0.98    0.80
   5   2  13    0.05    0.67
   5   2  13   -0.81    1.14
  -4   3  13    0.19    1.05
  -4   3  13   -1.84    0.80
  -4   3  13    0.50    0.87
  -3   3  13   -0.43    0.72
  -3   3  13   -0.89    0.57
   2  -3 -13   13.88    1.22
  -2   3  13   11.13    1.34
  -2   3  13   12.12    1.07
   1  -3 -13   12.63    1.13
  -1   3  13   13.35    1.39
  -1   3  13   15.19    1.06
   0  -3 -13    1.99    0.58
   0   3  13    1.84    0.57
   0   3  13    2.64    0.78
  -1  -3 -13    3.39    0.72
  -1  -3 -13    2.47    0.59
   1   3  13    2.77    0.77
   1   3  13    1.35    0.64
  -2  -3 -13    1.32    0.83
  -2  -3 -13    1.57    0.60
   2   3  13    0.35    0.73
  -3  -3 -13    0.56    0.72
  -3  -3 -13    0.64    0.66
   3   3  13    0.77    0.65
   3   3  13    1.45    0.91
  -4  -3 -13   -0.63    0.78
  -4  -3 -13   -0.37    0.72
   4   3  13    0.32    0.90
   4   3  13    0.17    0.65
  -5  -3 -13    2.60    1.02
   5   3  13    1.83    1.27
   5   3  13    2.53    0.70
  -3   4  13   -1.12    0.67
  -2   4  13    1.24    0.79
  -2   4  13    0.99    0.59
  -1   4  13    2.33    0.58
  -1   4  13    4.57    0.94
   0  -4 -13    5.84    0.77
   0   4  13    6.34    0.78
   0   4  13    4.59    0.80
  -1  -4 -13    6.88    0.94
  -1  -4 -13    8.75    1.14
   1   4  13    5.68    0.79
   1   4  13    6.07    0.94
  -2  -4 -13   25.71    1.41
  -2  -4 -13   26.74    1.57
   2   4  13   26.29    1.49
   2   4  13   23.49    1.64
  -3  -4 -13    1.83    0.69
   3   4  13    0.64    0.69
   3   4  13    0.18    0.76
  -4  -4 -13    0.24    0.68
   4   4  13    0.73    0.75
   4   4  13   -0.18    1.05
  -5  -4 -13    0.02    0.91
   5   4  13    1.16    1.24
   5   4  13    0.49    0.73
  -2   5  13    3.15    0.88
  -2   5  13    2.31    0.72
  -1   5  13    1.07    0.59
  -1   5  13   -0.53    0.84
   0   5  13    1.94    0.62
   0   5  13    0.53    0.70
   1   5  13    5.63    0.82
   1   5  13    6.10    0.90
  -2  -5 -13    1.32    0.58
   2   5  13   -1.24    0.74
   2   5  13   -0.04    0.72
  -3  -5 -13    3.80    0.68
   3   5  13    2.40    0.83
   3   5  13    1.51    0.78
  -4  -5 -13    0.49    0.69
   4   5  13   -0.31    0.97
   4   5  13    2.16    0.86
  -5  -5 -13   -0.39    0.84
   5   5  13   -1.13    1.04
   5   5  13    0.46    0.77
   5   5  13   -0.32    0.80
  -2   6  13    0.47    1.42
  -1   6  13   -0.35    0.69
  -1   6  13   -1.51    0.89
   0   6  13    1.21    0.85
   0   6  13    1.89    0.70
  -1  -6 -13    0.59    0.63
   1   6  13    1.57    0.74
   2   6  13   -0.08    0.79
   2   6  13    1.38    0.83
  -3  -6 -13    2.21    0.67
   3   6  13    1.57    0.76
   3   6  13    1.67    0.86
  -4  -6 -13    1.38    0.71
   4   6  13   -0.66    0.91
   4   6  13   -1.27    0.96
   4   6  13    1.04    1.12
   0   7  13    5.78    0.93
   0   7  13    2.82    1.04
   0   7  13    4.52    0.99
   1   7  13    7.61    1.21
   1   7  13    7.53    1.25
   1   7  13    8.67    1.16
  -2  -7 -13    1.43    0.74
   2   7  13    0.26    0.93
   2   7  13    0.94    1.16
   2   7  13   -1.25    0.91
   3   7  13    3.26    0.94
   3   7  13    5.62    1.35
  -2  -6  14    2.41    1.20
  -2  -6  14    1.93    1.05
   3   5 -14    2.49    0.86
  -3  -5  14    1.31    0.69
  -3  -5  14    2.46    1.11
   2   5 -14   -0.84    0.73
  -2  -5  14   -0.63    0.56
  -2  -5  14    0.68    1.07
  -2  -5  14    0.75    1.06
   1   5 -14   -0.40    0.69
  -1  -5  14    0.95    0.96
  -1  -5  14    0.65    0.57
  -1  -5  14    0.54    0.78
   0   5 -14    0.48    0.75
   0  -5  14   -0.21    0.60
  -1   5 -14    1.39    0.87
   1  -5  14    2.39    0.76
   4   4 -14    1.95    1.06
  -4  -4  14    0.70    0.74
  -4  -4  14   -0.47    1.07
   3   4 -14   -0.45    0.72
  -3  -4  14    0.19    0.56
  -3  -4  14   -0.02    0.99
   2   4 -14    0.00    0.64
  -2  -4  14    0.81    0.55
  -2  -4  14   -0.30    0.89
   1   4 -14    5.67    0.84
  -1  -4  14    6.39    0.91
  -1  -4  14    7.44    1.05
  -1  -4  14    4.76    0.60
   0   4 -14    3.63    0.80
   0  -4  14    3.22    0.87
   0  -4  14    2.63    0.59
  -1   4 -14   -0.19    0.78
   1  -4  14    0.11    0.63
  -2   4 -14    2.75    1.03
   2  -4  14    3.52    0.94
   4   3 -14    1.79    0.97
  -4  -3  14    1.50    1.04
  -4  -3  14    1.16    0.87
   3   3 -14    0.57    0.73
  -3  -3  14    1.79    0.88
  -3  -3  14    1.13    0.61
   2   3 -14    2.53    0.67
  -2  -3  14    3.09    0.86
  -2  -3  14    3.84    1.00
   1   3 -14    2.99    0.71
  -1  -3  14    3.15    0.80
  -1  -3  14    5.60    0.89
  -1  -3  14    4.40    0.95
   0   3 -14   20.87    1.37
   0  -3  14   16.60    1.11
   0  -3  14   16.78    1.35
   0  -3  14   16.96    1.60
  -1   3 -14   28.63    1.67
   1  -3  14   30.95    1.52
  -2   3 -14    0.41    0.85
   2  -3  14    0.23    0.74
  -3   3 -14    0.42    1.13
   3  -3  14    1.02    0.92
   4   2 -14    0.73    0.90
  -4  -2  14    1.78    0.93
  -4  -2  14    0.78    0.73
   3   2 -14    1.19    0.66
  -3  -2  14    1.47    0.52
  -3  -2  14    1.58    0.86
  -3  -2  14    4.27    1.00
   2   2 -14    0.41    0.52
  -2  -2  14    0.82    0.85
  -2  -2  14   -0.59    0.45
  -2  -2  14   -0.07    0.74
   1   2 -14    3.96    0.70
  -1  -2  14    4.92    0.85
  -1  -2  14    5.12    0.98
  -1  -2  14    4.31    0.86
   0   2 -14    7.18    1.02
   0  -2  14    4.53    0.94
  -1   2 -14   11.22    1.27
   1  -2  14    7.67    1.11
   1  -2  14    8.92    1.41
  -2   2 -14    0.70    0.75
   2  -2  14   -0.02    0.79
   2  -2  14    0.45    0.68
  -3   2 -14    5.53    1.08
   3  -2  14    4.95    0.97
  -4   2 -14    1.49    1.20
   4  -2  14   -0.02    1.29
   4   1 -14   11.08    1.34
  -4  -1  14   11.88    1.40
  -4  -1  14   11.26    1.40
   3   1 -14    0.59    0.64
  -3  -1  14    1.32    0.88
  -3  -1  14   -0.20    0.81
  -3  -1  14    0.08    0.55
   2   1 -14    2.28    0.57
  -2  -1  14    2.50    0.87
  -2  -1  14    1.92    0.77
   1   1 -14    2.88    0.61
  -1  -1  14    2.60    0.59
   0   1 -14    2.74    0.63
   0  -1  14    2.65    0.52
   0  -1  14    4.25    0.94
  -1   1 -14    0.64    0.61
   1  -1  14   -0.07    0.58
   1  -1  14    0.26    0.81
  -2   1 -14    3.72    0.81
   2  -1  14    4.47    0.91
   2  -1  14    3.42    0.77
  -3   1 -14    0.57    0.81
   3  -1  14    0.70    0.90
   3  -1  14    1.05    0.82
  -4   1 -14    0.57    0.97
  -4   1 -14    0.47    0.87
   4  -1  14   -0.51    0.92
   4  -1  14    0.65    0.96
   4   0 -14    1.27    0.93
  -4   0  14    3.28    0.86
  -4   0  14    0.81    0.76
  -4   0  14    1.37    0.79
   3   0 -14   -0.23    0.66
  -3   0  14    0.99    0.52
  -3   0  14    0.93    0.65
  -3   0  14    1.05    0.74
   2   0 -14    0.83    0.52
  -2   0  14    2.22    0.81
  -2   0  14   -0.21    0.76
   1   0 -14    0.87    0.52
  -1   0  14    1.74    0.76
  -1   0  14    1.70    0.52
   0   0 -14    3.10    0.66
   0   0  14    4.25    0.64
   0   0  14    3.80    0.89
  -1   0 -14    6.39    0.81
   1   0  14    6.69    0.98
   1   0  14    6.63    0.99
  -2   0 -14    1.22    0.70
  -2   0 -14    1.87    0.72
   2   0  14    1.38    0.84
   2   0  14    1.33    0.68
  -3   0 -14    7.44    0.97
  -3   0 -14    5.57    0.90
   3   0  14    6.36    0.92
   3   0  14    7.18    1.14
  -4   0 -14    1.12    0.89
  -4   0 -14    0.86    0.93
   4   0  14    0.65    0.84
   4   0  14   -0.35    1.07
   4  -1 -14    1.18    1.02
  -4   1  14   -1.18    0.70
  -4   1  14    0.25    0.77
  -4   1  14    2.13    0.85
   3  -1 -14    2.64    0.75
  -3   1  14    4.10    0.92
  -3   1  14    2.30    0.62
   2  -1 -14   12.69    1.17
  -2   1  14   13.03    1.11
  -2   1  14   14.80    1.43
   1  -1 -14    4.66    0.73
  -1   1  14    6.75    0.94
  -1   1  14    6.71    0.85
   0  -1 -14    0.40    0.55
   0   1  14    0.96    0.83
   0   1  14    1.16    0.50
  -1  -1 -14    0.28    0.57
   1   1  14   -0.47    0.56
  -2  -1 -14    9.08    1.47
  -2  -1 -14    9.10    1.27
   2   1  14    8.14    1.21
   2   1  14    8.80    1.19
  -3  -1 -14    8.67    1.73
  -3  -1 -14   13.18    1.99
   3   1  14   11.66    2.30
   3   1  14   11.38    1.67
  -4  -1 -14    2.80    0.96
  -4  -1 -14    1.35    0.86
   4   1  14    1.49    1.14
   4   1  14    2.25    0.89
  -5  -1 -14   -0.42    0.92
  -5  -1 -14   -0.13    1.07
   5   1  14   -0.83    0.87
   5   1  14   -0.64    1.38
   4  -2 -14    2.18    0.95
  -4   2  14   -1.11    1.03
  -4   2  14    0.53    1.02
   3  -2 -14   -1.50    0.73
  -3   2  14   -0.05    0.60
  -3   2  14    0.89    0.80
   2  -2 -14    8.90    1.16
  -2   2  14    5.58    0.69
   1  -2 -14    1.75    0.59
  -1   2  14    2.98    0.84
  -1   2  14    1.70    0.52
   0  -2 -14    0.25    0.51
   0   2  14    0.40    0.80
   0   2  14   -0.53    0.47
  -1  -2 -14    0.39    0.60
  -1  -2 -14    0.24    0.60
   1   2  14   -0.10    0.73
   1   2  14    0.22    0.59
  -2  -2 -14   12.60    1.36
  -2  -2 -14   15.64    1.38
   2   2  14   13.27    1.29
   2   2  14   11.26    1.53
  -3  -2 -14    1.05    0.78
  -3  -2 -14    0.38    0.88
   3   2  14    0.00    0.91
  -4  -2 -14   13.59    1.62
  -4  -2 -14   11.00    1.51
   4   2  14   10.83    1.48
   4   2  14    9.17    1.30
  -5  -2 -14    0.28    1.50
  -5  -2 -14    0.61    0.96
   5   2  14    0.18    1.33
   5   2  14    1.27    0.82
  -3   3  14   -0.77    0.83
   2  -3 -14    1.86    0.68
  -2   3  14    1.09    0.70
  -2   3  14    0.11    0.62
   1  -3 -14   13.75    1.24
  -1   3  14   16.95    1.50
  -1   3  14   13.14    1.09
   0  -3 -14    3.27    0.69
   0   3  14    2.49    0.58
   0   3  14    3.08    0.82
  -1  -3 -14    3.73    0.77
  -1  -3 -14    3.73    0.66
   1   3  14    2.26    0.69
   1   3  14    2.46    0.82
  -2  -3 -14    9.12    1.18
  -2  -3 -14    6.15    0.90
   2   3  14    4.48    0.94
   2   3  14    5.99    0.85
  -3  -3 -14   14.54    1.39
   3   3  14   12.12    1.69
   3   3  14   10.92    1.74
  -4  -3 -14   18.90    1.67
  -4  -3 -14   18.79    2.03
   4   3  14   18.99    2.09
   4   3  14   20.20    1.52
  -5  -3 -14    0.59    1.06
   5   3  14    0.51    0.82
   5   3  14   -0.22    1.41
  -3   4  14    0.82    0.80
  -3   4  14   -0.88    1.22
  -2   4  14    0.72    0.85
  -2   4  14    1.12    0.66
  -1   4  14    0.01    0.54
  -1   4  14   -0.24    0.77
   0  -4 -14    1.51    0.63
   0   4  14   -0.21    0.78
   0   4  14    1.14    0.60
  -1  -4 -14    0.97    0.67
  -1  -4 -14    0.90    0.55
   1   4  14   -0.79    0.63
   1   4  14    0.21    0.71
  -2  -4 -14    1.28    0.78
  -2  -4 -14    1.17    0.78
   2   4  14   -0.73    0.71
  -3  -4 -14    0.65    0.68
   3   4  14   -0.58    0.94
   3   4  14   -0.33    0.77
  -4  -4 -14    1.29    0.79
   4   4  14   -0.97    1.07
   4   4  14   -0.15    0.81
  -5  -4 -14    0.32    1.05
   5   4  14    0.36    0.84
   5   4  14    0.62    1.32
  -2   5  14   -0.39    0.71
  -2   5  14    2.83    0.95
  -1   5  14   -0.16    0.83
  -1   5  14   -1.13    0.58
   0   5  14   -0.71    0.73
   0   5  14   -1.12    0.60
  -1  -5 -14    3.31    0.61
   1   5  14    2.87    0.81
   1   5  14    1.75    0.80
  -2  -5 -14    6.72    1.10
   2   5  14    3.59    0.87
   2   5  14    1.66    0.92
  -3  -5 -14    1.28    0.69
   3   5  14   -0.67    0.86
   3   5  14   -0.60    0.86
  -4  -5 -14    3.40    0.82
   4   5  14    1.82    1.14
  -1   6  14    3.77    0.86
   0   6  14    5.11    0.94
   0   6  14    3.43    0.86
  -1  -6 -14    2.17    0.70
  -2  -6 -14    2.68    0.69
   2   6  14    1.88    0.95
   2   6  14   -0.01    0.90
  -3  -6 -14   12.95    1.37
   3   6  14    9.57    1.38
   3   6  14   11.66    1.75
  -4  -6 -14    3.11    0.90
   4   6  14    0.80    1.11
   4   6  14    1.58    1.07
   4   6  14    1.48    1.19
   1   7  14    2.99    1.26
   1   7  14    2.60    1.06
   2   7  14    2.35    1.13
   2   7  14    3.83    1.37
   2   5 -15    1.93    0.96
  -2  -5  15    3.99    1.16
  -2  -5  15    4.46    1.38
   1   5 -15    2.55    0.93
  -1  -5  15    1.56    0.90
  -1  -5  15    0.13    0.61
  -1  -5  15    1.45    1.08
   0   5 -15   -1.33    0.89
   0  -5  15    1.05    0.70
   3   4 -15    0.87    0.83
  -3  -4  15    0.74    2.40
  -3  -4  15    1.05    0.69
   2   4 -15   11.38    1.29
  -2  -4  15    8.02    1.19
  -2  -4  15    8.08    1.29
  -2  -4  15    7.35    1.05
   1   4 -15    0.11    0.68
  -1  -4  15    0.05    0.51
  -1  -4  15    0.15    0.84
  -1  -4  15    0.93    1.03
   0   4 -15    4.73    0.82
   0  -4  15    3.27    0.67
   0  -4  15    4.90    1.01
  -1   4 -15    0.15    0.88
   1  -4  15    1.27    0.72
  -2   4 -15    0.05    1.11
   2  -4  15    0.67    0.96
   4   3 -15    2.26    1.10
  -4  -3  15    1.40    1.12
  -4  -3  15   -0.52    0.81
   3   3 -15    0.35    0.70
  -3  -3  15    1.15    1.08
  -3  -3  15    0.16    1.12
  -3  -3  15   -0.70    0.62
   2   3 -15    1.34    0.68
  -2  -3  15    1.84    1.05
  -2  -3  15    0.57    0.58
  -2  -3  15    1.91    0.95
   1   3 -15   28.89    1.56
  -1  -3  15   26.01    1.97
  -1  -3  15   25.24    1.70
  -1  -3  15   28.26    1.37
   0   3 -15    0.72    0.64
   0  -3  15    0.25    0.99
   0  -3  15    0.06    0.75
   0  -3  15    0.01    0.54
  -1   3 -15    1.88    0.80
   1  -3  15    1.39    0.71
   1  -3  15    1.66    0.84
  -2   3 -15    0.72    0.97
   2  -3  15    1.45    0.84
  -3   3 -15   -0.67    1.13
   3  -3  15   -1.56    1.07
   4   2 -15    1.56    1.00
  -4  -2  15    3.02    1.08
  -4  -2  15    1.12    0.79
   3   2 -15    0.16    0.67
  -3  -2  15    0.65    0.86
  -3  -2  15    0.02    0.99
   2   2 -15    3.30    0.68
  -2  -2  15    3.79    0.58
  -2  -2  15    3.63    1.02
  -2  -2  15    4.37    0.97
   1   2 -15   -0.46    0.56
  -1  -2  15    0.89    0.81
  -1  -2  15    0.17    0.49
   0   2 -15    0.98    0.63
   0  -2  15    1.08    0.97
   0  -2  15    1.45    0.57
  -1   2 -15    9.11    1.35
   1  -2  15    8.92    1.20
   1  -2  15    9.11    1.10
  -2   2 -15   -0.32    0.79
   2  -2  15   -0.01    0.90
   2  -2  15    0.46    0.70
  -3   2 -15    9.09    1.26
   3  -2  15    7.10    1.23
   4   1 -15    1.17    0.99
  -4  -1  15    0.67    0.87
  -4  -1  15    2.76    1.05
  -4  -1  15    0.64    0.82
   3   1 -15    4.98    0.80
  -3  -1  15    3.98    0.94
  -3  -1  15    3.79    1.13
  -3  -1  15    5.15    0.70
   2   1 -15    1.12    0.64
  -2  -1  15    1.01    0.92
  -2  -1  15    1.88    0.55
  -2  -1  15    2.63    0.81
   1   1 -15   11.59    1.12
  -1  -1  15   10.23    0.95
  -1  -1  15   10.77    1.65
   0   1 -15    0.83    0.56
   0  -1  15    1.30    0.95
  -1   1 -15   -0.17    0.69
   1  -1  15   -1.11    0.58
   1  -1  15    0.94    0.93
  -2   1 -15    7.22    1.00
   2  -1  15   10.14    1.39
   2  -1  15    8.44    1.12
  -3   1 -15    1.07    0.98
   3  -1  15    1.71    1.07
   3  -1  15    1.00    0.89
  -4   1 -15    6.00    1.31
  -4   1 -15    7.71    1.07
   4  -1  15    6.87    1.22
   4  -1  15    8.22    1.26
   4   0 -15    0.41    0.95
  -4   0  15   -0.82    0.80
  -4   0  15   -0.30    0.85
  -4   0  15    2.54    0.91
   3   0 -15    1.28    0.73
  -3   0  15    0.13    0.56
  -3   0  15    1.32    0.91
  -3   0  15    0.18    0.76
   2   0 -15    5.20    0.81
  -2   0  15    4.53    0.63
  -2   0  15    3.75    0.95
   1   0 -15   18.39    1.26
  -1   0  15   19.37    1.75
  -1   0  15   19.17    1.35
   0   0 -15   10.65    1.11
   0   0  15    9.43    0.96
   0   0  15   11.83    1.68
  -1   0 -15    0.06    0.65
   1   0  15    0.67    0.57
   1   0  15    1.17    0.96
  -2   0 -15   18.87    1.54
   2   0  15   17.17    1.53
   2   0  15   18.63    1.81
  -3   0 -15    9.03    1.48
  -3   0 -15   10.61    1.58
   3   0  15    7.99    1.09
   3   0  15    7.67    1.28
  -4   0 -15    0.44    0.99
   4   0  15    0.03    0.98
   4  -1 -15    2.24    1.16
  -4   1  15    1.28    0.90
  -4   1  15    0.65    1.31
   3  -1 -15   -0.11    0.74
  -3   1  15    1.45    0.86
  -3   1  15    0.01    0.60
   2  -1 -15   -0.07    0.63
  -2   1  15    0.92    0.74
  -2   1  15   -0.02    0.53
   1  -1 -15    1.64    0.62
  -1   1  15    2.79    0.92
  -1   1  15    2.04    0.56
   0  -1 -15    7.94    1.06
   0   1  15    7.90    0.95
   0   1  15    6.67    1.05
  -1  -1 -15    1.50    0.68
   1   1  15    1.27    0.61
   1   1  15    1.25    0.89
  -2  -1 -15    1.80    0.76
  -2  -1 -15    1.07    0.76
   2   1  15    1.19    0.95
   2   1  15    2.03    0.76
  -3  -1 -15    0.11    0.86
  -3  -1 -15   -0.57    0.86
   3   1  15   -1.30    0.79
   3   1  15   -0.90    1.07
  -4  -1 -15   15.04    1.87
  -4  -1 -15   16.45    1.91
   4   1  15   17.05    1.79
   4   1  15   18.96    2.36
   3  -2 -15   -0.85    0.74
  -3   2  15    1.21    0.81
  -3   2  15   -0.77    0.69
   2  -2 -15   11.58    1.29
  -2   2  15   10.18    1.41
  -2   2  15    9.86    1.07
   1  -2 -15   18.23    1.28
  -1   2  15   17.17    1.16
  -1   2  15   18.01    1.66
   0  -2 -15   30.83    1.58
   0   2  15   30.30    1.96
   0   2  15   30.47    1.75
  -1  -2 -15    6.27    0.87
   1   2  15    8.14    1.19
   1   2  15    7.59    1.14
  -2  -2 -15    6.25    0.93
  -2  -2 -15    4.36    0.90
   2   2  15    4.67    0.86
   2   2  15    4.05    1.04
  -3  -2 -15   10.15    1.57
  -3  -2 -15    8.15    1.06
   3   2  15    6.85    1.30
   3   2  15    7.07    1.00
  -4  -2 -15    0.18    1.11
  -4  -2 -15    2.95    1.08
   4   2  15   -0.04    0.90
   4   2  15    0.17    1.26
  -3   3  15    1.84    0.94
   2  -3 -15    5.47    0.92
  -2   3  15    4.84    1.05
   1  -3 -15    1.20    0.74
  -1   3  15    4.01    0.97
  -1   3  15   -0.15    0.54
   0  -3 -15   -1.33    0.59
   0   3  15    0.33    0.78
  -1  -3 -15    3.99    1.12
  -1  -3 -15    2.60    0.81
   1   3  15    1.90    0.72
   1   3  15    1.38    0.82
  -2  -3 -15   12.36    1.98
  -2  -3 -15   10.90    1.44
   2   3  15   10.57    1.41
   2   3  15    7.64    1.12
  -3  -3 -15    0.18    0.90
  -3  -3 -15    2.19    1.26
   3   3  15    1.27    1.05
   3   3  15    0.88    0.85
  -4  -3 -15    6.22    1.14
  -4  -3 -15    3.88    1.99
   4   3  15    5.43    1.45
   4   3  15    4.71    1.17
  -2   4  15    0.82    0.99
  -2   4  15    2.55    0.77
  -1   4  15   15.72    1.22
  -1   4  15   15.47    1.62
   0  -4 -15    4.34    0.81
   0   4  15    2.56    0.69
   0   4  15    2.97    0.91
  -1  -4 -15    1.97    0.64
  -1  -4 -15    2.26    0.84
   1   4  15    2.54    0.98
   1   4  15    1.18    0.86
  -2  -4 -15    5.87    1.01
  -2  -4 -15    5.15    0.79
   2   4  15    5.20    1.17
   2   4  15    5.66    0.96
  -3  -4 -15    1.04    0.81
  -3  -4 -15    0.62    0.92
   3   4  15   -0.36    1.04
   3   4  15   -0.44    0.85
  -4  -4 -15    2.25    0.99
   4   4  15   -0.73    1.19
   4   4  15    0.39    0.93
  -1   5  15    0.50    0.70
  -1   5  15    0.86    0.85
   0   5  15    0.07    0.76
   0   5  15    0.13    0.73
  -1  -5 -15   10.20    1.20
   1   5  15    8.31    1.20
   1   5  15    7.77    1.06
  -2  -5 -15    3.46    0.74
   2   5  15    2.49    0.94
   2   5  15    0.92    1.00
  -3  -5 -15    5.07    0.93
   3   5  15    2.33    1.02
   3   5  15    2.40    1.18
  -4  -5 -15    2.52    0.95
   4   5  15   -0.36    1.01
   4   5  15   -1.99    1.29
   0   6  15    0.86    1.42
   0   6  15   -0.14    0.82
  -1  -6 -15    2.07    0.80
   1   6  15    1.46    0.94
  -2  -6 -15    3.68    0.82
   2   6  15    3.76    1.12
  -3  -6 -15   -1.44    1.33
   3   6  15   -2.78    1.44
   3   6  15   -1.17    1.04
   2   4 -16    0.89    0.82
  -2  -4  16    2.76    0.63
  -2  -4  16    2.62    1.19
  -2  -4  16    4.25    1.37
  -1  -4  16    4.28    1.07
  -1  -4  16    4.59    1.29
  -1  -4  16    2.30    0.61
   0   4 -16    1.09    0.82
   0  -4  16    1.37    1.04
   0  -4  16    1.53    0.86
   0  -4  16    0.98    0.69
  -1   4 -16    0.13    1.03
   1  -4  16   -0.07    0.81
   3   3 -16    1.96    0.83
  -3  -3  16    4.44    1.28
  -3  -3  16    2.60    1.40
  -3  -3  16    0.63    0.68
   2   3 -16    0.27    0.70
  -2  -3  16    0.78    1.22
  -2  -3  16   -1.23    0.60
  -2  -3  16    1.29    1.04
   1   3 -16    8.98    1.27
  -1  -3  16    5.03    1.55
  -1  -3  16    6.64    1.15
  -1  -3  16    9.03    1.11
   0   3 -16    9.59    1.35
   0  -3  16    8.63    1.29
   0  -3  16    8.72    1.14
   0  -3  16    8.64    1.05
  -1   3 -16    0.18    0.84
   1  -3  16    0.79    0.73
   1  -3  16   -0.80    0.77
   1  -3  16   -1.24    0.91
  -2   3 -16    1.08    1.14
   2  -3  16    0.17    0.97
   3   2 -16    1.72    0.84
  -3  -2  16    2.65    1.19
  -3  -2  16    1.83    1.02
   2   2 -16    1.27    0.72
  -2  -2  16    2.11    1.21
  -2  -2  16    1.19    1.09
  -2  -2  16    0.14    0.56
   1   2 -16   11.89    1.24
  -1  -2  16   10.75    1.67
  -1  -2  16   11.46    1.07
  -1  -2  16   10.94    1.39
   0   2 -16    6.22    0.90
   0  -2  16    6.78    1.30
   0  -2  16    4.01    0.71
  -1   2 -16    6.38    0.97
   1  -2  16    6.74    1.19
   1  -2  16    5.52    0.87
  -2   2 -16    2.47    1.00
   2  -2  16    1.00    1.06
   2  -2  16    1.95    0.83
  -3   2 -16    1.76    1.23
   3  -2  16   -0.66    1.15
   3   1 -16    0.86    0.73
  -3  -1  16   -0.59    1.02
  -3  -1  16    0.49    0.66
  -3  -1  16    0.26    1.06
   2   1 -16    5.01    0.83
  -2  -1  16    5.08    1.15
  -2  -1  16    4.62    1.16
  -2  -1  16    4.72    0.60
   1   1 -16   -0.97    0.61
  -1  -1  16   -0.58    0.49
  -1  -1  16   -1.23    0.99
   0   1 -16   10.79    1.20
   0  -1  16    7.86    1.08
   0  -1  16    8.85    1.38
  -1   1 -16    2.36    0.84
   1  -1  16    5.32    1.16
   1  -1  16    3.55    0.87
  -2   1 -16   -0.35    0.92
   2  -1  16    0.07    0.87
   2  -1  16   -0.30    1.06
  -3   1 -16    0.18    1.11
   3  -1  16    2.53    1.21
   3  -1  16    1.14    1.07
   3   0 -16    0.72    0.76
  -3   0  16    2.15    1.02
   2   0 -16   13.34    1.33
  -2   0  16   15.53    1.18
  -2   0  16   18.17    1.82
   1   0 -16    1.88    0.69
  -1   0  16    2.28    1.06
  -1   0  16    2.37    0.64
   0   0 -16    2.48    0.76
   0   0  16    3.20    1.22
   0   0  16    1.58    0.63
  -1   0 -16    4.33    0.89
   1   0  16    5.69    1.21
   1   0  16    5.79    0.85
  -2   0 -16    7.51    1.06
   2   0  16    7.51    1.63
   2   0  16    6.87    1.90
  -3   0 -16    1.11    1.04
  -3   0 -16    0.34    0.93
   3   0  16    0.63    1.58
   3   0  16    0.79    1.00
   3  -1 -16   -0.40    0.81
  -3   1  16    2.36    0.83
  -3   1  16    0.55    0.68
  -3   1  16    1.33    0.89
   2  -1 -16    2.87    0.75
  -2   1  16    1.95    0.63
  -2   1  16    3.01    0.91
   1  -1 -16    0.65    0.69
  -1   1  16    0.30    0.53
  -1   1  16   -0.27    0.96
   0  -1 -16    1.27    0.68
   0   1  16    1.60    0.62
   0   1  16    3.06    1.21
  -1  -1 -16   -0.46    0.70
   1   1  16    0.15    0.98
  -2  -1 -16    0.74    0.81
  -2  -1 -16    0.13    0.77
   2   1  16    0.80    0.75
   2   1  16   -0.06    1.13
  -3  -1 -16    0.81    0.93
  -3  -1 -16    1.24    0.96
   3   1  16    0.09    0.94
   3   1  16    0.17    1.26
  -4  -1 -16    0.84    1.16
  -4  -1 -16    0.04    1.09
   4   1  16    0.81    1.08
   4   1  16    0.08    1.43
   3  -2 -16    1.94    1.24
  -3   2  16    2.48    0.93
  -3   2  16    3.25    1.07
   2  -2 -16    0.75    0.72
  -2   2  16    1.13    0.86
  -2   2  16    0.64    0.66
   1  -2 -16    4.31    0.79
  -1   2  16    3.68    0.64
  -1   2  16    3.36    0.94
   0  -2 -16    0.89    0.71
   0   2  16    1.42    0.60
   0   2  16    0.05    0.94
  -1  -2 -16    2.29    0.77
   1   2  16    0.91    0.84
   1   2  16    0.34    1.05
  -2  -2 -16    3.43    0.90
  -2  -2 -16    2.76    0.88
   2   2  16    0.23    1.13
   2   2  16    2.37    0.86
  -3  -2 -16    1.83    0.95
  -3  -2 -16    2.86    1.09
   3   2  16    1.62    0.94
   3   2  16    2.76    1.31
  -4  -2 -16    1.99    1.22
  -4  -2 -16    0.56    1.09
   4   2  16    0.73    1.08
   4   2  16   -0.91    1.41
   2  -3 -16    3.38    0.88
  -2   3  16    2.34    0.90
   1  -3 -16    7.50    1.01
  -1   3  16    7.51    1.09
  -1   3  16    7.51    0.89
   0  -3 -16   -0.57    0.67
   0   3  16   -0.58    0.83
   0   3  16   -1.28    0.60
  -1  -3 -16    1.62    0.88
   1   3  16    1.70    0.75
   1   3  16    1.02    1.10
  -2  -3 -16    2.60    0.81
  -2  -3 -16    0.44    0.91
   2   3  16   -0.08    0.94
  -3  -3 -16    3.75    1.03
  -3  -3 -16    2.97    1.08
   3   3  16    2.57    0.99
   3   3  16    3.24    1.32
  -4  -3 -16    1.72    1.12
  -4  -3 -16   -0.21    1.12
   4   3  16   -0.19    1.04
   4   3  16   -0.94    1.61
  -1   4  16    0.18    0.90
   0   4  16    0.79    0.68
   0   4  16    0.11    0.89
  -1  -4 -16    0.91    0.70
  -1  -4 -16    1.47    0.93
   1   4  16   -0.31    0.86
   1   4  16    0.13    0.81
  -2  -4 -16    2.45    0.78
  -2  -4 -16    2.33    1.03
   2   4  16    1.58    0.89
  -3  -4 -16    3.39    1.10
  -3  -4 -16    3.08    0.96
   3   4  16    1.07    1.03
   3   4  16    1.07    1.21
   0   5  16    0.30    0.82
   0   5  16    0.13    0.79
  -1  -5 -16    1.35    0.75
   1   5  16   -1.98    0.85
   1   5  16    1.45    0.92
  -2  -5 -16    2.84    0.79
   2   5  16   -0.38    1.04
   2   5  16    0.49    1.01
  -3  -5 -16    1.69    0.92
   3   5  16    0.95    1.13
  -2  -3  17    5.70    2.69
  -2  -3  17    2.17    1.46
   1   3 -17   -1.04    0.78
  -1  -3  17   -0.04    1.05
  -1  -3  17   -0.58    1.32
  -1  -3  17   -0.37    0.68
   0   3 -17    2.45    0.85
   0  -3  17    1.66    0.67
   0  -3  17    1.52    1.33
   0  -3  17    1.23    1.00
  -1   3 -17    1.50    1.03
   1  -3  17   -0.55    0.89
   1  -3  17    1.69    0.83
   1  -3  17   -0.90    1.11
   2   2 -17    3.26    0.80
  -2  -2  17    3.19    1.37
  -2  -2  17    1.09    1.23
  -2  -2  17   -0.27    0.63
   1   2 -17    1.79    0.66
  -1  -2  17    0.30    0.61
  -1  -2  17    0.50    1.01
  -1  -2  17    1.48    1.31
   0   2 -17   -0.28    0.76
   0  -2  17    0.84    0.65
   0  -2  17    0.40    1.31
  -1   2 -17    4.45    1.08
   1  -2  17    5.07    1.27
   1  -2  17    4.40    0.96
  -2   2 -17    3.66    1.20
   2  -2  17    3.76    1.30
   2  -2  17    5.86    1.10
  -3  -1  17    3.26    1.36
  -3  -1  17    1.09    1.21
  -2  -1  17    0.45    1.06
  -2  -1  17    0.44    1.17
  -2  -1  17    0.18    0.65
   1   1 -17    1.49    0.69
  -1  -1  17   -1.17    1.19
  -1  -1  17   -0.37    0.58
   0   1 -17    2.86    0.81
   0  -1  17    0.98    0.66
   0  -1  17    1.09    1.35
  -1   1 -17    6.39    1.04
   1  -1  17    6.28    0.99
   1  -1  17    7.66    1.42
  -2   1 -17   -0.24    1.00
   2  -1  17   -0.31    1.25
   2  -1  17   -1.15    0.94
  -3   0  17    0.13    1.09
  -3   0  17    1.67    1.32
   2   0 -17   -0.05    0.81
  -2   0  17    0.91    1.14
  -2   0  17   -0.32    0.65
   1   0 -17   -0.31    0.70
  -1   0  17    0.50    1.12
  -1   0  17   -0.95    0.61
   0   0 -17    2.39    0.81
   0   0  17    4.06    0.73
   0   0  17    7.62    1.46
  -1   0 -17    7.69    1.10
   1   0  17    8.05    1.41
   1   0  17    8.91    1.33
  -2   0 -17    0.64    1.01
   2   0  17    0.16    0.96
   2   0  17    1.52    1.29
  -3   0 -17    1.64    1.20
   3   0  17    1.12    1.17
   3   0  17    0.84    1.49
   2  -1 -17    2.62    0.80
  -2   1  17    1.92    0.68
  -2   1  17    2.23    1.14
   1  -1 -17    1.60    0.73
  -1   1  17    2.75    1.24
  -1   1  17    0.64    0.60
   0  -1 -17   -0.37    0.75
   0   1  17   -0.03    1.14
   0   1  17   -0.37    0.65
  -1  -1 -17   -0.25    0.82
   1   1  17   -0.75    0.74
   1   1  17   -0.71    1.19
  -2  -1 -17    0.42    0.96
   2   1  17    0.30    0.91
   2   1  17   -0.18    1.26
  -3  -1 -17    0.96    1.02
  -3  -1 -17    0.37    1.13
   3   1  17    0.49    1.48
   3   1  17    0.65    1.13
   2  -2 -17    0.90    0.86
  -2   2  17    0.26    1.00
  -2   2  17   -0.05    0.71
   1  -2 -17    1.49    0.77
  -1   2  17    3.03    1.14
  -1   2  17    3.55    0.70
   0  -2 -17    0.57    0.79
   0   2  17    1.52    0.69
   0   2  17   -0.08    1.18
  -1  -2 -17    1.60    0.88
   1   2  17    1.44    1.31
   1   2  17    1.84    0.87
  -2  -2 -17    0.79    0.92
  -2  -2 -17   -0.65    0.91
   2   2  17   -2.20    1.21
   2   2  17   -1.03    0.89
  -3  -2 -17    1.52    1.03
  -3  -2 -17    2.52    1.12
   3   2  17    1.42    1.63
   3   2  17    3.34    1.53
   1  -3 -17   -0.85    0.84
  -1   3  17   -0.15    0.94
  -1   3  17   -1.45    0.69
   0  -3 -17    2.79    0.94
   0   3  17    0.61    1.03
   0   3  17    1.97    0.79
  -1  -3 -17    2.01    0.98
   1   3  17    3.89    0.94
   1   3  17    3.00    1.32
  -2  -3 -17    2.29    0.89
  -2  -3 -17    1.67    1.08
   2   3  17   -0.61    1.23
   2   3  17    0.82    1.01
  -3  -3 -17    1.64    1.06
  -3  -3 -17   -1.03    1.14
   3   3  17   -0.14    1.21
   3   3  17   -1.95    1.36
   0  -4 -17    4.54    0.99
   0   4  17    0.24    0.85
  -1  -4 -17    1.09    1.08
   1   4  17    0.65    1.06
  -2  -4 -17   11.61    1.58
  -2  -4 -17    7.54    1.32
   2   4  17    6.69    1.25
  -1  -2  18    7.78    1.61
  -1  -2  18    7.39    1.67
   0   2 -18    0.46    0.89
   0  -2  18   -0.71    0.76
   0  -2  18    0.61    1.13
   0  -2  18   -0.68    1.50
   1   1 -18    2.65    0.85
  -1  -1  18    0.72    0.71
  -1  -1  18   -0.33    1.43
   0   1 -18   -0.28    0.84
   0  -1  18   -0.36    0.68
   0  -1  18   -0.29    1.50
  -1   1 -18    0.22    1.02
   1  -1  18    0.19    1.39
   1  -1  18    0.34    0.83
  -2   0  18   -1.01    1.31
   1   0 -18    0.00    0.75
  -1   0  18   -0.80    1.31
  -1   0  18    0.70    0.63
   0   0 -18    0.53    0.79
   0   0  18    0.21    1.42
   0   0  18    0.61    0.75
  -1   0 -18    0.10    0.91
   1   0  18    0.13    0.92
   1   0  18    0.00    1.44
  -2   0 -18   -0.52    1.19
   2   0  18    0.07    1.41
   2   0  18   -1.37    1.01
   1  -1 -18    3.34    0.81
  -1   1  18    2.99    1.54
   0  -1 -18   -0.45    0.85
   0   1  18    1.09    1.42
   0   1  18    1.52    0.77
  -1  -1 -18    1.73    1.08
   1   1  18    2.17    1.54
   1   1  18    2.42    0.91
  -2  -1 -18    0.88    1.14
   2   1  18   -0.39    1.07
   2   1  18   -0.98    1.43
   1  -2 -18    0.85    1.03
  -1   2  18    1.03    0.78
  -1   2  18    1.57    1.38
   0  -2 -18    0.80    0.88
   0   2  18   -1.40    1.22
   0   2  18   -0.25    0.77
  -1  -2 -18    0.01    1.00
   1   2  18   -0.71    0.95
   1   2  18    0.67    1.52
  -2  -2 -18    5.51    1.25
   2   2  18    4.14    1.67
   2   2  18    4.17    1.15
   0  -3 -18   -0.72    1.01
   0   3  18   -2.36    1.22
   0   3  18    1.24    0.84
  -1  -3 -18    0.50    1.05
   1   3  18    1.00    0.96
   1   3  18    0.03    1.38
  -2  -3 -18    2.25    1.11
  -2  -3 -18    0.45    1.23
   2   3  18   -0.02    1.56
   2   3  18    0.96    1.10
   0   0   0    0.00    0.00
;
_shelx_hkl_checksum              32401
loop_
_space_group_symop_operation_xyz
'x, y, z'
'-x, -y, -z'
loop_
_atom_site_label
_atom_site_type_symbol
_atom_site_fract_x
_atom_site_fract_y
_atom_site_fract_z
_atom_site_U_iso_or_equiv
_atom_site_adp_type
_atom_site_occupancy
_atom_site_site_symmetry_order
_atom_site_calc_flag
_atom_site_refinement_flags_posn
_atom_site_refinement_flags_adp
_atom_site_refinement_flags_occupancy
_atom_site_disorder_assembly
_atom_site_disorder_group
C1 C 0.6336(8) -0.1355(6) 0.9742(3) 0.0235(11) Uani 1 1 d . . . . .
C4 C 0.9684(9) 0.0363(6) 0.7160(3) 0.0266(11) Uani 1 1 d . . . . .
H4A H 0.9095 0.0445 0.6575 0.032 Uiso 1 1 calc R U . . .
H4B H 1.1312 -0.0133 0.7126 0.032 Uiso 1 1 calc R U . . .
C5 C 0.9176(10) 0.2129(6) 0.7492(3) 0.0336(13) Uani 1 1 d . . . . .
C6 C 0.7725(16) 0.3539(10) 0.4392(5) 0.083(3) Uani 1 1 d . . . . .
H6A H 0.7370 0.4570 0.4723 0.100 Uiso 1 1 calc R U . . .
H6B H 0.7064 0.3869 0.3819 0.100 Uiso 1 1 calc R U . . .
Cl1 Cl 1.0626(4) 0.2780(2) 0.42707(12) 0.0706(6) Uani 1 1 d . . . . .
Cl2 Cl 0.6523(5) 0.2062(3) 0.49077(16) 0.0945(9) Uani 1 1 d . . . . .
N1 N 0.3223(7) -0.0113(5) 1.0512(3) 0.0266(10) Uani 1 1 d . . . . .
N2 N 0.4618(7) -0.1539(5) 1.0241(3) 0.0268(10) Uani 1 1 d . . . . .
N3 N 0.7759(7) -0.2839(5) 0.9492(3) 0.0286(10) Uani 1 1 d . . . . .
H3 H 0.772(10) -0.371(8) 0.975(4) 0.034 Uiso 1 1 d . U . . .
N6 N 0.8698(7) -0.0754(5) 0.7718(3) 0.0248(9) Uani 1 1 d D . . . .
N7 N 1.0555(9) 0.3154(6) 0.6983(3) 0.0424(13) Uani 1 1 d . . . . .
N8 N 0.6748(10) 0.3111(6) 0.7398(3) 0.0469(14) Uani 1 1 d . . . . .
N9 N 0.9832(11) 0.2120(6) 0.8420(3) 0.0450(14) Uani 1 1 d . . . . .
O2 O 1.1230(9) 0.2680(6) 0.6281(3) 0.0594(14) Uani 1 1 d . . . . .
O3 O 1.0802(10) 0.4365(6) 0.7330(3) 0.0631(14) Uani 1 1 d . . . . .
O4 O 0.6328(9) 0.4210(6) 0.6826(3) 0.0685(15) Uani 1 1 d . . . . .
O5 O 0.5465(9) 0.2646(7) 0.7884(3) 0.0734(17) Uani 1 1 d . . . . .
O6 O 0.8749(11) 0.3235(6) 0.8852(3) 0.0696(16) Uani 1 1 d . . . . .
O7 O 1.1494(8) 0.0996(6) 0.8625(3) 0.0517(12) Uani 1 1 d . . . . .
N10A N 0.660(4) -0.086(4) 0.7461(19) 0.044(6) Uani 0.36(7) 1 d D U P A 1
O8A O 0.601(6) -0.204(6) 0.783(3) 0.057(6) Uani 0.36(7) 1 d D U P A 1
O9A O 0.560(5) 0.022(6) 0.694(2) 0.051(7) Uani 0.36(7) 1 d D U P A 1
N10Z N 0.689(3) -0.118(3) 0.7366(11) 0.039(3) Uani 0.64(7) 1 d D U P A 2
O8Z O 0.663(5) -0.257(3) 0.7651(14) 0.053(5) Uani 0.64(7) 1 d D U P A 2
O9Z O 0.578(3) -0.020(4) 0.6834(16) 0.054(5) Uani 0.64(7) 1 d D U P A 2
O1 O 1.3037(6) -0.3981(5) 0.8569(3) 0.0384(10) Uani 1 1 d . . . . .
N4 N 1.2085(7) -0.2749(5) 0.7956(3) 0.0320(10) Uani 1 1 d . . . . .
C2 C 1.0062(8) -0.2098(6) 0.8209(3) 0.0229(10) Uani 1 1 d . . . . .
C3 C 0.9673(8) -0.2950(6) 0.9009(3) 0.0236(11) Uani 1 1 d . . . . .
N5 N 1.1504(7) -0.4098(5) 0.9215(3) 0.0303(10) Uani 1 1 d . . . . .
loop_
_atom_site_aniso_label
_atom_site_aniso_U_11
_atom_site_aniso_U_22
_atom_site_aniso_U_33
_atom_site_aniso_U_23
_atom_site_aniso_U_13
_atom_site_aniso_U_12
C1 0.023(3) 0.017(2) 0.025(2) 0.0031(19) 0.001(2) 0.003(2)
C4 0.035(3) 0.016(2) 0.026(3) 0.0023(19) -0.001(2) -0.004(2)
C5 0.054(4) 0.017(3) 0.028(3) 0.004(2) -0.007(2) -0.008(2)
C6 0.109(7) 0.056(5) 0.061(5) 0.012(4) 0.018(5) 0.011(5)
Cl1 0.0978(16) 0.0556(11) 0.0483(10) -0.0045(8) -0.0143(10) -0.0026(10)
Cl2 0.125(2) 0.0805(16) 0.0885(17) 0.0193(13) -0.0332(15) -0.0468(15)
N1 0.025(2) 0.019(2) 0.030(2) -0.0006(17) 0.0060(18) 0.0031(17)
N2 0.028(2) 0.018(2) 0.029(2) 0.0018(17) 0.0042(18) 0.0014(18)
N3 0.027(2) 0.017(2) 0.036(2) 0.0066(18) 0.0112(19) 0.0018(18)
N6 0.023(2) 0.020(2) 0.029(2) 0.0008(17) 0.0004(17) -0.0041(17)
N7 0.067(4) 0.031(3) 0.035(3) 0.010(2) -0.009(2) -0.023(2)
N8 0.063(4) 0.024(3) 0.042(3) -0.002(2) -0.004(3) 0.010(2)
N9 0.085(4) 0.028(3) 0.028(3) 0.000(2) -0.005(3) -0.025(3)
O2 0.102(4) 0.043(3) 0.042(3) 0.002(2) 0.011(3) -0.037(3)
O3 0.107(4) 0.039(3) 0.053(3) 0.000(2) -0.012(3) -0.037(3)
O4 0.085(4) 0.044(3) 0.069(3) 0.023(2) -0.030(3) -0.008(3)
O5 0.064(3) 0.060(3) 0.064(3) 0.017(3) 0.027(3) 0.028(3)
O6 0.129(5) 0.044(3) 0.040(3) -0.016(2) 0.007(3) -0.028(3)
O7 0.072(3) 0.049(3) 0.041(2) 0.011(2) -0.022(2) -0.030(3)
N10A 0.011(7) 0.075(12) 0.044(9) 0.000(9) 0.002(7) -0.011(8)
O8A 0.017(9) 0.090(13) 0.063(12) 0.016(10) 0.004(8) -0.020(9)
O9A 0.022(8) 0.078(15) 0.039(10) 0.007(11) 0.006(7) 0.004(9)
N10Z 0.020(5) 0.052(7) 0.039(6) 0.004(5) 0.003(4) -0.005(5)
O8Z 0.028(7) 0.076(9) 0.062(7) 0.018(6) -0.001(6) -0.032(7)
O9Z 0.032(6) 0.069(10) 0.048(8) 0.010(7) -0.010(6) 0.003(6)
O1 0.0211(19) 0.032(2) 0.052(2) 0.0139(18) 0.0087(17) 0.0035(16)
N4 0.024(2) 0.023(2) 0.044(3) 0.0088(19) 0.003(2) -0.0014(18)
C2 0.019(2) 0.018(2) 0.030(3) -0.0020(19) 0.001(2) -0.0037(19)
C3 0.022(2) 0.012(2) 0.035(3) -0.0023(19) 0.006(2) -0.0020(19)
N5 0.022(2) 0.021(2) 0.043(3) 0.0038(18) 0.0062(19) 0.0004(17)
loop_
_atom_type_symbol
_atom_type_description
_atom_type_scat_dispersion_real
_atom_type_scat_dispersion_imag
_atom_type_scat_source
C C 0.0033 0.0016 'International Tables Vol C Tables 4.2.6.8 and 6.1.1.4'
H H 0.0000 0.0000 'International Tables Vol C Tables 4.2.6.8 and 6.1.1.4'
N N 0.0061 0.0033 'International Tables Vol C Tables 4.2.6.8 and 6.1.1.4'
O O 0.0106 0.0060 'International Tables Vol C Tables 4.2.6.8 and 6.1.1.4'
Cl Cl 0.1484 0.1585 'International Tables Vol C Tables 4.2.6.8 and 6.1.1.4'
loop_
_geom_angle_atom_site_label_1
_geom_angle_atom_site_label_2
_geom_angle_atom_site_label_3
_geom_angle
_geom_angle_site_symmetry_1
_geom_angle_site_symmetry_3
_geom_angle_publ_flag
N1 C1 N2 126.4(4) 2_657 . ?
N1 C1 N3 118.5(4) 2_657 . ?
N2 C1 N3 115.0(4) . . ?
N6 C4 C5 111.4(4) . . ?
N6 C4 H4A 109.3 . . ?
C5 C4 H4A 109.3 . . ?
N6 C4 H4B 109.3 . . ?
C5 C4 H4B 109.3 . . ?
H4A C4 H4B 108.0 . . ?
N8 C5 C4 112.5(5) . . ?
N8 C5 N9 108.9(5) . . ?
C4 C5 N9 113.2(4) . . ?
N8 C5 N7 107.4(4) . . ?
C4 C5 N7 109.6(4) . . ?
N9 C5 N7 104.9(4) . . ?
Cl2 C6 Cl1 113.3(4) . . ?
Cl2 C6 H6A 108.9 . . ?
Cl1 C6 H6A 108.9 . . ?
Cl2 C6 H6B 108.9 . . ?
Cl1 C6 H6B 108.9 . . ?
H6A C6 H6B 107.7 . . ?
N2 N1 C1 117.1(4) . 2_657 ?
N1 N2 C1 116.4(4) . . ?
C1 N3 C3 124.7(4) . . ?
C1 N3 H3 119(4) . . ?
C3 N3 H3 114(4) . . ?
C2 N6 N10Z 112.8(8) . . ?
C2 N6 N10A 119.6(12) . . ?
C2 N6 C4 120.0(4) . . ?
N10Z N6 C4 115.1(7) . . ?
N10A N6 C4 115.1(10) . . ?
O3 N7 O2 127.9(5) . . ?
O3 N7 C5 115.5(5) . . ?
O2 N7 C5 116.6(5) . . ?
O4 N8 O5 128.0(6) . . ?
O4 N8 C5 116.2(6) . . ?
O5 N8 C5 115.7(5) . . ?
O6 N9 O7 127.7(5) . . ?
O6 N9 C5 118.1(5) . . ?
O7 N9 C5 114.2(5) . . ?
O9A N10A O8A 128.6(17) . . ?
O9A N10A N6 117.4(14) . . ?
O8A N10A N6 114.0(13) . . ?
O9Z N10Z O8Z 126.9(11) . . ?
O9Z N10Z N6 118.5(9) . . ?
O8Z N10Z N6 114.5(8) . . ?
N4 O1 N5 110.4(3) . . ?
C2 N4 O1 106.4(4) . . ?
N4 C2 N6 119.2(4) . . ?
N4 C2 C3 109.1(4) . . ?
N6 C2 C3 131.7(4) . . ?
N5 C3 N3 120.3(4) . . ?
N5 C3 C2 107.9(4) . . ?
N3 C3 C2 131.5(4) . . ?
C3 N5 O1 106.2(4) . . ?
loop_
_geom_bond_atom_site_label_1
_geom_bond_atom_site_label_2
_geom_bond_distance
_geom_bond_site_symmetry_2
_geom_bond_publ_flag
C1 N1 1.342(6) 2_657 ?
C1 N2 1.345(6) . ?
C1 N3 1.368(6) . ?
C4 N6 1.468(6) . ?
C4 C5 1.519(7) . ?
C4 H4A 0.9900 . ?
C4 H4B 0.9900 . ?
C5 N8 1.520(8) . ?
C5 N9 1.522(7) . ?
C5 N7 1.534(7) . ?
C6 Cl2 1.739(9) . ?
C6 Cl1 1.760(10) . ?
C6 H6A 0.9900 . ?
C6 H6B 0.9900 . ?
N1 N2 1.338(6) . ?
N1 C1 1.342(6) 2_657 ?
N3 C3 1.381(6) . ?
N3 H3 0.80(6) . ?
N6 C2 1.396(6) . ?
N6 N10Z 1.414(10) . ?
N6 N10A 1.417(14) . ?
N7 O3 1.213(6) . ?
N7 O2 1.213(6) . ?
N8 O4 1.209(7) . ?
N8 O5 1.207(7) . ?
N9 O6 1.210(7) . ?
N9 O7 1.221(7) . ?
N10A O9A 1.216(13) . ?
N10A O8A 1.233(13) . ?
N10Z O9Z 1.212(9) . ?
N10Z O8Z 1.243(10) . ?
O1 N4 1.370(5) . ?
O1 N5 1.388(5) . ?
N4 C2 1.292(6) . ?
C2 C3 1.440(7) . ?
C3 N5 1.302(6) . ?
