#------------------------------------------------------------------------------
#$Date: 2021-05-29 00:24:37 +0300 (Sat, 29 May 2021) $
#$Revision: 265588 $
#$URL: file:///home/coder/svn-repositories/cod/cif/4/51/87/4518744.cif $
#------------------------------------------------------------------------------
#
# This file is available in the Crystallography Open Database (COD),
# http://www.crystallography.net/
#
# All data on this site have been placed in the public domain by the
# contributors.
#
data_4518744
loop_
_publ_author_name
'Wu, Siqin'
'Zhou, Bo'
'Yan, Dongpeng'
_publ_section_title
;
 Low-Dimensional Organic Metal Halide Hybrids with Excitation-Dependent
 Optical Waveguides from Visible to Near-Infrared Emission.
;
_journal_name_full               'ACS applied materials &amp; interfaces'
_journal_paper_doi               10.1021/acsami.1c03926
_journal_year                    2021
_chemical_formula_sum            'C20 H18 Cl8 N2 O0 Pb3'
_chemical_formula_weight         1191.53
_space_group_crystal_system      triclinic
_space_group_IT_number           2
_space_group_name_Hall           '-P 1'
_space_group_name_H-M_alt        'P -1'
_atom_sites_solution_hydrogens   geom
_audit_creation_method           SHELXL-2016/6
_cell_angle_alpha                98.133(3)
_cell_angle_beta                 95.017(3)
_cell_angle_gamma                96.152(3)
_cell_formula_units_Z            1
_cell_length_a                   4.28160(10)
_cell_length_b                   12.0065(4)
_cell_length_c                   14.4461(5)
_cell_measurement_reflns_used    7408
_cell_measurement_temperature    100(10)
_cell_measurement_theta_max      75.7700
_cell_measurement_theta_min      3.7200
_cell_volume                     726.95(4)
_computing_cell_refinement       'CrysAlisPro 1.171.40.84a (Rigaku OD, 2020)'
_computing_data_collection       'CrysAlisPro 1.171.40.84a (Rigaku OD, 2020)'
_computing_data_reduction        'CrysAlisPro 1.171.40.84a (Rigaku OD, 2020)'
_computing_structure_refinement  'SHELXL-2016/6 (Sheldrick, 2016)'
_diffrn_ambient_temperature      100(10)
_diffrn_measured_fraction_theta_full 0.997
_diffrn_measured_fraction_theta_max 0.955
_diffrn_measurement_device_type  'XtaLAB Synergy R, DW system, HyPix'
_diffrn_measurement_method       '\w scans'
_diffrn_radiation_type           CuK\a
_diffrn_radiation_wavelength     1.54178
_diffrn_reflns_av_R_equivalents  0.0323
_diffrn_reflns_av_unetI/netI     0.0289
_diffrn_reflns_Laue_measured_fraction_full 0.997
_diffrn_reflns_Laue_measured_fraction_max 0.955
_diffrn_reflns_limit_h_max       5
_diffrn_reflns_limit_h_min       -5
_diffrn_reflns_limit_k_max       14
_diffrn_reflns_limit_k_min       -15
_diffrn_reflns_limit_l_max       17
_diffrn_reflns_limit_l_min       -17
_diffrn_reflns_number            8443
_diffrn_reflns_point_group_measured_fraction_full 0.997
_diffrn_reflns_point_group_measured_fraction_max 0.955
_diffrn_reflns_theta_full        67.679
_diffrn_reflns_theta_max         75.738
_diffrn_reflns_theta_min         3.746
_diffrn_source                   'Rotating-anode X-ray tube'
_exptl_absorpt_coefficient_mu    40.096
_exptl_absorpt_correction_T_max  1.00000
_exptl_absorpt_correction_T_min  0.21263
_exptl_absorpt_correction_type   multi-scan
_exptl_absorpt_process_details
;
CrysAlisPro 1.171.40.84a (Rigaku Oxford Diffraction, 2020)
Empirical absorption correction using spherical harmonics,
implemented in SCALE3 ABSPACK scaling algorithm.
;
_exptl_crystal_colour            red
_exptl_crystal_density_diffrn    2.722
_exptl_crystal_description       plate
_exptl_crystal_F_000             534
_exptl_crystal_size_max          0.3
_exptl_crystal_size_mid          0.28
_exptl_crystal_size_min          0.2
_refine_diff_density_max         1.358
_refine_diff_density_min         -2.809
_refine_diff_density_rms         0.269
_refine_ls_extinction_method     none
_refine_ls_goodness_of_fit_ref   1.038
_refine_ls_hydrogen_treatment    constr
_refine_ls_matrix_type           full
_refine_ls_number_parameters     151
_refine_ls_number_reflns         2898
_refine_ls_number_restraints     0
_refine_ls_restrained_S_all      1.038
_refine_ls_R_factor_all          0.0364
_refine_ls_R_factor_gt           0.0351
_refine_ls_shift/su_max          0.001
_refine_ls_shift/su_mean         0.000
_refine_ls_structure_factor_coef Fsqd
_refine_ls_weighting_details
'w=1/[\s^2^(Fo^2^)+(0.0742P)^2^+0.2473P] where P=(Fo^2^+2Fc^2^)/3'
_refine_ls_weighting_scheme      calc
_refine_ls_wR_factor_gt          0.0971
_refine_ls_wR_factor_ref         0.0986
_reflns_Friedel_coverage         0.000
_reflns_number_gt                2748
_reflns_number_total             2898
_reflns_threshold_expression     'I > 2\s(I)'
_cod_data_source_file            am1c03926_si_004.cif
_cod_data_source_block           1
_cod_original_cell_volume        726.94(4)
_cod_database_code               4518744
_shelx_shelxl_version_number     2016/6
_shelx_space_group_comment
;
The symmetry employed for this shelxl refinement is uniquely defined
by the following loop, which should always be used as a source of
symmetry information in preference to the above space-group names.
They are only intended as comments.
;
_shelx_res_file
;
TITL 1 in P-1
    1.res
    created by SHELXL-2016/6 at 17:57:56 on 06-Nov-2020
CELL 1.54178   4.2816  12.0065  14.4461  98.133  95.017  96.152
ZERR    1.00   0.0001   0.0004   0.0005   0.003   0.003   0.003
LATT 1
SFAC C  H  N  O  Cl Pb
UNIT 20 18 2 0 8 3
L.S. 4
ACTA
BOND
FMAP 2
PLAN 20
HTAB N1 Cl4_$7
HTAB N1 Cl3_$7
HTAB C10 Cl3_$8
EQIV $8 x, y-1, z
HTAB C9 Cl3_$7
EQIV $7 -x, -y+1, -z+1
HTAB C9 Cl3_$6
EQIV $6 x-1, y-1, z
HTAB C8 Cl4_$1
EQIV $1 x-1, y, z
HTAB
WGHT    0.074200    0.247300
FVAR       0.10074
PB1   6    0.500000    1.000000    1.000000    10.50000    0.02989    0.05376 =
         0.03309    0.00110    0.00778    0.00620
PB2   6    0.860416    0.862725    0.733026    11.00000    0.02884    0.04063 =
         0.03800    0.00290    0.00791    0.00269
C1    1    0.917756    0.583672    0.951128    11.00000    0.04756    0.03756 =
         0.06362    0.01874    0.01708    0.01211
AFIX  43
H1A   2    0.863626    0.641012    0.917989    11.00000   -1.20000
AFIX   0
C2    1    0.776424    0.473816    0.920238    11.00000    0.04313    0.04728 =
         0.04210    0.00884    0.01460    0.00599
C3    1    0.866093    0.389407    0.971394    11.00000    0.05693    0.03164 =
         0.06554    0.01156    0.01572    0.00079
AFIX  43
H3    2    0.777780    0.314563    0.952439    11.00000   -1.20000
AFIX   0
C4    1    0.552895    0.453716    0.835754    11.00000    0.05004    0.04331 =
         0.06855    0.01864    0.02239    0.01248
AFIX  43
H4    2    0.509090    0.516140    0.807634    11.00000   -1.20000
AFIX   0
C5    1    0.407630    0.353120    0.796103    11.00000    0.06044    0.03178 =
         0.06266    0.01431    0.01958    0.00986
AFIX  43
H5    2    0.446100    0.291075    0.825426    11.00000   -1.20000
AFIX   0
C6    1    0.193870    0.332536    0.710708    11.00000    0.04583    0.05186 =
         0.04468    0.01183    0.02050    0.00927
C7    1    0.082505    0.417406    0.660489    11.00000    0.05154    0.03758 =
         0.05859    0.00324    0.01174    0.00281
AFIX  43
H7    2    0.145975    0.493723    0.682765    11.00000   -1.20000
AFIX   0
C8    1   -0.113111    0.386834    0.581421    11.00000    0.05424    0.05195 =
         0.06779    0.02473    0.01050    0.01144
AFIX  43
H8    2   -0.184011    0.442655    0.549216    11.00000   -1.20000
AFIX   0
C9    1   -0.109486    0.196254    0.592471    11.00000    0.09494    0.03583 =
         0.06023    0.00619    0.02173   -0.01084
AFIX  43
H9    2   -0.175684    0.120659    0.568129    11.00000   -1.20000
AFIX   0
C10   1    0.082536    0.221780    0.671243    11.00000    0.08204    0.04286 =
         0.05878    0.01647    0.00828    0.00281
AFIX  43
H10   2    0.145414    0.163118    0.701373    11.00000   -1.20000
AFIX   0
CL1   5   -0.007871    1.081902    0.891703    11.00000    0.06897    0.04367 =
         0.05416    0.00891    0.01358    0.00816
CL2   5    0.402934    0.799592    0.857188    11.00000    0.05257    0.05303 =
         0.05984    0.02373    0.01633    0.00974
CL3   5    0.380009    0.947381    0.629881    11.00000    0.05585    0.03995 =
         0.05303    0.01356    0.01114    0.00588
CL4   5    0.695919    0.666263    0.621276    11.00000    0.06042    0.04072 =
         0.06520    0.00002    0.00487    0.01014
N1    3   -0.209374    0.277535    0.547510    11.00000    0.06403    0.06952 =
         0.03925    0.00180    0.00178   -0.00948
AFIX  43
H1    2   -0.335809    0.259845    0.496651    11.00000   -1.20000
AFIX   0
HKLF 4




REM  1 in P-1
REM R1 =  0.0351 for    2748 Fo > 4sig(Fo)  and  0.0364 for all    2898 data
REM    151 parameters refined using      0 restraints

END

WGHT      0.0741      0.2554

REM Instructions for potential hydrogen bonds
HTAB C8 Cl4_$1
HTAB C9 Cl3_$6
HTAB C9 Cl3_$7
HTAB C10 Cl3_$8
HTAB N1 Cl3_$7
HTAB N1 Cl4_$7

REM Highest difference peak  1.358,  deepest hole -2.809,  1-sigma level  0.269
Q1    1   1.0685  0.8959  0.7607  11.00000  0.05    1.36
Q2    1   0.2832  0.9653  0.9740  11.00000  0.05    1.11
Q3    1   0.6762  0.8357  0.6974  11.00000  0.05    1.06
Q4    1   1.0595  0.8164  0.6851  11.00000  0.05    0.78
Q5    1   0.7031  0.9193  0.7804  11.00000  0.05    0.77
Q6    1   0.8481  0.9777  0.7528  11.00000  0.05    0.71
Q7    1   1.0000  0.7972  0.6902  11.00000  0.05    0.69
Q8    1   0.2826  0.9355  1.0427  11.00000  0.05    0.67
Q9    1   0.6707  0.8010  0.7740  11.00000  0.05    0.67
Q10   1   1.2279  0.9378  0.8126  11.00000  0.05    0.66
Q11   1   0.1139  0.9200  0.9211  11.00000  0.05    0.65
Q12   1   0.3476  1.0627  1.0448  11.00000  0.05    0.62
Q13   1   0.9931  0.7750  0.6178  11.00000  0.05    0.59
Q14   1   0.3222  1.1640  0.9827  11.00000  0.05    0.58
Q15   1   0.3739  1.0453  0.8221  11.00000  0.05    0.57
Q16   1   0.5646  0.6303  0.8535  11.00000  0.05    0.57
Q17   1   0.0159  0.6949  0.7609  11.00000  0.05    0.57
Q18   1   0.4874  0.7815  0.6594  11.00000  0.05    0.56
Q19   1   0.2980  1.2211  0.9656  11.00000  0.05    0.56
Q20   1   0.7668  0.9040  0.5478  11.00000  0.05    0.54
;
_shelx_res_checksum              56251
_shelx_hkl_file
;
   0   0  -2   36.22    1.08
   0   0  -3  180.24    4.80
   0   0  -4   77.21    2.22
   0   0  -5    0.82    0.13
   0   0   5    0.90    0.10
   0   0  -6    9.84    0.52
   0   0   6    9.38    0.42
   0   0  -7  146.81    4.11
   0   0   7  138.94    3.89
   0   0   8  161.78    4.55
   0   0  -8  173.66    4.82
   0   0  -9    7.37    0.59
   0   0  -9    7.52    0.65
   0   0  -9    9.16    0.62
   0   0   9    9.03    0.57
   0   0 -10   -0.03    0.14
   0   0  10    0.02    0.08
   0   0 -10    0.02    0.07
   0   0 -10    0.03    0.11
   0   0 -11   74.64    3.01
   0   0 -11  100.68    3.07
   0   0  11   92.13    2.93
   0   0 -11   70.64    3.08
   0   0 -12    9.17    0.73
   0   0 -12    6.66    0.76
   0   0 -12    7.28    0.75
   0   0  13    2.75    0.39
   0   0 -13    2.58    0.47
   0   0 -13    1.59    0.41
   0   0 -14    2.77    0.52
   0   0 -14    3.34    0.56
   0   0 -15   22.86    1.39
   0   0 -15   22.62    1.46
   0   0 -16    2.36    0.38
   0   0 -16    2.13    0.42
   0   0 -17    2.63    0.39
   0   1 -17   -0.02    0.13
   0   1 -16   20.04    1.05
   0   1 -16   21.19    1.27
   0  -1  16   24.01    1.07
   0   1 -15   15.06    1.13
   0   1 -15   15.25    1.02
   0   1 -14    0.46    0.26
   0   1 -14    0.29    0.20
   0   1 -13    1.38    0.36
   0   1 -13    1.60    0.41
   0  -1  13    1.77    0.31
   0   1 -12   31.63    1.76
   0   1 -12   40.33    1.72
   0  -1  12   37.15    1.57
   0   1 -12   28.46    1.64
   0   1 -11   37.28    1.60
   0  -1  11   35.86    1.48
   0   1 -11   32.64    1.68
   0   1 -10   20.14    1.06
   0  -1  10   20.31    0.98
   0   1 -10   18.73    1.13
   0   1  -9   54.79    1.94
   0   1  -9   49.54    1.99
   0  -1   9   56.01    1.83
   0   1  -8  351.09    9.56
   0   1  -7    6.23    0.44
   0  -1   6   11.59    0.48
   0   1  -6   12.04    0.60
   0   1  -5   17.11    0.70
   0  -1   5   15.98    0.58
   0  -1   4  201.17    5.16
   0   1  -4  197.85    5.37
   0  -1   4  193.29    5.24
   0   1  -4  200.57    5.36
   0  -1   3    0.43    0.05
   0  -1   3    0.30    0.05
   0   1  -3    0.26    0.06
   0  -1   2   17.49    0.56
   0  -1   2   17.44    0.57
   0  -1   2   18.16    0.56
   0   1  -2   18.93    0.56
   0  -1   1  198.13    5.28
   0  -1   1  205.17    5.27
   0  -1   0  184.91    4.75
   0  -1   0  176.58    4.75
   0  -1   0  181.76    4.76
   0  -1  -1   17.74    0.56
   0  -1  -1   18.37    0.58
   0  -1  -1   17.08    0.56
   0  -1  -2    1.24    0.11
   0  -1  -2    1.09    0.11
   0  -1  -2    1.26    0.11
   0  -1  -2    1.25    0.10
   0  -1  -3  297.31    7.48
   0  -1  -3  276.52    7.39
   0  -1  -4   54.84    1.65
   0  -1  -5   13.57    0.60
   0  -1  -6    5.41    0.37
   0  -1  -7  300.84    8.26
   0   1   7  305.29    8.11
   0  -1  -8   22.75    1.03
   0   1   8   23.73    0.91
   0  -1  -9   23.38    1.14
   0  -1  -9   25.11    1.14
   0   1  10   60.63    2.21
   0  -1 -10   57.83    2.28
   0  -1 -11   86.36    2.88
   0   1  11   84.68    2.87
   0  -1 -12    0.10    0.18
   0   1  12    0.40    0.18
   0  -1 -13    0.20    0.23
   0  -1 -13    0.18    0.18
   0   1  13    0.03    0.14
   0  -1 -14   17.76    1.23
   0  -1 -14   16.41    1.21
   0   1  14   19.33    1.15
   0  -1 -15   15.72    1.10
   0  -1 -15   11.48    0.98
   0  -1 -16    0.44    0.22
   0  -1 -16    1.08    0.31
   0  -1 -17    0.07    0.13
   0  -1 -17    0.05    0.10
   0   2 -17    4.45    0.42
   0  -2  16   34.29    1.38
   0   2 -16   32.91    1.53
   0   2 -15    3.12    0.47
   0   2 -14    3.84    0.54
   0   2 -14    3.67    0.47
   0   2 -13    6.82    0.66
   0   2 -13    7.15    0.72
   0   2 -12   59.87    2.39
   0   2 -12   60.02    2.45
   0   2 -12   57.88    2.36
   0   2 -11   -0.03    0.12
   0   2 -11    0.03    0.08
   0  -2  11    0.36    0.16
   0   2 -11    0.06    0.12
   0   2 -10    1.87    0.32
   0  -2  10    1.63    0.26
   0   2 -10    1.34    0.27
   0   2 -10    1.74    0.30
   0   2  -9  122.42    3.82
   0   2  -9  124.83    3.85
   0  -2   9  118.98    3.64
   0   2  -8  145.81    4.36
   0   2  -7   12.00    0.68
   0   2  -6    0.86    0.16
   0   2  -5  256.67    7.02
   0  -2   5  266.46    6.91
   0  -2   4   55.82    1.58
   0  -2   4   53.94    1.61
   0   2  -4   53.13    1.58
   0  -2   3   49.60    1.54
   0   2  -3   52.86    1.45
   0  -2   3   51.53    1.53
   0  -2   3   51.30    1.53
   0  -2   2   48.04    1.43
   0  -2   2   45.85    1.45
   0  -2   2   47.73    1.46
   0  -2   2   49.92    1.44
   0   2  -1  533.19   13.62
   0  -2   1  525.77   13.81
   0  -2   1  522.29   13.78
   0  -2   0   20.40    0.75
   0  -2   0   19.85    0.72
   0  -2   0   21.77    0.73
   0  -2  -1   36.23    1.16
   0  -2  -1   35.28    1.13
   0  -2  -1   35.73    1.15
   0  -2  -1   38.54    1.19
   0  -2  -2  157.29    4.37
   0  -2  -2  151.03    4.32
   0  -2  -2  153.26    4.33
   0  -2  -3  422.80   11.36
   0  -2  -3  410.40   11.30
   0  -2  -4    0.15    0.06
   0  -2  -4    0.11    0.06
   0  -2  -5   11.58    0.52
   0  -2  -5    7.84    0.36
   0  -2  -6  160.22    4.53
   0  -2  -7   35.39    1.34
   0  -2  -8   12.66    0.72
   0  -2  -8   11.61    0.72
   0  -2  -8   12.73    0.71
   0  -2  -9    0.06    0.09
   0  -2  -9    0.15    0.09
   0  -2  -9    0.34    0.15
   0   2  10   94.93    3.19
   0  -2 -10   96.51    3.24
   0  -2 -10   93.60    3.27
   0  -2 -10   99.78    3.17
   0  -2 -11   43.48    1.86
   0   2  11   41.73    1.81
   0  -2 -11   40.94    1.86
   0  -2 -11   42.87    1.74
   0   2  12    3.67    0.48
   0  -2 -12    2.86    0.45
   0  -2 -12    4.18    0.52
   0  -2 -13    5.59    0.63
   0  -2 -13    5.68    0.62
   0   2  13    5.93    0.63
   0  -2 -14   30.24    1.61
   0   2  14   31.59    1.58
   0  -2 -14   32.91    1.66
   0  -2 -15    0.13    0.18
   0  -2 -15    0.06    0.15
   0  -2 -16    2.13    0.36
   0  -2 -16    1.93    0.33
   0  -2 -17    7.11    0.50
   0  -3  17   15.33    0.71
   0   3 -17   14.71    0.72
   0   3 -16   20.10    1.02
   0  -3  16   21.24    0.98
   0   3 -15    5.17    0.53
   0  -3  15    5.80    0.49
   0   3 -14    0.33    0.18
   0  -3  14    0.35    0.18
   0   3 -13   36.67    1.80
   0   3 -13   40.49    1.77
   0   3 -12    5.99    0.63
   0   3 -12    6.35    0.60
   0   3 -11    1.99    0.36
   0   3 -11    1.72    0.30
   0   3 -10    6.35    0.59
   0   3 -10    6.26    0.53
   0   3  -9  138.75    4.39
   0  -3   9  141.36    4.18
   0   3  -9  144.90    4.25
   0   3  -8   18.08    0.96
   0  -3   8   17.28    0.81
   0   3  -7   38.55    1.52
   0  -3   6  143.22    3.95
   0  -3   5  393.57   10.29
   0  -3   5  395.48   10.24
   0   3  -5  380.08   10.19
   0   3  -4    0.28    0.06
   0  -3   4    0.35    0.10
   0  -3   4    0.36    0.09
   0  -3   4    0.32    0.09
   0  -3   3    0.41    0.10
   0  -3   3    0.53    0.11
   0  -3   2   91.32    2.65
   0  -3   2   91.82    2.65
   0  -3   2   90.32    2.68
   0   3  -1   71.30    1.90
   0  -3   1   72.77    2.14
   0  -3   1   71.25    2.14
   0  -3   1   69.97    2.16
   0  -3   0    5.20    0.36
   0  -3  -1    2.73    0.26
   0  -3  -1    2.27    0.23
   0  -3  -1    2.32    0.23
   0  -3  -2  573.67   15.18
   0  -3  -2  597.19   15.09
   0  -3  -2  568.71   15.17
   0  -3  -2  564.05   15.23
   0  -3  -3  189.22    5.43
   0  -3  -3  201.27    5.28
   0  -3  -3  188.27    5.36
   0  -3  -4   33.31    1.28
   0  -3  -4   35.91    1.37
   0  -3  -5   46.40    1.49
   0  -3  -5   39.83    1.48
   0  -3  -6  132.79    3.87
   0  -3  -7    0.25    0.10
   0  -3  -8    6.13    0.48
   0  -3  -8    5.27    0.44
   0  -3  -9   28.11    1.30
   0  -3  -9   29.45    1.26
   0  -3  -9   29.46    1.29
   0  -3  -9   29.38    1.34
   0  -3 -10  109.35    3.71
   0  -3 -10  121.60    3.78
   0  -3 -10  117.65    3.70
   0  -3 -11    1.25    0.28
   0  -3 -11    1.49    0.31
   0   3  11    1.02    0.28
   0  -3 -12    4.93    0.54
   0  -3 -12    4.70    0.54
   0   3  12    4.53    0.57
   0  -3 -13   37.57    1.75
   0   3  13   34.10    1.72
   0  -3 -13   37.24    1.70
   0  -3 -14   13.72    0.92
   0   3  14   14.59    0.96
   0  -3 -14   13.85    0.96
   0  -3 -15    1.75    0.31
   0  -3 -15    1.80    0.33
   0  -3 -16    0.72    0.19
   0  -3 -16    0.59    0.20
   0  -4  17   20.37    0.83
   0  -4  16    1.22    0.22
   0   4 -16    0.98    0.19
   0  -4  15    1.92    0.29
   0  -4  15    2.08    0.31
   0   4 -15    2.70    0.34
   0   4 -14   25.31    1.22
   0  -4  14   23.85    1.23
   0  -4  14   25.28    1.20
   0   4 -13   50.59    2.30
   0   4 -13   63.18    2.21
   0   4 -12    0.06    0.12
   0   4 -12    0.29    0.16
   0   4 -11    2.15    0.38
   0   4 -11    2.70    0.34
   0  -4  10   25.51    0.98
   0   4 -10   25.40    1.13
   0   4 -10   22.63    1.28
   0  -4   9   79.05    2.38
   0   4  -9   76.76    2.79
   0   4  -9   78.60    2.51
   0   4  -8   15.20    0.91
   0  -4   7   -0.01    0.04
   0  -4   6  439.18   11.70
   0   4  -5   23.87    0.79
   0  -4   5   25.55    1.02
   0  -4   5   23.84    0.95
   0  -4   4   34.11    1.23
   0   4  -4   32.97    1.01
   0  -4   4   32.20    1.26
   0  -4   4   34.38    1.23
   0  -4   3   33.39    1.22
   0  -4   3   32.92    1.27
   0  -4   3   33.12    1.22
   0  -4   2   74.70    2.32
   0  -4   2   74.28    2.32
   0  -4   1   17.61    0.81
   0  -4   1   16.59    0.76
   0   4  -1   16.59    0.51
   0  -4   1   17.04    0.76
   0  -4   0   65.56    2.15
   0  -4  -1   93.09    2.81
   0  -4  -1   87.29    2.72
   0  -4  -1   86.17    2.71
   0  -4  -2  549.52   14.47
   0  -4  -2  538.33   14.56
   0  -4  -2  546.54   14.46
   0  -4  -3   15.00    0.69
   0  -4  -3   14.99    0.76
   0  -4  -3   14.46    0.80
   0  -4  -4    6.30    0.52
   0  -4  -4    6.20    0.48
   0  -4  -5  145.67    4.77
   0  -4  -5  177.42    4.71
   0  -4  -6   37.35    1.44
   0  -4  -7    6.04    0.47
   0   4   7    3.75    0.39
   0  -4  -7    4.49    0.39
   0  -4  -7    5.19    0.45
   0  -4  -8    0.34    0.14
   0  -4  -8    0.25    0.13
   0   4   8    0.07    0.10
   0  -4  -8    0.10    0.10
   0  -4  -8    0.21    0.10
   0  -4  -9   85.57    2.94
   0  -4  -9   91.81    3.00
   0  -4  -9   85.33    2.88
   0  -4  -9   87.30    2.95
   0  -4 -10   24.63    1.22
   0  -4 -10   26.65    1.26
   0  -4 -10   25.02    1.25
   0   4  11    4.13    0.55
   0  -4 -11    5.91    0.55
   0  -4 -12    9.42    0.76
   0  -4 -12    9.56    0.72
   0   4  12    8.32    0.76
   0   4  13   47.62    1.98
   0  -4 -13   47.14    1.98
   0  -4 -13   43.85    1.85
   0  -4 -14    0.55    0.22
   0  -4 -14    0.68    0.21
   0  -4 -15    0.88    0.17
   0  -4 -15    0.92    0.22
   0  -4 -15    1.02    0.21
   0  -4 -16    8.69    0.55
   0  -5  16    3.27    0.32
   0  -5  16    2.65    0.25
   0  -5  15    2.37    0.32
   0  -5  15    2.51    0.32
   0   5 -14   47.62    1.73
   0  -5  14   47.17    1.82
   0  -5  14   43.41    1.84
   0   5 -13    5.45    0.47
   0  -5  13    5.05    0.53
   0  -5  13    5.23    0.50
   0   5 -13    4.28    0.56
   0   5 -12    2.39    0.42
   0   5 -12    3.32    0.36
   0  -5  12    2.74    0.35
   0  -5  11    0.63    0.14
   0   5 -11    0.57    0.22
   0   5 -10   56.24    2.39
   0  -5  10   61.88    1.98
   0  -5   9    3.44    0.31
   0   5  -9    3.18    0.44
   0  -5   8   11.76    0.63
   0  -5   8   13.28    0.64
   0  -5   7  111.07    3.35
   0  -5   6  292.46    7.82
   0  -5   6  278.71    7.91
   0  -5   5    1.29    0.20
   0  -5   5    1.27    0.22
   0  -5   4    8.61    0.58
   0  -5   4    8.03    0.53
   0  -5   3  146.23    4.37
   0  -5   3  146.84    4.28
   0  -5   3  147.40    4.29
   0  -5   2  110.91    3.39
   0  -5   2  113.34    3.40
   0  -5   1   21.08    0.96
   0  -5   1   21.70    0.97
   0  -5   1   20.71    1.00
   0  -5   0    4.15    0.41
   0  -5  -1  312.18    8.44
   0  -5  -1  302.80    8.33
   0  -5  -1  293.77    8.33
   0  -5  -2   69.95    2.41
   0  -5  -2   67.52    2.31
   0  -5  -3   11.81    0.75
   0  -5  -3   11.50    0.69
   0  -5  -4   28.68    1.33
   0  -5  -5  186.49    5.58
   0  -5  -6    8.46    0.55
   0  -5  -7    7.50    0.51
   0  -5  -7    7.06    0.59
   0  -5  -7    8.35    0.57
   0  -5  -8   27.30    1.16
   0  -5  -8   26.70    1.27
   0  -5  -8   28.83    1.27
   0  -5  -9   66.64    2.39
   0  -5  -9   63.79    2.26
   0  -5  -9   63.86    2.38
   0  -5 -10    2.98    0.37
   0  -5 -10    2.71    0.39
   0  -5 -10    2.69    0.37
   0  -5 -11    7.03    0.54
   0  -5 -11    7.36    0.64
   0  -5 -11    6.16    0.54
   0  -5 -11    5.72    0.61
   0   5  11    6.37    0.64
   0  -5 -12   38.81    1.62
   0   5  12   40.03    1.72
   0  -5 -13   22.65    1.09
   0  -5 -14    0.39    0.15
   0  -5 -15    0.43    0.10
   0  -6  16    0.89    0.14
   0  -6  16    1.07    0.19
   0  -6  15   15.38    0.79
   0  -6  15   15.31    0.82
   0  -6  14   52.44    2.01
   0  -6  14   52.68    1.97
   0  -6  13    0.47    0.18
   0  -6  13    0.39    0.12
   0  -6  13    0.48    0.23
   0  -6  12    3.83    0.34
   0  -6  12    3.95    0.47
   0  -6  12    3.97    0.43
   0   6 -12    2.75    0.47
   0  -6  11   32.31    1.57
   0  -6  11   37.90    1.39
   0   6 -11   34.86    1.82
   0  -6  11   37.73    1.54
   0   6 -10   26.35    1.49
   0  -6  10   27.39    1.11
   0  -6  10   26.67    1.20
   0  -6   9    5.96    0.45
   0   6  -9    5.63    0.63
   0  -6   9    5.92    0.49
   0  -6   8    1.01    0.20
   0  -6   8    1.13    0.20
   0  -6   8    1.02    0.19
   0  -6   7  128.79    3.80
   0  -6   7  134.52    3.97
   0  -6   7  131.85    3.76
   0  -6   6   26.15    1.23
   0  -6   5   32.76    1.36
   0  -6   5   33.16    1.44
   0  -6   4   20.26    1.07
   0  -6   4   21.78    1.03
   0  -6   3  290.99    8.08
   0  -6   3  288.03    8.16
   0  -6   2    3.69    0.38
   0  -6   2    3.75    0.39
   0  -6   1   20.61    1.08
   0  -6   1   21.43    1.04
   0  -6   1   21.26    1.04
   0  -6   0   76.75    2.68
   0  -6  -1   96.13    3.10
   0  -6  -1   94.01    3.19
   0  -6  -2   14.47    0.85
   0  -6  -2   14.90    0.92
   0  -6  -3   10.78    0.71
   0  -6  -3   11.16    0.79
   0  -6  -4  130.23    4.19
   0  -6  -5  135.29    4.49
   0  -6  -5  142.73    4.33
   0  -6  -5  141.48    4.17
   0  -6  -5  143.85    4.12
   0  -6  -6    7.70    0.54
   0   6   6    6.43    0.60
   0  -6  -6    8.63    0.64
   0  -6  -6    8.41    0.56
   0   6   7    1.28    0.28
   0  -6  -7    1.28    0.27
   0  -6  -7    1.97    0.28
   0  -6  -7    1.40    0.23
   0  -6  -8   89.35    2.80
   0  -6  -8   90.68    3.03
   0  -6  -8   94.53    3.01
   0  -6  -9    0.88    0.22
   0  -6  -9    0.60    0.16
   0  -6  -9    0.68    0.20
   0  -6 -10    2.04    0.33
   0  -6 -10    1.77    0.27
   0  -6 -11    8.17    0.66
   0  -6 -11    7.32    0.66
   0  -6 -12   37.62    1.65
   0  -6 -12   39.03    1.62
   0  -6 -13    7.45    0.53
   0  -6 -13    6.06    0.53
   0  -6 -14    1.72    0.21
   0  -6 -14    1.60    0.26
   0  -6 -15    8.17    0.47
   0  -7  17    0.04    0.05
   0  -7  16    0.03    0.05
   0  -7  15   21.80    0.93
   0  -7  15   23.07    1.02
   0  -7  14    6.92    0.55
   0  -7  14    6.62    0.52
   0  -7  13    9.52    0.55
   0  -7  13    9.39    0.67
   0  -7  13    8.49    0.66
   0  -7  12   13.54    0.70
   0  -7  12   10.65    0.79
   0   7 -12    9.97    0.93
   0  -7  12   12.54    0.80
   0  -7  11   70.34    2.20
   0   7 -11   56.12    2.65
   0  -7  11   65.91    2.33
   0  -7  11   56.50    2.35
   0  -7  10    0.21    0.13
   0  -7  10    0.21    0.21
   0  -7  10    0.15    0.14
   0   7 -10    0.12    0.18
   0  -7   9    0.98    0.21
   0  -7   9    0.83    0.25
   0  -7   9    1.13    0.22
   0  -7   8   11.42    0.81
   0  -7   8   12.97    0.72
   0  -7   8   12.09    0.80
   0  -7   8   13.29    0.76
   0  -7   7   63.79    2.38
   0  -7   7   62.06    2.06
   0  -7   7   65.52    2.15
   0  -7   6    0.01    0.08
   0  -7   6    0.22    0.16
   0  -7   6    0.36    0.11
   0  -7   6    0.08    0.07
   0  -7   6    0.23    0.09
   0  -7   6    0.18    0.13
   0  -7   5   18.90    1.00
   0  -7   5   19.39    1.02
   0  -7   5   19.14    1.09
   0  -7   5   18.59    0.80
   0  -7   5   18.73    0.87
   0  -7   5   18.33    1.03
   0  -7   4  207.16    5.78
   0  -7   4  205.01    5.72
   0  -7   4  214.77    6.10
   0  -7   4  200.88    5.88
   0  -7   4  220.62    6.25
   0  -7   3  137.22    3.88
   0  -7   3  142.75    4.37
   0  -7   3  130.30    4.00
   0  -7   3  144.32    4.26
   0  -7   3  131.75    3.90
   0  -7   2   23.73    0.95
   0  -7   2   26.21    1.22
   0  -7   1    8.88    0.65
   0  -7   1    8.60    0.70
   0  -7   1    7.36    0.48
   0  -7   1    8.80    0.49
   0  -7   0   71.57    2.30
   0  -7   0   77.18    2.75
   0  -7  -1    6.24    0.43
   0  -7  -1    6.12    0.55
   0  -7  -1    5.93    0.59
   0  -7  -2    5.30    0.56
   0  -7  -2    5.22    0.48
   0  -7  -2    4.16    0.46
   0  -7  -3    4.49    0.39
   0  -7  -3    4.07    0.49
   0  -7  -4  203.48    5.58
   0  -7  -4  197.13    5.53
   0  -7  -4  200.40    6.11
   0  -7  -4  197.91    5.66
   0  -7  -5   10.02    0.82
   0  -7  -5   11.21    0.64
   0  -7  -6   14.53    0.79
   0  -7  -7   53.25    1.96
   0  -7  -8   33.03    1.29
   0  -7  -8   34.40    1.46
   0  -7  -9    4.85    0.48
   0  -7 -10    1.91    0.31
   0  -7 -10    1.77    0.33
   0  -7 -11   20.06    1.05
   0  -7 -11   19.64    1.07
   0  -7 -11   20.76    1.07
   0  -7 -12   16.93    0.93
   0  -7 -12   18.87    0.92
   0  -7 -12   20.00    0.95
   0  -7 -13    0.85    0.19
   0  -7 -13    0.98    0.17
   0  -7 -14    0.10    0.06
   0  -8  16    1.79    0.17
   0  -8  16    2.05    0.22
   0  -8  16    1.44    0.13
   0  -8  15   15.42    0.67
   0  -8  15   16.56    0.79
   0  -8  14    1.25    0.23
   0  -8  14    1.15    0.20
   0  -8  13    1.08    0.24
   0  -8  13    1.13    0.19
   0  -8  13    0.90    0.22
   0  -8  12   50.73    1.94
   0  -8  12   51.29    1.80
   0  -8  12   50.56    1.95
   0  -8  11   23.87    1.16
   0  -8  11   23.76    1.22
   0  -8  11   23.94    1.07
   0  -8  10    3.88    0.43
   0  -8  10    3.60    0.38
   0  -8  10    3.23    0.43
   0   8 -10    3.21    0.54
   0  -8   9    0.06    0.13
   0  -8   9    0.11    0.11
   0  -8   9    0.03    0.16
   0  -8   8   25.45    1.05
   0  -8   8   26.48    1.09
   0  -8   8   25.89    1.33
   0  -8   8   27.14    1.18
   0  -8   7   11.78    0.59
   0  -8   7   11.00    0.84
   0  -8   7   11.93    0.70
   0  -8   7   10.80    0.64
   0  -8   6   19.91    1.19
   0  -8   6   20.01    1.03
   0  -8   6   19.49    0.88
   0  -8   6   19.96    0.94
   0  -8   6   18.82    1.02
   0  -8   6   20.28    0.85
   0  -8   6   20.09    0.97
   0  -8   6   20.84    0.95
   0  -8   5   17.43    0.82
   0  -8   5   18.73    0.96
   0  -8   5   18.34    0.80
   0  -8   5   19.05    1.15
   0  -8   5   20.19    0.99
   0  -8   5   17.69    1.02
   0  -8   4  236.42    6.88
   0  -8   4  249.01    6.90
   0  -8   4  263.89    7.33
   0  -8   4  246.71    6.99
   0  -8   4  274.52    7.11
   0  -8   4  247.96    7.08
   0  -8   4  254.71    6.87
   0  -8   4  254.13    7.49
   0  -8   4  252.31    7.16
   0  -8   4  246.67    6.94
   0  -8   3    0.96    0.17
   0  -8   3    0.96    0.32
   0  -8   3    1.12    0.25
   0  -8   3    0.89    0.19
   0  -8   3    0.54    0.16
   0  -8   3    0.99    0.18
   0  -8   3    0.74    0.15
   0  -8   3    0.71    0.20
   0  -8   3    1.45    0.32
   0  -8   2    3.59    0.38
   0  -8   2    3.15    0.30
   0  -8   2    3.31    0.31
   0  -8   2    3.74    0.45
   0  -8   2    3.30    0.33
   0  -8   2    3.70    0.32
   0  -8   1   60.03    2.08
   0  -8   1   63.53    2.03
   0  -8   1   61.47    2.02
   0  -8   1   64.73    2.43
   0  -8   1   64.53    2.17
   0  -8   0   40.21    1.49
   0  -8   0   39.20    1.39
   0  -8   0   38.35    1.39
   0  -8   0   39.06    1.74
   0  -8   0   39.62    1.50
   0  -8   0   37.09    1.49
   0  -8   0   43.24    1.91
   0  -8  -1    3.47    0.36
   0  -8  -1    3.69    0.32
   0  -8  -1    4.45    0.54
   0  -8  -1    3.55    0.30
   0  -8  -1    2.89    0.35
   0  -8  -1    3.13    0.34
   0  -8  -2    7.56    0.54
   0  -8  -2    8.26    0.58
   0  -8  -2    8.90    0.78
   0  -8  -2    8.97    0.63
   0  -8  -2    7.47    0.49
   0  -8  -3   79.38    2.52
   0  -8  -3   76.66    2.55
   0  -8  -3   74.95    2.40
   0  -8  -3   79.93    2.69
   0  -8  -3   72.72    2.91
   0  -8  -4   63.24    2.56
   0  -8  -4   65.63    2.18
   0  -8  -4   60.61    2.04
   0  -8  -4   65.09    2.20
   0  -8  -5   11.51    0.66
   0  -8  -5   11.69    0.81
   0  -8  -5   11.02    0.67
   0  -8  -6    1.62    0.33
   0  -8  -6    1.34    0.23
   0  -8  -6    1.43    0.24
   0  -8  -7   69.23    2.38
   0  -8  -7   66.75    2.25
   0  -8  -7   74.69    2.63
   0  -8  -8    4.25    0.36
   0  -8  -8    5.03    0.46
   0  -8  -8    4.77    0.52
   0  -8  -9    1.37    0.29
   0  -8  -9    1.38    0.25
   0  -8 -10    5.04    0.49
   0  -8 -10    4.65    0.44
   0  -8 -10    6.05    0.52
   0  -8 -11   24.96    1.13
   0  -8 -11   24.65    1.09
   0  -8 -12    0.76    0.15
   0  -8 -12    0.65    0.16
   0  -8 -13    2.30    0.22
   0  -8 -13    2.07    0.19
   0  -9  15    1.90    0.22
   0  -9  15    1.67    0.16
   0  -9  14    2.84    0.26
   0  -9  14    2.89    0.31
   0  -9  13    9.74    0.53
   0  -9  13    9.11    0.61
   0  -9  13    9.47    0.57
   0  -9  12   49.55    1.79
   0  -9  12   48.36    1.86
   0  -9  12   47.97    1.69
   0  -9  11    0.47    0.16
   0  -9  11    0.93    0.24
   0  -9  11    0.84    0.23
   0  -9  10    3.13    0.40
   0  -9  10    3.45    0.36
   0   9 -10    2.14    0.45
   0  -9  10    3.68    0.44
   0  -9   9   16.45    0.95
   0  -9   9   12.80    0.77
   0  -9   8   25.25    1.06
   0  -9   8   24.88    1.36
   0  -9   8   25.92    1.11
   0  -9   8   26.28    1.17
   0  -9   8   28.39    1.32
   0  -9   7    4.59    0.41
   0  -9   7    4.90    0.57
   0  -9   7    4.76    0.43
   0  -9   7    4.90    0.47
   0  -9   7    4.81    0.49
   0  -9   6    1.23    0.24
   0  -9   6    1.00    0.27
   0  -9   6    1.01    0.18
   0  -9   6    1.27    0.27
   0  -9   6    1.20    0.22
   0  -9   5   58.79    2.44
   0  -9   5   58.26    2.12
   0  -9   5   56.60    2.12
   0  -9   5   57.29    1.99
   0  -9   5   58.58    1.92
   0  -9   5   58.18    2.03
   0  -9   5   55.60    2.03
   0  -9   4   42.72    1.69
   0  -9   4   42.96    1.71
   0  -9   4   40.83    1.49
   0  -9   4   43.67    1.57
   0  -9   4   40.76    1.60
   0  -9   4   42.16    1.56
   0  -9   4   41.66    1.96
   0  -9   4   41.10    1.59
   0  -9   3    9.09    0.57
   0  -9   3    9.25    0.83
   0  -9   3    9.54    0.56
   0  -9   3    9.37    0.66
   0  -9   3   10.09    0.64
   0  -9   3   10.05    0.59
   0  -9   2    1.82    0.23
   0  -9   2    2.04    0.25
   0  -9   2    1.65    0.25
   0  -9   2    2.06    0.25
   0  -9   2    1.63    0.36
   0  -9   1   84.70    2.73
   0  -9   1   91.29    2.88
   0  -9   1   96.19    3.46
   0  -9   1   86.10    2.68
   0  -9   1   97.66    2.95
   0  -9   0   12.06    0.60
   0  -9   0   14.69    1.07
   0  -9   0   12.60    0.65
   0  -9   0   14.26    0.78
   0  -9   0   13.48    0.70
   0  -9   0   14.00    0.77
   0  -9  -1   14.39    0.73
   0  -9  -1   14.04    0.82
   0  -9  -1   12.90    0.76
   0  -9  -1   14.63    1.08
   0  -9  -1   13.73    0.78
   0  -9  -1   13.11    0.79
   0  -9  -2   12.06    0.76
   0  -9  -2   12.64    0.78
   0  -9  -2   12.36    0.67
   0  -9  -2   13.31    1.02
   0  -9  -2   12.83    0.74
   0  -9  -2   11.65    0.73
   0  -9  -3   62.06    2.21
   0  -9  -3   61.09    2.20
   0  -9  -3   61.22    2.61
   0  -9  -3   61.46    2.15
   0  -9  -3   62.75    2.07
   0  -9  -3   64.23    2.28
   0  -9  -4   -0.04    0.12
   0  -9  -4    0.34    0.17
   0  -9  -4    0.11    0.13
   0  -9  -4    0.08    0.10
   0  -9  -4    0.17    0.10
   0  -9  -5    5.63    0.41
   0  -9  -5    6.66    0.50
   0  -9  -5    5.60    0.48
   0  -9  -6   27.41    1.16
   0  -9  -6   29.71    1.36
   0  -9  -7   44.76    1.61
   0  -9  -7   48.55    1.88
   0  -9  -8    0.08    0.09
   0  -9  -8    0.19    0.15
   0  -9  -9    0.90    0.22
   0  -9  -9    0.81    0.21
   0  -9 -10   20.26    0.97
   0  -9 -10   20.01    0.92
   0  -9 -11    5.92    0.40
   0  -9 -11    6.35    0.43
   0  -9 -11    6.54    0.42
   0  -9 -12    2.80    0.23
   0  -9 -12    2.66    0.22
   0 -10  15    0.05    0.04
   0 -10  14    0.21    0.08
   0 -10  14    0.24    0.10
   0 -10  13   11.07    0.55
   0 -10  13   12.21    0.63
   0 -10  13   11.63    0.55
   0 -10  12   15.40    0.74
   0 -10  12   16.27    0.74
   0 -10  12   15.96    0.82
   0 -10  11    7.80    0.53
   0 -10  11    7.87    0.59
   0 -10  11    8.23    0.53
   0 -10  10    0.13    0.15
   0 -10  10    0.02    0.10
   0 -10   9   50.59    1.85
   0 -10   9   52.22    1.98
   0 -10   8    2.84    0.27
   0 -10   8    3.21    0.33
   0 -10   8    3.15    0.32
   0 -10   8    3.68    0.38
   0 -10   8    3.24    0.36
   0 -10   8    3.04    0.40
   0 -10   7    4.22    0.45
   0 -10   7    3.17    0.47
   0 -10   7    3.53    0.37
   0 -10   7    3.91    0.38
   0 -10   7    3.87    0.36
   0 -10   6    9.46    0.67
   0 -10   6    8.35    0.56
   0 -10   6    8.61    0.60
   0 -10   6    7.45    0.75
   0 -10   6    8.92    0.59
   0 -10   5   43.54    1.67
   0 -10   5   45.63    1.56
   0 -10   5   42.50    2.03
   0 -10   5   39.93    1.58
   0 -10   5   41.43    1.56
   0 -10   5   43.56    1.74
   0 -10   4    0.37    0.17
   0 -10   4    0.10    0.10
   0 -10   4    0.11    0.15
   0 -10   4    0.09    0.10
   0 -10   4    0.10    0.11
   0 -10   4    0.08    0.10
   0 -10   3    4.21    0.58
   0 -10   3    3.83    0.34
   0 -10   3    3.80    0.36
   0 -10   3    4.03    0.41
   0 -10   3    4.37    0.38
   0 -10   3    4.18    0.42
   0 -10   2   46.22    1.66
   0 -10   2   47.73    2.22
   0 -10   2   48.93    1.82
   0 -10   2   46.46    1.76
   0 -10   2   43.91    1.58
   0 -10   2   47.59    1.68
   0 -10   2   47.87    1.83
   0 -10   1   93.61    2.94
   0 -10   1   82.02    2.67
   0 -10   1   90.51    2.86
   0 -10   1   90.12    2.89
   0 -10   1   80.38    2.59
   0 -10   1   94.14    3.45
   0 -10   0    2.47    0.29
   0 -10   0    2.03    0.31
   0 -10   0    2.87    0.36
   0 -10   0    2.32    0.26
   0 -10   0    1.70    0.21
   0 -10   0    2.16    0.42
   0 -10   0    1.94    0.30
   0 -10  -1    0.41    0.18
   0 -10  -1    0.38    0.15
   0 -10  -1    0.36    0.20
   0 -10  -1    0.38    0.18
   0 -10  -1    0.24    0.12
   0 -10  -2   48.27    1.82
   0 -10  -2   48.97    1.76
   0 -10  -2   42.93    1.75
   0 -10  -2   43.74    2.15
   0 -10  -2   43.37    1.72
   0 -10  -3    3.02    0.36
   0 -10  -3    3.25    0.51
   0 -10  -3    3.21    0.36
   0 -10  -3    3.08    0.37
   0 -10  -3    2.64    0.35
   0 -10  -3    3.45    0.37
   0 -10  -4    4.72    0.42
   0 -10  -4    4.15    0.42
   0 -10  -4    4.05    0.40
   0 -10  -4    4.92    0.47
   0 -10  -4    4.49    0.37
   0 -10  -4    4.56    0.43
   0 -10  -5    0.16    0.12
   0 -10  -5    0.40    0.15
   0 -10  -5    0.25    0.16
   0 -10  -6   33.95    1.28
   0 -10  -6   32.00    1.36
   0 -10  -7   16.28    0.88
   0 -10  -7   15.84    0.84
   0 -10  -7   15.97    0.73
   0 -10  -8    5.71    0.49
   0 -10  -8    5.97    0.46
   0 -10  -8    5.84    0.47
   0 -10  -9    5.69    0.42
   0 -10  -9    6.38    0.47
   0 -10  -9    6.10    0.43
   0 -10 -10   18.87    0.77
   0 -10 -10   20.20    0.84
   0 -10 -11    0.74    0.12
   0 -11  14    0.34    0.06
   0 -11  13    9.08    0.46
   0 -11  13    8.66    0.41
   0 -11  12    0.13    0.08
   0 -11  12    0.25    0.10
   0 -11  12    0.10    0.10
   0 -11  11    3.45    0.31
   0 -11  11    3.96    0.36
   0 -11  10   22.00    0.96
   0 -11  10   22.61    1.04
   0 -11   9   26.57    1.12
   0 -11   9   29.96    1.19
   0 -11   9   30.21    1.28
   0 -11   8    3.11    0.37
   0 -11   8    3.10    0.31
   0 -11   8    2.45    0.24
   0 -11   7    0.26    0.16
   0 -11   7    0.17    0.11
   0 -11   7    0.17    0.11
   0 -11   7    0.30    0.13
   0 -11   7    0.32    0.11
   0 -11   6    7.28    0.48
   0 -11   6    7.34    0.52
   0 -11   6    8.63    0.63
   0 -11   6    7.64    0.54
   0 -11   6    8.02    0.57
   0 -11   5    5.76    0.45
   0 -11   5    5.41    0.46
   0 -11   5    5.34    0.64
   0 -11   5    5.16    0.40
   0 -11   5    5.69    0.48
   0 -11   4    6.01    0.42
   0 -11   4    6.64    0.53
   0 -11   4    5.31    0.66
   0 -11   4    6.17    0.47
   0 -11   3    5.73    0.40
   0 -11   3    6.49    0.47
   0 -11   2   81.53    2.68
   0 -11   2   83.10    2.75
   0 -11   2   83.84    2.73
   0 -11   2   80.11    2.54
   0 -11   2   78.45    3.18
   0 -11   2   77.25    2.44
   0 -11   1   11.16    0.62
   0 -11   1   11.89    0.73
   0 -11   1   14.32    0.84
   0 -11   1   12.27    0.77
   0 -11   1   10.53    0.56
   0 -11   1   12.93    0.66
   0 -11   1   12.08    1.01
   0 -11   0   10.22    0.93
   0 -11   0    9.94    0.55
   0 -11   0   11.69    0.75
   0 -11   0   11.18    0.70
   0 -11   0   11.72    0.76
   0 -11  -1   15.88    0.87
   0 -11  -1   14.62    1.13
   0 -11  -1   16.97    0.92
   0 -11  -1   16.50    0.92
   0 -11  -1   15.53    0.85
   0 -11  -2   19.05    0.97
   0 -11  -2   21.56    1.06
   0 -11  -2   21.00    1.01
   0 -11  -2   21.16    1.01
   0 -11  -3    0.67    0.17
   0 -11  -3    0.58    0.15
   0 -11  -3    0.50    0.17
   0 -11  -3    0.59    0.18
   0 -11  -4    2.28    0.30
   0 -11  -4    3.15    0.32
   0 -11  -4    2.65    0.27
   0 -11  -4    2.80    0.33
   0 -11  -5   10.23    0.62
   0 -11  -5   10.03    0.61
   0 -11  -6   26.85    1.11
   0 -11  -6   26.51    1.03
   0 -11  -7    0.14    0.11
   0 -11  -7    0.38    0.15
   0 -11  -8    0.48    0.13
   0 -11  -8    0.51    0.15
   0 -11  -9   18.76    0.76
   0 -11  -9   17.03    0.69
   0 -12  12    3.27    0.22
   0 -12  11    0.16    0.07
   0 -12  11    0.16    0.08
   0 -12  10   30.94    1.10
   0 -12  10   28.87    1.04
   0 -12   9    2.55    0.26
   0 -12   9    2.61    0.24
   0 -12   8    2.45    0.24
   0 -12   8    1.91    0.19
   0 -12   7    2.23    0.25
   0 -12   7    2.46    0.27
   0 -12   7    2.21    0.22
   0 -12   7    2.30    0.24
   0 -12   7    2.28    0.27
   0 -12   6    9.91    0.59
   0 -12   6   10.69    0.55
   0 -12   6   10.88    0.64
   0 -12   6    9.95    0.59
   0 -12   6    9.53    0.52
   0 -12   5    0.23    0.12
   0 -12   5    0.27    0.10
   0 -12   5    0.40    0.12
   0 -12   5    0.33    0.14
   0 -12   5    0.41    0.15
   0 -12   4    2.67    0.31
   0 -12   4    2.53    0.28
   0 -12   4    2.97    0.34
   0 -12   4    2.38    0.24
   0 -12   3   19.81    0.85
   0 -12   3   17.28    0.74
   0 -12   2   33.54    1.36
   0 -12   2   31.78    1.36
   0 -12   2   30.19    1.17
   0 -12   2   31.13    1.31
   0 -12   1    2.24    0.30
   0 -12   1    2.16    0.32
   0 -12   1    2.14    0.29
   0 -12   0    0.54    0.17
   0 -12   0    0.37    0.13
   0 -12   0    0.31    0.15
   0 -12   0    0.41    0.15
   0 -12  -1   22.44    1.05
   0 -12  -1   25.96    1.15
   0 -12  -1   26.12    1.12
   0 -12  -1   24.54    1.09
   0 -12  -1   24.99    1.02
   0 -12  -2    5.88    0.40
   0 -12  -2    5.41    0.43
   0 -12  -2    6.35    0.49
   0 -12  -2    6.95    0.53
   0 -12  -2    5.04    0.42
   0 -12  -2    5.96    0.45
   0 -12  -3    2.37    0.28
   0 -12  -3    2.83    0.31
   0 -12  -3    2.83    0.29
   0 -12  -3    3.15    0.33
   0 -12  -3    2.34    0.24
   0 -12  -4    0.08    0.11
   0 -12  -4    0.06    0.09
   0 -12  -4    0.01    0.07
   0 -12  -5   15.43    0.69
   0 -12  -5   16.08    0.74
   0 -12  -5   15.94    0.76
   0 -12  -6    1.55    0.21
   0 -12  -6    1.31    0.19
   0 -12  -7    4.34    0.30
   0 -12  -8    2.28    0.20
   0 -13  11    3.95    0.22
   0 -13  11    3.55    0.19
   0 -13  10   10.14    0.45
   0 -13  10   10.21    0.41
   0 -13   9    0.62    0.10
   0 -13   8    0.76    0.12
   0 -13   8    0.85    0.14
   0 -13   8    0.57    0.09
   0 -13   7   17.32    0.72
   0 -13   7   15.86    0.64
   0 -13   6    4.92    0.35
   0 -13   6    5.27    0.33
   0 -13   6    5.23    0.36
   0 -13   5    4.13    0.36
   0 -13   5    4.33    0.35
   0 -13   5    4.54    0.32
   0 -13   5    4.06    0.31
   0 -13   4    0.17    0.10
   0 -13   4    0.24    0.11
   0 -13   4    0.32    0.14
   0 -13   3   14.67    0.68
   0 -13   2    1.32    0.19
   0 -13   2    1.64    0.25
   0 -13   2    1.41    0.22
   0 -13   1    2.92    0.30
   0 -13   1    2.68    0.31
   0 -13   0    1.86    0.21
   0 -13   0    1.96    0.24
   0 -13   0    1.97    0.26
   0 -13  -1   28.66    1.08
   0 -13  -1   25.04    1.02
   0 -13  -1   27.04    1.06
   0 -13  -1   27.34    1.00
   0 -13  -2    0.27    0.09
   0 -13  -2    0.24    0.10
   0 -13  -3    2.30    0.24
   0 -13  -3    2.40    0.22
   0 -13  -5    4.24    0.28
   0 -13  -6    1.63    0.15
   0 -14   9    2.33    0.15
   0 -14   8    0.86    0.11
   0 -14   7    8.66    0.34
   0 -14   6    0.20    0.06
   0 -14   5    0.36    0.09
   0 -14   5    0.39    0.10
   0 -14   4    4.79    0.29
   0 -14   4    4.87    0.33
   0 -14   3    1.75    0.18
   0 -14   2    1.67    0.20
   0 -14   1    1.44    0.18
   0 -14   1    1.60    0.17
   0 -14   0   10.58    0.50
   0 -14   0   10.37    0.46
   0 -14  -1    7.92    0.36
   0 -14  -1    7.98    0.39
   0 -15   3    0.10    0.04
   1 -15   1    4.05    0.20
   1 -15   3    0.70    0.08
   1 -14  -2    1.06    0.12
   1 -14  -1    0.73    0.13
   1 -14  -1    0.97    0.14
   1 -14  -1    1.06    0.13
   1 -14   0    0.01    0.06
   1 -14   0    0.03    0.07
   1 -14   0   -0.01    0.06
   1 -14   1    6.82    0.44
   1 -14   1    7.87    0.44
   1 -14   2    2.25    0.23
   1 -14   2    2.11    0.20
   1 -14   2    2.26    0.24
   1 -14   3    3.75    0.27
   1 -14   4    6.41    0.35
   1 -14   4    6.11    0.38
   1 -14   4    5.56    0.38
   1 -14   5   20.44    0.78
   1 -14   5   21.22    0.77
   1 -14   5   20.04    0.80
   1 -14   5   21.23    0.75
   1 -14   6    0.68    0.11
   1 -14   6    0.48    0.09
   1 -14   7    0.77    0.11
   1 -13  -6    1.40    0.15
   1 -13  -5    3.24    0.26
   1 -13  -3   15.13    0.66
   1 -13  -3   15.34    0.70
   1 -13  -2    0.84    0.16
   1 -13  -2    0.79    0.17
   1 -13  -1    1.81    0.23
   1 -13  -1    1.86    0.25
   1 -13   0    2.01    0.27
   1 -13   1   18.09    0.89
   1 -13   2    0.17    0.14
   1 -13   2    0.09    0.09
   1 -13   2    0.15    0.11
   1 -13   3    0.86    0.17
   1 -13   4   30.42    1.17
   1 -13   4   33.15    1.27
   1 -13   5    4.74    0.36
   1 -13   5    5.29    0.40
   1 -13   5    4.47    0.36
   1 -13   6    4.78    0.35
   1 -13   6    5.00    0.36
   1 -13   6    4.90    0.37
   1 -13   7    0.21    0.07
   1 -13   8    4.47    0.32
   1 -13   9    0.34    0.10
  -1  13  -9    0.23    0.06
   1 -13  10    0.97    0.13
   1 -12  -8    4.17    0.29
   1 -12  -8    4.74    0.30
   1 -12  -7   16.65    0.72
   1 -12  -6    1.81    0.23
   1 -12  -5    0.22    0.14
  -1  12   5    0.52    0.12
   1 -12  -4   33.70    1.35
   1 -12  -4   34.49    1.31
  -1  12   4   36.71    1.30
   1 -12  -4   34.07    1.26
   1 -12  -3    5.34    0.43
   1 -12  -3    4.99    0.44
   1 -12  -2    4.20    0.40
   1 -12  -2    4.83    0.37
   1 -12  -2    4.29    0.42
   1 -12  -1    0.11    0.10
   1 -12  -1    0.02    0.11
   1 -12   0   17.81    0.92
   1 -12   0   15.99    0.78
   1 -12   1    0.62    0.16
   1 -12   1    0.92    0.21
   1 -12   2    5.90    0.51
   1 -12   2    5.60    0.44
   1 -12   2    6.40    0.46
   1 -12   3   10.27    0.62
   1 -12   3   11.11    0.63
   1 -12   4   35.86    1.42
   1 -12   4   39.26    1.51
   1 -12   4   37.61    1.39
   1 -12   5    0.79    0.16
   1 -12   5    0.58    0.17
   1 -12   5    0.70    0.18
   1 -12   6    2.29    0.28
   1 -12   6    2.46    0.25
   1 -12   7   10.70    0.62
   1 -12   8    8.86    0.44
   1 -12   8   10.63    0.58
   1 -12   9    0.09    0.09
   1 -12   9    0.02    0.06
  -1  12 -10    0.13    0.06
   1 -12  10    0.28    0.09
   1 -12  10    0.34    0.11
   1 -12  11    6.44    0.33
   1 -12  11    6.99    0.37
   1 -12  12    1.59    0.13
   1 -12  12    1.31    0.12
   1 -11 -10    3.11    0.22
   1 -11 -10    3.23    0.23
   1 -11  -9    0.15    0.10
   1 -11  -9    0.16    0.09
   1 -11  -8   15.39    0.73
   1 -11  -7    0.95    0.20
  -1  11   7    0.92    0.17
   1 -11  -6    1.82    0.27
  -1  11   6    2.30    0.27
   1 -11  -5    9.42    0.64
   1 -11  -5   10.78    0.64
   1 -11  -4   42.59    1.59
   1 -11  -4   42.98    1.63
   1 -11  -4   42.15    1.46
   1 -11  -3    0.08    0.15
   1 -11  -3    0.06    0.10
   1 -11  -2    5.92    0.53
   1 -11  -2    5.14    0.43
   1 -11  -1   25.31    1.16
   1 -11  -1   26.09    1.59
   1 -11  -1   27.27    1.27
   1 -11  -1   27.10    1.14
   1 -11   0   40.13    1.96
   1 -11   0   43.49    1.60
   1 -11   0   43.15    1.74
   1 -11   0   42.59    2.15
   1 -11   1    1.86    0.42
   1 -11   1    2.05    0.33
   1 -11   2    0.42    0.15
   1 -11   2    0.31    0.18
   1 -11   2    0.25    0.17
   1 -11   3   35.61    1.79
   1 -11   3   37.58    1.43
   1 -11   3   36.43    1.95
   1 -11   4   11.50    0.63
   1 -11   4    8.52    0.49
   1 -11   4   11.10    0.96
   1 -11   4   10.31    0.85
   1 -11   4   10.14    0.65
   1 -11   5    4.45    0.37
   1 -11   5    3.63    0.32
   1 -11   6    1.93    0.25
   1 -11   6    2.10    0.28
   1 -11   6    2.04    0.29
   1 -11   6    2.69    0.37
   1 -11   6    2.55    0.28
   1 -11   7   54.99    2.01
   1 -11   7   52.49    1.81
   1 -11   7   49.32    1.81
   1 -11   7   52.59    1.73
   1 -11   7   51.14    1.87
   1 -11   8    0.81    0.18
   1 -11   8    0.84    0.19
   1 -11   8    0.75    0.22
   1 -11   9    5.85    0.51
   1 -11   9    5.81    0.45
   1 -11   9    5.46    0.43
   1 -11  10    3.79    0.39
  -1  11 -10    3.12    0.27
   1 -11  10    3.87    0.34
   1 -11  10    3.82    0.33
   1 -11  11    5.13    0.42
   1 -11  11    4.92    0.35
   1 -11  11    5.00    0.35
  -1  11 -11    3.87    0.27
   1 -11  12    0.09    0.09
   1 -11  12    0.05    0.08
   1 -11  12    0.11    0.06
   1 -11  13    0.66    0.13
   1 -11  13    0.57    0.10
   1 -10 -11    0.21    0.08
   1 -10 -11    0.20    0.09
   1 -10 -10    1.16    0.19
   1 -10  -9   19.89    0.90
  -1  10   8   16.32    0.79
   1 -10  -8   14.94    0.81
   1 -10  -7    1.10    0.24
  -1  10   7    1.20    0.22
  -1  10   6    0.66    0.19
   1 -10  -6    0.62    0.21
   1 -10  -5   30.02    1.35
   1 -10  -5   32.82    1.35
   1 -10  -5   30.53    1.20
   1 -10  -4   28.29    1.16
   1 -10  -4   25.76    1.12
   1 -10  -4   29.87    1.31
   1 -10  -3   14.46    1.14
   1 -10  -3   13.21    1.00
   1 -10  -3   14.96    0.88
   1 -10  -3   14.86    0.80
   1 -10  -3   14.47    0.77
   1 -10  -2   10.56    0.72
   1 -10  -2    8.90    0.64
   1 -10  -2   11.07    0.70
   1 -10  -2    9.41    0.91
   1 -10  -2    8.58    0.80
   1 -10  -2    9.38    0.60
   1 -10  -1   93.43    2.97
   1 -10  -1   91.83    3.38
   1 -10  -1   91.01    3.03
   1 -10  -1   89.03    3.52
   1 -10  -1   86.60    2.89
   1 -10  -1   90.42    2.86
   1 -10   0    2.65    0.34
   1 -10   0    2.84    0.51
   1 -10   0    3.04    0.47
   1 -10   0    2.88    0.38
   1 -10   0    2.74    0.32
   1 -10   1    4.89    0.46
   1 -10   1    4.11    0.39
   1 -10   1    4.07    0.60
   1 -10   1    3.72    0.43
   1 -10   2    3.19    0.34
   1 -10   2    2.65    0.45
   1 -10   2    2.69    0.37
   1 -10   3   20.80    1.06
   1 -10   3   20.44    1.00
   1 -10   3   18.16    1.29
   1 -10   3   21.12    1.27
   1 -10   3   17.49    0.80
   1 -10   3   19.69    0.93
   1 -10   4    1.07    0.19
   1 -10   4    0.97    0.25
   1 -10   4    1.01    0.28
   1 -10   4    1.36    0.34
   1 -10   4    1.07    0.20
   1 -10   4    1.25    0.23
   1 -10   5    8.32    0.56
   1 -10   5    8.30    0.76
   1 -10   5    8.75    0.59
   1 -10   5    9.34    0.68
   1 -10   5    8.62    0.83
   1 -10   5    8.58    0.55
   1 -10   6   51.83    2.03
   1 -10   6   55.14    1.97
   1 -10   6   48.54    2.29
   1 -10   6   50.13    2.17
   1 -10   6   53.78    1.94
   1 -10   6   54.74    1.82
   1 -10   7   54.34    2.04
   1 -10   7   54.42    1.81
   1 -10   7   50.86    2.28
   1 -10   7   54.68    1.97
   1 -10   7   55.13    2.09
   1 -10   8    4.82    0.50
   1 -10   8    5.28    0.51
   1 -10   8    5.24    0.45
   1 -10   8    4.33    0.34
   1 -10   9    0.10    0.12
   1 -10   9   -0.05    0.15
   1 -10   9    0.16    0.16
   1 -10  10   15.72    0.90
   1 -10  10   14.76    0.78
   1 -10  10   16.90    0.93
   1 -10  11    1.66    0.27
   1 -10  11    1.36    0.21
   1 -10  11    1.79    0.29
  -1  10 -11    1.44    0.19
   1 -10  12    1.07    0.20
   1 -10  12    0.74    0.19
   1 -10  12    0.89    0.15
   1 -10  13    0.73    0.17
   1 -10  14   14.89    0.61
   1 -10  14   15.85    0.68
   1  -9 -12    7.34    0.40
  -1   9  11    2.85    0.25
   1  -9 -11    3.24    0.30
   1  -9 -10    8.04    0.51
   1  -9 -10    9.59    0.59
   1  -9  -9   30.14    1.27
  -1   9   9   33.45    1.34
   1  -9  -8    0.92    0.22
  -1   9   8    1.12    0.24
   1  -9  -7    4.71    0.47
  -1   9   7    5.31    0.50
   1  -9  -6    1.84    0.32
   1  -9  -6    1.73    0.30
   1  -9  -5   66.51    2.19
   1  -9  -5   68.14    2.41
   1  -9  -5   66.03    2.39
   1  -9  -4    0.04    0.11
   1  -9  -4    0.17    0.15
   1  -9  -4    0.12    0.16
   1  -9  -4    0.09    0.15
   1  -9  -4    0.14    0.11
   1  -9  -4    0.09    0.14
   1  -9  -3    5.52    0.50
   1  -9  -3    5.45    0.62
   1  -9  -3    5.53    0.68
   1  -9  -3    5.66    0.45
   1  -9  -3    5.51    0.48
   1  -9  -3    5.90    0.53
   1  -9  -3    5.31    0.51
   1  -9  -2  122.96    3.79
   1  -9  -2  131.06    4.26
   1  -9  -2  126.47    4.23
   1  -9  -2  127.92    3.89
   1  -9  -2  126.13    4.41
   1  -9  -2  119.36    3.74
   1  -9  -2  118.08    3.69
   1  -9  -1   80.96    2.62
   1  -9  -1   78.21    3.14
   1  -9  -1   79.11    3.02
   1  -9  -1   77.02    2.64
   1  -9  -1   79.97    3.02
   1  -9  -1   77.49    2.59
   1  -9  -1   74.48    2.49
   1  -9   0    6.68    0.73
   1  -9   0    7.87    0.64
   1  -9   0    7.02    0.53
   1  -9   0    6.22    0.54
   1  -9   1    0.37    0.17
   1  -9   1    0.41    0.21
   1  -9   1    0.53    0.17
   1  -9   1    0.43    0.22
   1  -9   1    0.17    0.17
   1  -9   2   39.13    1.65
   1  -9   2   44.42    1.76
   1  -9   2   42.93    1.99
   1  -9   2   42.96    1.99
   1  -9   3   18.70    1.00
   1  -9   3   19.73    1.01
   1  -9   3   20.45    1.31
   1  -9   3   18.22    0.92
   1  -9   3   17.52    0.86
   1  -9   3   19.92    1.22
   1  -9   3   19.64    1.21
   1  -9   4    5.85    0.52
   1  -9   4    5.70    0.62
   1  -9   4    6.64    0.71
   1  -9   4    5.98    0.49
   1  -9   4    6.46    0.49
   1  -9   4    6.14    0.45
   1  -9   4    5.73    0.62
   1  -9   5    4.39    0.46
   1  -9   5    4.99    0.57
   1  -9   5    4.15    0.56
   1  -9   5    4.60    0.41
   1  -9   5    5.19    0.41
   1  -9   5    5.28    0.59
   1  -9   5    5.59    0.51
   1  -9   6  109.43    3.78
   1  -9   6  123.26    4.01
   1  -9   6  118.69    4.14
   1  -9   6  116.73    3.57
   1  -9   6  120.83    3.78
   1  -9   6  121.56    3.52
   1  -9   7    1.89    0.23
   1  -9   7    1.38    0.32
   1  -9   7    1.85    0.33
   1  -9   7    1.47    0.26
   1  -9   7    1.73    0.35
   1  -9   7    1.75    0.31
   1  -9   8   11.22    0.64
   1  -9   8   11.22    0.78
   1  -9   8   10.81    0.83
   1  -9   8   11.14    0.71
   1  -9   9   17.24    0.88
   1  -9   9   14.77    1.01
   1  -9   9   17.01    1.00
   1  -9  10   13.87    0.94
   1  -9  10   15.19    0.93
   1  -9  10   14.87    0.79
   1  -9  11    0.09    0.14
   1  -9  11    0.03    0.09
  -1   9 -11    0.01    0.08
  -1   9 -12    0.39    0.11
   1  -9  12    0.50    0.13
   1  -9  12    0.48    0.19
   1  -9  13    8.72    0.60
   1  -9  13    8.35    0.58
   1  -9  14   11.36    0.61
   1  -9  14   12.00    0.65
   1  -9  15    2.27    0.20
   1  -9  15    1.99    0.21
   1  -8 -13   19.09    0.75
  -1   8  12    0.69    0.15
   1  -8 -12    0.56    0.14
   1  -8 -11    0.08    0.10
   1  -8 -10   38.44    1.49
   1  -8  -9   29.78    1.30
  -1   8   9   31.22    1.40
  -1   8   8    4.33    0.49
   1  -8  -8    3.69    0.42
   1  -8  -8    3.91    0.39
   1  -8  -7    2.64    0.37
   1  -8  -7    2.07    0.28
  -1   8   7    2.52    0.37
   1  -8  -6   54.53    2.09
   1  -8  -5   25.55    1.12
   1  -8  -5   25.92    1.23
   1  -8  -5   24.06    1.44
   1  -8  -5   22.82    1.31
   1  -8  -5   23.94    1.04
   1  -8  -4    8.80    0.65
   1  -8  -4    9.32    0.86
   1  -8  -4    8.08    0.74
   1  -8  -4    8.16    0.57
   1  -8  -4    8.32    0.54
   1  -8  -4    8.46    0.55
   1  -8  -4    7.94    0.73
   1  -8  -3   23.24    1.06
   1  -8  -3   26.96    1.21
   1  -8  -3   23.71    1.35
   1  -8  -3   25.86    1.21
   1  -8  -3   24.65    1.47
   1  -8  -3   22.95    1.07
   1  -8  -3   25.02    1.39
   1  -8  -2  165.87    4.73
   1  -8  -2  156.24    4.73
   1  -8  -2  169.38    5.20
   1  -8  -2  165.52    5.18
   1  -8  -2  161.14    5.32
   1  -8  -2  163.48    4.89
   1  -8  -2  162.25    4.84
   1  -8  -1    1.61    0.25
   1  -8  -1    1.76    0.35
   1  -8  -1    1.83    0.28
   1  -8  -1    1.56    0.33
   1  -8  -1    1.41    0.33
   1  -8  -1    2.23    0.37
   1  -8   0   14.42    0.84
   1  -8   0   13.32    0.73
   1  -8   0   12.52    0.75
   1  -8   0   14.91    1.05
   1  -8   1   25.00    1.34
   1  -8   1   24.59    1.39
   1  -8   1   22.14    1.07
   1  -8   1   22.53    1.02
   1  -8   1   23.86    1.16
   1  -8   1   22.93    1.29
   1  -8   2   91.46    3.06
   1  -8   2   81.17    2.74
   1  -8   2   78.53    2.68
   1  -8   2   80.43    2.79
   1  -8   2   89.11    3.07
   1  -8   3    0.27    0.17
   1  -8   3    0.15    0.11
   1  -8   3    0.24    0.14
   1  -8   3    0.70    0.21
   1  -8   3    0.17    0.16
   1  -8   3    0.17    0.16
   1  -8   3    0.44    0.14
   1  -8   4    5.46    0.57
   1  -8   4    5.17    0.50
   1  -8   4    5.27    0.47
   1  -8   4    4.59    0.46
   1  -8   4    4.72    0.57
   1  -8   4    6.07    0.60
   1  -8   4    4.46    0.39
   1  -8   5   59.67    2.19
   1  -8   5   64.46    2.57
   1  -8   5   62.51    2.07
   1  -8   5   66.51    2.47
   1  -8   5   68.33    2.49
   1  -8   6   46.82    1.86
   1  -8   6   50.77    1.68
   1  -8   6   47.50    2.11
   1  -8   6   54.80    2.10
   1  -8   6   47.31    1.70
   1  -8   6   43.05    1.87
   1  -8   6   50.88    2.06
   1  -8   7    5.55    0.42
   1  -8   7    4.83    0.54
   1  -8   7    6.01    0.58
   1  -8   7    5.58    0.61
   1  -8   7    5.93    0.40
   1  -8   8    0.08    0.17
   1  -8   8    0.09    0.11
   1  -8   9   73.72    2.40
   1  -8   9   64.37    2.59
   1  -8  10   18.13    0.89
  -1   8 -10   14.17    1.18
  -1   8 -11    3.98    0.38
   1  -8  11    4.29    0.39
   1  -8  12    1.88    0.36
  -1   8 -12    1.44    0.21
   1  -8  12    1.91    0.24
   1  -8  13   13.47    0.86
   1  -8  14    0.27    0.14
   1  -8  14    0.28    0.16
   1  -8  15    0.99    0.19
   1  -8  15    0.89    0.18
   1  -8  16    3.19    0.20
   1  -7 -13    9.60    0.59
  -1   7  13   10.96    0.59
   1  -7 -12    0.30    0.14
   1  -7 -12    0.41    0.13
  -1   7  12    0.62    0.19
   1  -7 -11    3.68    0.41
   1  -7 -11    4.11    0.39
  -1   7  10   83.65    2.81
   1  -7 -10   78.36    2.58
   1  -7  -9    3.35    0.39
   1  -7  -9    3.37    0.41
  -1   7   9    4.00    0.50
   1  -7  -8   15.06    0.92
   1  -7  -8   13.36    0.81
  -1   7   7   33.82    1.57
   1  -7  -7   31.17    1.34
   1  -7  -7   34.32    1.50
   1  -7  -6   73.65    2.44
   1  -7  -6   71.28    2.71
   1  -7  -5    2.86    0.41
   1  -7  -5    3.77    0.43
   1  -7  -5    3.20    0.47
   1  -7  -5    2.44    0.28
   1  -7  -5    3.24    0.33
   1  -7  -5    3.06    0.43
   1  -7  -5    2.67    0.29
   1  -7  -4    5.12    0.49
   1  -7  -4    4.69    0.57
   1  -7  -4    4.85    0.54
   1  -7  -4    5.22    0.42
   1  -7  -4    5.33    0.56
   1  -7  -3   76.85    2.93
   1  -7  -3   78.62    2.49
   1  -7  -3   83.19    2.70
   1  -7  -3   72.29    2.79
   1  -7  -3   77.30    2.83
   1  -7  -2  103.83    3.23
   1  -7  -2  107.11    3.59
   1  -7  -2  117.11    3.49
   1  -7  -2  105.57    3.70
   1  -7  -2  106.40    3.34
   1  -7  -1    8.80    0.70
   1  -7  -1    9.26    0.55
  -1   7   1    8.50    0.58
   1  -7  -1    9.48    0.76
   1  -7   0    0.62    0.21
  -1   7   0    0.80    0.16
   1  -7   1  264.39    7.16
  -1   7  -1  254.62    6.79
   1  -7   1  250.67    7.26
   1  -7   2   34.41    1.57
   1  -7   2   30.81    1.33
   1  -7   3   25.74    1.34
   1  -7   3   24.45    1.09
   1  -7   3   27.55    1.31
   1  -7   3   27.73    1.23
   1  -7   3   26.28    1.05
   1  -7   4    6.33    0.50
   1  -7   4    7.73    0.68
   1  -7   4    7.78    0.63
   1  -7   4    7.23    0.47
   1  -7   4    8.30    0.62
   1  -7   5   60.84    2.32
   1  -7   5   60.04    1.99
   1  -7   5   61.08    2.40
   1  -7   5   64.84    2.34
   1  -7   6    2.01    0.24
   1  -7   6    2.22    0.36
   1  -7   6    3.21    0.40
   1  -7   6    2.81    0.38
   1  -7   7    8.67    0.60
   1  -7   7    9.10    0.74
   1  -7   7    8.41    0.51
   1  -7   7   10.09    0.73
   1  -7   7    9.69    0.71
   1  -7   8   37.17    1.47
   1  -7   8   31.72    1.34
   1  -7   9  118.11    3.69
   1  -7   9  116.12    3.57
   1  -7  10    0.51    0.15
  -1   7 -10    0.49    0.16
  -1   7 -10    0.41    0.22
   1  -7  10    0.24    0.14
   1  -7  11    1.48    0.27
   1  -7  11    1.47    0.23
  -1   7 -11    1.22    0.22
  -1   7 -12   26.67    1.11
   1  -7  13    3.48    0.45
   1  -7  14    1.64    0.31
   1  -7  15    0.07    0.13
   1  -7  16   14.95    0.67
   1  -7  16   12.88    0.58
   1  -6 -15    6.62    0.40
  -1   6  14   17.00    0.79
   1  -6 -14   15.00    0.80
   1  -6 -13    0.40    0.18
  -1   6  13    0.38    0.17
   1  -6 -12    1.21    0.22
   1  -6 -12    1.63    0.30
   1  -6 -11   31.48    1.40
   1  -6 -11   31.23    1.47
   1  -6 -11   34.18    1.41
   1  -6 -10   57.02    2.07
  -1   6  10   51.43    2.15
   1  -6 -10   50.39    2.03
   1  -6 -10   50.01    1.96
   1  -6  -9    8.86    0.67
   1  -6  -9    8.73    0.81
  -1   6   9   10.17    0.80
   1  -6  -9   11.31    0.78
   1  -6  -9    9.18    0.66
   1  -6  -8    2.67    0.34
   1  -6  -8    2.86    0.36
   1  -6  -8    3.41    0.43
  -1   6   8    3.06    0.42
   1  -6  -8    2.55    0.43
   1  -6  -7  169.07    4.77
   1  -6  -7  132.86    4.80
   1  -6  -7  157.35    4.48
  -1   6   7  142.43    4.65
   1  -6  -6   12.82    0.91
   1  -6  -6   14.12    0.89
   1  -6  -6   13.45    0.87
   1  -6  -6   13.30    0.73
   1  -6  -5    0.94    0.17
   1  -6  -5    0.68    0.20
   1  -6  -5    0.98    0.24
   1  -6  -5    1.33    0.29
   1  -6  -5    0.78    0.22
   1  -6  -5    0.80    0.21
   1  -6  -4    2.49    0.38
   1  -6  -4    2.08    0.32
   1  -6  -4    1.60    0.29
   1  -6  -3  109.23    3.59
   1  -6  -3  116.27    3.72
   1  -6  -2   31.09    1.43
   1  -6  -2   30.05    1.36
   1  -6  -1   39.85    1.63
   1  -6  -1   42.79    1.72
   1  -6   0  187.13    5.41
  -1   6   0  177.68    5.16
   1  -6   1  313.67    9.04
  -1   6  -1  331.87    8.81
  -1   6  -2   11.39    0.61
   1  -6   3    0.96    0.22
  -1   6  -3    1.15    0.18
   1  -6   3    1.11    0.22
   1  -6   4   55.86    2.03
   1  -6   4   54.67    2.08
   1  -6   5   29.58    1.17
   1  -6   5   30.61    1.39
   1  -6   5   30.26    1.32
   1  -6   6    0.95    0.18
   1  -6   6    0.80    0.22
   1  -6   6    1.03    0.22
   1  -6   6    1.28    0.24
  -1   6  -6    0.89    0.19
   1  -6   7    0.64    0.18
   1  -6   7    0.42    0.15
   1  -6   7    0.68    0.20
   1  -6   7    0.55    0.17
   1  -6   8  151.31    4.58
   1  -6   8  159.45    4.53
   1  -6   9   42.79    1.52
   1  -6   9   41.46    1.61
  -1   6 -10   12.78    1.00
   1  -6  10   14.93    0.85
   1  -6  10   15.10    0.75
  -1   6 -10   13.86    0.76
   1  -6  11    3.71    0.42
  -1   6 -11    4.09    0.38
   1  -6  12   32.37    1.37
  -1   6 -12   26.99    1.14
   1  -6  13    0.21    0.14
  -1   6 -13    0.16    0.09
   1  -6  14    0.73    0.26
   1  -6  15    6.42    0.53
   1  -6  16   14.64    0.69
  -1   5  15   20.49    0.88
  -1   5  14   12.02    0.75
   1  -5 -14   10.15    0.71
   1  -5 -13    1.80    0.32
  -1   5  13    1.65    0.32
   1  -5 -13    1.80    0.31
   1  -5 -12    0.10    0.14
   1  -5 -12    0.30    0.18
   1  -5 -12    0.19    0.13
   1  -5 -11   85.18    2.86
   1  -5 -11   85.41    2.75
   1  -5 -10    3.01    0.40
   1  -5 -10    2.39    0.42
  -1   5  10    2.95    0.42
  -1   5  10    2.84    0.42
   1  -5 -10    3.00    0.40
   1  -5  -9    8.82    0.66
   1  -5  -9    6.81    0.68
  -1   5   9    7.55    0.64
   1  -5  -9    6.53    0.58
   1  -5  -8  103.57    3.21
   1  -5  -8   94.17    3.41
  -1   5   8   94.65    3.24
  -1   5   7  120.75    3.87
   1  -5  -7  131.41    3.82
   1  -5  -7  120.21    4.04
   1  -5  -6    2.86    0.36
   1  -5  -6    3.54    0.43
   1  -5  -6    3.42    0.39
   1  -5  -5   14.28    0.83
   1  -5  -5   14.03    0.86
   1  -5  -4   55.51    2.05
   1  -5  -4   54.43    1.98
   1  -5  -3   82.60    2.66
   1  -5  -3   79.65    2.57
   1  -5  -3   74.72    2.62
   1  -5  -2   18.27    0.88
   1  -5  -2   18.72    0.94
   1  -5  -1    3.20    0.32
   1  -5  -1    3.11    0.33
   1  -5   0  416.34   10.90
  -1   5   0  405.95   10.94
   1  -5   0  392.02   10.97
  -1   5  -1   66.64    2.15
   1  -5   1   65.40    2.21
   1  -5   2   52.41    1.81
  -1   5  -2   54.29    1.79
   1  -5   3    9.12    0.59
   1  -5   3    8.62    0.55
  -1   5  -3   10.26    0.57
   1  -5   4  131.07    3.94
   1  -5   4  137.99    4.03
   1  -5   5    2.35    0.28
   1  -5   5    2.01    0.28
   1  -5   6   13.06    0.77
   1  -5   6   12.03    0.70
  -1   5  -6   13.15    0.74
  -1   5  -7   46.46    1.79
   1  -5   7   48.77    1.83
   1  -5   7   45.97    1.67
   1  -5   7   49.76    1.79
   1  -5   7   50.50    1.78
   1  -5   8  124.53    3.78
  -1   5  -8  122.66    3.92
   1  -5   8  130.83    3.70
  -1   5  -9    2.40    0.37
   1  -5   9    2.44    0.31
  -1   5  -9    2.13    0.26
  -1   5  -9    2.50    0.31
  -1   5 -10    0.54    0.17
  -1   5 -10    0.73    0.17
   1  -5  10    0.69    0.19
  -1   5 -10    0.29    0.16
   1  -5  11   80.00    2.67
  -1   5 -11   80.82    2.69
  -1   5 -11   74.37    2.46
  -1   5 -12   20.53    0.93
   1  -5  12   22.30    1.12
  -1   5 -12   21.79    1.11
  -1   5 -13    0.40    0.12
  -1   5 -13    0.56    0.19
   1  -5  13    0.41    0.17
  -1   5 -14    0.51    0.17
   1  -5  14    0.67    0.19
   1  -5  15   15.87    0.90
   1  -5  16    2.69    0.30
   1  -4 -16   14.03    0.71
   1  -4 -15   27.61    1.26
   1  -4 -15   26.44    1.19
  -1   4  15   27.97    1.22
  -1   4  14    0.96    0.25
   1  -4 -14    1.20    0.29
   1  -4 -14    1.08    0.26
   1  -4 -13    2.28    0.38
  -1   4  13    2.18    0.37
   1  -4 -12   34.29    1.40
   1  -4 -12   29.86    1.52
   1  -4 -11   30.48    1.51
   1  -4 -11   28.35    1.52
   1  -4 -10    3.16    0.43
  -1   4  10    2.90    0.40
  -1   4  10    2.76    0.38
   1  -4 -10    2.55    0.41
   1  -4 -10    3.79    0.45
   1  -4  -9    7.73    0.62
   1  -4  -9    6.04    0.61
  -1   4   9    6.75    0.57
  -1   4   9    8.61    0.67
   1  -4  -8  179.61    5.28
  -1   4   8  166.75    5.06
   1  -4  -7   42.00    1.72
  -1   4   7   39.25    1.53
   1  -4  -6   15.67    0.81
   1  -4  -6   16.67    0.87
   1  -4  -6   14.90    0.86
   1  -4  -5   10.21    0.62
   1  -4  -5    8.67    0.56
   1  -4  -4  224.41    6.38
   1  -4  -4  240.18    6.46
   1  -4  -3    8.03    0.48
   1  -4  -3    7.59    0.51
   1  -4  -2   22.37    0.90
   1  -4  -2   22.48    0.97
   1  -4  -1  147.33    4.16
   1  -4  -1  148.59    4.27
   1  -4   0  264.12    7.13
  -1   4   0  263.92    7.38
  -1   4  -1    0.70    0.15
   1  -4   2    0.27    0.09
  -1   4  -2    0.21    0.10
  -1   4  -3  235.97    6.63
   1  -4   3  244.56    6.54
   1  -4   4  156.21    4.51
   1  -4   4  167.35    4.57
   1  -4   5   14.06    0.71
  -1   4  -5   14.42    0.75
   1  -4   5   14.05    0.67
  -1   4  -6    2.25    0.28
   1  -4   6    1.98    0.25
  -1   4  -7  116.67    3.64
   1  -4   7  115.80    3.52
   1  -4   7  119.60    3.47
  -1   4  -8    9.96    0.69
  -1   4  -8   10.02    0.69
   1  -4   8   10.18    0.59
  -1   4  -8   10.60    0.63
  -1   4  -9    9.34    0.54
  -1   4  -9   10.92    0.77
  -1   4  -9    9.34    0.64
  -1   4  -9    8.56    0.66
   1  -4   9    9.98    0.61
   1  -4  10    2.30    0.31
  -1   4 -10    2.43    0.27
  -1   4 -10    2.77    0.36
   1  -4  11   96.40    3.12
  -1   4 -11   92.19    2.91
  -1   4 -11  101.65    3.25
  -1   4 -12    5.55    0.55
  -1   4 -12    5.26    0.40
   1  -4  12    5.13    0.49
  -1   4 -13    6.55    0.61
   1  -4  13    6.76    0.57
  -1   4 -13    6.30    0.44
  -1   4 -14   15.12    0.93
  -1   4 -15   10.61    0.72
   1  -4  16    0.75    0.18
   1  -3 -16   37.58    1.48
   1  -3 -16   34.80    1.42
   1  -3 -15   10.14    0.75
  -1   3  15    8.19    0.63
   1  -3 -15    9.15    0.71
  -1   3  14    5.85    0.56
   1  -3 -14    6.61    0.68
   1  -3 -14    6.59    0.66
  -1   3  13    7.02    0.64
   1  -3 -13    8.10    0.75
   1  -3 -13    7.18    0.73
   1  -3 -12   46.39    2.13
   1  -3 -12   50.70    2.11
   1  -3 -11    1.41    0.31
   1  -3 -11    2.16    0.41
  -1   3  10    3.67    0.42
  -1   3  10    3.56    0.40
   1  -3 -10    3.22    0.44
   1  -3 -10    3.49    0.48
   1  -3  -9   32.55    1.53
  -1   3   9   30.11    1.32
  -1   3   9   34.16    1.45
   1  -3  -8  179.06    5.14
  -1   3   8  159.73    4.83
  -1   3   7    2.42    0.27
   1  -3  -7    2.70    0.35
   1  -3  -6   11.09    0.60
   1  -3  -6    9.63    0.54
   1  -3  -5  299.94    8.36
   1  -3  -5  325.07    8.41
   1  -3  -4   96.31    2.98
   1  -3  -4  100.33    2.86
   1  -3  -3   20.29    0.79
   1  -3  -3   21.05    0.87
   1  -3  -2   14.20    0.66
   1  -3  -1  186.88    5.17
   1  -3   0   82.79    2.47
  -1   3  -1   57.32    1.90
  -1   3  -2   24.81    0.99
   1  -3   3  622.27   15.86
  -1   3  -3  587.64   16.03
   1  -3   4    2.76    0.22
  -1   3  -5   18.22    0.85
   1  -3   5   18.71    0.73
   1  -3   6   86.24    2.56
  -1   3  -6   87.38    2.74
   1  -3   6   83.89    2.51
  -1   3  -7   38.09    1.51
   1  -3   7   36.38    1.28
  -1   3  -7   35.67    1.39
  -1   3  -8    2.05    0.31
  -1   3  -8    2.20    0.29
  -1   3  -8    1.95    0.27
  -1   3  -9    0.32    0.17
  -1   3  -9    0.35    0.15
  -1   3  -9    0.25    0.11
  -1   3  -9    0.25    0.10
   1  -3   9    0.40    0.12
  -1   3 -10   96.71    3.18
   1  -3  10   90.00    2.94
  -1   3 -10   94.46    2.84
  -1   3 -11   69.66    2.62
  -1   3 -11   71.16    2.25
   1  -3  11   67.17    2.37
  -1   3 -12    1.80    0.35
  -1   3 -12    1.97    0.25
   1  -3  12    1.77    0.29
  -1   3 -13    1.16    0.19
  -1   3 -13    0.92    0.28
  -1   3 -14   33.95    1.65
  -1   3 -15    0.80    0.25
   1  -3  16    0.97    0.20
   1  -2 -17    9.63    0.56
   1  -2 -16   35.46    1.55
  -1   2  15    1.12    0.24
   1  -2 -15    1.50    0.35
   1  -2 -14    0.04    0.19
  -1   2  14    0.24    0.17
   1  -2 -13   55.83    2.35
  -1   2  13   53.32    2.06
   1  -2 -12   26.46    1.48
  -1   2  12   26.86    1.33
   1  -2 -12   27.29    1.46
   1  -2 -11    1.37    0.31
   1  -2 -11    2.27    0.39
   1  -2 -10    0.17    0.13
  -1   2  10    0.07    0.08
  -1   2   9  109.69    3.37
   1  -2  -9  103.72    3.51
  -1   2   9  101.50    3.24
  -1   2   8   49.62    1.80
   1  -2  -8   48.75    1.90
  -1   2   8   47.68    1.70
   1  -2  -7   40.51    1.61
   1  -2  -6   94.40    2.66
   1  -2  -6   89.28    2.62
   1  -2  -5  407.27   10.71
   1  -2  -5  408.81   10.95
   1  -2  -4    0.68    0.14
   1  -2  -3    4.72    0.33
   1  -2  -2    3.20    0.25
   1  -2  -1   85.24    2.46
   1  -2   0    1.24    0.14
  -1   2   0    1.17    0.22
  -1   2  -1   23.47    0.94
  -1   2  -2  462.58   12.23
  -1   2  -3  242.42    6.35
  -1   2  -3  270.80    6.76
  -1   2  -4   39.85    1.40
  -1   2  -5   13.89    0.70
   1  -2   5   12.32    0.50
  -1   2  -6  160.29    4.57
   1  -2   6  166.52    4.45
  -1   2  -6  168.65    4.81
  -1   2  -7   13.07    0.76
  -1   2  -7   11.26    0.59
  -1   2  -8    8.56    0.59
  -1   2  -8    9.46    0.69
  -1   2  -9    7.93    0.62
  -1   2  -9    7.04    0.44
  -1   2  -9    7.03    0.53
  -1   2 -10  119.08    3.49
  -1   2 -10  117.30    3.92
  -1   2 -10  120.61    3.76
  -1   2 -11    4.48    0.37
  -1   2 -11    4.30    0.53
  -1   2 -11    3.81    0.45
  -1   2 -12    9.33    0.84
  -1   2 -12   10.20    0.76
  -1   2 -12   10.47    0.60
  -1   2 -13   28.47    1.61
  -1   2 -13   30.25    1.19
  -1   2 -14   22.34    1.38
  -1   2 -15    0.51    0.25
  -1   2 -16    0.25    0.19
   1  -1 -17   25.75    1.09
   1  -1 -17   27.41    1.17
   1  -1 -16    7.58    0.66
   1  -1 -16    7.44    0.68
   1  -1 -15    3.66    0.57
   1  -1 -15    3.93    0.55
  -1   1  15    3.62    0.41
   1  -1 -14   23.54    1.46
   1  -1 -14   23.20    1.54
  -1   1  14   18.61    1.07
  -1   1  13   59.58    2.27
   1  -1 -13   58.71    2.46
   1  -1 -13   63.94    2.69
   1  -1 -13   61.30    2.86
  -1   1  12    2.60    0.37
   1  -1 -12    2.25    0.43
   1  -1 -12    2.51    0.41
   1  -1 -12    2.99    0.57
   1  -1 -11    9.80    0.97
   1  -1 -11    9.15    0.80
   1  -1 -11   10.42    0.81
  -1   1  10   10.60    0.70
   1  -1 -10   10.24    0.78
  -1   1   9  120.84    3.64
   1  -1  -9  112.60    3.78
   1  -1  -8    3.55    0.40
  -1   1   8    4.17    0.38
  -1   1   8    4.16    0.36
  -1   1   7    0.01    0.09
  -1   1   6  372.94    9.21
  -1   1   6  352.55    8.94
  -1   1   5  222.82    5.93
   1  -1  -5  223.79    6.02
  -1   1   5  209.77    5.73
   1  -1  -4   25.38    0.98
   1  -1  -3   12.24    0.56
   1  -1  -2  481.11   12.59
   1  -1  -1   25.91    0.87
   1  -1   0   31.06    0.94
  -1   1   0   28.98    1.12
  -1   1  -1   77.98    2.40
  -1   1  -1   82.23    2.21
  -1   1  -2  411.08   10.59
  -1   1  -2  407.36   10.85
  -1   1  -3    5.67    0.37
  -1   1  -4   18.07    0.62
  -1   1  -4   20.54    0.84
  -1   1  -5  115.45    3.22
  -1   1  -5  117.84    3.23
  -1   1  -6  121.27    3.53
  -1   1  -6  110.81    3.12
  -1   1  -6  113.44    3.17
  -1   1  -6  113.47    3.09
   1  -1   6  115.43    3.08
  -1   1  -7    0.83    0.13
  -1   1  -7    0.69    0.19
  -1   1  -8    1.44    0.26
  -1   1  -8    1.47    0.28
  -1   1  -8    1.34    0.17
  -1   1  -9   88.07    3.00
  -1   1  -9   89.41    3.09
  -1   1  -9   93.00    2.73
  -1   1 -10   34.43    1.26
  -1   1 -10   32.52    1.52
  -1   1 -10   31.39    1.58
  -1   1 -11    7.56    0.74
  -1   1 -11    7.28    0.68
  -1   1 -11    8.45    0.53
  -1   1 -12    1.65    0.40
  -1   1 -12    2.09    0.39
  -1   1 -12    1.76    0.25
  -1   1 -13   44.37    2.29
  -1   1 -13   49.24    2.19
  -1   1 -14    6.17    0.62
  -1   1 -14    5.19    0.68
  -1   1 -15    1.36    0.27
  -1   1 -15    1.30    0.35
  -1   1 -16    4.48    0.57
   1   0 -17   17.05    0.86
   1   0 -17   13.19    0.69
   1   0 -16   -0.03    0.14
   1   0 -16   -0.03    0.17
   1   0 -15    0.04    0.21
   1   0 -15    0.08    0.19
  -1   0  15    0.01    0.08
  -1   0  15    0.02    0.10
   1   0 -14   54.87    2.60
   1   0 -14   59.48    2.63
  -1   0  14   53.90    2.10
   1   0 -13   38.95    2.05
   1   0 -13   39.51    1.87
   1   0 -13   33.55    2.02
  -1   0  13   39.51    1.66
  -1   0  12   11.24    0.75
   1   0 -12    9.72    0.83
   1   0 -12    9.16    0.89
   1   0 -12    8.22    0.92
  -1   0  11    3.16    0.38
   1   0 -11    3.11    0.44
   1   0 -11    2.14    0.47
   1   0 -10  101.67    3.49
  -1   0  10  105.17    3.33
  -1   0   9   11.12    0.67
   1   0  -9   10.96    0.76
  -1   0   8    7.62    0.52
   1   0  -8    7.90    0.60
  -1   0   7   48.20    1.49
  -1   0   7   35.76    1.18
   1   0  -6  318.53    8.15
  -1   0   6  293.11    7.81
  -1   0   6  279.84    7.78
  -1   0   6  315.87    8.02
   1   0  -5    5.00    0.38
  -1   0   5    4.64    0.27
  -1   0   5    5.12    0.29
  -1   0   5    5.36    0.36
  -1   0   4   30.17    1.00
  -1   0   4   32.00    1.03
   1   0  -4   31.51    1.15
  -1   0   4   33.96    1.12
   1   0  -3   40.13    1.33
  -1   0   3   39.83    1.23
  -1   0   3   42.76    1.33
  -1   0   2  219.95    5.87
   1   0  -2  223.80    5.93
   1   0  -1    8.66    0.37
   1   0   0    8.24    0.31
  -1   0   0    7.53    0.34
  -1   0  -1  245.33    6.49
  -1   0  -2   76.11    2.15
  -1   0  -3   14.10    0.63
  -1   0  -3   12.56    0.50
  -1   0  -4    0.17    0.06
  -1   0  -4    0.22    0.06
  -1   0  -4    0.32    0.04
  -1   0  -5  498.06   12.68
  -1   0  -5  485.98   12.72
  -1   0  -5  497.73   13.04
  -1   0  -5  479.49   12.60
  -1   0  -6   87.50    2.46
  -1   0  -6   94.57    2.93
  -1   0  -7   32.36    1.41
  -1   0  -7   28.56    0.97
  -1   0  -8   49.73    1.86
  -1   0  -8   49.38    1.88
   1   0   9   67.28    2.22
  -1   0  -9   58.89    2.32
  -1   0  -9   59.77    2.36
  -1   0  -9   68.57    2.08
  -1   0 -10    0.59    0.23
  -1   0 -10    0.37    0.12
  -1   0 -10    0.31    0.17
  -1   0 -11    2.39    0.41
  -1   0 -11    1.86    0.37
  -1   0 -11    3.05    0.32
  -1   0 -12   18.42    1.27
  -1   0 -12   22.20    1.00
  -1   0 -12   19.40    1.26
  -1   0 -13   39.12    2.08
  -1   0 -13   40.11    2.05
  -1   0 -14    0.31    0.22
  -1   0 -14    0.23    0.12
  -1   0 -14    0.12    0.20
  -1   0 -15    0.40    0.25
  -1   0 -15    0.20    0.18
  -1   0 -16   17.47    1.12
   1   1 -17    4.95    0.42
   1   1 -16    1.07    0.24
   1   1 -16    1.08    0.26
  -1  -1  16    0.91    0.15
   1   1 -15    8.38    0.75
   1   1 -15    6.38    0.67
   1   1 -14   72.21    2.90
   1   1 -14   68.20    2.92
  -1  -1  14   73.42    2.58
   1   1 -13    0.58    0.23
   1   1 -13    0.48    0.24
  -1  -1  13    0.83    0.23
   1   1 -13    0.78    0.31
   1   1 -12   10.20    0.94
   1   1 -12    8.48    0.87
   1   1 -12   10.08    0.85
   1   1 -11   55.15    2.48
   1   1 -11   59.12    2.37
   1   1 -10   80.40    2.91
   1   1  -9    1.40    0.27
  -1  -1   9    1.45    0.23
  -1  -1   8    0.13    0.09
  -1  -1   7   85.90    2.65
   1   1  -6  143.16    4.09
  -1  -1   6  145.49    3.96
   1   1  -5   48.37    1.64
  -1  -1   5   47.56    1.54
  -1  -1   5   44.56    1.44
  -1  -1   4   18.10    0.73
   1   1  -4   18.15    0.78
  -1  -1   4   17.49    0.70
  -1  -1   4   17.11    0.67
  -1  -1   3 1000.00   24.69
   1   1  -3  997.87   24.72
  -1  -1   3  977.97   24.66
   1   1  -2   14.78    0.60
  -1  -1   2   14.73    0.59
  -1  -1   2   14.80    0.59
  -1  -1   2   13.43    0.56
   1   1  -1   10.83    0.43
  -1  -1   1   10.72    0.47
   1   1   0   77.83    2.16
  -1  -1   0   84.17    2.28
  -1  -1   0   77.73    2.27
  -1  -1  -1   97.03    2.45
  -1  -1  -1   92.55    2.41
  -1  -1  -1   95.57    2.46
  -1  -1  -1   91.33    2.44
  -1  -1  -2    4.52    0.31
  -1  -1  -2    4.95    0.30
  -1  -1  -2    4.55    0.27
  -1  -1  -3   30.41    1.01
  -1  -1  -3   30.50    1.04
  -1  -1  -4  144.52    3.98
  -1  -1  -4  148.24    4.22
  -1  -1  -5  321.28    7.98
  -1  -1  -5  320.43    7.56
  -1  -1  -6    3.88    0.25
  -1  -1  -6    3.59    0.20
  -1  -1  -6    4.21    0.43
  -1  -1  -7    1.63    0.25
  -1  -1  -7    1.47    0.23
  -1  -1  -8  108.08    3.45
  -1  -1  -8  105.24    3.43
  -1  -1  -8  110.40    3.19
  -1  -1  -9   11.45    0.79
  -1  -1  -9   11.74    0.63
  -1  -1  -9   10.96    0.78
  -1  -1 -10    6.38    0.62
  -1  -1 -10    6.02    0.46
  -1  -1 -11    2.20    0.40
  -1  -1 -11    2.55    0.31
  -1  -1 -12   41.23    2.06
  -1  -1 -12   52.91    1.86
  -1  -1 -13    8.28    0.81
  -1  -1 -13   10.84    0.69
  -1  -1 -14    3.43    0.51
  -1  -1 -14    4.22    0.40
  -1  -1 -15    5.07    0.57
  -1  -1 -16   18.84    0.99
  -1  -2  17    0.07    0.06
   1   2 -17    0.09    0.08
  -1  -2  17    0.10    0.08
   1   2 -16    0.78    0.20
  -1  -2  16    0.92    0.17
   1   2 -15   19.64    1.07
   1   2 -15   22.47    1.17
   1   2 -14   21.31    1.23
   1   2 -14   22.23    1.27
   1   2 -13    8.72    0.77
   1   2 -13    7.47    0.75
   1   2 -13    7.55    0.74
   1   2 -12   13.47    1.04
   1   2 -12   13.62    0.97
   1   2 -12   14.39    1.04
  -1  -2  11  147.41    4.43
   1   2 -11  143.70    4.68
   1   2 -11  142.91    4.72
  -1  -2  10   12.19    0.71
   1   2 -10    9.51    0.78
  -1  -2   9    4.90    0.40
  -1  -2   8    6.15    0.42
   1   2  -7  153.58    4.55
  -1  -2   7  148.55    4.36
   1   2  -6    6.47    0.49
  -1  -2   6    5.12    0.38
  -1  -2   5   31.41    1.14
  -1  -2   5   31.30    1.17
  -1  -2   4  234.96    6.47
   1   2  -4  247.16    6.63
  -1  -2   3  396.86   10.48
  -1  -2   2    7.30    0.36
  -1  -2   2    7.15    0.28
  -1  -2   1    0.14    0.05
  -1  -2   1    0.12    0.08
  -1  -2   1    0.03    0.04
  -1  -2   1    0.03    0.06
  -1  -2   0  153.22    4.20
  -1  -2   0  157.73    4.28
  -1  -2   0  155.20    4.18
  -1  -2  -1   52.12    1.60
  -1  -2  -1   50.29    1.59
  -1  -2  -2   16.30    0.66
  -1  -2  -2   14.60    0.69
  -1  -2  -3    0.85    0.16
  -1  -2  -3    0.75    0.13
  -1  -2  -4  397.50   10.54
  -1  -2  -5   51.72    1.66
  -1  -2  -6   26.58    0.96
  -1  -2  -7   63.86    2.18
  -1  -2  -7   61.23    2.12
  -1  -2  -8   99.30    3.19
  -1  -2  -8   99.43    2.95
  -1  -2  -8   98.96    3.14
  -1  -2  -8   90.53    2.96
  -1  -2  -9    0.42    0.18
  -1  -2  -9    0.58    0.19
  -1  -2  -9    0.22    0.11
  -1  -2 -10    2.21    0.37
  -1  -2 -10    2.89    0.41
  -1  -2 -10    2.64    0.32
  -1  -2 -11   24.58    1.36
  -1  -2 -11   23.23    1.30
  -1  -2 -11   27.87    1.23
  -1  -2 -12   35.11    1.72
  -1  -2 -12   37.95    1.82
  -1  -2 -13    0.53    0.17
  -1  -2 -13    0.17    0.16
  -1  -2 -13    0.49    0.24
  -1  -2 -14    0.46    0.21
  -1  -2 -14    0.34    0.19
  -1  -2 -14    0.35    0.14
  -1  -2 -15   22.22    1.15
  -1  -2 -15   22.29    1.20
  -1  -3  17    1.64    0.18
  -1  -3  17    1.32    0.18
   1   3 -17    1.28    0.17
   1   3 -16    2.31    0.28
   1   3 -15   37.74    1.54
   1   3 -14    0.21    0.15
   1   3 -13    1.97    0.34
   1   3 -13    2.29    0.36
   1   3 -13    1.60    0.36
   1   3 -12   68.28    2.55
   1   3 -12   63.41    2.68
   1   3 -12   66.20    2.46
  -1  -3  12   68.61    2.41
  -1  -3  11   97.78    3.12
   1   3 -11   95.58    3.21
   1   3 -11   95.08    3.46
   1   3 -10    3.33    0.39
  -1  -3  10    3.51    0.36
   1   3 -10    2.27    0.38
  -1  -3  10    3.10    0.28
  -1  -3   9    4.03    0.32
  -1  -3   9    3.87    0.36
   1   3  -8   77.49    2.82
  -1  -3   8   82.21    2.51
   1   3  -7   26.50    1.25
  -1  -3   7   25.94    1.16
   1   3  -6   28.75    1.24
  -1  -3   6   25.62    1.13
  -1  -3   5   19.81    0.91
  -1  -3   4  373.80   10.07
  -1  -3   3   47.32    1.62
  -1  -3   3   46.91    1.38
  -1  -3   2   45.04    1.27
  -1  -3   1   47.34    1.58
  -1  -3   0  306.27    8.24
  -1  -3  -1    2.87    0.28
  -1  -3  -2   17.67    0.79
  -1  -3  -3  139.34    4.03
  -1  -3  -4  117.17    3.44
  -1  -3  -5    5.48    0.40
  -1  -3  -6    0.90    0.15
  -1  -3  -7  120.12    3.77
  -1  -3  -7  123.83    3.80
  -1  -3  -7  127.17    3.73
  -1  -3  -7  121.85    3.66
  -1  -3  -8   62.36    2.16
  -1  -3  -8   65.63    2.26
  -1  -3  -8   61.02    2.08
  -1  -3  -9    3.05    0.38
  -1  -3  -9    3.60    0.38
  -1  -3  -9    2.66    0.36
  -1  -3  -9    3.06    0.40
  -1  -3 -10    5.40    0.53
  -1  -3 -10    4.84    0.54
  -1  -3 -10    5.03    0.48
  -1  -3 -11   49.37    2.10
  -1  -3 -11   48.89    1.86
  -1  -3 -11   51.75    1.99
  -1  -3 -11   49.79    2.02
  -1  -3 -12    0.52    0.20
  -1  -3 -12    0.57    0.23
  -1  -3 -12    0.43    0.19
  -1  -3 -13    3.89    0.46
  -1  -3 -13    3.94    0.42
  -1  -3 -13    3.87    0.48
  -1  -3 -14    6.64    0.46
  -1  -3 -14    6.95    0.62
  -1  -3 -14    5.70    0.52
  -1  -3 -15   20.03    0.98
  -1  -3 -15   21.12    1.07
  -1  -3 -16    1.01    0.14
  -1  -4  17    0.03    0.06
  -1  -4  17    0.06    0.07
  -1  -4  16   10.23    0.61
   1   4 -15    5.45    0.44
   1   4 -14    0.54    0.17
   1   4 -13    2.12    0.32
   1   4 -13    1.90    0.39
   1   4 -12   98.22    3.14
  -1  -4  12  100.00    3.11
   1   4 -11   15.45    1.10
  -1  -4  11   17.88    0.95
  -1  -4  11   16.89    0.79
   1   4 -11   16.89    0.91
  -1  -4  10   18.50    1.00
   1   4 -10   19.87    0.97
  -1  -4  10   19.91    0.87
  -1  -4   9   32.46    1.20
  -1  -4   9   30.70    1.36
  -1  -4   8  160.85    4.60
   1   4  -8  171.34    5.14
   1   4  -7    0.27    0.15
  -1  -4   7    0.41    0.15
  -1  -4   6    3.45    0.38
  -1  -4   5   96.69    3.10
  -1  -4   4  147.69    4.39
  -1  -4   3    2.47    0.30
  -1  -4   2    4.77    0.41
  -1  -4   1  361.27    9.80
  -1  -4   1  359.80    9.88
  -1  -4   0  183.61    5.35
  -1  -4  -1   22.14    1.00
  -1  -4  -2   24.23    1.07
  -1  -4  -3  130.39    3.88
  -1  -4  -4    1.32    0.22
  -1  -4  -5   11.77    0.66
  -1  -4  -5   11.71    0.66
  -1  -4  -6   15.14    0.74
  -1  -4  -6   13.88    0.78
  -1  -4  -6   16.25    0.84
  -1  -4  -7  188.21    5.38
  -1  -4  -7  188.88    5.23
  -1  -4  -7  180.84    5.28
  -1  -4  -8    2.05    0.30
  -1  -4  -8    1.81    0.32
  -1  -4  -8    1.90    0.30
  -1  -4  -9   12.75    0.79
  -1  -4  -9   12.71    0.78
  -1  -4  -9   10.18    0.78
  -1  -4  -9   12.71    0.82
  -1  -4 -10   53.76    2.13
  -1  -4 -10   54.05    2.02
  -1  -4 -10   54.54    2.07
  -1  -4 -10   53.22    1.97
  -1  -4 -11   18.41    1.06
  -1  -4 -11   18.23    0.97
  -1  -4 -11   18.29    1.10
  -1  -4 -11   18.04    1.02
  -1  -4 -12    2.85    0.38
  -1  -4 -12    3.18    0.44
  -1  -4 -12    3.30    0.41
  -1  -4 -13    0.13    0.15
  -1  -4 -13    0.02    0.10
  -1  -4 -13    0.04    0.10
  -1  -4 -14   15.47    0.89
  -1  -4 -15    9.84    0.62
  -1  -5  17    5.48    0.35
  -1  -5  17    5.61    0.33
  -1  -5  16   23.79    1.02
  -1  -5  16   24.56    0.98
  -1  -5  15    0.18    0.12
  -1  -5  14    1.07    0.23
  -1  -5  13   16.20    0.81
  -1  -5  12   57.67    1.99
   1   5 -12   48.13    2.32
   1   5 -11    6.41    0.71
  -1  -5  11    7.31    0.57
  -1  -5  11    7.23    0.50
  -1  -5  10    2.45    0.33
  -1  -5  10    0.79    0.17
   1   5  -9  173.63    5.46
  -1  -5   9  174.46    5.08
  -1  -5   9  168.08    4.87
   1   5  -8   20.05    1.20
  -1  -5   8   20.49    1.01
  -1  -5   8   18.68    0.82
  -1  -5   8   20.00    0.88
  -1  -5   7    6.66    0.42
  -1  -5   7    7.09    0.54
   1   5  -7    7.02    0.63
  -1  -5   7    6.49    0.44
  -1  -5   6    6.95    0.59
  -1  -5   5   62.23    2.28
  -1  -5   4   23.20    1.15
  -1  -5   3   59.82    2.19
  -1  -5   3   60.89    2.20
  -1  -5   2   58.00    2.11
  -1  -5   1  446.45   12.01
  -1  -5   1  430.18   11.92
  -1  -5   0    8.94    0.69
  -1  -5  -1    5.19    0.53
  -1  -5  -1    4.92    0.46
  -1  -5  -2  115.54    3.60
  -1  -5  -3   33.43    1.42
  -1  -5  -4    5.51    0.43
  -1  -5  -4    5.76    0.48
  -1  -5  -5    1.42    0.23
  -1  -5  -5    1.30    0.24
  -1  -5  -5    1.34    0.25
  -1  -5  -6  108.72    3.18
  -1  -5  -6   99.70    3.40
  -1  -5  -6   99.48    3.35
  -1  -5  -6  111.69    3.38
  -1  -5  -7   66.91    2.32
  -1  -5  -7   63.25    2.11
  -1  -5  -7   60.67    2.25
  -1  -5  -7   59.51    2.30
  -1  -5  -7   58.53    2.30
  -1  -5  -8    2.83    0.39
  -1  -5  -8    2.24    0.36
  -1  -5  -8    2.29    0.35
  -1  -5  -8    2.92    0.34
  -1  -5  -8    2.53    0.38
  -1  -5  -9    6.71    0.62
  -1  -5  -9    7.07    0.63
  -1  -5  -9    6.16    0.60
  -1  -5  -9    7.20    0.55
  -1  -5  -9    6.17    0.55
  -1  -5 -10   58.56    2.06
  -1  -5 -10   55.94    2.22
  -1  -5 -10   57.29    2.19
  -1  -5 -10   55.87    2.06
  -1  -5 -11    0.89    0.22
  -1  -5 -11    0.85    0.19
  -1  -5 -11    0.73    0.22
  -1  -5 -11    0.69    0.21
  -1  -5 -12    2.21    0.31
  -1  -5 -14   14.93    0.80
  -1  -5 -15    0.45    0.10
  -1  -6  17   13.33    0.56
  -1  -6  17   12.61    0.51
  -1  -6  16    5.68    0.37
  -1  -6  16    6.23    0.43
  -1  -6  15    0.62    0.17
  -1  -6  14    0.08    0.11
  -1  -6  14    0.16    0.08
  -1  -6  13   29.99    1.20
  -1  -6  12    3.71    0.36
   1   6 -12    3.09    0.51
  -1  -6  11    9.68    0.65
  -1  -6  11    9.96    0.67
  -1  -6  11   10.58    0.63
  -1  -6  10   41.24    1.54
  -1  -6  10   41.62    1.62
  -1  -6  10   38.54    1.57
  -1  -6   9  154.94    4.59
  -1  -6   9  152.85    4.47
  -1  -6   9  152.27    4.50
   1   6  -9  150.14    5.07
  -1  -6   8    0.82    0.21
   1   6  -8    0.93    0.28
  -1  -6   8    0.50    0.15
  -1  -6   8    0.55    0.14
  -1  -6   8    0.42    0.14
  -1  -6   7    5.28    0.42
  -1  -6   7    5.11    0.45
  -1  -6   7    5.47    0.40
  -1  -6   7    5.17    0.36
  -1  -6   7    5.15    0.36
  -1  -6   7    6.25    0.44
  -1  -6   6   39.14    1.38
  -1  -6   6   39.38    1.42
  -1  -6   6   37.97    1.41
  -1  -6   6   41.61    1.43
  -1  -6   6   37.74    1.39
  -1  -6   5   47.78    1.63
  -1  -6   5   47.01    1.67
  -1  -6   5   47.16    1.63
  -1  -6   5   53.03    1.74
  -1  -6   5   50.79    1.66
  -1  -6   5   47.17    1.64
  -1  -6   5   47.58    1.63
  -1  -6   5   54.44    2.06
  -1  -6   4   12.56    0.65
  -1  -6   4   12.44    0.84
  -1  -6   4   12.13    0.61
  -1  -6   4   12.04    0.61
  -1  -6   4   12.20    0.82
  -1  -6   4   11.36    0.60
  -1  -6   3    1.18    0.18
  -1  -6   3    1.66    0.30
  -1  -6   3    1.17    0.17
  -1  -6   3    1.94    0.22
  -1  -6   3    1.41    0.28
  -1  -6   3    1.04    0.18
  -1  -6   2  224.00    6.22
  -1  -6   2  236.98    6.72
  -1  -6   1  105.37    3.23
  -1  -6   1  113.28    3.68
  -1  -6   1  118.16    3.65
  -1  -6   1  105.43    3.27
  -1  -6   0    9.19    0.55
  -1  -6   0    9.95    0.77
  -1  -6   0    9.24    0.51
  -1  -6   0    8.70    0.49
  -1  -6   0    9.60    0.59
  -1  -6  -1   10.14    0.62
  -1  -6  -1   10.59    0.83
  -1  -6  -1   10.06    0.53
  -1  -6  -1    9.73    0.53
  -1  -6  -1   11.15    0.76
  -1  -6  -1    9.94    0.59
  -1  -6  -2  131.04    3.73
  -1  -6  -2  130.49    3.89
  -1  -6  -2  132.55    3.99
  -1  -6  -2  127.80    3.73
  -1  -6  -2  143.81    4.20
  -1  -6  -2  127.07    3.94
  -1  -6  -3    3.60    0.41
  -1  -6  -3    4.18    0.38
  -1  -6  -3    3.88    0.41
  -1  -6  -3    3.91    0.30
  -1  -6  -3    3.39    0.29
  -1  -6  -3    4.36    0.45
  -1  -6  -3    4.01    0.36
  -1  -6  -3    3.64    0.38
  -1  -6  -4   12.68    0.72
  -1  -6  -4   11.67    0.70
  -1  -6  -4   10.57    0.62
  -1  -6  -4   12.30    0.77
  -1  -6  -4   13.03    0.60
  -1  -6  -5   15.58    0.97
  -1  -6  -5   17.43    0.98
  -1  -6  -6   93.53    3.28
  -1  -6  -6  101.03    3.18
  -1  -6  -6   96.22    3.22
  -1  -6  -6   93.61    3.18
  -1  -6  -7    1.41    0.31
  -1  -6  -7    1.27    0.27
  -1  -6  -7    1.53    0.30
  -1  -6  -7    1.75    0.31
  -1  -6  -8    9.59    0.77
  -1  -6  -8   10.17    0.76
  -1  -6  -8   10.73    0.74
  -1  -6  -8   10.23    0.75
  -1  -6  -9   47.21    1.91
  -1  -6  -9   44.20    1.88
  -1  -6  -9   45.84    1.76
  -1  -6  -9   40.31    1.81
  -1  -6 -10   20.13    1.15
  -1  -6 -10   24.39    1.25
  -1  -6 -10   26.48    1.25
  -1  -6 -10   22.50    1.05
  -1  -6 -11    0.63    0.21
  -1  -6 -11    0.60    0.19
  -1  -6 -11    0.61    0.20
  -1  -6 -12    0.02    0.11
  -1  -6 -13   22.19    0.97
  -1  -6 -13   18.20    0.94
  -1  -6 -14    3.60    0.28
  -1  -7  16    0.10    0.08
  -1  -7  16    0.07    0.07
  -1  -7  15    2.24    0.23
  -1  -7  15    1.89    0.17
  -1  -7  14    7.51    0.43
  -1  -7  13   13.49    0.68
  -1  -7  12    2.56    0.30
  -1  -7  12    2.92    0.32
  -1  -7  12    2.66    0.34
  -1  -7  11   -0.04    0.10
  -1  -7  11    0.19    0.12
  -1  -7  11    0.10    0.11
   1   7 -10   76.23    3.22
  -1  -7  10   84.22    2.65
  -1  -7  10   81.09    2.68
  -1  -7  10   81.53    2.74
  -1  -7   9   36.41    1.43
   1   7  -9   35.93    1.89
  -1  -7   9   36.43    1.48
  -1  -7   9   36.63    1.47
  -1  -7   9   34.83    1.34
  -1  -7   8   11.02    0.59
  -1  -7   8   12.02    0.71
  -1  -7   8   11.85    0.68
  -1  -7   8   10.91    0.63
   1   7  -8   11.50    0.96
  -1  -7   8   10.87    0.59
  -1  -7   8   12.31    0.73
  -1  -7   7    4.03    0.33
  -1  -7   7    3.14    0.34
  -1  -7   7    3.13    0.27
  -1  -7   7    3.19    0.35
  -1  -7   7    4.07    0.35
  -1  -7   7    3.36    0.31
  -1  -7   6  103.87    3.27
  -1  -7   6  118.88    3.39
  -1  -7   6  117.99    3.41
  -1  -7   6  105.52    3.30
  -1  -7   6  114.08    3.33
  -1  -7   6  113.67    3.20
  -1  -7   6  110.88    3.30
  -1  -7   6  107.45    3.32
  -1  -7   6  106.42    3.26
  -1  -7   6  102.69    3.19
  -1  -7   6  107.26    3.26
  -1  -7   5    1.40    0.21
  -1  -7   5    1.43    0.24
  -1  -7   5    1.24    0.20
  -1  -7   5    1.43    0.19
  -1  -7   5    1.50    0.22
  -1  -7   5    1.28    0.20
  -1  -7   5    1.39    0.22
  -1  -7   5    1.39    0.20
  -1  -7   5    1.10    0.27
  -1  -7   5    1.39    0.19
  -1  -7   5    1.50    0.22
  -1  -7   4    9.66    0.59
  -1  -7   4    8.84    0.74
  -1  -7   4    9.27    0.54
  -1  -7   4    8.71    0.53
  -1  -7   4    9.70    0.56
  -1  -7   4    9.40    0.55
  -1  -7   4    8.72    0.54
  -1  -7   4   10.12    0.78
  -1  -7   4    9.16    0.50
  -1  -7   4    8.22    0.49
  -1  -7   4    9.63    0.60
  -1  -7   4    8.62    0.54
  -1  -7   3   46.85    1.64
  -1  -7   3   44.12    1.54
  -1  -7   3   45.19    1.96
  -1  -7   3   44.88    1.61
  -1  -7   3   47.17    1.60
  -1  -7   3   44.64    1.58
  -1  -7   3   45.96    1.61
  -1  -7   3   50.19    2.02
  -1  -7   3   44.83    1.66
  -1  -7   3   43.57    1.52
  -1  -7   2  109.86    3.20
  -1  -7   2  102.18    3.66
  -1  -7   2  105.68    3.19
  -1  -7   2  105.28    3.20
  -1  -7   2  108.91    3.26
  -1  -7   2  113.26    3.69
  -1  -7   1    0.82    0.17
  -1  -7   1    0.61    0.14
  -1  -7   1    0.79    0.17
  -1  -7   1    0.74    0.24
  -1  -7   1    0.79    0.22
  -1  -7   1    0.76    0.18
  -1  -7   1    0.65    0.13
  -1  -7   1    0.92    0.19
  -1  -7   0   10.89    0.63
  -1  -7   0   11.80    0.58
  -1  -7   0   11.07    0.62
  -1  -7   0   10.89    0.65
  -1  -7   0   10.55    0.58
  -1  -7   0   11.51    0.89
  -1  -7   0   11.86    0.61
  -1  -7   0   10.89    0.60
  -1  -7   0   12.36    0.86
  -1  -7   0   10.55    0.67
  -1  -7  -1   77.82    2.44
  -1  -7  -1   85.35    2.69
  -1  -7  -1   75.06    2.55
  -1  -7  -1   79.37    2.55
  -1  -7  -1   81.99    3.04
  -1  -7  -1   77.90    2.43
  -1  -7  -1   76.32    2.43
  -1  -7  -1   79.78    2.86
  -1  -7  -1   74.59    2.50
  -1  -7  -1   81.18    2.39
  -1  -7  -1   75.84    2.59
  -1  -7  -2  114.63    3.43
  -1  -7  -2  104.38    3.15
  -1  -7  -2  100.50    3.31
  -1  -7  -2  104.27    3.26
  -1  -7  -2  111.08    3.36
  -1  -7  -2  101.07    3.31
  -1  -7  -2  103.58    3.11
  -1  -7  -2  101.58    3.11
  -1  -7  -2  106.81    3.07
  -1  -7  -3    7.66    0.55
  -1  -7  -3    7.44    0.53
  -1  -7  -3    8.16    0.63
  -1  -7  -3    8.03    0.51
  -1  -7  -3    8.63    0.62
  -1  -7  -3    7.49    0.58
  -1  -7  -3    7.60    0.47
  -1  -7  -3    7.92    0.45
  -1  -7  -4    0.38    0.10
  -1  -7  -4    0.20    0.12
  -1  -7  -4    0.04    0.08
  -1  -7  -4    0.29    0.13
  -1  -7  -4    0.09    0.11
  -1  -7  -5   77.20    2.67
  -1  -7  -5   75.15    2.54
  -1  -7  -5   75.36    2.56
  -1  -7  -5   71.74    2.44
  -1  -7  -6    5.72    0.52
  -1  -7  -6    5.90    0.57
  -1  -7  -6    5.30    0.51
  -1  -7  -6    6.11    0.54
  -1  -7  -7    1.88    0.31
  -1  -7  -7    1.93    0.31
  -1  -7  -7    2.17    0.36
  -1  -7  -7    1.95    0.31
  -1  -7  -8    2.93    0.38
  -1  -7  -8    2.53    0.38
  -1  -7  -8    2.65    0.34
  -1  -7  -8    2.76    0.37
  -1  -7  -9   49.42    1.93
  -1  -7  -9   48.58    1.90
  -1  -7  -9   47.91    1.74
  -1  -7  -9   43.86    1.84
  -1  -7 -10    8.99    0.67
  -1  -7 -10    8.71    0.64
  -1  -7 -11    3.22    0.37
  -1  -7 -11    3.44    0.36
  -1  -7 -11    3.42    0.39
  -1  -7 -12    9.58    0.58
  -1  -7 -12    8.37    0.57
  -1  -7 -13   15.32    0.67
  -1  -8  16    2.60    0.18
  -1  -8  15    1.49    0.13
  -1  -8  15    1.80    0.18
  -1  -8  14   16.64    0.66
  -1  -8  14   16.23    0.71
  -1  -8  13    0.76    0.16
  -1  -8  13    0.67    0.15
  -1  -8  13    0.66    0.18
  -1  -8  12    0.48    0.14
  -1  -8  12    0.54    0.17
  -1  -8  12    0.67    0.16
  -1  -8  12    0.69    0.17
  -1  -8  11    6.28    0.47
  -1  -8  11    6.13    0.52
  -1  -8  11    6.82    0.50
  -1  -8  10   51.67    1.84
  -1  -8  10   49.13    1.79
  -1  -8  10   51.56    1.91
   1   8 -10   46.76    2.33
   1   8  -9    0.04    0.13
  -1  -8   9    0.03    0.12
  -1  -8   9    0.02    0.14
  -1  -8   9    0.12    0.12
  -1  -8   9    0.33    0.12
  -1  -8   9    0.04    0.12
  -1  -8   8   13.24    0.70
  -1  -8   8   13.98    0.77
  -1  -8   8   13.80    0.64
  -1  -8   8   15.40    0.83
  -1  -8   8   14.38    0.81
   1   8  -8   14.11    1.11
  -1  -8   8   15.22    0.75
  -1  -8   8   12.27    0.66
  -1  -8   8   12.81    0.68
  -1  -8   7   56.61    2.00
  -1  -8   7   65.92    2.17
  -1  -8   7   65.01    2.21
  -1  -8   7   64.59    2.19
  -1  -8   7   64.13    2.01
  -1  -8   7   63.22    2.09
  -1  -8   7   67.92    2.14
  -1  -8   7   58.61    2.01
  -1  -8   6   60.43    2.04
  -1  -8   6   59.53    2.05
  -1  -8   6   58.63    2.00
  -1  -8   6   58.86    2.02
  -1  -8   6   60.86    1.93
  -1  -8   6   60.97    2.02
  -1  -8   6   55.52    1.97
  -1  -8   6   55.30    1.92
  -1  -8   6   61.22    2.09
  -1  -8   6   57.87    2.06
  -1  -8   5   13.02    0.67
  -1  -8   5   13.77    0.76
  -1  -8   5   12.89    0.70
  -1  -8   5   13.32    0.73
  -1  -8   5   13.09    0.66
  -1  -8   5   14.77    0.75
  -1  -8   5   12.32    0.72
  -1  -8   5   13.12    0.76
  -1  -8   4    0.03    0.09
  -1  -8   4    0.03    0.09
  -1  -8   4    0.02    0.09
  -1  -8   4    0.04    0.08
  -1  -8   4    0.04    0.06
  -1  -8   4    0.02    0.07
  -1  -8   4    0.27    0.15
  -1  -8   4    0.51    0.14
  -1  -8   4    0.51    0.16
  -1  -8   3   47.21    1.64
  -1  -8   3   46.91    1.62
  -1  -8   3   46.08    1.71
  -1  -8   3   46.77    1.63
  -1  -8   3   49.26    1.71
  -1  -8   3   47.08    1.66
  -1  -8   3   48.10    1.70
  -1  -8   3   51.71    1.75
  -1  -8   3   46.61    1.63
  -1  -8   3   47.52    1.78
  -1  -8   2   13.97    0.69
  -1  -8   2   14.93    0.79
  -1  -8   2   14.71    0.71
  -1  -8   2   14.06    0.69
  -1  -8   2   14.33    0.72
  -1  -8   2   15.19    1.05
  -1  -8   2   13.41    0.72
  -1  -8   2   13.47    0.72
  -1  -8   2   14.72    0.78
  -1  -8   2   14.21    0.70
  -1  -8   2   14.87    0.81
  -1  -8   2   13.82    0.69
  -1  -8   1    7.82    0.51
  -1  -8   1    9.66    0.57
  -1  -8   1    8.69    0.50
  -1  -8   1    9.01    0.53
  -1  -8   1    9.79    0.58
  -1  -8   1    9.49    0.61
  -1  -8   1    9.73    0.84
  -1  -8   1    9.36    0.64
  -1  -8   1   10.51    0.64
  -1  -8   1   10.04    0.55
  -1  -8   0    0.55    0.14
  -1  -8   0    0.09    0.13
  -1  -8   0    0.25    0.12
  -1  -8   0    0.24    0.11
  -1  -8   0    0.16    0.12
  -1  -8   0    0.18    0.09
  -1  -8   0    0.23    0.11
  -1  -8   0    0.20    0.11
  -1  -8   0    0.30    0.14
  -1  -8   0    0.20    0.12
  -1  -8  -1  151.61    4.76
  -1  -8  -1  170.48    4.84
  -1  -8  -1  165.13    4.87
  -1  -8  -1  157.72    4.90
  -1  -8  -1  175.47    4.92
  -1  -8  -1  174.57    4.85
  -1  -8  -1  178.77    4.84
  -1  -8  -1  173.40    4.79
  -1  -8  -1  178.61    4.96
  -1  -8  -1  175.76    5.05
  -1  -8  -2   11.55    0.60
  -1  -8  -2   11.69    0.74
  -1  -8  -2   11.67    0.71
  -1  -8  -2   12.24    0.74
  -1  -8  -2   11.36    0.64
  -1  -8  -2   12.36    0.72
  -1  -8  -2   10.75    0.62
  -1  -8  -3   10.68    0.64
  -1  -8  -3   10.42    0.71
  -1  -8  -3   11.95    0.73
  -1  -8  -3   11.37    0.64
  -1  -8  -3   12.70    0.73
  -1  -8  -3   12.17    0.61
  -1  -8  -4   36.63    1.50
  -1  -8  -4   37.32    1.42
  -1  -8  -4   39.20    1.52
  -1  -8  -4   40.75    1.36
  -1  -8  -4   36.79    1.57
  -1  -8  -5   28.05    1.26
  -1  -8  -5   27.68    1.33
  -1  -8  -5   31.02    1.40
  -1  -8  -5   27.02    1.14
  -1  -8  -5   29.90    1.34
  -1  -8  -6    3.51    0.44
  -1  -8  -6    3.66    0.42
  -1  -8  -6    3.56    0.40
  -1  -8  -7    2.91    0.41
  -1  -8  -7    3.33    0.39
  -1  -8  -7    2.93    0.38
  -1  -8  -8   18.23    1.03
  -1  -8  -8   17.12    0.94
  -1  -8  -8   15.83    0.91
  -1  -8  -9   30.50    1.30
  -1  -8  -9   28.75    1.27
  -1  -8  -9   28.69    1.13
  -1  -8 -10    0.33    0.10
  -1  -8 -10    0.38    0.15
  -1  -8 -11   -0.10    0.15
  -1  -8 -12   24.85    0.92
  -1  -9  14    7.59    0.36
  -1  -9  13    1.04    0.15
  -1  -9  12    0.10    0.09
  -1  -9  12    0.06    0.09
  -1  -9  11   14.10    0.69
  -1  -9  11   14.29    0.74
  -1  -9  11   15.51    0.81
  -1  -9  10   12.50    0.72
  -1  -9  10   12.04    0.73
  -1  -9  10   10.64    0.58
  -1  -9  10   11.59    0.65
  -1  -9  10   11.81    0.69
   1   9  -9   12.41    1.06
  -1  -9   9   13.06    0.73
  -1  -9   9   12.43    0.69
  -1  -9   9   12.47    0.74
  -1  -9   9   11.46    0.61
  -1  -9   9   13.19    0.67
  -1  -9   8    5.76    0.39
  -1  -9   8    5.68    0.48
  -1  -9   8    4.60    0.36
  -1  -9   8    5.39    0.41
  -1  -9   8    6.67    0.46
   1   9  -8    5.52    0.69
  -1  -9   8    5.56    0.45
  -1  -9   7  130.22    3.88
  -1  -9   7  136.08    3.95
  -1  -9   7  129.89    3.86
  -1  -9   7  127.10    3.88
  -1  -9   7  130.87    3.87
  -1  -9   7  123.45    3.79
  -1  -9   7  130.78    3.76
  -1  -9   6    2.01    0.27
  -1  -9   6    1.82    0.26
  -1  -9   6    1.67    0.27
  -1  -9   6    1.71    0.26
  -1  -9   6    2.16    0.26
  -1  -9   6    2.07    0.25
  -1  -9   5    0.25    0.13
  -1  -9   5    0.28    0.13
  -1  -9   5    0.29    0.12
  -1  -9   5    0.36    0.14
  -1  -9   5    0.31    0.15
  -1  -9   5    0.15    0.10
  -1  -9   5    0.34    0.14
  -1  -9   4   22.02    0.97
  -1  -9   4   23.93    1.08
  -1  -9   4   23.21    1.01
  -1  -9   4   22.86    0.99
  -1  -9   4   23.94    1.06
  -1  -9   4   22.31    1.10
  -1  -9   4   24.13    1.08
  -1  -9   4   22.51    1.00
  -1  -9   3   21.97    0.97
  -1  -9   3   21.01    0.94
  -1  -9   3   22.48    1.01
  -1  -9   3   20.87    0.94
  -1  -9   3   23.05    1.04
  -1  -9   2    0.68    0.16
  -1  -9   2    0.72    0.17
  -1  -9   2    0.62    0.17
  -1  -9   2    0.35    0.12
  -1  -9   2    0.42    0.12
  -1  -9   2    0.60    0.17
  -1  -9   2    0.57    0.15
  -1  -9   2    0.52    0.14
  -1  -9   2    0.60    0.17
  -1  -9   2    0.87    0.20
  -1  -9   1   11.39    0.65
  -1  -9   1   10.57    0.61
  -1  -9   1   12.21    0.72
  -1  -9   1   13.23    0.75
  -1  -9   1   10.73    0.63
  -1  -9   1   11.96    0.65
  -1  -9   1   11.30    0.74
  -1  -9   0   55.92    1.81
  -1  -9   0   46.62    1.79
  -1  -9   0   47.82    1.75
  -1  -9   0   56.24    1.95
  -1  -9   0   54.90    1.83
  -1  -9   0   52.40    1.84
  -1  -9   0   52.08    1.82
  -1  -9   0   54.45    2.00
  -1  -9   0   51.27    1.84
  -1  -9  -1   76.34    2.58
  -1  -9  -1   66.48    2.39
  -1  -9  -1   73.07    2.45
  -1  -9  -1   67.66    2.31
  -1  -9  -1   74.27    2.37
  -1  -9  -1   79.47    2.36
  -1  -9  -1   78.01    2.51
  -1  -9  -2    5.69    0.48
  -1  -9  -2    5.42    0.48
  -1  -9  -2    5.54    0.43
  -1  -9  -2    6.29    0.50
  -1  -9  -2    5.21    0.42
  -1  -9  -2    6.07    0.50
  -1  -9  -2    5.81    0.41
  -1  -9  -2    6.12    0.52
  -1  -9  -3    0.06    0.12
  -1  -9  -3    0.02    0.11
  -1  -9  -3    0.09    0.10
  -1  -9  -3    0.03    0.07
  -1  -9  -3    0.04    0.15
  -1  -9  -3   -0.02    0.13
  -1  -9  -3    0.13    0.09
  -1  -9  -4   39.27    1.64
  -1  -9  -4   47.11    1.77
  -1  -9  -4   44.79    1.64
  -1  -9  -4   42.24    1.53
  -1  -9  -4   46.67    1.71
  -1  -9  -4   40.50    1.56
  -1  -9  -5    3.07    0.37
  -1  -9  -5    2.82    0.32
  -1  -9  -5    2.89    0.35
  -1  -9  -6    4.33    0.44
  -1  -9  -6    4.39    0.45
  -1  -9  -6    4.27    0.39
  -1  -9  -6    4.47    0.41
  -1  -9  -7    1.09    0.24
  -1  -9  -7    1.21    0.24
  -1  -9  -7    0.96    0.19
  -1  -9  -7    1.02    0.20
  -1  -9  -8   28.18    1.22
  -1  -9  -8   26.83    1.07
  -1  -9  -8   27.18    1.19
  -1  -9  -9    2.01    0.27
  -1  -9  -9    1.68    0.20
  -1  -9  -9    1.86    0.25
  -1  -9 -10    2.95    0.28
  -1  -9 -10    2.80    0.28
  -1 -10  14    0.86    0.10
  -1 -10  13    0.89    0.12
  -1 -10  12    1.70    0.19
  -1 -10  11    8.80    0.49
  -1 -10  11   10.39    0.57
  -1 -10  10    1.49    0.21
  -1 -10  10    1.73    0.24
  -1 -10   9    2.22    0.26
  -1 -10   8   28.97    1.08
  -1 -10   8   29.02    1.16
  -1 -10   8   29.79    1.21
  -1 -10   8   28.15    1.14
  -1 -10   7   41.93    1.57
  -1 -10   7   41.71    1.47
  -1 -10   7   41.35    1.56
  -1 -10   7   40.60    1.54
  -1 -10   7   46.06    1.59
  -1 -10   6    5.70    0.42
  -1 -10   6    6.07    0.46
  -1 -10   6    5.36    0.45
  -1 -10   6    6.36    0.48
  -1 -10   6    5.93    0.44
  -1 -10   5    3.90    0.34
  -1 -10   5    3.49    0.37
  -1 -10   5    3.55    0.35
  -1 -10   5    3.56    0.34
  -1 -10   5    3.77    0.37
  -1 -10   5    4.17    0.45
  -1 -10   5    4.21    0.37
  -1 -10   4   42.31    1.53
  -1 -10   4   39.99    1.50
  -1 -10   4   40.07    1.64
  -1 -10   4   41.54    1.50
  -1 -10   4   41.23    1.59
  -1 -10   4   44.13    1.60
  -1 -10   4   42.01    1.61
  -1 -10   4   40.84    1.53
  -1 -10   3    4.75    0.40
  -1 -10   3    4.48    0.40
  -1 -10   3    4.02    0.36
  -1 -10   3    4.29    0.48
  -1 -10   3    4.96    0.39
  -1 -10   2   11.32    0.60
  -1 -10   2   12.41    0.67
  -1 -10   2   10.69    0.67
  -1 -10   2   10.82    0.62
  -1 -10   2   11.15    0.70
  -1 -10   2   11.27    0.64
  -1 -10   2   11.03    0.60
  -1 -10   2   12.36    0.77
  -1 -10   2   13.20    0.76
  -1 -10   2   12.32    0.67
  -1 -10   1    2.63    0.30
  -1 -10   1    3.42    0.33
  -1 -10   1    3.41    0.38
  -1 -10   1    2.93    0.36
  -1 -10   1    3.16    0.32
  -1 -10   1    3.64    0.34
  -1 -10   1    4.06    0.43
  -1 -10   0   58.20    2.12
  -1 -10   0   54.40    1.94
  -1 -10   0   57.78    1.94
  -1 -10   0   58.59    2.06
  -1 -10   0   59.06    1.93
  -1 -10   0   52.59    1.87
  -1 -10  -1    1.56    0.25
  -1 -10  -1    1.63    0.23
  -1 -10  -1    1.61    0.23
  -1 -10  -1    1.64    0.27
  -1 -10  -1    1.36    0.26
  -1 -10  -1    1.42    0.21
  -1 -10  -2    5.14    0.40
  -1 -10  -2    4.35    0.40
  -1 -10  -2    3.79    0.35
  -1 -10  -2    4.63    0.42
  -1 -10  -2    4.91    0.44
  -1 -10  -2    4.78    0.44
  -1 -10  -3   15.07    0.82
  -1 -10  -3   18.66    0.94
  -1 -10  -3   15.51    0.78
  -1 -10  -3   17.89    0.81
  -1 -10  -3   17.80    0.87
  -1 -10  -3   18.96    0.92
  -1 -10  -4   29.65    1.27
  -1 -10  -4   34.80    1.40
  -1 -10  -4   31.70    1.19
  -1 -10  -4   32.43    1.26
  -1 -10  -4   34.48    1.34
  -1 -10  -4   29.24    1.20
  -1 -10  -5    0.08    0.13
  -1 -10  -5    0.07    0.10
  -1 -10  -6    1.44    0.24
  -1 -10  -6    1.85    0.25
  -1 -10  -7   15.85    0.78
  -1 -10  -7   14.80    0.78
  -1 -10  -7   14.51    0.69
  -1 -10  -8   10.48    0.58
  -1 -10  -8   10.05    0.56
  -1 -10  -8    9.10    0.47
  -1 -10  -9    2.23    0.22
  -1 -10  -9    2.41    0.25
  -1 -10  -9    2.02    0.16
  -1 -11  13    0.08    0.05
  -1 -11  12   10.41    0.45
  -1 -11  11    0.85    0.13
  -1 -11  11    0.91    0.15
  -1 -11  10    2.61    0.24
  -1 -11   9    2.12    0.25
  -1 -11   9    1.58    0.21
  -1 -11   8   25.85    0.96
  -1 -11   8   27.32    1.08
  -1 -11   7    1.92    0.22
  -1 -11   7    2.01    0.25
  -1 -11   7    1.94    0.25
  -1 -11   6    2.71    0.28
  -1 -11   6    2.55    0.26
  -1 -11   6    2.58    0.29
  -1 -11   6    2.70    0.29
  -1 -11   5   12.59    0.66
  -1 -11   5   12.45    0.71
  -1 -11   5   12.64    0.67
  -1 -11   5   13.48    0.68
  -1 -11   4   40.49    1.45
  -1 -11   4   39.44    1.52
  -1 -11   4   40.34    1.44
  -1 -11   4   41.78    1.55
  -1 -11   4   37.31    1.40
  -1 -11   3    2.28    0.26
  -1 -11   3    1.85    0.23
  -1 -11   3    2.09    0.26
  -1 -11   2    1.08    0.19
  -1 -11   2    1.34    0.24
  -1 -11   2    0.83    0.18
  -1 -11   1   24.56    1.13
  -1 -11   1   25.46    1.13
  -1 -11   0    6.98    0.52
  -1 -11   0    6.48    0.46
  -1 -11   0    6.53    0.45
  -1 -11  -1    2.10    0.25
  -1 -11  -1    2.28    0.29
  -1 -11  -1    2.17    0.29
  -1 -11  -1    1.72    0.24
  -1 -11  -2    1.97    0.24
  -1 -11  -2    1.35    0.22
  -1 -11  -2    1.83    0.25
  -1 -11  -2    1.74    0.26
  -1 -11  -3   27.21    1.15
  -1 -11  -3   27.52    1.05
  -1 -11  -3   27.73    1.12
  -1 -11  -3   27.94    1.15
  -1 -11  -4   14.71    0.76
  -1 -11  -4   14.26    0.68
  -1 -11  -4   14.39    0.73
  -1 -11  -5    6.60    0.47
  -1 -11  -5    6.91    0.45
  -1 -11  -6    3.27    0.28
  -1 -11  -7   13.79    0.58
  -1 -11  -7   15.81    0.69
  -1 -11  -8    0.18    0.09
  -1 -11  -8    0.26    0.10
  -1 -12  12    7.15    0.30
  -1 -12  11    0.37    0.08
  -1 -12  10   -0.01    0.06
  -1 -12   9    5.56    0.35
  -1 -12   8    7.35    0.42
  -1 -12   8    6.85    0.36
  -1 -12   7    3.85    0.30
  -1 -12   7    3.53    0.27
  -1 -12   7    4.08    0.31
  -1 -12   7    3.76    0.29
  -1 -12   6    3.29    0.28
  -1 -12   6    2.89    0.28
  -1 -12   6    3.07    0.27
  -1 -12   6    3.16    0.26
  -1 -12   5   43.50    1.46
  -1 -12   5   42.81    1.54
  -1 -12   5   43.57    1.46
  -1 -12   4    7.71    0.47
  -1 -12   4    8.36    0.53
  -1 -12   4    7.26    0.45
  -1 -12   3    4.72    0.36
  -1 -12   3    6.89    0.53
  -1 -12   2    6.09    0.42
  -1 -12   2    5.79    0.45
  -1 -12   1   12.78    0.70
  -1 -12   1   13.15    0.72
  -1 -12   0    0.15    0.12
  -1 -12   0    0.06    0.08
  -1 -12  -1    3.59    0.33
  -1 -12  -1    3.93    0.40
  -1 -12  -1    3.71    0.30
  -1 -12  -2    4.45    0.32
  -1 -12  -2    4.62    0.36
  -1 -12  -2    4.92    0.41
  -1 -12  -3   25.69    1.00
  -1 -12  -3   27.76    1.00
  -1 -12  -3   26.24    1.04
  -1 -12  -4    0.26    0.19
  -1 -12  -4    0.11    0.08
  -1 -12  -5    0.79    0.14
  -1 -12  -5    1.22    0.21
  -1 -12  -6   12.63    0.54
  -1 -12  -6   11.52    0.49
  -1 -13   9    2.64    0.18
  -1 -13   8    0.05    0.05
  -1 -13   8    0.02    0.05
  -1 -13   7    3.36    0.22
  -1 -13   7    3.28    0.23
  -1 -13   6    5.79    0.35
  -1 -13   6    5.22    0.30
  -1 -13   6    5.29    0.31
  -1 -13   5   20.67    0.78
  -1 -13   5   20.91    0.83
  -1 -13   4    0.94    0.16
  -1 -13   4    0.88    0.14
  -1 -13   3    0.41    0.12
  -1 -13   3    0.38    0.11
  -1 -13   2    9.69    0.54
  -1 -13   2   12.69    0.60
  -1 -13   1    2.18    0.21
  -1 -13   1    2.10    0.23
  -1 -13   0    2.31    0.21
  -1 -13   0    2.40    0.23
  -1 -13  -1    0.55    0.11
  -1 -13  -1    0.61    0.13
  -1 -13  -2   12.78    0.54
  -1 -13  -2   14.03    0.60
  -1 -13  -3    4.32    0.30
  -1 -13  -4    2.89    0.23
  -1 -14   6    6.96    0.29
  -1 -14   5    2.91    0.20
  -1 -14   5    3.08    0.19
  -1 -14   4    1.47    0.13
  -1 -14   4    1.28    0.14
  -1 -14   3    0.41    0.09
  -1 -14   3    0.54    0.10
  -1 -14   2   13.95    0.56
  -1 -14   1    0.05    0.05
  -1 -14   1   -0.05    0.07
  -1 -14   0    2.00    0.14
   2 -14  -1    9.07    0.40
   2 -14  -1    9.27    0.43
   2 -14   0    0.38    0.09
   2 -14   0    0.44    0.10
   2 -14   1    1.64    0.17
   2 -14   1    1.57    0.18
   2 -14   3    3.25    0.22
   2 -14   3    3.72    0.26
   2 -14   4    1.00    0.13
   2 -14   4    0.89    0.12
   2 -14   4    0.87    0.12
   2 -14   5    0.04    0.04
   2 -14   5    0.07    0.05
  -2  14  -6    7.14    0.32
  -2  13   4    0.76    0.12
  -2  13   3    0.07    0.07
   2 -13  -3    0.05    0.06
   2 -13  -3    0.06    0.07
   2 -13  -2   12.16    0.59
   2 -13  -2   11.83    0.52
   2 -13  -1    3.94    0.33
   2 -13  -1    3.58    0.27
   2 -13   0    5.63    0.42
   2 -13   0    5.81    0.37
   2 -13   1    3.32    0.32
   2 -13   1    3.03    0.27
   2 -13   2   25.01    0.93
   2 -13   2   20.98    0.88
   2 -13   3    0.13    0.09
   2 -13   3    0.14    0.10
   2 -13   3    0.28    0.10
   2 -13   4    0.92    0.16
   2 -13   4    1.10    0.18
   2 -13   4    1.11    0.16
   2 -13   5    2.79    0.26
   2 -13   5    2.53    0.22
   2 -13   6    6.06    0.38
   2 -13   7   -0.01    0.06
   2 -13   8    0.94    0.13
  -2  13  -8    0.80    0.12
   2 -13   9    5.86    0.28
  -2  13  -9    6.08    0.28
   2 -12  -7    4.64    0.28
  -2  12   7    4.44    0.27
   2 -12  -6   14.27    0.61
  -2  12   6   15.41    0.62
  -2  12   5   -0.02    0.08
   2 -12  -5    0.09    0.10
  -2  12   5    0.06    0.05
  -2  12   4    1.32    0.20
   2 -12  -4    1.31    0.19
   2 -12  -4    1.33    0.21
  -2  12   4    1.12    0.14
   2 -12  -3    3.20    0.33
   2 -12  -3    3.04    0.27
   2 -12  -2   35.54    1.36
   2 -12  -2   33.18    1.23
   2 -12  -1    0.15    0.14
   2 -12  -1    0.41    0.14
   2 -12   0    1.91    0.27
   2 -12   0    1.83    0.25
   2 -12   1   47.42    1.72
   2 -12   1   44.30    1.62
   2 -12   2    9.84    0.59
   2 -12   3    3.38    0.32
   2 -12   4    0.15    0.10
   2 -12   5    6.28    0.46
   2 -12   5    6.38    0.41
   2 -12   6    1.03    0.20
   2 -12   6    1.48    0.18
   2 -12   7    2.88    0.29
   2 -12   7    2.47    0.22
   2 -12   8    1.87    0.22
   2 -12   9   23.06    0.87
  -2  12  -9   23.58    0.87
   2 -12  10    0.09    0.05
  -2  12 -10    0.07    0.05
   2 -11  -9    1.02    0.12
  -2  11   9    1.05    0.12
   2 -11  -8    0.12    0.08
  -2  11   8    0.05    0.07
  -2  11   8    0.11    0.07
   2 -11  -7   26.05    1.02
  -2  11   7   26.06    1.02
  -2  11   7   27.03    0.98
  -2  11   6    8.07    0.51
  -2  11   6    8.09    0.47
   2 -11  -6    8.36    0.53
   2 -11  -5    2.34    0.27
  -2  11   5    2.43    0.29
  -2  11   5    2.55    0.26
   2 -11  -5    2.68    0.31
  -2  11   4    0.56    0.14
   2 -11  -4    0.56    0.17
   2 -11  -4    0.51    0.13
   2 -11  -3   15.88    0.84
   2 -11  -3   14.60    0.78
  -2  11   3   13.95    0.71
   2 -11  -3   14.68    0.73
   2 -11  -2    2.63    0.33
   2 -11  -2    3.11    0.37
  -2  11   2    2.71    0.28
   2 -11  -2    2.92    0.31
   2 -11  -1    6.62    0.55
   2 -11  -1    6.82    0.54
  -2  11   1    5.87    0.42
   2 -11  -1    6.11    0.47
   2 -11   0   12.31    0.77
   2 -11   0   12.43    0.79
   2 -11   1   62.27    2.23
   2 -11   1   62.23    2.15
   2 -11   2    0.19    0.14
   2 -11   3    5.33    0.47
   2 -11   3    4.68    0.41
   2 -11   4    7.94    0.53
   2 -11   4    7.43    0.54
   2 -11   5   15.18    0.75
   2 -11   5   14.44    0.78
   2 -11   6    0.04    0.11
   2 -11   6    0.05    0.08
   2 -11   7    0.97    0.21
   2 -11   7    1.03    0.17
   2 -11   8   21.67    0.95
  -2  11  -9   10.39    0.60
   2 -11   9   10.42    0.56
   2 -11  10    2.52    0.23
  -2  11 -10    2.53    0.25
  -2  11 -11    0.13    0.07
  -2  10  11   10.14    0.41
   2 -10 -10    2.28    0.20
  -2  10  10    2.69    0.22
   2 -10  -9    1.53    0.20
  -2  10   9    1.24    0.18
   2 -10  -8    9.57    0.55
  -2  10   8    9.31    0.56
   2 -10  -7   41.63    1.53
  -2  10   7   40.68    1.54
  -2  10   6    0.25    0.14
   2 -10  -6    0.09    0.12
   2 -10  -5    8.18    0.55
   2 -10  -5    8.85    0.61
   2 -10  -4   15.91    0.84
   2 -10  -4   15.73    0.88
   2 -10  -4   14.90    0.77
  -2  10   4   15.79    0.82
   2 -10  -3   50.48    1.89
   2 -10  -3   47.44    1.80
  -2  10   3   49.10    1.76
   2 -10  -3   45.99    1.72
   2 -10  -2    1.72    0.28
   2 -10  -2    1.57    0.39
   2 -10  -2    1.92    0.39
  -2  10   2    1.50    0.25
   2 -10  -2    1.82    0.32
   2 -10  -2    1.84    0.39
   2 -10  -1    0.05    0.15
   2 -10  -1    0.37    0.22
   2 -10  -1    0.08    0.14
   2 -10  -1    0.02    0.13
  -2  10   1    0.16    0.11
   2 -10  -1    0.08    0.15
   2 -10   0   68.03    2.38
   2 -10   0   58.87    2.82
   2 -10   0   58.61    2.68
  -2  10   0   60.56    2.11
   2 -10   0   61.41    2.71
   2 -10   0   67.91    2.32
   2 -10   1   25.69    1.27
   2 -10   1   23.12    1.59
   2 -10   1   24.28    1.53
  -2  10  -1   24.15    1.05
   2 -10   1   27.00    1.59
   2 -10   1   27.06    1.24
   2 -10   2    4.65    0.63
   2 -10   2    4.81    0.64
   2 -10   3    0.26    0.15
   2 -10   3    0.50    0.24
   2 -10   3    0.20    0.17
   2 -10   3    0.23    0.18
   2 -10   4   52.41    1.91
   2 -10   4   47.35    2.37
   2 -10   4   49.48    2.28
   2 -10   4   52.91    2.33
   2 -10   5    2.93    0.34
   2 -10   5    2.06    0.39
   2 -10   5    2.44    0.43
   2 -10   6    5.57    0.46
   2 -10   6    5.50    0.50
   2 -10   6    5.35    0.42
   2 -10   7    5.62    0.50
   2 -10   7    4.98    0.45
   2 -10   7    4.52    0.37
   2 -10   8   13.88    0.80
   2 -10   8   13.40    0.74
  -2  10  -9    0.19    0.15
   2 -10   9    0.14    0.14
   2 -10   9    0.13    0.13
   2 -10   9    0.10    0.11
   2 -10  10    2.34    0.30
   2 -10  10    3.42    0.35
   2 -10  10    2.60    0.26
  -2  10 -10    2.58    0.31
   2 -10  11    8.53    0.52
   2 -10  11    8.41    0.52
  -2  10 -11    8.88    0.52
   2 -10  12   15.47    0.67
   2 -10  12   16.40    0.69
   2 -10  13    0.83    0.12
  -2   9  12    7.71    0.36
   2  -9 -11   10.44    0.48
   2  -9 -10    0.06    0.08
  -2   9   9    0.16    0.11
   2  -9  -9    0.11    0.10
  -2   9   8   34.81    1.44
   2  -9  -8   36.83    1.42
   2  -9  -7   34.90    1.41
  -2   9   7   32.62    1.41
   2  -9  -6   10.51    0.69
   2  -9  -5    2.65    0.35
   2  -9  -5    2.29    0.41
   2  -9  -5    2.81    0.34
   2  -9  -5    2.63    0.31
   2  -9  -5    2.68    0.44
   2  -9  -4   69.35    2.35
   2  -9  -4   70.18    2.41
   2  -9  -4   60.66    2.68
   2  -9  -4   65.84    2.89
   2  -9  -4   65.54    2.74
   2  -9  -3    0.79    0.29
   2  -9  -3    0.23    0.17
   2  -9  -3    0.83    0.21
   2  -9  -3    0.72    0.27
   2  -9  -3    0.66    0.21
   2  -9  -2    2.59    0.37
   2  -9  -2    1.84    0.43
   2  -9  -2    2.14    0.31
   2  -9  -2    2.42    0.45
  -2   9   2    2.48    0.32
   2  -9  -2    1.67    0.38
   2  -9  -1    3.72    0.45
   2  -9  -1    3.93    0.60
   2  -9  -1    3.71    0.41
  -2   9   1    4.01    0.40
   2  -9  -1    3.44    0.52
   2  -9   0   57.33    2.14
   2  -9   0   50.81    2.47
   2  -9   0   51.63    1.96
  -2   9   0   51.08    1.88
   2  -9   1    4.71    0.52
   2  -9   1    3.03    0.54
  -2   9  -1    3.56    0.36
   2  -9   1    3.63    0.54
   2  -9   1    3.97    0.42
   2  -9   2   16.93    1.05
  -2   9  -2   15.51    0.80
   2  -9   2   15.53    1.14
   2  -9   3   58.51    2.08
   2  -9   3   55.50    2.58
   2  -9   3   57.47    2.49
   2  -9   4   73.48    2.56
   2  -9   4   70.35    3.03
   2  -9   4   75.81    2.51
   2  -9   4   75.37    2.97
   2  -9   4   71.10    2.91
   2  -9   5    4.59    0.42
   2  -9   5    4.04    0.56
   2  -9   5    3.05    0.38
   2  -9   5    4.61    0.46
   2  -9   5    4.27    0.61
   2  -9   5    3.60    0.52
   2  -9   6    0.14    0.11
   2  -9   6   -0.02    0.12
   2  -9   6   -0.02    0.13
   2  -9   6    0.20    0.17
   2  -9   6    0.10    0.13
   2  -9   6    0.17    0.15
   2  -9   7   21.47    0.98
   2  -9   7   20.36    1.14
   2  -9   7   23.10    1.14
   2  -9   7   21.78    0.95
   2  -9   8    5.06    0.53
   2  -9   8    5.83    0.52
   2  -9   8    4.91    0.43
   2  -9   9    1.72    0.30
   2  -9   9    1.72    0.32
   2  -9   9    1.46    0.23
  -2   9  -9    0.87    0.27
   2  -9  10    0.17    0.14
   2  -9  10    0.02    0.15
   2  -9  10    0.17    0.10
  -2   9 -10    0.12    0.15
   2  -9  11   27.84    1.31
  -2   9 -11   29.14    1.28
   2  -9  12    7.64    0.49
   2  -9  12    7.24    0.55
  -2   9 -12    7.16    0.47
   2  -9  13    1.72    0.24
   2  -9  13    1.70    0.20
  -2   9 -13    1.35    0.15
   2  -9  14    2.41    0.21
  -2   8  12   19.31    0.78
   2  -8 -12   16.54    0.66
   2  -8 -11    3.55    0.30
  -2   8  10    2.95    0.33
   2  -8 -10    2.16    0.27
   2  -8  -9    2.24    0.31
  -2   8   9    2.63    0.34
   2  -8  -8   70.00    2.33
  -2   8   8   62.82    2.35
   2  -8  -7   -0.04    0.12
  -2   8   7    0.30    0.18
   2  -8  -6    9.41    0.66
   2  -8  -6    9.16    0.62
   2  -8  -5   95.17    2.97
   2  -8  -5   90.59    3.54
   2  -8  -5   85.83    3.36
  -2   8   5   85.54    3.34
   2  -8  -5   85.21    3.34
   2  -8  -5   97.24    3.05
   2  -8  -4   70.07    2.36
   2  -8  -4   59.60    2.71
   2  -8  -4   64.90    2.25
   2  -8  -4   61.55    2.62
  -2   8   4   64.44    2.62
   2  -8  -3    3.40    0.54
   2  -8  -3    3.21    0.40
   2  -8  -3    3.22    0.48
  -2   8   3    3.30    0.47
   2  -8  -2    0.97    0.30
  -2   8   2    1.19    0.29
   2  -8  -2    1.10    0.26
   2  -8  -2    0.79    0.25
   2  -8  -1   35.94    1.54
   2  -8  -1   33.76    1.78
  -2   8   1   35.15    1.45
   2  -8  -1   30.51    1.66
  -2   8   1   32.20    1.59
  -2   8   0   36.38    1.66
   2  -8   0   33.48    1.83
   2  -8   0   39.39    1.68
  -2   8   0   36.50    1.50
   2  -8   1   12.73    0.89
   2  -8   1   11.44    0.97
  -2   8  -1   13.36    0.76
   2  -8   1   13.04    0.98
  -2   8  -1   11.93    0.83
  -2   8  -2    2.30    0.30
   2  -8   2    1.96    0.38
   2  -8   3  169.77    4.99
   2  -8   3  167.69    5.53
  -2   8  -3  171.57    4.90
   2  -8   3  163.28    5.37
   2  -8   4    7.10    0.56
   2  -8   4    6.93    0.73
  -2   8  -4    6.61    0.48
   2  -8   4    7.46    0.71
   2  -8   5   11.16    0.73
   2  -8   5    9.74    0.89
   2  -8   5   10.31    0.85
   2  -8   5   10.65    0.66
   2  -8   6   12.57    0.71
   2  -8   6   11.75    0.77
   2  -8   6   10.97    0.95
   2  -8   6   10.79    0.88
   2  -8   6   11.21    0.90
   2  -8   7   18.28    0.88
   2  -8   7   19.66    1.03
   2  -8   7   17.85    1.22
   2  -8   8    0.02    0.14
   2  -8   8    0.13    0.11
  -2   8  -9    1.44    0.31
   2  -8   9    1.82    0.31
   2  -8   9    1.56    0.25
   2  -8  10   18.45    0.98
   2  -8  10   15.54    0.79
  -2   8 -10   16.53    1.00
   2  -8  11   31.42    1.33
  -2   8 -11   27.65    1.33
   2  -8  12    1.85    0.28
   2  -8  12    1.61    0.32
  -2   8 -12    2.05    0.29
   2  -8  13    0.42    0.15
   2  -8  13    0.37    0.19
  -2   8 -13    0.47    0.14
  -2   7  14    0.09    0.04
  -2   7  13   16.60    0.71
   2  -7 -13   13.39    0.55
   2  -7 -12   19.82    0.82
   2  -7 -11    0.70    0.18
   2  -7 -10    2.26    0.31
  -2   7  10    2.58    0.35
   2  -7  -9   33.95    1.41
  -2   7   9   34.11    1.51
  -2   7   8   27.13    1.54
   2  -7  -8   30.32    1.29
  -2   7   8   31.42    1.42
   2  -7  -7    5.00    0.43
  -2   7   7    4.28    0.47
   2  -7  -6   13.29    0.74
   2  -7  -6   16.60    0.91
   2  -7  -6   15.59    0.82
   2  -7  -6   12.70    0.98
   2  -7  -6   13.10    0.99
   2  -7  -5  149.20    5.19
   2  -7  -5  146.46    5.04
   2  -7  -4   13.37    0.81
   2  -7  -4   11.17    0.93
   2  -7  -4   12.67    0.93
   2  -7  -3   10.71    0.89
   2  -7  -3   14.45    0.84
   2  -7  -3   11.35    0.86
  -2   7   3   13.72    1.01
   2  -7  -2   11.36    0.75
   2  -7  -2    9.31    0.76
   2  -7  -2    9.84    0.82
  -2   7   2    9.55    0.82
   2  -7  -1   96.60    3.08
   2  -7  -1   80.73    3.16
  -2   7   1   90.86    2.98
   2  -7  -1   81.54    3.07
  -2   7   1   86.81    3.18
   2  -7   0    0.77    0.16
  -2   7   0    0.73    0.20
  -2   7   0    0.80    0.23
   2  -7   0    0.34    0.20
   2  -7   0    0.86    0.25
   2  -7   0    0.74    0.22
   2  -7   1    3.48    0.48
   2  -7   1    3.81    0.49
  -2   7  -1    4.71    0.50
  -2   7  -1    3.92    0.42
   2  -7   2   88.50    3.09
   2  -7   2   85.16    2.77
   2  -7   2   80.57    3.04
   2  -7   2   86.60    3.17
  -2   7  -2   91.08    2.89
  -2   7  -2   90.60    3.06
   2  -7   3   99.30    3.13
   2  -7   3   99.82    3.42
   2  -7   3   95.22    3.50
  -2   7  -3  100.79    3.18
  -2   7  -3  104.45    3.42
   2  -7   4    3.72    0.39
   2  -7   4    3.11    0.43
  -2   7  -4    4.13    0.39
   2  -7   4    3.27    0.46
   2  -7   5    0.86    0.22
   2  -7   5    0.52    0.21
  -2   7  -5    0.57    0.16
   2  -7   6   65.31    2.24
  -2   7  -6   60.72    2.04
   2  -7   6   59.97    2.50
  -2   7  -6   54.54    2.49
   2  -7   6   60.90    2.40
   2  -7   7   20.31    0.92
   2  -7   7   21.82    1.09
  -2   7  -7   18.21    1.20
  -2   7  -7   20.15    0.91
   2  -7   7   19.18    1.22
   2  -7   8    5.66    0.54
   2  -7   9    0.33    0.14
  -2   7  -9    0.48    0.21
  -2   7 -10   33.03    1.51
   2  -7  11    2.66    0.37
  -2   7 -11    2.31    0.36
   2  -7  12    3.03    0.38
  -2   7 -12    3.34    0.39
  -2   7 -13    4.92    0.41
   2  -7  13    4.70    0.42
   2  -7  14   18.75    0.94
   2  -7  14   18.16    0.78
   2  -7  15    0.12    0.10
  -2   6  14    1.78    0.21
   2  -6 -14    1.55    0.20
  -2   6  13   44.38    1.61
   2  -6 -13   44.17    1.45
   2  -6 -13   43.01    1.59
   2  -6 -12    3.99    0.40
   2  -6 -11   10.66    0.71
   2  -6 -11    9.04    0.67
  -2   6  10    9.57    0.70
   2  -6 -10    9.45    0.69
   2  -6 -10    9.41    0.70
  -2   6   9   48.68    1.96
  -2   6   9   45.71    2.12
  -2   6   8    0.52    0.20
   2  -6  -8    0.50    0.18
  -2   6   7    1.91    0.30
   2  -6  -7    1.77    0.37
   2  -6  -6   65.58    2.72
   2  -6  -6   73.25    2.70
   2  -6  -5   99.74    3.40
   2  -6  -5  103.32    3.55
   2  -6  -5   93.77    3.45
   2  -6  -4    4.16    0.34
   2  -6  -4    5.67    0.51
   2  -6  -4    4.35    0.51
   2  -6  -4    4.17    0.48
   2  -6  -3    5.77    0.52
   2  -6  -3    4.82    0.36
   2  -6  -3    5.09    0.54
   2  -6  -3    4.85    0.50
   2  -6  -2  133.50    4.08
   2  -6  -2  139.29    4.43
   2  -6  -1   36.15    1.29
  -2   6   1   37.43    1.79
   2  -6  -1   36.00    1.56
   2  -6   0   25.76    1.25
  -2   6   0   24.62    1.24
   2  -6   0   25.03    0.99
  -2   6   0   27.98    1.44
  -2   6  -1    5.72    0.53
  -2   6  -1    7.37    0.67
   2  -6   2  109.10    3.25
   2  -6   2  107.32    3.15
  -2   6  -2  112.46    3.67
   2  -6   2  115.92    3.51
   2  -6   3   11.21    0.56
   2  -6   3   10.58    0.62
  -2   6  -3   11.19    0.71
  -2   6  -3   11.37    0.82
   2  -6   3   10.56    0.73
   2  -6   4   14.02    0.87
   2  -6   4   15.40    0.79
   2  -6   4   14.88    0.68
   2  -6   4   15.64    0.97
  -2   6  -4   13.95    0.80
  -2   6  -4   15.34    0.98
   2  -6   5   22.85    1.06
   2  -6   5   24.04    1.20
   2  -6   5   22.87    1.24
  -2   6  -5   21.29    1.02
  -2   6  -6  133.98    4.62
  -2   6  -6  133.23    3.99
   2  -6   6  134.97    4.37
  -2   6  -7    0.14    0.15
   2  -6   7    0.12    0.11
  -2   6  -7    0.05    0.09
  -2   6  -8    0.39    0.19
  -2   6  -8    0.34    0.16
  -2   6  -8    0.58    0.16
  -2   6  -9   38.89    1.45
  -2   6  -9   34.97    1.55
  -2   6 -10    9.87    0.71
  -2   6 -11    0.77    0.22
  -2   6 -12    0.15    0.15
  -2   6 -13   23.89    1.08
  -2   6 -14   13.45    0.67
   2  -6  14   13.31    0.71
   2  -6  15    1.02    0.21
   2  -5 -15    0.23    0.09
  -2   5  15    0.35    0.10
   2  -5 -14   18.60    0.88
  -2   5  14   18.91    0.88
   2  -5 -13   37.35    1.47
   2  -5 -13   37.46    1.51
   2  -5 -12    3.35    0.41
   2  -5 -12    4.16    0.45
   2  -5 -11    0.20    0.18
   2  -5 -11    0.21    0.16
  -2   5  10   51.25    2.29
  -2   5  10   57.80    2.16
   2  -5 -10   52.27    2.41
  -2   5   9   15.66    1.07
  -2   5   9   17.10    0.96
   2  -5  -8    0.53    0.21
  -2   5   8    0.65    0.26
   2  -5  -7    0.89    0.26
  -2   5   7    2.80    0.45
   2  -5  -6  133.44    4.23
   2  -5  -6  121.83    4.22
   2  -5  -6  130.99    4.12
   2  -5  -5   33.55    1.19
   2  -5  -5   35.38    1.56
   2  -5  -5   30.36    1.54
   2  -5  -5   33.36    1.46
   2  -5  -4   42.97    1.43
   2  -5  -4   43.84    1.85
   2  -5  -4   42.33    1.68
   2  -5  -3   88.95    2.62
   2  -5  -3   88.05    2.91
   2  -5  -3   91.35    3.11
   2  -5  -2  228.64    6.46
   2  -5  -2  243.91    6.78
   2  -5  -1    0.68    0.13
  -2   5   1    0.87    0.28
   2  -5  -1    0.97    0.20
   2  -5   0    1.31    0.23
   2  -5   0    1.25    0.16
  -2   5   0    1.09    0.29
  -2   5  -1   38.75    1.83
   2  -5   2   61.92    2.15
   2  -5   2   62.73    1.90
  -2   5  -2   59.41    2.42
   2  -5   3    0.81    0.18
   2  -5   3    0.90    0.14
  -2   5  -3    0.78    0.23
   2  -5   4    4.01    0.36
   2  -5   4    4.94    0.33
  -2   5  -4    4.55    0.42
  -2   5  -4    4.50    0.52
   2  -5   4    4.37    0.42
  -2   5  -5  185.10    5.44
   2  -5   5  190.01    5.22
   2  -5   5  197.04    5.55
  -2   5  -6   70.32    2.31
   2  -5   6   68.26    2.49
   2  -5   6   70.82    2.43
  -2   5  -6   67.21    2.78
   2  -5   6   67.75    2.10
  -2   5  -7   19.18    0.93
   2  -5   7   17.71    1.03
  -2   5  -7   19.99    1.27
  -2   5  -8    1.73    0.27
  -2   5  -8    2.07    0.28
  -2   5  -8    1.99    0.40
  -2   5  -9   39.47    1.53
  -2   5  -9   36.83    1.55
  -2   5  -9   38.90    1.94
  -2   5 -10    0.02    0.11
  -2   5 -11    3.76    0.41
  -2   5 -12    7.63    0.58
  -2   5 -13   33.47    1.37
  -2   5 -14    0.58    0.16
   2  -5  15    1.08    0.22
  -2   5 -15    0.82    0.14
   2  -4 -15    0.16    0.10
  -2   4  15    0.44    0.13
  -2   4  14   40.65    1.60
   2  -4 -14   47.08    1.71
   2  -4 -13    3.87    0.45
  -2   4  13    3.35    0.39
   2  -4 -12    8.00    0.71
   2  -4 -12    6.63    0.62
   2  -4 -11   39.11    1.67
   2  -4 -11   27.43    1.60
  -2   4  10   62.36    2.49
   2  -4  -9    0.07    0.13
  -2   4   9    0.24    0.15
  -2   4   8    4.99    0.55
   2  -4  -8    5.50    0.60
  -2   4   7   33.56    1.54
   2  -4  -7   30.88    1.54
  -2   4   7   30.31    1.23
  -2   4   7   33.95    1.35
   2  -4  -6   93.16    2.94
   2  -4  -6   89.93    3.10
  -2   4   6   83.62    3.02
   2  -4  -5    7.47    0.41
   2  -4  -5    7.31    0.62
   2  -4  -5    8.06    0.56
   2  -4  -4    0.68    0.20
   2  -4  -4    0.61    0.16
   2  -4  -3  346.32    9.63
  -2   4   2   88.14    3.38
   2  -4  -2   77.17    2.70
   2  -4  -1   30.93    1.32
  -2   4   1   29.51    1.68
  -2   4   0    3.88    0.55
  -2   4  -1   92.28    3.40
  -2   4  -2    7.00    0.68
  -2   4  -2    6.85    0.42
  -2   4  -3   14.30    0.62
  -2   4  -3   18.28    1.09
   2  -4   4   47.60    1.70
  -2   4  -4   47.15    2.05
   2  -4   5  215.12    5.73
   2  -4   5  211.49    6.01
  -2   4  -5  205.36    5.95
  -2   4  -5  215.70    6.50
   2  -4   6    0.26    0.11
  -2   4  -6    0.11    0.09
  -2   4  -6   -0.03    0.12
   2  -4   7    0.63    0.16
  -2   4  -7    0.67    0.24
   2  -4   7    0.79    0.19
  -2   4  -7    0.50    0.15
  -2   4  -7    0.52    0.15
  -2   4  -8   68.34    2.77
  -2   4  -8   69.26    2.30
  -2   4  -8   64.79    2.26
  -2   4  -9   25.96    1.16
  -2   4  -9   23.23    1.12
  -2   4  -9   25.57    1.52
  -2   4 -10    0.34    0.20
  -2   4 -10    0.12    0.12
  -2   4 -11    0.04    0.10
  -2   4 -12   32.69    1.38
  -2   4 -13   12.23    0.72
  -2   4 -14    2.90    0.31
  -2   4 -15    0.76    0.15
   2  -3 -16    1.15    0.17
   2  -3 -16    1.23    0.18
   2  -3 -15   14.48    0.78
   2  -3 -15   14.75    0.79
  -2   3  15   12.52    0.69
   2  -3 -14   29.89    1.35
   2  -3 -14   31.52    1.41
   2  -3 -13    1.29    0.33
   2  -3 -13    1.45    0.31
   2  -3 -12    3.52    0.53
   2  -3 -11   79.93    3.11
  -2   3  11   82.58    2.99
  -2   3  10   30.55    1.52
  -2   3  10   30.33    1.34
  -2   3   9    9.71    0.65
  -2   3   9    9.33    0.75
   2  -3  -9    9.59    0.81
   2  -3  -8    0.91    0.26
  -2   3   8    0.59    0.16
  -2   3   8    1.29    0.27
  -2   3   7  107.50    3.45
  -2   3   7  110.67    3.23
   2  -3  -7  105.68    3.54
   2  -3  -6    6.93    0.50
  -2   3   6    7.79    0.50
   2  -3  -6    6.94    0.60
  -2   3   6    7.54    0.60
   2  -3  -5   18.85    1.01
  -2   3   5   18.98    0.98
   2  -3  -4   67.82    2.35
   2  -3  -3  253.53    7.12
   2  -3  -2    1.82    0.25
   2  -3  -1    8.74    0.56
  -2   3   1    6.44    0.74
  -2   3   0  113.43    3.21
  -2   3   0   94.80    3.80
  -2   3  -1  107.97    3.14
  -2   3  -1  109.48    3.82
  -2   3  -2   10.22    0.50
  -2   3  -2   11.47    0.86
  -2   3  -3    0.44    0.08
  -2   3  -3    0.69    0.22
  -2   3  -4  179.30    5.56
  -2   3  -5   44.43    1.91
  -2   3  -6   14.49    0.97
  -2   3  -6   13.55    0.74
   2  -3   6   14.07    0.72
  -2   3  -6   14.11    0.72
  -2   3  -7    1.77    0.34
  -2   3  -7    1.29    0.22
  -2   3  -7    1.52    0.23
  -2   3  -8  119.36    3.95
  -2   3  -8  119.67    3.68
  -2   3  -8  118.56    3.66
  -2   3  -9    7.39    0.68
  -2   3  -9    7.80    0.57
  -2   3  -9    6.43    0.51
  -2   3  -9    6.88    0.75
  -2   3 -10    8.60    0.61
  -2   3 -10    9.09    0.79
  -2   3 -11   19.10    0.98
  -2   3 -12   25.69    1.17
  -2   3 -13    0.54    0.17
  -2   3 -14    0.59    0.17
  -2   3 -15   12.73    0.66
   2  -2 -16    1.36    0.22
   2  -2 -16    1.12    0.20
   2  -2 -15   27.31    1.27
   2  -2 -15   28.95    1.32
   2  -2 -14    5.21    0.60
   2  -2 -14    5.29    0.55
   2  -2 -13    3.23    0.46
   2  -2 -13    3.59    0.56
   2  -2 -12   18.10    1.20
  -2   2  11  103.54    3.57
   2  -2 -10    0.10    0.14
  -2   2  10    0.17    0.12
  -2   2   9    8.34    0.70
  -2   2   9   10.02    0.64
   2  -2  -9    9.84    0.81
   2  -2  -8   91.53    3.32
  -2   2   8   99.31    3.01
  -2   2   8   92.52    3.19
  -2   2   7   72.11    2.60
  -2   2   7   78.00    2.43
   2  -2  -7   78.76    2.76
  -2   2   7   73.86    2.38
  -2   2   6    6.02    0.42
   2  -2  -6    6.52    0.57
  -2   2   6    5.20    0.40
  -2   2   6    6.21    0.51
  -2   2   5   15.02    0.81
   2  -2  -5   14.34    0.83
  -2   2   5   14.00    0.70
   2  -2  -4  235.77    6.68
  -2   2   3   93.32    2.90
   2  -2  -3   94.10    2.93
  -2   2   2   31.04    1.20
   2  -2  -2   30.58    1.21
   2  -2  -1    9.52    0.54
  -2   2   1    8.36    0.79
  -2   2   1    9.58    0.54
  -2   2   0  395.40   10.23
   2  -2   0  369.97   10.22
  -2   2   0  388.77   10.91
  -2   2  -1    5.27    0.35
  -2   2  -1    5.66    0.58
  -2   2  -2   13.99    0.88
  -2   2  -2   11.26    0.53
  -2   2  -3   57.70    2.26
  -2   2  -4   60.50    2.29
  -2   2  -5    0.03    0.11
  -2   2  -5    0.03    0.06
  -2   2  -6    6.60    0.55
  -2   2  -6    5.77    0.42
  -2   2  -6    7.00    0.64
  -2   2  -6    7.23    0.49
  -2   2  -7   88.79    3.17
  -2   2  -7   88.41    2.99
  -2   2  -7   87.57    2.81
  -2   2  -7   87.92    2.72
  -2   2  -7   92.07    2.71
  -2   2  -8  112.29    3.56
  -2   2  -8  115.70    3.44
  -2   2  -8  110.98    3.76
  -2   2  -8  110.17    3.45
  -2   2  -8  116.50    3.99
  -2   2  -9    3.13    0.35
  -2   2  -9    2.97    0.38
  -2   2  -9    2.29    0.39
  -2   2  -9    3.06    0.50
  -2   2 -10    0.28    0.22
  -2   2 -10    0.50    0.17
  -2   2 -11   45.54    1.74
  -2   2 -11   44.27    2.13
  -2   2 -12    2.30    0.31
  -2   2 -13    2.52    0.31
  -2   2 -14    1.81    0.26
  -2   2 -15   20.76    0.92
   2  -1 -16   16.97    0.85
   2  -1 -16   18.10    0.89
   2  -1 -15   21.03    1.13
   2  -1 -15   19.84    1.08
   2  -1 -14    0.09    0.17
   2  -1 -14    0.10    0.18
  -2   1  14    0.06    0.11
   2  -1 -13    0.52    0.27
  -2   1  13    0.40    0.18
  -2   1  13    0.30    0.10
   2  -1 -13    0.43    0.22
  -2   1  12   61.73    2.05
  -2   1  12   65.77    2.31
  -2   1  11   35.49    1.34
  -2   1  11   34.10    1.65
  -2   1  10   20.39    0.93
  -2   1  10   19.72    1.14
   2  -1 -10   22.30    1.30
  -2   1   9   24.28    1.25
  -2   1   9   23.92    1.03
   2  -1  -9   23.15    1.31
  -2   1   8  172.21    4.94
  -2   1   8  178.65    5.00
  -2   1   8  165.65    5.22
   2  -1  -8  179.58    5.41
  -2   1   7    1.99    0.26
  -2   1   7    2.53    0.27
  -2   1   7    1.94    0.24
   2  -1  -7    1.88    0.33
  -2   1   7    2.22    0.31
  -2   1   6    4.75    0.39
  -2   1   6    5.11    0.39
   2  -1  -6    4.58    0.47
  -2   1   6    4.81    0.44
   2  -1  -5    1.41    0.25
  -2   1   5    1.70    0.25
  -2   1   4  139.84    4.10
   2  -1  -4  147.95    4.27
  -2   1   3    0.83    0.17
   2  -1  -3    1.25    0.20
  -2   1   3    0.77    0.15
  -2   1   2   42.27    1.50
   2  -1  -2   43.19    1.49
  -2   1   2   42.88    1.49
  -2   1   2   39.40    1.79
   2  -1  -1  301.40    8.26
  -2   1   1  287.32    8.75
   2  -1   0  198.74    5.55
  -2   1   0  213.18    5.65
  -2   1  -1   21.39    0.88
  -2   1  -1   17.91    0.77
  -2   1  -2    7.34    0.47
  -2   1  -3  154.93    4.44
  -2   1  -4   20.46    1.07
  -2   1  -4   18.79    0.87
  -2   1  -5   12.40    0.82
  -2   1  -5   10.88    0.66
  -2   1  -5   10.72    0.69
  -2   1  -5   11.28    0.64
  -2   1  -6    7.78    0.67
  -2   1  -6    6.68    0.56
  -2   1  -6    7.72    0.48
  -2   1  -6    7.02    0.53
  -2   1  -6    6.67    0.47
  -2   1  -6    6.93    0.51
  -2   1  -7  184.84    5.67
  -2   1  -7  182.68    5.33
  -2   1  -7  168.47    5.04
  -2   1  -7  178.09    5.43
  -2   1  -7  184.96    5.14
  -2   1  -7  186.15    5.10
  -2   1  -8   16.76    0.96
  -2   1  -8   16.22    0.78
  -2   1  -8   16.11    0.83
  -2   1  -8   16.52    0.81
  -2   1  -8   15.13    0.99
  -2   1  -8   15.47    1.10
  -2   1  -9   11.13    0.80
  -2   1  -9   10.91    0.87
  -2   1  -9   10.82    0.67
  -2   1 -10   33.64    1.60
  -2   1 -10   34.70    1.42
  -2   1 -10   31.73    1.71
  -2   1 -11   32.11    1.60
  -2   1 -11   31.25    1.75
  -2   1 -11   35.70    1.45
  -2   1 -12    0.50    0.18
  -2   1 -12    0.57    0.31
  -2   1 -13    0.34    0.15
  -2   1 -14   15.02    0.80
  -2   1 -15   12.87    0.69
   2   0 -17    4.35    0.30
   2   0 -16   29.90    1.22
   2   0 -16   28.84    1.21
  -2   0  15    3.03    0.32
   2   0 -15    4.11    0.45
   2   0 -15    3.71    0.44
  -2   0  15    3.04    0.24
  -2   0  14    4.97    0.36
   2   0 -14    6.49    0.65
   2   0 -14    6.02    0.62
  -2   0  14    4.54    0.44
  -2   0  13    5.97    0.44
  -2   0  13    6.97    0.56
  -2   0  12   70.50    2.35
  -2   0  12   73.17    2.52
  -2   0  11    0.66    0.19
  -2   0  11    0.64    0.18
   2   0 -11    0.57    0.24
   2   0 -10    1.79    0.36
  -2   0  10    1.87    0.25
  -2   0  10    2.11    0.29
  -2   0   9  153.97    4.41
  -2   0   9  147.88    4.28
   2   0  -9  144.04    4.78
  -2   0   9  142.68    4.62
  -2   0   8  120.58    3.54
   2   0  -8  113.86    3.82
  -2   0   8  108.47    3.67
  -2   0   7    9.33    0.58
  -2   0   7    7.91    0.53
  -2   0   7    8.14    0.48
  -2   0   7    8.33    0.62
   2   0  -7    8.14    0.66
  -2   0   7    8.38    0.57
  -2   0   6    4.16    0.41
  -2   0   6    4.03    0.35
   2   0  -6    3.92    0.43
  -2   0   6    4.05    0.38
  -2   0   5  183.31    5.18
   2   0  -5  190.83    5.38
  -2   0   5  187.11    5.29
  -2   0   5  177.55    5.33
  -2   0   4   23.62    1.00
   2   0  -4   24.21    1.06
  -2   0   4   23.43    1.02
  -2   0   3   19.63    0.89
  -2   0   3   18.76    0.84
   2   0  -3   18.33    0.85
  -2   0   3   19.84    0.89
  -2   0   2   35.74    1.33
   2   0  -2   36.51    1.29
  -2   0   2   35.01    1.51
  -2   0   1  428.58   11.39
   2   0  -1  417.34   11.26
  -2   0   1  398.70   11.65
  -2   0   0   18.60    0.96
  -2   0   0   20.97    0.85
  -2   0  -1   15.90    0.88
  -2   0  -1   17.24    0.80
  -2   0  -2   51.93    1.76
  -2   0  -2   50.94    1.91
  -2   0  -2   52.08    1.82
  -2   0  -2   50.81    1.89
  -2   0  -3   87.89    2.80
  -2   0  -3   88.65    2.74
  -2   0  -3   88.37    2.92
  -2   0  -4    0.24    0.10
  -2   0  -4    0.34    0.12
  -2   0  -5   12.05    0.71
  -2   0  -5   11.66    0.66
  -2   0  -5   11.91    0.71
  -2   0  -6   96.75    3.02
  -2   0  -6   94.46    3.11
  -2   0  -6   96.10    3.37
  -2   0  -6   94.81    2.87
  -2   0  -6   95.83    2.85
  -2   0  -7   75.74    2.66
  -2   0  -7   72.18    2.37
  -2   0  -7   78.33    2.46
  -2   0  -7   78.74    2.41
  -2   0  -7   70.93    2.32
  -2   0  -7   83.37    2.98
  -2   0  -8    7.07    0.50
  -2   0  -8    6.76    0.62
  -2   0  -8    6.66    0.48
  -2   0  -8    7.94    0.78
  -2   0  -9    0.33    0.18
  -2   0  -9    0.78    0.17
  -2   0  -9    0.64    0.17
  -2   0 -10   57.76    2.43
  -2   0 -10   61.18    2.16
  -2   0 -11    8.18    0.78
  -2   0 -11    9.89    0.68
  -2   0 -12    2.06    0.40
  -2   0 -12    2.90    0.37
  -2   0 -13    4.01    0.41
  -2   0 -14   24.52    1.09
  -2   0 -14   22.09    0.98
  -2   0 -15    0.49    0.14
  -2  -1  17   14.03    0.59
   2   1 -16   17.76    0.79
   2   1 -16   17.58    0.81
  -2  -1  15    1.64    0.20
   2   1 -15    2.13    0.32
   2   1 -15    2.04    0.30
  -2  -1  14    0.04    0.08
   2   1 -14    0.23    0.18
   2   1 -14    0.05    0.14
  -2  -1  14    0.02    0.09
  -2  -1  13   37.13    1.43
   2   1 -13   39.81    1.79
  -2  -1  13   35.22    1.51
  -2  -1  12   12.63    0.74
  -2  -1  12   13.56    0.80
  -2  -1  11    4.86    0.46
  -2  -1  11    5.70    0.49
   2   1 -11    4.47    0.59
  -2  -1  10   21.22    1.05
  -2  -1  10   22.41    0.97
  -2  -1  10   22.88    1.04
   2   1 -10   19.30    1.26
  -2  -1   9  211.05    5.96
  -2  -1   9  202.55    5.76
  -2  -1   9  210.22    5.81
   2   1  -9  196.19    6.27
  -2  -1   8   14.47    0.77
  -2  -1   8   15.07    0.73
   2   1  -8   14.37    0.96
  -2  -1   7   23.92    0.98
  -2  -1   7   24.04    1.08
   2   1  -7   24.51    1.25
  -2  -1   6   19.98    0.95
  -2  -1   6   20.94    1.05
   2   1  -6   19.11    1.04
  -2  -1   6   22.44    1.04
  -2  -1   5  157.82    4.57
  -2  -1   5  153.83    4.49
   2   1  -5  152.48    4.60
  -2  -1   5  153.02    4.60
  -2  -1   4    3.95    0.35
   2   1  -4    3.90    0.37
  -2  -1   4    4.37    0.39
  -2  -1   3    3.87    0.35
   2   1  -3    4.32    0.36
  -2  -1   3    4.40    0.39
  -2  -1   3    3.89    0.40
   2   1  -2  197.14    5.55
  -2  -1   2  210.69    5.76
  -2  -1   2  198.46    5.79
  -2  -1   1  156.13    4.29
   2   1  -1  135.58    4.05
  -2  -1   1  162.81    4.37
  -2  -1   1  144.39    4.36
  -2  -1   0    6.64    0.45
  -2  -1   0    6.74    0.50
  -2  -1   0    6.17    0.46
  -2  -1  -1    1.15    0.20
  -2  -1  -1    1.31    0.22
  -2  -1  -1    1.24    0.20
  -2  -1  -1    1.23    0.22
  -2  -1  -2  329.10    8.86
  -2  -1  -2  317.16    8.94
  -2  -1  -2  329.93    8.96
  -2  -1  -3   54.51    1.89
  -2  -1  -3   53.15    1.96
  -2  -1  -3   57.17    2.02
  -2  -1  -4   25.88    1.22
  -2  -1  -4   23.49    1.10
  -2  -1  -4   23.35    1.09
  -2  -1  -4   25.12    1.07
  -2  -1  -5   39.76    1.35
  -2  -1  -5   36.80    1.54
  -2  -1  -5   37.13    1.53
  -2  -1  -5   36.04    1.34
  -2  -1  -5   39.94    1.38
  -2  -1  -5   37.22    1.36
  -2  -1  -5   41.43    1.47
  -2  -1  -5   38.38    1.69
  -2  -1  -6   85.32    3.04
  -2  -1  -6   99.27    2.85
  -2  -1  -6   95.40    2.86
  -2  -1  -6   89.14    3.04
  -2  -1  -6   89.94    2.81
  -2  -1  -7    1.20    0.20
  -2  -1  -7    1.16    0.20
  -2  -1  -7    1.08    0.25
  -2  -1  -7    0.72    0.18
  -2  -1  -8    6.33    0.61
  -2  -1  -8    6.09    0.46
  -2  -1  -8    6.36    0.61
  -2  -1  -8    5.15    0.43
  -2  -1  -8    6.60    0.49
  -2  -1  -9   21.89    1.28
  -2  -1  -9   20.60    1.23
  -2  -1  -9   23.14    1.07
  -2  -1 -10   74.02    2.97
  -2  -1 -10   75.64    2.95
  -2  -1 -10   83.09    2.70
  -2  -1 -11    0.32    0.22
  -2  -1 -11    0.47    0.23
  -2  -1 -11    0.57    0.20
  -2  -1 -12    0.99    0.31
  -2  -1 -12    0.87    0.23
  -2  -1 -13   28.55    1.30
  -2  -1 -14    7.53    0.54
  -2  -1 -14    6.06    0.43
  -2  -2  17   24.73    0.88
  -2  -2  16    0.90    0.13
   2   2 -16    0.86    0.16
   2   2 -15    4.96    0.43
   2   2 -15    5.31    0.44
  -2  -2  15    4.92    0.36
   2   2 -14   14.20    0.85
  -2  -2  14   14.39    0.75
  -2  -2  13   34.65    1.38
   2   2 -13   34.18    1.53
  -2  -2  13   32.44    1.39
  -2  -2  12    0.08    0.11
   2   2 -12    0.23    0.15
  -2  -2  12    0.04    0.10
  -2  -2  11    0.47    0.15
  -2  -2  11    0.49    0.18
  -2  -2  10   60.20    2.15
  -2  -2  10   61.65    2.01
  -2  -2  10   57.77    2.04
   2   2 -10   55.46    2.43
  -2  -2   9   86.78    2.83
  -2  -2   9   98.04    3.04
  -2  -2   9   93.91    2.84
   2   2  -9   88.96    3.30
  -2  -2   8   20.60    1.00
  -2  -2   8   18.07    0.83
  -2  -2   8   17.77    0.82
   2   2  -8   17.86    1.10
  -2  -2   7    0.49    0.15
  -2  -2   7    0.66    0.19
   2   2  -7    0.34    0.16
  -2  -2   7    0.67    0.14
  -2  -2   7    0.68    0.14
  -2  -2   6  303.46    8.19
  -2  -2   6  287.64    7.98
   2   2  -6  299.87    8.34
  -2  -2   5   14.55    0.68
   2   2  -5   14.62    0.84
  -2  -2   5   14.32    0.78
  -2  -2   4   10.89    0.70
   2   2  -4   11.74    0.69
  -2  -2   4   12.37    0.70
  -2  -2   4   10.93    0.66
  -2  -2   3   25.94    0.94
  -2  -2   3   28.06    1.21
  -2  -2   3   26.56    1.13
   2   2  -3   26.17    1.10
  -2  -2   3   25.77    1.13
  -2  -2   2  125.71    3.60
  -2  -2   2  134.49    3.90
  -2  -2   2  130.10    3.77
   2   2  -2  120.66    3.65
  -2  -2   1   10.69    0.56
   2   2  -1    9.56    0.49
  -2  -2   1   11.25    0.63
  -2  -2   1   10.84    0.68
  -2  -2   1   10.34    0.65
  -2  -2   0   35.30    1.33
  -2  -2   0   39.08    1.46
  -2  -2   0   36.27    1.40
  -2  -2  -1   82.89    2.78
  -2  -2  -1   87.69    2.71
  -2  -2  -1   80.09    2.63
  -2  -2  -2  307.28    8.36
  -2  -2  -2  300.35    8.44
  -2  -2  -2  301.29    8.36
  -2  -2  -3    1.69    0.22
  -2  -2  -3    1.86    0.25
  -2  -2  -3    2.18    0.30
  -2  -2  -4    1.52    0.28
  -2  -2  -4    1.41    0.25
  -2  -2  -4    1.81    0.22
  -2  -2  -4    2.17    0.26
  -2  -2  -4    1.73    0.25
  -2  -2  -5   92.43    3.10
  -2  -2  -5  104.16    3.42
  -2  -2  -5   88.95    3.14
  -2  -2  -5   98.27    2.93
  -2  -2  -5   95.60    2.92
  -2  -2  -5   95.18    2.97
  -2  -2  -5   97.22    2.94
  -2  -2  -5  106.28    3.10
  -2  -2  -6   20.53    1.08
  -2  -2  -6   20.45    0.88
  -2  -2  -6   17.50    0.97
  -2  -2  -6   17.27    0.91
  -2  -2  -6   17.43    0.88
  -2  -2  -7    3.30    0.43
  -2  -2  -7    3.30    0.33
  -2  -2  -7    2.98    0.39
  -2  -2  -7    3.94    0.38
  -2  -2  -8    0.11    0.13
  -2  -2  -8    0.12    0.16
  -2  -2  -8    0.13    0.15
  -2  -2  -8    0.15    0.11
  -2  -2  -8    0.09    0.13
  -2  -2  -9   58.25    2.39
  -2  -2  -9   59.17    2.32
  -2  -2  -9   54.68    2.02
  -2  -2  -9   62.80    2.17
  -2  -2 -10   25.47    1.42
  -2  -2 -10   21.88    1.27
  -2  -2 -10   24.98    1.21
  -2  -2 -11    5.72    0.63
  -2  -2 -11    4.57    0.55
  -2  -2 -11    6.10    0.56
  -2  -2 -12    7.85    0.63
  -2  -2 -12    6.29    0.65
  -2  -2 -13   32.77    1.41
  -2  -2 -13   29.22    1.26
  -2  -2 -14   -0.02    0.11
  -2  -2 -15    0.82    0.18
  -2  -3  16    2.20    0.20
  -2  -3  15    0.95    0.17
   2   3 -15    0.80    0.16
  -2  -3  14   43.09    1.57
   2   3 -14   42.35    1.61
   2   3 -14   42.55    1.61
  -2  -3  13    9.52    0.62
   2   3 -13    8.47    0.62
  -2  -3  12    1.46    0.26
   2   3 -12    1.26    0.32
   2   3 -12    1.69    0.29
  -2  -3  11    2.67    0.35
  -2  -3  11    2.56    0.31
   2   3 -11    2.50    0.45
  -2  -3  10   94.58    3.07
  -2  -3  10  100.12    3.21
   2   3 -10   93.40    3.58
  -2  -3   9    7.52    0.58
  -2  -3   9    7.60    0.51
  -2  -3   9    8.95    0.55
   2   3  -9    7.52    0.72
  -2  -3   8   26.29    1.08
  -2  -3   8   28.31    1.12
  -2  -3   8   30.61    1.28
   2   3  -8   26.24    1.43
  -2  -3   7  110.12    3.33
  -2  -3   7  118.12    3.69
   2   3  -7  110.76    3.75
  -2  -3   6  202.80    5.70
  -2  -3   6  207.93    6.06
  -2  -3   6  218.17    6.01
  -2  -3   6  193.56    5.76
   2   3  -6  211.46    6.09
  -2  -3   5    0.97    0.20
   2   3  -5    0.73    0.19
  -2  -3   5    0.99    0.17
  -2  -3   5    1.03    0.18
  -2  -3   4    0.22    0.12
   2   3  -4    0.31    0.13
  -2  -3   4    0.32    0.10
  -2  -3   4    0.04    0.05
   2   3  -3   69.00    2.30
  -2  -3   3   68.38    2.35
  -2  -3   3   68.08    2.16
   2   3  -2   67.38    2.19
  -2  -3   2   69.67    2.12
  -2  -3   2   65.21    2.01
   2   3  -1   10.39    0.55
  -2  -3   1   10.31    0.57
  -2  -3   1   11.66    0.58
  -2  -3   1   11.91    0.72
  -2  -3   0    1.12    0.22
  -2  -3   0    1.28    0.20
  -2  -3  -1  330.86    9.11
  -2  -3  -1  328.18    8.99
  -2  -3  -2   62.94    2.05
  -2  -3  -2   61.02    2.21
  -2  -3  -2   65.99    2.24
  -2  -3  -3   21.76    1.11
  -2  -3  -3   20.33    0.92
  -2  -3  -3   21.83    1.05
  -2  -3  -4   29.81    1.16
  -2  -3  -4   31.04    1.25
  -2  -3  -4   29.45    1.34
  -2  -3  -4   30.14    1.18
  -2  -3  -5   74.66    2.70
  -2  -3  -5   80.88    2.49
  -2  -3  -5   79.85    2.59
  -2  -3  -5   77.84    2.69
  -2  -3  -5   77.52    2.52
  -2  -3  -6    0.32    0.15
  -2  -3  -6    0.17    0.10
  -2  -3  -6    0.33    0.17
  -2  -3  -6    0.23    0.11
  -2  -3  -7    9.05    0.73
  -2  -3  -7   10.16    0.62
  -2  -3  -7    9.10    0.68
  -2  -3  -7    9.16    0.66
  -2  -3  -8   24.58    1.32
  -2  -3  -8   24.30    1.09
  -2  -3  -8   24.43    1.24
  -2  -3  -8   24.11    1.19
  -2  -3  -8   24.19    1.17
  -2  -3  -9   62.01    2.48
  -2  -3  -9   64.63    2.40
  -2  -3  -9   57.17    2.22
  -2  -3  -9   65.47    2.35
  -2  -3 -10    0.06    0.16
  -2  -3 -10   -0.10    0.18
  -2  -3 -10    0.02    0.15
  -2  -3 -11    1.05    0.30
  -2  -3 -11    1.05    0.25
  -2  -3 -11    1.11    0.28
  -2  -3 -12   32.49    1.49
  -2  -3 -12   32.49    1.41
  -2  -3 -13   11.83    0.73
  -2  -3 -13    9.70    0.58
  -2  -3 -14    1.02    0.17
  -2  -4  16    1.64    0.18
  -2  -4  16    1.72    0.20
  -2  -4  15   20.58    0.85
  -2  -4  15   19.29    0.88
  -2  -4  14   39.87    1.47
  -2  -4  13    0.19    0.13
  -2  -4  12    2.19    0.31
   2   4 -12    1.90    0.39
   2   4 -12    1.80    0.28
  -2  -4  11   24.22    1.14
   2   4 -11   26.24    1.17
   2   4 -11   23.03    1.45
  -2  -4  10   19.66    0.99
  -2  -4  10   20.39    0.92
  -2  -4   9    9.52    0.58
   2   4  -9    8.79    0.81
  -2  -4   8    1.89    0.22
   2   4  -8    2.12    0.38
  -2  -4   8    2.14    0.26
  -2  -4   7  204.35    5.74
  -2  -4   7  209.47    5.58
  -2  -4   7  191.84    5.61
  -2  -4   7  211.21    6.10
  -2  -4   7  193.74    5.51
   2   4  -7  197.24    6.09
  -2  -4   6   48.93    1.74
  -2  -4   6   52.63    1.67
  -2  -4   6   47.78    1.56
  -2  -4   6   46.75    1.61
  -2  -4   6   49.36    1.70
  -2  -4   6   50.72    2.04
  -2  -4   6   47.42    1.60
   2   4  -6   49.32    2.02
  -2  -4   5   23.88    0.91
  -2  -4   5   23.83    1.03
  -2  -4   5   24.88    1.01
  -2  -4   5   23.95    0.97
   2   4  -5   26.12    1.27
  -2  -4   5   25.97    1.03
  -2  -4   5   24.90    1.27
  -2  -4   5   24.38    0.94
   2   4  -4   13.05    0.81
  -2  -4   4   12.66    0.63
  -2  -4   4   12.79    0.65
  -2  -4   4   11.84    0.81
  -2  -4   3  119.42    3.53
   2   4  -3  118.54    3.65
  -2  -4   3  114.12    3.74
  -2  -4   3  114.12    3.40
   2   4  -2    2.57    0.30
  -2  -4   2    2.20    0.29
  -2  -4   2    2.23    0.24
  -2  -4   1   16.70    0.87
  -2  -4   1   15.92    0.73
  -2  -4   1   15.89    0.76
  -2  -4   1   15.98    0.73
  -2  -4   1   18.78    0.98
  -2  -4   0   85.04    2.57
  -2  -4   0   82.41    2.59
  -2  -4   0   82.06    2.51
  -2  -4   0   85.37    2.75
  -2  -4  -1  155.93    4.43
  -2  -4  -1  149.74    4.55
  -2  -4  -1  154.09    4.42
  -2  -4  -1  147.98    4.30
  -2  -4  -2    0.65    0.13
  -2  -4  -2    0.36    0.15
  -2  -4  -2    0.41    0.13
  -2  -4  -2    0.64    0.13
  -2  -4  -2    0.88    0.22
  -2  -4  -2    0.65    0.13
  -2  -4  -2    0.37    0.13
  -2  -4  -3    1.64    0.21
  -2  -4  -3    1.17    0.21
  -2  -4  -3    1.46    0.23
  -2  -4  -3    1.06    0.19
  -2  -4  -3    1.69    0.24
  -2  -4  -3    1.23    0.17
  -2  -4  -4   87.18    2.88
  -2  -4  -4   88.33    2.77
  -2  -4  -4   81.56    2.71
  -2  -4  -4   85.58    2.94
  -2  -4  -4   90.97    2.52
  -2  -4  -5   55.26    2.11
  -2  -4  -5   55.53    1.88
  -2  -4  -5   57.40    2.03
  -2  -4  -5   52.37    1.97
  -2  -4  -5   50.45    1.74
  -2  -4  -5   54.65    2.10
  -2  -4  -6    2.25    0.28
  -2  -4  -6    2.03    0.32
  -2  -4  -6    1.66    0.29
  -2  -4  -7    1.00    0.21
  -2  -4  -7    1.03    0.26
  -2  -4  -8   59.83    2.38
  -2  -4  -8   60.93    2.30
  -2  -4  -8   59.53    2.29
  -2  -4  -9    5.73    0.60
  -2  -4  -9    5.64    0.57
  -2  -4  -9    5.76    0.55
  -2  -4  -9    4.01    0.49
  -2  -4 -10    4.42    0.52
  -2  -4 -10    3.83    0.45
  -2  -4 -10    4.58    0.51
  -2  -4 -10    4.14    0.47
  -2  -4 -11    5.33    0.55
  -2  -4 -11    5.68    0.52
  -2  -4 -12   33.57    1.47
  -2  -4 -12   33.34    1.34
  -2  -4 -13    1.00    0.20
  -2  -4 -13    1.13    0.15
  -2  -4 -14    1.22    0.18
  -2  -5  16    0.42    0.09
  -2  -5  16    0.35    0.10
  -2  -5  15   41.02    1.38
  -2  -5  15   39.07    1.40
  -2  -5  14    9.85    0.57
  -2  -5  14    9.01    0.56
  -2  -5  13    7.11    0.50
  -2  -5  13    6.92    0.50
  -2  -5  11   52.39    1.76
   2   5 -11   45.84    2.23
  -2  -5  10    0.07    0.10
   2   5 -10    0.19    0.17
  -2  -5  10    0.08    0.07
  -2  -5  10    0.26    0.12
  -2  -5   9    4.52    0.42
  -2  -5   9    3.53    0.32
  -2  -5   9    4.15    0.37
   2   5  -9    4.26    0.56
  -2  -5   8   49.94    1.80
  -2  -5   8   51.48    1.69
   2   5  -8   47.20    2.16
  -2  -5   8   48.97    1.75
  -2  -5   8   47.57    1.62
  -2  -5   7  115.77    3.53
  -2  -5   7  119.08    3.44
  -2  -5   7  115.82    3.34
  -2  -5   7  112.88    3.40
  -2  -5   7  112.04    3.48
  -2  -5   7  122.37    3.49
  -2  -5   7  113.33    3.40
   2   5  -7  112.76    3.97
  -2  -5   6    0.32    0.13
   2   5  -6    0.39    0.18
  -2  -5   6    0.13    0.10
  -2  -5   6    0.09    0.07
  -2  -5   6    0.11    0.09
  -2  -5   6    0.06    0.08
  -2  -5   6    0.26    0.12
  -2  -5   6    0.32    0.12
  -2  -5   6    0.09    0.12
  -2  -5   6    0.20    0.09
   2   5  -5    7.28    0.66
  -2  -5   5    9.12    0.54
  -2  -5   5    7.94    0.51
  -2  -5   5    7.67    0.50
  -2  -5   5    8.06    0.47
  -2  -5   5    8.36    0.53
  -2  -5   5    9.31    0.56
  -2  -5   5    8.62    0.73
  -2  -5   5    8.53    0.49
   2   5  -4  125.54    4.06
  -2  -5   4  136.81    3.73
  -2  -5   4  128.04    3.69
  -2  -5   4  126.21    3.61
  -2  -5   4  122.04    3.57
  -2  -5   4  126.37    3.69
  -2  -5   4  124.41    3.69
  -2  -5   4  128.67    3.72
  -2  -5   4  130.37    4.13
  -2  -5   4  118.55    3.65
  -2  -5   4  120.01    3.60
  -2  -5   3   79.12    2.59
   2   5  -3   89.72    2.92
  -2  -5   3   82.75    2.60
  -2  -5   3   84.52    2.56
  -2  -5   3   86.93    2.63
  -2  -5   3   85.44    2.65
  -2  -5   3   85.18    3.04
  -2  -5   3   94.66    2.72
  -2  -5   3   80.99    2.55
  -2  -5   3   83.39    2.55
  -2  -5   2   17.66    0.85
   2   5  -2   16.40    0.90
  -2  -5   2   16.91    0.84
  -2  -5   2   16.48    0.74
  -2  -5   2   14.79    0.72
  -2  -5   2   15.78    0.76
  -2  -5   2   17.12    1.03
  -2  -5   1    7.01    0.49
  -2  -5   1    6.43    0.51
  -2  -5   1    6.64    0.45
  -2  -5   1    6.12    0.43
  -2  -5   1    6.56    0.50
  -2  -5   1    6.65    0.62
  -2  -5   1    7.03    0.44
  -2  -5   0  107.45    3.12
  -2  -5   0  106.03    3.37
  -2  -5   0  109.20    3.21
  -2  -5   0  108.86    3.24
  -2  -5   0  108.75    3.31
  -2  -5   0  109.53    3.38
  -2  -5   0  106.73    3.18
  -2  -5   0  101.17    3.61
  -2  -5   0  105.71    3.15
  -2  -5  -1   13.86    0.67
  -2  -5  -1   14.09    0.81
  -2  -5  -1   13.95    0.71
  -2  -5  -1   13.42    0.77
  -2  -5  -1   13.25    0.75
  -2  -5  -1   14.10    0.80
  -2  -5  -1   13.06    0.66
  -2  -5  -1   15.07    0.97
  -2  -5  -1   13.99    0.74
  -2  -5  -1   13.90    0.66
  -2  -5  -2   12.65    0.64
  -2  -5  -2   11.14    0.71
  -2  -5  -2   11.72    0.65
  -2  -5  -2   10.02    0.68
  -2  -5  -2   11.94    0.72
  -2  -5  -2   10.91    0.71
  -2  -5  -2   11.21    0.59
  -2  -5  -2   12.22    0.87
  -2  -5  -2   11.90    0.59
  -2  -5  -3    4.59    0.41
  -2  -5  -3    4.71    0.38
  -2  -5  -3    4.48    0.43
  -2  -5  -3    6.01    0.48
  -2  -5  -3    4.50    0.44
  -2  -5  -3    4.07    0.41
  -2  -5  -3    5.44    0.49
  -2  -5  -3    4.51    0.34
  -2  -5  -3    4.22    0.49
  -2  -5  -3    4.98    0.35
  -2  -5  -4  149.41    4.25
  -2  -5  -4  150.19    4.42
  -2  -5  -4  138.76    4.42
  -2  -5  -4  132.39    4.22
  -2  -5  -4  143.68    4.15
  -2  -5  -4  147.65    4.63
  -2  -5  -4  150.32    4.10
  -2  -5  -5    0.18    0.14
  -2  -5  -5    1.17    0.25
  -2  -5  -5    0.12    0.15
  -2  -5  -5    0.20    0.14
  -2  -5  -5    0.92    0.16
  -2  -5  -5    1.39    0.27
  -2  -5  -6   13.56    0.90
  -2  -5  -6   13.18    0.85
  -2  -5  -6   14.06    0.92
  -2  -5  -6   13.75    0.90
  -2  -5  -7   42.43    1.83
  -2  -5  -7   44.85    1.90
  -2  -5  -7   46.35    1.91
  -2  -5  -8   18.48    1.11
  -2  -5  -8   17.34    1.04
  -2  -5  -8   19.61    1.15
  -2  -5  -8   18.51    1.08
  -2  -5  -9    1.66    0.34
  -2  -5  -9    2.07    0.36
  -2  -5  -9    1.80    0.33
  -2  -5 -10    0.13    0.19
  -2  -5 -10    0.41    0.20
  -2  -5 -10    0.42    0.18
  -2  -5 -11   18.67    1.01
  -2  -5 -11   16.38    0.87
  -2  -5 -11   19.77    0.94
  -2  -5 -12   15.65    0.81
  -2  -5 -12   16.07    0.72
  -2  -6  16    6.18    0.31
  -2  -6  16    5.89    0.32
  -2  -6  15   26.73    1.00
  -2  -6  14    1.88    0.23
  -2  -6  13    1.22    0.21
  -2  -6  12   39.60    1.47
  -2  -6  12   38.75    1.49
  -2  -6  11   11.72    0.68
  -2  -6  11   11.14    0.56
  -2  -6  11   10.57    0.66
  -2  -6  11   11.82    0.63
  -2  -6  10    1.35    0.24
  -2  -6  10    1.67    0.21
   2   6 -10    1.24    0.32
  -2  -6  10    1.33    0.23
  -2  -6  10    1.45    0.22
  -2  -6   9    1.40    0.24
  -2  -6   9    1.17    0.19
   2   6  -9    1.52    0.36
  -2  -6   9    1.18    0.22
  -2  -6   9    1.45    0.23
  -2  -6   8   50.67    1.87
  -2  -6   8   56.41    1.83
   2   6  -8   52.06    2.35
  -2  -6   8   53.85    1.87
  -2  -6   8   53.56    1.88
  -2  -6   8   55.99    1.84
  -2  -6   8   52.95    1.77
  -2  -6   7   23.78    1.06
  -2  -6   7   23.33    1.01
   2   6  -7   23.29    1.40
  -2  -6   7   24.55    1.04
  -2  -6   7   24.40    0.97
  -2  -6   7   24.41    1.09
  -2  -6   7   25.50    1.04
  -2  -6   7   25.76    1.10
  -2  -6   7   25.19    1.07
  -2  -6   7   27.22    1.45
  -2  -6   7   25.45    1.02
   2   6  -6   26.93    1.46
  -2  -6   6   24.96    1.08
  -2  -6   6   27.27    1.09
  -2  -6   6   24.22    1.03
  -2  -6   6   27.07    1.04
  -2  -6   6   25.03    1.10
  -2  -6   6   25.98    1.09
  -2  -6   6   27.05    1.14
  -2  -6   6   27.52    1.14
  -2  -6   6   28.43    1.51
  -2  -6   6   26.71    1.06
  -2  -6   5   19.73    0.87
  -2  -6   5   17.99    0.84
  -2  -6   5   16.87    0.82
  -2  -6   5   18.81    0.83
  -2  -6   5   18.81    0.89
  -2  -6   5   19.50    0.90
   2   6  -5   19.10    1.15
  -2  -6   5   19.67    0.92
  -2  -6   5   19.15    0.90
  -2  -6   5   19.06    1.19
  -2  -6   5   18.28    0.83
  -2  -6   4  199.76    5.30
  -2  -6   4  178.32    5.21
  -2  -6   4  181.48    5.21
  -2  -6   4  190.32    5.20
  -2  -6   4  181.76    5.27
  -2  -6   4  178.68    5.30
   2   6  -4  184.03    5.69
  -2  -6   4  188.10    5.32
  -2  -6   4  186.94    5.30
  -2  -6   4  197.35    5.85
  -2  -6   4  186.30    5.20
  -2  -6   3    1.26    0.20
   2   6  -3    1.00    0.24
  -2  -6   3    0.98    0.19
  -2  -6   3    1.24    0.20
  -2  -6   3    1.06    0.19
  -2  -6   3    1.10    0.19
  -2  -6   3    1.08    0.21
  -2  -6   3    1.57    0.33
  -2  -6   3    1.02    0.18
  -2  -6   2    2.40    0.30
  -2  -6   2    2.08    0.25
  -2  -6   2    2.26    0.25
  -2  -6   2    2.15    0.28
  -2  -6   2    2.46    0.27
  -2  -6   2    2.47    0.28
  -2  -6   2    2.43    0.27
  -2  -6   2    2.51    0.30
  -2  -6   2    2.53    0.28
  -2  -6   2    2.36    0.39
  -2  -6   2    2.38    0.26
  -2  -6   1   48.87    1.73
  -2  -6   1   44.20    1.52
  -2  -6   1   45.73    1.70
  -2  -6   1   45.60    1.63
  -2  -6   1   46.43    1.72
  -2  -6   1   51.11    1.77
  -2  -6   1   43.31    1.60
  -2  -6   1   44.30    1.58
  -2  -6   0   36.32    1.43
  -2  -6   0   32.23    1.24
  -2  -6   0   35.48    1.44
  -2  -6   0   35.42    1.36
  -2  -6   0   34.38    1.36
  -2  -6   0   36.96    1.46
  -2  -6   0   37.61    1.50
  -2  -6   0   33.65    1.31
  -2  -6   0   37.48    1.77
  -2  -6   0   34.99    1.30
  -2  -6  -1    1.93    0.29
  -2  -6  -1    2.22    0.25
  -2  -6  -1    1.88    0.29
  -2  -6  -1    1.66    0.27
  -2  -6  -1    1.97    0.27
  -2  -6  -1    2.31    0.29
  -2  -6  -1    1.98    0.30
  -2  -6  -1    2.38    0.27
  -2  -6  -1    1.73    0.24
  -2  -6  -1    2.86    0.43
  -2  -6  -1    2.02    0.24
  -2  -6  -2    6.10    0.49
  -2  -6  -2    5.78    0.42
  -2  -6  -2    6.00    0.52
  -2  -6  -2    5.65    0.50
  -2  -6  -2    5.86    0.47
  -2  -6  -2    6.48    0.54
  -2  -6  -2    5.11    0.50
  -2  -6  -2    6.08    0.43
  -2  -6  -2    5.62    0.43
  -2  -6  -2    6.20    0.64
  -2  -6  -2    6.34    0.42
  -2  -6  -3   78.81    2.41
  -2  -6  -3   72.85    2.53
  -2  -6  -3   68.59    2.57
  -2  -6  -3   74.25    2.47
  -2  -6  -3   75.88    2.58
  -2  -6  -3   72.04    2.62
  -2  -6  -3   67.95    2.27
  -2  -6  -3   73.39    2.37
  -2  -6  -3   77.77    2.85
  -2  -6  -3   79.59    2.32
  -2  -6  -4   79.38    2.46
  -2  -6  -4   71.77    2.54
  -2  -6  -4   69.26    2.46
  -2  -6  -4   72.57    2.68
  -2  -6  -4   78.30    2.61
  -2  -6  -4   72.01    2.57
  -2  -6  -4   72.16    2.35
  -2  -6  -4   76.28    2.80
  -2  -6  -4   78.98    2.31
  -2  -6  -5    1.95    0.32
  -2  -6  -5    1.54    0.27
  -2  -6  -5    2.54    0.39
  -2  -6  -5    2.13    0.33
  -2  -6  -5    2.07    0.35
  -2  -6  -5    1.88    0.23
  -2  -6  -6    2.82    0.36
  -2  -6  -6    2.64    0.42
  -2  -6  -6    2.79    0.39
  -2  -6  -6    2.19    0.39
  -2  -6  -7   54.93    2.12
  -2  -6  -7   55.23    2.19
  -2  -6  -8    1.20    0.29
  -2  -6  -8    0.84    0.25
  -2  -6  -8    0.98    0.25
  -2  -6  -9    3.79    0.45
  -2  -6  -9    3.14    0.37
  -2  -6  -9    3.18    0.40
  -2  -6  -9    3.95    0.42
  -2  -6 -10    3.76    0.41
  -2  -6 -10    3.00    0.34
  -2  -6 -10    3.37    0.38
  -2  -6 -10    4.04    0.38
  -2  -6 -11   21.96    0.96
  -2  -6 -11   23.63    0.95
  -2  -6 -12    1.47    0.21
  -2  -6 -12    0.73    0.10
  -2  -7  15    2.93    0.21
  -2  -7  14    5.01    0.33
  -2  -7  13    7.40    0.45
  -2  -7  13    7.80    0.49
  -2  -7  12   43.30    1.42
  -2  -7  12   45.20    1.56
  -2  -7  12   47.11    1.63
  -2  -7  11    0.30    0.12
  -2  -7  11    0.30    0.10
  -2  -7  11    0.23    0.12
  -2  -7  11    0.21    0.09
  -2  -7  10    2.30    0.25
  -2  -7  10    2.71    0.30
  -2  -7  10    2.76    0.31
  -2  -7  10    2.42    0.28
  -2  -7   9    8.46    0.56
  -2  -7   9    9.17    0.53
  -2  -7   9    9.61    0.60
  -2  -7   9   10.94    0.63
  -2  -7   9    8.95    0.49
   2   7  -9    8.37    0.82
   2   7  -8   30.32    1.65
  -2  -7   8   27.91    1.17
  -2  -7   8   30.48    1.17
  -2  -7   8   27.03    1.10
  -2  -7   8   28.53    1.19
  -2  -7   8   29.91    1.11
  -2  -7   8   29.47    1.24
  -2  -7   8   31.62    1.25
  -2  -7   8   31.09    1.18
  -2  -7   8   30.67    1.14
   2   7  -7    5.54    0.66
  -2  -7   7    6.02    0.45
  -2  -7   7    6.59    0.46
  -2  -7   7    6.26    0.42
  -2  -7   7    6.50    0.46
  -2  -7   7    6.13    0.42
  -2  -7   7    6.19    0.48
  -2  -7   7    6.02    0.45
  -2  -7   7    6.24    0.48
  -2  -7   7    6.73    0.48
  -2  -7   7    7.00    0.71
  -2  -7   7    6.44    0.44
   2   7  -6    6.72    0.70
  -2  -7   6    7.33    0.49
  -2  -7   6    7.63    0.51
  -2  -7   6    7.41    0.46
  -2  -7   6    7.47    0.48
  -2  -7   6    6.86    0.51
  -2  -7   6    7.34    0.52
  -2  -7   6    7.77    0.55
  -2  -7   6    7.95    0.54
  -2  -7   6    7.64    0.75
  -2  -7   6    7.81    0.50
   2   7  -5  101.69    3.79
  -2  -7   5  107.10    3.30
  -2  -7   5  116.28    3.38
  -2  -7   5  109.20    3.26
  -2  -7   5  112.24    3.33
  -2  -7   5  109.60    3.38
  -2  -7   5  111.10    3.43
  -2  -7   5  116.92    3.47
  -2  -7   5  116.37    3.44
  -2  -7   5  123.53    4.06
  -2  -7   5  109.63    3.33
   2   7  -4   69.41    2.68
  -2  -7   4   66.40    2.16
  -2  -7   4   66.65    2.20
  -2  -7   4   74.57    2.31
  -2  -7   4   72.43    2.27
  -2  -7   4   73.04    2.30
  -2  -7   4   70.53    2.36
  -2  -7   4   70.58    2.35
  -2  -7   4   72.39    2.34
  -2  -7   4   65.55    2.18
  -2  -7   4   76.24    2.88
  -2  -7   4   68.86    2.25
  -2  -7   3    6.58    0.48
  -2  -7   3    7.00    0.48
  -2  -7   3    6.87    0.46
  -2  -7   3    6.79    0.47
  -2  -7   3    7.20    0.52
  -2  -7   3    7.39    0.49
  -2  -7   3    6.82    0.71
  -2  -7   2    2.83    0.32
  -2  -7   2    3.20    0.32
  -2  -7   2    2.27    0.28
  -2  -7   2    2.78    0.33
  -2  -7   2    2.61    0.30
  -2  -7   2    2.65    0.31
  -2  -7   2    2.83    0.46
  -2  -7   2    2.77    0.32
  -2  -7   2    2.60    0.29
  -2  -7   1   56.62    1.94
  -2  -7   1   66.53    2.13
  -2  -7   1   63.36    2.11
  -2  -7   1   63.05    2.21
  -2  -7   1   62.43    2.10
  -2  -7   1   63.71    2.15
  -2  -7   1   64.52    2.07
  -2  -7   0    2.91    0.28
  -2  -7   0    2.70    0.32
  -2  -7   0    2.97    0.32
  -2  -7   0    2.87    0.33
  -2  -7   0    2.90    0.36
  -2  -7   0    3.05    0.36
  -2  -7   0    3.25    0.32
  -2  -7   0    3.08    0.33
  -2  -7   0    2.78    0.46
  -2  -7   0    3.29    0.32
  -2  -7  -1   12.35    0.76
  -2  -7  -1   12.86    0.66
  -2  -7  -1   13.02    0.76
  -2  -7  -1   13.32    0.74
  -2  -7  -1   14.01    0.77
  -2  -7  -1   14.14    0.83
  -2  -7  -1   13.76    0.81
  -2  -7  -1   12.76    0.69
  -2  -7  -1   12.85    0.72
  -2  -7  -1   14.06    1.03
  -2  -7  -1   12.95    0.67
  -2  -7  -2    8.86    0.64
  -2  -7  -2    8.51    0.53
  -2  -7  -2    8.51    0.60
  -2  -7  -2    9.90    0.62
  -2  -7  -2    8.43    0.60
  -2  -7  -2    9.46    0.67
  -2  -7  -2    8.38    0.64
  -2  -7  -2    8.49    0.53
  -2  -7  -2    8.02    0.54
  -2  -7  -2    8.39    0.76
  -2  -7  -2    8.00    0.50
  -2  -7  -3   95.69    2.90
  -2  -7  -3   95.74    3.13
  -2  -7  -3   94.88    3.03
  -2  -7  -3  101.23    3.02
  -2  -7  -3   88.92    3.02
  -2  -7  -3  100.87    3.13
  -2  -7  -3   90.16    2.81
  -2  -7  -3   91.94    2.88
  -2  -7  -3   97.25    3.39
  -2  -7  -3   97.30    2.82
  -2  -7  -4    0.15    0.09
  -2  -7  -4    0.07    0.14
  -2  -7  -4    0.16    0.12
  -2  -7  -4   -0.07    0.19
  -2  -7  -4    0.30    0.17
  -2  -7  -4    0.24    0.10
  -2  -7  -5    6.95    0.63
  -2  -7  -5    6.64    0.52
  -2  -7  -5    6.21    0.53
  -2  -7  -5    6.64    0.57
  -2  -7  -5    7.60    0.64
  -2  -7  -6   31.34    1.50
  -2  -7  -6   28.83    1.32
  -2  -7  -6   32.48    1.41
  -2  -7  -6   33.09    1.48
  -2  -7  -7   19.37    1.00
  -2  -7  -7   20.86    1.07
  -2  -7  -8    0.55    0.21
  -2  -7  -8    0.49    0.19
  -2  -7  -9    0.61    0.18
  -2  -7  -9    0.34    0.15
  -2  -7  -9    0.54    0.18
  -2  -7  -9    0.62    0.16
  -2  -7 -10   16.28    0.79
  -2  -7 -10   17.82    0.80
  -2  -7 -11    7.09    0.40
  -2  -7 -11    5.23    0.30
  -2  -8  14    0.14    0.07
  -2  -8  13   24.75    0.83
  -2  -8  13   26.87    0.93
  -2  -8  12   19.04    0.72
  -2  -8  12   18.91    0.78
  -2  -8  11    3.20    0.27
  -2  -8  11    3.50    0.30
  -2  -8  11    3.69    0.30
  -2  -8  10    0.57    0.14
  -2  -8  10    0.72    0.15
  -2  -8  10    0.41    0.13
  -2  -8   9   32.38    1.23
  -2  -8   9   33.53    1.25
  -2  -8   9   35.10    1.32
  -2  -8   8    1.42    0.21
  -2  -8   8    1.18    0.19
   2   8  -8    1.37    0.33
  -2  -8   8    1.32    0.21
  -2  -8   8    1.17    0.19
  -2  -8   8    1.30    0.22
  -2  -8   8    1.11    0.18
   2   8  -7    2.45    0.44
  -2  -8   7    3.01    0.31
  -2  -8   7    3.09    0.30
  -2  -8   7    3.03    0.30
  -2  -8   7    2.65    0.31
  -2  -8   7    2.86    0.31
  -2  -8   7    2.94    0.33
  -2  -8   7    3.31    0.33
  -2  -8   7    3.48    0.32
  -2  -8   6   13.85    0.69
   2   8  -6   14.60    1.06
  -2  -8   6   15.32    0.74
  -2  -8   6   14.20    0.76
  -2  -8   6   15.94    0.82
  -2  -8   6   14.80    0.81
  -2  -8   6   15.34    0.77
  -2  -8   6   15.51    0.79
  -2  -8   6   15.23    0.75
  -2  -8   5   72.22    2.36
   2   8  -5   76.06    2.95
  -2  -8   5   79.31    2.47
  -2  -8   5   78.12    2.49
  -2  -8   5   78.97    2.58
  -2  -8   5   83.97    2.61
  -2  -8   5   71.57    2.37
  -2  -8   5   82.39    2.56
  -2  -8   5   82.55    3.10
  -2  -8   5   79.20    2.49
  -2  -8   5   77.35    2.45
  -2  -8   4    2.16    0.26
  -2  -8   4    1.94    0.25
  -2  -8   4    2.29    0.31
  -2  -8   4    2.20    0.29
  -2  -8   4    1.89    0.27
  -2  -8   4    1.79    0.24
  -2  -8   4    2.30    0.42
  -2  -8   4    2.08    0.27
  -2  -8   4    2.28    0.27
  -2  -8   3    7.89    0.53
  -2  -8   3    8.91    0.55
  -2  -8   3    8.24    0.51
  -2  -8   3    8.19    0.51
  -2  -8   3    8.25    0.57
  -2  -8   3    8.42    0.54
  -2  -8   3    8.38    0.80
  -2  -8   2   31.87    1.27
  -2  -8   2   33.16    1.27
  -2  -8   2   31.54    1.24
  -2  -8   2   30.62    1.33
  -2  -8   2   30.25    1.28
  -2  -8   2   32.95    1.32
  -2  -8   2   31.09    1.28
  -2  -8   2   30.98    1.70
  -2  -8   2   29.95    1.23
  -2  -8   1   51.39    1.82
  -2  -8   1   52.04    1.92
  -2  -8   1   49.59    1.81
  -2  -8   1   53.46    1.87
  -2  -8   1   50.32    1.77
  -2  -8   0    6.89    0.50
  -2  -8   0    6.98    0.53
  -2  -8   0    7.61    0.58
  -2  -8   0    7.05    0.50
  -2  -8   0    7.09    0.52
  -2  -8   0    8.87    0.82
  -2  -8   0    7.00    0.54
  -2  -8   0    7.53    0.50
  -2  -8  -1    1.48    0.24
  -2  -8  -1    1.23    0.23
  -2  -8  -1    1.58    0.28
  -2  -8  -1    1.55    0.23
  -2  -8  -1    1.79    0.25
  -2  -8  -1    1.59    0.36
  -2  -8  -1    1.63    0.23
  -2  -8  -2   49.58    1.76
  -2  -8  -2   49.09    1.83
  -2  -8  -2   50.97    1.88
  -2  -8  -2   48.56    1.70
  -2  -8  -2   46.39    1.71
  -2  -8  -2   48.98    1.67
  -2  -8  -3   12.21    0.69
  -2  -8  -3   13.93    0.75
  -2  -8  -3   14.34    0.81
  -2  -8  -3   14.03    0.81
  -2  -8  -3   13.54    0.70
  -2  -8  -3   14.79    0.69
  -2  -8  -4    2.09    0.27
  -2  -8  -4    2.51    0.31
  -2  -8  -4    2.55    0.25
  -2  -8  -5    0.09    0.11
  -2  -8  -5    0.28    0.16
  -2  -8  -5    0.38    0.17
  -2  -8  -6   36.40    1.47
  -2  -8  -6   38.27    1.55
  -2  -8  -6   41.31    1.59
  -2  -8  -7    5.84    0.46
  -2  -8  -7    6.37    0.50
  -2  -8  -8    3.79    0.34
  -2  -8  -8    3.78    0.36
  -2  -8  -9    3.67    0.33
  -2  -8  -9    4.45    0.32
  -2  -8 -10   14.76    0.60
  -2  -8 -10   13.11    0.54
  -2  -9  13   15.92    0.54
  -2  -9  12    0.16    0.07
  -2  -9  11    5.23    0.32
  -2  -9  10   11.63    0.57
  -2  -9  10   12.85    0.61
  -2  -9   9   16.85    0.77
  -2  -9   9   19.88    0.85
  -2  -9   8    7.88    0.49
  -2  -9   8    8.08    0.47
  -2  -9   8    8.13    0.52
  -2  -9   8    7.99    0.47
  -2  -9   7    0.91    0.18
  -2  -9   7    0.80    0.18
  -2  -9   7    0.63    0.16
  -2  -9   7    0.45    0.16
  -2  -9   7    0.80    0.16
  -2  -9   6   31.73    1.22
  -2  -9   6   29.64    1.18
  -2  -9   6   30.19    1.21
  -2  -9   6   32.19    1.28
  -2  -9   6   31.53    1.28
  -2  -9   6   29.92    1.18
  -2  -9   5   17.57    0.84
  -2  -9   5   17.60    0.83
  -2  -9   5   18.07    0.91
  -2  -9   5   18.92    0.91
  -2  -9   5   16.37    0.77
  -2  -9   5   17.85    0.86
  -2  -9   5   18.20    0.83
  -2  -9   4    5.35    0.43
  -2  -9   4    5.54    0.42
  -2  -9   4    5.96    0.48
  -2  -9   4    6.22    0.49
  -2  -9   4    5.79    0.44
  -2  -9   4    6.33    0.48
  -2  -9   4    5.85    0.43
  -2  -9   3    0.29    0.14
  -2  -9   3    0.36    0.13
  -2  -9   3    0.25    0.14
  -2  -9   3    0.35    0.15
  -2  -9   2   86.84    2.67
  -2  -9   2   81.36    2.60
  -2  -9   2   84.70    2.77
  -2  -9   2   83.03    2.70
  -2  -9   2   85.68    2.72
  -2  -9   2   83.92    2.68
  -2  -9   2   83.03    2.64
  -2  -9   1    5.07    0.42
  -2  -9   1    6.77    0.53
  -2  -9   1    5.40    0.44
  -2  -9   1    5.93    0.47
  -2  -9   1    5.51    0.42
  -2  -9   0    7.62    0.51
  -2  -9   0    6.69    0.50
  -2  -9   0    7.88    0.58
  -2  -9   0    7.27    0.51
  -2  -9   0    7.30    0.52
  -2  -9   0    7.42    0.54
  -2  -9   0    7.42    0.49
  -2  -9  -1   20.48    0.93
  -2  -9  -1   19.26    0.94
  -2  -9  -1   21.93    1.03
  -2  -9  -1   19.32    0.91
  -2  -9  -1   20.17    0.93
  -2  -9  -1   20.44    0.97
  -2  -9  -1   19.79    0.88
  -2  -9  -2   21.54    0.96
  -2  -9  -2   21.05    1.01
  -2  -9  -2   23.20    1.06
  -2  -9  -2   23.00    1.05
  -2  -9  -2   22.88    0.93
  -2  -9  -3   -0.02    0.17
  -2  -9  -3    0.28    0.14
  -2  -9  -3    0.01    0.14
  -2  -9  -3    0.19    0.09
  -2  -9  -4    3.18    0.36
  -2  -9  -4    3.39    0.36
  -2  -9  -4    3.03    0.26
  -2  -9  -5   10.85    0.65
  -2  -9  -6   34.04    1.34
  -2  -9  -6   35.42    1.33
  -2  -9  -7    0.34    0.15
  -2  -9  -7    0.40    0.14
  -2  -9  -8   -0.01    0.12
  -2  -9  -8    0.15    0.09
  -2  -9  -9   18.64    0.67
  -2  -9  -9   14.73    0.59
  -2 -10  12    3.77    0.21
  -2 -10  11    0.45    0.09
  -2 -10  10   32.70    1.11
  -2 -10   9    1.53    0.19
  -2 -10   9    1.37    0.19
  -2 -10   8    0.31    0.11
  -2 -10   8    0.09    0.11
  -2 -10   8    0.14    0.09
  -2 -10   7    4.41    0.35
  -2 -10   7    4.50    0.34
  -2 -10   7    4.44    0.36
  -2 -10   7    5.07    0.39
  -2 -10   7    4.89    0.35
  -2 -10   6   15.18    0.73
  -2 -10   6   15.36    0.71
  -2 -10   6   15.35    0.77
  -2 -10   6   15.47    0.77
  -2 -10   6   14.37    0.70
  -2 -10   5    0.01    0.09
  -2 -10   5    0.16    0.12
  -2 -10   5    0.15    0.09
  -2 -10   5    0.08    0.10
  -2 -10   5    0.01    0.07
  -2 -10   4   10.00    0.57
  -2 -10   4   10.26    0.64
  -2 -10   4   11.20    0.65
  -2 -10   4   10.27    0.59
  -2 -10   4    9.60    0.56
  -2 -10   3   22.33    0.95
  -2 -10   3   22.29    0.97
  -2 -10   2   46.09    1.66
  -2 -10   2   48.28    1.76
  -2 -10   2   50.01    1.73
  -2 -10   2   45.74    1.66
  -2 -10   2   49.11    1.67
  -2 -10   1    3.35    0.36
  -2 -10   1    2.85    0.30
  -2 -10   1    3.03    0.32
  -2 -10   1    3.02    0.30
  -2 -10   0    0.03    0.14
  -2 -10   0    0.31    0.14
  -2 -10   0    0.47    0.14
  -2 -10   0    0.47    0.16
  -2 -10   0    0.33    0.13
  -2 -10  -1   25.88    1.03
  -2 -10  -1   22.97    1.01
  -2 -10  -1   26.06    1.10
  -2 -10  -1   25.00    1.05
  -2 -10  -1   24.08    0.98
  -2 -10  -2    2.52    0.26
  -2 -10  -2    2.53    0.29
  -2 -10  -2    2.37    0.28
  -2 -10  -2    2.85    0.31
  -2 -10  -2    2.09    0.23
  -2 -10  -3    4.70    0.39
  -2 -10  -4   -0.03    0.14
  -2 -10  -5   20.71    0.91
  -2 -10  -5   23.05    0.92
  -2 -10  -6    3.94    0.30
  -2 -10  -7    3.38    0.27
  -2 -10  -7    3.14    0.23
  -2 -10  -8    2.64    0.20
  -2 -10  -8    2.14    0.16
  -2 -11  10   16.73    0.61
  -2 -11   9    1.83    0.18
  -2 -11   8    0.69    0.13
  -2 -11   8    1.44    0.17
  -2 -11   7   14.01    0.60
  -2 -11   7   13.52    0.61
  -2 -11   6    1.85    0.21
  -2 -11   6    2.28    0.25
  -2 -11   6    1.90    0.21
  -2 -11   5    5.56    0.37
  -2 -11   5    5.65    0.41
  -2 -11   5    5.65    0.38
  -2 -11   4    0.24    0.09
  -2 -11   3   37.55    1.31
  -2 -11   3   36.74    1.37
  -2 -11   3   35.15    1.28
  -2 -11   3   37.01    1.31
  -2 -11   2    3.80    0.35
  -2 -11   2    4.19    0.37
  -2 -11   2    4.58    0.35
  -2 -11   1    3.24    0.29
  -2 -11   1    2.98    0.31
  -2 -11   1    2.97    0.29
  -2 -11   1    3.00    0.28
  -2 -11   0    7.29    0.44
  -2 -11   0    7.18    0.48
  -2 -11   0    7.30    0.46
  -2 -11   0    7.69    0.44
  -2 -11  -1   17.49    0.75
  -2 -11  -1   18.07    0.80
  -2 -11  -1   16.80    0.76
  -2 -11  -2    0.17    0.11
  -2 -11  -2    0.04    0.10
  -2 -11  -3    2.77    0.25
  -2 -11  -4    8.49    0.46
  -2 -11  -4    8.95    0.47
  -2 -11  -5   10.00    0.48
  -2 -11  -5   10.54    0.48
  -2 -11  -6    1.12    0.14
  -2 -11  -6    1.26    0.13
  -2 -12   7   10.28    0.42
  -2 -12   6    1.87    0.18
  -2 -12   5    1.37    0.16
  -2 -12   4    8.57    0.44
  -2 -12   3    8.54    0.44
  -2 -12   3    8.42    0.48
  -2 -12   2    0.53    0.14
  -2 -12   1    1.81    0.19
  -2 -12   1    2.45    0.25
  -2 -12   0   15.73    0.62
  -2 -12   0   14.59    0.63
  -2 -12  -1    6.75    0.39
  -2 -12  -2    4.88    0.32
  -2 -12  -4    9.30    0.39
  -2 -13   4    7.28    0.32
  -2 -13   3    0.61    0.10
  -3  13   1    2.65    0.20
   3 -13  -1    2.30    0.16
   3 -13  -1    2.06    0.18
   3 -13   0    6.07    0.30
   3 -13   0    5.90    0.34
   3 -13   1    0.62    0.10
   3 -13   1    0.64    0.11
   3 -13   2    0.06    0.06
   3 -13   2    0.10    0.06
   3 -13   3   11.86    0.46
   3 -13   3   10.79    0.48
   3 -13   4    1.99    0.17
   3 -13   4    1.74    0.14
  -3  12   5   10.42    0.45
  -3  12   4    4.59    0.30
  -3  12   3    4.25    0.30
  -3  12   3    3.39    0.21
  -3  12   2    0.22    0.06
   3 -12  -2    0.39    0.10
   3 -12  -1   17.07    0.76
   3 -12  -1   18.54    0.73
   3 -12   0    0.10    0.09
   3 -12   1    1.21    0.19
   3 -12   1    1.27    0.17
   3 -12   2    5.04    0.34
   3 -12   3   13.85    0.65
   3 -12   3   15.38    0.64
   3 -12   4    0.14    0.09
   3 -12   4    0.12    0.07
  -3  12  -4    0.09    0.07
   3 -12   5    2.03    0.21
  -3  12  -5    2.07    0.20
   3 -12   5    2.15    0.18
   3 -12   6    9.34    0.43
  -3  12  -6    7.00    0.32
   3 -12   6    6.72    0.32
  -3  12  -6    9.69    0.43
   3 -12   7    5.23    0.28
  -3  11   7    0.63    0.11
  -3  11   7    0.71    0.10
  -3  11   6    4.66    0.32
  -3  11   6    4.54    0.29
  -3  11   5   33.73    1.15
   3 -11  -4    0.25    0.10
  -3  11   4    0.12    0.08
   3 -11  -3    2.31    0.25
  -3  11   3    2.40    0.24
   3 -11  -3    2.34    0.23
   3 -11  -2   33.95    1.27
  -3  11   2   32.14    1.18
   3 -11  -2   32.81    1.21
   3 -11  -1   11.61    0.66
  -3  11   1   11.18    0.57
  -3  11   0    1.27    0.18
   3 -11   0    1.14    0.22
  -3  11  -1    0.08    0.07
   3 -11   1    0.21    0.12
  -3  11  -2    8.73    0.46
   3 -11   3    5.06    0.40
   3 -11   4    3.10    0.31
   3 -11   4    3.76    0.31
   3 -11   5    0.82    0.15
  -3  11  -5    1.05    0.19
   3 -11   6   27.99    1.09
   3 -11   6   27.80    1.00
   3 -11   7    0.50    0.12
   3 -11   8    1.29    0.14
  -3  11  -9    2.93    0.23
  -3  10   9    6.78    0.33
  -3  10   8    0.41    0.10
  -3  10   8    0.39    0.11
  -3  10   7    0.45    0.12
  -3  10   6   15.96    0.73
   3 -10  -5    7.08    0.44
  -3  10   5    8.87    0.52
   3 -10  -4    6.10    0.44
  -3  10   4    6.07    0.45
   3 -10  -3    5.42    0.44
  -3  10   3    6.81    0.48
   3 -10  -2   57.08    2.01
  -3  10   2   57.13    1.97
  -3  10   1    1.03    0.20
   3 -10  -1    0.68    0.19
   3 -10   0    4.03    0.41
  -3  10   0    4.16    0.38
   3 -10   1    4.03    0.41
  -3  10  -1    4.34    0.38
   3 -10   2   19.55    0.97
  -3  10  -2   19.72    0.90
   3 -10   3    0.07    0.10
  -3  10  -3    0.01    0.08
   3 -10   4    2.11    0.28
  -3  10  -4    1.91    0.23
   3 -10   5   31.45    1.26
  -3  10  -6   19.10    0.96
   3 -10   6   20.70    0.86
   3 -10   7    2.01    0.24
  -3  10  -7    1.70    0.20
   3 -10   7    2.29    0.21
   3 -10   8    0.16    0.08
  -3  10  -9    9.16    0.54
  -3  10 -10    2.24    0.23
  -3   9   9    0.61    0.13
  -3   9   8    5.58    0.39
  -3   9   7    7.68    0.50
   3  -9  -6   33.20    1.21
  -3   9   6   35.31    1.34
   3  -9  -5    1.07    0.20
  -3   9   5    0.55    0.18
   3  -9  -4    0.38    0.15
  -3   9   4    0.31    0.15
   3  -9  -3   55.47    2.02
  -3   9   3   58.85    2.09
  -3   9   2   32.99    1.42
  -3   9   1    4.30    0.44
  -3   9   0    0.59    0.19
  -3   9  -1   37.35    1.54
  -3   9  -2    5.50    0.49
  -3   9  -3    4.83    0.44
   3  -9   4    6.02    0.49
  -3   9  -4    5.39    0.44
   3  -9   5   32.14    1.32
  -3   9  -5   31.84    1.25
  -3   9  -6    1.55    0.28
  -3   9  -6    1.83    0.23
  -3   9  -7    3.09    0.27
  -3   9  -7    2.33    0.34
   3  -9   8    6.08    0.42
  -3   9  -9   13.62    0.77
  -3   9 -10    0.64    0.17
  -3   9 -11    0.14    0.09
  -3   8  11   19.01    0.71
  -3   8   9    3.41    0.32
  -3   8   8    0.02    0.10
  -3   8   7   34.46    1.45
  -3   8   7   40.36    1.51
   3  -8  -6    5.18    0.41
  -3   8   6    4.95    0.45
  -3   8   6    5.58    0.49
  -3   8   5    1.67    0.30
   3  -8  -5    1.40    0.24
  -3   8   4    6.40    0.57
   3  -8  -3   62.18    2.70
  -3   8   3   62.58    2.78
  -3   8   2    7.40    0.77
   3  -8  -2    6.81    0.77
  -3   8   2    8.25    0.66
   3  -8  -1   12.94    1.01
  -3   8   1   12.13    1.00
   3  -8  -1   13.36    1.09
  -3   8   1   15.37    0.93
   3  -8   0   28.78    1.63
   3  -8   0   29.26    1.73
  -3   8   0   27.87    1.62
  -3   8  -1   68.04    2.44
  -3   8  -1   57.71    2.59
   3  -8   2    1.60    0.35
   3  -8   2    2.19    0.43
  -3   8  -2    2.58    0.38
  -3   8  -2    2.03    0.39
  -3   8  -3    0.07    0.13
   3  -8   3    0.04    0.11
  -3   8  -4   21.11    1.61
  -3   8  -4   25.25    1.19
   3  -8   4   22.73    1.39
  -3   8  -5   15.02    0.85
   3  -8   6    2.70    0.32
  -3   8  -6    2.83    0.32
  -3   8  -7    0.48    0.18
  -3   8  -7    0.40    0.13
  -3   8  -7    0.45    0.15
  -3   8  -8   39.58    1.41
  -3   8  -9    7.39    0.58
  -3   8 -10    1.83    0.28
  -3   8 -11    1.94    0.28
  -3   8 -12    6.93    0.44
  -3   7  12    1.89    0.19
  -3   7  12    1.81    0.16
  -3   7  11   28.47    1.03
  -3   7  11   37.54    1.17
  -3   7  10    0.36    0.13
  -3   7   9    5.50    0.45
  -3   7   9    6.41    0.47
  -3   7   8   28.67    1.25
  -3   7   7   31.63    1.36
  -3   7   6    0.25    0.14
  -3   7   5    1.51    0.31
   3  -7  -5    0.69    0.24
  -3   7   5    1.44    0.38
  -3   7   5    0.82    0.26
   3  -7  -4   25.15    1.43
   3  -7  -4   24.20    1.48
  -3   7   4   34.06    1.47
  -3   7   4   30.24    1.77
  -3   7   4   22.04    1.34
   3  -7  -3   40.43    2.02
  -3   7   3   51.72    1.96
   3  -7  -3   42.22    1.56
  -3   7   3   47.23    2.31
  -3   7   3   34.61    1.79
   3  -7  -3   39.89    1.93
   3  -7  -2   12.72    1.02
  -3   7   2   14.78    0.96
   3  -7  -2   13.00    0.72
  -3   7   2   14.17    1.17
  -3   7   2   10.58    0.85
   3  -7  -2   12.39    0.96
   3  -7  -1    0.62    0.23
   3  -7  -1    0.58    0.17
  -3   7   1    0.29    0.19
   3  -7  -1    0.35    0.21
  -3   7   1   -0.05    0.15
  -3   7   1   -0.06    0.16
   3  -7   0  130.19    3.90
  -3   7   0  131.64    4.72
   3  -7   0  127.02    4.52
  -3   7   0  140.92    4.35
   3  -7   0  122.14    4.35
  -3   7  -1   10.58    0.83
  -3   7  -1   10.83    0.99
   3  -7   2    5.36    0.43
   3  -7   2    5.21    0.63
  -3   7  -2    5.78    0.61
  -3   7  -2    6.83    0.77
   3  -7   2    5.51    0.62
   3  -7   3    6.96    0.49
   3  -7   3    6.27    0.71
  -3   7  -3    7.61    0.69
  -3   7  -3    7.52    0.80
   3  -7   3    7.35    0.72
   3  -7   4   23.40    1.38
  -3   7  -4   25.78    1.34
   3  -7   4   25.74    1.51
   3  -7   5    1.50    0.33
  -3   7  -5    1.43    0.44
  -3   7  -5    1.42    0.24
   3  -7   5    1.94    0.40
  -3   7  -5    1.48    0.31
  -3   7  -6    1.81    0.47
  -3   7  -6    2.70    0.37
  -3   7  -6    1.66    0.27
  -3   7  -7   20.32    1.01
  -3   7  -7   16.47    0.92
  -3   7  -8   49.36    1.81
  -3   7  -9    0.35    0.17
  -3   7  -9    0.45    0.15
  -3   7 -10    0.52    0.20
  -3   7 -11   11.81    0.73
   3  -7  12    2.54    0.31
  -3   7 -12    2.23    0.29
  -3   7 -13    0.51    0.12
   3  -7  13    0.37    0.12
  -3   6  13    0.85    0.12
  -3   6  12   16.72    0.75
  -3   6  11   22.01    0.91
   3  -6 -10    3.25    0.33
  -3   6  10    3.06    0.32
  -3   6   9    2.74    0.33
   3  -6  -9    2.77    0.32
  -3   6   9    2.77    0.33
  -3   6   8   73.10    2.60
  -3   6   8   83.76    2.69
  -3   6   7   12.07    0.76
  -3   6   7   13.64    0.84
  -3   6   7   14.03    1.18
  -3   6   6    6.30    0.52
  -3   6   6    5.01    0.59
  -3   6   6    5.38    0.53
  -3   6   6    6.66    0.58
  -3   6   6    6.52    0.82
   3  -6  -5    3.39    0.32
  -3   6   5    2.59    0.42
   3  -6  -5    2.89    0.46
  -3   6   5    3.97    0.65
   3  -6  -5    3.17    0.45
   3  -6  -4   60.90    2.00
  -3   6   4   53.84    2.33
   3  -6  -4   57.93    2.37
   3  -6  -3    3.84    0.35
  -3   6   3    4.55    0.51
  -3   6   3    5.08    0.74
  -3   6   3    3.27    0.45
   3  -6  -3    3.07    0.44
   3  -6  -2    5.78    0.43
  -3   6   2    5.39    0.57
  -3   6   2    7.23    0.88
  -3   6   2    4.29    0.51
   3  -6  -2    6.41    0.63
   3  -6  -1   64.13    2.07
   3  -6  -1   63.02    2.45
  -3   6   1   61.24    2.41
  -3   6   1   69.66    3.08
   3  -6   0  107.62    3.06
  -3   6   0   97.54    3.44
  -3   6   0  113.16    4.19
   3  -6   0  101.33    3.46
  -3   6  -1    0.68    0.25
  -3   6  -1    0.87    0.34
   3  -6   2    1.34    0.21
  -3   6  -2    1.26    0.33
   3  -6   2    1.28    0.29
  -3   6  -2    1.79    0.45
   3  -6   3   36.78    1.37
  -3   6  -3   32.45    1.69
   3  -6   3   35.17    1.69
  -3   6  -4   17.07    1.56
  -3   6  -4   18.69    1.17
   3  -6   4   20.68    0.91
   3  -6   4   18.01    1.14
  -3   6  -5    6.79    0.97
  -3   6  -5    6.93    0.52
   3  -6   5    8.02    0.52
  -3   6  -5    7.89    0.71
   3  -6   5    8.92    0.82
   3  -6   5    7.92    0.73
   3  -6   6    0.37    0.18
  -3   6  -6    0.32    0.24
   3  -6   6    0.18    0.14
  -3   6  -6    0.13    0.11
  -3   6  -6    0.09    0.16
  -3   6  -7   48.89    2.69
  -3   6  -7   47.79    1.84
  -3   6  -8    7.65    0.63
  -3   6  -9    5.20    0.49
  -3   6 -10    3.50    0.39
  -3   6 -11   17.14    0.91
  -3   6 -12    0.38    0.16
  -3   6 -13    0.55    0.16
   3  -6  13    0.45    0.15
  -3   5  13    1.81    0.21
   3  -5 -13    2.21    0.23
   3  -5 -13    1.93    0.22
  -3   5  12   26.41    1.11
   3  -5 -12   28.84    1.15
   3  -5 -12   29.36    1.17
  -3   5  11    0.35    0.13
  -3   5  11    0.87    0.16
   3  -5 -11    0.64    0.18
  -3   5  10    1.40    0.23
  -3   5   9   36.15    1.47
  -3   5   9   35.32    1.44
  -3   5   8   69.07    2.39
   3  -5  -8   63.38    2.79
  -3   5   8   68.23    2.41
  -3   5   7    0.40    0.16
   3  -5  -7    0.23    0.19
  -3   5   7    0.22    0.14
  -3   5   7    0.48    0.27
  -3   5   7    0.42    0.11
   3  -5  -6    3.94    0.33
  -3   5   6    4.62    0.43
   3  -5  -6    4.00    0.56
  -3   5   6    3.91    0.32
  -3   5   6    3.17    0.40
  -3   5   6    4.33    0.47
  -3   5   6    5.63    0.79
  -3   5   6    4.07    0.52
   3  -5  -6    3.97    0.48
   3  -5  -5   57.13    1.88
   3  -5  -5   56.00    2.43
  -3   5   5   57.57    2.19
  -3   5   5   58.87    2.20
  -3   5   5   51.05    2.24
   3  -5  -5   53.24    2.20
  -3   5   4   28.76    1.37
   3  -5  -4   28.46    1.11
  -3   5   4   24.40    1.36
   3  -5  -4   27.55    1.38
   3  -5  -3   14.80    0.71
   3  -5  -3   13.58    0.90
  -3   5   3   11.91    0.87
   3  -5  -2    4.17    0.35
  -3   5   2    4.81    0.78
  -3   5   2    4.26    0.48
   3  -5  -2    4.20    0.49
   3  -5  -1  117.01    3.34
  -3   5   1  109.73    3.65
   3  -5  -1  116.96    3.72
   3  -5   0   25.04    1.00
  -3   5   0   23.96    1.24
  -3   5   0   23.66    1.74
   3  -5   0   24.62    1.26
  -3   5  -1   12.25    0.86
  -3   5  -1   11.05    1.16
   3  -5   2    9.33    0.54
  -3   5  -2    8.16    0.72
  -3   5  -2   10.49    1.12
   3  -5   2    8.36    0.69
  -3   5  -3   95.19    2.96
   3  -5   3  102.45    2.97
  -3   5  -3   93.56    3.40
  -3   5  -3   93.54    4.06
   3  -5   3   97.52    3.34
   3  -5   4    0.11    0.11
  -3   5  -4    0.27    0.20
   3  -5   4    0.21    0.10
  -3   5  -4    0.18    0.23
  -3   5  -4    0.23    0.11
   3  -5   5    0.60    0.20
   3  -5   5    0.45    0.12
  -3   5  -5    0.31    0.26
  -3   5  -5    0.47    0.15
  -3   5  -5    0.33    0.15
  -3   5  -5    0.34    0.21
  -3   5  -6   34.75    2.17
   3  -5   6   32.11    1.22
  -3   5  -6   36.62    1.66
  -3   5  -6   30.47    1.20
  -3   5  -6   30.56    1.28
   3  -5   6   31.17    1.54
  -3   5  -7   29.05    1.43
  -3   5  -7   30.67    2.01
  -3   5  -8   -0.03    0.16
  -3   5  -9    1.40    0.30
  -3   5 -10   21.71    1.05
  -3   5 -11   16.10    0.87
  -3   5 -12    1.26    0.23
  -3   5 -13    0.20    0.13
  -3   4  14    0.21    0.08
   3  -4 -14    0.18    0.08
   3  -4 -14    0.16    0.08
   3  -4 -13   20.20    0.89
   3  -4 -13   20.49    0.90
  -3   4  12   13.44    0.72
   3  -4 -12   14.60    0.78
  -3   4  12   12.37    0.60
  -3   4  11    0.26    0.10
  -3   4  11    0.42    0.13
  -3   4  10    0.54    0.16
  -3   4   9   81.50    2.62
  -3   4   9   74.99    2.55
  -3   4   8   23.17    1.06
   3  -4  -8   21.76    1.36
  -3   4   8   21.01    1.03
  -3   4   8   18.75    1.21
   3  -4  -7   25.63    0.99
  -3   4   7   26.26    1.15
   3  -4  -7   24.51    1.45
  -3   4   7   24.14    0.95
  -3   4   7   25.40    1.18
   3  -4  -6   18.85    0.80
  -3   4   6   19.56    0.93
   3  -4  -6   17.65    1.18
  -3   4   6   17.43    0.77
  -3   4   6   17.02    0.98
  -3   4   6   19.23    0.99
  -3   4   6   17.02    1.09
   3  -4  -6   18.05    1.03
   3  -4  -5  104.22    2.98
  -3   4   5  106.03    3.15
   3  -4  -5  102.49    3.58
  -3   4   5   97.82    2.97
  -3   4   5   98.49    3.32
  -3   4   5   98.98    3.24
  -3   4   5   89.96    3.39
   3  -4  -5   91.77    3.29
   3  -4  -4    1.25    0.18
   3  -4  -4    0.42    0.19
  -3   4   4    0.56    0.18
  -3   4   4    0.36    0.14
  -3   4   4    1.15    0.40
  -3   4   4    0.40    0.16
   3  -4  -3    0.31    0.17
  -3   4   3    0.57    0.17
  -3   4   3    0.58    0.30
  -3   4   3    0.18    0.12
  -3   4   2   27.49    1.26
  -3   4   2   30.23    1.99
  -3   4   2   28.04    1.34
  -3   4   1   75.78    2.58
  -3   4   1   71.65    3.45
  -3   4   1   73.81    2.58
  -3   4   0    0.18    0.25
  -3   4   0    0.22    0.11
  -3   4  -1    7.53    0.43
  -3   4  -1    6.13    0.88
  -3   4  -2  129.29    3.64
  -3   4  -2  123.36    4.01
   3  -4   3   63.17    1.99
  -3   4  -3   58.96    2.31
  -3   4  -3   63.03    2.37
  -3   4  -3   56.50    3.02
  -3   4  -3   61.10    1.99
  -3   4  -4   12.80    1.18
   3  -4   4   15.87    0.73
  -3   4  -4   14.67    0.95
  -3   4  -4   13.76    0.92
  -3   4  -4   14.98    0.74
   3  -4   5    1.95    0.23
  -3   4  -5    1.45    0.43
  -3   4  -5    2.00    0.35
  -3   4  -5    2.14    0.27
  -3   4  -5    2.07    0.25
  -3   4  -5    1.84    0.32
   3  -4   5    2.23    0.35
  -3   4  -6   45.02    2.44
   3  -4   6   44.44    1.48
  -3   4  -6   50.78    1.96
  -3   4  -6   43.54    1.59
  -3   4  -6   40.85    1.47
  -3   4  -6   32.75    1.75
   3  -4   6   40.28    1.76
  -3   4  -7    1.31    0.42
  -3   4  -7    1.50    0.25
  -3   4  -7    1.79    0.34
  -3   4  -8    5.55    0.58
  -3   4  -8    4.33    0.42
  -3   4  -8    5.09    0.78
  -3   4  -9    4.78    0.54
  -3   4 -10   39.62    1.57
  -3   4 -11    1.71    0.28
  -3   4 -12    2.01    0.30
  -3   4 -13   12.97    0.73
  -3   3  14    6.47    0.39
  -3   3  13   28.19    1.11
  -3   3  12    1.10    0.21
  -3   3  12    0.97    0.16
  -3   3  11    1.86    0.25
  -3   3  10   18.55    0.86
  -3   3   9   63.79    2.58
   3  -3  -9   63.08    2.65
  -3   3   9   65.91    2.18
  -3   3   8    2.08    0.28
   3  -3  -8    1.80    0.37
  -3   3   8    1.95    0.27
  -3   3   8    1.85    0.36
  -3   3   7    0.28    0.13
   3  -3  -7    0.03    0.14
  -3   3   7    0.14    0.11
  -3   3   7    0.16    0.08
  -3   3   7    0.02    0.07
  -3   3   7    0.11    0.19
   3  -3  -6  146.20    4.16
  -3   3   6  154.62    4.33
  -3   3   6  146.81    4.63
   3  -3  -6  152.88    4.81
  -3   3   6  144.57    4.16
  -3   3   6  148.94    4.55
  -3   3   6  142.63    4.36
  -3   3   6  135.57    4.66
  -3   3   5   44.55    1.56
  -3   3   5   46.48    1.68
   3  -3  -5   43.15    1.93
  -3   3   5   43.38    1.48
  -3   3   5   43.18    1.77
  -3   3   5   42.24    1.63
  -3   3   5   41.54    1.85
  -3   3   4    7.06    0.46
  -3   3   4    6.83    0.51
   3  -3  -4    6.88    0.65
  -3   3   4    6.83    0.43
  -3   3   4    7.00    0.52
  -3   3   4    6.68    0.57
  -3   3   4    5.72    0.57
   3  -3  -3    1.65    0.32
  -3   3   3    1.42    0.23
  -3   3   3    1.93    0.27
  -3   3   3    1.79    0.21
  -3   3   3    2.21    0.32
  -3   3   3    1.42    0.28
  -3   3   2   65.10    2.25
  -3   3   2   70.20    2.36
  -3   3   2   70.67    2.51
  -3   3   1   13.10    0.70
  -3   3   1   14.66    0.79
  -3   3   1   15.89    0.88
  -3   3   0   19.02    1.49
  -3   3   0   18.94    0.86
  -3   3   0   18.69    0.94
  -3   3   0   20.71    1.09
  -3   3   0   16.05    0.90
  -3   3  -1   20.69    0.97
  -3   3  -1   20.72    1.04
  -3   3  -1   21.98    0.84
  -3   3  -1   23.83    1.18
  -3   3  -1   20.16    1.57
  -3   3  -2  171.98    5.18
  -3   3  -2  184.38    5.05
  -3   3  -2  178.41    4.99
  -3   3  -2  189.72    5.48
  -3   3  -2  175.00    6.38
  -3   3  -3    1.62    0.27
  -3   3  -3    1.53    0.20
  -3   3  -3    1.53    0.21
  -3   3  -3    1.13    0.26
  -3   3  -3    1.23    0.43
  -3   3  -4    1.34    0.27
  -3   3  -4    1.76    0.42
  -3   3  -4    1.43    0.27
  -3   3  -4    1.95    0.24
  -3   3  -4    2.11    0.24
  -3   3  -4    1.89    0.32
   3  -3   5   38.65    1.39
  -3   3  -5   37.10    2.09
  -3   3  -5   38.30    1.58
  -3   3  -5   39.70    1.63
  -3   3  -5   42.15    1.71
  -3   3  -5   42.59    1.49
  -3   3  -5   38.75    1.40
  -3   3  -5   40.84    1.76
  -3   3  -5   34.02    1.72
  -3   3  -6   25.72    1.70
   3  -3   6   24.95    0.98
  -3   3  -6   23.95    1.13
  -3   3  -6   26.84    1.25
  -3   3  -6   27.33    1.31
  -3   3  -6   27.44    1.12
  -3   3  -6   23.74    1.34
   3  -3   6   22.18    1.18
  -3   3  -7    0.41    0.25
  -3   3  -7    0.21    0.13
  -3   3  -7    0.26    0.16
  -3   3  -7    0.36    0.18
  -3   3  -8    1.42    0.42
  -3   3  -8    1.27    0.27
  -3   3  -8    1.41    0.25
  -3   3  -8    1.01    0.26
  -3   3  -9   39.12    1.67
  -3   3 -10   21.72    1.08
  -3   3 -10   24.77    1.20
  -3   3 -11    2.54    0.34
  -3   3 -11    1.99    0.29
  -3   3 -12    0.46    0.17
  -3   3 -13   19.83    0.96
  -3   3 -14    1.54    0.26
   3  -2 -15    0.38    0.11
   3  -2 -15    0.22    0.09
   3  -2 -14   32.56    1.28
   3  -2 -14   34.72    1.34
   3  -2 -13   20.67    0.98
   3  -2 -13   22.13    1.07
  -3   2  12    2.45    0.29
  -3   2  12    2.31    0.25
  -3   2  11    0.19    0.12
  -3   2  11    0.12    0.10
  -3   2  10   46.34    1.59
  -3   2  10   50.39    1.77
  -3   2   9    8.95    0.51
   3  -2  -9    7.26    0.75
  -3   2   9    7.97    0.51
  -3   2   9    8.65    0.77
  -3   2   8   14.48    0.71
  -3   2   8   14.74    0.76
  -3   2   8   13.23    0.97
   3  -2  -8   15.61    1.07
  -3   2   8   13.66    0.72
  -3   2   8   16.11    1.27
  -3   2   7   19.83    0.89
  -3   2   7   19.68    0.90
   3  -2  -7   20.43    1.22
  -3   2   7   19.53    0.80
  -3   2   7   19.94    1.04
  -3   2   7   18.72    0.89
  -3   2   7   22.08    1.50
  -3   2   6  154.02    4.47
  -3   2   6  154.87    4.45
  -3   2   6  149.65    4.88
   3  -2  -6  153.03    4.95
  -3   2   6  155.90    4.37
  -3   2   6  163.96    4.79
  -3   2   6  151.04    4.49
  -3   2   6  157.10    4.85
  -3   2   5    2.47    0.26
  -3   2   5    2.26    0.36
   3  -2  -5    3.00    0.42
  -3   2   5    2.53    0.25
  -3   2   5    2.30    0.27
  -3   2   5    2.67    0.36
  -3   2   5    2.89    0.40
  -3   2   5    2.18    0.46
  -3   2   4   11.17    0.72
   3  -2  -4    8.25    0.69
  -3   2   4    9.12    0.57
  -3   2   4    9.41    0.51
  -3   2   4   10.16    0.70
  -3   2   4   10.72    0.77
  -3   2   4    9.90    0.94
  -3   2   4    9.34    0.72
  -3   2   3   40.73    1.63
   3  -2  -3   38.12    1.69
  -3   2   3   39.38    1.48
  -3   2   3   40.40    1.39
  -3   2   3   41.33    1.67
  -3   2   3   44.74    2.16
  -3   2   3   40.00    1.71
  -3   2   2   62.79    2.29
  -3   2   2   66.76    2.23
  -3   2   2   70.09    2.11
  -3   2   2   67.74    2.40
  -3   2   2   71.35    2.96
  -3   2   2   64.82    2.40
  -3   2   1    4.91    0.45
  -3   2   1    5.18    0.42
  -3   2   1    4.91    0.42
  -3   2   1    5.64    0.38
  -3   2   1    5.15    0.49
  -3   2   1    5.66    0.72
  -3   2   1    4.77    0.46
  -3   2   0    0.08    0.09
  -3   2   0    0.05    0.11
  -3   2   0    0.16    0.09
  -3   2   0    0.23    0.13
  -3   2   0   -0.05    0.19
  -3   2  -1  157.29    4.81
  -3   2  -1  157.25    4.78
  -3   2  -1  168.17    4.61
  -3   2  -1  173.06    5.01
  -3   2  -2   61.90    2.70
  -3   2  -2   68.06    2.37
  -3   2  -2   65.13    2.31
  -3   2  -2   69.05    2.09
  -3   2  -2   70.15    2.15
  -3   2  -2   69.31    2.50
  -3   2  -3    6.88    0.75
  -3   2  -3    7.14    0.58
  -3   2  -3    6.93    0.55
  -3   2  -3    7.95    0.46
  -3   2  -3    7.36    0.46
  -3   2  -3    7.71    0.64
  -3   2  -3    6.88    0.65
  -3   2  -4    1.42    0.28
  -3   2  -4    1.17    0.19
  -3   2  -4    1.17    0.28
  -3   2  -4    1.23    0.19
  -3   2  -4    1.29    0.27
  -3   2  -5   82.78    3.21
  -3   2  -5   93.06    3.03
  -3   2  -5   89.95    3.11
  -3   2  -5   95.17    2.84
  -3   2  -5   92.15    2.77
  -3   2  -5   91.47    3.17
  -3   2  -6    6.96    0.81
   3  -2   6    6.40    0.41
  -3   2  -6    7.38    0.58
  -3   2  -6    7.63    0.61
  -3   2  -6    7.84    0.66
  -3   2  -6    7.57    0.52
  -3   2  -6    5.81    0.63
  -3   2  -7    7.83    0.59
  -3   2  -7    8.75    0.67
  -3   2  -7    9.20    0.60
  -3   2  -7    7.98    0.68
  -3   2  -7    8.33    0.91
  -3   2  -8   14.77    0.83
  -3   2  -8   17.13    0.99
  -3   2  -8   16.55    1.02
  -3   2  -8   15.09    1.29
  -3   2  -9   40.22    1.80
  -3   2 -10    0.37    0.20
  -3   2 -10    0.51    0.19
  -3   2 -11    1.54    0.26
  -3   2 -11    1.72    0.34
  -3   2 -12   13.85    0.86
  -3   2 -12   12.00    0.72
  -3   2 -13   17.91    0.90
  -3   2 -14    0.14    0.14
   3  -1 -15    8.10    0.46
   3  -1 -15    8.17    0.47
   3  -1 -14   52.34    1.89
   3  -1 -14   57.22    1.95
   3  -1 -13    0.48    0.19
  -3   1  12    4.67    0.33
  -3   1  12    4.48    0.39
  -3   1  12    4.68    0.36
  -3   1  11   24.15    0.97
  -3   1  11   23.16    1.05
  -3   1  11   24.89    1.05
  -3   1  10   38.03    1.44
  -3   1  10   37.89    1.37
  -3   1  10   37.70    1.45
   3  -1 -10   32.62    1.76
  -3   1  10   34.03    1.86
  -3   1   9    1.09    0.20
   3  -1  -9    1.44    0.33
  -3   1   9    1.35    0.23
  -3   1   9    1.12    0.32
  -3   1   8    4.34    0.39
   3  -1  -8    3.45    0.50
  -3   1   8    3.83    0.32
  -3   1   8    3.25    0.53
  -3   1   7  121.38    3.79
  -3   1   7  120.90    3.55
   3  -1  -7  116.80    3.98
  -3   1   7  126.57    4.30
  -3   1   6   68.43    2.26
  -3   1   6   66.22    2.08
   3  -1  -6   66.91    2.57
  -3   1   6   64.65    2.14
  -3   1   6   66.25    2.41
  -3   1   6   73.23    2.59
  -3   1   6   70.22    2.84
  -3   1   6   69.33    2.60
  -3   1   5   10.08    0.63
  -3   1   5    9.89    0.56
   3  -1  -5   10.15    0.76
  -3   1   5    9.95    0.53
  -3   1   5    9.98    0.70
  -3   1   5    9.81    0.75
  -3   1   5    9.82    0.87
  -3   1   5    9.62    0.76
  -3   1   4    0.74    0.16
   3  -1  -4    0.84    0.22
  -3   1   4    1.43    0.29
  -3   1   4    0.76    0.15
  -3   1   4    0.80    0.20
  -3   1   4    0.78    0.22
  -3   1   4    0.88    0.27
  -3   1   4    0.77    0.21
  -3   1   3  164.07    5.11
  -3   1   3  166.63    4.78
  -3   1   3  168.03    4.71
  -3   1   3  176.14    5.12
  -3   1   3  168.43    5.20
  -3   1   3  171.31    5.47
  -3   1   3  167.94    5.10
  -3   1   2    4.94    0.51
  -3   1   2    6.09    0.43
  -3   1   2    5.42    0.37
  -3   1   2    6.04    0.58
  -3   1   2    5.34    0.64
  -3   1   1    9.22    0.69
  -3   1   1    9.51    0.63
  -3   1   1   10.23    0.59
  -3   1   1   10.68    0.55
  -3   1   1   10.56    0.74
  -3   1   1   10.25    0.76
  -3   1   1    8.58    0.83
  -3   1   0   22.84    1.20
  -3   1   0   27.58    1.22
  -3   1   0   26.50    1.11
  -3   1   0   28.74    1.05
  -3   1   0   29.22    1.36
  -3   1   0   24.79    1.51
  -3   1  -1   90.87    3.23
  -3   1  -1   85.38    2.92
  -3   1  -1   89.05    2.80
  -3   1  -1   85.10    2.69
  -3   1  -1   92.18    2.68
  -3   1  -1   93.24    3.09
  -3   1  -1   87.54    3.44
  -3   1  -1   85.48    3.12
  -3   1  -2    3.39    0.49
  -3   1  -2    3.40    0.28
  -3   1  -2    3.96    0.43
  -3   1  -2    4.00    0.38
  -3   1  -2    4.35    0.33
  -3   1  -2    3.96    0.45
  -3   1  -2    3.35    0.54
  -3   1  -2    3.66    0.46
  -3   1  -3   14.70    1.08
  -3   1  -3   14.89    0.69
  -3   1  -3   15.38    0.92
  -3   1  -3   15.37    0.83
  -3   1  -3   15.45    0.71
  -3   1  -3   15.60    0.94
  -3   1  -3   15.09    0.99
  -3   1  -4   54.71    2.45
  -3   1  -4   53.35    1.99
  -3   1  -4   54.42    1.82
  -3   1  -4   55.30    2.15
  -3   1  -4   54.09    1.98
  -3   1  -4   56.67    1.82
  -3   1  -4   56.61    2.18
  -3   1  -4   55.04    2.27
  -3   1  -5   98.97    3.33
  -3   1  -5   92.55    3.66
  -3   1  -5   96.56    3.13
  -3   1  -5   96.03    2.94
  -3   1  -5   91.29    3.26
  -3   1  -5   96.90    3.12
  -3   1  -5   97.92    2.88
  -3   1  -5   92.21    3.38
  -3   1  -6    4.12    0.37
  -3   1  -6    3.34    0.39
  -3   1  -6    3.41    0.45
  -3   1  -6    3.04    0.45
  -3   1  -7    0.06    0.12
  -3   1  -7    0.06    0.18
  -3   1  -7    0.03    0.10
  -3   1  -8   43.64    1.64
  -3   1  -8   41.83    1.66
  -3   1  -8   39.15    1.84
  -3   1  -8   42.82    2.29
  -3   1  -9    5.21    0.45
  -3   1  -9    5.16    0.58
  -3   1 -10    2.08    0.40
  -3   1 -11    0.59    0.19
  -3   1 -11    0.55    0.26
  -3   1 -12   30.66    1.45
  -3   1 -12   25.15    1.18
  -3   1 -13    7.22    0.60
  -3   1 -13    6.60    0.52
   3   0 -15   28.17    1.07
   3   0 -15   28.31    1.06
   3   0 -14   22.35    0.96
   3   0 -14   23.32    0.97
  -3   0  13    6.52    0.39
   3   0 -13    7.50    0.59
  -3   0  12    3.20    0.30
  -3   0  12    2.99    0.29
  -3   0  11   55.93    1.90
  -3   0  11   54.12    1.90
  -3   0  11   59.12    1.95
  -3   0  10    4.92    0.40
  -3   0  10    4.92    0.42
  -3   0  10    5.43    0.45
   3   0 -10    5.12    0.62
  -3   0  10    4.73    0.59
  -3   0   9    3.26    0.32
  -3   0   9    3.61    0.37
  -3   0   9    3.73    0.38
   3   0  -9    3.92    0.54
  -3   0   9    3.46    0.51
  -3   0   8    3.58    0.32
  -3   0   8    3.92    0.40
  -3   0   8    4.41    0.41
   3   0  -8    4.37    0.55
  -3   0   8    3.43    0.50
  -3   0   7  133.28    3.87
  -3   0   7  127.69    3.80
   3   0  -7  119.93    4.16
  -3   0   7  119.65    4.25
  -3   0   7  119.13    3.95
   3   0  -6    1.29    0.29
  -3   0   6    1.57    0.24
  -3   0   6    1.12    0.27
  -3   0   6    1.35    0.32
  -3   0   6    1.59    0.29
  -3   0   5   27.69    1.31
  -3   0   5   27.72    1.22
  -3   0   5   26.92    1.13
  -3   0   5   24.28    0.98
   3   0  -5   24.32    1.29
  -3   0   5   26.69    1.36
  -3   0   5   25.10    1.41
  -3   0   4  125.34    3.83
  -3   0   4  117.27    3.53
  -3   0   4  122.03    3.54
  -3   0   4  119.18    3.92
  -3   0   4  128.58    4.08
  -3   0   4  122.25    4.16
  -3   0   3  121.54    3.86
  -3   0   3  123.46    3.58
  -3   0   3  115.59    3.45
  -3   0   3  117.38    3.44
  -3   0   3  118.25    3.82
  -3   0   3  125.90    3.98
  -3   0   3  119.00    4.07
  -3   0   2    5.74    0.57
  -3   0   2    6.48    0.52
  -3   0   2    7.62    0.49
  -3   0   2    6.05    0.42
  -3   0   2    6.51    0.66
  -3   0   2    6.94    0.63
  -3   0   1    2.48    0.42
  -3   0   1    1.91    0.32
  -3   0   1    1.74    0.32
  -3   0   1    1.83    0.29
  -3   0   1    1.58    0.22
  -3   0   1    1.84    0.24
  -3   0   1    2.02    0.22
  -3   0   1    2.10    0.32
  -3   0   1    2.03    0.35
  -3   0   0   96.39    3.26
  -3   0   0   94.76    3.11
  -3   0   0   97.96    2.88
  -3   0   0   94.41    2.86
  -3   0   0   97.21    2.81
  -3   0   0  101.91    3.23
  -3   0   0   92.68    3.43
  -3   0  -1   29.72    1.47
  -3   0  -1   28.26    1.34
  -3   0  -1   29.72    1.18
  -3   0  -1   27.91    1.13
  -3   0  -1   29.76    1.11
  -3   0  -1   30.42    1.40
  -3   0  -1   29.46    1.60
  -3   0  -1   29.85    1.48
  -3   0  -2    8.19    0.73
  -3   0  -2    7.77    0.44
  -3   0  -2    7.33    0.62
  -3   0  -2    8.50    0.54
  -3   0  -2    7.74    0.46
  -3   0  -2    7.24    0.62
  -3   0  -2    6.99    0.67
  -3   0  -3    1.86    0.37
  -3   0  -3    1.21    0.18
  -3   0  -3    1.76    0.32
  -3   0  -3    1.10    0.28
  -3   0  -3    2.27    0.29
  -3   0  -3    1.22    0.19
  -3   0  -3    2.02    0.36
  -3   0  -4  159.00    5.18
  -3   0  -4  154.99    4.44
  -3   0  -4  156.68    4.63
  -3   0  -4  157.17    4.60
  -3   0  -4  142.18    4.80
  -3   0  -4  157.80    5.01
  -3   0  -4  161.40    4.90
  -3   0  -5   19.28    1.19
  -3   0  -5   19.58    0.90
  -3   0  -5   20.04    1.01
  -3   0  -5   19.15    0.98
  -3   0  -5   17.81    1.09
  -3   0  -5   20.51    1.14
  -3   0  -5   21.29    1.38
  -3   0  -6    9.92    0.68
  -3   0  -6    9.92    0.68
  -3   0  -6    8.89    0.75
  -3   0  -6   11.06    1.00
  -3   0  -6    9.87    0.61
  -3   0  -7   26.34    1.23
  -3   0  -7   24.45    1.35
  -3   0  -7   26.76    1.16
  -3   0  -7   26.64    1.69
  -3   0  -8   39.63    1.58
  -3   0  -8   37.70    1.52
  -3   0  -9    0.12    0.13
  -3   0  -9    0.12    0.16
  -3   0 -10    1.93    0.37
  -3   0 -11   13.89    0.96
  -3   0 -11   13.57    0.81
  -3   0 -12   24.46    1.29
  -3   0 -12   25.42    1.17
  -3   0 -13    0.09    0.15
  -3   0 -13   -0.02    0.11
  -3   0 -13    0.15    0.14
   3   1 -15   28.74    1.05
   3   1 -15   28.94    1.03
  -3  -1  14    0.16    0.08
   3   1 -14    0.08    0.11
   3   1 -14    0.10    0.11
  -3  -1  13    2.32    0.25
   3   1 -13    3.42    0.37
  -3  -1  12   38.28    1.41
  -3  -1  12   38.55    1.38
  -3  -1  11   42.06    1.56
  -3  -1  11   40.97    1.53
  -3  -1  10    1.12    0.22
   3   1 -10    1.12    0.30
  -3  -1  10    1.11    0.21
  -3  -1   9    0.40    0.16
   3   1  -9    0.35    0.18
  -3  -1   9    0.16    0.11
  -3  -1   9    0.24    0.14
  -3  -1   8   62.37    2.14
  -3  -1   8   57.49    2.03
   3   1  -8   58.22    2.42
  -3  -1   7   29.07    1.23
   3   1  -7   26.66    1.45
  -3  -1   7   26.28    1.43
  -3  -1   7   26.87    1.35
  -3  -1   6   16.09    0.90
  -3  -1   6   14.50    0.78
   3   1  -6   12.29    0.91
  -3  -1   6   14.23    0.96
  -3  -1   6   13.59    0.89
  -3  -1   5    7.18    0.59
   3   1  -5    6.56    0.61
  -3  -1   5    6.78    0.65
  -3  -1   5    6.54    0.64
  -3  -1   5    6.27    0.59
  -3  -1   4  233.24    6.63
  -3  -1   4  238.76    6.61
  -3  -1   4  224.45    6.80
  -3  -1   4  220.27    6.77
  -3  -1   4  220.63    6.69
  -3  -1   3   17.30    1.04
  -3  -1   3   15.31    0.86
  -3  -1   3   18.63    1.01
  -3  -1   3   18.03    1.11
  -3  -1   3   16.18    1.05
  -3  -1   2    8.79    0.62
  -3  -1   2    9.84    0.72
  -3  -1   2   10.59    0.70
  -3  -1   2    9.35    0.57
  -3  -1   2    7.81    0.70
  -3  -1   2    9.11    0.77
  -3  -1   1   22.64    1.20
  -3  -1   1   20.84    1.07
  -3  -1   1   20.04    1.13
  -3  -1   1   19.96    1.07
  -3  -1   1   19.59    0.84
  -3  -1   1   21.96    0.94
  -3  -1   1   22.92    1.26
  -3  -1   1   22.78    1.26
  -3  -1   0   78.21    2.66
  -3  -1   0   67.45    2.48
  -3  -1   0   66.44    2.56
  -3  -1   0   70.88    2.53
  -3  -1   0   68.51    2.18
  -3  -1   0   68.75    2.23
  -3  -1   0   70.26    2.71
  -3  -1  -1    0.21    0.14
  -3  -1  -1    0.05    0.09
  -3  -1  -1   -0.02    0.13
  -3  -1  -1    0.10    0.08
  -3  -1  -1   -0.03    0.11
  -3  -1  -1    0.03    0.06
  -3  -1  -2   16.09    1.01
  -3  -1  -2   14.08    0.92
  -3  -1  -2   16.10    0.77
  -3  -1  -2   13.78    0.67
  -3  -1  -2   15.46    1.03
  -3  -1  -2   15.53    0.97
  -3  -1  -3   76.77    2.50
  -3  -1  -3   75.20    2.41
  -3  -1  -3   67.96    2.66
  -3  -1  -3   69.09    2.31
  -3  -1  -3   76.93    2.86
  -3  -1  -3   81.09    2.78
  -3  -1  -3   80.63    2.90
  -3  -1  -4  100.39    3.14
  -3  -1  -4   98.64    3.07
  -3  -1  -4   90.66    3.32
  -3  -1  -4   93.69    2.97
  -3  -1  -4  104.39    3.41
  -3  -1  -4  100.34    3.59
  -3  -1  -5    1.86    0.40
  -3  -1  -5    1.88    0.29
  -3  -1  -5    2.75    0.33
  -3  -1  -5    2.17    0.37
  -3  -1  -5    1.82    0.26
  -3  -1  -6    0.26    0.18
  -3  -1  -6    0.07    0.10
  -3  -1  -6    0.06    0.12
  -3  -1  -7   43.87    1.71
  -3  -1  -7   39.80    1.85
  -3  -1  -7   43.37    1.66
  -3  -1  -8   10.89    0.71
  -3  -1  -8    8.77    0.75
  -3  -1  -8    9.19    0.65
  -3  -1  -9    3.63    0.48
  -3  -1 -10    1.29    0.31
  -3  -1 -11   30.09    1.46
  -3  -1 -11   31.82    1.40
  -3  -1 -12    2.35    0.35
  -3  -1 -12    2.53    0.34
  -3  -1 -12    2.55    0.34
  -3  -1 -13    2.26    0.29
  -3  -1 -13    2.36    0.30
  -3  -1 -13    2.31    0.27
  -3  -2  15    6.97    0.33
  -3  -2  14    2.84    0.24
   3   2 -14    2.48    0.27
   3   2 -14    2.39    0.26
  -3  -2  13    4.30    0.34
   3   2 -13    4.93    0.41
  -3  -2  12   79.06    2.50
  -3  -2  12   78.44    2.43
  -3  -2  11    9.46    0.61
  -3  -2  11   10.38    0.61
  -3  -2  10   10.11    0.64
  -3  -2  10    8.86    0.59
   3   2 -10    7.78    0.77
  -3  -2   9    8.71    0.62
  -3  -2   9    9.41    0.60
   3   2  -9    7.83    0.77
  -3  -2   8   66.89    2.24
   3   2  -8   62.08    2.59
  -3  -2   8   61.02    2.02
  -3  -2   7    0.25    0.14
  -3  -2   7    0.30    0.17
   3   2  -7    0.51    0.20
  -3  -2   7    0.11    0.12
  -3  -2   6    4.17    0.44
  -3  -2   6    3.88    0.38
   3   2  -6    3.47    0.47
  -3  -2   6    2.93    0.39
  -3  -2   6    3.81    0.46
  -3  -2   5  105.64    3.26
  -3  -2   5  100.22    3.14
  -3  -2   5   95.94    3.06
  -3  -2   5   98.67    3.34
  -3  -2   4  134.99    4.15
  -3  -2   4  137.83    4.06
  -3  -2   4  124.94    4.14
  -3  -2   4  130.53    4.27
  -3  -2   3    1.59    0.28
  -3  -2   3    1.75    0.25
  -3  -2   3    1.52    0.28
  -3  -2   3    2.06    0.34
  -3  -2   2    2.74    0.36
  -3  -2   2    2.39    0.34
  -3  -2   2    2.93    0.31
  -3  -2   2    2.20    0.35
  -3  -2   1  117.58    3.80
  -3  -2   1  116.60    3.90
  -3  -2   1  126.91    3.97
  -3  -2   1  125.86    3.69
  -3  -2   1  125.86    4.01
  -3  -2   1  133.68    4.14
  -3  -2   0   23.48    1.19
  -3  -2   0   26.99    1.32
  -3  -2   0   24.78    0.97
  -3  -2   0   26.03    1.08
  -3  -2   0   28.72    1.40
  -3  -2  -1   16.60    0.76
  -3  -2  -1   17.96    1.05
  -3  -2  -1   16.71    0.81
  -3  -2  -1   18.02    1.07
  -3  -2  -1   17.65    1.01
  -3  -2  -2   13.42    0.75
  -3  -2  -2   12.00    0.63
  -3  -2  -2   11.32    0.83
  -3  -2  -2   13.12    0.74
  -3  -2  -2   10.16    0.60
  -3  -2  -2   12.84    0.88
  -3  -2  -2   13.02    0.88
  -3  -2  -3  100.19    2.99
  -3  -2  -3   86.63    2.82
  -3  -2  -3   91.25    3.23
  -3  -2  -3   94.62    2.99
  -3  -2  -3   85.78    2.83
  -3  -2  -3  100.62    3.32
  -3  -2  -3   96.38    3.35
  -3  -2  -4    5.76    0.45
  -3  -2  -4    6.56    0.52
  -3  -2  -4    5.38    0.57
  -3  -2  -4    7.04    0.56
  -3  -2  -4    5.75    0.46
  -3  -2  -4    5.60    0.59
  -3  -2  -4    5.74    0.65
  -3  -2  -5    8.12    0.60
  -3  -2  -5    7.28    0.67
  -3  -2  -5    9.48    0.65
  -3  -2  -5    5.99    0.64
  -3  -2  -5    7.58    0.55
  -3  -2  -6   14.51    0.85
  -3  -2  -6   13.38    0.94
  -3  -2  -6   15.49    0.85
  -3  -2  -7   63.86    2.55
  -3  -2  -7   65.43    2.35
  -3  -2  -8    0.14    0.14
  -3  -2  -8    0.20    0.20
  -3  -2  -8    0.13    0.12
  -3  -2  -9    2.23    0.37
  -3  -2  -9    2.52    0.36
  -3  -2 -10   25.26    1.28
  -3  -2 -11   11.73    0.79
  -3  -2 -11   13.77    0.84
  -3  -2 -11   14.73    0.84
  -3  -2 -12    0.94    0.21
  -3  -2 -12    1.02    0.23
  -3  -2 -12    1.23    0.23
  -3  -2 -13    0.01    0.08
  -3  -3  15    0.05    0.05
  -3  -3  14    0.72    0.13
   3   3 -14    0.40    0.10
  -3  -3  13   23.36    0.93
   3   3 -13   22.10    0.92
  -3  -3  12   41.95    1.54
   3   3 -12   44.43    1.59
  -3  -3  12   43.08    1.48
  -3  -3  11    3.28    0.35
  -3  -3  11    3.37    0.33
  -3  -3  10    0.79    0.21
  -3  -3  10    0.75    0.18
  -3  -3   9   67.02    2.35
   3   3  -9   59.67    2.65
  -3  -3   8    8.51    0.60
   3   3  -8    8.39    0.78
  -3  -3   8   10.28    0.56
  -3  -3   7    8.50    0.62
  -3  -3   7    7.97    0.57
  -3  -3   7    7.87    0.72
   3   3  -7    6.46    0.67
  -3  -3   7    7.69    0.48
  -3  -3   6    7.91    0.57
  -3  -3   6    7.20    0.70
  -3  -3   5   88.02    2.92
  -3  -3   5   93.55    2.94
  -3  -3   5   93.34    3.24
  -3  -3   4   15.41    0.88
  -3  -3   4   14.40    0.82
  -3  -3   4   15.28    0.81
  -3  -3   4   16.62    1.03
  -3  -3   3   21.73    1.06
  -3  -3   3   22.54    1.02
  -3  -3   3   22.40    1.25
  -3  -3   2   28.05    1.28
  -3  -3   2   30.34    1.36
  -3  -3   2   28.84    1.20
  -3  -3   2   28.95    1.48
  -3  -3   1  151.74    4.64
  -3  -3   1  155.97    4.75
  -3  -3   1  149.25    4.44
  -3  -3   1  159.69    4.96
  -3  -3   0    1.15    0.28
  -3  -3   0    1.15    0.24
  -3  -3   0    1.13    0.20
  -3  -3   0    1.02    0.27
  -3  -3   0    0.73    0.18
  -3  -3   0    0.75    0.17
  -3  -3  -1    1.45    0.31
  -3  -3  -1    1.39    0.27
  -3  -3  -1    1.23    0.22
  -3  -3  -1    1.43    0.22
  -3  -3  -2   62.53    2.12
  -3  -3  -2   52.50    1.96
  -3  -3  -2   55.64    1.91
  -3  -3  -2   65.42    2.43
  -3  -3  -2   61.94    2.35
  -3  -3  -3   32.86    1.38
  -3  -3  -3   34.52    1.73
  -3  -3  -4    0.45    0.16
  -3  -3  -4    0.27    0.16
  -3  -3  -4    0.33    0.15
  -3  -3  -4    0.38    0.12
  -3  -3  -5    1.51    0.26
  -3  -3  -5    1.53    0.27
  -3  -3  -6   58.68    2.08
  -3  -3  -6   59.49    2.17
  -3  -3  -6   52.93    2.08
  -3  -3  -7   29.97    1.29
  -3  -3  -7   30.69    1.39
  -3  -3  -7   28.16    1.34
  -3  -3  -8    5.67    0.52
  -3  -3  -9    4.86    0.51
  -3  -3  -9    4.82    0.49
  -3  -3  -9    4.75    0.48
  -3  -3 -10   29.47    1.37
  -3  -3 -10   33.40    1.43
  -3  -3 -11    0.02    0.11
  -3  -3 -11    0.06    0.13
  -3  -3 -11    0.13    0.14
  -3  -3 -12    2.39    0.28
  -3  -3 -12    1.99    0.24
  -3  -3 -12    2.21    0.24
  -3  -4  15    0.50    0.09
  -3  -4  15    0.39    0.08
  -3  -4  14    1.28    0.16
  -3  -4  14    0.81    0.13
  -3  -4  13   44.79    1.51
  -3  -4  12    4.34    0.37
  -3  -4  12    4.55    0.34
  -3  -4  11   12.45    0.69
  -3  -4  11   12.06    0.65
  -3  -4  10   27.19    1.16
  -3  -4  10   26.64    1.13
  -3  -4   9   63.19    2.16
  -3  -4   8    0.16    0.11
  -3  -4   8    0.06    0.07
  -3  -4   7    0.57    0.18
  -3  -4   7    0.34    0.14
  -3  -4   7    0.32    0.14
  -3  -4   7    0.34    0.17
  -3  -4   7    0.37    0.12
  -3  -4   6   34.83    1.41
  -3  -4   6   34.71    1.40
  -3  -4   6   34.34    1.41
  -3  -4   6   35.60    1.76
  -3  -4   6   32.52    1.28
  -3  -4   5   64.19    2.21
  -3  -4   5   63.79    2.19
  -3  -4   5   62.78    2.20
  -3  -4   5   62.54    2.59
  -3  -4   5   61.92    2.06
  -3  -4   4    5.76    0.48
  -3  -4   4    5.07    0.45
  -3  -4   4    4.46    0.57
  -3  -4   3    4.19    0.41
  -3  -4   3    3.46    0.36
  -3  -4   3    3.29    0.50
  -3  -4   2  155.47    4.63
  -3  -4   2  152.85    4.42
  -3  -4   2  162.75    4.74
  -3  -4   2  153.57    4.54
  -3  -4   2  147.65    5.06
  -3  -4   1   41.81    1.53
  -3  -4   1   46.86    1.81
  -3  -4   1   43.20    1.62
  -3  -4   1   40.91    1.58
  -3  -4   1   41.46    1.57
  -3  -4   0   12.48    0.69
  -3  -4   0   13.70    0.88
  -3  -4   0   14.08    0.78
  -3  -4   0   12.45    0.69
  -3  -4   0   10.81    0.71
  -3  -4   0   11.97    0.97
  -3  -4  -1    9.88    0.63
  -3  -4  -1   11.40    0.81
  -3  -4  -1   11.27    0.71
  -3  -4  -1    9.38    0.59
  -3  -4  -1   10.28    0.69
  -3  -4  -1   10.65    0.90
  -3  -4  -1   11.28    0.62
  -3  -4  -2   54.74    1.87
  -3  -4  -2   53.69    2.09
  -3  -4  -2   43.45    1.78
  -3  -4  -2   46.06    1.87
  -3  -4  -2   47.91    1.70
  -3  -4  -2   48.93    2.21
  -3  -4  -2   54.06    1.76
  -3  -4  -3    0.16    0.17
  -3  -4  -3    0.52    0.17
  -3  -4  -3    0.55    0.19
  -3  -4  -3    0.25    0.16
  -3  -4  -3    0.24    0.11
  -3  -4  -4    9.85    0.77
  -3  -4  -4   11.05    0.75
  -3  -4  -4    9.54    0.69
  -3  -4  -4   10.01    0.73
  -3  -4  -4    9.02    0.82
  -3  -4  -4   10.44    0.58
  -3  -4  -5   13.53    0.78
  -3  -4  -5   11.17    0.82
  -3  -4  -5   12.99    0.84
  -3  -4  -5   11.47    0.79
  -3  -4  -5   12.65    0.84
  -3  -4  -5   11.93    0.66
  -3  -4  -6   69.08    2.30
  -3  -4  -6   65.51    2.47
  -3  -4  -6   68.23    2.42
  -3  -4  -6   61.34    2.35
  -3  -4  -6   61.45    2.39
  -3  -4  -7    0.28    0.15
  -3  -4  -7    0.13    0.15
  -3  -4  -7    0.29    0.17
  -3  -4  -8    2.10    0.35
  -3  -4  -8    2.03    0.33
  -3  -4  -8    2.31    0.35
  -3  -4  -9   25.66    1.22
  -3  -4  -9   25.99    1.23
  -3  -4  -9   26.70    1.24
  -3  -4 -10   11.42    0.70
  -3  -4 -10   11.93    0.72
  -3  -4 -11    0.72    0.16
  -3  -4 -11    0.96    0.18
  -3  -5  14    7.77    0.39
  -3  -5  14    7.14    0.36
  -3  -5  13   14.16    0.62
  -3  -5  13   13.29    0.59
  -3  -5  12    2.29    0.24
  -3  -5  12    2.32    0.22
  -3  -5  11    0.12    0.10
  -3  -5  11    0.05    0.09
  -3  -5  10   66.46    2.21
  -3  -5  10   70.16    2.25
  -3  -5   9   22.39    1.02
  -3  -5   9   22.13    1.00
  -3  -5   9   23.38    1.03
  -3  -5   8    6.02    0.48
  -3  -5   8    6.13    0.47
  -3  -5   8    6.69    0.50
  -3  -5   8    6.38    0.45
  -3  -5   8    6.55    0.43
  -3  -5   7    3.30    0.35
  -3  -5   7    4.08    0.39
  -3  -5   7    3.94    0.39
  -3  -5   7    3.94    0.37
  -3  -5   7    3.46    0.50
  -3  -5   7    3.60    0.33
  -3  -5   6   43.29    1.63
  -3  -5   6   43.89    1.63
  -3  -5   6   45.60    1.69
  -3  -5   6   43.90    2.05
  -3  -5   6   41.15    1.53
  -3  -5   5    0.12    0.12
  -3  -5   5    0.17    0.12
  -3  -5   5    0.08    0.12
  -3  -5   5    0.04    0.13
  -3  -5   5    0.13    0.10
  -3  -5   4   12.44    0.72
  -3  -5   4   11.49    0.60
  -3  -5   4   11.44    0.95
  -3  -5   4   12.20    0.67
  -3  -5   3   31.73    1.32
  -3  -5   3   31.19    1.19
  -3  -5   3   31.60    1.31
  -3  -5   3   30.49    1.68
  -3  -5   2  109.86    3.38
  -3  -5   2  117.04    3.49
  -3  -5   2  111.33    4.10
  -3  -5   2  117.62    3.47
  -3  -5   1    0.16    0.10
  -3  -5   1    0.07    0.15
  -3  -5   1    0.13    0.11
  -3  -5   1    0.02    0.08
  -3  -5   0    2.00    0.26
  -3  -5   0    2.14    0.35
  -3  -5   0    1.72    0.25
  -3  -5   0    1.37    0.25
  -3  -5   0    2.18    0.42
  -3  -5   0    2.15    0.27
  -3  -5  -1   41.80    1.56
  -3  -5  -1   38.25    1.54
  -3  -5  -1   43.04    1.77
  -3  -5  -1   44.11    1.67
  -3  -5  -1   38.91    1.62
  -3  -5  -1   38.65    1.51
  -3  -5  -1   44.03    2.07
  -3  -5  -1   44.30    1.55
  -3  -5  -2   38.78    1.50
  -3  -5  -2   35.03    1.50
  -3  -5  -2   40.00    1.69
  -3  -5  -2   37.07    1.59
  -3  -5  -2   36.81    1.39
  -3  -5  -2   38.85    1.91
  -3  -5  -2   40.20    1.44
  -3  -5  -3    2.17    0.29
  -3  -5  -3    1.71    0.29
  -3  -5  -3    2.40    0.36
  -3  -5  -3    1.88    0.34
  -3  -5  -3    1.83    0.32
  -3  -5  -3    2.03    0.27
  -3  -5  -3    1.32    0.32
  -3  -5  -3    1.90    0.24
  -3  -5  -4    0.22    0.13
  -3  -5  -4    0.48    0.19
  -3  -5  -4    0.74    0.24
  -3  -5  -4    0.23    0.15
  -3  -5  -4    0.28    0.18
  -3  -5  -4    0.42    0.14
  -3  -5  -4    0.38    0.12
  -3  -5  -5   53.04    2.11
  -3  -5  -5   53.37    2.10
  -3  -5  -5   57.16    2.11
  -3  -5  -5   56.49    2.16
  -3  -5  -6   13.48    0.76
  -3  -5  -6   11.80    0.81
  -3  -5  -6   12.64    0.82
  -3  -5  -6   14.45    0.86
  -3  -5  -6   11.81    0.82
  -3  -5  -7    3.62    0.42
  -3  -5  -7    3.90    0.44
  -3  -5  -8    2.68    0.35
  -3  -5  -8    2.80    0.36
  -3  -5  -8    3.09    0.37
  -3  -5  -9   28.61    1.22
  -3  -5  -9   27.65    1.21
  -3  -5  -9   31.60    1.25
  -3  -5 -10    1.16    0.19
  -3  -5 -10    1.29    0.20
  -3  -6  13    0.34    0.10
  -3  -6  12    3.09    0.27
  -3  -6  12    3.22    0.24
  -3  -6  11   12.05    0.61
  -3  -6  11   11.73    0.58
  -3  -6  11   12.97    0.62
  -3  -6  10   49.62    1.70
  -3  -6  10   48.78    1.66
  -3  -6  10   51.96    1.73
  -3  -6   9    0.13    0.11
  -3  -6   9    0.15    0.10
  -3  -6   9    0.03    0.09
  -3  -6   8    5.97    0.45
  -3  -6   8    5.64    0.43
  -3  -6   8    6.62    0.49
  -3  -6   8    6.62    0.44
  -3  -6   8    6.27    0.41
  -3  -6   7   33.38    1.36
  -3  -6   7   36.45    1.37
  -3  -6   7   36.75    1.45
  -3  -6   7   36.93    1.39
  -3  -6   7   37.24    1.34
  -3  -6   6   27.34    1.16
  -3  -6   6   28.76    1.17
  -3  -6   6   31.34    1.28
  -3  -6   6   28.48    1.19
  -3  -6   6   27.11    1.12
  -3  -6   5    9.32    0.58
  -3  -6   5    8.88    0.59
  -3  -6   5    9.25    0.84
  -3  -6   5    8.43    0.54
  -3  -6   4    0.63    0.17
  -3  -6   4    0.83    0.19
  -3  -6   4    1.13    0.31
  -3  -6   4    0.85    0.18
  -3  -6   3   63.33    2.10
  -3  -6   3   67.33    2.29
  -3  -6   3   65.42    2.79
  -3  -6   2   22.24    0.98
  -3  -6   2   23.88    1.09
  -3  -6   2   23.23    1.48
  -3  -6   2   25.17    1.08
  -3  -6   1    6.66    0.47
  -3  -6   1    7.22    0.55
  -3  -6   1    7.55    0.56
  -3  -6   1    7.11    0.52
  -3  -6   1    7.01    0.50
  -3  -6   0    1.20    0.21
  -3  -6   0    1.19    0.24
  -3  -6   0    1.91    0.31
  -3  -6   0    1.33    0.23
  -3  -6   0    1.06    0.21
  -3  -6   0    2.46    0.31
  -3  -6   0    2.40    0.45
  -3  -6   0    1.30    0.22
  -3  -6  -1   77.37    2.56
  -3  -6  -1   79.69    2.73
  -3  -6  -1   81.58    2.70
  -3  -6  -1   82.23    2.69
  -3  -6  -1   77.84    2.56
  -3  -6  -1   84.32    2.66
  -3  -6  -1   77.65    3.15
  -3  -6  -1   85.26    2.59
  -3  -6  -2    0.36    0.13
  -3  -6  -2    0.08    0.09
  -3  -6  -2    0.18    0.14
  -3  -6  -2    0.08    0.13
  -3  -6  -2    0.12    0.11
  -3  -6  -2    0.14    0.10
  -3  -6  -3    9.62    0.59
  -3  -6  -3    8.46    0.60
  -3  -6  -3    9.10    0.66
  -3  -6  -3    8.31    0.64
  -3  -6  -3    8.43    0.55
  -3  -6  -3    8.37    0.51
  -3  -6  -4   22.24    1.02
  -3  -6  -4   22.54    1.09
  -3  -6  -4   20.93    1.09
  -3  -6  -4   24.23    1.14
  -3  -6  -4   24.66    1.18
  -3  -6  -4   20.85    0.93
  -3  -6  -4   22.89    0.91
  -3  -6  -5   21.99    1.09
  -3  -6  -5   21.44    1.09
  -3  -6  -5   23.75    1.13
  -3  -6  -5   23.20    1.14
  -3  -6  -6    0.19    0.13
  -3  -6  -6    0.19    0.13
  -3  -6  -7    1.08    0.22
  -3  -6  -7    1.52    0.25
  -3  -6  -8   14.71    0.74
  -3  -6  -8   15.20    0.75
  -3  -6  -9   17.89    0.77
  -3  -6 -10    0.27    0.08
  -3  -7  12    0.13    0.07
  -3  -7  11   26.08    0.97
  -3  -7  11   27.87    0.98
  -3  -7  10   16.86    0.73
  -3  -7  10   17.50    0.76
  -3  -7   9    6.55    0.42
  -3  -7   9    6.23    0.44
  -3  -7   8    2.31    0.26
  -3  -7   8    2.67    0.29
  -3  -7   8    2.40    0.25
  -3  -7   7   52.07    1.77
  -3  -7   7   54.99    1.92
  -3  -7   7   56.86    1.85
  -3  -7   7   55.39    1.79
  -3  -7   6    0.09    0.09
  -3  -7   6    0.30    0.13
  -3  -7   6   -0.02    0.08
  -3  -7   6    0.05    0.08
  -3  -7   5    2.21    0.28
  -3  -7   5    2.41    0.27
  -3  -7   4   17.61    0.88
  -3  -7   4   15.98    0.80
  -3  -7   3   36.96    1.39
  -3  -7   3   33.61    1.38
  -3  -7   3   32.44    1.37
  -3  -7   2    0.15    0.13
  -3  -7   2    0.29    0.13
  -3  -7   1    8.42    0.50
  -3  -7   1    8.70    0.57
  -3  -7   1    7.97    0.50
  -3  -7   1    8.67    0.55
  -3  -7   0   35.61    1.34
  -3  -7   0   39.86    1.49
  -3  -7   0   34.97    1.39
  -3  -7   0   37.06    1.46
  -3  -7   0   38.02    1.40
  -3  -7  -1   46.55    1.64
  -3  -7  -1   44.28    1.69
  -3  -7  -1   48.73    1.77
  -3  -7  -1   49.18    1.67
  -3  -7  -1   48.73    1.73
  -3  -7  -1   47.45    1.65
  -3  -7  -2    3.26    0.31
  -3  -7  -2    3.04    0.33
  -3  -7  -2    3.65    0.39
  -3  -7  -2    2.95    0.33
  -3  -7  -2    3.44    0.33
  -3  -7  -2    3.22    0.30
  -3  -7  -3    0.37    0.14
  -3  -7  -3    0.28    0.15
  -3  -7  -3    0.49    0.13
  -3  -7  -3    0.35    0.11
  -3  -7  -4   36.04    1.43
  -3  -7  -4   35.27    1.21
  -3  -7  -5    2.26    0.32
  -3  -7  -5    1.89    0.26
  -3  -7  -6    4.22    0.39
  -3  -7  -7    1.48    0.24
  -3  -7  -9    1.52    0.15
  -3  -8  11   15.29    0.59
  -3  -8  10    2.22    0.21
  -3  -8   9    5.71    0.38
  -3  -8   8   34.50    1.28
  -3  -8   7   26.06    1.08
  -3  -8   7   25.64    1.00
  -3  -8   7   25.45    0.96
  -3  -8   6    3.04    0.32
  -3  -8   6    3.02    0.29
  -3  -8   6    2.88    0.27
  -3  -8   5    0.61    0.15
  -3  -8   5    0.43    0.13
  -3  -8   4   26.08    1.12
  -3  -8   4   26.13    1.10
  -3  -8   4   25.72    1.04
  -3  -8   3    4.21    0.38
  -3  -8   3    4.35    0.39
  -3  -8   2    7.95    0.52
  -3  -8   2    7.11    0.52
  -3  -8   2    6.94    0.48
  -3  -8   1    1.98    0.25
  -3  -8   1    2.20    0.26
  -3  -8   0   61.47    2.00
  -3  -8   0   59.08    1.95
  -3  -8   0   61.70    2.02
  -3  -8   0   55.40    1.89
  -3  -8   0   59.29    1.93
  -3  -8  -1    1.48    0.21
  -3  -8  -1    1.65    0.23
  -3  -8  -1    1.43    0.20
  -3  -8  -2    4.30    0.38
  -3  -8  -2    3.50    0.31
  -3  -8  -2    3.63    0.33
  -3  -8  -2    3.49    0.29
  -3  -8  -3   15.36    0.77
  -3  -8  -3   15.51    0.74
  -3  -8  -3   14.08    0.62
  -3  -8  -4   17.05    0.78
  -3  -8  -5    1.45    0.24
  -3  -8  -5    0.60    0.15
  -3  -8  -6    2.11    0.25
  -3  -9  10    1.26    0.13
  -3  -9   9    1.59    0.17
  -3  -9   8   34.91    1.21
  -3  -9   7    2.29    0.24
  -3  -9   7    2.24    0.20
  -3  -9   6    3.96    0.33
  -3  -9   6    3.67    0.28
  -3  -9   5    8.65    0.49
  -3  -9   5    9.02    0.48
  -3  -9   4   18.51    0.83
  -3  -9   4   17.95    0.81
  -3  -9   3    3.89    0.33
  -3  -9   3    3.78    0.33
  -3  -9   3    3.90    0.31
  -3  -9   2    3.10    0.29
  -3  -9   2    3.18    0.30
  -3  -9   2    3.54    0.30
  -3  -9   1   23.55    0.95
  -3  -9   1   24.17    0.95
  -3  -9   0   15.33    0.71
  -3  -9   0   15.17    0.68
  -3  -9  -1    1.61    0.19
  -3  -9  -1    1.61    0.18
  -3  -9  -2   -0.02    0.09
  -3  -9  -2   -0.03    0.07
  -3  -9  -3   20.82    0.82
  -3  -9  -3   20.10    0.77
  -3  -9  -4    4.90    0.34
  -3  -9  -4    4.00    0.28
  -3  -9  -5    3.86    0.26
  -3  -9  -6    0.65    0.10
  -3 -10   8   11.84    0.50
  -3 -10   7    1.65    0.18
  -3 -10   6    0.48    0.11
  -3 -10   6    0.46    0.10
  -3 -10   5   25.02    0.89
  -3 -10   4    1.74    0.20
  -3 -10   3    3.95    0.29
  -3 -10   3    3.50    0.27
  -3 -10   2    5.37    0.34
  -3 -10   1   15.12    0.63
  -3 -10   0    0.53    0.10
  -3 -10  -1    2.66    0.20
  -3 -10  -4    0.51    0.08
  -4  11   1    3.77    0.21
   4 -11  -1    3.39    0.21
   4 -11   0   17.02    0.65
  -4  11  -1    0.35    0.07
   4 -11   1    0.26    0.07
  -4  11  -2    2.01    0.16
   4 -11   2    2.12    0.17
  -4  10   5   11.22    0.45
  -4  10   4    7.93    0.38
  -4  10   3    0.22    0.08
   4 -10  -3    0.41    0.10
  -4  10   2    0.03    0.06
   4 -10  -2    0.08    0.07
  -4  10   2    0.06    0.05
   4 -10  -1   12.21    0.59
  -4  10   1   11.86    0.55
  -4  10   1   11.90    0.52
   4 -10   0   10.20    0.53
  -4  10   0    9.50    0.48
  -4  10  -1    3.00    0.24
  -4  10  -1    3.28    0.25
   4 -10   2    0.12    0.09
  -4  10  -2    0.12    0.08
  -4  10  -2    0.17    0.08
   4 -10   3   23.90    0.89
  -4  10  -3   26.76    0.88
  -4  10  -4    0.79    0.10
  -4  10  -4    0.99    0.13
   4 -10   4    1.00    0.13
  -4   9   7    2.91    0.21
  -4   9   6    1.90    0.18
   4  -9  -5   25.21    0.90
  -4   9   5   31.52    1.04
   4  -9  -4    1.54    0.19
  -4   9   4    1.88    0.22
   4  -9  -3    1.96    0.23
  -4   9   3    1.83    0.23
  -4   9   3    1.61    0.18
   4  -9  -2    3.23    0.30
  -4   9   2    3.34    0.32
  -4   9   2    2.68    0.24
   4  -9  -1   22.81    0.98
  -4   9   1   24.49    1.01
  -4   9   0    0.09    0.10
   4  -9   0    0.16    0.11
  -4   9   0    0.27    0.11
  -4   9  -1    3.73    0.34
  -4   9  -1    3.49    0.30
   4  -9   2   26.13    1.05
  -4   9  -2   26.98    1.06
  -4   9  -2   23.51    0.97
   4  -9   3   20.89    0.89
  -4   9  -3   22.33    0.90
  -4   9  -3   20.19    0.86
  -4   9  -4    1.53    0.20
  -4   9  -4    1.48    0.19
   4  -9   5   -0.01    0.05
  -4   9  -5    0.06    0.07
  -4   9  -5    0.01    0.06
  -4   9  -6    7.27    0.36
  -4   8   8    0.06    0.05
  -4   8   8    0.02    0.04
  -4   8   7    0.95    0.14
   4  -8  -5   23.06    0.90
  -4   8   4    1.56    0.24
  -4   8   4    1.29    0.17
  -4   8   3    0.62    0.18
  -4   8   3    0.55    0.13
  -4   8   2   24.95    1.07
  -4   8   2   18.01    0.82
  -4   8   1    9.67    0.66
  -4   8   0    5.12    0.47
  -4   8   0    3.44    0.31
  -4   8  -1    3.82    0.41
  -4   8  -1    2.79    0.29
  -4   8  -2   44.71    1.65
  -4   8  -2   37.54    1.42
  -4   8  -3    6.22    0.50
  -4   8  -3    4.78    0.38
  -4   8  -4    2.26    0.29
  -4   8  -4    1.77    0.23
  -4   8  -5    4.87    0.39
  -4   8  -5    3.85    0.31
  -4   8  -6   17.85    0.79
  -4   7   9    4.53    0.28
  -4   7   8    0.95    0.15
  -4   7   8    0.97    0.15
  -4   7   7    3.27    0.29
   4  -7  -6   50.99    1.63
  -4   7   6   49.84    1.74
  -4   7   5    9.61    0.60
  -4   7   4    6.89    0.42
  -4   7   3    9.68    0.53
  -4   7   2   40.04    1.59
  -4   7   2   33.20    1.28
   4  -7  -1    0.38    0.13
  -4   7   1    0.89    0.25
  -4   7   0    0.31    0.17
   4  -7   0    0.47    0.15
  -4   7   0    0.24    0.12
  -4   7  -1   23.93    1.20
  -4   7  -1   20.04    0.92
  -4   7  -2   24.20    1.22
  -4   7  -2   21.99    0.97
  -4   7  -3    2.32    0.36
  -4   7  -3    2.10    0.26
  -4   7  -4    1.99    0.34
  -4   7  -4    1.56    0.22
  -4   7  -5   33.85    1.39
  -4   7  -5   26.83    1.07
  -4   7  -6    8.87    0.60
  -4   7  -6    5.88    0.38
  -4   7  -7    2.93    0.33
  -4   7  -8    1.79    0.21
  -4   7  -9    8.63    0.45
  -4   6  10   13.07    0.53
  -4   6   9    0.20    0.09
  -4   6   8    0.50    0.12
  -4   6   8    0.54    0.14
  -4   6   7   19.45    0.86
  -4   6   6   32.92    1.30
  -4   6   5    5.71    0.47
  -4   6   5    4.79    0.34
   4  -6  -4    0.14    0.09
  -4   6   4    0.22    0.15
  -4   6   4    0.17    0.10
   4  -6  -3   61.96    2.03
  -4   6   3   63.93    2.25
  -4   6   3   57.95    1.96
   4  -6  -2    9.45    0.58
  -4   6   2    9.34    0.56
   4  -6  -1    3.10    0.32
   4  -6   0    4.18    0.38
  -4   6   0    4.02    0.36
   4  -6   1   27.92    1.17
  -4   6  -1   29.00    1.41
  -4   6  -1   29.56    1.18
   4  -6   2    5.83    0.45
  -4   6  -2    5.66    0.57
  -4   6  -2    5.75    0.43
   4  -6   3    2.79    0.30
  -4   6  -3    2.73    0.41
  -4   6  -3    2.92    0.30
   4  -6   4   10.61    0.61
  -4   6  -4   10.54    0.79
  -4   6  -4   10.81    0.59
  -4   6  -5   42.39    1.81
  -4   6  -5   42.53    1.46
  -4   6  -6    0.02    0.07
  -4   6  -6    0.02    0.07
  -4   6  -6    0.05    0.16
  -4   6  -7    0.45    0.12
  -4   6  -7    0.52    0.20
  -4   6  -8   11.72    0.58
  -4   6  -9    3.87    0.30
  -4   6 -10    0.49    0.11
   4  -5 -11   21.58    0.79
  -4   5  10    6.75    0.39
  -4   5   9    2.51    0.26
  -4   5   8    0.81    0.17
  -4   5   7   37.22    1.37
   4  -5  -6    5.20    0.36
  -4   5   6    4.89    0.41
   4  -5  -5    6.34    0.43
  -4   5   5    6.38    0.50
  -4   5   5    6.49    0.42
   4  -5  -4   26.83    1.07
  -4   5   4   26.20    1.19
  -4   5   4   24.88    1.03
   4  -5  -3   71.26    2.27
  -4   5   3   70.22    2.43
  -4   5   3   67.85    2.22
   4  -5  -2    0.15    0.12
  -4   5   2    0.07    0.15
  -4   5   2    0.11    0.10
   4  -5  -1    1.22    0.21
  -4   5   1    1.40    0.28
  -4   5   0   22.22    0.98
   4  -5   1   20.95    0.95
  -4   5  -1   19.98    0.92
   4  -5   2    5.98    0.45
  -4   5  -2    6.04    0.45
   4  -5   3    0.42    0.13
  -4   5  -3    0.41    0.17
  -4   5  -3    0.38    0.14
  -4   5  -3    0.38    0.21
   4  -5   4   48.17    1.70
  -4   5  -4   50.46    2.02
  -4   5  -4   49.40    1.68
  -4   5  -5   10.82    0.80
  -4   5  -5    9.97    0.55
  -4   5  -6    2.89    0.28
  -4   5  -6    2.81    0.41
  -4   5  -7    2.30    0.25
  -4   5  -7    1.90    0.36
  -4   5  -8   15.84    0.72
  -4   5  -9    0.34    0.11
  -4   5 -10    0.91    0.15
   4  -4 -11   30.42    1.03
  -4   4  11   26.21    0.94
  -4   4  10    0.13    0.08
  -4   4   9    1.12    0.19
  -4   4   8   21.60    0.97
   4  -4  -7   20.26    0.81
  -4   4   7   20.60    0.95
  -4   4   7   19.28    0.87
   4  -4  -6    4.02    0.33
  -4   4   6    4.61    0.38
  -4   4   6    3.94    0.31
   4  -4  -5    1.01    0.18
  -4   4   5    0.83    0.19
  -4   4   5    0.73    0.16
   4  -4  -4   71.98    2.27
  -4   4   4   69.77    2.37
  -4   4   4   69.94    2.24
   4  -4  -3   25.14    1.04
  -4   4   3   25.10    1.14
  -4   4   3   23.13    1.00
   4  -4  -2    7.46    0.51
  -4   4   2    7.45    0.57
   4  -4  -1    2.04    0.27
  -4   4   1    2.06    0.31
  -4   4   1    2.13    0.27
  -4   4   0   54.31    1.98
  -4   4   0   55.88    1.84
  -4   4  -1    0.78    0.22
   4  -4   1    0.87    0.18
  -4   4  -1    0.93    0.19
   4  -4   2    2.05    0.26
  -4   4  -2    1.73    0.24
  -4   4  -2    1.36    0.28
   4  -4   3   18.90    0.89
  -4   4  -3   17.15    1.03
   4  -4   4   35.58    1.34
  -4   4  -4   35.34    1.55
  -4   4  -4   36.99    1.34
  -4   4  -5    0.63    0.19
  -4   4  -5    0.44    0.13
  -4   4  -5    0.71    0.22
  -4   4  -6    2.12    0.25
  -4   4  -6    2.48    0.37
  -4   4  -7   19.98    1.08
  -4   4  -7   17.45    0.80
  -4   4  -8   14.86    0.70
  -4   4  -9    1.41    0.19
  -4   4 -10    0.10    0.08
   4  -3 -12   32.23    1.11
   4  -3 -12   32.52    1.14
  -4   3  11   10.77    0.51
  -4   3  10    9.82    0.54
  -4   3   9    2.16    0.21
  -4   3   9    2.48    0.29
  -4   3   8   40.75    1.38
  -4   3   8   40.85    1.52
   4  -3  -7    1.32    0.18
  -4   3   7    1.16    0.18
  -4   3   7    0.97    0.21
   4  -3  -6    1.35    0.19
  -4   3   6    1.13    0.19
  -4   3   6    1.14    0.19
   4  -3  -5   18.34    0.83
  -4   3   5   20.30    0.89
  -4   3   5   18.00    0.92
  -4   3   5   17.72    0.86
  -4   3   5   18.09    0.81
   4  -3  -4   71.87    2.25
  -4   3   4   69.08    2.35
  -4   3   4   67.27    2.28
  -4   3   4   68.49    2.21
  -4   3   3    0.15    0.11
  -4   3   3    0.14    0.11
  -4   3   3    0.27    0.15
  -4   3   3    0.15    0.19
  -4   3   2    6.11    0.49
  -4   3   2    5.78    0.47
  -4   3   2    5.27    0.58
  -4   3   2    5.42    0.75
  -4   3   2    5.41    0.64
  -4   3   1   54.23    2.47
  -4   3   1   61.27    2.12
  -4   3   1   59.73    2.07
  -4   3   1   62.29    2.03
  -4   3   1   59.39    2.42
  -4   3   1   61.76    2.93
  -4   3   1   62.21    2.58
  -4   3   0   30.72    1.72
  -4   3   0   34.55    1.41
  -4   3   0   32.43    1.30
  -4   3   0   35.48    1.33
  -4   3   0   35.26    1.70
  -4   3   0   34.23    2.08
  -4   3  -1    6.51    0.73
  -4   3  -1    6.49    0.53
  -4   3  -1    6.72    0.47
  -4   3  -1    6.89    0.68
  -4   3  -1    5.88    0.85
  -4   3  -2    1.60    0.28
  -4   3  -2    1.66    0.24
   4  -3   3   38.83    1.45
  -4   3  -3   37.99    1.69
  -4   3  -3   39.10    1.60
  -4   3  -3   41.07    1.46
   4  -3   4    6.72    0.46
  -4   3  -4    7.18    0.64
  -4   3  -4    7.74    0.60
  -4   3  -4    7.22    0.51
  -4   3  -5    3.04    0.41
  -4   3  -5    3.56    0.35
  -4   3  -5    3.71    0.32
  -4   3  -6    1.98    0.30
  -4   3  -6    1.62    0.22
  -4   3  -7   47.17    1.79
  -4   3  -7   40.68    1.49
  -4   3  -8    2.05    0.24
  -4   3  -9    1.70    0.21
  -4   3 -10    8.53    0.47
  -4   2  11    0.07    0.06
  -4   2  11    0.13    0.08
  -4   2  10    0.36    0.10
  -4   2  10    0.21    0.11
  -4   2   9   42.87    1.47
  -4   2   9   42.59    1.55
  -4   2   8   22.28    0.96
  -4   2   8   20.97    0.99
   4  -2  -7    0.94    0.16
  -4   2   7    1.31    0.23
  -4   2   7    1.35    0.24
   4  -2  -6    0.41    0.12
  -4   2   6    0.62    0.18
  -4   2   5   46.97    1.68
  -4   2   5   47.16    1.81
  -4   2   4   18.38    1.14
  -4   2   4   21.62    1.04
  -4   2   4   18.47    0.87
  -4   2   4   19.62    0.96
  -4   2   4   18.24    0.84
  -4   2   4   19.02    1.34
  -4   2   3   12.35    0.92
  -4   2   3   11.93    0.90
  -4   2   3   13.64    0.72
  -4   2   3   14.57    0.79
  -4   2   3   12.83    0.68
  -4   2   3   12.38    1.08
  -4   2   3   12.52    0.98
  -4   2   2    3.76    0.52
  -4   2   2    5.75    0.45
  -4   2   2    5.31    0.46
  -4   2   2    5.45    0.60
  -4   2   2    4.85    0.67
  -4   2   1   94.00    3.57
  -4   2   1  106.10    3.19
  -4   2   1   99.02    3.15
  -4   2   1  106.68    3.13
  -4   2   1  101.25    3.57
  -4   2   1   93.07    3.87
  -4   2   1  106.30    3.78
  -4   2   0    1.34    0.32
  -4   2   0    1.84    0.27
  -4   2   0    1.60    0.24
  -4   2   0    2.55    0.29
  -4   2   0    2.18    0.38
  -4   2   0    1.44    0.39
  -4   2  -1    2.66    0.43
  -4   2  -1    2.13    0.42
  -4   2  -1    2.95    0.33
  -4   2  -1    2.76    0.29
  -4   2  -1    2.36    0.44
  -4   2  -2   21.89    1.06
  -4   2  -2   20.79    1.02
  -4   2  -2   22.36    0.97
  -4   2  -3   27.14    1.32
  -4   2  -3   27.93    1.25
  -4   2  -3   26.88    1.21
   4  -2   4    0.03    0.08
  -4   2  -4    0.16    0.17
  -4   2  -4    0.04    0.12
  -4   2  -4    0.22    0.14
  -4   2  -5    3.50    0.45
  -4   2  -5    3.43    0.39
  -4   2  -5    3.45    0.39
  -4   2  -5    2.85    0.29
  -4   2  -6   27.37    1.33
  -4   2  -6   28.63    1.27
  -4   2  -6   30.26    1.29
  -4   2  -6   25.94    1.08
  -4   2  -7   23.62    1.12
  -4   2  -7   24.12    1.01
  -4   2  -8    1.58    0.25
  -4   2  -8    1.54    0.21
  -4   2  -9    0.24    0.11
  -4   2 -10   15.71    0.70
  -4   1  12    6.48    0.32
  -4   1  12    6.11    0.32
  -4   1  11    7.84    0.42
  -4   1  11    7.38    0.43
  -4   1  10    5.27    0.37
  -4   1  10    4.87    0.37
  -4   1   9   74.66    2.31
  -4   1   9   67.61    2.28
  -4   1   8    2.29    0.29
  -4   1   8    2.17    0.28
  -4   1   7    4.43    0.43
  -4   1   7    3.78    0.38
  -4   1   6   20.97    1.06
  -4   1   5   53.00    1.96
  -4   1   5   45.88    1.77
  -4   1   4    1.04    0.27
  -4   1   4    1.57    0.31
  -4   1   4    1.19    0.19
  -4   1   4    1.32    0.24
  -4   1   4    0.71    0.25
  -4   1   3    0.98    0.26
  -4   1   3    1.43    0.21
  -4   1   3    1.36    0.24
  -4   1   3    1.54    0.35
  -4   1   3    1.23    0.33
  -4   1   2   82.46    2.58
  -4   1   2   84.41    2.68
  -4   1   2   76.30    3.19
  -4   1   2   81.87    3.19
  -4   1   1   53.69    2.23
  -4   1   1   47.12    2.09
  -4   1   1   49.39    1.76
  -4   1   1   52.50    1.82
  -4   1   1   47.61    2.32
  -4   1   1   51.34    2.30
  -4   1   0    2.09    0.39
  -4   1   0    1.56    0.33
  -4   1   0    1.97    0.27
  -4   1   0    2.23    0.28
  -4   1  -1    0.59    0.23
  -4   1  -1    0.14    0.14
  -4   1  -1    0.52    0.19
  -4   1  -1    0.27    0.18
  -4   1  -1    0.37    0.14
  -4   1  -2   53.28    2.00
  -4   1  -2   50.57    1.87
  -4   1  -2   56.28    2.06
  -4   1  -3    7.19    0.60
  -4   1  -3    8.30    0.57
  -4   1  -3    7.97    0.64
  -4   1  -4    7.03    0.61
  -4   1  -4    7.47    0.55
  -4   1  -4    7.29    0.61
  -4   1  -5    9.13    0.71
  -4   1  -5    8.97    0.62
  -4   1  -5    9.29    0.70
  -4   1  -6   49.79    1.95
  -4   1  -6   53.22    1.98
  -4   1  -6   46.20    1.67
  -4   1  -7    1.54    0.29
  -4   1  -7    1.67    0.30
  -4   1  -7    1.59    0.22
  -4   1  -8    2.33    0.32
  -4   1  -8    1.60    0.23
  -4   1  -9   10.71    0.63
  -4   1  -9    7.85    0.49
  -4   1 -10   13.63    0.64
  -4   0  12    0.33    0.09
  -4   0  12    0.03    0.06
  -4   0  11    0.14    0.09
  -4   0  11    0.14    0.08
  -4   0  10   44.03    1.49
  -4   0  10   39.88    1.45
  -4   0   9   39.48    1.43
  -4   0   9   34.83    1.37
  -4   0   8    2.76    0.33
  -4   0   8    2.95    0.32
  -4   0   7    0.10    0.14
  -4   0   7    0.02    0.10
  -4   0   6   66.82    2.38
  -4   0   5    6.87    0.59
  -4   0   5    6.03    0.49
  -4   0   4    8.07    0.65
  -4   0   4    6.83    0.52
  -4   0   4    6.08    0.63
  -4   0   3    9.99    0.64
  -4   0   3    7.87    0.78
  -4   0   3    8.87    0.84
  -4   0   3   10.47    0.83
  -4   0   2   73.03    2.32
  -4   0   2   79.47    2.51
  -4   0   2   72.17    2.92
  -4   0   2   75.60    3.01
  -4   0   1    6.59    0.45
  -4   0   1    6.91    0.50
  -4   0   1    6.64    0.73
  -4   0   1    7.26    0.70
  -4   0   0   10.94    0.61
  -4   0   0   11.20    0.64
  -4   0   0   10.37    0.92
  -4   0   0   10.96    0.88
  -4   0  -1   25.62    1.08
  -4   0  -1   27.39    1.29
  -4   0  -1   23.95    1.39
  -4   0  -2   59.06    2.13
  -4   0  -2   57.76    1.99
  -4   0  -2   59.45    2.24
  -4   0  -3    2.00    0.31
  -4   0  -3    2.48    0.30
  -4   0  -3    2.17    0.36
  -4   0  -4    0.29    0.17
  -4   0  -4    0.34    0.19
  -4   0  -4    0.35    0.15
  -4   0  -5   32.63    1.44
  -4   0  -5   31.65    1.49
  -4   0  -6   14.06    0.84
  -4   0  -6   13.56    0.88
  -4   0  -7    1.41    0.26
  -4   0  -7    1.22    0.27
  -4   0  -8    0.11    0.14
  -4   0  -9   28.10    1.21
  -4   0 -10    6.18    0.41
  -4  -1  13    2.93    0.19
  -4  -1  12    1.76    0.18
   4   1 -12    1.55    0.18
  -4  -1  12    1.46    0.15
  -4  -1  11    3.50    0.29
  -4  -1  11    3.29    0.27
  -4  -1  10   62.07    1.97
  -4  -1  10   58.02    1.93
  -4  -1   9    2.87    0.31
  -4  -1   9    2.29    0.27
  -4  -1   8   11.05    0.67
  -4  -1   8   10.41    0.63
  -4  -1   7   37.79    1.47
  -4  -1   7   32.37    1.35
  -4  -1   6   53.94    2.00
  -4  -1   5    1.94    0.32
  -4  -1   5    1.76    0.27
  -4  -1   4    0.05    0.13
  -4  -1   4   -0.02    0.10
  -4  -1   3   47.52    1.73
  -4  -1   3   44.81    2.02
  -4  -1   2   30.88    1.28
  -4  -1   1    4.18    0.39
  -4  -1   1    4.13    0.53
  -4  -1   0    0.39    0.18
  -4  -1   0    0.11    0.09
  -4  -1  -1   86.47    2.74
  -4  -1  -1   85.92    2.87
  -4  -1  -2   11.39    0.63
  -4  -1  -2   11.85    0.74
  -4  -1  -2   12.20    0.83
  -4  -1  -3    6.82    0.48
  -4  -1  -3    8.22    0.61
  -4  -1  -3    7.45    0.64
  -4  -1  -4   16.44    0.91
  -4  -1  -4   15.79    0.97
  -4  -1  -5   35.59    1.48
  -4  -1  -5   34.10    1.55
  -4  -1  -6    0.12    0.13
  -4  -1  -6    0.43    0.19
  -4  -1  -7    2.14    0.29
  -4  -1  -7    2.90    0.37
  -4  -1  -8   10.06    0.66
  -4  -1  -8    8.89    0.57
  -4  -1  -9   30.42    1.19
  -4  -1  -9   26.93    1.10
  -4  -1 -10    0.04    0.07
  -4  -2  13    0.06    0.04
  -4  -2  12    0.09    0.07
  -4  -2  12    0.06    0.05
  -4  -2  11   21.27    0.84
  -4  -2  11   21.61    0.83
  -4  -2  10   21.18    0.88
  -4  -2  10   20.03    0.85
  -4  -2   9    6.93    0.47
  -4  -2   9    5.44    0.41
  -4  -2   8    0.83    0.20
  -4  -2   8    0.32    0.14
  -4  -2   7   70.71    2.35
  -4  -2   7   67.90    2.18
  -4  -2   6    9.34    0.63
  -4  -2   5    4.77    0.45
  -4  -2   5    4.21    0.40
  -4  -2   4    8.48    0.63
  -4  -2   4    8.67    0.58
  -4  -2   3   48.43    1.77
  -4  -2   2    0.86    0.19
  -4  -2   1   11.38    0.67
  -4  -2   1   10.22    0.62
  -4  -2  -1   77.70    2.73
  -4  -2  -2    0.33    0.16
  -4  -2  -2    0.15    0.16
  -4  -2  -3    0.18    0.14
  -4  -2  -3    0.42    0.20
  -4  -2  -3    0.30    0.12
  -4  -2  -4   33.22    1.36
  -4  -2  -4   31.17    1.43
  -4  -2  -4   32.78    1.18
  -4  -2  -5   10.69    0.67
  -4  -2  -5   10.48    0.73
  -4  -2  -5    9.68    0.63
  -4  -2  -6    3.12    0.34
  -4  -2  -6    2.73    0.33
  -4  -2  -7    0.15    0.13
  -4  -2  -7    0.21    0.12
  -4  -2  -8   30.67    1.22
  -4  -2  -8   28.29    1.15
  -4  -2  -9    4.59    0.35
  -4  -2  -9    4.66    0.34
  -4  -3  11   23.67    0.86
  -4  -3  10    0.19    0.09
  -4  -3   9    4.18    0.34
  -4  -3   8   28.95    1.15
  -4  -3   8   27.86    1.03
  -4  -3   7   60.61    2.07
  -4  -3   7   62.15    1.94
  -4  -3   6    0.27    0.10
  -4  -3   5    1.36    0.20
  -4  -3   5    1.57    0.24
  -4  -3   5    1.26    0.20
  -4  -3   4   38.30    1.42
  -4  -3   4   40.23    1.52
  -4  -3   4   41.33    1.46
  -4  -3   3   14.36    0.73
  -4  -3   3   15.27    0.79
  -4  -3   2   10.53    0.61
  -4  -3   2    9.72    0.60
  -4  -3   1    1.34    0.23
  -4  -3   1    1.39    0.22
  -4  -3   1    1.21    0.21
  -4  -3   0   58.39    2.04
  -4  -3   0   59.82    1.99
  -4  -3  -1    7.40    0.54
  -4  -3  -1    6.95    0.47
  -4  -3  -2    5.74    0.52
  -4  -3  -2    5.26    0.40
  -4  -3  -3    5.86    0.53
  -4  -3  -3    6.58    0.43
  -4  -3  -4   45.30    1.64
  -4  -3  -4   41.95    1.70
  -4  -3  -4   43.22    1.45
  -4  -3  -5    0.06    0.10
  -4  -3  -5   -0.06    0.12
  -4  -3  -5    0.03    0.11
  -4  -3  -6    3.64    0.33
  -4  -3  -6    3.57    0.37
  -4  -3  -6    3.12    0.33
  -4  -3  -7   15.97    0.79
  -4  -3  -7   16.10    0.77
  -4  -3  -8   15.84    0.72
  -4  -3  -8   16.05    0.70
  -4  -4  12   12.04    0.46
  -4  -4  11    5.43    0.31
  -4  -4  11    5.50    0.31
  -4  -4  10    2.59    0.23
  -4  -4  10    2.53    0.23
  -4  -4   9    0.82    0.15
  -4  -4   9    1.15    0.17
  -4  -4   8   42.89    1.45
  -4  -4   8   39.82    1.43
  -4  -4   8   39.09    1.31
  -4  -4   7   12.65    0.66
  -4  -4   7   11.41    0.64
  -4  -4   7   12.79    0.61
  -4  -4   7   11.67    0.56
  -4  -4   6    8.13    0.53
  -4  -4   6    7.84    0.46
  -4  -4   5    6.56    0.48
  -4  -4   5    6.64    0.44
  -4  -4   4   48.80    1.68
  -4  -4   4   54.76    1.83
  -4  -4   4   52.53    1.75
  -4  -4   3    0.28    0.11
  -4  -4   3    0.21    0.12
  -4  -4   2    1.56    0.22
  -4  -4   2    1.65    0.24
  -4  -4   2    1.87    0.24
  -4  -4   1   26.58    1.10
  -4  -4   1   27.86    1.11
  -4  -4   0   42.33    1.54
  -4  -4   0   42.00    1.50
  -4  -4  -1    0.08    0.09
  -4  -4  -1    0.03    0.08
  -4  -4  -2    3.05    0.32
  -4  -4  -2    3.08    0.35
  -4  -4  -2    2.91    0.28
  -4  -4  -3   33.81    1.41
  -4  -4  -3   36.98    1.26
  -4  -4  -4   18.82    0.73
  -4  -4  -5    4.68    0.37
  -4  -4  -6    1.30    0.19
  -4  -4  -7   22.27    0.84
  -4  -5  10    0.74    0.11
  -4  -5  10    0.77    0.12
  -4  -5   9   11.88    0.54
  -4  -5   9   11.72    0.56
  -4  -5   8   31.20    1.15
  -4  -5   7    1.35    0.20
  -4  -5   7    1.12    0.16
  -4  -5   6    2.87    0.27
  -4  -5   6    2.61    0.24
  -4  -5   5   46.67    1.62
  -4  -5   5   45.82    1.59
  -4  -5   5   45.60    1.54
  -4  -5   4   17.99    0.83
  -4  -5   4   18.25    0.84
  -4  -5   4   18.12    0.80
  -4  -5   3    5.72    0.42
  -4  -5   2    2.61    0.26
  -4  -5   2    2.84    0.29
  -4  -5   2    2.87    0.28
  -4  -5   1   28.54    1.10
  -4  -5   1   29.69    1.13
  -4  -5   0    0.76    0.16
  -4  -5   0    0.85    0.18
  -4  -5   0    1.03    0.17
  -4  -5  -1    5.68    0.40
  -4  -5  -1    5.56    0.41
  -4  -5  -1    5.76    0.38
  -4  -5  -2    3.76    0.32
  -4  -5  -2    3.60    0.31
  -4  -5  -2    3.58    0.28
  -4  -5  -3   42.86    1.47
  -4  -5  -3   41.46    1.50
  -4  -5  -3   42.38    1.36
  -4  -5  -4    0.37    0.13
  -4  -5  -5    2.03    0.23
  -4  -5  -6   13.97    0.60
  -4  -6  10    0.44    0.08
  -4  -6   9   15.34    0.62
  -4  -6   8    1.64    0.19
  -4  -6   7    6.06    0.38
  -4  -6   7    5.73    0.33
  -4  -6   6    6.25    0.37
  -4  -6   6    5.59    0.34
  -4  -6   5   46.68    1.55
  -4  -6   5   45.04    1.52
  -4  -6   5   44.88    1.47
  -4  -6   4    0.27    0.11
  -4  -6   4    0.45    0.13
  -4  -6   4    0.62    0.13
  -4  -6   3    2.17    0.24
  -4  -6   3    1.90    0.23
  -4  -6   2   15.23    0.73
  -4  -6   2   15.42    0.69
  -4  -6   1   20.67    0.83
  -4  -6   0    1.92    0.22
  -4  -6   0    2.04    0.21
  -4  -6  -1    1.60    0.18
  -4  -6  -1    1.52    0.19
  -4  -6  -1    1.73    0.18
  -4  -6  -2   29.67    1.00
  -4  -6  -3    9.63    0.41
  -4  -7   9    7.02    0.32
  -4  -7   8    1.98    0.18
  -4  -7   7    0.19    0.08
  -4  -7   6   22.49    0.80
  -4  -7   6   22.69    0.78
  -4  -7   5   14.76    0.65
  -4  -7   5   15.38    0.64
  -4  -7   5   15.88    0.62
  -4  -7   4    2.19    0.21
  -4  -7   4    2.11    0.21
  -4  -7   4    1.79    0.19
  -4  -7   3    0.30    0.10
  -4  -7   3    0.24    0.09
  -4  -7   2   28.33    1.04
  -4  -7   2   28.47    1.00
  -4  -7   1    0.23    0.09
  -4  -7   1    0.24    0.08
  -4  -7   0    4.54    0.30
  -4  -7   0    4.91    0.29
  -4  -7  -1    6.17    0.34
  -4  -7  -1    6.71    0.33
  -4  -7  -2   14.59    0.52
  -4  -8   6   15.86    0.59
  -4  -8   5    0.09    0.06
  -4  -8   5    0.04    0.04
  -4  -8   4    4.63    0.27
  -4  -8   3   11.23    0.48
  -4  -8   3   11.29    0.47
  -4  -8   2   16.36    0.61
  -4  -8   1    2.51    0.18
  -4  -8   0    0.04    0.04
  -5   7   1   22.19    0.76
  -5   7   0    5.44    0.30
  -5   6   2   10.09    0.45
  -5   6   1   17.39    0.67
  -5   6   0    0.62    0.12
  -5   6  -1    1.07    0.15
  -5   6  -2   15.22    0.63
   5  -5  -1    6.91    0.38
  -5   5   1    7.07    0.39
  -5   5   1    6.43    0.37
  -5   5   0    2.85    0.23
  -5   5   0    2.70    0.23
  -5   5  -1    3.45    0.27
  -5   5  -2   28.16    1.01
  -5   5  -3    0.08    0.07
  -5   4   6   23.03    0.79
   5  -4  -4    0.37    0.09
   5  -4  -3   12.75    0.56
   5  -4  -2   17.95    0.73
   5  -4  -1    1.89    0.20
  -5   4   1    1.59    0.21
  -5   4   0    0.64    0.14
   5  -4   1   29.50    1.05
  -5   4  -1   27.50    1.03
  -5   4  -2    9.48    0.46
  -5   4  -2   10.30    0.49
  -5   4  -3    1.23    0.16
  -5   3   7   23.48    0.80
  -5   3   6   11.72    0.50
   5  -3  -5    2.44    0.20
   5  -3  -4    0.48    0.11
   5  -3  -3   27.05    0.97
   5  -3  -2    1.49    0.18
   5  -3  -1    2.66    0.24
  -5   3   1    3.21    0.29
   5  -3   0    7.89    0.44
  -5   3   0    8.58    0.49
   5  -3   1   30.85    1.14
  -5   3  -1   35.85    1.23
  -5   3  -2    0.90    0.17
  -5   3  -3    2.09    0.20
  -5   2   7   31.48    1.02
  -5   2   6    0.44    0.10
   5  -2  -5    2.33    0.20
   5  -2  -4   21.78    0.81
   5  -2  -3   18.67    0.75
   5  -2  -2    2.08    0.21
  -5   2   2    2.05    0.23
  -5   2   1    0.24    0.11
   5  -2   0   26.64    1.00
  -5   2   0   27.50    1.04
   5  -2   1   11.42    0.56
  -5   2  -1   12.73    0.61
  -5   2  -2    2.04    0.23
  -5   2  -3    0.58    0.13
  -5   2  -3    0.40    0.08
  -5   1   7   11.79    0.50
   5  -1  -6    4.17    0.24
  -5   1   6    4.92    0.30
   5  -1  -5    0.76    0.12
  -5   1   5    0.68    0.11
   5  -1  -4   38.54    1.26
   5  -1  -3    1.37    0.18
   5  -1  -2    2.41    0.23
  -5   1   2    2.02    0.22
  -5   1   1   10.06    0.53
   5  -1   0   22.58    0.90
  -5   1   0   24.27    0.93
   5  -1   1    0.03    0.07
  -5   1  -1    0.03    0.09
  -5   1  -2    3.76    0.30
  -5   1  -2    3.64    0.24
  -5   1  -3   14.33    0.58
  -5   1  -3    9.76    0.42
  -5   1  -4   18.57    0.70
  -5   0   7    0.07    0.05
   5   0  -6    1.66    0.15
  -5   0   6    1.51    0.15
   5   0  -5   24.63    0.86
  -5   0   5   23.63    0.86
  -5   0   5   25.83    0.85
   5   0  -4   23.36    0.88
  -5   0   4   24.45    0.89
  -5   0   4   25.60    0.87
   5   0  -3    0.70    0.13
  -5   0   3    0.57    0.13
  -5   0   2    0.07    0.07
  -5   0   1   24.95    0.96
  -5   0   1   26.08    0.93
   5   0   0    6.52    0.40
  -5   0   0    6.20    0.39
  -5   0   0    6.80    0.37
   5   0   1    3.75    0.30
  -5   0  -1    3.98    0.30
  -5   0  -1    4.54    0.28
  -5   0  -2    2.65    0.23
  -5   0  -2    2.07    0.18
  -5   0  -3   32.43    1.09
  -5   0  -4    2.29    0.19
  -5  -1   7    2.14    0.17
  -5  -1   6    1.57    0.16
   5   1  -5   34.49    1.13
  -5  -1   5   36.88    1.13
  -5  -1   4    4.33    0.28
  -5  -1   4    4.69    0.28
  -5  -1   3    4.04    0.28
  -5  -1   2    9.71    0.48
  -5  -1   2   10.20    0.47
  -5  -1   1   29.23    1.01
  -5  -1   0    0.75    0.12
   5   1   1    0.77    0.14
  -5  -1  -1    1.23    0.16
  -5  -1  -1    0.93    0.12
  -5  -1  -2   15.69    0.60
  -5  -1  -2   12.69    0.50
  -5  -1  -3   13.58    0.55
  -5  -2   6   13.65    0.52
  -5  -2   5   17.91    0.65
  -5  -2   5   18.22    0.63
  -5  -2   4    1.26    0.14
  -5  -2   3    0.64    0.11
  -5  -2   2   26.24    0.92
  -5  -2   2   27.58    0.92
  -5  -2   1    4.34    0.29
  -5  -2   1    5.12    0.29
  -5  -2   0    3.53    0.25
  -5  -2   0    3.81    0.24
  -5  -2  -1    3.68    0.24
  -5  -2  -1    4.02    0.23
  -5  -2  -2   19.15    0.69
  -5  -2  -3    0.84    0.10
  -5  -3   5    1.51    0.12
  -5  -3   4    4.09    0.24
  -5  -3   4    4.16    0.23
  -5  -3   3    9.25    0.42
  -5  -3   2   32.89    1.07
  -5  -3   2   32.90    1.04
  -5  -3   1    0.03    0.05
  -5  -3   1    0.05    0.05
  -5  -3   0    0.31    0.07
  -5  -3   0    0.37    0.08
  -5  -3   0    0.38    0.07
  -5  -3  -1   12.73    0.48
  -5  -4   2    4.64    0.23
   0   0   0    0.00    0.00
;
_shelx_hkl_checksum              84278
loop_
_space_group_symop_operation_xyz
'x, y, z'
'-x, -y, -z'
loop_
_atom_site_label
_atom_site_type_symbol
_atom_site_fract_x
_atom_site_fract_y
_atom_site_fract_z
_atom_site_U_iso_or_equiv
_atom_site_adp_type
_atom_site_occupancy
_atom_site_site_symmetry_order
_atom_site_calc_flag
_atom_site_refinement_flags_posn
_atom_site_refinement_flags_adp
_atom_site_refinement_flags_occupancy
_atom_site_disorder_assembly
_atom_site_disorder_group
Pb1 Pb 0.500000 1.000000 1.000000 0.03910(13) Uani 1 2 d S . P . .
Pb2 Pb 0.86042(5) 0.86272(2) 0.73303(2) 0.03597(12) Uani 1 1 d . . . . .
C1 C 0.9178(16) 0.5837(5) 0.9511(5) 0.0473(15) Uani 1 1 d . . . . .
H1A H 0.863626 0.641012 0.917989 0.057 Uiso 1 1 calc R U . . .
C2 C 0.7764(16) 0.4738(6) 0.9202(5) 0.0433(13) Uani 1 1 d . . . . .
C3 C 0.8661(17) 0.3894(5) 0.9714(5) 0.0507(16) Uani 1 1 d . . . . .
H3 H 0.777780 0.314563 0.952439 0.061 Uiso 1 1 calc R U . . .
C4 C 0.5529(17) 0.4537(6) 0.8358(6) 0.0515(17) Uani 1 1 d . . . . .
H4 H 0.509090 0.516140 0.807634 0.062 Uiso 1 1 calc R U . . .
C5 C 0.4076(18) 0.3531(5) 0.7961(5) 0.0498(16) Uani 1 1 d . . . . .
H5 H 0.446100 0.291075 0.825426 0.060 Uiso 1 1 calc R U . . .
C6 C 0.1939(16) 0.3325(6) 0.7107(5) 0.0458(14) Uani 1 1 d . . . . .
C7 C 0.0825(17) 0.4174(5) 0.6605(5) 0.0495(15) Uani 1 1 d . . . . .
H7 H 0.145975 0.493723 0.682765 0.059 Uiso 1 1 calc R U . . .
C8 C -0.1131(18) 0.3868(6) 0.5814(6) 0.0559(17) Uani 1 1 d . . . . .
H8 H -0.184011 0.442655 0.549216 0.067 Uiso 1 1 calc R U . . .
C9 C -0.109(2) 0.1963(6) 0.5925(6) 0.064(2) Uani 1 1 d . . . . .
H9 H -0.175684 0.120659 0.568129 0.077 Uiso 1 1 calc R U . . .
C10 C 0.083(2) 0.2218(6) 0.6712(6) 0.0607(19) Uani 1 1 d . . . . .
H10 H 0.145414 0.163118 0.701373 0.073 Uiso 1 1 calc R U . . .
Cl1 Cl -0.0079(6) 1.08190(16) 0.89170(15) 0.0549(4) Uani 1 1 d . . . . .
Cl2 Cl 0.4029(5) 0.79959(15) 0.85719(14) 0.0528(4) Uani 1 1 d . . . . .
Cl3 Cl 0.3800(4) 0.94738(13) 0.62988(13) 0.0486(4) Uani 1 1 d . . . . .
Cl4 Cl 0.6959(4) 0.66626(13) 0.62128(14) 0.0560(4) Uani 1 1 d . . . . .
N1 N -0.2094(19) 0.2775(7) 0.5475(5) 0.0597(19) Uani 1 1 d . . . . .
H1 H -0.335809 0.259845 0.496651 0.072 Uiso 1 1 calc R U . . .
loop_
_atom_site_aniso_label
_atom_site_aniso_U_11
_atom_site_aniso_U_22
_atom_site_aniso_U_33
_atom_site_aniso_U_23
_atom_site_aniso_U_13
_atom_site_aniso_U_12
Pb1 0.0299(2) 0.0538(2) 0.0331(2) 0.00110(15) 0.00778(15) 0.00620(15)
Pb2 0.02884(17) 0.04063(17) 0.03800(18) 0.00290(11) 0.00791(11) 0.00269(11)
C1 0.048(3) 0.038(3) 0.064(4) 0.019(3) 0.017(3) 0.012(2)
C2 0.043(3) 0.047(3) 0.042(3) 0.009(3) 0.015(3) 0.006(3)
C3 0.057(4) 0.032(3) 0.066(5) 0.012(3) 0.016(3) 0.001(3)
C4 0.050(4) 0.043(3) 0.069(5) 0.019(3) 0.022(3) 0.012(3)
C5 0.060(4) 0.032(3) 0.063(4) 0.014(3) 0.020(3) 0.010(3)
C6 0.046(3) 0.052(3) 0.045(4) 0.012(3) 0.020(3) 0.009(3)
C7 0.052(4) 0.038(3) 0.059(4) 0.003(3) 0.012(3) 0.003(3)
C8 0.054(4) 0.052(4) 0.068(5) 0.025(3) 0.011(3) 0.011(3)
C9 0.095(6) 0.036(3) 0.060(5) 0.006(3) 0.022(4) -0.011(3)
C10 0.082(5) 0.043(3) 0.059(5) 0.016(3) 0.008(4) 0.003(3)
Cl1 0.0690(12) 0.0437(8) 0.0542(10) 0.0089(7) 0.0136(9) 0.0082(8)
Cl2 0.0526(9) 0.0530(9) 0.0598(11) 0.0237(8) 0.0163(8) 0.0097(7)
Cl3 0.0558(9) 0.0400(7) 0.0530(10) 0.0136(6) 0.0111(8) 0.0059(6)
Cl4 0.0604(10) 0.0407(7) 0.0652(11) 0.0000(7) 0.0049(8) 0.0101(7)
N1 0.064(5) 0.070(4) 0.039(3) 0.002(3) 0.002(3) -0.009(4)
loop_
_atom_type_symbol
_atom_type_description
_atom_type_scat_dispersion_real
_atom_type_scat_dispersion_imag
_atom_type_scat_source
C C 0.0181 0.0091 'International Tables Vol C Tables 4.2.6.8 and 6.1.1.4'
H H 0.0000 0.0000 'International Tables Vol C Tables 4.2.6.8 and 6.1.1.4'
N N 0.0311 0.0180 'International Tables Vol C Tables 4.2.6.8 and 6.1.1.4'
O O 0.0492 0.0322 'International Tables Vol C Tables 4.2.6.8 and 6.1.1.4'
Cl Cl 0.3639 0.7018 'International Tables Vol C Tables 4.2.6.8 and 6.1.1.4'
Pb Pb -4.0753 8.5060 'International Tables Vol C Tables 4.2.6.8 and 6.1.1.4'
loop_
_geom_angle_atom_site_label_1
_geom_angle_atom_site_label_2
_geom_angle_atom_site_label_3
_geom_angle
_geom_angle_site_symmetry_1
_geom_angle_site_symmetry_3
_geom_angle_publ_flag
Cl1 Pb1 Cl1 180.0 2_577 1_655 ?
Cl1 Pb1 Cl1 85.01(6) 2_577 . ?
Cl1 Pb1 Cl1 94.99(6) 1_655 . ?
Cl1 Pb1 Cl1 94.99(6) 2_577 2_677 ?
Cl1 Pb1 Cl1 85.01(6) 1_655 2_677 ?
Cl1 Pb1 Cl1 180.0 . 2_677 ?
Cl1 Pb1 Cl2 94.42(5) 2_577 . ?
Cl1 Pb1 Cl2 85.58(5) 1_655 . ?
Cl1 Pb1 Cl2 86.24(6) . . ?
Cl1 Pb1 Cl2 93.76(6) 2_677 . ?
Cl1 Pb1 Cl2 85.58(5) 2_577 2_677 ?
Cl1 Pb1 Cl2 94.42(5) 1_655 2_677 ?
Cl1 Pb1 Cl2 93.76(6) . 2_677 ?
Cl1 Pb1 Cl2 86.24(6) 2_677 2_677 ?
Cl2 Pb1 Cl2 180.00(7) . 2_677 ?
Cl4 Pb2 Cl3 87.17(6) . . ?
Cl4 Pb2 Cl2 90.16(6) . . ?
Cl3 Pb2 Cl2 88.00(5) . . ?
Cl4 Pb2 Cl3 97.06(6) . 1_655 ?
Cl3 Pb2 Cl3 96.19(5) . 1_655 ?
Cl2 Pb2 Cl3 171.81(6) . 1_655 ?
Cl4 Pb2 Cl2 99.65(6) . 1_655 ?
Cl3 Pb2 Cl2 173.15(5) . 1_655 ?
Cl2 Pb2 Cl2 92.63(5) . 1_655 ?
Cl3 Pb2 Cl2 82.39(5) 1_655 1_655 ?
C3 C1 C2 122.2(6) 2_767 . ?
C1 C2 C3 117.3(7) . . ?
C1 C2 C4 117.9(6) . . ?
C3 C2 C4 124.8(6) . . ?
C1 C3 C2 120.5(6) 2_767 . ?
C5 C4 C2 124.8(6) . . ?
C4 C5 C6 124.9(6) . . ?
C10 C6 C7 115.0(7) . . ?
C10 C6 C5 119.2(6) . . ?
C7 C6 C5 125.8(6) . . ?
C8 C7 C6 119.9(6) . . ?
C7 C8 N1 121.5(7) . . ?
C10 C9 N1 120.8(7) . . ?
C9 C10 C6 122.6(7) . . ?
Pb1 Cl1 Pb1 94.99(6) 1_455 . ?
Pb2 Cl2 Pb1 100.31(6) . . ?
Pb2 Cl2 Pb2 92.63(5) . 1_455 ?
Pb1 Cl2 Pb2 99.15(5) . 1_455 ?
Pb2 Cl3 Pb2 96.19(5) . 1_455 ?
C9 N1 C8 120.1(7) . . ?
loop_
_geom_bond_atom_site_label_1
_geom_bond_atom_site_label_2
_geom_bond_distance
_geom_bond_site_symmetry_2
_geom_bond_publ_flag
Pb1 Cl1 2.902(2) 2_577 ?
Pb1 Cl1 2.902(2) 1_655 ?
Pb1 Cl1 2.905(2) . ?
Pb1 Cl1 2.905(2) 2_677 ?
Pb1 Cl2 2.907(2) . ?
Pb1 Cl2 2.907(2) 2_677 ?
Pb2 Cl4 2.6521(17) . ?
Pb2 Cl3 2.7973(18) . ?
Pb2 Cl2 2.8826(18) . ?
Pb2 Cl3 2.9540(18) 1_655 ?
Pb2 Cl2 3.037(2) 1_655 ?
C1 C3 1.366(11) 2_767 ?
C1 C2 1.386(9) . ?
C2 C3 1.402(9) . ?
C2 C4 1.458(11) . ?
C4 C5 1.325(10) . ?
C5 C6 1.445(11) . ?
C6 C10 1.387(10) . ?
C6 C7 1.430(9) . ?
C7 C8 1.338(11) . ?
C8 N1 1.341(10) . ?
C9 C10 1.322(12) . ?
C9 N1 1.333(11) . ?
loop_
_geom_hbond_atom_site_label_D
_geom_hbond_atom_site_label_H
_geom_hbond_atom_site_label_A
_geom_hbond_distance_DH
_geom_hbond_distance_HA
_geom_hbond_distance_DA
_geom_hbond_angle_DHA
_geom_hbond_site_symmetry_A
N1 H1 Cl4 0.86 2.52 3.259(8) 145.2 2_566
N1 H1 Cl3 0.86 2.85 3.418(8) 125.2 2_566
C10 H10 Cl3 0.93 2.96 3.648(8) 131.9 1_545
C9 H9 Cl3 0.93 2.89 3.462(8) 120.9 2_566
C9 H9 Cl3 0.93 2.95 3.642(7) 132.1 1_445
C8 H8 Cl4 0.93 2.86 3.518(7) 129.2 1_455
