#------------------------------------------------------------------------------
#$Date: 2021-07-18 00:32:20 +0300 (Sun, 18 Jul 2021) $
#$Revision: 267624 $
#$URL: file:///home/coder/svn-repositories/cod/cif/4/51/89/4518903.cif $
#------------------------------------------------------------------------------
#
# This file is available in the Crystallography Open Database (COD),
# http://www.crystallography.net/
#
# All data on this site have been placed in the public domain by the
# contributors.
#
data_4518903
loop_
_publ_author_name
'Wu, Cunluo'
'Bian, Qilong'
'Ding, Tao'
'Tang, Mingming'
'Zhang, Wenkai'
'Xu, Yuanqing'
'Liu, Baoying'
'Xu, Hao'
'Li, Hai-Bei'
'Fu, Hua'
_publ_section_title
;
 Photoinduced Iron-Catalyzed ipso-Nitration of Aryl Halides via
 Single-Electron Transfer
;
_journal_name_full               'ACS Catalysis'
_journal_page_first              9561
_journal_page_last               9568
_journal_paper_doi               10.1021/acscatal.1c02272
_journal_year                    2021
_chemical_formula_moiety         'C8 H6 N2 O2'
_chemical_formula_sum            'C8 H6 N2 O2'
_chemical_formula_weight         162.15
_space_group_crystal_system      monoclinic
_space_group_IT_number           14
_space_group_name_Hall           '-P 2ybc'
_space_group_name_H-M_alt        'P 1 21/c 1'
_atom_sites_solution_hydrogens   geom
_atom_sites_solution_primary     dual
_audit_creation_date             2021-01-30
_audit_creation_method
;
Olex2 1.2
(compiled 2018.05.29 svn.r3508 for OlexSys, GUI svn.r5506)
;
_cell_angle_alpha                90
_cell_angle_beta                 99.991(8)
_cell_angle_gamma                90
_cell_formula_units_Z            4
_cell_length_a                   8.4501(15)
_cell_length_b                   5.9208(10)
_cell_length_c                   15.748(3)
_cell_measurement_reflns_used    4663
_cell_measurement_temperature    298.15
_cell_measurement_theta_max      68.23
_cell_measurement_theta_min      5.32
_cell_volume                     775.9(2)
_computing_cell_refinement       'SAINT V8.38A (?, 2016)'
_computing_data_reduction        'SAINT V8.38A (?, 2016)'
_computing_molecular_graphics    'Olex2 (Dolomanov et al., 2009)'
_computing_publication_material  'Olex2 (Dolomanov et al., 2009)'
_computing_structure_refinement  'ShelXL (Sheldrick, 2015)'
_computing_structure_solution    'ShelXT (Sheldrick, 2015)'
_diffrn_ambient_temperature      298.15
_diffrn_measured_fraction_theta_full 0.984
_diffrn_measured_fraction_theta_max 0.984
_diffrn_measurement_device_type  'Bruker APEX-II CCD'
_diffrn_measurement_method       '\f and \w scans'
_diffrn_radiation_type           CuK\a
_diffrn_radiation_wavelength     1.54178
_diffrn_reflns_av_R_equivalents  0.0282
_diffrn_reflns_av_unetI/netI     0.0249
_diffrn_reflns_Laue_measured_fraction_full 0.984
_diffrn_reflns_Laue_measured_fraction_max 0.984
_diffrn_reflns_limit_h_max       9
_diffrn_reflns_limit_h_min       -10
_diffrn_reflns_limit_k_max       7
_diffrn_reflns_limit_k_min       -6
_diffrn_reflns_limit_l_max       18
_diffrn_reflns_limit_l_min       -18
_diffrn_reflns_number            5543
_diffrn_reflns_point_group_measured_fraction_full 0.984
_diffrn_reflns_point_group_measured_fraction_max 0.984
_diffrn_reflns_theta_full        67.679
_diffrn_reflns_theta_max         68.221
_diffrn_reflns_theta_min         5.315
_diffrn_standards_number         0
_exptl_absorpt_coefficient_mu    0.865
_exptl_absorpt_correction_type   none
_exptl_crystal_colour            'clear light colourless'
_exptl_crystal_colour_lustre     clear
_exptl_crystal_colour_modifier   light
_exptl_crystal_colour_primary    colourless
_exptl_crystal_density_diffrn    1.388
_exptl_crystal_description       block
_exptl_crystal_F_000             336
_exptl_crystal_size_max          0.17
_exptl_crystal_size_mid          0.14
_exptl_crystal_size_min          0.12
_refine_diff_density_max         0.250
_refine_diff_density_min         -0.412
_refine_diff_density_rms         0.109
_refine_ls_extinction_method     none
_refine_ls_goodness_of_fit_ref   1.094
_refine_ls_hydrogen_treatment    constr
_refine_ls_matrix_type           full
_refine_ls_number_parameters     109
_refine_ls_number_reflns         1397
_refine_ls_number_restraints     0
_refine_ls_restrained_S_all      1.094
_refine_ls_R_factor_all          0.0598
_refine_ls_R_factor_gt           0.0579
_refine_ls_shift/su_max          0.000
_refine_ls_shift/su_mean         0.000
_refine_ls_structure_factor_coef Fsqd
_refine_ls_weighting_details
'w=1/[\s^2^(Fo^2^)+(0.0948P)^2^+0.1090P] where P=(Fo^2^+2Fc^2^)/3'
_refine_ls_weighting_scheme      calc
_refine_ls_wR_factor_gt          0.1499
_refine_ls_wR_factor_ref         0.1529
_reflns_Friedel_coverage         0.000
_reflns_number_gt                1305
_reflns_number_total             1397
_reflns_threshold_expression     'I > 2\s(I)'
_cod_data_source_file            cs1c02272_si_002.cif
_cod_data_source_block           1
_cod_database_code               4518903
_shelx_shelxl_version_number     2018/3
_shelx_space_group_comment
;
The symmetry employed for this shelxl refinement is uniquely defined
by the following loop, which should always be used as a source of
symmetry information in preference to the above space-group names.
They are only intended as comments.
;
_shelx_estimated_absorpt_t_max   0.903
_shelx_estimated_absorpt_t_min   0.867
_olex2_refinement_description
;
1. Fixed Uiso
 At 1.2 times of:
  All C(H) groups, All C(H,H) groups
2.a Secondary CH2 refined with riding coordinates:
 C2(H2A,H2B)
2.b Aromatic/amide H refined with riding coordinates:
 C4(H4), C5(H5), C7(H7), C8(H8)
;
_shelx_res_file
;
TITL 1_a.res in P2(1)/c
    1.res
    created by SHELXL-2018/3 at 17:48:23 on 30-Jan-2021
REM Old TITL 1 in P2(1)/c
REM SHELXT solution in P2(1)/c: R1 0.187, Rweak 0.007, Alpha 0.034
REM <I/s> 0.883 for 145 systematic absences, Orientation as input
REM Formula found by SHELXT: C9 N2 O
CELL 1.54178 8.4501 5.9208 15.7479 90 99.991 90
ZERR 4 0.0015 0.001 0.0027 0 0.008 0
LATT 1
SYMM -X,0.5+Y,0.5-Z
SFAC C H N O
UNIT 32 24 8 8

L.S. 4 0 0
PLAN  20
SIZE 0.17 0.14 0.12
TEMP 25
conf
BOND $h
BOND
list 4
fmap 2 53
acta
REM <olex2.extras>
REM <HklSrc "%.\\1.hkl">
REM </olex2.extras>

WGHT    0.094800    0.109000
FVAR       2.31936
C1    1    0.421635    0.172108    0.335232    11.00000    0.06310    0.07501 =
         0.04806   -0.00652    0.01614    0.00317
C2    1    0.309295    0.359882    0.326876    11.00000    0.08620    0.08869 =
         0.04640    0.00441    0.01842    0.02469
AFIX  23
H2A   2    0.209621    0.312475    0.291102    11.00000   -1.20000
H2B   2    0.352990    0.482496    0.297244    11.00000   -1.20000
AFIX   0
C3    1    0.272163    0.448075    0.411265    11.00000    0.05048    0.05581 =
         0.04220    0.00282    0.01003    0.00078
C4    1    0.310533    0.330441    0.488148    11.00000    0.06659    0.04899 =
         0.04815    0.00370    0.01076    0.01048
AFIX  43
H4    2    0.364906    0.193618    0.489247    11.00000   -1.20000
AFIX   0
C5    1    0.268958    0.414031    0.563224    11.00000    0.06712    0.05349 =
         0.03959    0.00709    0.00678    0.00733
AFIX  43
H5    2    0.294036    0.334511    0.614733    11.00000   -1.20000
AFIX   0
C6    1    0.189885    0.616909    0.560009    11.00000    0.04892    0.05101 =
         0.04101   -0.00282    0.00612   -0.00085
C7    1    0.152222    0.739836    0.484675    11.00000    0.06292    0.04915 =
         0.05252    0.00581    0.00991    0.01067
AFIX  43
H7    2    0.100188    0.878373    0.484127    11.00000   -1.20000
AFIX   0
C8    1    0.193327    0.652946    0.410506    11.00000    0.06506    0.05881 =
         0.04493    0.01310    0.01100    0.00773
AFIX  43
H8    2    0.167778    0.733004    0.359146    11.00000   -1.20000
AFIX   0
N1    3    0.142290    0.706594    0.638543    11.00000    0.06489    0.06805 =
         0.04433   -0.00584    0.00588    0.00761
N2    3    0.508628    0.025676    0.342134    11.00000    0.08594    0.09169 =
         0.07368   -0.00587    0.02162    0.02323
O1    4    0.078025    0.890707    0.636211    11.00000    0.10160    0.08014 =
         0.06725   -0.01212    0.01584    0.03313
O2    4    0.166624    0.592367    0.703283    11.00000    0.14066    0.09918 =
         0.04152    0.00479    0.02023    0.03237
HKLF 4




REM  1_a.res in P2(1)/c
REM wR2 = 0.1529, GooF = S = 1.094, Restrained GooF = 1.094 for all data
REM R1 = 0.0579 for 1305 Fo > 4sig(Fo) and 0.0598 for all 1397 data
REM 109 parameters refined using 0 restraints

END

WGHT      0.0948      0.1090

REM Highest difference peak  0.250,  deepest hole -0.412,  1-sigma level  0.109
Q1    1   0.3390  0.3094  0.2177  11.00000  0.05    0.25
Q2    1   0.0568  0.3577  0.2199  11.00000  0.05    0.25
Q3    1   0.5643 -0.1524  0.2857  11.00000  0.05    0.23
Q4    1   0.1644  0.6064  0.2545  11.00000  0.05    0.23
Q5    1   0.1442  0.7467  0.7635  11.00000  0.05    0.23
Q6    1   0.3328  0.6724  0.2993  11.00000  0.05    0.23
Q7    1   0.1394  0.9284  0.7436  11.00000  0.05    0.23
Q8    1   0.2194  0.3623  0.5164  11.00000  0.05    0.22
Q9    1   0.2875  0.6766  0.2860  11.00000  0.05    0.22
Q10   1   0.1900  0.7015  0.7754  11.00000  0.05    0.22
Q11   1   0.1872  0.2414  0.1971  11.00000  0.05    0.21
Q12   1   0.0372  0.7958  0.2668  11.00000  0.05    0.20
Q13   1   0.1924  0.3536  0.6684  11.00000  0.05    0.20
Q14   1   0.2576  0.4280  0.2516  11.00000  0.05    0.20
Q15   1   0.4128  0.1075  0.5722  11.00000  0.05    0.17
Q16   1   0.0774  0.6988  0.3372  11.00000  0.05    0.16
Q17   1   0.1541  0.9207  0.4361  11.00000  0.05    0.15
Q18   1   0.3375  0.1231  0.4407  11.00000  0.05    0.15
Q19   1   0.3859  0.3781  0.6370  11.00000  0.05    0.13
Q20   1   0.0894  0.9272  0.4243  11.00000  0.05    0.13
;
_shelx_res_checksum              94496
_shelx_hkl_file
;
   1   0   0 1581.64   54.19
  -1   0   0 1568.44   55.09
  -4   0   0   68.99    4.60
  -5   0   0  727.53   33.10
   5   0   0  823.62   29.60
  -6   0   0  524.65   19.10
   6   0   0  541.65   22.00
  -6   0   0  555.34   23.30
  -7   0   0  482.35   16.90
   7   0   0  447.46   20.00
  -7   0   0  483.75   21.80
  -9   0   0  167.98    6.40
 -10   0   0    8.30    0.70
   0  -1   0    0.30    0.20
  -1   1   0 2182.68   82.19
  -3  -1   0 2310.47   81.19
  -3  -1   0 2423.66   81.69
  -3   1   0 2449.05  105.69
  -3   1   0 2357.46   81.99
  -3   1   0 2159.58   89.69
  -4  -1   0 4963.50  175.18
  -4  -1   0 4911.51  175.38
  -4   1   0 5155.88  187.98
  -4   1   0 5147.08  185.38
   4   1   0 5257.37  174.98
   5  -1   0 1902.41   66.29
  -5  -1   0 1697.43   69.09
  -5  -1   0 1853.41   66.29
   5   1   0 1828.82   64.89
  -5   1   0 1844.62   63.19
  -5   1   0 1907.21   74.49
  -5   1   0 1861.71   67.29
   6  -1   0  350.76   15.80
  -6  -1   0  337.77   15.80
  -6  -1   0  322.77   12.30
  -6   1   0  361.86   16.90
   6   1   0  328.87   14.20
  -6   1   0  345.77   12.20
  -6   1   0  338.47   12.40
  -7  -1   0  159.08    9.90
  -7  -1   0  158.78    6.30
  -7  -1   0  157.78    5.90
   7  -1   0  151.98    9.30
  -7   1   0  165.38   10.60
  -7   1   0  160.08    6.30
  -7   1   0  165.88    6.10
  -8  -1   0    4.40    0.80
  -8   1   0    2.80    0.70
  -9  -1   0   26.30    1.80
  -9   1   0   27.50    1.60
   0  -2   0  332.87   12.00
   0   2   0  331.67   21.80
   1  -2   0 1962.20   67.99
  -1  -2   0 2002.40   68.59
  -1   2   0 1979.50   81.89
  -1   2   0 1922.51   68.39
  -2  -2   0  706.73   25.70
   2  -2   0  681.53   25.20
  -2   2   0  708.53   25.80
  -2   2   0  642.64   36.90
  -3  -2   0  149.59    7.70
   3  -2   0  149.09    7.40
  -3   2   0  155.58    8.00
  -3   2   0  163.98   16.30
   4  -2   0 2067.29   74.39
  -4  -2   0 2111.39   74.79
  -4   2   0 2051.99   90.99
  -4   2   0 2134.39   75.39
  -5  -2   0  601.54   21.20
   5  -2   0  620.54   24.90
  -5  -2   0  571.34   21.40
  -5  -2   0  620.04   25.00
  -5   2   0  615.24   21.60
  -5   2   0  610.64   25.80
  -5   2   0  636.34   38.90
  -5   2   0  617.84   21.40
  -6  -2   0  123.89    4.80
  -6  -2   0  125.09    5.00
  -6  -2   0  106.59    7.70
  -6   2   0  142.99   15.80
  -6   2   0  128.99    5.00
   7  -2   0  160.78   10.20
  -7  -2   0  150.98    6.10
  -7  -2   0  158.58    5.90
  -7   2   0  160.88    6.30
  -7   2   0  144.69   10.60
  -7   2   0  164.28    6.10
  -8  -2   0   57.49    2.60
  -8   2   0   56.09    2.70
  -8   2   0   56.39    2.50
  -9  -2   0   11.00    0.80
  -9   2   0   11.50    1.00
   0  -3   0    0.40    0.40
   0   3   0   -4.80    5.40
   0   3   0    0.00    0.50
   1  -3   0  288.37   11.50
  -1  -3   0  290.37   12.70
  -1   3   0  280.67   26.00
  -1   3   0  298.17   12.40
   2  -3   0 1100.29   39.70
  -2  -3   0 1117.49   40.90
  -2   3   0 1170.48   68.39
  -2   3   0 1031.20   40.40
  -3  -3   0 1282.47   47.50
   3  -3   0 1265.47   46.60
  -3   3   0 1373.46   44.40
  -3   3   0 1223.18   47.40
  -3   3   0 1236.48   67.79
  -4  -3   0  343.37   15.90
   4  -3   0  355.76   15.50
  -4  -3   0  346.37   12.60
  -4  -3   0  342.07   12.20
  -4   3   0  327.37   30.30
  -4   3   0  344.47   12.40
  -4   3   0  341.67   16.20
  -4   3   0  339.17   12.40
  -5  -3   0   19.90    3.20
  -5  -3   0   21.30    1.30
  -5  -3   0   17.50    1.20
   5  -3   0   14.40    2.70
  -5   3   0   22.30   10.70
  -5   3   0   12.50    2.70
  -5   3   0   16.00    1.20
  -5   3   0   17.70    1.30
  -6  -3   0  327.27   11.70
  -6  -3   0  317.57   11.80
   6  -3   0  334.67   16.20
  -6   3   0  338.47   17.40
  -6   3   0  349.37   12.10
  -6   3   0  328.27   12.00
  -6   3   0  280.27   28.70
  -7  -3   0   67.09    2.90
  -7  -3   0   66.99    2.90
  -7   3   0   70.39    3.10
  -7   3   0   70.39    3.20
  -8  -3   0  158.98    5.70
  -8   3   0  162.98    6.10
  -8   3   0  152.28    6.10
  -9   3   0   71.89    2.90
   0  -4   0 1933.01   67.99
   0  -4   0 1814.32   63.99
   0  -4   0 1841.62   63.99
   0   4   0 1933.51   66.39
   0   4   0 1789.42   63.69
  -1  -4   0  222.18    8.20
  -1  -4   0  220.58    8.50
  -1  -4   0  223.48   11.70
   1  -4   0  225.58    8.40
   1  -4   0  208.38    9.40
   1   4   0  229.78   10.10
  -1   4   0  244.98    8.70
  -1   4   0  224.98   10.70
  -2  -4   0  637.14   26.20
  -2  -4   0  599.64   22.00
  -2  -4   0  632.14   21.60
   2  -4   0  634.44   23.80
  -2   4   0  626.54   21.80
  -2   4   0  576.94   21.70
  -2   4   0  643.74   51.09
  -2   4   0  625.64   25.30
  -3  -4   0  160.58   10.00
   3  -4   0  161.78    8.50
  -3  -4   0  166.98    6.20
  -3  -4   0  170.28    6.60
  -3   4   0  158.58    6.30
  -3   4   0  134.19   23.50
  -3   4   0  165.58    6.30
  -3   4   0  157.18    9.40
  -4  -4   0   11.00    3.20
   4  -4   0   10.30    2.00
  -4  -4   0   10.00    1.00
  -4   4   0   -5.80    9.10
  -4   4   0   12.20    1.00
  -4   4   0   11.60    1.20
  -5  -4   0   50.09    2.40
   5  -4   0   52.79    5.10
  -5   4   0   26.90   13.90
  -5   4   0   42.80    5.40
  -5   4   0   49.50    2.60
  -5   4   0   53.39    2.50
  -6  -4   0   21.30    1.30
  -6   4   0   21.80    1.50
  -6   4   0   21.20    1.50
  -7  -4   0   56.29    2.50
  -7   4   0   52.49    2.50
  -7   4   0   51.19    2.50
  -8   4   0  130.09    4.90
  -8   4   0  137.39    5.00
   0  -5   0    1.00    0.40
   0  -5   0   -0.80    1.30
   0  -5   0   -0.10    0.40
   0   5   0   -0.20    0.30
  -1  -5   0    0.50    0.50
   1  -5   0   -0.70    1.40
   1  -5   0    0.20    0.50
   1  -5   0    0.50    0.40
  -1  -5   0    3.60    1.70
  -1  -5   0    0.30    0.40
   1   5   0    0.20    0.40
  -1   5   0   -0.40    0.40
  -2  -5   0   60.79    6.40
  -2  -5   0   59.79    3.10
  -2  -5   0   60.99    2.80
   2  -5   0   61.09    5.90
  -2   5   0   59.39    2.90
  -3  -5   0  246.98   17.80
  -3  -5   0  216.08    8.20
   3  -5   0  226.38   14.50
  -3   5   0  215.78    8.40
  -4  -5   0    0.30    0.50
  -4   5   0    0.20    0.40
  -5  -5   0  116.99    4.60
  -5   5   0  116.69    4.80
  -5   5   0  118.49    4.60
  -6  -5   0  104.29    4.00
  -6   5   0  101.79    4.20
  -7  -5   0    6.00    0.50
  -7   5   0    6.60    0.60
   0   6   0    7.20    0.90
  -1  -6   0  114.99    4.80
  -1   6   0  117.39    4.70
   1   6   0  122.79    4.60
  -2  -6   0   28.80    1.70
  -2   6   0   29.50    1.70
  -3  -6   0   42.00    2.10
  -3   6   0   43.60    2.10
  -4  -6   0    9.00    1.20
  -4   6   0    6.00    0.90
  -5  -6   0    0.40    0.30
  -5   6   0    0.60    0.30
 -10   0   1    0.00    0.20
  -9   0   1    0.20    0.40
  -8   0   1    0.30    0.40
  -7   0   1    0.50    0.40
  -7   0   1    0.60    1.20
   7   0  -1    0.40    1.10
  -7   0   1    0.20    0.40
   6   0  -1    0.50    0.80
  -6   0   1    0.30    0.40
  -6   0   1    0.00    0.40
  -6   0   1    0.10    0.30
  -6   0   1   -0.20    1.10
  -5   0   1   -0.30    0.80
  -4   0   1    1.00    0.80
  -4   0   1   -0.30    0.80
  -3   0   1   -0.20    0.80
  -3   0   1    1.10    0.90
  -2   0   1    0.00    0.30
  -2   0   1    0.00    0.60
  -2   0   1    0.50    0.50
  -1   0   1    1.00    0.50
   0   0  -1    1.60    0.20
  -1   0  -1    2.00    0.40
  -3   0  -1    2.10    1.60
  -3   0  -1    0.70    0.60
  -4   0  -1    1.00    1.70
  -4   0  -1    0.60    1.10
  -4   0  -1    0.10    0.50
   5   0   1   -0.50    0.50
  -5   0  -1    0.20    0.70
  -6   0  -1    0.00    0.40
   6   0   1   -1.00    0.70
  -6   0  -1    0.50    1.10
  -7   0  -1   -1.10    1.10
   7   0   1    1.40    1.30
  -7   0  -1   -0.40    0.40
  -8   0  -1    0.60    0.50
  -9   0  -1    0.00    0.40
 -10  -1   1   10.80    0.70
 -10   1   1   13.70    0.80
  -9  -1   1   18.20    1.30
  -9   1   1   19.10    1.30
  -8  -1   1    0.70    0.40
  -8  -1   1    1.30    0.40
  -8   1   1    1.00    0.80
  -8   1   1    0.90    0.40
  -7  -1   1  172.38   10.40
   7  -1  -1  180.28   10.40
  -7  -1   1  177.18    6.70
  -7  -1   1  185.08    7.00
  -7   1   1  181.68    6.90
  -7   1   1  191.48    7.50
  -7   1   1  179.88    7.00
  -7   1   1  184.28   11.50
   6  -1  -1  124.69    7.80
  -6  -1   1  127.69    8.20
  -6  -1   1  125.49    5.00
  -6  -1   1  124.89    4.80
  -6  -1   1  122.19    7.80
  -6   1   1  121.89    4.90
  -6   1   1  128.59    5.10
  -6   1   1  131.69    8.60
   6   1  -1  123.59    6.80
  -6   1   1  126.79    5.00
  -5  -1   1  155.18    8.20
  -5  -1   1  155.08    8.70
  -5   1   1  153.68    9.00
  -5   1   1  152.18   12.80
  -4  -1   1  880.71   33.10
  -4  -1   1  845.52   32.40
  -4   1   1  929.61   43.10
  -4   1   1  856.01   33.40
  -4   1   1  897.41   41.00
  -3  -1   1  131.59    6.30
  -3  -1   1  112.79    5.50
  -3   1   1  132.49   11.20
  -3   1   1   97.49    5.90
  -1  -1   1  330.47   16.60
  -1  -1   1  363.36   13.30
  -1  -1   1  368.46   12.60
  -1   1   1  371.96   13.30
   1   1  -1  368.96   12.70
   1   1  -1  341.57   12.50
  -1   1   1  348.97   18.70
   1  -1   1  267.87   10.10
  -1  -1  -1  273.67   10.00
  -1  -1  -1  265.67   13.90
   1  -1   1  268.67   16.50
   1   1   1  269.97    9.20
  -1   1  -1  272.97   10.20
   3  -1   1  122.39    6.00
  -3  -1  -1  120.89    5.90
  -3  -1  -1  112.69    5.80
  -3   1  -1  126.99    6.40
  -3   1  -1  120.49   11.20
  -3   1  -1  109.69   11.90
   3   1   1  120.69    5.10
  -4  -1  -1 3742.43  131.89
   4  -1   1 3830.62  131.99
  -4  -1  -1 3688.93  131.69
  -4   1  -1 3788.52  142.39
   4   1   1 3910.21  130.79
  -4   1  -1 3773.12  145.49
  -4   1  -1 3902.61  132.69
   5  -1   1  492.65   19.80
  -5  -1  -1  474.05   19.50
  -5  -1  -1  483.05   19.90
   5   1   1  462.65   18.30
  -5   1  -1  486.55   26.80
  -5   1  -1  487.35   20.60
  -5   1  -1  461.65   16.90
  -6  -1  -1   25.80    3.40
   6  -1   1   26.70    3.30
  -6  -1  -1   25.80    1.60
   6   1   1   23.20    2.50
  -6   1  -1   23.50    1.60
  -6   1  -1   24.00    3.40
  -6   1  -1   29.00    1.60
  -7  -1  -1  210.88    7.80
   7  -1   1  192.38   10.90
  -7   1  -1  204.98    7.50
  -7   1  -1  201.48    7.80
  -7   1  -1  198.28   12.10
  -8  -1  -1   84.99    3.70
  -8   1  -1   87.89    3.80
  -9  -1  -1   31.50    2.00
  -9   1  -1   27.10    1.60
  -9  -2   1   11.90    1.00
  -9   2   1   10.70    1.20
  -8  -2   1    7.20    0.70
  -8  -2   1    7.10    0.80
  -8   2   1    7.00    0.80
  -8   2   1    7.30    0.90
  -7  -2   1   -0.40    0.40
   7  -2  -1   -0.20    1.50
  -7  -2   1    1.30    0.50
  -7   2   1    0.50    0.40
  -7   2   1   -0.40    1.60
  -7   2   1    0.50    0.50
  -6  -2   1    5.00    0.70
  -6  -2   1    4.90    0.70
  -6  -2   1    6.00    2.40
   6  -2  -1    7.30    2.30
  -6   2   1    6.60    0.90
  -6   2   1   -3.10    4.70
  -6   2   1    5.40    0.80
  -6   2   1    4.70    1.80
  -6   2   1    4.60    0.80
  -5  -2   1  726.73   25.60
   5  -2  -1  741.13   29.30
  -5  -2   1  757.52   29.80
  -5   2   1  770.02   43.90
  -5   2   1  757.42   30.50
  -5   2   1  694.13   26.00
  -5   2   1  745.13   25.80
  -4  -2   1 5609.34  196.98
   4   2  -1 5485.15  193.58
  -4   2   1 5892.41  197.68
  -4   2   1 5792.42  214.98
  -3  -2   1  585.04   22.90
  -3   2   1  594.94   35.00
   3   2  -1  567.14   20.00
  -3   2   1  588.84   23.10
  -2   2   1 9907.41  353.86
  -1  -2   1  955.70   37.30
  -1   2   1 1061.79   49.20
  -1   2   1 1060.89   36.70
   0  -2   1  144.79    5.60
   0  -2  -1  141.79    5.50
   0   2   1  128.39   12.30
   0   2  -1  139.79    5.70
  -1  -2  -1    8.70    1.10
   1  -2   1    6.80    1.00
  -1   2  -1    9.90    1.20
  -1   2  -1    8.30    4.20
  -2  -2  -1  183.48    8.20
   2  -2   1  182.78    8.00
  -2   2  -1  171.78    8.20
  -2   2  -1  192.38   17.30
  -3  -2  -1   33.40    2.90
   3  -2   1   32.80    2.90
  -3   2  -1   31.90    8.80
  -3   2  -1   41.90    2.20
  -3   2  -1   30.10    3.00
  -4  -2  -1 6510.75  229.98
  -4   2  -1 6682.03  248.98
  -4   2  -1 6866.01  231.08
   5  -2   1  897.81   33.30
  -5  -2  -1  804.52   29.40
  -5  -2  -1  827.42   32.70
  -5   2  -1  863.51   48.50
  -5   2  -1  867.71   34.10
  -5   2  -1  870.71   29.70
  -5   2  -1  845.22   29.60
   6  -2   1 1761.42   64.99
  -6  -2  -1 1726.13   60.29
  -6  -2  -1 1755.62   60.89
  -6   2  -1 1754.52   60.69
  -6   2  -1 1822.42   66.49
  -6   2  -1 1775.82   60.59
  -7  -2  -1  225.58    8.50
   7  -2   1  232.08   13.40
  -7  -2  -1  217.48    8.10
  -7   2  -1  238.38   14.40
  -7   2  -1  220.08    8.40
  -7   2  -1  223.78    8.50
  -8  -2  -1    0.10    0.40
  -8   2  -1    0.40    0.30
  -8   2  -1    0.00    0.40
  -9  -2  -1   14.90    0.90
  -9   2  -1   16.00    1.10
  -9   3   1   12.70    0.90
  -8  -3   1    0.80    0.40
  -8   3   1    0.80    0.40
  -8   3   1    0.90    0.60
  -7  -3   1   52.39    2.40
  -7   3   1   53.39    2.60
  -7   3   1   53.99    2.70
  -6  -3   1  263.47   15.00
  -6  -3   1  300.77   10.80
   6  -3  -1  316.37   15.40
  -6   3   1  311.17   11.10
  -6   3   1  306.27   16.30
  -6   3   1  309.57   30.10
  -6   3   1  298.27   11.10
  -5  -3   1   22.40    3.60
   5  -3  -1   22.40    3.30
  -5  -3   1   22.50    1.40
  -5   3   1   23.60    1.50
  -5   3   1   21.70    1.50
  -5   3   1   10.10    7.70
   4  -3  -1  542.05   22.30
  -4  -3   1  533.35   19.30
  -4  -3   1  530.55   18.90
  -4  -3   1  549.05   23.30
  -4   3   1  559.34   41.40
  -4   3   1  560.44   23.50
  -4   3   1  535.95   19.20
  -4   3   1  539.15   19.10
  -3  -3   1  274.37   13.20
   3  -3  -1  277.27   12.20
  -3   3   1  258.47   25.20
  -3   3   1  271.17   13.10
   2  -3  -1 1858.71   64.39
  -2  -3   1 1796.02   65.69
  -2   3   1 1807.32   65.49
  -2   3   1 1844.12   87.79
  -1  -3   1   94.09    5.80
   1  -3  -1   94.69    4.70
  -1   3   1   96.19    5.50
   1   3  -1   98.29    4.60
  -1   3   1   87.09   15.10
   0  -3   1 3038.90  104.99
   0  -3  -1 3055.19  104.49
   0  -3   1 3155.88  106.89
   0   3  -1 3065.79  128.39
   0   3   1 3034.30  128.09
   0   3  -1 2988.90  105.39
  -1  -3  -1   28.00    2.70
   1  -3   1   25.10    2.10
  -1   3  -1   27.40    2.40
  -1   3  -1   19.70    7.50
  -2  -3  -1 1086.69   39.30
   2  -3   1 1061.79   38.20
  -2   3  -1 1021.80   38.70
  -2   3  -1 1046.50   64.49
   3  -3   1 1204.78   44.50
  -3  -3  -1 1156.48   41.60
  -3  -3  -1 1231.68   44.70
  -3   3  -1 1188.28   44.70
  -3   3  -1 1147.09   41.40
  -3   3  -1 1312.37   67.59
  -4  -3  -1  420.56   15.70
   4  -3   1  466.75   19.00
  -4  -3  -1  450.85   15.60
  -4  -3  -1  423.16   22.70
  -4   3  -1  431.06   19.50
  -4   3  -1  445.46   15.80
  -4   3  -1  448.26   15.80
  -4   3  -1  477.75   37.50
  -5  -3  -1    3.80    2.00
  -5  -3  -1    4.90    0.80
  -5   3  -1    8.20    1.20
  -5   3  -1    2.70    1.50
  -5   3  -1   -1.60    5.80
  -5   3  -1    5.70    0.80
   6  -3   1  683.73   28.40
  -6  -3  -1  701.53   23.70
  -6  -3  -1  663.03   23.90
  -6   3  -1  549.85   43.30
  -6   3  -1  718.53   24.10
  -6   3  -1  704.43   29.80
  -6   3  -1  717.03   24.00
  -7  -3  -1   11.30    1.00
  -7  -3  -1   12.40    0.90
  -7   3  -1   10.80    1.10
  -7   3  -1   10.20    1.00
  -8  -3  -1   50.79    2.10
  -8   3  -1   50.99    2.40
  -8   3  -1   50.69    2.20
  -8  -4   1    1.30    0.30
  -8   4   1    1.20    0.40
  -8   4   1    1.10    0.40
  -7  -4   1   43.90    2.00
  -7   4   1   42.60    2.20
  -7   4   1   42.40    2.20
  -6  -4   1   80.59    3.40
  -6   4   1   78.09    3.60
  -6   4   1   81.49    3.60
   5  -4  -1  372.06   17.40
  -5  -4   1  382.66   13.40
  -5  -4   1  318.67   18.00
  -5   4   1  389.36   13.70
  -5   4   1  400.76   40.10
  -5   4   1  384.66   13.60
  -5   4   1  381.46   18.90
  -4  -4   1   85.49    3.60
  -4  -4   1   84.49    9.20
  -4  -4   1   89.29    4.00
   4  -4  -1   91.49    6.20
  -4   4   1   88.69    3.90
  -4   4   1   90.89   25.00
  -4   4   1   80.59    7.60
  -4   4   1   88.29    3.80
  -3  -4   1   16.60    1.20
   3  -4  -1   20.40    2.70
  -3  -4   1   19.10    3.60
  -3   4   1   19.30   12.30
  -3   4   1   18.70    1.30
  -3   4   1   16.40    2.80
  -3   4   1   17.90    1.30
  -2  -4   1   53.69    2.70
  -2  -4   1   55.69    5.20
  -2  -4   1   52.29    2.40
   2  -4  -1   54.19    5.40
   2   4  -1   50.99    2.30
  -2   4   1   50.59    2.40
  -2   4   1   47.30   18.40
  -2   4   1   50.99    2.50
  -2   4   1   48.60    4.60
  -1  -4   1  472.05   16.20
  -1  -4   1  466.95   16.50
  -1  -4   1  481.95   20.40
   1  -4  -1  453.55   16.20
   1   4  -1  463.15   16.20
  -1   4   1  418.86   16.60
  -1   4   1  455.15   19.30
   0  -4   1    7.40    1.90
   0  -4   1    9.20    0.90
   0  -4  -1    9.00    0.90
   0  -4  -1    6.50    1.60
   0  -4  -1    8.90    0.90
   0  -4   1   11.00    1.30
   0   4  -1    8.00    0.90
   0   4   1    6.10    1.50
   0   4   1   11.50    1.20
   1  -4   1  814.02   30.00
  -1  -4  -1  822.52   28.30
   1  -4   1  814.32   28.50
   1  -4   1  778.82   32.10
  -1  -4  -1  825.62   28.60
  -1  -4  -1  830.82   32.30
  -1   4  -1  811.42   28.40
   1   4   1  819.62   30.90
  -1   4  -1  831.32   30.70
  -2  -4  -1  295.17   10.80
   2  -4   1  280.57   12.60
  -2  -4  -1  287.37   10.40
  -2  -4  -1  291.67   14.30
  -2   4  -1  320.97   37.90
  -2   4  -1  289.27   10.60
  -2   4  -1  288.17   13.20
  -3  -4  -1    1.80    1.60
  -3  -4  -1    2.40    0.70
  -3   4  -1    6.00    1.80
  -4  -4  -1   81.69    3.40
  -4  -4  -1   73.89    6.60
   4  -4   1   83.19    5.90
  -4   4  -1   82.09    3.70
  -4   4  -1   83.39    3.50
  -4   4  -1   83.19    6.90
  -5  -4  -1   47.60    2.20
  -5   4  -1   36.10   14.60
  -5   4  -1   46.90    2.50
  -5   4  -1   47.70    2.30
  -6  -4  -1   13.30    1.00
  -6   4  -1   13.50    1.10
  -6   4  -1   13.40    1.20
  -7  -4  -1   65.29    2.60
  -7   4  -1   64.69    3.00
  -7   4  -1   63.59    2.80
  -8   4  -1   34.00    1.50
  -7  -5   1    0.50    0.30
  -7   5   1    0.60    0.30
  -6  -5   1   16.90    1.10
  -6   5   1   15.80    1.20
  -5  -5   1   66.99    2.80
  -5   5   1   61.49    3.00
  -5   5   1   64.29    2.80
  -4  -5   1   29.50    2.00
  -4   5   1   36.90    2.30
  -3  -5   1  249.08    9.60
  -3  -5   1  247.38    9.20
  -3   5   1  252.07    9.40
  -2  -5   1   34.70    1.90
  -2  -5   1   42.20    5.40
  -2  -5   1   33.00    2.10
   2  -5  -1   30.50    4.20
  -2   5   1   36.20    2.00
   2   5  -1   33.10    1.80
   1  -5  -1   96.19    7.50
  -1  -5   1  101.59    4.20
  -1  -5   1   97.39    8.10
  -1  -5   1  104.49    4.50
   1   5  -1  101.99    4.20
  -1   5   1  101.29    4.20
   0  -5   1    3.20    0.70
   0  -5  -1    2.20    0.60
   0  -5   1    2.60    0.60
   0  -5  -1    5.70    1.80
   0  -5   1    4.90    1.80
   0   5   1    3.20    0.60
   1  -5   1  134.39    5.40
   1  -5   1  134.79    9.30
  -1  -5  -1  135.19    5.40
  -1  -5  -1  137.49    9.50
   1  -5   1  138.19    5.50
  -1   5  -1  135.79    5.40
   1   5   1  133.79    5.20
   2  -5   1   28.10    4.10
  -2  -5  -1   31.50    5.50
  -2   5  -1   28.90    1.80
  -3  -5  -1  133.59    5.10
   3  -5   1  124.79    9.10
  -3   5  -1  125.79    5.30
  -4  -5  -1  209.28    7.80
  -4   5  -1  208.48    8.00
  -5  -5  -1   52.29    2.40
  -5   5  -1   51.49    2.60
  -6  -5  -1    8.70    0.70
  -6   5  -1    8.00    1.00
  -7   5  -1   10.80    0.80
  -5  -6   1    0.50    0.30
  -5   6   1    0.60    0.40
  -4  -6   1   42.00    2.00
  -3  -6   1   68.99    3.00
  -3   6   1   69.89    3.00
  -2  -6   1   11.10    1.10
  -2   6   1   10.20    1.00
  -1  -6   1  133.89    5.30
  -1   6   1  134.09    5.20
   1   6  -1  131.59    5.10
   0   6  -1    6.00    0.80
   0   6   1    7.20    0.80
  -1  -6  -1    4.40    0.80
  -1   6  -1    3.80    0.70
  -2  -6  -1    1.70    0.60
  -2   6  -1    0.80    0.50
  -3  -6  -1   93.79    3.80
  -3   6  -1   93.79    3.90
  -4  -6  -1    6.40    0.80
  -4   6  -1    7.60    0.90
  -5  -6  -1   16.10    0.90
  -5   6  -1   15.50    1.00
  -1   7  -1    4.40    0.40
 -10   0   2    3.30    0.50
  -9   0   2    7.70    0.90
  -8   0   2  104.19    4.70
  -8   0   2  111.19    4.50
  -7   0   2   43.70    4.80
  -7   0   2   42.60    2.20
   7   0  -2   45.30    4.40
  -7   0   2   44.00    2.10
  -6   0   2   22.70    1.30
  -6   0   2   22.20    1.40
  -6   0   2   25.90    3.50
  -5   0   2  262.87   12.70
  -5   0   2  273.97   12.80
  -4   0   2  378.56   15.30
  -4   0   2  343.37   15.00
  -3   0   2 5292.37  184.48
  -2   0   2 1991.70   75.79
  -2   0   2 2035.40   69.89
  -1   0   2 2210.28   80.09
   0   0   2 2681.43   96.49
  -1   0  -2  472.25   16.30
   1   0   2  422.46   15.90
   1   0   2  454.95   15.80
  -3   0  -2  879.21   33.30
   3   0   2  939.91   32.70
  -3   0  -2  919.21   38.70
  -4   0  -2  107.59    4.70
  -4   0  -2  112.79    8.70
   4   0   2  110.39    5.70
  -4   0  -2  108.59    6.30
   5   0   2   90.09    5.40
  -5   0  -2   94.39    6.20
  -5   0  -2   87.49    3.80
  -5   0  -2   92.99    4.30
   6   0   2   61.79    4.60
   7   0   2   34.00    3.90
  -7   0  -2   35.60    4.50
  -7   0  -2   38.60    2.10
  -8   0  -2    0.20    0.40
  -9   0  -2  117.09    4.60
 -10   1   2    0.00    0.30
  -9  -1   2    1.60    0.70
  -9   1   2    1.80    0.50
  -8  -1   2   42.00    2.30
  -8  -1   2   42.30    1.90
  -8   1   2   39.20    1.90
  -8   1   2   43.00    2.00
   7  -1  -2   42.20    4.40
  -7  -1   2   38.10    4.40
  -7  -1   2   43.00    2.20
  -7  -1   2   43.10    2.00
  -7   1   2   37.80    4.90
  -7   1   2   42.80    2.10
  -7   1   2   38.10    2.00
  -7   1   2   41.60    2.20
  -6  -1   2  141.79    8.40
  -6  -1   2  145.49    5.70
  -6  -1   2  144.29    9.10
  -6  -1   2  148.09    5.60
   6   1  -2  151.18    7.80
  -6   1   2  148.19    5.80
  -6   1   2  141.29    5.60
  -6   1   2  146.09    9.40
  -6   1   2  148.79    5.70
  -5  -1   2   16.60    2.30
  -5  -1   2   16.00    2.60
  -5   1   2   16.10    4.70
  -5   1   2   18.10    2.70
  -4  -1   2  206.08    9.20
  -4  -1   2  207.88    9.90
  -4   1   2  191.88    9.90
  -4   1   2  199.08   16.40
  -4   1   2  203.58   15.50
  -3  -1   2  969.30   34.30
  -3  -1   2  982.20   35.30
  -3   1   2  899.11   45.00
  -3   1   2  952.80   43.20
  -3   1   2  991.70   35.40
  -2  -1   2  304.57   11.60
  -2  -1   2  321.47   15.00
  -2  -1   2  313.67   12.60
  -2   1   2  316.87   18.70
  -2   1   2  314.27   12.50
  -1  -1   2   79.29    6.70
  -1  -1   2   77.89    3.30
  -1  -1   2   75.09    3.80
   1   1  -2   76.79    2.90
  -1   1   2   81.89    8.00
   0   1   2 8232.98  287.87
  -1  -1  -2  335.47   13.60
  -1  -1  -2  363.16   13.00
   1  -1   2  401.46   21.70
   1  -1   2  372.46   13.70
  -1   1  -2  378.96   13.70
   1   1   2  382.06   13.10
  -2  -1  -2 2590.84   95.29
  -2  -1  -2 2678.03   89.99
  -2   1  -2 2677.03   90.69
   2   1   2 2530.55   89.39
  -3  -1  -2   37.30    3.90
  -3  -1  -2   35.70    2.50
   3  -1   2   38.10    2.90
  -3  -1  -2   38.00    2.90
   3   1   2   37.50    2.20
  -3   1  -2   37.30    3.00
  -3   1  -2   38.80    8.90
  -4  -1  -2 3875.41  136.39
   4  -1   2 3867.91  136.19
   4   1   2 3889.31  134.89
  -4   1  -2 3958.70  148.49
  -4   1  -2 4071.69  151.58
  -5  -1  -2  500.25   20.40
  -5  -1  -2  476.15   17.10
   5  -1   2  484.65   19.80
   5   1   2  472.85   18.50
  -5   1  -2  476.95   17.10
  -5   1  -2  488.55   20.80
  -5   1  -2  436.86   36.30
  -5   1  -2  502.75   28.50
   6  -1   2   56.09    4.60
  -6  -1  -2   57.09    2.80
   6   1   2   56.49    4.10
  -6   1  -2   55.09    2.70
  -6   1  -2   55.79    2.60
  -6   1  -2   59.89    5.50
  -7  -1  -2  210.08    8.00
   7  -1   2  200.78   11.10
  -7   1  -2  220.08   12.70
  -7   1  -2  198.48    7.90
  -8  -1  -2    0.90    0.50
  -8   1  -2   -0.10    0.40
  -9  -1  -2    7.70    0.80
  -9   1  -2   10.10    1.30
  -9   2   2   30.80    1.80
  -8  -2   2   22.00    1.30
  -8  -2   2   20.60    1.20
  -8   2   2   20.40    1.30
  -8   2   2   19.80    1.50
  -7  -2   2   17.50    3.40
  -7  -2   2   16.60    1.20
  -7  -2   2   16.50    1.20
   7  -2  -2   18.50    3.30
  -7   2   2   17.70    1.40
  -7   2   2   17.10    1.30
  -7   2   2   15.00    3.50
  -7   2   2   15.50    1.10
  -6  -2   2  265.07    9.80
   6  -2  -2  264.97   13.90
  -6  -2   2  268.67    9.70
  -6  -2   2  268.57   14.00
  -6   2   2  267.57    9.90
  -6   2   2  270.07   10.00
  -6   2   2  277.07   14.90
  -6   2   2  253.07   22.30
  -5  -2   2  119.19    7.80
  -5   2   2  110.49    4.60
  -5   2   2  119.89   15.80
  -5   2   2  119.89    8.20
  -5   2   2  114.59    4.60
  -4  -2   2   18.80    2.90
  -4   2   2   15.30    6.10
  -4   2   2   16.30    2.70
  -3  -2   2 1742.83   63.49
  -3   2   2 1802.72   63.79
  -3   2   2 1772.32   78.49
  -2  -2   2   79.59    4.90
  -2   2   2   92.09   11.90
  -2   2   2   78.49    4.80
  -1  -2   2    2.60    0.80
  -1  -2   2    2.20    0.50
   1   2  -2    2.10    0.30
  -1   2   2    1.30    3.40
   0  -2   2 1907.11   65.79
   0   2  -2 1906.11   65.39
  -1  -2  -2  345.87   13.30
  -1   2  -2  348.17   13.20
  -2  -2  -2    4.30    1.00
  -2   2  -2    2.30    0.80
   3  -2   2  273.57   11.50
  -3  -2  -2  263.47   11.20
  -3   2  -2  260.67   22.40
  -3   2  -2  258.37   10.70
  -3   2  -2  260.57   11.70
   4  -2   2  815.72   30.60
  -4  -2  -2  791.42   30.00
  -4   2  -2  783.02   28.40
  -4   2  -2  802.92   31.20
  -4   2  -2  809.22   46.10
  -5  -2  -2   10.70    1.00
   5  -2   2   10.80    2.30
  -5  -2  -2   13.00    1.00
  -5   2  -2   13.70    1.10
  -5   2  -2   11.50    1.00
  -5   2  -2    3.30    5.00
   6  -2   2  479.85   21.10
  -6  -2  -2  471.55   16.90
  -6  -2  -2  495.55   17.40
  -6   2  -2  518.75   18.40
  -6   2  -2  487.65   17.30
  -6   2  -2  432.46   30.90
  -6   2  -2  496.45   22.30
  -7  -2  -2    3.80    0.70
   7  -2   2   10.00    2.20
  -7   2  -2    6.80    1.00
  -7   2  -2    5.00    2.10
  -7   2  -2    5.90    0.80
  -8  -2  -2   25.40    1.50
  -8   2  -2   25.40    1.60
  -9  -2  -2   24.60    1.20
  -9   2  -2   24.70    1.40
  -9   3   2   22.50    1.10
  -9   3   2   25.20    1.40
  -8  -3   2    6.70    0.80
  -8   3   2    6.40    0.90
  -8   3   2    5.50    0.80
  -7  -3   2  128.19    4.90
  -7   3   2  130.09    5.20
  -7   3   2  132.09    5.40
  -7   3   2  119.19    4.90
  -6  -3   2  116.29    9.20
  -6  -3   2  145.29    5.40
   6  -3  -2  134.09    9.10
  -6   3   2  109.99   19.40
  -6   3   2  146.09    5.60
  -6   3   2  137.89   10.00
  -6   3   2  142.19    5.60
   5  -3  -2   80.99    6.10
  -5  -3   2   78.99    3.60
  -5  -3   2   82.29    3.40
  -5  -3   2   76.79    6.60
  -5   3   2   79.39    7.00
  -5   3   2   77.49    3.50
  -5   3   2  100.69   17.40
  -5   3   2   76.59    3.50
  -4  -3   2   16.70    3.20
   4  -3  -2   18.60    2.60
  -4  -3   2   19.00    1.40
  -4  -3   2   18.50    1.20
  -4   3   2   14.00    8.10
  -4   3   2   16.00    3.20
  -4   3   2   18.50    1.30
  -4   3   2   17.90    1.30
  -3  -3   2  111.49    4.60
  -3  -3   2  108.49    9.40
  -3   3   2  130.69   18.50
  -3   3   2  105.19    7.50
  -2  -3   2  579.44   23.70
  -2   3   2  560.44   23.40
  -2   3   2  642.24   49.30
   1  -3  -2 2237.38   79.09
  -1  -3   2 2282.87   78.49
  -1  -3   2 2286.87   80.99
  -1   3   2 2194.58  101.89
   1   3  -2 2345.27   78.09
  -1   3   2 2336.67   80.59
   0  -3   2 2426.16   84.79
   0  -3  -2 2411.56   82.09
   0   3  -2 2306.97  105.49
   0   3   2 2372.16  106.39
   0   3  -2 2472.95   82.69
   1  -3   2  535.55   19.90
  -1  -3  -2  526.85   20.50
  -1   3  -2  514.35   36.60
  -1   3  -2  520.35   19.70
   2  -3   2  212.38    9.60
  -2  -3  -2  215.78   10.10
  -2   3  -2  203.98    9.70
  -2   3  -2  235.98   24.00
   3  -3   2    5.90    1.40
  -3  -3  -2    5.90    1.50
  -3   3  -2    5.60    1.40
  -3   3  -2    5.10    5.60
  -3   3  -2    8.80    0.90
  -4  -3  -2   21.20    2.80
  -4  -3  -2   18.70    1.20
   4  -3   2   18.90    2.70
  -4  -3  -2   16.70    1.20
  -4   3  -2    4.60    6.20
  -4   3  -2   20.40    1.40
  -4   3  -2   18.30    1.20
  -4   3  -2   20.10    2.90
  -5  -3  -2   51.09    2.50
   5  -3   2   51.39    4.80
  -5  -3  -2   51.49    2.30
  -5   3  -2   52.19    2.60
  -5   3  -2   37.80    6.00
  -5   3  -2   30.10   18.50
  -6  -3  -2  106.39    4.50
   6  -3   2  130.79    8.70
  -6  -3  -2  103.69    4.20
  -6   3  -2  108.29    4.50
  -6   3  -2   97.19   18.80
  -6   3  -2  103.79    8.40
  -6   3  -2  103.49    4.40
  -7  -3  -2    9.40    0.90
  -7   3  -2   10.60    1.00
  -7   3  -2   11.10    1.10
  -8  -3  -2   88.69    3.40
  -8   3  -2   87.39    3.90
  -8   3  -2   86.49    3.40
  -8  -4   2    6.30    0.60
  -8   4   2    4.90    0.60
  -8   4   2    5.50    0.70
  -7  -4   2   71.49    2.90
  -7   4   2   71.49    3.10
  -7   4   2   69.19    3.10
  -6  -4   2   17.10    1.30
  -6   4   2   17.20    1.40
  -6   4   2   17.80    1.40
  -5  -4   2  105.19    4.20
   5  -4  -2  107.99    7.50
  -5  -4   2  100.89    8.60
  -5   4   2  102.49    4.50
  -5   4   2  104.99    4.40
  -5   4   2  124.49   26.90
  -5   4   2   95.89    8.00
  -4  -4   2  263.07    9.50
  -4  -4   2  265.17   14.60
  -4  -4   2  261.97   10.00
   4  -4  -2  259.47   12.90
  -4   4   2  255.37    9.80
  -4   4   2  261.47   14.30
  -4   4   2  265.37    9.70
  -3  -4   2   27.30    1.50
  -3  -4   2   28.90    4.10
  -3  -4   2   26.50    1.80
   3  -4  -2   24.40    3.00
  -3   4   2   26.30    3.70
  -3   4   2   25.70    1.70
  -3   4   2   27.10    1.60
  -3   4   2   21.50   11.80
  -2  -4   2  192.48   11.10
  -2  -4   2  188.98    7.40
  -2  -4   2  190.48    7.00
  -2   4   2  180.08    7.10
  -2   4   2  208.98    7.20
  -2   4   2  181.88   10.40
  -2   4   2  140.99   29.30
  -1  -4   2   -0.10    0.40
   1  -4  -2    1.10    0.50
  -1  -4   2    0.10    0.90
  -1  -4   2    1.60    0.50
   1  -4  -2   -0.40    0.80
  -1   4   2    0.20    0.70
   1   4  -2   -0.20    0.40
  -1   4   2    0.60    0.40
   0  -4  -2   -0.60    0.30
   0  -4   2   -0.50    0.90
   0  -4   2   -0.80    0.80
   0  -4   2    0.00    0.40
   0  -4  -2    0.90    0.80
   0  -4  -2    0.00    0.30
   0   4  -2    0.40    0.40
   0   4   2    0.20    0.80
   1  -4   2  268.67   10.10
   1  -4   2  281.57   13.70
  -1  -4  -2  274.87   13.20
  -1  -4  -2  268.77    9.90
   1  -4   2  272.07   11.80
  -1  -4  -2  280.57   10.20
  -1   4  -2  272.27   10.00
  -2  -4  -2  343.77   12.50
  -2  -4  -2  346.97   16.20
   2  -4   2  349.87   14.90
   2  -4   2  369.16   13.20
  -2   4  -2  325.57   14.60
  -2   4  -2  348.07   12.60
  -2   4  -2  379.76   40.20
   3  -4   2    5.20    1.60
  -3  -4  -2    4.50    0.70
  -3  -4  -2    4.00    2.00
  -3   4  -2    5.80    1.90
  -3   4  -2    5.70    0.70
  -3   4  -2    4.40    0.70
  -4  -4  -2   23.00    1.40
   4  -4   2   30.30    3.40
  -4  -4  -2   24.20    1.40
  -4   4  -2   20.80   12.50
  -4   4  -2   24.10    1.60
  -4   4  -2   23.00    1.40
  -4   4  -2   23.00    3.50
   5  -4   2   56.59    5.30
  -5  -4  -2   56.49    2.50
  -5  -4  -2   54.59    2.60
  -5   4  -2   56.69    2.80
  -5   4  -2   54.59    2.60
  -5   4  -2   47.10    7.00
  -6  -4  -2   13.10    1.00
  -6  -4  -2   11.90    0.90
  -6   4  -2   11.80    1.00
  -6   4  -2   13.10    1.20
  -7   4  -2   15.10    1.10
  -7   4  -2   14.50    1.00
  -8   4  -2    1.10    0.40
  -8   4  -2    1.60    0.30
  -7  -5   2    6.70    0.60
  -7   5   2    6.80    0.70
  -6  -5   2    7.00    0.80
  -6   5   2    6.50    0.80
  -5  -5   2   31.50    1.70
  -5   5   2   32.40    1.90
  -5   5   2   31.90    1.80
  -4  -5   2    0.20    0.50
  -4  -5   2    1.20    0.70
  -4   5   2    0.20    0.50
  -3  -5   2  173.38    7.00
  -3  -5   2  168.58    6.50
  -3  -5   2  183.18   13.40
  -3   5   2  173.78    6.70
   3   5  -2  165.38    6.40
  -2  -5   2   48.20    2.30
   2  -5  -2   45.80    5.00
  -2  -5   2   38.90    5.40
  -2  -5   2   51.69    2.70
   2   5  -2   47.50    2.30
  -2   5   2   47.40    2.40
   1  -5  -2    3.50    1.60
  -1  -5   2    7.90    1.00
  -1  -5   2    5.40    2.30
  -1  -5   2    7.30    1.00
  -1   5   2    5.90    0.80
   1   5  -2    7.60    0.90
   0  -5  -2    2.70    1.70
   0  -5   2    5.30    0.80
   0  -5   2    6.10    0.90
   0  -5  -2    6.40    0.90
   0  -5   2    3.00    1.80
   0   5  -2    3.40    0.60
   0   5   2    5.60    0.80
   1  -5   2    7.50    2.30
   1  -5   2    4.10    0.70
   1  -5   2    5.10    0.80
  -1  -5  -2    5.40    2.40
  -1   5  -2    5.70    0.90
  -2  -5  -2    9.50    1.00
   2  -5   2   11.90    2.90
  -2   5  -2    9.40    1.10
  -3  -5  -2   31.70    1.80
   3  -5   2   24.30    4.10
  -3   5  -2   31.30    1.90
  -4  -5  -2   50.49    2.40
  -4   5  -2   49.70    2.50
  -5  -5  -2   70.39    2.90
  -5   5  -2   66.69    3.10
  -6  -5  -2   -0.20    0.30
  -6   5  -2    0.40    0.40
  -5  -6   2    9.20    0.80
  -5   6   2   10.00    0.80
  -4  -6   2    3.60    0.60
  -4   6   2    5.10    0.70
  -3  -6   2   25.20    1.50
  -3   6   2   23.00    1.40
  -2  -6   2    2.30    0.60
   2   6  -2    2.40    0.60
  -2   6   2    2.00    0.50
  -1  -6   2  138.79    5.50
   1   6  -2  137.99    5.40
  -1   6   2  146.29    5.50
   0   6  -2   15.40    1.10
  -1   6  -2   96.39    4.00
  -2  -6  -2    2.00    0.50
  -2   6  -2    2.50    0.60
  -3  -6  -2   24.00    1.40
  -3   6  -2   22.90    1.40
  -4  -6  -2   18.50    1.10
  -4   6  -2   19.00    1.20
  -5   6  -2    0.50    0.30
  -1   7  -2  100.29    3.70
 -10   0   3    0.20    0.30
  -9   0   3    0.10    0.30
  -9   0   3   -0.20    0.30
  -8   0   3   -0.20    0.40
  -8   0   3    0.50    0.40
  -7   0   3    0.70    1.50
  -7   0   3    0.00    0.40
  -7   0   3   -0.10    0.40
   7   0  -3   -0.90    1.00
  -7   0   3   -0.10    0.30
  -6   0   3    0.10    0.30
  -6   0   3   -0.50    0.30
  -6   0   3    0.20    0.40
  -6   0   3    0.60    1.00
  -5   0   3    1.10    1.30
  -5   0   3    1.10    1.00
  -3   0   3    1.20    1.30
  -3   0   3    2.10    1.10
  -3   0   3    0.10    0.50
  -1   0   3    3.90    1.70
   0   0   3    0.20    0.20
   0   0  -3    0.10    0.20
   0   0   3    0.10    0.20
   1   0   3    0.30    0.20
  -1   0  -3    0.20    0.30
  -2   0  -3   -0.90    2.20
  -3   0  -3    3.10    1.00
  -3   0  -3    2.70    2.60
  -4   0  -3    1.30    0.90
  -4   0  -3    0.20    0.40
   4   0   3   -0.10    0.50
  -4   0  -3    5.80    3.20
  -5   0  -3    0.50    0.50
  -5   0  -3    1.10    1.20
   5   0   3   -0.20    0.50
  -6   0  -3    0.70    0.50
  -6   0  -3   -1.10    1.10
   6   0   3   -1.50    0.80
  -7   0  -3    0.90    1.20
   7   0   3    0.60    1.70
  -7   0  -3    0.30    0.40
  -8   0  -3    0.20    0.40
  -9   0  -3    0.10    0.30
 -10   1   3   19.50    1.10
  -9  -1   3    7.70    0.70
  -9  -1   3    8.00    0.80
  -9   1   3    6.60    0.90
  -8  -1   3    6.50    0.80
  -8  -1   3    7.10    0.80
  -8   1   3    6.50    0.80
  -8   1   3    7.60    0.80
  -7  -1   3   75.79    6.10
  -7  -1   3   78.29    3.20
   7  -1  -3   77.79    6.30
  -7  -1   3   76.49    3.30
  -7   1   3   75.69    3.30
  -7   1   3   76.59    3.30
  -7   1   3   78.99    7.00
  -7   1   3   74.79    3.40
  -6  -1   3   22.40    3.60
  -6  -1   3   23.30    1.40
  -6  -1   3   21.80    2.90
  -6  -1   3   22.10    1.30
  -6   1   3   28.80    3.80
  -6   1   3   22.70    1.40
  -6   1   3   22.70    1.40
  -6   1   3   23.00    1.40
  -5  -1   3  476.05   20.10
  -5  -1   3  451.45   18.80
  -5   1   3  436.66   25.90
  -5   1   3  477.55   20.20
  -5   1   3  435.86   29.30
  -4  -1   3  599.94   23.50
  -4  -1   3  580.64   22.40
  -4   1   3  534.05   32.70
  -4   1   3  600.84   23.60
  -4   1   3  611.84   31.60
  -3  -1   3  656.63   24.50
  -3  -1   3  670.63   25.70
  -3  -1   3  682.13   27.00
  -3   1   3  667.23   33.60
  -3   1   3  688.43   25.80
  -2  -1   3 1759.52   65.89
  -2  -1   3 1678.33   59.49
  -2  -1   3 1748.93   60.89
  -2   1   3 1742.03   60.79
  -2   1   3 1720.13   69.69
  -1  -1   3 3924.21  147.99
  -1   1   3 3931.51  144.09
   0  -1   3 2513.75   82.49
   0  -1   3 2196.48   91.49
   0   1   3 2538.15   93.29
   1  -1   3  346.27   13.10
  -1  -1  -3  358.46   12.20
   1  -1   3  327.47   21.30
  -1   1  -3  357.46   13.00
   1   1   3  343.67   12.60
  -2  -1  -3 6095.89  216.48
   3  -1   3    1.00    0.70
  -3   1  -3    1.30    0.70
  -3   1  -3   -1.00    5.30
   4  -1   3  880.11   32.10
  -4  -1  -3  840.22   30.10
  -4   1  -3  852.81   32.70
   4   1   3  823.32   30.80
  -4   1  -3  908.21   47.60
  -4   1  -3  852.01   30.30
  -5  -1  -3  114.39    4.90
   5  -1   3  110.89    6.70
  -5  -1  -3  112.89    4.60
  -5   1  -3  114.89   16.30
  -5   1  -3  110.99    7.30
   5   1   3  105.79    5.80
  -5   1  -3  118.09   12.80
  -5   1  -3  112.29    5.20
  -5   1  -3  112.09    4.60
   6  -1   3  115.49    7.10
  -6   1  -3   89.79    8.80
  -7  -1  -3   77.79    3.60
  -7   1  -3   83.39    3.60
  -7   1  -3   65.09    7.50
  -8  -1  -3    0.30    0.40
  -8   1  -3    0.40    0.40
  -9  -1  -3    0.30    0.30
  -9   1  -3    0.50    0.40
  -9  -2   3    1.00    0.30
  -9   2   3    0.10    0.40
  -8  -2   3   82.29    3.40
  -8  -2   3   84.39    3.40
  -8   2   3   84.59    3.60
  -8   2   3   87.19    3.70
  -8   2   3   83.99    3.40
  -7  -2   3    0.00    0.40
  -7  -2   3    0.50    0.40
   7  -2  -3   -0.80    1.40
  -7  -2   3    2.00    2.30
  -7   2   3    0.50    0.40
  -7   2   3    0.20    0.40
  -7   2   3   -0.60    0.40
  -7   2   3    2.10    1.90
  -6  -2   3    5.50    1.90
  -6  -2   3    5.80    0.80
  -6   2   3    5.10    0.80
  -6   2   3    4.50    0.80
  -6   2   3   -1.40    4.30
  -6   2   3    5.10    2.50
  -5  -2   3  134.39    8.60
  -5  -2   3  130.49    5.10
  -5   2   3  134.89   16.70
  -5   2   3  128.29    5.20
  -5   2   3  142.89    9.00
  -5   2   3  132.09    5.30
  -4  -2   3 1111.99   42.20
  -4   2   3 1103.29   57.19
  -4   2   3 1119.59   42.60
  -3   2   3    6.00    1.50
  -3   2   3    4.10    3.60
  -2  -2   3    1.80    1.00
  -2   2   3    2.30    2.70
  -2   2   3    2.20    0.90
  -1  -2   3    1.80    0.70
  -1  -2   3    1.70    2.60
  -1  -2   3    1.20    0.40
  -1   2   3    8.50    3.70
   0  -2   3 2538.05   88.09
   0  -2   3 2496.75   87.39
   0  -2   3 2741.53  103.39
   0   2  -3 2501.75   86.09
   0   2   3 2395.26  101.79
  -1  -2  -3 1740.83   60.69
   1  -2   3 1929.21   85.39
   1  -2   3 1645.54   60.99
  -1   2  -3 1713.83   60.69
   2  -2   3  131.09   16.70
   2  -2   3  136.99    6.50
  -2  -2  -3  122.19   13.10
  -2  -2  -3  140.79    6.20
  -2   2  -3  139.79    6.60
   3  -2   3  135.49    7.10
  -3  -2  -3  138.99    6.50
  -3   2  -3  143.09    5.90
  -3   2  -3  143.39    7.40
   4  -2   3  636.74   23.00
  -4  -2  -3  533.65   21.20
  -4  -2  -3  507.65   19.90
  -4   2  -3  589.54   38.80
  -4   2  -3  571.44   20.60
  -4   2  -3  569.84   23.20
  -5  -2  -3  117.29    4.80
   5  -2   3  114.59    7.30
  -5   2  -3  120.59    5.50
  -5   2  -3  113.19    4.60
  -5   2  -3  116.19    7.70
  -5   2  -3  114.39   16.60
  -5   2  -3  116.39    4.70
  -6  -2  -3  137.59    5.50
   6  -2   3  135.19    8.50
  -6   2  -3  135.79    5.30
  -6   2  -3  126.39   15.80
  -6   2  -3  138.39    9.10
  -6   2  -3  132.69    5.40
  -7  -2  -3   37.20    2.40
  -7   2  -3   32.60    2.00
  -7   2  -3   31.40    1.70
  -8  -2  -3   43.20    2.20
  -8   2  -3   44.30    2.20
  -9  -2  -3    0.20    0.30
  -9   2  -3    0.10    0.30
  -9  -3   3   25.90    1.20
  -9   3   3   25.30    1.40
  -8  -3   3   27.40    1.40
  -8   3   3   27.60    1.60
  -8   3   3   26.90    1.60
  -7  -3   3    2.70    0.60
  -7   3   3    2.40    0.60
  -7   3   3    2.90    0.60
  -7   3   3    2.20    0.70
   6  -3  -3  556.34   24.10
  -6  -3   3  520.25   24.50
  -6  -3   3  554.74   19.00
  -6   3   3  493.15   39.90
  -6   3   3  554.74   19.30
  -6   3   3  551.04   19.20
  -6   3   3  518.85   25.00
  -5  -3   3  107.29    4.70
   5  -3  -3  107.59    7.50
  -5  -3   3  107.99    8.20
  -5  -3   3  109.29    4.40
  -5   3   3  109.99    4.60
  -5   3   3  112.99    4.60
  -5   3   3  112.49    8.50
  -5   3   3  134.69   19.60
  -4  -3   3   38.50    1.90
  -4  -3   3   42.90    4.60
  -4  -3   3   40.00    2.20
  -4   3   3   41.70    4.50
  -4   3   3   52.79   13.80
  -4   3   3   40.40    2.10
  -4   3   3   39.60    2.10
  -3  -3   3  445.46   19.80
  -3  -3   3  441.36   16.10
  -3  -3   3  435.66   15.70
  -3   3   3  453.85   19.80
  -3   3   3  437.16   15.90
  -3   3   3  505.75   38.30
  -2  -3   3    8.90    1.90
  -2   3   3   15.40    9.30
  -1  -3   3   76.79    3.90
  -1  -3   3   74.29    5.30
  -1   3   3   66.99   14.60
  -1   3   3   75.79    5.00
   0  -3   3    6.20    1.20
   0  -3  -3    6.40    0.90
   0  -3   3    9.50    1.70
   0   3  -3    8.30    8.30
   1  -3   3    4.00    1.00
  -1  -3  -3    2.30    0.90
  -1   3  -3    3.30    0.80
  -1   3  -3   -0.10    6.10
  -2  -3  -3   16.80    2.20
   2  -3   3   17.40    2.20
  -2   3  -3   18.90    1.40
  -2   3  -3   17.90    2.00
  -2   3  -3   28.20   10.30
  -3  -3  -3  642.04   24.90
   3  -3   3  657.73   25.30
  -3  -3  -3  629.24   22.40
  -3   3  -3  633.94   25.30
  -3   3  -3  653.83   23.30
  -3   3  -3  682.33   47.00
  -4  -3  -3   65.09    3.00
  -4  -3  -3   64.59    2.80
   4  -3   3   76.49    5.40
  -4   3  -3   65.09    3.00
  -4   3  -3   65.79    2.90
  -4   3  -3   66.89    5.20
  -4   3  -3   74.99   15.50
   5  -3   3   71.19    5.70
  -5  -3  -3   66.99    3.10
  -5   3  -3   68.89    3.10
  -5   3  -3   65.19    3.10
  -5   3  -3   63.69   16.60
  -5   3  -3   78.19    6.20
  -6  -3  -3    5.50    0.70
  -6  -3  -3    3.40    0.60
   6  -3   3    2.70    1.70
  -6   3  -3    3.90    0.70
  -6   3  -3   11.30   12.30
  -6   3  -3    2.30    0.60
  -6   3  -3    6.50    2.30
  -7  -3  -3   44.90    2.30
  -7   3  -3   51.69    2.40
  -7   3  -3   45.20    2.20
  -8  -3  -3   99.99    3.90
  -8   3  -3  103.19    4.00
  -8  -4   3   -0.10    0.30
  -8   4   3    0.20    0.30
  -8   4   3    0.50    0.40
  -7  -4   3   26.30    1.40
  -7   4   3   24.90    1.30
  -7   4   3   26.40    1.60
  -7   4   3   26.10    1.60
  -6  -4   3   37.10    1.90
  -6   4   3   32.90    2.00
  -6   4   3   33.50    2.00
  -5  -4   3   54.89    2.90
   5  -4  -3   52.59    5.20
  -5  -4   3   55.29    2.60
  -5  -4   3   46.70    6.20
  -5   4   3   54.99    2.80
  -5   4   3   56.59    6.30
  -5   4   3   57.39    2.70
  -5   4   3   73.99   19.20
   4  -4  -3  183.18   10.00
  -4  -4   3  179.38    6.80
  -4  -4   3  177.18    7.20
  -4  -4   3  180.78   11.60
  -4   4   3  180.18    7.00
  -4   4   3  179.08    7.00
  -4   4   3  174.18   11.30
   3  -4  -3  132.99    7.60
  -3  -4   3  135.39    9.40
  -3  -4   3  137.59    5.70
  -3  -4   3  135.49    5.20
  -3   4   3  159.58   28.70
  -3   4   3  131.89    5.40
  -3   4   3  134.79    5.40
  -3   4   3  141.09    9.20
  -2  -4   3    1.10    1.20
  -2   4   3   -0.10    0.40
  -2   4   3    0.20    0.30
  -2   4   3    2.00   12.30
  -1  -4   3  314.57   15.60
  -1  -4   3  319.47   11.30
  -1  -4   3  320.07   11.60
   1  -4  -3  296.27   11.40
  -1   4   3  335.47   15.10
  -1   4   3  305.37   11.40
   0  -4   3   15.60    1.00
   0  -4  -3   17.90    2.40
   0  -4  -3   15.50    1.20
   0  -4   3   15.70    1.20
   0  -4   3   14.40    2.90
   0   4  -3   15.60    1.20
   0   4   3   14.00    2.50
   1  -4   3   58.39    4.20
   1  -4   3   60.69    2.90
   1  -4   3   58.49    2.70
  -1  -4  -3   53.09    4.60
  -1  -4  -3   55.89    2.60
   1  -4   3   55.49    5.10
  -1   4  -3   57.59    2.70
   2  -4   3  184.88    9.30
   2  -4   3  186.38   10.60
  -2  -4  -3  183.38    6.90
  -2  -4  -3  182.58   10.00
   2  -4   3  176.18    7.00
  -2   4  -3  189.98    7.10
  -2   4  -3  153.78   38.80
   3  -4   3  193.08   10.00
  -3   4  -3  192.68    7.30
  -3   4  -3  150.78   26.50
  -4  -4  -3   49.40    2.40
  -4  -4  -3   51.79    2.40
   4  -4   3   49.50    4.80
  -4   4  -3   50.99    2.40
  -4   4  -3   50.09    2.60
  -4   4  -3   34.80   15.00
  -5  -4  -3   62.09    3.40
  -5  -4  -3   62.49    2.80
  -5   4  -3   63.49    3.00
  -5   4  -3   70.99   20.70
  -6  -4  -3   39.80    2.00
  -6  -4  -3   42.40    1.90
  -6   4  -3   42.10    2.10
  -6   4  -3   40.70    2.00
  -7   4  -3    0.50    0.30
  -7   4  -3    0.10    0.30
  -7  -5   3   -0.30    0.30
  -7   5   3    0.20    0.30
  -6  -5   3    9.10    0.80
  -6   5   3    8.50    0.90
  -5  -5   3   19.00    1.30
  -5   5   3   18.60    1.30
  -4  -5   3   34.20    1.90
  -4  -5   3   35.00    2.20
  -4   5   3   33.70    2.00
  -3  -5   3  208.38    7.60
  -3  -5   3  205.58    8.00
  -3  -5   3  187.88   12.80
  -3   5   3  187.58   11.90
  -3   5   3  205.18    7.80
   3   5  -3  208.38    7.50
  -2  -5   3   66.39    6.90
  -2  -5   3   67.79    3.30
  -2  -5   3   65.49    2.90
   2  -5  -3   62.79    6.00
   2   5  -3   65.19    2.90
  -2   5   3   69.59    3.10
  -2   5   3   53.49    5.90
  -1  -5   3  435.16   15.20
  -1  -5   3  426.66   21.20
  -1  -5   3  433.46   15.60
   1  -5  -3  424.86   20.00
  -1   5   3  399.66   19.70
   1   5  -3  438.06   15.30
  -1   5   3  424.96   15.30
   0  -5  -3    4.30    0.80
   0  -5   3    4.80    0.80
   0  -5   3    5.30    0.80
   0  -5   3    2.70    1.60
   0  -5  -3    5.60    2.30
   0   5   3    4.70    0.70
   1  -5   3   73.39    3.20
   1  -5   3   75.09    3.40
   1  -5   3   70.49    6.70
  -1  -5  -3   77.09    3.30
  -1   5  -3   68.99    3.30
   2  -5   3   16.80    1.20
  -2  -5  -3   15.60    1.30
   2  -5   3   15.50    3.20
  -2   5  -3   17.00    1.40
  -3  -5  -3   85.59    3.70
  -3   5  -3   87.99    3.90
  -4  -5  -3    0.40    0.50
  -4   5  -3    0.50    0.50
  -5  -5  -3    4.20    0.60
  -5   5  -3    3.50    0.60
  -6   5  -3   26.90    1.40
  -5  -6   3   23.40    1.20
  -5   6   3   23.00    1.30
  -4  -6   3   31.60    1.90
  -4   6   3   33.30    1.70
  -3  -6   3   25.70    1.50
  -3   6   3   25.70    1.50
  -2  -6   3    0.40    0.50
  -2  -6   3    0.00    0.40
  -2   6   3    0.40    0.40
   2   6  -3    0.00    0.30
  -1  -6   3   30.00    1.90
  -1  -6   3   32.10    1.80
  -1   6   3   31.90    1.60
   1   6  -3   31.80    1.70
   0  -6   3   41.30    2.20
   0   6  -3   41.50    2.10
  -1   6  -3   10.40    1.00
  -2   6  -3   36.10    1.90
  -3   6  -3    1.10    0.40
  -4   6  -3    0.20    0.40
   0   7  -3    4.10    0.40
 -10   0   4    1.30    0.30
  -9   0   4   26.80    1.50
  -9   0   4   26.50    1.50
  -8   0   4    3.90    0.80
  -8   0   4    3.70    0.80
  -7   0   4    4.10    2.00
  -7   0   4    5.80    0.80
  -7   0   4    6.00    0.80
  -7   0   4    6.10    0.80
  -6   0   4  671.83   27.30
  -6   0   4  659.23   22.90
  -6   0   4  658.23   22.90
  -6   0   4  628.54   22.80
  -5   0   4 1450.05   54.19
  -5   0   4 1504.85   54.69
  -4   0   4   23.50    2.70
  -4   0   4   17.20    2.30
  -4   0   4   17.20    4.40
  -3   0   4  364.66   14.60
  -3   0   4  358.66   14.80
  -1   0   4  462.95   17.60
  -1   0   4  494.35   25.20
  -1   0   4  485.35   17.60
   0   0   4 7216.08  256.07
   1   0   4   43.40    2.60
   1   0   4   46.60    2.00
  -2   0  -4 2152.98   74.99
  -3   0  -4 1555.24   69.29
   3   0   4 1593.84   57.09
  -3   0  -4 1716.83   57.99
  -4   0  -4  329.07   14.20
  -4   0  -4  305.47   21.30
  -4   0  -4  322.97   12.00
   4   0   4  312.37   13.30
   5   0   4   31.70    3.00
  -5   0  -4   32.50    2.20
  -5   0  -4   30.70    3.60
  -5   0  -4   31.50    1.80
  -5   0  -4   28.80    4.80
  -5   0  -4   27.50    5.20
   6   0   4  100.09    6.40
  -6   0  -4   96.89    4.80
  -6   0  -4  103.59    7.70
  -6   0  -4   97.19    4.30
  -7   0  -4    8.60    1.00
  -8   0  -4    8.30    0.90
  -9   0  -4   91.19    3.70
 -10   1   4    3.30    0.50
  -9  -1   4    1.20    0.40
  -9  -1   4    1.10    0.40
  -9   1   4    0.70    0.30
  -9   1   4    1.00    0.40
  -8  -1   4   26.40    1.50
  -8  -1   4   24.70    1.40
  -8   1   4   24.80    1.40
  -8   1   4   25.80    1.50
  -8   1   4   22.50    2.00
  -7  -1   4   25.00    1.50
  -7  -1   4   25.30    1.50
  -7  -1   4   24.20    3.90
  -7   1   4   26.50    1.60
  -7   1   4   25.70    1.60
  -7   1   4   25.10    1.50
   7   1  -4   25.70    3.40
  -7   1   4   19.20    3.60
  -6  -1   4   12.00    1.00
  -6  -1   4   10.00    2.20
  -6  -1   4   12.80    1.00
  -6  -1   4    9.40    2.40
  -6   1   4   10.80    1.00
  -6   1   4    9.00    3.10
  -6   1   4    9.30    3.70
  -6   1   4   11.60    1.00
  -6   1   4   12.40    1.00
  -5  -1   4   17.70    3.20
  -5  -1   4   13.70    2.10
  -5  -1   4   14.50    1.10
  -5   1   4   14.80    2.60
  -5   1   4   16.10    1.30
  -5   1   4   14.90    6.60
  -5   1   4   16.80    5.70
  -5   1   4   12.90    1.00
  -4  -1   4 1359.26   49.30
  -4  -1   4 1368.96   50.79
  -4   1   4 1322.37   50.59
  -4   1   4 1477.95   62.39
  -3  -1   4 1500.65   53.49
  -3  -1   4 1483.95   51.99
  -3   1   4 1520.05   53.39
  -3   1   4 1421.66   63.49
  -2  -1   4 2064.09   72.29
  -2  -1   4 2091.89   71.59
  -2  -1   4 2141.19   80.39
  -2  -1   4 2038.70   73.09
  -2   1   4 2116.59   72.89
  -2   1   4 2050.99   83.69
  -1  -1   4  858.41   29.10
  -1  -1   4  817.42   30.60
  -1  -1   4  850.61   38.70
  -1  -1   4  839.02   30.20
  -1   1   4  879.21   40.90
   0  -1   4 8003.80  292.07
   0   1   4 8482.65  294.27
   1  -1   4 1053.59   48.80
   1  -1   4  986.20   36.40
   1   1   4 1009.00   35.60
  -1   1  -4 1024.30   35.70
   2  -1   4  116.29    5.70
   2  -1   4  110.29   13.20
  -2  -1  -4  107.09   11.70
   2   1   4  114.99    5.20
  -2   1  -4  136.59    6.00
  -3  -1  -4  115.39   11.60
   3  -1   4  139.49    6.70
  -3   1  -4  130.59    5.70
  -3   1  -4  144.69    7.00
  -4  -1  -4   88.79    4.00
  -4  -1  -4   81.69    7.60
   4   1   4   85.19    4.70
  -4   1  -4   89.19    5.80
  -4   1  -4   86.89    4.20
  -5  -1  -4   13.20    1.20
  -5  -1  -4   13.60    1.40
   5  -1   4   14.90    2.40
   5   1   4   13.60    2.10
  -5   1  -4   13.80    1.10
  -5   1  -4   17.00    6.60
  -5   1  -4   12.20    2.60
  -5   1  -4   12.90    1.60
  -6  -1  -4    3.40    0.70
   6  -1   4    4.30    1.70
  -6   1  -4    7.20    2.00
  -6   1  -4    4.20    1.10
  -6   1  -4    3.10    0.70
   7  -1   4  181.58   10.50
  -7  -1  -4  179.28    6.80
  -7   1  -4  145.89   10.30
  -7   1  -4  178.48    6.80
  -8  -1  -4   19.60    1.40
  -8   1  -4   18.70    1.40
  -9  -1  -4    4.30    0.60
  -9   1  -4    4.50    0.60
  -9  -2   4   19.30    1.10
  -9   2   4   21.40    1.80
  -8  -2   4   12.20    1.00
  -8   2   4   11.00    0.90
  -8   2   4   11.80    1.20
  -8   2   4   12.30    1.10
  -7  -2   4   26.50    4.50
   7  -2  -4   28.50    4.40
  -7  -2   4   34.90    1.80
  -7   2   4   30.90    1.90
  -7   2   4   31.60    1.80
  -7   2   4   32.30    1.90
  -7   2   4   31.40    4.60
  -6  -2   4    4.90    2.10
  -6  -2   4    6.10    1.10
  -6   2   4    5.40    2.10
  -6   2   4    0.40    5.20
  -5  -2   4   89.29    3.60
  -5  -2   4   89.49    6.90
  -5   2   4   89.99    3.80
  -5   2   4   88.09    3.80
  -5   2   4   89.69   14.90
  -5   2   4   93.19    7.20
  -4   2   4  298.57   14.80
  -4   2   4  330.37   26.30
  -3  -2   4  106.79    6.70
  -3   2   4  105.89   14.50
  -3   2   4  108.79    6.70
  -2  -2   4  210.78    8.60
  -2  -2   4  206.28   16.30
  -2  -2   4  203.58    9.90
  -2   2   4  205.88    9.70
  -2   2   4  207.88   19.20
  -1  -2   4  532.85   21.20
  -1  -2   4  547.75   20.20
  -1  -2   4  557.54   31.60
  -1   2   4  555.04   33.50
   0  -2   4  998.00   37.40
   0  -2   4 1126.89   52.19
   0  -2   4 1007.00   36.80
   0   2   4 1008.40   51.59
  -1  -2  -4  435.16   15.90
   1  -2   4  424.36   29.60
   1  -2   4  430.46   16.70
  -1   2  -4  441.46   16.00
   2  -2   4  158.68   19.10
  -2  -2  -4  138.69   16.40
  -2  -2  -4  155.98    6.30
   2  -2   4  159.78    7.50
  -2   2  -4  161.58    7.30
  -2   2  -4  154.48    6.30
   3  -2   4    2.40    1.00
  -3  -2  -4    2.50    0.70
  -3  -2  -4    5.60    4.70
  -3   2  -4    2.60    0.70
  -3   2  -4    2.90    1.10
   4  -2   4  216.18   10.70
  -4   2  -4  214.38   10.90
  -4   2  -4  241.08   24.30
  -4   2  -4  227.98    9.00
  -4   2  -4  216.18    8.20
   5  -2   4  676.23   27.40
  -5  -2  -4  661.33   23.90
  -5   2  -4  669.83   27.80
  -5   2  -4  682.33   23.70
  -5   2  -4  723.33   44.70
  -5   2  -4  673.33   23.80
  -5   2  -4  677.23   24.80
   6  -2   4   47.80    4.70
  -6  -2  -4   50.59    2.60
  -6   2  -4   48.10    2.50
  -6   2  -4   50.59    5.10
  -6   2  -4   40.10    9.90
  -6   2  -4   49.90    2.30
  -7  -2  -4    7.80    1.10
  -7   2  -4    8.10    1.00
  -8  -2  -4   -0.10    0.40
  -8   2  -4    0.80    0.50
  -9  -2  -4    6.30    0.50
  -9   2  -4    5.80    0.60
  -9  -3   4    2.70    0.40
  -9   3   4    2.20    0.40
  -9   3   4    2.90    0.50
  -8  -3   4   49.80    2.20
  -8   3   4   48.80    2.50
  -8   3   4   52.29    2.40
  -8   3   4   51.09    2.10
  -7  -3   4   11.60    1.10
  -7   3   4   12.60    1.20
  -7   3   4   15.80    1.30
  -7   3   4   11.10    1.10
  -6  -3   4   14.70    1.20
   6  -3  -4   19.60    3.70
  -6  -3   4    8.30    2.50
  -6   3   4   14.80    1.30
  -6   3   4    4.80    7.50
  -6   3   4   15.30    1.40
  -5  -3   4  275.87   10.30
  -5  -3   4  271.57   14.90
  -5  -3   4  248.38   10.60
  -5   3   4  283.87   29.60
  -5   3   4  307.57   18.80
  -4  -3   4    0.30    0.40
  -4  -3   4    0.50    0.40
  -4  -3   4   -0.70    1.10
  -4   3   4   -4.30    6.90
  -4   3   4   -0.50    0.40
  -4   3   4    0.40    1.20
  -3  -3   4  338.97   12.70
  -3  -3   4  353.06   16.60
  -3  -3   4  339.27   12.30
  -3   3   4  361.66   32.90
  -3   3   4  367.16   16.60
  -3   3   4  340.67   12.50
  -3   3   4  348.87   12.50
  -2   3   4  214.38   11.00
  -2   3   4  229.88   24.80
  -1  -3   4    3.30    1.20
  -1  -3   4    2.20    0.80
  -1   3   4   -2.80    6.40
   0  -3   4  582.24   23.40
   0  -3   4  573.94   21.90
   1  -3   4   89.49    5.20
  -1  -3  -4   87.29    5.00
   1  -3   4   89.79    5.90
  -1   3  -4   87.09    4.10
  -1   3  -4  100.19    4.30
   2  -3   4  178.18    9.10
  -2  -3  -4  185.18    8.30
  -2   3  -4  182.88   23.40
  -2   3  -4  165.88    6.60
  -2   3  -4  180.48    8.20
  -2   3  -4  170.88    7.10
   3  -3   4  579.54   22.60
  -3  -3  -4  552.04   19.40
  -3   3  -4  483.15   50.59
  -3   3  -4  569.64   20.30
  -3   3  -4  555.84   19.60
  -3   3  -4  561.04   22.10
   4  -3   4   16.80    2.80
  -4  -3  -4   16.10    1.00
  -4  -3  -4   13.90    1.20
  -4   3  -4    2.40    8.50
  -4   3  -4   13.90    1.20
  -4   3  -4   15.80    2.70
  -4   3  -4   12.40    1.60
  -4   3  -4   14.80    1.10
  -5  -3  -4   80.69    3.60
   5  -3   4   80.09    6.20
  -5  -3  -4   77.99    3.20
  -5   3  -4   72.29    5.90
  -5   3  -4   80.19    3.50
  -5   3  -4   78.49    3.40
  -6  -3  -4    3.10    0.80
  -6   3  -4    2.90    0.90
  -6   3  -4    1.50    0.80
  -6   3  -4   11.40    9.00
  -7  -3  -4    4.70    0.80
  -7   3  -4    5.50    0.80
  -7   3  -4    5.90    0.90
  -8  -3  -4    2.40    0.40
  -8   3  -4    2.90    0.50
  -8  -4   4   59.19    2.30
  -8   4   4   54.29    2.50
  -8   4   4   56.19    2.40
  -7  -4   4    1.40    0.50
  -7   4   4    0.60    0.50
  -7   4   4    0.80    0.50
  -7   4   4    1.30    0.50
  -6  -4   4    0.30    0.50
  -6   4   4    0.80    0.50
  -6   4   4   -0.10    0.50
   5  -4  -4   17.80    4.90
  -5  -4   4   19.30    1.60
  -5  -4   4   27.30    6.20
  -5  -4   4   15.80    1.30
  -5   4   4   16.20    4.20
  -5   4   4   19.00    1.40
  -5   4   4    0.80   11.00
  -5   4   4   17.50    1.40
  -4  -4   4   74.49    3.60
  -4  -4   4   76.89    7.20
  -4  -4   4   72.19    3.20
   4  -4  -4   71.79    5.70
  -4   4   4   68.89    6.90
  -4   4   4   73.99    3.40
  -4   4   4   75.49    3.40
  -4   4   4   80.49   21.10
  -3  -4   4   83.09    3.90
  -3  -4   4   82.69    3.50
  -3  -4   4   74.59    7.00
   3  -4  -4   80.69    5.60
  -3   4   4   84.59    3.60
  -3   4   4   74.19   21.00
  -3   4   4   83.59    7.00
  -3   4   4   85.09    3.60
  -2  -4   4  116.19    4.90
  -2  -4   4  118.89    8.60
   2  -4  -4  109.29    6.30
  -2  -4   4  114.49    4.50
  -2   4   4  122.99    8.20
  -2   4   4   90.99   25.30
  -2   4   4  117.69    4.70
  -1  -4   4    5.40    0.80
  -1  -4   4    4.80    0.70
  -1  -4   4    4.10    1.60
  -1   4   4    4.00    0.80
  -1   4   4    2.80    1.30
   0  -4   4  104.99    4.40
   0  -4   4  102.39    5.80
   0  -4  -4  103.49    6.60
   0  -4   4  102.49    7.60
   0  -4   4  102.29    4.10
   0  -4  -4   97.79    4.20
   0   4  -4  106.99    4.20
   1  -4   4  982.80   38.60
   1  -4   4  957.90   33.90
   1  -4   4  954.60   33.60
  -1  -4  -4 1020.50   37.50
  -1  -4  -4  938.01   33.70
   1  -4   4  994.30   36.50
  -1   4  -4  974.90   33.80
   2  -4   4   18.30    2.80
   2  -4   4   10.20    2.40
  -2  -4  -4   16.70    1.20
   2  -4   4   14.90    1.20
  -2   4  -4   17.10    1.30
   3  -4   4   99.49    7.30
   3  -4   4   85.59    6.30
  -3  -4  -4   93.69    3.80
  -3   4  -4   93.99    4.00
  -3   4  -4   85.19   20.80
  -4  -4  -4   53.49    2.60
  -4  -4  -4   56.89    2.50
   4  -4   4   49.00    5.00
  -4   4  -4   54.49    2.70
  -4   4  -4   42.70   15.00
  -5  -4  -4   18.20    1.20
  -5  -4  -4   19.00    1.30
  -5   4  -4   19.90    1.40
  -5   4  -4   18.20    1.20
  -6  -4  -4   38.50    1.90
  -6   4  -4   34.70    2.40
  -6   4  -4   38.50    2.00
  -7  -4  -4    1.40    0.30
  -7   4  -4    1.40    0.30
  -7   4  -4    1.10    0.30
  -7  -5   4    3.90    0.50
  -7   5   4    4.40    0.60
  -6  -5   4   43.00    2.00
  -6   5   4   42.60    2.10
  -5  -5   4   21.70    1.30
  -5   5   4   21.70    1.50
  -4  -5   4    1.40    0.60
   4   5  -4    3.30    0.50
  -4   5   4    3.10    0.60
  -3  -5   4  189.38   13.20
  -3  -5   4  211.98    7.80
  -3  -5   4  212.88    8.30
   3   5  -4  210.68    7.80
  -3   5   4  215.18   13.00
  -3   5   4  209.48    8.00
   2  -5  -4  120.49    8.50
  -2  -5   4  120.99    5.20
  -2  -5   4  124.39    4.80
  -2  -5   4  119.59    9.80
   2   5  -4  122.99    4.80
  -2   5   4  122.29    4.90
  -2   5   4  103.99    8.30
  -1  -5   4  323.27   11.90
  -1  -5   4  329.87   11.40
  -1  -5   4  319.57   17.40
   1  -5  -4  298.87   15.80
  -1   5   4  316.67   11.40
  -1   5   4  283.97   15.80
   1   5  -4  326.17   11.50
   0  -5  -4   19.60    4.40
   0  -5   4   25.30    4.20
   0  -5   4   20.50    1.60
   0  -5   4   21.80    1.40
   0   5  -4   21.60    1.50
   0   5   4   20.80    3.70
   1  -5   4  167.38    6.40
   1  -5   4  172.38   11.30
  -1  -5  -4  167.98    6.60
   1  -5   4  169.48    6.70
  -1   5  -4  172.88    6.70
   2  -5   4   -0.10    2.20
  -2  -5  -4    1.70    0.60
  -2   5  -4    2.90    0.70
  -4  -5  -4   47.40    2.20
  -4  -5  -4   49.40    2.30
  -4   5  -4   50.09    2.50
  -5  -5  -4    4.50    0.60
  -5   5  -4    4.00    0.60
  -6   5  -4   29.10    1.50
  -5  -6   4   59.89    2.50
  -5   6   4   60.49    2.50
  -4  -6   4    0.10    0.40
  -4   6   4    0.70    0.40
  -3  -6   4  323.87   12.00
   3   6  -4  327.07   11.60
  -3   6   4  334.37   11.80
  -2  -6   4    7.40    1.00
  -2  -6   4    9.20    0.90
   2   6  -4    9.30    0.80
  -2   6   4    8.30    1.00
  -1  -6   4   23.70    1.60
  -1  -6   4   23.90    1.50
   1   6  -4   23.40    1.40
   0  -6   4    5.20    0.80
   0   6  -4    7.00    0.90
   1  -6   4    3.40    0.70
  -1   6  -4    1.80    0.50
  -2   6  -4    3.80    0.70
  -3   6  -4   10.30    1.00
  -4   6  -4   10.10    0.80
 -10   0   5   -0.50    0.40
  -9   0   5    0.60    0.60
  -9   0   5    0.80    0.40
  -8   0   5   -0.20    0.50
  -7   0   5    0.30    0.40
  -7   0   5   -0.70    1.50
  -7   0   5    0.00    0.40
  -6   0   5   13.10    2.70
  -5   0   5    0.30    0.80
  -5   0   5    2.40    2.30
  -5   0   5   -0.70    1.20
  -5   0   5   -0.90    1.30
  -5   0   5    1.30    0.60
  -4   0   5    0.50    1.00
  -4   0   5    2.10    2.20
  -4   0   5    0.60    0.90
  -3   0   5   -0.20    0.40
  -3   0   5    0.10    0.70
  -2   0   5    1.50    1.80
  -2   0   5    0.10    0.40
  -2   0   5   -0.20    0.40
  -1   0   5    4.10    2.60
   1   0   5    0.10    0.20
   1   0   5    0.50    3.20
   2   0   5    4.30    1.00
  -3   0  -5    2.30    6.30
  -4   0  -5    0.80    0.60
  -4   0  -5    2.80    1.20
   4   0   5    0.00    0.50
  -5   0  -5    1.40    2.90
  -5   0  -5    2.80    0.70
  -5   0  -5    1.00    0.60
   6   0   5    3.70    1.30
  -6   0  -5   -0.10    0.40
  -6   0  -5   -0.30    0.50
  -7   0  -5    0.20    0.40
  -8   0  -5    0.90    0.50
  -9   0  -5    0.00    0.30
 -10   1   5   28.80    1.30
  -9  -1   5   14.10    1.40
  -9  -1   5   16.40    1.20
  -9   1   5   15.70    1.20
  -9   1   5   15.30    0.90
  -8  -1   5   94.59    3.80
  -8  -1   5   95.19    3.80
  -8   1   5   94.29    4.00
  -8   1   5   92.59    3.90
  -8   1   5   95.69    3.90
  -7  -1   5    8.30    0.80
  -7  -1   5    8.80    2.40
  -7  -1   5    9.10    1.00
  -7  -1   5    7.70    2.50
  -7   1   5    9.00    1.00
  -7   1   5    8.40    1.00
  -7   1   5   12.10    3.00
  -7   1   5    9.60    1.00
  -6  -1   5  238.48    8.60
  -6  -1   5  251.27   13.30
  -6  -1   5  230.48    8.60
  -6  -1   5  220.78   11.40
  -6   1   5  240.98    8.70
  -6   1   5  224.38    8.60
  -6   1   5  225.98   15.20
  -6   1   5  225.38    8.60
  -6   1   5  224.58   16.70
  -6   1   5  247.88   13.30
  -5  -1   5   14.90    1.10
  -5  -1   5   16.30    2.90
  -5  -1   5   16.10    2.30
  -5   1   5    1.30    7.50
  -5   1   5   15.90    1.10
  -5   1   5   14.90    6.30
  -5   1   5   15.50    2.70
  -5   1   5   13.90    1.10
  -4  -1   5  508.75   23.40
  -4  -1   5  478.95   20.90
  -4  -1   5  492.05   19.40
  -4   1   5  521.25   31.20
  -4   1   5  513.95   21.10
  -3  -1   5   13.00    2.10
  -3  -1   5   12.00    1.30
  -3   1   5   11.80    4.30
  -3   1   5   11.50    1.80
  -2  -1   5 1613.64   58.09
  -2  -1   5 1628.24   56.39
  -2  -1   5 1620.54   67.09
  -2  -1   5 1683.23   57.39
  -2   1   5 1662.73   57.89
  -2   1   5 1586.54   70.49
  -1  -1   5 4730.73  180.88
  -1   1   5 5168.38  197.78
   0  -1   5    0.20    3.40
   0  -1   5    0.20    0.40
   0  -1   5    0.20    0.40
   0  -1  -5    0.30    0.30
   0   1   5    3.50    3.90
   0   1   5    0.40    0.40
   1  -1   5  181.78    7.80
   1  -1   5  187.88    8.20
   1  -1   5  201.88   17.90
   1   1   5  189.98    7.80
   2  -1   5  118.99    6.00
   2  -1   5   98.99   15.50
  -2  -1  -5   98.79   14.80
  -2   1  -5  131.69    6.00
   2   1   5  116.49    5.40
   3  -1   5   75.09    4.70
  -3  -1  -5   68.09   12.20
  -3  -1  -5   69.19    3.30
  -3   1  -5   73.19    3.50
   3   1   5   71.39    4.00
  -3   1  -5   79.29    4.80
  -4  -1  -5 1502.75   50.79
  -4  -1  -5 1447.26   50.29
   4  -1   5 1480.55   53.09
  -4  -1  -5 1388.96   60.19
  -4   1  -5 1463.25   50.99
  -4   1  -5 1475.85   53.49
   4   1   5 1470.25   51.99
  -4   1  -5 1451.45   50.39
  -5  -1  -5  163.88    6.40
  -5  -1  -5  158.88    6.80
   5  -1   5  165.68    9.00
   5   1   5  154.78    8.00
  -5   1  -5  166.78    9.50
  -5   1  -5  164.68    7.10
  -5   1  -5  162.48    6.30
  -5   1  -5  146.49   16.20
   6  -1   5   39.10    4.30
  -6  -1  -5   36.10    2.20
  -6   1  -5   41.10    2.20
  -6   1  -5   34.80    4.40
  -6   1  -5   38.20    2.80
  -7  -1  -5   46.40    3.20
  -7   1  -5   58.59    3.70
  -8  -1  -5    0.70    0.40
  -8   1  -5    0.70    0.50
  -9  -1  -5   45.00    2.00
  -9   1  -5   46.20    2.00
  -9  -2   5   48.60    2.10
  -9   2   5   51.79    2.50
  -9   2   5   52.89    2.30
  -8  -2   5  332.67   11.80
  -8   2   5  329.87   12.00
  -8   2   5  323.47   11.80
  -8   2   5  329.27   11.90
  -7  -2   5   29.90    1.70
  -7  -2   5   21.90    5.40
  -7   2   5   31.40    1.90
  -7   2   5   41.00    8.50
  -7   2   5   29.70    1.80
  -7   2   5   28.30    1.90
  -6  -2   5   12.40    1.10
  -6  -2   5   13.80    3.40
  -6   2   5    6.60   10.50
  -6   2   5   11.60    1.10
  -6   2   5   12.10    1.20
  -6   2   5    8.90    2.80
  -5  -2   5   14.70    1.00
  -5  -2   5   12.30    2.90
  -5  -2   5   11.10    1.10
  -5   2   5   20.70    8.30
  -5   2   5   11.50    1.00
  -5   2   5   11.20    2.60
  -5   2   5   12.10    1.10
  -4   2   5    2.10    4.50
  -3  -2   5 1236.08   46.80
  -3  -2   5 1261.77   55.49
  -3   2   5 1237.38   63.09
  -3   2   5 1277.97   46.70
  -2  -2   5  440.46   18.30
  -2  -2   5  412.36   26.90
  -2  -2   5  431.86   16.80
  -2   2   5  430.46   18.00
  -2   2   5  480.05   31.80
  -1  -2   5   67.29   10.30
  -1  -2   5   72.79    4.80
  -1  -2   5   70.79    4.00
  -1   2   5   65.19   12.30
   0  -2   5 1533.35   71.89
   0  -2   5 1605.14   56.19
   0  -2   5 1576.94   55.59
   0   2   5 1572.24   74.09
   1  -2   5   57.19    3.90
   1  -2   5   55.49    3.70
  -1  -2  -5   61.69    2.80
  -1  -2  -5   54.39    2.70
   2  -2   5 2229.48   74.59
   2  -2   5 1856.01  103.99
  -2   2  -5 2235.78   73.89
  -2   2  -5 2074.39   72.59
  -3  -2  -5   -7.20    5.60
   3  -2   5    0.90    0.80
  -3   2  -5    0.70    0.40
  -3   2  -5    0.60    0.60
   4  -2   5   26.50    3.30
  -4  -2  -5   25.40    1.60
  -4   2  -5   26.30    1.50
  -4   2  -5   28.50    3.20
  -4   2  -5   28.30    2.20
  -5  -2  -5  546.95   19.50
   5  -2   5  540.65   22.90
  -5   2  -5  528.05   19.00
  -5   2  -5  527.65   42.10
  -5   2  -5  546.95   18.90
  -5   2  -5  530.75   20.00
  -5   2  -5  528.55   22.90
  -6  -2  -5   65.69    3.20
   6  -2   5   72.49    6.20
  -6   2  -5   56.19   12.50
  -6   2  -5   59.29    5.70
  -6   2  -5   68.29    3.10
  -7  -2  -5  424.96   15.10
  -7   2  -5  412.36   15.00
  -8  -2  -5   13.10    1.20
  -8   2  -5   13.90    1.10
  -9  -3   5   11.70    0.90
  -9   3   5   12.60    0.90
  -8  -3   5    5.10    0.70
  -8   3   5    3.70    0.60
  -8   3   5    5.10    0.60
  -8   3   5    3.80    0.70
  -7  -3   5   64.79    2.90
  -7   3   5   66.69    3.10
  -7   3   5   64.49    3.10
  -7   3   5   61.29    2.90
  -6  -3   5  132.69    5.10
  -6  -3   5  127.89    5.30
   6  -3  -5  126.49    9.20
  -6  -3   5  109.39    9.40
  -6   3   5  131.19   10.00
  -6   3   5  128.99    5.30
  -6   3   5  112.69   19.60
  -6   3   5  132.89    5.30
  -5  -3   5  286.77   16.10
  -5  -3   5  305.77   10.90
  -5  -3   5  320.57   11.50
  -5   3   5  314.17   35.30
  -5   3   5  290.37   11.10
  -5   3   5  298.57   11.20
  -5   3   5  303.97   16.40
  -4  -3   5 1121.19   39.20
  -4  -3   5 1164.38   45.20
  -4  -3   5 1130.29   39.60
  -4   3   5 1115.19   39.40
  -4   3   5 1140.89   39.50
  -4   3   5 1154.78   45.10
  -4   3   5 1155.28   68.19
  -3  -3   5  180.88   10.80
  -3   3   5  187.98    7.10
  -3   3   5  181.78   10.70
  -3   3   5  192.28    7.30
  -3   3   5  190.78   23.80
  -2  -3   5   53.89    3.60
  -2  -3   5   56.89    2.70
  -2  -3   5   60.99    5.20
  -2   3   5   68.19   14.30
  -2   3   5   57.39    4.90
  -1  -3   5  142.39   11.70
  -1  -3   5  152.88    7.30
  -1   3   5  154.98   21.10
   0  -3   5  156.88    9.40
   0  -3   5  152.58    7.70
   0  -3  -5  159.88    7.40
   1  -3   5   32.20    3.30
   1  -3   5   33.20    3.00
  -1  -3  -5   28.80    2.70
  -1   3  -5   31.80    2.00
   2  -3   5  261.97   12.10
   2  -3   5  259.37   12.60
  -2   3  -5  260.57   10.00
  -2   3  -5  269.77   11.00
  -2   3  -5  255.67   10.10
   3  -3   5 1399.16   51.49
  -3   3  -5 1385.46   50.59
  -3   3  -5 1388.86   48.00
  -3   3  -5 1381.96   48.70
  -3   3  -5 1419.16   78.59
   4  -3   5    6.70    1.80
  -4   3  -5    6.90    0.80
  -4   3  -5   11.10    1.50
  -4   3  -5    8.50    2.00
  -4   3  -5    7.80    0.90
  -4   3  -5    2.90    6.60
   5  -3   5  703.73   28.70
  -5  -3  -5  687.43   24.20
  -5   3  -5  697.73   24.00
  -5   3  -5  674.63   50.39
  -5   3  -5  708.53   24.00
  -5   3  -5  624.94   27.70
  -6  -3  -5   44.40    2.30
  -6   3  -5   42.60    2.10
  -6   3  -5   41.70    2.10
  -7  -3  -5    4.30    0.70
  -7   3  -5    3.00    0.60
  -8  -3  -5    4.40    0.60
  -8   3  -5    4.50    0.50
  -8  -4   5    0.30    0.30
  -8   4   5    0.00    0.30
  -8   4   5    0.10    0.30
  -7  -4   5    8.90    0.90
  -7   4   5    9.60    1.10
  -7   4   5    9.20    1.00
  -7   4   5    8.10    0.90
  -6  -4   5  251.37    9.40
  -6   4   5  262.37    9.60
  -6   4   5  258.07    9.60
   5  -4  -5   31.60    4.70
  -5  -4   5   34.30    1.90
  -5  -4   5   33.40    5.70
  -5  -4   5   36.50    2.20
  -5   4   5   29.90   24.60
  -5   4   5   35.60    2.10
  -5   4   5   34.20    5.00
  -5   4   5   36.40    2.10
   4  -4  -5  290.17   14.40
  -4  -4   5  295.57   10.80
  -4  -4   5  297.47   11.30
  -4  -4   5  303.07   16.80
  -4   4   5  301.07   16.60
  -4   4   5  293.87   11.00
  -4   4   5  294.77   36.50
  -4   4   5  306.07   11.10
  -3  -4   5   13.50    1.30
   3  -4  -5   12.50    2.40
  -3  -4   5    9.20    2.70
  -3  -4   5   15.00    1.20
  -3   4   5   -5.60   13.80
  -3   4   5   14.00    1.60
  -3   4   5   15.40    1.80
  -3   4   5    6.10    2.80
  -2  -4   5   69.69    6.60
  -2  -4   5   68.79    3.00
  -2  -4   5   74.49    3.40
  -2   4   5   70.59    6.20
  -2   4   5   69.89    3.10
  -1  -4   5  427.06   15.50
  -1  -4   5  423.66   15.10
  -1  -4   5  429.36   20.30
  -1   4   5  424.76   19.50
  -1   4   5  438.46   15.40
   0  -4  -5  147.69    6.00
   0  -4  -5  158.78    8.50
   0  -4   5  166.48   10.10
   0  -4   5  159.38    8.20
   0  -4   5  158.68    6.30
   0  -4   5  155.08    5.90
  -1  -4  -5 2076.49   73.89
   1  -4   5 2062.69   73.79
   1  -4   5 2209.08   79.49
   1  -4   5 2181.48   74.19
   1  -4   5 2255.77   77.39
  -1   4  -5 2187.98   73.99
   2  -4   5   53.59    2.60
  -2  -4  -5   56.59    2.60
   2  -4   5   49.80    6.30
   2  -4   5   47.40    4.50
  -2   4  -5   54.89    2.70
  -2   4  -5   36.40   20.00
   3  -4   5 1127.99   44.10
   3  -4   5 1129.99   42.90
  -3  -4  -5 1107.69   38.50
  -3   4  -5 1116.19   38.80
  -3   4  -5 1097.39   75.79
   4  -4   5    4.90    2.10
   4  -4   5    2.30    2.30
  -4  -4  -5    2.10    0.70
  -4   4  -5    1.90    0.60
  -5  -4  -5    9.00    1.00
  -5  -4  -5    7.20    0.80
  -5   4  -5    7.80    0.90
  -6  -4  -5    1.10    0.50
  -6   4  -5    1.40    0.40
  -7  -4  -5    0.50    0.20
  -7   4  -5    0.40    0.30
  -7  -5   5    3.50    0.50
  -7   5   5    2.60    0.40
  -6  -5   5   10.50    0.90
  -6   5   5    9.00    1.10
  -5  -5   5    7.70    1.00
  -5  -5   5    6.70    0.80
  -5   5   5    7.00    0.90
  -4  -5   5   70.69    3.50
  -4  -5   5   71.49    3.10
   4   5  -5   72.29    3.00
  -4   5   5   72.99    3.30
  -3  -5   5   14.00    1.40
  -3  -5   5   11.50    1.10
  -3   5   5   11.20    1.20
   3   5  -5   12.50    1.30
  -2  -5   5  352.46   19.80
  -2  -5   5  352.16   13.00
  -2  -5   5  348.67   12.40
   2  -5  -5  354.16   18.50
  -2   5   5  350.36   12.50
   2   5  -5  357.26   12.60
  -2   5   5  306.47   18.00
  -1  -5   5  910.61   38.50
  -1  -5   5  932.41   31.70
  -1  -5   5  907.41   31.20
   1   5  -5  920.01   31.40
  -1   5   5  896.01   31.20
  -1   5   5  828.42   36.80
   0  -5   5    8.50    2.80
   0  -5   5    9.70    1.00
   0  -5   5    8.20    1.10
   0   5  -5    9.30    1.10
   0   5   5    6.90    2.30
   1  -5   5  539.75   26.00
   1  -5   5  518.95   18.80
  -1   5  -5  525.65   18.80
   2  -5   5   19.00    1.70
  -2  -5  -5   18.30    1.40
  -2   5  -5   18.50    1.50
  -3  -5  -5   37.80    2.00
  -3  -5  -5   39.60    2.00
  -3   5  -5   40.50    2.20
  -4  -5  -5    3.40    0.60
  -4   5  -5    4.10    0.70
  -5   5  -5   12.00    1.00
  -6   5  -5    7.80    0.80
  -5  -6   5    8.50    0.70
  -5   6   5    8.50    0.80
  -4  -6   5   45.20    2.00
  -4   6   5   47.10    2.00
  -3  -6   5   93.19    3.80
  -3  -6   5   96.89    4.10
   3   6  -5   92.99    3.70
  -3   6   5   98.69    3.80
  -2  -6   5    3.80    0.70
  -2  -6   5    2.90    0.60
   2   6  -5    5.30    0.70
  -2   6   5    3.90    0.50
  -1  -6   5  303.37   10.90
  -1  -6   5  304.97   11.30
   1   6  -5  307.77   11.00
   0  -6   5   38.30    2.10
   0   6  -5   40.90    2.10
   1  -6   5   11.30    1.00
  -1   6  -5   11.40    1.10
  -2   6  -5    0.90    0.50
  -3   6  -5   17.20    1.20
  -4   6  -5   27.00    1.40
  -9   0   6    0.90    0.40
  -9   0   6    1.20    0.40
  -8   0   6    2.50    0.60
  -8   0   6    0.50    0.40
  -7   0   6  144.09    5.80
  -7   0   6  150.08    9.60
  -7   0   6  149.88    5.80
  -6   0   6 1225.48   44.00
  -6   0   6 1306.97   44.10
  -6   0   6 1309.37   44.10
  -6   0   6 1270.27   48.70
  -5   0   6  823.92   29.30
  -5   0   6  889.81   33.80
  -5   0   6  827.62   29.30
  -4   0   6 8987.60  319.57
  -3   0   6 5179.08  177.18
  -3   0   6 5109.99  190.08
  -2   0   6 5541.95  203.78
  -1   0   6 1295.07   47.20
  -1   0   6 1333.67   47.00
  -1   0   6 1373.06   60.69
   0   0   6 6894.71  251.67
   1   0   6 2219.28   77.89
   1   0   6 2252.87   95.19
   3   0   6 2144.89   75.29
  -3   0  -6 2126.79   73.49
  -4   0  -6   22.40    2.10
   4   0   6   23.80    2.70
  -4   0  -6   26.10    2.40
  -5   0  -6 1051.69   36.00
   5   0   6 1023.20   38.50
  -5   0  -6  947.41   50.59
  -5   0  -6 1013.90   35.20
   6   0   6    2.40    1.90
  -6   0  -6    1.30    0.50
  -6   0  -6    1.40    0.70
  -7   0  -6   34.20    2.00
  -8   0  -6    0.90    0.40
  -9   1   6  201.68    7.30
  -9   1   6  201.18    7.70
  -8  -1   6  205.48    7.70
  -8  -1   6  200.18    7.60
  -8   1   6  214.38    7.80
  -8   1   6  205.68    7.80
  -8   1   6  207.18    7.70
  -7  -1   6    9.20    4.30
  -7  -1   6   17.80    3.50
  -7  -1   6   15.60    1.10
  -7  -1   6   15.40    1.20
  -7   1   6   19.70    4.10
  -7   1   6   16.10    1.30
  -7   1   6   17.20    1.30
  -6  -1   6  513.75   18.20
  -6  -1   6  493.25   21.30
  -6  -1   6  541.55   23.70
  -6   1   6  532.65   23.60
  -6   1   6  531.95   28.40
  -6   1   6  513.95   18.30
  -6   1   6  494.15   18.20
  -6   1   6  508.05   18.30
  -5  -1   6  546.75   19.60
  -5  -1   6  562.04   22.20
  -5  -1   6  572.24   24.40
  -5   1   6  575.64   24.20
  -5   1   6  540.35   19.80
  -5   1   6  578.14   34.50
  -5   1   6  544.95   19.60
  -4  -1   6  164.78    7.90
  -4  -1   6  169.48    9.50
  -4  -1   6  160.18   13.10
  -4   1   6  179.78   17.70
  -4   1   6  171.88    9.40
  -3  -1   6   69.49    8.90
  -3  -1   6   68.89    3.80
  -3  -1   6   63.69    4.80
  -3   1   6   64.39    4.70
  -3   1   6   67.69   11.30
  -2  -1   6 8634.14  302.97
  -2   1   6 8203.68  305.17
  -1  -1   6  111.39    5.70
  -1  -1   6  126.99   13.20
  -1  -1   6  114.79    6.00
  -1   1   6  103.29   12.90
   0  -1   6  148.09    6.80
   0  -1   6  151.68   15.30
   0  -1   6  143.69    6.90
   0   1   6  145.99    6.70
   0   1   6  138.69   16.00
   1  -1   6 2326.47   96.59
   1  -1   6 2115.69   77.29
   1  -1   6 2110.29   76.79
   1   1   6 2294.77   76.99
   1   1   6 2229.18   96.69
   2  -1   6  748.03   27.60
   2  -1   6  660.63   51.09
   2  -1   6  721.33   26.70
  -2  -1  -6  731.23   26.60
   2   1   6  737.23   26.90
  -2   1  -6  770.72   26.20
   3  -1   6  267.57   12.10
  -3  -1  -6  260.97   10.10
  -3   1  -6  266.87   10.30
  -3   1  -6  279.17   12.10
   3   1   6  258.47   11.20
  -4  -1  -6  338.07   12.50
  -4  -1  -6  337.57   24.30
   4  -1   6  330.07   14.80
  -4  -1  -6  322.47   12.00
  -4   1  -6  339.97   15.20
   4   1   6  311.77   13.70
  -4   1  -6  340.77   12.80
  -5  -1  -6  107.59    4.60
   5  -1   6  110.39    7.20
  -5  -1  -6  102.29    4.90
  -5   1  -6  115.99   14.80
  -5   1  -6  103.59    5.20
   5   1   6   98.79    6.10
  -5   1  -6  108.49    4.40
   6  -1   6    6.80    2.20
  -6  -1  -6    9.00    1.30
  -6  -1  -6    7.30    1.00
  -6   1  -6    9.90    1.50
  -6   1  -6   10.10    1.00
  -7  -1  -6  290.47   10.60
  -7   1  -6  279.47   10.50
  -8  -1  -6   12.40    1.10
  -8   1  -6   11.80    1.00
  -9  -2   6   74.69    2.90
  -9   2   6   72.39    3.10
  -9   2   6   67.49    2.80
  -8  -2   6  155.98    5.80
  -8   2   6  152.18    6.10
  -8   2   6  151.18    5.80
  -8   2   6  154.18    6.00
  -7  -2   6  488.45   17.10
  -7  -2   6  424.36   22.60
  -7   2   6  501.75   17.30
  -7   2   6  492.55   23.70
  -7   2   6  493.15   17.30
  -7   2   6  485.85   17.20
  -6  -2   6    4.10    2.10
  -6   2   6   -3.20    5.30
  -6   2   6    4.30    2.20
  -5  -2   6  161.18   10.40
  -5  -2   6  167.28    6.20
  -5   2   6  162.18    6.40
  -5   2   6  185.68   21.40
  -5   2   6  163.68   10.40
  -5   2   6  159.98    6.40
  -4  -2   6   22.20    3.30
  -4  -2   6   18.10    1.10
  -4   2   6   30.30   11.20
  -4   2   6   16.70    1.20
  -4   2   6   19.60    3.10
  -4   2   6   15.90    1.20
  -3  -2   6  503.35   31.20
  -3  -2   6  549.15   23.20
  -3   2   6  581.14   23.10
  -3   2   6  575.24   38.90
  -2  -2   6 5463.05  186.08
  -2  -2   6 5409.96  201.48
  -2  -2   6 5490.85  184.48
  -2   2   6 5075.29  211.28
  -1  -2   6  994.30   36.40
  -1  -2   6  973.60   37.30
  -1  -2   6 1034.40   52.59
  -1   2   6 1007.10   55.39
   0  -2   6 2551.54  107.39
   0  -2   6 2622.74   87.29
   0  -2   6 2461.65   87.59
   0   2   6 2311.47  108.59
   1  -2   6 3160.98  109.69
   1  -2   6 3258.57  109.59
   1  -2   6 3201.48  133.49
  -1   2  -6 2958.50  107.39
   2  -2   6  321.17   13.80
   2  -2   6  316.77   31.30
   2  -2   6  320.27   14.60
  -2   2  -6  317.27   12.00
   3  -2   6   56.09    4.50
  -3  -2  -6   57.99    2.80
  -3   2  -6   45.50    3.50
  -3   2  -6   57.49    4.10
  -4  -2  -6  203.48    8.20
  -4  -2  -6  205.58    7.90
   4  -2   6  211.68   11.00
  -4   2  -6  211.98    8.70
  -4   2  -6  210.68    7.80
  -4   2  -6  211.78   10.70
  -4   2  -6  199.18    7.70
   5  -2   6  254.77   13.10
  -5  -2  -6  245.18    9.40
  -5   2  -6  277.27   27.70
  -5   2  -6  249.18    9.30
  -5   2  -6  239.68   12.80
  -5   2  -6  250.57    9.30
  -6  -2  -6  170.08    6.70
   6  -2   6  172.08   10.40
  -6   2  -6  152.28   19.40
  -6   2  -6  168.68    6.50
  -7  -2  -6  374.26   13.80
  -7   2  -6  387.16   13.70
  -8  -2  -6   39.60    1.90
  -8   2  -6   37.60    1.80
  -9  -3   6    7.80    0.80
  -9   3   6    7.10    0.70
  -8  -3   6   10.30    0.90
  -8   3   6    9.50    0.80
  -8   3   6    9.30    0.90
  -8   3   6    9.80    1.00
  -7  -3   6  276.27    9.80
  -7   3   6  263.37    9.90
  -7   3   6  266.57   10.00
  -7   3   6  268.07   10.00
  -6  -3   6 1234.08   49.80
  -6  -3   6 1127.79   39.80
  -6  -3   6 1085.49   40.00
  -6   3   6 1343.37   52.79
  -6   3   6 1128.29   40.00
  -6   3   6 1082.29   67.59
  -6   3   6 1107.99   40.00
  -5  -3   6   95.09    4.30
  -5  -3   6   91.39    8.10
  -5  -3   6   97.59    4.00
  -5   3   6   98.99    4.30
  -5   3   6   91.79    4.20
  -5   3   6   94.99   21.20
  -5   3   6  104.29    8.50
  -4  -3   6 1417.36   48.20
  -4  -3   6 1407.16   54.19
  -4  -3   6 1369.06   47.80
  -4   3   6 1397.76   48.10
  -4   3   6 1372.46   53.89
  -4   3   6 1393.56   48.00
  -4   3   6 1379.36   79.49
  -3  -3   6  838.02   29.00
  -3  -3   6  829.62   34.00
  -3  -3   6  805.32   28.50
  -3   3   6  810.12   28.80
  -3   3   6  872.41   33.90
  -3   3   6  793.22   28.70
  -3   3   6  847.02   57.79
  -2  -3   6    0.50    1.10
  -2  -3   6    1.70    0.80
  -2  -3   6    2.40    0.40
  -2   3   6    2.70    0.60
  -2   3   6   -2.80    7.00
  -1  -3   6  124.19   18.30
  -1  -3   6  130.39    8.20
  -1  -3   6  130.59    5.30
  -1  -3   6  134.99    7.00
   0  -3   6  282.67   13.20
   0  -3   6  270.37   27.40
   0  -3   6  265.97    9.80
   0  -3  -6  255.87    9.80
   0  -3   6  273.07   12.00
   0  -3  -6  272.97   11.10
   0   3  -6  247.48    9.90
   1  -3   6  183.78    9.80
   1  -3   6  185.68    9.20
   1  -3   6  153.98   23.40
   1  -3   6  177.48    6.80
  -1   3  -6  175.38    7.10
   2  -3   6 1069.19   40.30
  -2  -3  -6  988.10   36.70
   2  -3   6 1092.09   40.90
   2  -3   6 1039.90   37.00
  -2   3  -6 1066.39   36.90
  -2   3  -6 1152.18   38.00
  -3  -3  -6 1338.27   49.00
   3  -3   6 1418.96   49.20
   3  -3   6 1468.05   53.49
   3  -3   6 1485.55   53.39
  -3   3  -6 1412.96   49.20
  -3   3  -6 1447.66   50.09
  -3   3  -6 1438.06   81.29
   4  -3   6    0.40    1.20
   4  -3   6    0.80    1.30
  -4  -3  -6    0.60    0.60
  -4   3  -6    0.60    0.70
  -4   3  -6    0.30    0.40
  -4   3  -6   -9.30    6.90
  -4   3  -6    0.20    0.40
  -5  -3  -6 1382.16   48.70
   5  -3   6 1361.66   53.99
   5  -3   6 1508.15   55.19
  -5   3  -6 1399.56   48.40
  -5   3  -6 1356.96   48.50
  -5   3  -6 1466.65   90.69
  -6  -3  -6   85.09    3.70
  -6   3  -6   81.79    3.50
  -6   3  -6   82.69    3.40
  -7  -3  -6   34.40    2.50
  -7   3  -6   41.70    1.80
  -8  -4   6    2.90    0.40
  -8   4   6    2.00    0.30
  -8   4   6    3.40    0.60
  -8   4   6    2.10    0.40
  -7  -4   6   30.30    1.60
  -7   4   6   31.90    1.80
  -7   4   6   32.90    2.00
  -7   4   6   29.90    1.70
  -6  -4   6   78.89    3.30
  -6  -4   6   77.29    3.50
  -6   4   6   75.99    3.50
  -6   4   6   78.69    3.50
  -5  -4   6  472.95   16.00
  -5  -4   6  424.26   22.50
  -5  -4   6  465.25   16.40
  -5   4   6  474.25   16.30
  -5   4   6  429.76   22.60
  -5   4   6  357.06   41.60
  -5   4   6  469.35   16.30
  -4  -4   6  859.31   30.00
   4  -4  -6  816.22   33.60
  -4  -4   6  840.52   29.50
  -4  -4   6  839.32   36.70
  -4   4   6  847.92   29.80
  -4   4   6  890.91   66.49
  -4   4   6  851.01   36.50
  -4   4   6  879.91   29.90
  -3  -4   6  443.36   16.10
  -3  -4   6  453.45   22.00
  -3  -4   6  427.46   15.60
   3  -4  -6  439.16   18.90
  -3   4   6  382.56   48.10
  -3   4   6  438.46   15.80
  -3   4   6  470.85   21.80
  -2  -4   6  376.16   13.40
  -2   4   6  373.26   13.50
  -2   4   6  381.76   18.50
  -1  -4   6  224.58   13.30
   1  -4  -6  220.68   11.20
  -1  -4   6  227.98    8.30
  -1  -4   6  235.68    8.80
  -1   4   6  232.08   12.80
   0  -4   6  141.69    5.50
   0  -4   6  147.79    5.90
   0  -4   6  152.68    8.20
   0  -4   6  137.79    9.60
   1  -4   6  733.03   24.30
   1  -4   6  633.94   30.80
  -1  -4  -6  693.53   24.10
   1  -4   6  752.22   27.80
  -1   4  -6  618.54   24.90
   2  -4   6   49.70    5.00
  -2  -4  -6   54.49    2.60
   2  -4   6   57.39    5.60
   2  -4   6   57.49    2.70
  -2   4  -6   57.19    2.70
   3  -4   6 1406.26   53.99
   3  -4   6 1292.27   48.20
   3  -4   6 1446.76   52.99
  -3  -4  -6 1360.16   48.10
  -3   4  -6 1415.86   48.30
  -3   4  -6 1523.35   90.89
  -4  -4  -6  313.07   11.60
  -4   4  -6  296.87   11.50
  -4   4  -6  420.96   50.19
  -5  -4  -6    4.80    0.70
  -5   4  -6    3.40    0.60
  -6  -4  -6   61.09    2.70
  -6   4  -6   62.59    2.60
  -7  -4  -6    4.70    0.50
  -6  -5   6    6.50    0.70
  -6   5   6    7.00    0.80
  -5  -5   6    2.90    0.60
  -5  -5   6    3.90    0.60
   5   5  -6    4.20    0.60
  -5   5   6    4.40    0.70
  -4  -5   6   15.60    1.10
  -4  -5   6   15.90    1.40
  -4   5   6   14.80    1.20
   4   5  -6   16.20    1.10
  -3  -5   6  229.38    8.40
  -3  -5   6  218.68    9.00
   3   5  -6  237.28    8.60
  -3   5   6  234.08    8.60
  -2  -5   6  227.08    8.40
  -2  -5   6  230.48    8.90
  -2  -5   6  207.88   14.30
  -2   5   6  249.48   17.60
   2   5  -6  226.98    8.50
  -2   5   6  231.08    8.70
  -1  -5   6  985.20   35.00
  -1  -5   6 1009.00   34.50
  -1  -5   6 1004.80   42.20
   1   5  -6 1047.50   34.80
  -1   5   6  947.61   40.60
   0  -5   6  220.98    8.40
   0  -5   6  208.98   13.80
   0  -5   6  218.18    8.00
   0   5   6  212.68   12.60
   0   5  -6  216.08    8.20
   1  -5   6  950.10   32.50
   1  -5   6  900.51   40.40
   2  -5   6   85.89    3.70
  -2   5  -6   84.29    3.80
  -3  -5  -6   13.50    1.10
  -3   5  -6   12.80    1.20
  -4  -5  -6   15.80    1.20
  -4   5  -6   16.30    1.20
  -5  -5  -6    0.90    0.30
  -5   5  -6    1.20    0.40
  -4  -6   6   13.30    0.90
  -4   6   6   12.00    0.90
  -3  -6   6  291.27   10.20
  -3  -6   6  269.97    9.60
   3   6  -6  268.17    9.60
  -3   6   6  251.47    9.60
  -2  -6   6    2.20    0.90
  -2  -6   6    3.90    0.70
   2   6  -6    2.30    0.80
  -1  -6   6  193.38    7.70
  -1  -6   6  221.08    7.60
   1   6  -6  194.28    7.50
   0  -6   6   53.79    2.70
   0   6  -6   58.49    2.60
   1  -6   6   14.80    1.10
  -1  -6  -6   15.20    0.90
  -1   6  -6   15.10    1.10
  -2   6  -6   30.70    2.00
  -3   6  -6   13.60    1.00
  -9   0   7    0.60    0.30
  -9   0   7   -0.30    0.50
  -8   0   7    0.80    0.40
  -8   0   7   -0.30    0.40
  -7   0   7    0.60    0.50
  -7   0   7   -0.70    0.30
  -7   0   7   -1.30    1.90
  -6   0   7    0.10    0.40
  -6   0   7    1.00    0.40
  -6   0   7    2.60    0.60
  -6   0   7    1.40    1.40
  -5   0   7    6.30    2.20
  -5   0   7   -0.60    1.00
  -5   0   7   -2.00    2.40
  -5   0   7    0.70    0.50
  -5   0   7   -0.40    0.30
  -4   0   7    1.90    3.50
  -4   0   7   -0.30    0.80
  -3   0   7   -0.20    0.60
  -3   0   7    0.10    0.80
  -3   0   7   -2.80    2.40
  -2   0   7    0.30    0.50
  -2   0   7    0.40    0.60
  -2   0   7   -1.90    2.30
  -1   0   7    9.80    4.30
   0   0   7    2.50    0.90
   1   0   7    1.20    5.50
  -1   0  -7    0.30    0.30
   1   0   7    0.50    0.50
  -2   0  -7    0.20    0.30
   2   0   7    0.00    0.50
  -3   0  -7    0.10    0.40
   3   0   7    0.30    0.70
   4   0   7    2.90    1.10
  -5   0  -7    0.30    0.50
  -5   0  -7    0.30    0.60
   5   0   7   -1.00    0.80
  -6   0  -7    0.10    0.40
  -6   0  -7   -0.40    0.50
  -7   0  -7   -0.20    0.40
  -8   0  -7    0.00    0.40
  -9  -1   7   57.89    2.40
  -9   1   7   49.90    2.30
  -9   1   7   50.99    2.30
  -8  -1   7   57.79    2.60
  -8   1   7   54.19    2.70
  -8   1   7   54.39    2.60
  -7  -1   7    3.60    2.10
  -7  -1   7    2.50    0.60
  -7   1   7    4.10    0.80
  -7   1   7   -1.40    2.20
  -7   1   7    3.00    0.70
  -7   1   7    2.00    0.60
  -6  -1   7  150.88   11.30
  -6  -1   7  171.08    6.60
  -6   1   7  147.49    6.20
  -6   1   7  138.39   14.50
  -6   1   7  149.59   10.40
  -6   1   7  161.58    6.60
  -6   1   7  188.28    7.50
  -5  -1   7  153.48    5.80
  -5  -1   7  155.68    9.80
  -5  -1   7  146.59    7.90
  -5   1   7  146.69   17.00
  -5   1   7  152.88    5.90
  -5   1   7  162.38    9.70
  -5   1   7  151.48    5.90
  -4  -1   7 2015.10   70.89
  -4  -1   7 1997.00   68.19
  -4  -1   7 1954.20   80.29
  -4   1   7 2050.79   87.89
  -4   1   7 1678.63   76.49
  -4   1   7 1909.11   66.69
  -3  -1   7 1555.44   57.79
  -3  -1   7 1625.94   70.39
  -3  -1   7 1543.85   55.59
  -3   1   7 1626.64   57.59
  -3   1   7 1584.84   74.59
  -2  -1   7 2685.23   96.39
  -2  -1   7 2692.93   94.39
  -2  -1   7 2800.12  111.39
  -2  -1   7 2777.92   95.79
  -2   1   7 2761.72  114.89
  -1  -1   7  827.22   30.90
  -1  -1   7  850.21   45.20
  -1  -1   7  812.42   30.70
  -1   1   7  839.72   46.90
   0  -1   7 9999.00  348.77
   0   1   7 9163.38  349.07
   1  -1   7 2240.38   77.09
   1  -1   7 2260.77   99.59
  -1  -1  -7 2183.48   75.69
   1  -1   7 2309.47   77.99
   1   1   7 2326.67   77.39
  -1   1  -7 1956.60   76.59
  -2  -1  -7   86.89    3.60
   2  -1   7   77.19    5.10
  -2   1  -7   76.29    3.70
   2   1   7   77.19    4.60
   3  -1   7 1463.35   52.29
  -3  -1  -7 1398.36   49.50
   3  -1   7 1450.45   50.69
  -3  -1  -7 1380.46   49.10
  -3   1  -7 1483.25   49.90
   3   1   7 1386.26   51.09
  -4  -1  -7    7.20    1.10
  -4  -1  -7    7.30    0.90
   4  -1   7    6.10    1.90
   4  -1   7    5.40    0.80
  -4   1  -7    8.20    0.90
   4   1   7    6.40    1.50
  -4   1  -7    7.90    1.30
   5  -1   7   51.19    4.90
  -5  -1  -7   54.29    2.80
   5  -1   7   53.19    2.60
  -5  -1  -7   51.39    3.10
  -5   1  -7   54.29    3.40
  -5   1  -7   57.59    2.70
   6  -1   7    3.80    1.80
  -6  -1  -7    4.30    0.80
  -6  -1  -7    5.30    1.00
  -6   1  -7    5.40    1.10
  -7  -1  -7   15.90    1.30
  -7   1  -7   16.60    1.30
  -8  -1  -7    7.00    0.80
  -8   1  -7    6.30    0.70
  -9  -2   7   79.69    3.10
  -9   2   7   80.59    3.30
  -9   2   7   77.49    3.00
  -8  -2   7  501.75   17.80
  -8   2   7  517.15   18.00
  -8   2   7  496.15   17.90
  -8   2   7  514.05   17.90
  -7  -2   7  162.68   12.20
  -7  -2   7  186.28    6.90
  -7   2   7  180.18    7.00
  -7   2   7  180.18    7.10
  -7   2   7  186.08    7.00
  -6  -2   7 1300.07   45.00
  -6  -2   7 1308.37   51.89
  -6   2   7 1321.17   45.20
  -6   2   7 1255.27   67.29
  -6   2   7 1294.77   45.30
  -6   2   7 1362.16   52.19
  -5  -2   7  106.09    8.30
  -5  -2   7  102.19    4.40
  -5  -2   7  106.99    4.20
  -5   2   7  107.39    8.30
  -5   2   7  105.99    4.40
  -5   2   7   84.79   16.90
  -5   2   7  104.39    4.40
  -4  -2   7  138.49   13.60
  -4  -2   7  146.29    9.20
  -4  -2   7  128.39    5.10
  -4  -2   7  127.49    5.30
  -4   2   7  136.59    8.80
  -4   2   7  131.59    5.30
  -4   2   7  134.29    5.20
  -4   2   7  129.19   20.00
  -3  -2   7   46.20    4.60
  -3  -2   7   54.19    9.60
  -3   2   7   44.20    4.30
  -3   2   7   55.79   13.40
  -2  -2   7  140.89    8.20
  -2  -2   7  140.49   16.60
  -2  -2   7  141.19    7.30
  -2   2   7  140.99    8.10
  -2   2   7  121.39   18.70
  -1  -2   7 4141.59  158.98
  -1  -2   7 3893.01  137.39
  -1  -2   7 3913.51  136.49
  -1   2   7 3798.02  162.08
   0  -2   7 1176.08   61.79
   0  -2   7 1150.88   41.90
   0  -2   7 1134.99   41.40
   0  -2  -7 1108.49   39.10
   0   2  -7 1084.09   39.10
   1  -2   7   91.69    5.70
  -1  -2  -7   91.09    4.00
   1  -2   7   72.49   15.50
   1  -2   7   98.29    5.90
  -1   2  -7   90.49    4.10
  -2  -2  -7 3087.89  106.49
   2  -2   7 3050.69  108.99
   2  -2   7 3180.58  109.59
  -2   2  -7 3136.49  106.89
  -3  -2  -7   86.69    4.00
   3  -2   7   84.19    3.70
   3  -2   7   86.49    7.40
   3  -2   7   92.29    6.30
  -3   2  -7   84.79    3.60
  -3   2  -7   90.19    4.40
  -4  -2  -7    0.50    0.60
  -4  -2  -7   -8.20    8.10
   4  -2   7   -0.80    1.10
   4  -2   7   -0.70    1.60
  -4  -2  -7    0.10    0.40
   4  -2   7    0.10    0.30
  -4   2  -7    0.10    0.60
  -4   2  -7    1.10    0.50
  -4   2  -7    0.50    0.40
   5  -2   7  118.49    8.40
  -5  -2  -7  125.09    5.10
  -5   2  -7   90.69   18.10
  -5   2  -7  127.99    6.00
  -5   2  -7  121.29    4.90
  -6  -2  -7    0.30    0.60
  -6   2  -7    0.40    0.40
  -7  -2  -7  482.95   16.70
  -7   2  -7  453.45   16.50
  -8  -2  -7    0.50    0.30
  -8   2  -7    0.60    0.30
  -8  -3   7   53.39    2.40
  -8   3   7   56.39    2.50
  -8   3   7   54.99    2.40
  -8   3   7   53.49    2.50
  -7  -3   7  130.59    5.20
  -7   3   7  134.19    5.30
  -7   3   7  132.09    5.40
  -7   3   7  135.29    5.30
  -6  -3   7  687.83   24.40
  -6  -3   7  702.03   24.20
  -6  -3   7  665.63   31.00
  -6   3   7  810.82   56.39
  -6   3   7  661.53   31.00
  -6   3   7  694.13   24.40
  -6   3   7  674.03   24.40
  -5  -3   7  683.13   24.10
  -5  -3   7  667.33   30.40
  -5  -3   7  691.53   23.80
  -5   3   7  671.33   24.00
  -5   3   7  680.33   24.10
  -5   3   7  681.03   51.89
  -5   3   7  687.93   30.70
  -4  -3   7  859.91   36.00
  -4  -3   7  833.62   29.90
  -4  -3   7  852.61   29.60
  -4   3   7  865.81   29.90
  -4   3   7  897.71   36.20
  -4   3   7  834.02   59.89
  -4   3   7  827.32   29.70
  -3  -3   7  436.36   15.40
  -3  -3   7  430.36   20.60
  -3  -3   7  435.46   15.80
  -3   3   7  439.76   15.60
  -3   3   7  444.06   20.40
  -3   3   7  454.05   41.00
  -3   3   7  426.06   15.60
  -2  -3   7   22.50    1.50
  -2  -3   7   26.00    9.60
  -2  -3   7   21.20    3.40
  -2  -3   7   22.00    1.30
  -2  -3   7   21.40    2.60
  -2   3   7   22.30    3.20
  -2   3   7   21.50    1.30
  -2   3   7   29.30   13.70
  -1  -3   7  454.35   20.30
  -1  -3   7  452.45   22.00
   1  -3  -7  440.46   16.30
  -1  -3   7  439.76   16.10
  -1   3   7  490.95   52.59
   0  -3   7   37.70    3.70
   0  -3  -7   43.10    2.20
   0  -3   7   45.00    4.40
   0   3  -7   37.70    2.20
   1  -3   7   86.59    6.30
   1  -3   7   80.59    5.60
   1  -3   7   52.29   16.50
  -1   3  -7   79.69    3.80
   2  -3   7  104.59    7.30
   2  -3   7  110.39    7.10
   2  -3   7  118.79    4.60
  -2   3  -7  102.59    5.00
  -2   3  -7  110.69    4.50
   3  -3   7    3.90    1.40
   3  -3   7    5.20    0.80
  -3   3  -7    5.10    1.10
  -3   3  -7    5.30    0.80
   4  -3   7  431.76   19.60
   4  -3   7  417.36   19.30
  -4  -3  -7  417.26   15.20
  -4   3  -7  400.66   39.40
  -4   3  -7  413.26   15.00
  -4   3  -7  431.66   16.10
  -5  -3  -7  671.23   24.10
  -5   3  -7  691.43   23.40
  -5   3  -7  665.13   72.49
  -5   3  -7  656.53   23.60
  -6  -3  -7   25.40    1.70
  -6   3  -7   24.70    1.40
  -7  -3  -7   48.80    2.30
  -7   3  -7   51.09    2.20
  -8  -4   7    7.50    0.60
  -8   4   7    7.40    0.50
  -8   4   7    8.10    0.70
  -7  -4   7    0.70    0.40
  -7   4   7    0.50    0.40
  -7   4   7    0.30    0.40
  -7   4   7    0.20    0.50
  -6  -4   7   11.70    1.10
  -6  -4   7   11.90    1.10
  -6   4   7   10.70    1.10
  -6   4   7   11.30    1.20
  -5  -4   7   12.40    1.50
  -5  -4   7   13.50    1.70
  -5   4   7   15.20    2.00
  -4  -4   7 1322.87   46.50
  -4  -4   7 1320.47   53.79
  -4  -4   7 1344.07   46.00
  -4   4   7 1301.37   85.99
  -4   4   7 1387.46   53.79
  -4   4   7 1336.57   46.20
  -3  -4   7  415.86   15.30
  -3  -4   7  426.06   21.40
  -3  -4   7  412.86   14.80
  -3   4   7  414.36   15.00
  -3   4   7  462.35   51.49
  -3   4   7  402.96   20.60
  -2  -4   7 1428.16   48.30
   2  -4  -7 1364.06   48.80
  -2  -4   7 1397.26   55.39
  -2  -4   7 1425.96   48.80
  -2   4   7 1392.96   48.40
  -2   4   7 1427.36   54.59
  -1  -4   7    1.30    0.50
  -1  -4   7    0.80    0.50
  -1  -4   7   -0.80    1.70
  -1  -4   7    0.80    1.60
  -1   4   7    0.80    1.60
   0  -4   7   39.90    3.90
   0  -4   7   41.50    5.10
   0  -4   7   42.50    2.30
   0  -4   7   42.80    2.00
   1  -4   7  127.19    5.30
   1  -4   7  122.99    9.10
   1  -4   7  135.89    8.20
  -1   4  -7  130.89    5.20
   2  -4   7   23.00    4.00
   2  -4   7   21.70    1.50
   2  -4   7   14.80    2.80
  -2   4  -7   20.40    1.50
   3  -4   7 1083.89   37.30
   3  -4   7 1054.29   43.60
  -3   4  -7 1087.49   37.30
  -3   4  -7 1073.99   81.89
  -4  -4  -7    0.20    0.50
  -4   4  -7   -0.20    0.40
  -5  -4  -7  274.97   10.00
  -5   4  -7  268.27    9.90
  -6  -4  -7   -0.10    0.30
  -6   4  -7    0.40    0.30
  -6  -5   7    1.80    0.40
  -6   5   7    1.70    0.40
   5  -5  -7    6.50    1.20
  -5  -5   7    5.70    0.70
   5   5  -7    5.50    0.70
  -5   5   7    5.90    0.70
   4  -5  -7   36.70    2.20
  -4  -5   7   40.10    2.30
  -4  -5   7   41.00    2.00
  -4   5   7   42.60    2.10
  -3  -5   7    7.10    1.10
  -3  -5   7    6.70    0.80
  -3   5   7    6.30    0.80
   3   5  -7    5.90    0.80
  -2  -5   7  610.14   21.00
  -2  -5   7  508.25   22.40
  -2   5   7  605.44   21.00
   2   5  -7  683.13   21.60
  -1  -5   7   26.60    2.00
   1   5  -7   28.70    1.90
   0  -5   7  715.33   24.60
   0  -5   7  641.34   23.40
   0   5  -7  671.83   23.80
   1  -5   7  640.74   22.40
  -1   5  -7  625.34   22.40
   2  -5   7   22.10    1.40
  -2   5  -7   22.30    1.60
  -3  -5  -7  105.99    4.20
  -3   5  -7   99.19    4.20
  -4  -5  -7    9.50    0.80
  -4   5  -7    8.30    0.90
  -5  -5  -7   16.20    0.90
  -5   5  -7   15.20    0.90
  -4  -6   7    2.10    0.40
  -4   6   7    1.70    0.30
  -3  -6   7   10.70    1.00
  -3  -6   7   12.10    0.90
   3   6  -7   11.70    0.80
  -2  -6   7   27.10    1.40
  -2  -6   7   27.20    1.90
   2   6  -7   26.80    1.50
  -1  -6   7  186.88    7.10
   1   6  -7  172.08    6.70
   0  -6   7  135.19    5.10
   0   6  -7  121.59    5.00
  -1  -6  -7  109.49    4.10
   1  -6   7  108.09    4.20
  -1   6  -7  100.09    4.40
  -2  -6  -7  134.19    5.00
  -2   6  -7  138.19    5.20
  -3   6  -7   12.70    0.90
   9   0  -8   53.69    2.80
  -9   0   8   66.59    2.70
  -8   0   8    0.50    0.50
  -8   0   8    0.10    0.40
  -7   0   8   16.60    3.90
  -7   0   8   24.70    1.60
  -7   0   8   25.50    1.50
  -6   0   8  105.29    4.30
  -6   0   8  106.09    7.50
  -6   0   8  107.49    4.40
  -5   0   8   50.99    4.60
  -5   0   8   47.70    9.00
  -5   0   8   46.10    2.20
  -5   0   8   45.50    2.30
  -5   0   8   53.39    4.90
  -4   0   8 1039.40   39.90
  -4   0   8 1180.98   44.00
  -4   0   8 1152.98   43.30
  -4   0   8 1148.29   40.00
  -4   0   8 1325.47   64.19
  -3   0   8   58.69    4.50
  -3   0   8   59.79    4.40
  -2   0   8 6411.46  213.68
  -2   0   8 6233.28  233.78
  -2   0   8 6015.80  213.68
  -1   0   8 1170.98   42.70
  -1   0   8 1242.38   61.49
   1   0  -8 1179.98   41.80
  -1   0   8 1204.78   43.60
   0   0   8  467.85   19.10
   0   0  -8  483.85   17.40
   0   0   8  483.45   34.80
   0   0   8  498.95   17.70
   1   0   8 1234.28   43.80
   1   0   8 1151.28   64.09
  -1   0  -8 1202.68   41.60
  -2   0  -8  166.08    6.70
   2   0   8  168.38    8.50
  -3   0  -8  359.46   13.40
   3   0   8  361.56   15.60
  -3   0  -8  344.37   12.90
   4   0   8  892.51   34.60
  -4   0  -8  899.11   31.90
  -4   0  -8  883.21   31.10
  -5   0  -8  738.13   27.60
   5   0   8  752.42   30.50
  -5   0  -8  781.22   26.70
   6   0   8    0.20    0.30
  -6   0  -8    0.90    0.60
  -6   0  -8    0.60    0.60
  -7   0  -8   17.30    1.30
  -8   0  -8   30.60    1.50
  -9  -1   8   16.10    1.00
  -9   1   8   15.90    1.10
  -9   1   8   16.50    1.00
  -8  -1   8  381.46   13.50
  -8   1   8  376.06   13.60
  -8   1   8  381.26   13.60
  -7  -1   8   90.09    3.90
  -7  -1   8   87.89    8.20
  -7   1   8   96.39    4.00
  -7   1   8   90.79    8.20
  -7   1   8   92.29    4.00
  -7   1   8   94.79    4.00
  -6  -1   8  179.08   11.60
  -6  -1   8  181.48    6.90
  -6   1   8  185.78    7.00
  -6   1   8  172.18   11.30
  -6   1   8  194.28   18.30
  -6   1   8  181.08    7.00
  -6   1   8  185.78    7.00
  -5  -1   8   19.70    3.30
  -5  -1   8   15.80    1.20
  -5  -1   8   11.00    3.80
  -5   1   8   17.30    1.20
  -5   1   8   19.00    1.30
  -5   1   8   23.40    7.80
  -4  -1   8  205.18    9.40
  -4  -1   8  217.78   11.60
  -4  -1   8  210.68    7.80
  -4  -1   8  192.28   17.90
  -4   1   8  225.28   11.60
  -4   1   8  215.38    8.00
  -4   1   8  187.98   21.60
  -4   1   8  217.68    8.00
  -3  -1   8  347.97   15.70
  -3  -1   8  346.27   26.30
  -3  -1   8  339.67   13.50
  -3   1   8  373.16   29.70
  -3   1   8  330.57   15.20
   3   1  -8  327.87   12.50
  -2  -1   8  256.87   22.80
  -2  -1   8  260.57   12.00
  -2  -1   8  261.27   12.40
  -2  -1   8  260.87   10.60
  -2   1   8  330.97   27.10
  -1  -1   8 1288.27   44.50
  -1  -1   8 1110.79   60.39
  -1  -1   8 1271.97   44.50
   1  -1  -8 1228.48   42.10
   1   1  -8 1232.98   42.40
  -1   1   8 1122.79   62.49
   0  -1   8 2044.70   94.29
   0  -1  -8 2045.70   70.79
   0  -1   8 2082.69   73.29
   0  -1   8 2061.69   72.69
   0   1   8 2150.28   72.99
   0   1  -8 1976.40   70.79
   0   1   8 2094.59   97.09
   1  -1   8    5.50    1.30
   1  -1   8    5.00    1.40
  -1  -1  -8    4.90    0.70
   1  -1   8    9.90    7.60
   1   1   8    4.70    1.10
  -1   1  -8    3.50    0.70
  -2  -1  -8  411.86   15.60
   2  -1   8  495.35   17.50
   2  -1   8  417.96   18.10
   2   1   8  412.16   17.30
  -2   1  -8  421.36   15.80
  -3  -1  -8  643.24   23.20
  -3  -1  -8  630.94   22.60
   3  -1   8  665.23   23.40
   3  -1   8  665.23   26.20
  -3   1  -8  616.94   22.60
  -3   1  -8  647.04   23.40
   4  -1   8    4.10    1.70
  -4  -1  -8    4.20    0.80
  -4  -1  -8    6.00    0.90
   4  -1   8    3.80    0.70
  -4   1  -8    5.20    0.80
   4   1   8    8.70    1.80
   5  -1   8    0.10    0.30
  -5  -1  -8    0.20    0.50
  -5  -1  -8    1.40    0.60
   5  -1   8   -1.20    1.20
  -5   1  -8    0.40    0.40
  -5   1  -8    1.00    0.70
  -6  -1  -8  117.69    5.40
  -6  -1  -8  122.89    5.30
  -6   1  -8  118.49    5.80
  -6   1  -8  124.59    5.00
  -7  -1  -8   41.50    2.20
  -7   1  -8   46.20    2.20
  -8  -1  -8    0.00    0.20
  -8   1  -8   -0.10    0.30
  -9  -2   8   18.10    1.00
  -9   2   8   16.50    1.10
  -9   2   8   17.90    1.00
  -8  -2   8    4.90    0.70
  -8   2   8    4.10    0.70
  -8   2   8    4.80    0.80
  -8   2   8    5.70    0.80
  -7  -2   8  210.48    7.60
  -7   2   8  167.58    7.30
  -7   2   8  204.28    7.70
  -7   2   8  151.18    7.20
  -6  -2   8  584.14   21.10
  -6  -2   8  617.64   27.90
  -6   2   8  605.54   21.30
  -6   2   8  608.74   21.40
  -6   2   8  594.34   27.60
  -6   2   8  608.04   41.70
  -5  -2   8  342.77   12.60
  -5   2   8  349.27   12.90
  -5   2   8  326.87   32.00
  -5   2   8  366.06   23.30
  -4  -2   8  224.78    8.60
  -4  -2   8  266.27   21.00
  -4  -2   8  230.08   13.10
  -4  -2   8  230.08    8.90
  -4   2   8  233.08    8.80
  -4   2   8  243.48   13.10
  -4   2   8  275.17   28.40
  -4   2   8  230.68    8.80
  -3  -2   8  109.29    4.40
  -3  -2   8  113.09    7.80
  -3  -2   8  111.49    4.70
  -3  -2   8  130.09   16.20
  -3   2   8  130.29    5.20
  -3   2   8  111.59    4.50
   3   2  -8  111.49    4.60
  -3   2   8  112.29    7.60
  -3   2   8   96.59   18.10
  -2  -2   8    9.00    6.10
   1  -2  -8   17.00    1.40
  -1  -2   8   20.00    2.80
  -1  -2   8   18.90    7.60
  -1  -2   8   19.30    2.50
  -1   2   8    9.70    8.50
   1   2  -8   17.20    1.30
   0  -2   8 1924.01   69.79
   0  -2   8 1978.70   69.89
   0  -2  -8 1937.21   66.79
   0  -2   8 1977.10   95.19
   0   2  -8 1897.51   66.79
  -1  -2  -8  786.42   28.30
   1  -2   8  806.02   54.19
   1  -2   8  837.42   31.40
   1  -2   8  819.42   31.10
   1  -2   8  807.22   28.20
  -1   2  -8  790.32   28.60
   2  -2   8 1440.46   53.29
   2  -2   8 1494.75   50.99
  -2  -2  -8 1457.45   50.59
   2  -2   8 1467.95   53.99
  -2   2  -8 1466.55   50.09
  -2   2  -8 1438.66   50.99
   3  -2   8  223.48    8.50
   3  -2   8  216.58   10.80
   3  -2   8  234.08   12.00
  -3  -2  -8  224.58    8.80
  -3   2  -8  230.58    9.30
  -3   2  -8  222.58    8.30
  -4  -2  -8    0.10    0.50
   4  -2   8    2.10    1.50
  -4  -2  -8    0.20    0.40
  -4   2  -8    0.00    0.50
  -4   2  -8    0.00    0.50
   5  -2   8    5.80    2.20
  -5  -2  -8    6.10    1.00
  -5   2  -8    6.00    0.80
  -5   2  -8   10.40    9.40
  -5   2  -8    5.10    1.20
  -6  -2  -8    0.20    0.50
  -6   2  -8    1.70    0.50
  -6   2  -8    0.60    0.70
  -7  -2  -8   50.49    2.40
  -7   2  -8   49.20    2.20
  -8  -3   8    0.00    0.40
  -8   3   8    0.70    0.40
  -8   3   8    0.10    0.40
  -8   3   8    0.30    0.40
  -7  -3   8    9.50    1.00
  -7   3   8   10.00    1.00
  -7   3   8    8.40    1.00
  -7   3   8    8.60    1.00
  -6  -3   8  100.59    4.80
  -6  -3   8  112.09    4.40
  -6   3   8  109.49    4.60
  -6   3   8  110.79    4.60
  -5  -3   8  641.44   22.30
  -5  -3   8  633.04   22.70
  -5  -3   8  654.03   29.60
  -5   3   8  644.24   22.70
  -5   3   8  640.44   29.10
  -5   3   8  605.34   50.89
  -5   3   8  639.04   22.60
  -4  -3   8 1607.44   56.09
  -4  -3   8 1616.94   55.59
  -4  -3   8 1635.24   62.79
  -4   3   8 1635.34   55.89
  -4   3   8 1601.24   92.49
  -4   3   8 1651.03   62.59
  -4   3   8 1608.24   55.79
  -3  -3   8    2.10    1.70
  -3  -3   8    3.60    0.80
  -3   3   8    9.10   12.50
  -3   3   8    1.80    1.40
  -2  -3   8 1798.32   87.49
  -2  -3   8 1671.03   58.59
  -2  -3   8 1752.32   64.39
  -2  -3   8 1657.33   58.19
  -2  -3   8 1688.53   61.59
  -2   3   8 1594.34   59.09
  -2   3   8 1739.93   63.99
  -2   3   8 1750.42   98.49
  -1  -3   8   60.99    5.80
  -1  -3   8   58.09    3.00
  -1  -3   8   62.59    4.80
  -1  -3   8   72.99    3.10
   0  -3   8    0.10    1.00
   0  -3   8   -0.20    8.60
   0  -3   8    1.90    0.50
   1  -3   8   87.39    6.60
  -1  -3  -8   75.79    3.40
   1  -3   8   75.89    5.80
   1  -3   8   76.29    3.40
  -1   3  -8   72.29    3.80
   2  -3   8  112.29    7.80
   2  -3   8  121.59    7.80
  -2   3  -8  130.09    4.80
  -2   3  -8  111.09    5.40
   3  -3   8   66.29    5.80
   3  -3   8   66.39    3.10
   3  -3   8   62.59    6.00
  -3   3  -8   70.29    3.00
  -3   3  -8   61.19    4.60
  -4  -3  -8  463.15   15.60
   4  -3   8  432.46   23.40
   4  -3   8  411.66   15.80
  -4   3  -8  436.46   16.40
  -4   3  -8  358.76   40.60
  -4   3  -8  430.96   15.30
  -5  -3  -8  339.37   12.40
  -5   3  -8  336.57   13.20
  -5   3  -8  332.47   12.00
  -6  -3  -8    0.60    0.50
  -7  -3  -8  132.19    5.00
  -7  -4   8   24.10    1.50
  -7   4   8   19.80    1.20
  -7   4   8   18.10    1.20
  -6  -4   8   20.30    1.40
  -6  -4   8   19.90    1.30
  -6   4   8   18.90    1.30
  -5  -4   8  103.79    4.60
  -5  -4   8  109.09    4.30
  -5   4   8  106.19    4.40
  -4  -4   8    8.40    3.30
  -4  -4   8   16.30    1.50
  -4  -4   8   14.70    1.20
  -4   4   8   21.50   22.10
  -4   4   8   12.50    3.20
  -3  -4   8  519.95   18.50
  -3  -4   8  526.05   19.00
  -3  -4   8  525.95   25.30
  -3   4   8  534.05   25.10
  -3   4   8  563.44   62.19
  -3   4   8  516.35   18.60
  -2  -4   8 1315.87   46.70
  -2  -4   8 1378.76   54.29
  -2  -4   8 1374.66   47.30
   2  -4  -8 1340.47   47.30
  -2   4   8 1362.76   46.80
  -2   4   8 1400.96   53.59
  -1  -4   8   18.20    4.30
   1  -4  -8   14.50    1.40
  -1  -4   8   16.30    1.40
  -1  -4   8   14.10    1.10
  -1   4   8   14.30    3.30
   0  -4   8  474.65   17.20
   0  -4   8  475.75   20.50
   0  -4   8  474.85   22.70
   1  -4   8   11.90    3.20
   1  -4   8   12.70    2.80
   1  -4   8   16.50    1.40
  -1   4  -8   17.50    1.80
  -1   4  -8   14.30    1.30
   2  -4   8   17.90    3.20
   2  -4   8   15.00    3.40
   2  -4   8   19.70    1.40
  -2   4  -8   19.90    1.50
  -2   4  -8   18.60    1.70
   3  -4   8  187.48    7.50
  -3   4  -8  211.48    8.10
  -4  -4  -8   36.20    2.00
  -4   4  -8   35.20    1.90
  -5  -4  -8   34.90    1.90
  -5   4  -8   34.10    1.70
  -6  -4  -8   81.79    3.30
  -6  -5   8    5.40    0.60
  -6   5   8    5.40    0.60
  -5  -5   8   19.20    1.10
   5  -5  -8   16.90    1.30
  -5  -5   8   20.10    1.50
   5   5  -8   17.70    1.10
  -5   5   8   17.80    1.10
  -4  -5   8   29.50    1.90
  -4  -5   8   29.10    1.50
  -4   5   8   31.10    1.60
  -3  -5   8   35.20    1.70
  -3  -5   8   30.20    2.00
  -3   5   8   36.60    1.80
  -2  -5   8   62.79    3.20
  -2  -5   8   67.09    2.70
   2   5  -8   58.59    2.90
  -1  -5   8  296.47   10.70
   1   5  -8  304.07   11.00
   0  -5   8  522.95   18.40
   0   5  -8  501.75   18.20
   1  -5   8   97.69    4.30
  -1   5  -8  102.29    4.20
   2  -5   8  274.07    9.70
  -2   5  -8  252.07    9.70
  -3  -5  -8   28.50    1.60
  -3   5  -8   21.70    1.50
  -4  -5  -8    3.40    0.50
  -4   5  -8    3.30    0.50
  -5  -5  -8   21.80    1.10
  -5   5  -8   19.80    1.00
  -4  -6   8    0.40    0.30
  -3  -6   8   25.20    1.30
  -3  -6   8   21.60    1.40
   3   6  -8   23.80    1.20
  -2  -6   8   15.60    1.10
  -2  -6   8   12.90    0.90
   2   6  -8   14.80    1.00
  -1  -6   8    3.80    0.60
   1   6  -8    5.20    0.70
   0  -6   8    6.30    0.70
   0   6  -8    8.40    0.80
  -1  -6  -8   12.90    1.00
   1  -6   8   15.10    0.90
  -1   6  -8   15.70    1.10
  -2  -6  -8  162.58    6.20
  -2   6  -8  176.88    6.30
  -9   0   9    0.30    0.40
  -8   0   9   -0.10    0.40
  -7   0   9    0.20    0.40
  -7   0   9    0.00    0.40
  -6   0   9   -1.00    1.70
  -6   0   9   -0.60    0.40
  -5   0   9   -0.30    0.40
  -5   0   9   -1.00    3.70
  -5   0   9   -0.60    0.70
  -5   0   9    2.10    1.50
  -5   0   9    0.20    1.20
  -4   0   9    0.00    0.80
  -4   0   9   -1.50    0.90
  -4   0   9   -0.20    0.30
  -4   0   9   -2.30    3.40
  -3   0   9   -2.10    3.90
  -3   0   9    0.80    0.70
  -3   0   9    0.70    0.70
   2   0  -9    0.90    0.50
  -2   0   9   -0.30    0.50
  -2   0   9   -3.90    4.30
  -2   0   9    0.20    0.70
  -1   0   9    2.20    5.20
  -1   0   9    3.20    1.20
   0   0   9   -1.90    6.60
   0   0   9    1.80    0.70
  -1   0  -9   -0.20    0.30
   2   0   9    0.40    0.60
   3   0   9    0.20    0.80
  -3   0  -9    0.80    0.40
  -4   0  -9    0.30    0.40
  -4   0  -9   -0.10    0.60
   4   0   9   -1.60    1.70
  -5   0  -9   -0.20    0.40
  -5   0  -9    0.60    0.40
   5   0   9    0.00    0.40
   5   0   9    0.90    1.90
  -6   0  -9    0.00    0.40
  -6   0  -9    0.70    0.50
   6   0   9    0.20    0.30
  -7   0  -9    0.20    0.30
  -9  -1   9    1.00    0.40
  -9   1   9    1.00    0.40
  -8  -1   9   73.99    3.10
  -8   1   9   70.89    3.10
  -8   1   9   72.69    3.10
  -7  -1   9   12.30    1.10
  -7   1   9   11.10    1.20
  -7   1   9   10.20    1.40
   7   1  -9   11.40    1.40
  -6  -1   9    9.90    3.20
  -6  -1   9    7.20    0.90
  -6   1   9    8.50    5.30
  -6   1   9    7.10    0.90
  -6   1   9    5.80    2.40
   6   1  -9    8.40    1.20
  -6   1   9    8.60    1.00
  -6   1   9    7.00    1.00
  -5  -1   9   -1.20    1.00
  -5  -1   9    0.50    0.50
  -5  -1   9   -0.40    3.00
  -5   1   9    0.60    0.40
   5   1  -9    1.60    0.70
  -5   1   9    0.80    1.10
  -5   1   9   -1.30    5.30
  -4  -1   9    0.40    1.40
  -4  -1   9    1.80    1.20
  -4  -1   9    0.80    0.50
  -4  -1   9    4.00    4.80
  -4   1   9    1.60    1.30
  -4   1   9    0.80    0.40
  -4   1   9    6.20    7.30
  -3  -1   9 1365.06   85.79
  -3  -1   9 1721.63   60.69
  -3   1   9 1629.04   56.19
   3   1  -9 1672.03   56.59
  -3   1   9 1630.54   81.69
  -3   1   9 1760.02   60.49
  -2  -1   9    6.50    6.10
  -2  -1   9    3.10    1.20
  -2  -1   9    2.60    1.20
   2  -1  -9    5.30    0.90
  -2  -1   9    3.60    1.00
  -2   1   9   14.70    8.50
  -1  -1   9  907.81   53.19
  -1  -1   9  878.11   33.70
   1  -1  -9  869.11   31.40
  -1  -1   9  911.11   38.50
  -1   1   9 1066.09   68.89
   1   1  -9  827.92   31.20
   0  -1   9   84.49   17.00
   0  -1   9   80.69    4.90
   0  -1  -9   82.49    3.70
   0  -1   9   81.59    5.60
   0   1  -9   83.69    3.70
   0   1   9   80.69    5.20
   1  -1   9  216.58   10.90
   1  -1   9  225.48    9.80
   1  -1   9  257.97   29.80
  -1  -1  -9  224.98    8.50
   1  -1   9  217.78    8.30
  -1   1  -9  219.38    8.60
   1   1   9  210.48   10.30
  -2  -1  -9 1565.24   54.79
   2  -1   9 1618.94   54.49
   2  -1   9 1564.04   57.99
   2   1   9 1577.04   56.99
  -2   1  -9 1576.64   54.99
  -3  -1  -9   16.90    1.60
   3  -1   9   14.00    2.70
   3  -1   9   17.20    1.40
  -3  -1  -9   16.60    1.30
   3   1   9   14.10    2.40
  -3   1  -9   17.60    1.20
  -3   1  -9   16.40    1.70
   4  -1   9    0.60    1.10
   4  -1   9    2.20    0.50
  -4   1  -9    4.40    1.00
   4   1   9    2.60    1.40
  -4   1  -9    1.40    0.50
  -5  -1  -9   16.30    1.60
   5  -1   9   14.20    1.10
   5  -1   9   10.00    2.30
  -5  -1  -9   12.80    1.20
  -5   1  -9   14.50    1.70
  -5   1  -9   13.90    1.20
  -6  -1  -9   10.20    1.10
  -6  -1  -9    9.70    1.20
  -6   1  -9    9.20    1.40
  -6   1  -9    9.80    1.00
  -7  -1  -9    2.90    0.50
  -7   1  -9    4.40    0.60
  -9  -2   9   15.10    0.90
  -9   2   9   14.70    0.90
  -8  -2   9    5.40    0.70
  -8   2   9    4.20    0.70
  -8   2   9    4.30    0.70
  -7  -2   9    9.90    1.00
  -7   2   9   11.50    1.10
  -7   2   9   10.80    1.10
  -7   2   9   10.50    1.20
  -6  -2   9  255.97   16.10
  -6  -2   9  245.88    9.10
  -6   2   9  240.48    9.30
  -6   2   9  242.18    9.20
  -6   2   9  270.27   15.80
  -6   2   9  238.18    9.20
  -5  -2   9   50.69    2.50
  -5  -2   9   58.49    6.20
  -5   2   9   43.60   13.90
  -5   2   9   53.49    2.70
  -5   2   9   55.99    6.10
  -5   2   9   54.89    2.60
  -4  -2   9   96.79   13.20
  -4  -2   9   81.99    7.20
  -4  -2   9   77.29    3.60
  -4  -2   9   81.09    3.40
  -4   2   9   84.89    7.10
   4   2  -9   90.89    4.00
  -4   2   9   82.19    3.50
  -4   2   9   71.59   16.10
  -4   2   9   80.09    3.60
  -3  -2   9  245.88   13.20
  -3  -2   9  238.68    9.00
  -3  -2   9  236.98    8.70
  -3  -2   9  220.58   22.70
   3   2  -9  236.08    9.00
  -3   2   9  275.17   29.50
  -3   2   9  242.88   12.90
  -3   2   9  236.68    8.80
  -2  -2   9  127.49    8.20
  -2  -2   9  129.89    7.60
  -2  -2   9  112.99   17.80
  -2  -2   9  126.49    5.20
  -2   2   9  133.89    8.30
  -2   2   9  137.09   22.30
   2   2  -9  126.79    5.20
  -1  -2   9  270.97   12.40
   1  -2  -9  255.57    9.70
  -1  -2   9  260.57   12.70
  -1  -2   9  262.47   28.20
   1   2  -9  249.08    9.50
  -1   2   9  188.88   27.30
   0  -2   9  525.55   18.60
   0  -2  -9  516.15   18.80
   0  -2   9  550.34   21.90
   0  -2   9  519.05   21.80
   0   2  -9  503.45   18.80
   1  -2   9   83.89   19.90
   1  -2   9   80.79    3.60
   1  -2   9   73.89    5.60
   1  -2   9   86.59    6.10
  -1  -2  -9   85.19    4.10
  -1   2  -9   80.89    4.00
   2  -2   9   32.80    3.60
  -2  -2  -9   33.70    2.20
   2  -2   9   37.30    2.10
   2  -2   9   36.90    4.20
  -2   2  -9   41.70    2.60
  -2   2  -9   35.80    1.80
  -3  -2  -9  123.79    5.50
   3  -2   9  125.19    5.20
   3  -2   9  127.19    8.40
  -3   2  -9  124.29    5.90
  -3   2  -9  123.79    4.90
  -4  -2  -9   61.69    3.40
   4  -2   9   63.99    5.80
   4  -2   9   62.79    3.00
  -4  -2  -9   65.79    3.10
  -4   2  -9   63.69    3.80
  -4   2  -9   60.39    2.80
  -5  -2  -9   17.60    2.10
  -5   2  -9   24.00    1.40
  -5   2  -9   23.30    2.20
  -6  -2  -9    0.40    0.40
  -6   2  -9    0.40    0.30
  -7  -2  -9    4.60    0.70
   7   2   9    2.80    0.40
  -8  -3   9   29.20    1.50
  -8   3   9   30.50    1.50
  -7  -3   9   48.20    2.20
  -7   3   9   48.60    2.30
  -7   3   9   45.80    2.40
  -7   3   9   47.30    2.30
  -6  -3   9   50.09    2.60
  -6  -3   9   54.59    2.50
  -6   3   9   55.19    2.60
  -6   3   9   54.79    2.70
  -5  -3   9    6.50    0.90
  -5  -3   9    6.90    0.90
  -5  -3   9   14.90    4.60
  -5   3   9    5.80    0.90
  -5   3   9    6.80    1.00
  -5   3   9   -0.20    2.40
  -5   3   9    5.40   10.10
  -4  -3   9  837.82   28.50
  -4  -3   9  816.72   28.90
  -4  -3   9  841.82   35.60
  -4   3   9  730.13   59.79
  -4   3   9  847.52   35.50
  -4   3   9  818.22   28.60
  -3  -3   9   97.29    4.30
  -3  -3   9   96.79    8.50
  -3  -3   9   98.19    3.90
  -3   3   9  101.19    4.00
  -3   3   9   65.19   18.20
  -3   3   9   96.49    7.90
  -2  -3   9  111.09   19.00
  -2  -3   9   98.69    3.90
   2  -3  -9  102.59    4.60
  -2  -3   9   97.39    4.30
  -2  -3   9  100.99    8.00
  -2   3   9  105.29    8.00
  -2   3   9   80.09   23.90
  -2   3   9   95.59    4.00
  -1  -3   9    0.10    0.40
   1  -3  -9    0.10    0.40
  -1  -3   9    0.60    1.10
  -1  -3   9  -11.70    7.30
   0  -3   9    1.50    1.00
   0  -3  -9    0.70    0.40
   0  -3   9   -2.40    7.80
   0  -3   9    1.30    0.50
   0  -3   9    0.90    1.30
   0   3  -9    1.30    0.50
  -1  -3  -9   13.90    1.20
   1  -3   9   12.00    2.40
   1  -3   9   14.10    1.20
   1  -3   9    5.50   14.00
   1  -3   9   14.40    3.00
   2  -3   9   72.19    7.60
   2  -3   9   73.59    3.50
   2  -3   9   74.59    6.20
  -2   3  -9   78.79    3.40
  -2   3  -9   79.09    4.10
   3  -3   9    5.50    0.80
   3  -3   9    3.60    1.90
  -3   3  -9    4.00    1.00
  -4  -3  -9   29.00    2.10
   4  -3   9   25.90    1.60
  -4   3  -9   25.80    2.30
  -4   3  -9   27.20    1.60
  -5  -3  -9   81.29    3.60
  -7  -4   9   25.50    1.30
  -7   4   9   23.10    1.30
  -7   4   9   25.40    1.40
  -6  -4   9    2.90    0.50
  -6   4   9    3.20    0.60
  -5  -4   9    1.90    0.50
  -5  -4   9    3.00    0.70
  -5   4   9    3.10    0.60
  -4   4   9   47.10    2.40
  -3  -4   9   61.49    7.10
   3  -4  -9   66.59    3.40
  -3  -4   9   68.39    3.30
  -3  -4   9   62.99    2.80
  -3   4   9   67.59    6.90
  -3   4   9   67.09    2.90
  -2  -4   9  489.45   24.20
  -2  -4   9  505.25   17.50
   2  -4  -9  487.85   18.10
  -2  -4   9  509.55   18.10
  -2   4   9  509.05   24.00
  -1  -4   9  283.57   10.20
  -1  -4   9  285.17   10.70
  -1  -4   9  280.17   14.10
  -1  -4   9  275.67   16.00
   1  -4  -9  285.07   10.70
  -1   4   9  278.17   15.70
   0  -4   9  740.73   26.00
   0  -4   9  726.73   29.90
   0  -4   9  709.53   32.00
   0   4  -9  754.72   25.80
   1  -4   9   -2.20    2.50
   1  -4   9    0.00    2.30
   1  -4   9    1.00    0.50
  -1   4  -9    2.90    0.70
  -1   4  -9    1.60    0.60
   2  -4   9    0.50    0.40
  -2   4  -9    1.00    0.60
  -2   4  -9    1.10    0.50
   3  -4   9   77.49    3.50
  -3  -4  -9   87.89    3.80
  -3   4  -9   85.49    3.60
  -4  -4  -9    4.00    0.80
  -4   4  -9    3.00    0.50
  -5  -4  -9   25.90    1.50
  -5   4  -9   20.40    1.20
  -6  -5   9    0.50    0.30
  -6   5   9    0.20    0.40
  -6   5   9    0.40    0.20
  -5  -5   9    9.00    0.70
  -5  -5   9    9.70    0.90
   5  -5  -9    9.20    1.50
  -5   5   9    8.30    0.70
   5   5  -9    8.80    0.80
  -4  -5   9    0.00    0.40
  -4  -5   9    0.20    0.30
  -4   5   9    0.50    0.30
   4   5  -9    0.40    0.40
  -3  -5   9   13.60    0.90
  -3  -5   9   14.60    1.30
   3   5  -9   12.50    1.10
  -2  -5   9   63.79    3.20
  -2  -5   9   69.09    2.80
   2   5  -9   69.69    3.10
  -1  -5   9   31.10    2.00
   1   5  -9   30.90    1.80
   0  -5   9  248.08    9.50
   0   5  -9  255.37    9.40
   1  -5   9  160.58    6.20
  -1   5  -9  156.18    6.20
   2  -5   9  212.08    7.90
  -2   5  -9  211.18    7.90
  -3  -5  -9    4.90    0.70
  -3   5  -9    2.80    0.50
  -4  -5  -9   33.70    1.60
  -4   5  -9   32.40    1.50
  -3  -6   9    7.70    0.70
   3   6  -9    8.00    0.70
  -2  -6   9    1.60    0.40
   2   6  -9    0.90    0.30
  -1  -6   9   22.80    1.30
   1   6  -9   21.00    1.20
   0  -6   9    3.60    0.50
   0   6  -9    4.00    0.60
   1  -6   9    2.50    0.40
  -1  -6  -9    2.80    0.40
  -1   6  -9    2.00    0.40
  -9   0  10   21.70    1.20
  -8   0  10    0.40    0.40
   8   0 -10    0.10    0.50
  -7   0  10    3.60    0.80
  -6   0  10   49.90    8.70
  -6   0  10   61.29    9.60
  -6   0  10   68.69    3.00
  -5   0  10  289.47   16.10
  -5   0  10  261.77   24.80
  -5   0  10  243.48   13.10
  -4   0  10    0.40    0.40
  -4   0  10    0.10    1.20
  -4   0  10   -1.20    1.20
  -4   0  10    2.30    4.90
   3   0 -10  942.31   32.50
  -3   0  10  939.81   35.40
  -3   0  10  938.41   55.09
  -3   0  10  932.91   35.20
  -3   0  10  863.01   31.80
  -2   0  10 1893.51   91.69
   2   0 -10 1902.51   64.59
  -2   0  10 1837.12   66.89
  -2   0  10 1854.61   66.69
  -1   0  10 1158.38   43.90
   1   0 -10 1140.99   40.90
  -1   0  10 1184.58   42.20
  -1   0  10 1235.18   68.19
   0   0 -10   13.70    1.30
   0   0  10    6.80    7.20
   0   0  10   15.30    2.20
   1   0  10   52.59    4.40
  -1   0 -10   50.39    2.70
  -2   0 -10 1233.68   42.90
  -2   0 -10 1237.88   43.50
   2   0  10 1255.67   46.70
  -3   0 -10   85.19    4.30
   3   0  10   79.99    6.30
  -3   0 -10   85.39    3.70
   4   0  10   14.00    2.70
  -4   0 -10   15.20    1.70
  -5   0 -10    3.90    1.00
  -5   0 -10    3.50    0.70
   5   0  10    3.40    1.00
  -6   0 -10   42.90    2.20
  -6   0 -10   42.30    2.70
  -7   0 -10   29.00    1.50
  -9  -1  10    2.00    0.40
   9  -1 -10    1.90    0.50
  -9   1  10    1.90    0.40
  -8  -1  10    1.70    0.50
  -8   1  10    1.20    0.40
  -8   1  10    0.70    0.40
  -7  -1  10   26.20    1.60
  -7   1  10   27.00    1.60
  -7   1  10   27.10    1.70
   7   1 -10   30.40    2.30
  -6  -1  10   23.90    1.50
  -6   1  10   22.90    1.60
  -6   1  10   12.80    6.90
   6   1 -10   25.20    1.80
  -6   1  10   15.80    3.30
  -6   1  10   25.20    1.50
  -5  -1  10   39.40   11.00
  -5  -1  10   51.99    2.40
  -5  -1  10   58.09    5.70
  -5   1  10   48.50    6.50
  -5   1  10   55.19    3.00
   5   1 -10   49.80    2.80
  -5   1  10   51.19    2.50
  -5   1  10   50.99    2.50
  -5   1  10   29.20   10.60
  -4  -1  10  573.84   38.30
  -4  -1  10  511.45   18.70
  -4  -1  10  544.55   23.60
  -4  -1  10  517.95   18.50
   4   1 -10  521.85   19.10
  -4   1  10  525.45   18.60
  -4   1  10  525.05   39.90
  -4   1  10  525.55   18.70
  -4   1  10  528.95   23.30
  -3  -1  10   13.80    1.30
  -3  -1  10   16.10    3.10
  -3  -1  10   15.80    1.50
  -3  -1  10    8.10    5.80
  -3   1  10   11.20    2.40
  -3   1  10   10.00    7.70
   3   1 -10   17.30    1.40
  -2  -1  10    1.20    1.30
   2  -1 -10    4.70    0.90
  -2  -1  10    7.80    1.80
  -2  -1  10    2.90    1.20
  -2   1  10   11.70    6.60
   2   1 -10    4.80    0.80
  -1  -1  10  554.34   22.50
  -1  -1  10  579.44   42.60
  -1  -1  10  503.35   19.10
  -1  -1  10  539.15   21.80
  -1   1  10  511.15   41.00
   1   1 -10  555.84   19.40
   0  -1  10    2.60    0.80
   0  -1  10    1.60    1.20
   0  -1  10    9.10   10.30
   0  -1  10    4.00    1.40
   0  -1 -10    7.00    1.30
   0   1 -10    3.70    1.00
   1  -1  10  260.87   13.10
   1  -1  10  276.47   10.10
  -1  -1 -10  272.07   10.40
  -1   1 -10  271.37   10.50
   1   1  10  272.47   12.60
   2  -1  10   29.60    3.70
  -2  -1 -10   26.60    2.00
   2  -1  10   29.60    1.80
  -2   1 -10   25.20    1.60
  -2   1 -10   26.60    2.10
   2   1  10   30.50    3.10
  -3  -1 -10    6.30    1.20
  -3  -1 -10    5.90    0.90
   3  -1  10    4.80    1.60
   3   1  10    1.60    1.60
  -3   1 -10    4.70    1.10
  -3   1 -10    5.00    0.70
   4  -1  10  146.29    9.50
  -4  -1 -10  141.89    5.90
  -4  -1 -10  146.89    6.50
   4  -1  10  148.79    6.00
  -4   1 -10  146.29    5.80
  -4   1 -10  148.99    6.80
  -5  -1 -10    5.10    0.90
  -5  -1 -10    7.10    1.20
   5  -1  10    6.10    0.80
  -5   1 -10    4.80    1.10
  -5   1 -10    7.10    0.80
  -6  -1 -10    9.20    1.20
  -6  -1 -10   10.40    1.00
  -6   1 -10   10.40    0.90
  -6   1 -10   11.90    1.40
   6   1  10   11.00    1.00
  -7  -1 -10   20.00    1.20
  -7   1 -10   18.40    1.00
  -8  -2  10    3.40    0.60
  -8   2  10    2.90    0.50
  -7  -2  10   82.89    3.40
  -7   2  10   78.59    3.50
  -7   2  10   78.29    3.50
  -6  -2  10  105.99    9.20
  -6  -2  10  118.49    4.70
  -6   2  10  118.09    4.90
  -6   2  10  114.79    4.90
  -6   2  10  123.59    4.90
  -6   2  10  124.59   20.10
  -6   2  10  123.89   10.80
  -5  -2  10    4.70    2.50
  -5   2  10   13.60    8.70
  -5   2  10    1.00    2.00
  -4  -2  10   10.60    7.50
  -4  -2  10    3.50    0.70
  -4  -2  10    7.20    2.50
  -4   2  10    1.30    1.90
   4   2 -10    3.10    0.70
  -4   2  10   -0.20    8.20
  -3  -2  10    0.70    0.40
  -3  -2  10    2.20    1.20
  -3  -2  10   -0.30    0.30
  -3  -2  10   -2.10    5.10
  -3   2  10    1.10    1.20
  -3   2  10    0.30    0.30
  -3   2  10  -10.70    7.40
   3   2 -10    0.70    0.40
  -2  -2  10   11.10    2.60
  -2  -2  10    6.70    0.70
   2  -2 -10    6.70    1.00
  -2  -2  10    8.50    1.90
  -2  -2  10    7.80    0.90
  -2  -2  10    1.60    7.50
  -2   2  10   25.20   22.00
  -2   2  10    9.10    0.70
   2   2 -10    7.30    0.90
  -1  -2  10  206.88   25.50
  -1  -2  10  191.68    7.60
  -1  -2  10  200.48   10.90
   1  -2 -10  190.98    7.80
  -1  -2  10  203.08   10.70
  -1   2  10  214.18   31.00
   1   2 -10  194.48    7.80
   0  -2  10  -14.70   13.30
   0  -2  10    1.90    1.30
   0  -2  10    2.70    1.30
   0  -2 -10    1.30    0.50
  -1  -2 -10  127.89    5.40
   1  -2  10  115.89    7.90
   1  -2  10  126.89    5.20
   1  -2  10  123.79    7.60
  -1   2 -10  124.99    5.60
   2  -2  10   56.39    5.50
  -2  -2 -10   55.19    3.00
   2  -2  10   52.39    3.40
  -2   2 -10   56.29    2.50
  -3  -2 -10    2.80    0.80
   3  -2  10    2.70    1.60
   3  -2  10    4.20    0.80
  -3   2 -10    4.40    1.10
  -4  -2 -10  164.58    6.50
  -4  -2 -10  159.08    6.80
   4  -2  10  160.58   10.40
   4  -2  10  163.78    6.30
  -4   2 -10  148.09    6.80
  -4   2 -10  164.98    7.30
  -5  -2 -10   24.90    1.70
  -5   2 -10   25.10    1.40
  -5   2 -10   25.90    2.20
  -6   2 -10    6.80    0.60
  -7  -2 -10   17.80    1.10
  -8  -3  10    3.50    0.50
  -8   3  10    3.70    0.50
  -7  -3  10    6.10    0.80
  -7   3  10    7.10    0.90
  -7   3  10    7.40    0.90
  -6  -3  10   38.00    1.90
  -6  -3  10   38.20    2.00
  -6   3  10   39.00    2.10
  -5  -3  10   54.09    7.40
  -5  -3  10   37.20    2.20
  -5  -3  10   37.20    1.90
  -5   3  10   36.90    2.00
  -5   3  10   48.10   16.90
  -4  -3  10   -1.60    1.60
  -4  -3  10    0.90    0.50
  -4  -3  10   -0.50    0.40
  -4   3  10    0.00    1.80
  -4   3  10   -0.10    0.30
  -4   3  10   -6.40   11.40
   3  -3 -10    7.90    1.70
  -3  -3  10    4.80    0.80
  -3  -3  10    4.80    0.70
  -3  -3  10    5.60    2.30
  -3   3  10   10.30    2.90
  -3   3  10    8.30   14.20
  -3   3  10    3.30    0.50
  -2  -3  10    5.40    8.10
  -2   3  10   10.40    2.60
  -1  -3  10   19.10    4.40
   1  -3 -10   17.50    1.50
  -1  -3  10   16.50    1.40
  -1  -3  10   35.00   13.30
   1   3 -10   17.30    1.50
   0  -3  10   31.50    7.30
   0  -3  10   20.50    1.50
   0  -3  10   19.40    3.10
   0  -3  10   13.00   11.30
   0  -3 -10   20.30    1.60
   0   3 -10   19.20    1.70
   1  -3  10  186.28   11.50
   1  -3  10  208.78   11.50
   1  -3  10  194.68    7.70
  -1  -3 -10  195.98    7.80
  -1   3 -10  201.18    7.50
  -1   3 -10  195.08    8.20
   2  -3  10   28.20    1.80
   2  -3  10   29.30    4.10
  -2   3 -10   30.60    1.70
  -2   3 -10   31.80    2.40
   3  -3  10   15.40    3.30
  -3  -3 -10   20.60    1.50
   3  -3  10   17.20    1.40
  -3   3 -10   17.80    1.90
  -3   3 -10   22.10    1.30
   4  -3  10   14.80    1.10
  -4  -3 -10   14.40    1.30
  -4   3 -10   13.20    1.00
  -4   3 -10   14.20    1.70
  -5  -3 -10   24.70    1.60
  -7  -4  10   -0.20    0.30
   7  -4 -10    0.10    0.40
  -7   4  10    0.10    0.40
   6  -4 -10   66.19    3.30
  -6  -4  10   69.19    2.70
  -6  -4  10   65.49    2.80
  -6   4  10   53.89    2.90
  -5  -4  10    9.20    1.00
   5  -4 -10    8.90    1.30
  -5  -4  10    9.00    0.90
  -5   4  10   10.30    0.90
  -4  -4  10   24.70    1.40
   4  -4 -10   22.10    1.90
  -4  -4  10   24.90    1.70
  -4   4  10   23.80    1.40
  -3  -4  10   10.90    1.20
  -3  -4  10    7.00    0.90
   3  -4 -10   10.10    1.30
  -3   4  10    8.30    0.80
  -2  -4  10   20.90    1.20
   2  -4 -10   20.60    1.60
  -2  -4  10   22.90    1.70
  -2   4  10   22.90    4.20
   1  -4 -10    4.70    0.80
  -1  -4  10    3.70    0.80
  -1  -4  10    2.30    2.70
  -1   4  10   10.30    2.80
   0  -4  10    8.00    2.90
   0  -4  10    8.70    1.10
   0  -4  10   14.00    3.30
   1  -4  10   52.89    3.00
  -1   4 -10   55.59    3.00
  -1   4 -10   57.29    2.80
   2  -4  10    2.00    0.60
  -2   4 -10    3.90    1.20
  -3  -4 -10   85.19    3.70
   3  -4  10   80.09    3.50
  -3   4 -10   80.69    3.40
  -4  -4 -10    0.80    0.40
  -4   4 -10    1.80    0.40
  -5  -4 -10    0.30    0.30
  -5  -5  10   41.20    1.70
  -5  -5  10   40.10    1.90
   5   5 -10   38.50    1.80
  -4  -5  10   60.19    2.40
  -4  -5  10   54.39    2.90
  -3  -5  10    0.30    0.40
  -3  -5  10    1.40    0.40
   3   5 -10    0.10    0.40
  -2  -5  10    5.00    0.80
  -2  -5  10    2.30    0.60
   2   5 -10    3.70    0.70
  -1  -5  10    6.10    0.90
   1   5 -10    7.40    0.90
   0  -5  10   13.40    1.20
   0   5 -10   13.30    1.10
   1  -5  10    6.60    0.90
  -1   5 -10    7.90    0.90
  -2  -5 -10   18.30    1.60
   2  -5  10   23.70    1.30
  -2   5 -10   21.70    1.50
  -3  -5 -10   19.40    1.20
  -3   5 -10   18.00    1.10
  -2  -6  10   18.20    1.10
   2   6 -10   18.90    1.00
  -1  -6  10   23.50    1.30
   1   6 -10   23.90    1.30
   0  -6  10    1.30    0.30
   0   6 -10    1.40    0.40
  -9   0  11   -0.20    0.30
  -8   0  11   -0.30    0.40
   7   0 -11    0.30    0.60
  -7   0  11   -0.30    0.40
   6   0 -11    0.30    0.60
  -6   0  11    0.20    0.40
  -6   0  11   -5.40    6.40
  -5   0  11    3.20    5.20
  -4   0  11   -1.60    1.40
  -4   0  11    0.00    0.40
  -4   0  11   -4.80    5.00
   4   0 -11    1.30    0.70
  -4   0  11    3.00    1.80
   3   0 -11   -0.40    0.50
  -3   0  11    0.10    1.20
  -3   0  11    0.50    0.40
  -3   0  11   -0.60    0.40
  -3   0  11    3.10    1.70
  -3   0  11    1.30    5.50
   2   0 -11    0.50    0.60
  -2   0  11   -0.70    1.00
  -2   0  11   -8.00    5.20
  -1   0  11    5.40    8.80
   0   0 -11    0.00    0.50
   0   0  11   -0.10    0.40
   0   0  11    0.20   11.40
   1   0  11    0.10    0.70
  -1   0 -11    0.00    0.50
  -2   0 -11    0.20    0.50
  -2   0 -11    0.60    0.40
   2   0  11    0.40    0.80
  -3   0 -11    0.40    0.40
   3   0  11    0.10    1.30
  -3   0 -11   -0.50    0.70
   4   0  11    0.70    0.50
  -4   0 -11   -0.70    0.50
  -4   0 -11    0.00    0.40
   4   0  11    0.30    2.00
  -5   0 -11   -0.40    0.40
  -5   0 -11   -0.20    0.30
   6   0  11   -0.20    0.30
  -6   0 -11    0.10    0.40
  -6   0 -11    0.50    0.50
  -7   0 -11    0.10    0.20
  -9  -1  11    2.00    0.40
  -9   1  11    2.80    0.40
   8  -1 -11   33.70    2.20
  -8  -1  11   36.70    1.70
  -8   1  11   36.90    1.80
  -7  -1  11    9.80    1.00
   7   1 -11   10.50    1.10
  -7   1  11   10.50    1.00
  -6  -1  11   34.20    1.80
  -6  -1  11   38.50    6.10
  -6   1  11   25.30    9.30
  -6   1  11   35.00    1.90
   6   1 -11   31.20    2.10
  -6   1  11   22.90    4.80
  -5  -1  11  551.54   35.30
  -5  -1  11  543.45   24.80
  -5  -1  11  540.45   19.00
  -5   1  11  542.65   19.10
  -5   1  11  521.75   24.30
  -4  -1  11   13.70    1.10
  -4  -1  11   13.20    3.00
   4  -1 -11   14.30    1.70
  -4  -1  11   15.80    1.20
  -4   1  11   11.90    1.60
   4   1 -11   15.90    1.50
  -4   1  11   15.00    3.40
  -4   1  11   16.60    9.90
  -3  -1  11  308.27   11.20
   3  -1 -11  326.77   12.10
  -3  -1  11  310.97   11.50
  -3  -1  11  308.47   15.30
  -3  -1  11  324.27   30.30
  -3   1  11  321.07   32.10
  -3   1  11  301.87   15.30
   3   1 -11  316.87   11.90
  -2  -1  11    2.20    1.20
  -2  -1  11    6.50    6.80
  -2  -1  11    1.30    1.30
   2  -1 -11    3.00    0.80
  -2  -1  11    1.70    0.60
  -2   1  11    5.80    8.30
   2   1 -11    4.20    0.70
  -2   1  11    1.50    1.20
  -2   1  11    2.80    0.60
   1  -1 -11    0.40    0.50
  -1  -1  11    0.70    0.40
  -1  -1  11    1.60    1.00
  -1  -1  11  -11.70    8.50
  -1  -1  11    0.60    1.10
   1   1 -11    1.10    0.60
  -1   1  11    8.50   11.30
   0  -1  11  799.72   28.20
   0  -1  11  807.82   32.10
   0  -1 -11  804.02   28.50
   0  -1  11  816.82   59.99
   0   1 -11  808.32   28.60
   0   1  11  789.82   31.50
   1  -1  11  102.89    4.50
   1  -1  11  108.49    7.40
  -1  -1 -11  108.59    4.80
  -1   1 -11  104.69    4.90
   1   1  11  102.59    6.80
   2  -1  11  254.77    9.90
   2  -1  11  253.77   13.50
  -2  -1 -11  265.07   10.20
   2   1  11  250.37   12.60
  -2   1 -11  257.17   10.40
  -3  -1 -11    9.50    1.40
   3  -1  11   10.20    1.10
  -3  -1 -11   10.60    1.10
   3  -1  11   10.10    2.50
  -3   1 -11    7.60    0.90
   3   1  11    8.00    2.20
  -3   1 -11   10.50    1.50
   4  -1  11   22.50    4.00
   4  -1  11   21.40    1.50
  -4  -1 -11   20.10    1.90
  -4  -1 -11   19.10    1.50
  -4   1 -11   19.40    1.30
  -4   1 -11   18.60    2.00
  -5  -1 -11   18.30    1.40
   5  -1  11   20.00    1.40
  -5  -1 -11   19.30    1.70
  -5   1 -11   19.10    1.90
  -5   1 -11   17.40    1.20
  -6  -1 -11    1.10    0.40
  -6   1 -11    1.30    0.60
   6   1  11    1.30    0.40
  -6   1 -11    1.10    0.40
  -7  -1 -11    0.00    0.20
  -7   1 -11    0.40    0.20
  -8  -2  11   28.30    1.40
   8  -2 -11   25.60    1.90
  -8   2  11   28.30    1.50
  -7  -2  11  111.99    4.40
  -7   2  11  113.99    4.60
  -6  -2  11  377.36   13.70
  -6   2  11  390.56   13.90
  -5  -2  11  162.38    6.10
  -5  -2  11  165.68   13.40
  -5  -2  11  160.68    6.30
  -5   2  11  168.38    6.30
  -5   2  11  154.28   13.60
  -5   2  11  124.79   22.60
  -4  -2  11  125.19    9.30
  -4  -2  11  122.59    5.10
  -4  -2  11  120.69   18.00
  -4  -2  11  127.79    4.80
   4   2 -11  124.29    5.20
  -4   2  11  105.09   23.70
  -4   2  11  124.89    5.00
  -4   2  11  122.89    9.30
  -3  -2  11  391.06   23.00
  -3  -2  11  358.46   14.40
  -3  -2  11  384.46   13.60
   3  -2 -11  394.96   14.60
  -3  -2  11  413.46   45.50
  -3   2  11  363.66   38.90
  -3   2  11  406.76   19.20
   3   2 -11  388.76   14.20
   2  -2 -11  276.37   10.40
  -2  -2  11  260.47   13.90
  -2  -2  11  268.67   10.00
  -2  -2  11  265.87   13.60
  -2  -2  11  248.88   28.80
   2   2 -11  268.37   10.20
  -2   2  11  265.07   14.20
  -2   2  11  226.98   33.90
  -1  -2  11    0.40    1.10
   1  -2 -11    0.50    0.40
  -1  -2  11   -2.30    9.20
   1   2 -11    1.20    0.50
   0  -2  11  532.25   48.40
   0  -2 -11  508.35   18.50
   0  -2  11  504.95   21.80
   0  -2  11  511.45   18.30
   0  -2  11  514.35   22.40
   0   2 -11  499.85   18.70
   1  -2  11  236.58    9.20
   1  -2  11  238.98   12.90
  -1  -2 -11  245.08    9.50
  -1   2 -11  242.48    9.80
  -2  -2 -11   97.89    5.40
   2  -2  11   95.69    4.20
   2  -2  11   86.49    7.20
  -2   2 -11   93.29    4.80
  -2   2 -11   93.19    3.80
   3  -2  11  142.59    5.80
  -3  -2 -11  142.79    5.80
  -3  -2 -11  135.99    6.20
  -3   2 -11  143.69    6.60
  -4  -2 -11    6.30    1.10
   4  -2  11    7.40    0.90
  -4  -2 -11    7.70    1.10
  -4   2 -11    6.30    1.20
  -5  -2 -11    6.30    0.90
  -5   2 -11    6.60    1.20
   6   2  11    2.90    0.50
   8  -3 -11  114.89    4.80
   7  -3 -11   53.59    3.00
  -7  -3  11   47.70    2.60
  -7   3  11   62.09    2.70
  -6  -3  11   73.49    3.50
  -6  -3  11   76.29    3.10
  -6   3  11   74.69    3.30
  -6   3  11   73.79    3.20
  -5  -3  11    7.10    0.90
  -5  -3  11    6.80    0.80
  -5   3  11    6.20    0.80
   4  -3 -11  111.39    5.20
  -4  -3  11  109.19    4.30
  -4  -3  11   96.79    8.80
  -4  -3  11  110.99    4.70
  -4   3  11  102.49    8.70
  -4   3  11  141.19   31.60
  -4   3  11  106.49    4.40
   3  -3 -11   27.70    2.10
  -3  -3  11   22.20    9.40
  -3  -3  11   28.80    1.50
  -3  -3  11   28.70    1.90
  -3  -3  11   29.90    4.70
  -3   3  11   29.80    5.40
  -3   3  11   28.70    1.50
  -3   3  11   -3.60   18.20
  -2  -3  11    6.20    2.30
  -2  -3  11   -2.30    1.30
  -2  -3  11    0.90    0.50
   2  -3 -11    2.80    0.70
  -2   3  11    1.30    1.80
  -1  -3  11   41.80    5.30
  -1  -3  11   43.90    2.50
   1  -3 -11   45.20    3.30
  -1  -3  11   42.90    4.60
  -1  -3  11   39.90   16.30
   1   3 -11   42.50    2.60
   0  -3  11    6.50    2.10
   0  -3  11   10.80    2.90
   0  -3 -11   11.20    1.40
   0  -3  11    9.90    1.10
   0  -3  11   20.60   12.90
   0   3 -11    8.50    1.30
   1  -3  11   71.89    3.50
   1  -3  11   76.39    6.70
  -1  -3 -11   76.49    3.70
  -1   3 -11   81.59    3.40
  -1   3 -11   77.29    4.00
   2  -3  11   40.60    5.50
  -2  -3 -11   40.00    2.50
   2  -3  11   48.50    2.40
  -2   3 -11   40.20    2.80
  -2   3 -11   43.70    2.20
  -3  -3 -11  152.38    6.10
   3  -3  11  157.98    6.00
  -3   3 -11  146.69    6.80
  -3   3 -11  149.29    5.80
   4  -3  11    3.70    0.70
  -4  -3 -11    6.10    0.90
  -4   3 -11    4.30    1.00
  -6  -4  11   91.09    3.50
   6  -4 -11   91.49    4.20
  -6  -4  11   87.59    3.60
  -6   4  11   92.69    3.70
   5  -4 -11    4.70    0.90
  -5  -4  11    3.90    0.60
  -5  -4  11    5.30    0.60
  -5   4  11    4.00    0.70
   4  -4 -11   17.70    1.50
  -4  -4  11   17.80    1.40
  -4  -4  11   17.90    1.10
  -4   4  11   18.70    1.20
  -3  -4  11  169.08    6.40
   3  -4 -11  189.38    7.80
  -3  -4  11  166.98    6.90
  -2  -4  11   68.59    3.30
   2  -4 -11   63.39    3.20
   1  -4 -11    5.10    0.80
  -1  -4  11    5.50    0.90
   0   4 -11    4.30    0.70
   1  -4  11   36.90    2.10
  -1   4 -11   34.70    1.90
   2  -4  11    2.80    0.60
  -2   4 -11    2.80    0.60
  -2   4 -11    2.90    0.80
  -3  -4 -11    0.50    0.40
   3  -4  11    0.10    0.30
  -3   4 -11    1.20    0.40
  -4  -4 -11   35.40    1.80
  -4   4 -11   36.20    1.80
  -5  -5  11   35.30    1.70
  -5  -5  11   36.70    1.40
   5   5 -11   32.00    1.70
  -4  -5  11   55.29    2.50
  -4  -5  11   47.60    2.20
   4   5 -11   55.59    2.30
  -3  -5  11   28.20    1.70
   3   5 -11   17.90    1.60
  -2  -5  11   16.80    1.30
   2   5 -11   16.70    1.20
  -1  -5  11   16.30    1.30
   1   5 -11   15.30    1.20
   0  -5  11   11.20    1.10
   0   5 -11   10.50    0.90
   1  -5  11   28.10    1.60
  -1   5 -11   29.80    1.70
   2  -5  11   31.50    1.60
  -2  -5 -11   35.60    1.70
  -2   5 -11   35.30    1.70
  -3  -5 -11   64.19    2.60
  -3   5 -11   63.59    2.50
   8   0 -12  117.89    4.50
  -8   0  12   92.49    4.20
   7   0 -12    1.50    0.60
  -7   0  12    3.00    0.60
   6   0 -12   83.39    4.00
  -6   0  12   73.79    3.90
   5   0 -12   18.70    1.70
  -5   0  12   16.00    1.20
  -5   0  12   19.10    8.10
  -4   0  12  231.98    8.60
   4   0 -12  240.38    9.40
  -4   0  12  227.28   25.80
  -3   0  12  705.53   25.00
  -3   0  12  720.13   25.30
   3   0 -12  759.72   25.90
  -3   0  12  733.73   52.29
  -3   0  12  680.43   28.70
  -2   0  12  731.83   31.60
  -2   0  12  863.11   58.29
  -2   0  12  833.62   28.60
   2   0 -12  845.22   29.10
  -1   0  12 8910.01  309.27
  -1   0  12 9013.50  350.86
   0   0  12  555.04   19.80
   0   0 -12  557.74   20.10
   0   0  12  542.15   23.70
   1   0  12  354.36   13.10
  -1   0 -12  345.37   12.70
  -1   0 -12  357.76   13.50
  -2   0 -12   72.59    3.30
   2   0  12   70.79    6.20
  -2   0 -12   77.79    4.40
   2   0  12   75.19    3.60
  -3   0 -12   21.70    1.50
   3   0  12   23.60    1.80
  -3   0 -12   21.20    2.10
   3   0  12   17.80    3.30
  -4   0 -12  196.48    8.30
   4   0  12  194.68    7.50
  -4   0 -12  183.58    7.30
   5   0  12   65.49    3.00
  -5   0 -12   66.79    3.60
  -5   0 -12   66.29    2.90
  -6   0 -12   46.00    2.00
  -6   0 -12   47.00    2.50
   6   0  12   37.30    2.00
  -8  -1  12   42.50    1.90
  -8   1  12   41.70    1.90
  -7  -1  12    1.10    0.50
   7  -1 -12    2.40    0.90
  -7   1  12    0.70    0.40
   7   1 -12    0.80    0.60
  -6  -1  12  255.67    9.50
   6  -1 -12  260.07   10.40
   6   1 -12  265.47   10.10
  -6   1  12  263.67    9.70
  -5  -1  12  112.39    9.40
   5  -1 -12  112.09    5.20
  -5  -1  12  110.69    4.30
  -5  -1  12   87.79   14.90
  -5   1  12   99.29   19.30
   5   1 -12  112.29    4.90
  -5   1  12   92.99    9.80
  -5   1  12  107.89    4.50
  -4  -1  12  653.13   45.30
  -4  -1  12  675.03   28.20
  -4  -1  12  648.94   22.60
   4  -1 -12  668.53   23.60
  -4  -1  12  654.53   22.90
   4   1 -12  596.14   24.30
  -4   1  12  678.93   50.19
  -4   1  12  632.24   22.70
  -4   1  12  640.24   28.10
  -3  -1  12 1784.22   59.59
  -3  -1  12 1706.33   63.59
   3  -1 -12 1787.42   59.49
  -3  -1  12 1619.54   94.39
  -3  -1  12 1737.23   58.49
  -3   1  12 1554.84   58.59
   3   1 -12 1804.72   59.39
  -3   1  12 1765.82   58.79
  -3   1  12 1673.13   92.79
  -3   1  12 1632.14   63.99
  -2  -1  12  276.77   10.40
  -2  -1  12  293.07   14.60
   2  -1 -12  284.87   10.80
  -2  -1  12  282.87   32.70
  -2  -1  12  268.27   13.40
  -2   1  12  256.77   10.00
  -2   1  12  287.17   14.30
  -2   1  12  207.38   32.70
   2   1 -12  292.17   10.70
  -2   1  12  279.37   10.30
   1  -1 -12    1.20    0.60
  -1  -1  12    0.90    1.10
  -1  -1  12    6.10   10.70
  -1  -1  12    2.00    0.60
   1   1 -12    0.80    0.60
  -1   1  12   -1.30   13.10
   0  -1  12  274.07   41.00
   0  -1 -12  302.87   11.10
   0  -1  12  260.07   11.60
   0   1 -12  296.57   11.20
  -1  -1 -12 1847.12   63.49
   1  -1  12 1857.31   63.09
   1  -1  12 1818.62   67.99
  -1   1 -12 1797.02   63.69
   2  -1  12    0.00    0.50
  -2  -1 -12    1.40    0.60
  -2  -1 -12   -0.30    0.50
   2  -1  12    0.70    1.50
  -2   1 -12    0.60    0.70
   2   1  12    0.50    1.60
  -3  -1 -12  426.06   15.90
   3  -1  12  423.56   15.30
  -3  -1 -12  430.46   15.20
   3  -1  12  410.76   20.00
  -3   1 -12  411.26   14.90
  -3   1 -12  408.86   16.10
  -4  -1 -12   47.10    2.50
  -4  -1 -12   46.50    3.00
   4  -1  12   51.59    2.50
  -4   1 -12   45.70    3.10
  -4   1 -12   46.50    2.20
  -5  -1 -12   92.79    4.40
   5  -1  12   95.19    4.00
  -5   1 -12   86.69    4.60
  -5   1 -12   98.09    3.80
   5   1  12   94.79    4.00
  -6  -1 -12    0.00    0.30
   6   1  12    0.50    0.30
  -6   1 -12    0.30    0.20
   8  -2 -12  115.69    4.90
  -8  -2  12  118.59    4.40
  -8   2  12  116.89    4.40
  -7  -2  12    7.00    0.80
   7  -2 -12    7.70    1.30
  -7   2  12    6.40    0.90
  -6  -2  12   11.20    1.00
   6  -2 -12   10.70    1.70
  -6   2  12    9.90    1.20
  -5  -2  12  579.54   22.70
  -5  -2  12  685.23   23.10
   5  -2 -12  637.94   23.40
  -5   2  12  615.44   22.60
  -5   2  12  776.82   65.99
  -4  -2  12   78.89   16.10
   4  -2 -12   81.69    4.30
  -4  -2  12   78.09    3.30
  -4  -2  12   84.09    3.70
  -4  -2  12   83.09    7.70
  -4   2  12   79.89    7.40
  -4   2  12   94.59   22.40
   4   2 -12   80.59    3.80
  -3  -2  12   76.39    3.20
  -3  -2  12   56.29   14.70
   3  -2 -12   80.19    4.10
  -3  -2  12   82.09    7.20
  -3  -2  12   78.99    3.60
  -3   2  12   78.69    7.20
   3   2 -12   80.09    4.70
  -3   2  12   64.99   18.70
  -2  -2  12  299.17   32.80
  -2  -2  12  261.07   10.00
  -2  -2  12  262.87   14.30
  -2  -2  12  270.37   14.10
   2  -2 -12  270.37   10.50
  -2   2  12  262.37   14.50
  -2   2  12  258.47    9.90
   2   2 -12  266.97   10.20
  -2   2  12  211.68   36.90
  -1  -2  12   25.60    3.50
   1  -2 -12   23.90    1.80
  -1  -2  12   23.50    1.60
  -1  -2  12   15.00   20.10
  -1  -2  12   22.10    3.50
   1   2 -12   22.70    1.80
   0  -2  12    7.50   19.30
   0  -2  12    7.60    2.30
   0  -2  12   14.20    1.30
   0  -2 -12   13.50    1.40
   0   2 -12   14.10    1.60
  -1  -2 -12  148.89    6.60
   1  -2  12  157.08    6.30
   1  -2  12  151.98    9.90
  -1   2 -12  163.18    6.00
  -1   2 -12  154.48    6.90
  -2  -2 -12  133.79    5.80
   2  -2  12  126.99    5.40
  -2   2 -12  125.89    6.00
  -2   2 -12  124.59    4.90
   3  -2  12   44.20    2.40
  -3  -2 -12   41.30    2.70
  -3  -2 -12   43.00    2.70
  -3   2 -12   39.00    2.90
  -4  -2 -12  124.19    5.40
  -4  -2 -12  130.49    5.20
   4  -2  12  126.79    5.00
  -4   2 -12  120.49    6.40
  -5  -2 -12   37.10    2.00
  -5   2 -12   34.80    2.40
  -6  -2 -12    1.90    0.40
  -7  -3  12  120.09    4.40
   7  -3 -12  106.19    5.30
  -7   3  12  121.69    4.50
   6  -3 -12    1.10    0.70
  -6  -3  12    0.30    0.30
  -6  -3  12    0.20    0.40
  -6   3  12    0.80    0.50
  -5  -3  12   71.39    3.30
  -5  -3  12   72.89    3.00
   4  -3 -12   23.00    1.90
  -4  -3  12   21.40    1.30
  -4  -3  12   20.90    1.50
  -3  -3  12   11.30    9.20
  -3  -3  12   11.40    4.00
   3  -3 -12    8.10    1.20
  -3  -3  12   11.00    1.20
  -3  -3  12    8.40    1.10
  -2  -3  12   38.30   14.80
  -2  -3  12   17.10    3.90
   2  -3 -12   16.90    1.50
  -2  -3  12   17.70    1.40
  -2   3  12    9.50    3.20
  -1  -3  12  229.08   18.10
  -1  -3  12  305.47   10.90
   1  -3 -12  301.77   11.10
   1   3 -12  291.57   11.10
   0  -3 -12   93.79    4.30
   0  -3  12   20.40   38.00
   0  -3  12   88.59    7.50
   0  -3  12   95.79    4.20
   0   3 -12   92.59    4.50
  -1  -3 -12  186.98    7.80
   1  -3  12  189.08    7.60
  -1   3 -12  210.48    7.50
  -1   3 -12  188.68    8.10
   2  -3  12  216.18    8.40
  -2   3 -12  219.98    8.10
  -2   3 -12  222.78    9.10
  -3  -3 -12   13.20    1.20
   3  -3  12   15.40    1.20
  -3   3 -12   15.10    1.70
  -3   3 -12   13.60    1.10
  -4  -3 -12   14.80    1.20
   4  -3  12   14.40    1.00
  -4   3 -12   14.20    1.50
  -5  -3 -12   37.50    1.90
   6  -4 -12   11.80    1.00
  -6  -4  12   12.10    0.70
  -6   4  12   12.00    0.90
  -5  -4  12   15.10    1.10
  -5  -4  12   14.80    0.90
   5  -4 -12   13.90    1.20
  -4  -4  12   72.59    2.90
  -4  -4  12   72.69    3.30
   4  -4 -12   70.09    3.40
  -3  -4  12  152.18    5.80
  -3  -4  12  127.39    5.30
   3  -4 -12  148.69    5.90
  -2  -4  12   12.70    1.30
   2  -4 -12   14.10    1.20
   1  -4 -12  188.08    7.30
  -1  -4  12  178.58    7.20
   0  -4  12    1.90    0.60
   0   4 -12    2.80    0.70
   1  -4  12   21.30    1.50
  -1   4 -12   22.30    1.40
   2  -4  12    9.20    1.00
  -2  -4 -12    8.70    0.90
  -2   4 -12    9.00    0.90
   3  -4  12    2.40    0.50
  -3  -4 -12    1.50    0.50
  -3   4 -12    2.10    0.40
  -4  -4 -12    1.00    0.40
  -4  -5  12    6.80    0.70
   4   5 -12    6.90    0.60
  -3  -5  12   35.30    1.80
   3   5 -12   32.80    1.70
  -2  -5  12   23.70    1.50
   2   5 -12   24.20    1.40
  -1  -5  12   15.40    1.20
   1   5 -12   16.00    1.10
   0  -5  12    2.50    0.50
   0   5 -12    2.40    0.50
   1  -5  12    1.40    0.40
  -1   5 -12    0.10    0.30
  -2  -5 -12   51.49    2.20
  -2   5 -12   52.59    2.20
  -8   0  13    0.10    0.30
   8   0 -13    0.10    0.40
   7   0 -13    0.30    0.40
  -7   0  13    0.00    0.30
  -6   0  13    0.00    0.40
   6   0 -13    0.60    0.50
  -5   0  13    1.20    0.50
   5   0 -13    0.30    0.50
  -5   0  13  -11.60    7.00
  -4   0  13    0.20    0.40
  -4   0  13   -0.20    0.40
   4   0 -13    0.90    0.70
  -3   0  13   29.00   12.00
   2   0 -13    0.90    0.70
  -2   0  13   17.20   12.50
  -2   0  13    2.80    2.00
  -1   0  13   -1.60    1.50
  -1   0  13    0.20    0.60
   1   0 -13    0.30    0.70
  -1   0  13   -3.70   13.30
   0   0 -13   -0.40    0.80
   0   0  13   -0.20    0.70
   0   0  13   -1.60    1.30
  -1   0 -13   -0.20    0.70
  -1   0 -13    0.20    0.50
   1   0  13   -0.20    0.60
   1   0  13    0.50    1.50
  -2   0 -13    0.00    0.60
   2   0  13    0.10    2.80
  -2   0 -13    0.30    0.40
   2   0  13    0.00    0.60
  -3   0 -13    0.30    0.30
   3   0  13    1.60    0.70
  -3   0 -13    0.00    0.50
  -4   0 -13    0.40    0.40
  -4   0 -13    0.20    0.60
   4   0  13    0.00    0.40
  -5   0 -13   -0.20    0.40
  -5   0 -13    1.20    0.40
   5   0  13    0.00    0.30
  -6   0 -13    0.20    0.20
  -8  -1  13   46.40    1.90
   8  -1 -13   42.10    2.20
  -8   1  13   45.50    2.00
  -7  -1  13   10.20    0.90
   7  -1 -13   10.40    1.20
  -7   1  13   12.60    1.00
  -6  -1  13    2.70    0.60
   6  -1 -13    2.20    0.80
  -6   1  13    1.00    0.50
   6   1 -13    1.70    0.60
   5  -1 -13   19.10    1.90
  -5  -1  13   11.30    9.90
  -5   1  13   27.10   13.40
  -5   1  13   16.40    1.70
   5   1 -13   19.50    1.60
  -4  -1  13  118.39    9.10
  -4  -1  13  106.29   19.00
   4  -1 -13  115.29    5.30
  -4  -1  13  113.49    4.40
  -4  -1  13  108.79    4.60
  -4   1  13  110.99    4.50
  -4   1  13   96.99   20.50
   4   1 -13  112.89    5.00
  -4   1  13  109.59    8.80
  -3  -1  13 2036.00  100.89
   3  -1 -13 1878.91   64.59
  -3  -1  13 1852.81   63.59
  -3  -1  13 1857.31   63.99
  -3  -1  13 1842.82   68.89
  -3   1  13 1784.02   63.69
  -3   1  13 1860.81   63.89
  -3   1  13 1955.20   69.99
   3   1 -13 1976.10   64.49
  -3   1  13 1541.85   95.69
  -2  -1  13  511.35   46.00
   2  -1 -13  529.95   20.60
  -2  -1  13  519.75   18.60
  -2   1  13  520.85   18.60
  -2   1  13  493.95   52.49
  -2   1  13  516.15   23.20
  -1  -1  13 1150.18   39.50
   1  -1 -13  980.00   40.90
  -1   1  13 1123.09   39.40
   1   1 -13 1274.97   40.60
  -1  -1 -13 1622.44   56.19
   1  -1  13 1629.14   55.69
   1  -1  13 1563.14   60.89
  -1   1 -13 1617.94   56.29
   2  -1  13  136.19    9.30
  -2  -1 -13  139.49    6.30
  -2  -1 -13  137.69    5.60
   2  -1  13  137.49    5.80
   2   1  13  132.99    8.90
  -2   1 -13  137.79    6.40
   3  -1  13  167.48    6.80
  -3  -1 -13  185.18    6.80
  -3  -1 -13  164.98    7.40
  -3   1 -13  168.58    7.60
   4  -1  13    1.40    0.50
  -4  -1 -13    0.00    0.50
  -4  -1 -13   -0.30    0.30
   4   1  13    0.60    0.50
  -4   1 -13    0.20    0.60
  -5  -1 -13   15.80    1.10
  -5  -1 -13   14.30    1.30
   5  -1  13   13.50    1.00
  -5   1 -13   14.00    1.50
   5   1  13   14.70    1.10
   7  -2 -13   10.50    1.20
  -7  -2  13    9.40    0.80
  -7   2  13   11.80    1.00
  -6  -2  13  263.67    9.40
   6  -2 -13  258.57   10.30
  -6   2  13  267.07    9.60
   5  -2 -13  879.71   30.50
  -5  -2  13  851.51   29.50
  -5  -2  13  842.32   29.70
  -5   2  13  841.32   29.70
  -4  -2  13  405.76   35.40
  -4  -2  13  366.26   15.40
  -4  -2  13  396.26   15.10
   4  -2 -13  430.56   15.50
  -4   2  13  412.76   15.00
  -4   2  13  439.66   59.29
   4   2 -13  434.76   15.10
  -3  -2  13 1063.29   36.20
  -3  -2  13 1026.00   46.20
  -3  -2  13 1116.09   73.89
  -3  -2  13 1077.99   36.80
   3  -2 -13 1057.89   37.30
  -3   2  13  944.31   77.89
  -3   2  13 1018.70   45.60
   3   2 -13 1095.59   37.10
  -2  -2  13   -8.60    8.30
  -2  -2  13    0.80    0.50
  -2   2  13    1.50    0.50
   2   2 -13    0.40    0.60
  -2   2  13   -0.60    2.20
  -1  -2  13    0.50    1.70
  -1  -2  13    1.00   15.10
   1  -2 -13    1.60    0.70
  -1  -2  13    1.70    0.60
   1   2 -13    1.20    0.60
   0  -2  13    3.80    1.90
   0  -2  13    6.20    1.00
   0  -2 -13    5.70    1.00
   0   2 -13    5.40    1.00
   1  -2  13  143.89    6.10
  -1  -2 -13  148.79    6.50
   1  -2  13  138.29    9.90
  -1   2 -13  163.88    6.90
  -1   2 -13  148.79    5.70
  -2  -2 -13    0.20    0.50
  -2  -2 -13    2.70    0.80
  -2   2 -13    1.20    0.80
   3  -2  13 1194.88   39.80
  -3  -2 -13 1147.49   40.20
  -3  -2 -13 1161.88   39.70
  -3   2 -13 1075.29   41.10
  -4  -2 -13    2.60    0.90
  -4  -2 -13    2.90    0.70
   4  -2  13    2.60    0.60
  -5  -2 -13  402.96   14.30
  -5   2 -13  416.06   15.10
   5   2  13  390.46   14.30
  -7  -3  13  151.38    5.40
   7  -3 -13  147.99    5.90
  -7   3  13  154.08    5.60
  -6  -3  13  126.59    4.80
   6  -3 -13  125.09    5.50
  -6   3  13  143.69    5.20
   5  -3 -13   92.69    4.40
  -5  -3  13   90.99    3.60
  -5  -3  13   90.39    3.90
  -5   3  13   96.79    3.90
  -4  -3  13   16.70    1.30
  -4  -3  13   14.20    1.00
  -3  -3  13   26.40    1.80
   3  -3 -13   26.60    2.00
   2  -3 -13   72.39    3.60
  -2  -3  13   74.49    3.40
  -2   3  13   68.69    3.10
  -1  -3  13  351.86   13.50
   1  -3 -13  339.67   13.00
   1   3 -13  351.56   13.20
   0  -3  13   18.60    1.50
   0  -3 -13   17.20    1.50
   0   3 -13   18.10    1.70
   0   3 -13   18.50    1.30
  -1  -3 -13  313.57   12.20
   1  -3  13  310.97   12.00
  -1   3 -13  365.76   13.20
  -1   3 -13  315.07   11.70
  -2  -3 -13   43.50    2.30
   2  -3  13   43.80    2.30
  -2   3 -13   43.30    2.00
  -2   3 -13   44.50    2.80
  -3  -3 -13  136.29    5.40
   3  -3  13  135.89    5.40
  -3   3 -13  137.19    6.00
  -4  -3 -13    7.00    0.80
  -4   3 -13    5.10    0.90
  -5  -4  13   10.00    0.80
  -5  -4  13   10.50    0.60
   5  -4 -13    8.90    0.90
  -5   4  13   11.00    0.90
   4  -4 -13   35.00    2.20
   3  -4 -13   30.20    1.80
  -3  -4  13   30.40    1.80
  -2  -4  13    1.40    0.50
   2  -4 -13    1.80    0.50
  -1  -4  13  136.69    5.40
   1   4 -13  124.59    5.10
   0  -4  13  123.49    5.00
   0   4 -13  117.99    4.70
   1  -4  13   36.90    2.00
  -1   4 -13   37.10    2.00
  -2  -4 -13   18.80    1.30
   2  -4  13   17.20    1.20
  -2   4 -13   18.40    1.00
  -3  -4 -13    7.00    0.70
   3  -4  13    5.30    0.70
  -3  -5  13   45.90    2.10
   3   5 -13   44.40    2.00
  -2  -5  13   40.50    2.00
   2   5 -13   39.90    1.80
  -1  -5  13   54.69    2.50
   1   5 -13   58.09    2.40
   0  -5  13    0.00    0.20
   0   5 -13    0.30    0.30
  -8   0  14   85.99    3.30
  -7   0  14   29.20    1.50
   7   0 -14   27.00    1.80
   6   0 -14   97.19    4.40
  -6   0  14   99.89    3.90
  -5   0  14    3.50    0.60
   5   0 -14    3.00    0.70
  -4   0  14   31.30    2.40
  -4   0  14   32.40    1.80
  -4   0  14   15.50   10.10
   4   0 -14   28.20    2.10
  -3   0  14  121.09    4.90
  -3   0  14  153.38   30.00
   3   0 -14  134.99    5.80
  -3   0  14  127.89    5.20
  -2   0  14  736.03   26.50
   2   0 -14  758.52   27.00
  -2   0  14  778.92   62.79
   1   0 -14 2000.80   69.09
  -1   0  14 1986.70   68.69
   0   0 -14 1085.59   37.40
   0   0  14 1027.20   36.80
   0   0  14 1048.50   42.00
   1   0  14 4941.01  172.88
  -1   0 -14 4862.71  166.78
  -2   0 -14   17.20    1.30
   2   0  14   23.10    1.70
  -2   0 -14   18.50    2.10
   3   0  14  487.55   17.60
  -3   0 -14  490.65   17.30
  -4   0 -14   90.69    3.60
   4   0  14   89.29    3.80
  -4   0 -14   86.29    4.30
  -5   0 -14   22.70    1.60
   5   0  14   19.40    1.20
  -5   0 -14   20.30    1.00
   7  -1 -14    7.30    0.90
  -7  -1  14    7.20    0.70
  -7   1  14    8.90    0.80
   6  -1 -14   98.49    4.50
  -6  -1  14   96.99    3.80
  -6   1  14  101.19    4.00
   6   1 -14   96.29    4.20
   5  -1 -14   40.40    2.60
  -5  -1  14   38.80    1.80
   5   1 -14   38.80    2.80
  -5   1  14   37.40    2.00
   4  -1 -14  299.27   11.50
  -4  -1  14  290.77   10.90
  -4  -1  14  283.97   10.50
  -4   1  14  314.77   10.80
   4   1 -14  291.27   11.30
  -3  -1  14  415.86   15.00
  -3  -1  14  328.87   39.20
   3  -1 -14  418.76   15.50
  -3   1  14  391.56   20.30
  -3   1  14  416.96   14.60
  -3   1  14  425.16   14.80
   3   1 -14  431.96   15.40
  -3   1  14  444.66   48.80
  -2  -1  14  125.89   26.90
   2  -1 -14  116.09    5.30
  -2  -1  14  108.59    4.80
   2   1 -14  112.49    5.20
  -2   1  14  116.59    4.80
  -2   1  14   87.49    9.10
  -2   1  14  162.78   29.90
  -1  -1  14 1862.81   64.39
  -1  -1  14 1893.31   70.39
   1  -1 -14 1957.00   64.89
  -1  -1  14 1634.74  104.89
  -1   1  14 1870.51   64.39
   1   1 -14 1970.70   64.99
  -1   1  14 1823.32   69.89
   0  -1  14  100.29    9.20
   0  -1 -14   75.19    3.90
   0  -1  14   73.49    3.60
   0   1 -14   72.39    4.00
   0   1  14   72.19    3.60
  -1  -1 -14   77.39    3.50
   1  -1  14   79.59    8.40
  -1  -1 -14   77.89    4.10
   1  -1  14   78.99    3.70
   1   1  14   78.69    3.80
  -1   1 -14   77.89    4.30
  -2  -1 -14  294.57   11.30
  -2  -1 -14  282.67   10.40
   2  -1  14  282.17   10.70
   2   1  14  274.27   10.70
  -2   1 -14  280.67   11.40
   3  -1  14  867.71   30.30
  -3  -1 -14  857.51   30.90
  -3  -1 -14  872.41   30.10
  -3   1 -14  862.31   31.10
   3   1  14  868.21   30.40
   4  -1  14    4.90    0.70
  -4  -1 -14    3.40    0.60
  -4  -1 -14    3.00    0.70
   4   1  14    4.70    0.80
  -4   1 -14    3.10    0.80
   5  -1  14  166.48    6.20
  -5  -1 -14  176.98    6.30
  -5   1 -14  169.58    6.90
   5   1  14  174.18    6.40
  -7  -2  14   26.70    1.30
   7  -2 -14   26.40    1.70
  -7   2  14   27.30    1.40
  -6  -2  14   34.70    1.60
   6  -2 -14   31.20    2.10
  -6   2  14   34.20    1.70
  -5  -2  14   74.99    3.40
   5  -2 -14   76.19    3.80
  -5  -2  14   72.99    3.00
  -5   2  14   73.89    3.20
  -4  -2  14    1.80    0.40
  -4  -2  14    1.60    0.50
   4  -2 -14    1.30    0.80
  -4   2  14    1.90    0.60
   4   2 -14    2.10    0.70
  -3  -2  14  182.88    7.10
   3  -2 -14  180.28    7.50
  -3   2  14  171.48    6.70
   3   2 -14  182.68    7.40
  -2  -2  14    0.50    0.50
   2  -2 -14    1.20    0.70
  -2  -2  14    9.00   16.10
  -2   2  14    1.40    0.50
  -2   2  14    0.60    0.50
   2   2 -14    1.40    0.60
  -1  -2  14   16.20    1.40
  -1  -2  14   18.70   26.50
   1  -2 -14   16.20    1.60
   1   2 -14   15.50    1.60
  -1   2  14   15.80    1.50
   0  -2 -14    0.00    0.50
   0  -2  14    0.50    0.60
   0   2 -14    0.30    0.50
  -1  -2 -14   74.19    3.80
   1  -2  14   71.69    3.40
  -1   2 -14   74.59    4.00
  -1   2 -14   70.29    3.00
  -2  -2 -14    3.50    0.80
  -2  -2 -14    2.80    0.60
   2  -2  14    4.70    0.80
  -2   2 -14    3.30    1.20
   3  -2  14    5.80    0.90
  -3  -2 -14    6.70    0.90
  -3   2 -14    4.00    0.90
   4  -2  14  122.09    4.70
  -4  -2 -14  128.29    4.80
  -4   2 -14  115.69    5.40
   4   2  14  126.89    5.00
   6  -3 -14   31.00    1.90
  -6  -3  14   35.00    1.70
  -6   3  14   31.10    1.60
  -5  -3  14   57.29    2.50
  -5  -3  14   56.19    2.30
   5  -3 -14   54.29    2.90
  -5   3  14   60.89    2.60
  -4  -3  14   16.00    1.20
   4  -3 -14   13.70    1.40
  -4   3  14   15.80    1.10
  -3  -3  14    2.70    0.60
   3  -3 -14    2.40    0.70
  -3   3  14    2.70    0.50
   2  -3 -14   46.90    2.60
  -2  -3  14   43.90    2.40
   1  -3 -14   29.60    2.00
  -1  -3  14   30.50    1.90
  -1   3  14   29.50    1.80
   1   3 -14   30.30    2.00
   0  -3 -14   15.10    1.40
   0  -3  14   14.40    1.20
   0   3 -14   15.60    1.10
   0   3 -14   13.60    1.50
   1  -3  14   47.40    2.40
  -1  -3 -14   44.70    2.50
  -1   3 -14   45.40    2.70
  -1   3 -14   47.80    2.20
   2  -3  14    6.10    0.80
  -2  -3 -14    7.00    0.90
  -2   3 -14    6.70    1.10
   3  -3  14   52.09    2.20
  -3  -3 -14   46.80    2.20
  -3   3 -14   45.20    2.60
  -5  -4  14    0.30    0.20
  -5   4  14    0.10    0.30
   4  -4 -14   19.80    1.30
  -4  -4  14   20.50    1.20
  -4   4  14   20.20    1.10
   3  -4 -14    8.10    0.80
  -3  -4  14   10.00    0.90
  -3   4  14    9.10    0.70
   2  -4 -14   -0.10    0.50
  -2  -4  14    0.30    0.40
   2   4 -14    0.00    0.40
  -1  -4  14   38.50    2.00
   1   4 -14   35.70    2.00
   0  -4  14    5.10    0.80
   0   4 -14    6.40    0.70
  -1  -4 -14  139.19    5.20
   1  -4  14  135.29    5.20
  -1   4 -14  130.89    5.00
  -2  -4 -14    1.90    0.40
   2  -4  14    1.50    0.40
  -7   0  15    0.10    0.20
   7   0 -15    0.20    0.30
   6   0 -15    0.00    0.30
  -6   0  15    0.20    0.30
   5   0 -15   -0.20    0.40
  -5   0  15    1.50    0.40
   4   0 -15   -0.20    0.40
  -4   0  15    0.30    0.50
  -4   0  15   -0.20    0.30
  -3   0  15    0.20    0.40
   3   0 -15    0.10    0.50
   2   0 -15    0.40    0.60
  -2   0  15   -0.50    0.50
   1   0 -15    0.20    0.60
  -1   0  15   -0.30    0.40
   0   0  15    0.20    0.60
   0   0 -15    0.80    0.70
  -2   0 -15    1.10    0.90
   2   0  15    0.00    0.50
  -3   0 -15    0.50    0.30
  -3   0 -15   -0.20    0.50
   3   0  15    0.20    0.50
  -4   0 -15    0.10    0.40
   4   0  15    0.30    0.40
   7  -1 -15    7.70    0.80
  -7  -1  15    7.20    0.60
  -7   1  15    8.00    0.60
   6  -1 -15   29.00    1.90
  -6  -1  15   29.10    1.40
   6   1 -15   28.30    1.60
  -6   1  15   31.90    1.50
  -5  -1  15    0.60    0.30
   5  -1 -15   -0.20    0.40
  -5   1  15    0.30    0.40
   5   1 -15    1.50    0.50
  -4  -1  15    0.00    0.30
  -4  -1  15    0.80    0.40
   4   1 -15    0.50    0.60
  -4   1  15    1.30    0.40
  -3  -1  15   20.10    1.40
   3  -1 -15   21.50    1.80
  -3   1  15   19.80    1.20
   3   1 -15   21.10    1.70
  -3   1  15   20.20    1.30
   2  -1 -15   17.50    1.70
  -2  -1  15   17.80    1.40
  -2   1  15   16.70    1.30
   2   1 -15   18.00    1.70
   1  -1 -15  280.27   11.20
  -1  -1  15  309.37   11.20
   1   1 -15  283.17   11.30
  -1   1  15  276.77   10.70
   0  -1 -15  172.48    7.40
   0  -1  15  180.48    6.90
   0  -1 -15  170.58    6.60
   0   1 -15  172.48    7.50
   0   1  15  168.38    6.90
  -1  -1 -15   62.89    3.50
   1  -1  15   62.79    3.10
  -1  -1 -15   61.29    2.80
  -1   1 -15   60.79    3.60
   1   1  15   58.99    3.00
  -2  -1 -15   17.60    1.20
   2  -1  15   16.40    1.40
  -2  -1 -15   17.50    1.70
   2   1  15   17.10    1.50
  -2   1 -15   20.00    1.90
   3  -1  15  241.78    9.20
  -3  -1 -15  243.38    9.00
  -3  -1 -15  252.37    9.80
  -3   1 -15  260.67   10.00
   3   1  15  241.78    9.20
  -4  -1 -15    2.00    0.50
  -4  -1 -15    2.00    0.40
   4  -1  15    1.90    0.40
  -4   1 -15    0.90    0.50
   4   1  15    1.60    0.50
   6  -2 -15    0.30    0.40
  -6  -2  15    0.90    0.30
  -6   2  15    1.90    0.40
   5  -2 -15   13.30    1.30
  -5  -2  15   12.90    0.90
  -5  -2  15   14.20    0.80
  -5   2  15   14.10    1.00
   4  -2 -15   66.89    3.40
  -4  -2  15   62.29    2.90
   4   2 -15   69.29    3.30
  -4   2  15   62.39    2.70
   3  -2 -15  201.18    8.90
  -3  -2  15  202.58    7.70
   3   2 -15  204.48    8.00
  -3   2  15  198.68    7.40
   2  -2 -15  118.99    5.20
  -2  -2  15  117.19    4.90
  -2   2  15  115.89    4.70
   2   2 -15  115.99    5.50
  -1  -2  15   45.50    2.40
  -1   2  15   47.10    2.40
   1   2 -15   41.80    3.30
   0  -2 -15    0.20    0.50
   0  -2  15    0.40    0.40
   0   2  15    0.30    0.50
   0   2 -15    1.00    0.40
   0   2 -15    0.60    0.70
   1  -2  15    1.90    0.50
  -1  -2 -15    1.70    0.50
  -1  -2 -15    1.60    0.60
   1   2  15    3.10    0.70
  -1   2 -15    2.80    0.70
  -2  -2 -15   12.50    1.00
  -2  -2 -15   11.00    1.20
   2  -2  15   12.70    1.10
   2   2  15   11.40    1.10
  -2   2 -15   11.60    1.40
   3  -2  15    6.80    0.70
  -3  -2 -15    4.50    0.90
  -3  -2 -15    6.20    0.70
   3   2  15    6.70    0.90
  -3   2 -15    6.40    1.10
   4  -2  15    5.70    0.50
   4   2  15    8.40    0.70
  -4   2 -15    8.80    1.00
  -5  -3  15   49.60    2.20
   5  -3 -15   56.09    2.70
  -5   3  15   56.69    2.30
   4  -3 -15    6.30    0.90
  -4  -3  15    7.10    0.80
  -4   3  15    7.80    0.70
  -3  -3  15    1.40    0.50
   3  -3 -15    1.30    0.50
  -3   3  15    1.80    0.40
   2  -3 -15   33.90    2.10
  -2  -3  15   36.10    2.00
   1  -3 -15   28.20    1.80
  -1  -3  15   28.10    1.70
   1   3 -15   27.20    1.50
   1   3 -15   24.90    1.80
  -1   3  15   26.90    1.50
   0  -3  15   22.60    1.50
   0  -3 -15   23.90    1.70
   0   3 -15   24.00    2.10
   0   3 -15   23.20    1.30
   0   3  15   21.30    1.70
  -1  -3 -15    4.50    0.90
   1  -3  15    6.10    0.90
  -1  -3 -15    4.70    1.00
   1   3  15    5.10    0.80
  -1   3 -15    6.50    1.00
  -1   3 -15    5.90    0.80
  -2  -3 -15   -0.20    0.30
   2  -3  15    0.40    0.30
   2   3  15    0.30    0.40
  -2   3 -15    0.70    0.40
   3  -3  15   12.50    0.70
  -3  -3 -15   12.10    0.80
   3   3  15   13.30    0.90
  -3   3 -15   11.00    1.00
  -3  -4  15    8.50    0.80
  -2  -4  15    0.80    0.40
   2   4 -15    0.50    0.30
  -1  -4  15    0.10    0.30
   1   4 -15    0.30    0.30
   0  -4  15   12.50    0.90
   0   4 -15    9.60    0.80
   0   4  15   10.40    0.70
   1  -4  15    6.70    0.70
  -1  -4 -15    5.20    0.60
   1   4  15    4.60    0.50
   6   0 -16    0.60    0.40
  -6   0  16    1.50    0.30
   5   0 -16   12.50    1.20
  -5   0  16   12.70    0.80
   4   0 -16   43.90    2.50
   3   0 -16  400.06   14.80
  -3   0  16  369.46   13.70
  -2   0  16    5.60    0.80
   2   0 -16    4.00    0.90
   1   0 -16  299.87   11.50
  -1   0  16  290.57   11.00
   0   0  16    2.50    0.60
   0   0 -16    3.10    1.20
  -1   0 -16    8.90    1.30
   1   0  16    8.50    1.10
   2   0  16  132.49    5.40
  -2   0 -16  135.19    5.90
  -3   0 -16   43.50    3.10
   3   0  16   43.60    2.10
   6  -1 -16    0.40    0.40
  -6   1  16    0.20    0.20
  -5  -1  16   45.40    2.10
   5  -1 -16   41.30    2.40
   5   1 -16   43.20    2.30
  -5   1  16   46.70    1.90
   4  -1 -16    3.90    0.80
  -4  -1  16    4.10    0.60
   4   1 -16    4.80    0.80
  -4   1  16    4.10    0.50
  -3  -1  16   54.29    2.50
   3  -1 -16   51.39    2.90
  -3   1  16   51.39    2.60
   3   1 -16   54.99    2.90
   2  -1 -16    8.50    1.40
  -2  -1  16   10.90    1.10
  -2   1  16   11.50    1.00
   2   1 -16   11.00    1.30
   1  -1 -16   96.09    4.10
  -1  -1  16   91.39    4.10
  -1   1  16   93.29    4.10
   1   1 -16  104.09    5.10
   0  -1 -16    7.70    1.20
   0  -1  16    8.80    1.00
   0   1  16   10.10    1.10
   0   1 -16    9.80    1.40
  -1  -1 -16   30.90    2.20
   1  -1  16   28.20    1.80
  -1  -1 -16   27.60    1.50
   1   1  16   27.80    1.80
  -1   1 -16   27.60    2.20
   2  -1  16    1.00    0.50
  -2  -1 -16    0.50    0.30
  -2  -1 -16    0.70    0.50
   2   1  16    1.20    0.50
  -2   1 -16    1.10    0.70
   3  -1  16   29.10    1.60
  -3  -1 -16   27.30    1.30
  -3  -1 -16   27.70    1.80
   3   1  16   29.00    1.60
  -3   1 -16   35.00    2.40
   6  -2 -16    3.90    0.60
  -6   2  16    4.40    0.40
   5  -2 -16   -0.10    0.30
  -5   2  16    0.20    0.30
  -4  -2  16   21.20    1.30
   4  -2 -16   23.00    1.60
  -4   2  16   20.90    1.10
  -3  -2  16    0.90    0.40
   3  -2 -16    0.80    0.50
   3   2 -16    1.20    0.60
  -2  -2  16   17.40    1.30
   2  -2 -16   16.80    1.50
  -2   2  16   16.90    1.10
   2   2 -16   16.50    1.40
   1  -2 -16   42.90    2.50
  -1  -2  16   43.80    2.30
  -1   2  16   43.40    2.20
   1   2 -16   44.00    2.60
   0  -2  16    4.70    0.70
   0  -2 -16    5.10    0.90
   0   2 -16    3.70    0.80
   0   2  16    3.80    0.60
  -1  -2 -16    0.40    0.50
   1  -2  16    0.80    0.40
  -1  -2 -16    0.20    0.30
   1   2  16    0.20    0.40
  -1   2 -16   -0.30    0.40
  -2  -2 -16   12.80    0.90
  -2  -2 -16   13.50    1.10
   2  -2  16   13.10    1.00
   2   2  16   12.90    1.10
  -2   2 -16   11.50    1.60
   3  -2  16    0.50    0.30
  -3  -2 -16    0.40    0.30
   3   2  16    0.30    0.30
  -3   2 -16    0.30    0.40
  -4  -3  16    7.10    0.70
   4  -3 -16    8.20    0.80
   3  -3 -16   58.49    2.80
  -3  -3  16   56.99    2.60
   2  -3 -16   10.60    1.00
  -2  -3  16   11.20    1.00
  -1  -3  16   29.70    1.70
   1  -3 -16   31.50    1.80
  -1   3  16   30.50    1.60
   1   3 -16   28.50    1.40
   0  -3 -16   43.30    2.60
   0  -3 -16   46.80    2.10
   0  -3  16   47.20    2.20
   0   3  16   44.80    2.10
   0   3 -16   45.70    1.80
   0   3 -16   41.30    2.30
  -1  -3 -16   23.50    1.30
   1  -3  16   23.60    1.40
   1   3  16   25.80    1.40
  -1   3 -16   24.30    1.80
   5   0 -17    0.00    0.30
   4   0 -17    0.20    0.30
   3   0 -17    0.30    0.40
  -3   0  17    0.10    0.30
   2   0 -17    0.10    0.50
  -2   0  17    0.50    0.40
   1   0 -17    0.50    0.60
  -1   0  17   -0.10    0.40
   0   0 -17    0.00    0.50
   0   0  17   -0.30    0.40
   1   0  17    0.30    0.50
  -1   0 -17    0.40    0.40
   2   0  17    0.00    0.30
  -2   0 -17    0.00    0.40
   5  -1 -17   30.30    1.80
  -4  -1  17    0.20    0.30
   4  -1 -17    0.30    0.40
   4   1 -17    0.10    0.30
  -2  -1  17   18.20    1.30
   2  -1 -17   18.70    1.60
   2   1 -17   21.50    1.60
  -2   1  17   19.60    1.20
   1  -1 -17    2.00    0.70
  -1  -1  17    1.90    0.50
   1   1 -17    2.00    0.70
  -1   1  17    2.10    0.60
   0  -1 -17    1.40    0.60
   0  -1  17    1.40    0.50
   0   1 -17    2.20    0.70
   0   1  17    2.90    0.70
  -1  -1 -17   40.60    2.40
   1  -1  17   42.50    2.10
  -1   1 -17   42.40    2.50
   1   1  17   42.10    2.10
  -2  -1 -17    0.70    0.40
   2  -1  17    1.60    0.40
  -2   1 -17    0.40    0.40
   5  -2 -17    3.50    0.60
  -4  -2  17    3.80    0.50
   4  -2 -17    4.30    0.80
  -3  -2  17   83.49    3.40
   3  -2 -17   80.49    3.70
   2  -2 -17    1.90    0.50
  -2  -2  17    0.80    0.40
   2   2 -17    1.00    0.50
   1  -2 -17   39.90    1.80
  -1  -2  17   43.20    2.10
   1  -2 -17   41.40    2.30
  -1   2  17   41.60    1.90
   1   2 -17   38.90    2.20
   0  -2 -17   23.70    1.40
   0  -2 -17   22.30    1.60
   0  -2  17   22.80    1.40
   0   2 -17   22.50    1.60
   0   2  17   22.30    1.40
  -1  -2 -17  162.28    6.70
  -1  -2 -17  180.28    6.20
   1  -2  17  166.68    6.40
  -1   2 -17  179.18    6.90
   1   2  17  175.38    6.50
  -3  -3  17   49.50    2.20
   3  -3 -17   47.30    2.20
   3   3 -17   42.40    1.90
  -2  -3  17    4.20    0.50
   2  -3 -17    3.10    0.60
   2   3 -17    4.20    0.40
   1  -3 -17   20.60    1.00
  -1  -3  17   21.00    1.20
   4   0 -18    9.40    1.00
  -3   0  18   11.20    0.70
   3   0 -18   11.70    1.30
   2   0 -18    2.10    0.60
  -2   0  18    1.80    0.40
   1   0 -18  296.67   11.00
  -1   0  18  285.27   10.50
   0   0 -18    3.50    0.80
   0   0  18    5.00    0.70
   1   0  18  132.19    5.10
  -1   0 -18  132.49    5.50
   4  -1 -18    0.80    0.40
  -3  -1  18  183.98    6.60
   3  -1 -18  176.98    7.00
   3   1 -18  176.98    6.90
   2  -1 -18    0.60    0.60
  -2  -1  18    0.70    0.40
   2   1 -18    0.80    0.40
  -2   1  18    0.50    0.30
  -1  -1  18   90.19    3.60
   1  -1 -18   73.99    4.10
   1   1 -18   90.69    4.00
  -1   1  18   90.19    3.50
   0  -1  18    0.20    0.30
   0  -1 -18    0.20    0.40
   0   1  18    0.10    0.30
   0   1 -18    0.60    0.40
  -1  -1 -18  171.48    6.60
   1  -1  18  159.28    6.20
   1   1  18  167.78    6.20
  -1   1 -18  170.18    6.70
  -3  -2  18  105.89    3.80
   3  -2 -18  103.99    4.20
   3   2 -18   90.99    3.70
  -2  -2  18    0.30    0.30
   2  -2 -18   -0.20    0.30
   1  -2 -18  148.99    5.70
  -1  -2  18  146.09    5.40
  -1   2  18  133.09    5.20
   0   0   0    0.00    0.00

_computing_structure_solution     'SHELXT 2018/2 (Sheldrick, 2018)'
;
_shelx_hkl_checksum              15627
_olex2_submission_special_instructions 'No special instructions were received'
loop_
_space_group_symop_operation_xyz
'x, y, z'
'-x, y+1/2, -z+1/2'
'-x, -y, -z'
'x, -y-1/2, z-1/2'
loop_
_atom_site_label
_atom_site_type_symbol
_atom_site_fract_x
_atom_site_fract_y
_atom_site_fract_z
_atom_site_U_iso_or_equiv
_atom_site_adp_type
_atom_site_occupancy
_atom_site_site_symmetry_order
_atom_site_calc_flag
_atom_site_refinement_flags_posn
_atom_site_refinement_flags_adp
_atom_site_refinement_flags_occupancy
_atom_site_disorder_assembly
_atom_site_disorder_group
C1 C 0.4216(2) 0.1721(3) 0.33523(10) 0.0613(4) Uani 1 1 d . . . . .
C2 C 0.3093(2) 0.3599(4) 0.32688(11) 0.0729(6) Uani 1 1 d . . . . .
H2A H 0.209621 0.312475 0.291102 0.088 Uiso 1 1 calc R . . . .
H2B H 0.352990 0.482496 0.297244 0.088 Uiso 1 1 calc R . . . .
C3 C 0.27216(16) 0.4481(3) 0.41127(9) 0.0493(4) Uani 1 1 d . . . . .
C4 C 0.31053(19) 0.3304(3) 0.48815(9) 0.0545(4) Uani 1 1 d . . . . .
H4 H 0.364906 0.193618 0.489247 0.065 Uiso 1 1 calc R . . . .
C5 C 0.26896(19) 0.4140(3) 0.56322(9) 0.0537(4) Uani 1 1 d . . . . .
H5 H 0.294036 0.334511 0.614733 0.064 Uiso 1 1 calc R . . . .
C6 C 0.18989(16) 0.6169(2) 0.56001(8) 0.0472(4) Uani 1 1 d . . . . .
C7 C 0.15222(19) 0.7398(3) 0.48467(10) 0.0549(4) Uani 1 1 d . . . . .
H7 H 0.100188 0.878373 0.484127 0.066 Uiso 1 1 calc R . . . .
C8 C 0.19333(19) 0.6529(3) 0.41051(9) 0.0561(4) Uani 1 1 d . . . . .
H8 H 0.167778 0.733004 0.359146 0.067 Uiso 1 1 calc R . . . .
N1 N 0.14229(17) 0.7066(2) 0.63854(8) 0.0595(4) Uani 1 1 d . . . . .
N2 N 0.5086(2) 0.0257(3) 0.34213(11) 0.0828(5) Uani 1 1 d . . . . .
O1 O 0.07803(18) 0.8907(2) 0.63621(9) 0.0829(5) Uani 1 1 d . . . . .
O2 O 0.1666(2) 0.5924(3) 0.70328(8) 0.0933(5) Uani 1 1 d . . . . .
loop_
_atom_site_aniso_label
_atom_site_aniso_U_11
_atom_site_aniso_U_22
_atom_site_aniso_U_33
_atom_site_aniso_U_23
_atom_site_aniso_U_13
_atom_site_aniso_U_12
C1 0.0631(9) 0.0750(11) 0.0481(8) -0.0065(7) 0.0161(7) 0.0032(8)
C2 0.0862(12) 0.0887(13) 0.0464(9) 0.0044(8) 0.0184(8) 0.0247(10)
C3 0.0505(7) 0.0558(8) 0.0422(7) 0.0028(6) 0.0100(5) 0.0008(6)
C4 0.0666(9) 0.0490(8) 0.0482(8) 0.0037(6) 0.0108(6) 0.0105(6)
C5 0.0671(9) 0.0535(8) 0.0396(7) 0.0071(6) 0.0068(6) 0.0073(7)
C6 0.0489(7) 0.0510(8) 0.0410(8) -0.0028(5) 0.0061(5) -0.0009(6)
C7 0.0629(8) 0.0492(8) 0.0525(8) 0.0058(6) 0.0099(6) 0.0107(6)
C8 0.0651(9) 0.0588(9) 0.0449(8) 0.0131(6) 0.0110(6) 0.0077(7)
N1 0.0649(8) 0.0681(9) 0.0443(7) -0.0058(6) 0.0059(5) 0.0076(6)
N2 0.0859(11) 0.0917(12) 0.0737(11) -0.0059(8) 0.0216(8) 0.0232(10)
O1 0.1016(10) 0.0801(9) 0.0673(8) -0.0121(6) 0.0158(7) 0.0331(7)
O2 0.1407(13) 0.0992(11) 0.0415(7) 0.0048(6) 0.0202(7) 0.0324(9)
loop_
_atom_type_symbol
_atom_type_description
_atom_type_scat_dispersion_real
_atom_type_scat_dispersion_imag
_atom_type_scat_source
C C 0.0181 0.0091 'International Tables Vol C Tables 4.2.6.8 and 6.1.1.4'
H H 0.0000 0.0000 'International Tables Vol C Tables 4.2.6.8 and 6.1.1.4'
N N 0.0311 0.0180 'International Tables Vol C Tables 4.2.6.8 and 6.1.1.4'
O O 0.0492 0.0322 'International Tables Vol C Tables 4.2.6.8 and 6.1.1.4'
loop_
_geom_angle_atom_site_label_1
_geom_angle_atom_site_label_2
_geom_angle_atom_site_label_3
_geom_angle
_geom_angle_site_symmetry_1
_geom_angle_site_symmetry_3
_geom_angle_publ_flag
N2 C1 C2 179.6(2) . . ?
C1 C2 H2A 108.6 . . ?
C1 C2 H2B 108.6 . . ?
C1 C2 C3 114.64(14) . . ?
H2A C2 H2B 107.6 . . ?
C3 C2 H2A 108.6 . . ?
C3 C2 H2B 108.6 . . ?
C4 C3 C2 122.83(14) . . ?
C8 C3 C2 117.96(13) . . ?
C8 C3 C4 119.20(13) . . ?
C3 C4 H4 119.6 . . ?
C5 C4 C3 120.78(14) . . ?
C5 C4 H4 119.6 . . ?
C4 C5 H5 120.8 . . ?
C6 C5 C4 118.47(13) . . ?
C6 C5 H5 120.8 . . ?
C5 C6 C7 122.11(13) . . ?
C5 C6 N1 119.33(13) . . ?
C7 C6 N1 118.56(13) . . ?
C6 C7 H7 120.7 . . ?
C8 C7 C6 118.56(14) . . ?
C8 C7 H7 120.7 . . ?
C3 C8 H8 119.6 . . ?
C7 C8 C3 120.88(13) . . ?
C7 C8 H8 119.6 . . ?
O1 N1 C6 119.09(13) . . ?
O2 N1 C6 118.49(14) . . ?
O2 N1 O1 122.41(14) . . ?
loop_
_geom_bond_atom_site_label_1
_geom_bond_atom_site_label_2
_geom_bond_distance
_geom_bond_site_symmetry_2
_geom_bond_publ_flag
C1 C2 1.453(3) . ?
C1 N2 1.130(2) . ?
C2 H2A 0.9700 . ?
C2 H2B 0.9700 . ?
C2 C3 1.511(2) . ?
C3 C4 1.386(2) . ?
C3 C8 1.383(2) . ?
C4 H4 0.9300 . ?
C4 C5 1.382(2) . ?
C5 H5 0.9300 . ?
C5 C6 1.371(2) . ?
C6 C7 1.381(2) . ?
C6 N1 1.4649(19) . ?
C7 H7 0.9300 . ?
C7 C8 1.375(2) . ?
C8 H8 0.9300 . ?
N1 O1 1.2156(19) . ?
N1 O2 1.2109(19) . ?
loop_
_geom_torsion_atom_site_label_1
_geom_torsion_atom_site_label_2
_geom_torsion_atom_site_label_3
_geom_torsion_atom_site_label_4
_geom_torsion
_geom_torsion_site_symmetry_1
_geom_torsion_site_symmetry_2
_geom_torsion_site_symmetry_3
_geom_torsion_site_symmetry_4
_geom_torsion_publ_flag
C1 C2 C3 C4 -14.3(3) . . . . ?
C1 C2 C3 C8 167.11(16) . . . . ?
C2 C3 C4 C5 -177.63(15) . . . . ?
C2 C3 C8 C7 178.28(15) . . . . ?
C3 C4 C5 C6 -0.5(2) . . . . ?
C4 C3 C8 C7 -0.3(2) . . . . ?
C4 C5 C6 C7 -0.6(2) . . . . ?
C4 C5 C6 N1 178.96(13) . . . . ?
C5 C6 C7 C8 1.1(2) . . . . ?
C5 C6 N1 O1 177.06(14) . . . . ?
C5 C6 N1 O2 -4.0(2) . . . . ?
C6 C7 C8 C3 -0.7(2) . . . . ?
C7 C6 N1 O1 -3.4(2) . . . . ?
C7 C6 N1 O2 175.58(15) . . . . ?
C8 C3 C4 C5 0.9(2) . . . . ?
N1 C6 C7 C8 -178.40(13) . . . . ?
