#------------------------------------------------------------------------------
#$Date: 2021-07-03 22:32:28 +0300 (Sat, 03 Jul 2021) $
#$Revision: 266937 $
#$URL: file:///home/coder/svn-repositories/cod/cif/4/51/88/4518854.cif $
#------------------------------------------------------------------------------
#
# This file is available in the Crystallography Open Database (COD),
# http://www.crystallography.net/
#
# All data on this site have been placed in the public domain by the
# contributors.
#
data_4518854
loop_
_publ_author_name
'Zhang, Xinyu'
'Tian, Chunqi'
'Wang, Zhanjing'
'Sivaguru, Paramasivam'
'Nolan, Steven P.'
'Bi, Xihe'
_publ_section_title
;
 Fluoroalkyl N-Triftosylhydrazones as Easily Decomposable Diazo Surrogates
 for Asymmetric [2 + 1] Cycloaddition: Synthesis of Chiral Fluoroalkyl
 Cyclopropenes and Cyclopropanes
;
_journal_name_full               'ACS Catalysis'
_journal_page_first              8527
_journal_page_last               8537
_journal_paper_doi               10.1021/acscatal.1c01483
_journal_year                    2021
_chemical_absolute_configuration unk
_chemical_formula_sum            'C17 H15 F3 O'
_chemical_formula_weight         292.29
_space_group_crystal_system      monoclinic
_space_group_IT_number           4
_space_group_name_Hall           'P 2yb'
_space_group_name_H-M_alt        'P 1 21 1'
_atom_sites_solution_hydrogens   geom
_audit_creation_method           SHELXL-2018/3
_audit_update_record
;
2020-12-09 deposited with the CCDC.	2021-06-04 downloaded from the CCDC.
;
_cell_angle_alpha                90
_cell_angle_beta                 94.419(12)
_cell_angle_gamma                90
_cell_formula_units_Z            2
_cell_length_a                   9.2006(11)
_cell_length_b                   6.3392(12)
_cell_length_c                   12.6940(18)
_cell_measurement_reflns_used    725
_cell_measurement_temperature    298(2)
_cell_measurement_theta_max      22.4600
_cell_measurement_theta_min      3.7420
_cell_volume                     738.2(2)
_computing_structure_refinement  'SHELXL-2018/3 (Sheldrick, 2018)'
_diffrn_ambient_temperature      298(2)
_diffrn_measured_fraction_theta_full 0.992
_diffrn_measured_fraction_theta_max 0.835
_diffrn_measurement_device_type  'Oxford Diffraction Gemini R Ultra'
_diffrn_radiation_type           MoK\a
_diffrn_radiation_wavelength     0.71073
_diffrn_reflns_av_R_equivalents  0.0166
_diffrn_reflns_av_unetI/netI     0.0381
_diffrn_reflns_Laue_measured_fraction_full 0.992
_diffrn_reflns_Laue_measured_fraction_max 0.835
_diffrn_reflns_limit_h_max       12
_diffrn_reflns_limit_h_min       -9
_diffrn_reflns_limit_k_max       8
_diffrn_reflns_limit_k_min       -8
_diffrn_reflns_limit_l_max       12
_diffrn_reflns_limit_l_min       -17
_diffrn_reflns_number            3420
_diffrn_reflns_point_group_measured_fraction_full 0.805
_diffrn_reflns_point_group_measured_fraction_max 0.641
_diffrn_reflns_theta_full        25.242
_diffrn_reflns_theta_max         29.382
_diffrn_reflns_theta_min         3.595
_exptl_absorpt_coefficient_mu    0.106
_exptl_crystal_density_diffrn    1.315
_exptl_crystal_description       block
_exptl_crystal_F_000             304
_refine_diff_density_max         0.105
_refine_diff_density_min         -0.124
_refine_diff_density_rms         0.028
_refine_ls_abs_structure_details
;
 Flack x determined using 452 quotients [(I+)-(I-)]/[(I+)+(I-)]
 (Parsons, Flack and Wagner, Acta Cryst. B69 (2013) 249-259).
;
_refine_ls_abs_structure_Flack   0.3(6)
_refine_ls_extinction_method     none
_refine_ls_goodness_of_fit_ref   1.041
_refine_ls_hydrogen_treatment    constr
_refine_ls_matrix_type           full
_refine_ls_number_parameters     190
_refine_ls_number_reflns         2624
_refine_ls_number_restraints     1
_refine_ls_restrained_S_all      1.041
_refine_ls_R_factor_all          0.0779
_refine_ls_R_factor_gt           0.0424
_refine_ls_shift/su_max          0.000
_refine_ls_shift/su_mean         0.000
_refine_ls_structure_factor_coef Fsqd
_refine_ls_weighting_details
'w=1/[\s^2^(Fo^2^)+(0.0364P)^2^+0.0280P] where P=(Fo^2^+2Fc^2^)/3'
_refine_ls_weighting_scheme      calc
_refine_ls_wR_factor_gt          0.0818
_refine_ls_wR_factor_ref         0.1018
_reflns_Friedel_coverage         0.415
_reflns_Friedel_fraction_full    0.576
_reflns_Friedel_fraction_max     0.411
_reflns_number_gt                1679
_reflns_number_total             2624
_reflns_threshold_expression     'I > 2\s(I)'
_cod_data_source_file            cs1c01483_si_001.cif
_cod_data_source_block           shelx
_cod_original_sg_symbol_H-M      'P 21'
_cod_database_code               4518854
_shelx_shelxl_version_number     2018/3
_shelx_space_group_comment
;
The symmetry employed for this shelxl refinement is uniquely defined
by the following loop, which should always be used as a source of
symmetry information in preference to the above space-group names.
They are only intended as comments.
;
_shelx_res_file
;
TITL SIR97 run in space group P 21
    shelx.res
    created by SHELXL-2018/3 at 14:32:49 on 07-Oct-2020
CELL  0.71073   9.2006   6.3392  12.6940   90.000   94.419   90.000
ZERR     2.00   0.0011   0.0012   0.0018    0.000    0.012    0.000
LATT  -1
SYMM  - X, 1/2 + Y, - Z
SFAC  C    H    O    F
UNIT  34 30 2 6
MERG   2
FMAP   2
PLAN    5
ACTA
BOND   $H
CONF
L.S.  10
TEMP    25.00
WGHT    0.036400    0.028000
FVAR       0.37895
C1    1    0.007815    0.600790    0.659007    11.00000    0.05821    0.07570 =
         0.07585    0.00462   -0.00886   -0.00300
C2    1    0.085726    0.451889    0.733260    11.00000    0.05045    0.06078 =
         0.05761    0.00147    0.00154   -0.01110
C3    1   -0.004475    0.285871    0.780527    11.00000    0.06094    0.08306 =
         0.07674    0.00762    0.00502   -0.01765
AFIX  23
H3A   2    0.039917    0.148848    0.794308    11.00000   -1.20000
H3B   2   -0.107742    0.281949    0.758442    11.00000   -1.20000
AFIX   0
C4    1    0.050341    0.467253    0.848537    11.00000    0.05777    0.07612 =
         0.06237    0.00079    0.01133   -0.00101
AFIX  13
H4    2   -0.024535    0.572237    0.861200    11.00000   -1.20000
AFIX   0
C5    1    0.165403    0.446916    0.936552    11.00000    0.05714    0.07650 =
         0.05479    0.00314    0.01370    0.00105
C6    1    0.246045    0.268471    0.957203    11.00000    0.10291    0.08116 =
         0.06307    0.00289    0.00154    0.00771
AFIX  43
H6    2    0.227702    0.149895    0.915125    11.00000   -1.20000
AFIX   0
C7    1    0.354412    0.259633    1.039192    11.00000    0.10793    0.09692 =
         0.07221    0.01523    0.00082    0.02548
AFIX  43
H7    2    0.407922    0.136420    1.051457    11.00000   -1.20000
AFIX   0
C8    1    0.382618    0.432670    1.102165    11.00000    0.08318    0.13022 =
         0.06218    0.00698    0.00139    0.00978
AFIX  43
H8    2    0.455370    0.427987    1.157198    11.00000   -1.20000
AFIX   0
C9    1    0.303008    0.611359    1.083274    11.00000    0.09079    0.11109 =
         0.06466   -0.01775   -0.00045    0.00231
AFIX  43
H9    2    0.321281    0.729524    1.125658    11.00000   -1.20000
AFIX   0
C10   1    0.194558    0.618092    1.000967    11.00000    0.07628    0.09003 =
         0.06969   -0.01017    0.01329    0.01358
AFIX  43
H10   2    0.140592    0.741058    0.989250    11.00000   -1.20000
AFIX   0
C11   1    0.237644    0.400529    0.705389    11.00000    0.04977    0.05446 =
         0.04646    0.00266   -0.00136   -0.00787
C12   1    0.263619    0.222091    0.648289    11.00000    0.06198    0.05703 =
         0.06255   -0.00636   -0.00376   -0.01618
AFIX  43
H12   2    0.186116    0.133759    0.627086    11.00000   -1.20000
AFIX   0
C13   1    0.402657    0.170436    0.621478    11.00000    0.07003    0.05866 =
         0.06317   -0.00818    0.00081    0.00136
AFIX  43
H13   2    0.418307    0.048086    0.583540    11.00000   -1.20000
AFIX   0
C14   1    0.517444    0.302916    0.651821    11.00000    0.05404    0.07234 =
         0.04583   -0.00321   -0.00324    0.00173
C15   1    0.492051    0.484969    0.707604    11.00000    0.05062    0.07057 =
         0.05707   -0.01417   -0.00206   -0.01295
AFIX  43
H15   2    0.568975    0.575463    0.727232    11.00000   -1.20000
AFIX   0
C16   1    0.353940    0.532975    0.734201    11.00000    0.05309    0.06056 =
         0.05472   -0.01187    0.00026   -0.00756
AFIX  43
H16   2    0.338270    0.655588    0.771926    11.00000   -1.20000
AFIX   0
C17   1    0.692003    0.082088    0.575839    11.00000    0.08219    0.11416 =
         0.09287   -0.02683    0.00973    0.02969
AFIX  33
H17A  2    0.794533    0.078260    0.566531    11.00000   -1.50000
H17B  2    0.665863   -0.038874    0.615774    11.00000   -1.50000
H17C  2    0.638164    0.080665    0.507985    11.00000   -1.50000
AFIX   0
O1    3    0.658595    0.269082    0.630992    11.00000    0.05489    0.10685 =
         0.07815   -0.02762    0.00010    0.00709
F1    4   -0.012487    0.524145    0.561802    11.00000    0.09793    0.12334 =
         0.06781    0.00555   -0.02187    0.00103
F2    4   -0.124990    0.653791    0.687161    11.00000    0.06367    0.12306 =
         0.11885    0.01635   -0.00186    0.02191
F3    4    0.078288    0.783502    0.650769    11.00000    0.09322    0.07258 =
         0.14218    0.03338   -0.02268   -0.01312
HKLF    4




REM  SIR97 run in space group P 21
REM wR2 = 0.1018, GooF = S = 1.041, Restrained GooF = 1.041 for all data
REM R1 = 0.0424 for 1679 Fo > 4sig(Fo) and 0.0779 for all 2624 data
REM 190 parameters refined using 1 restraints

END

WGHT      0.0356      0.0296

REM Highest difference peak  0.105,  deepest hole -0.124,  1-sigma level  0.028
Q1    1   0.1212  0.1008  0.5968  11.00000  0.05    0.11
Q2    1   0.5729 -0.1126  0.5995  11.00000  0.05    0.09
Q3    1   0.0545  0.7999  0.7489  11.00000  0.05    0.09
Q4    1   0.4267  0.2362  0.8791  11.00000  0.05    0.09
Q5    1   0.1158  0.0631  0.8464  11.00000  0.05    0.09
;
_shelx_res_checksum              35111
_shelx_hkl_file
;
   0   0   3  987.48    3.29
   0   0  -3 1000.00    3.24
   0   0   4   64.18    0.98
   0   0  -4   63.00    0.95
   0   0   5   10.00    0.44
   0   0  -5   10.45    0.45
   0   0  -6   -0.03    0.10
   0   0   6    0.10    0.08
   0   0  -7    0.78    0.16
   0   0   7    0.81    0.18
   0   0  -8    1.17    0.21
   0   0  -8    1.28    0.23
   0   0   8    1.00    0.20
   0   0  -9    0.00    0.13
   0   0   9   -0.01    0.10
   0   0  -9    0.04    0.12
   0   0 -10    7.94    0.56
   0   0 -11    5.62    0.51
   0   0 -12    0.75    0.22
   0   0 -13    1.06    0.28
   0   0 -14    3.03    0.44
   0   0 -15    0.73    0.27
   0   0 -16    0.34    0.22
   0   0 -17    0.30    0.18
   0  -1  -1  479.34    1.87
   0   1  -2   58.14    0.67
   0  -1  -2   57.16    0.79
   0  -1   2   57.06    0.65
   0   1   2   57.19    0.78
   0  -1  -3  170.93    1.60
   0   1   3  170.93    1.61
   0  -1   3  169.37    1.27
   0   1  -3  169.87    1.33
   0  -1  -4   37.26    0.85
   0  -1   4   38.65    0.69
   0   1  -4   39.16    0.73
   0  -1   5   24.79    0.62
   0   1  -5   25.07    0.65
   0  -1  -5   25.13    0.79
   0   1  -6   83.41    1.32
   0  -1   6   82.76    1.26
   0  -1  -6   83.43    1.55
   0   1  -7   31.29    0.88
   0  -1  -7   32.84    1.06
   0  -1   7   30.40    0.85
   0  -1  -8   20.44    0.83
   0  -1  -8   20.25    0.89
   0   1  -8   19.21    0.76
   0  -1   8   21.05    0.77
   0  -1  -9    2.96    0.38
   0  -1   9    2.75    0.32
   0  -1  -9    2.96    0.35
   0   1  -9    2.65    0.31
   0   1 -10    5.77    0.48
   0  -1  10    6.00    0.49
   0  -1 -10    5.67    0.50
   0  -1  11    2.17    0.32
   0  -1 -11    2.06    0.33
   0   1 -11    1.95    0.32
   0   1 -12   -0.01    0.13
   0  -1 -12   -0.06    0.15
   0  -1 -13    5.02    0.55
   0   1 -13    4.49    0.50
   0   1 -14    0.64    0.24
   0  -1 -14    0.45    0.22
   0   1 -15    0.07    0.14
   0  -1 -15    0.36    0.20
   0   1 -16    0.67    0.25
   0  -1 -16    0.37    0.22
   0   1 -17    0.22    0.17
   0   2   0   49.15    0.74
   0  -2  -1   22.24    0.54
   0   2   1   22.49    0.52
   0  -2   2   28.84    0.63
   0   2   2   29.63    0.65
   0  -2  -2   29.35    0.67
   0   2   3  177.72    1.78
   0  -2   3  177.90    1.55
   0  -2  -3  178.84    1.83
   0  -2  -4   38.56    0.93
   0   2   4   37.77    0.92
   0   2  -4   38.49    0.80
   0  -2   4   37.24    0.74
   0  -2   5   53.88    0.95
   0   2  -5   54.55    1.01
   0  -2  -5   54.58    1.21
   0  -2  -6   62.09    1.40
   0  -2   6   60.81    1.07
   0   2  -6   60.86    1.15
   0  -2  -7  113.30    2.05
   0   2  -7  110.12    1.66
   0  -2   7  110.78    1.55
   0  -2   8    7.87    0.45
   0   2  -8    8.23    0.50
   0  -2  -8    8.30    0.58
   0  -2  -8    7.92    0.59
   0  -2  -9    6.06    0.54
   0  -2  -9    6.14    0.53
   0  -2   9    6.03    0.43
   0   2  -9    6.37    0.46
   0   2 -10    2.01    0.29
   0  -2  10    2.22    0.29
   0  -2 -10    1.93    0.34
   0  -2 -11    1.17    0.28
   0   2 -11    1.01    0.24
   0  -2  11    0.57    0.16
   0   2 -12    3.50    0.42
   0  -2  12    3.29    0.40
   0   2 -13    0.12    0.12
   0  -2 -13    0.07    0.14
   0   2 -14    0.06    0.16
   0  -2 -14    0.07    0.17
   0  -2 -15    0.19    0.20
   0   2 -15    0.17    0.12
   0   2 -16    0.34    0.18
   0   3   0   -0.03    0.09
   0   3   1   17.99    0.56
   0  -3  -2    9.27    0.44
   0   3   2    9.40    0.43
   0   3   3    5.63    0.36
   0  -3  -3    5.90    0.38
   0  -3   3    5.65    0.33
   0   3   4    1.92    0.24
   0  -3  -4    1.96    0.25
   0  -3   4    1.54    0.19
   0   3   5   19.28    0.76
   0  -3  -5   19.43    0.79
   0  -3   5   17.49    0.61
   0  -3   6    7.46    0.40
   0  -3  -6    8.94    0.58
   0  -3  -7    0.82    0.24
   0   3  -7    0.54    0.15
   0  -3  -7    0.45    0.16
   0  -3   7    0.62    0.14
   0  -3   8   12.61    0.57
   0  -3  -8   12.30    0.76
   0   3  -8   13.42    0.65
   0  -3  -8   13.36    0.79
   0  -3   9    3.52    0.33
   0  -3  -9    2.91    0.40
   0   3  -9    3.64    0.36
   0  -3  -9    4.17    0.47
   0  -3  10    4.09    0.38
   0   3 -10    4.79    0.45
   0  -3 -10    4.59    0.52
   0  -3  11    1.19    0.24
   0   3 -11    1.55    0.29
   0  -3 -11    1.60    0.34
   0   3 -12    1.03    0.24
   0  -3 -12    0.98    0.29
   0  -3 -13    0.05    0.17
   0   3 -13    0.45    0.19
   0  -3 -14   -0.07    0.17
   0   3 -14   -0.39    0.18
   0   4   0   21.34    0.69
   0   4   1    7.67    0.42
   0   4  -1    7.73    0.43
   0   4   2    2.35    0.25
   0   4   3    0.72    0.17
   0  -4   3    0.65    0.16
   0  -4  -3    0.71    0.17
   0   4   4    0.17    0.11
   0  -4   4    0.20    0.10
   0  -4  -4    0.18    0.13
   0  -4  -5    7.85    0.55
   0   4   5    7.70    0.52
   0  -4   5    7.27    0.44
   0  -4  -6    0.27    0.14
   0  -4  -6    0.54    0.20
   0  -4   6    0.40    0.13
   0   4   6    0.57    0.20
   0  -4  -7    1.98    0.33
   0  -4   7    1.38    0.20
   0  -4  -7    1.65    0.30
   0  -4  -8    0.50    0.20
   0  -4   8    0.56    0.15
   0  -4  -8    0.67    0.23
   0  -4  -9    4.74    0.53
   0  -4   9    2.61    0.28
   0  -4  10    5.67    0.44
   0  -4 -10    6.12    0.62
   0   4 -11   -0.04    0.11
   0  -4 -11    0.07    0.17
   0  -4 -12    0.63    0.26
   0   4 -12    1.03    0.24
   0  -4 -13    1.48    0.34
   0   5   0   -0.02    0.11
   0   5  -1    1.75    0.24
   0   5   1    1.78    0.24
   0   5   2    2.99    0.31
   0   5  -2    3.48    0.33
   0  -5   3    0.81    0.19
   0   5   3    0.73    0.19
   0  -5   4    3.60    0.36
   0   5   4    3.92    0.38
   0  -5   5    4.61    0.40
   0   5   5    4.37    0.42
   0  -5  -5    4.61    0.45
   0  -5   6    0.06    0.10
   0  -5  -6    0.26    0.19
   0  -5  -6    0.15    0.15
   0   5   6    0.13    0.12
   0  -5  -7    0.87    0.26
   0  -5   7    0.51    0.14
   0  -5  -7    1.02    0.25
   0  -5   8    0.22    0.11
   0  -5  -8    0.27    0.18
   0  -5  -9   -0.05    0.15
   0  -5 -10    0.09    0.18
   0  -5 -11    0.23    0.20
   0  -5 -12    0.34    0.21
   0   6   0    7.31    0.49
   0   6   1    0.92    0.18
   0   6  -1    1.60    0.25
   0   6   2    0.35    0.14
   0   6  -2    0.40    0.15
   0  -6   3    0.86    0.20
   0   6   3    1.15    0.23
   0   6  -3    1.03    0.21
   0   6   4    0.16    0.10
   0  -6   4    0.03    0.10
   0  -6   5   -0.26    0.13
   0   6   5    0.07    0.13
   0  -6  -6    0.43    0.17
   0  -6  -7    0.88    0.28
   0  -6  -8   -0.18    0.19
   0  -6  -9    0.26    0.20
   0  -6 -10    0.31    0.23
   0   7   0   -0.03    0.09
   0   7   1    0.09    0.10
   0   7  -1    0.04    0.08
   0   7   2    0.31    0.15
   0   7   3    0.16    0.12
   0  -7  -5    0.60    0.25
   0  -7  -6    0.09    0.20
   0  -7  -7    0.08    0.17
   0  -7  -8    0.14    0.19
   0  -8  -3   -0.05    0.13
   0  -8  -4   -0.05    0.13
   0  -8  -5   -0.31    0.21
   1   0 -16   -0.30    0.21
   1   0 -15    0.02    0.14
   1   0 -14    1.75    0.37
   1   0 -13    3.44    0.48
   1   0 -12    1.49    0.31
   1   0 -11    0.79    0.21
   1   0 -10   -0.05    0.13
  -1   0  10    0.03    0.12
   1   0  -9    0.77    0.20
  -1   0   9    0.92    0.21
   1   0  -8   37.02    1.09
  -1   0   8   37.91    1.12
  -1   0   7    2.21    0.26
   1   0  -7    2.42    0.28
  -1   0   6    2.00    0.23
   1   0  -6    2.30    0.25
  -1   0   5    0.42    0.11
   1   0  -5    0.45    0.12
   1   0  -4    1.41    0.17
  -1   0   4    1.38    0.17
  -1   0   3   28.77    0.60
  -1   0   2    8.18    0.28
  -1   0  -2   50.80    0.75
  -1   0  -3  160.44    1.56
  -1   0  -3  158.86    1.34
  -1   0  -4   77.13    1.06
  -1   0  -4   76.54    1.25
  -1   0  -5    6.55    0.35
  -1   0  -5    6.89    0.42
  -1   0  -6   19.09    0.63
  -1   0  -6   19.66    0.76
  -1   0  -7   13.91    0.58
  -1   0  -7   13.65    0.69
  -1   0  -8    1.87    0.26
  -1   0  -8    2.35    0.33
  -1   0  -9   34.87    1.06
  -1   0  -9   35.53    1.26
  -1   0 -10   16.02    0.78
  -1   0 -11    2.63    0.35
  -1   0 -12    0.92    0.23
  -1   0 -13    0.41    0.19
  -1   0 -14    0.15    0.16
  -1   0 -15   -0.07    0.15
  -1   0 -16    0.24    0.19
  -1   0 -17    0.20    0.17
   1   1 -17   -0.49    0.23
   1   1 -16   -0.16    0.14
   1  -1 -16    0.03    0.14
   1  -1 -15    0.26    0.20
   1   1 -15   -0.15    0.17
   1  -1 -14    0.95    0.29
   1   1 -14    0.97    0.28
   1  -1 -13    0.25    0.20
   1   1 -13    0.15    0.17
   1  -1 -12    5.28    0.56
   1   1 -12    5.79    0.56
   1   1 -11    1.17    0.26
   1  -1 -11    1.13    0.28
  -1  -1  11    1.18    0.25
   1   1 -10    2.03    0.32
   1  -1 -10    2.12    0.34
  -1  -1  10    2.32    0.32
   1   1  -9   10.31    0.62
  -1   1   9   11.25    0.70
  -1  -1   9   11.55    0.63
   1  -1  -9   11.13    0.72
   1  -1  -9    9.71    0.63
  -1   1   8    0.88    0.20
   1   1  -8    0.97    0.21
  -1  -1   8    1.13    0.20
   1  -1  -8    1.29    0.23
   1  -1  -8    1.10    0.22
   1   1  -7   11.57    0.58
  -1   1   7   11.92    0.64
  -1  -1   7   11.42    0.55
  -1  -1   6   47.52    1.02
  -1   1   6   47.82    1.18
   1   1  -6   47.63    1.08
  -1   1   5   51.60    1.12
   1   1  -5   49.74    1.02
  -1  -1   5   48.22    0.98
  -1   1   4   17.22    0.59
  -1  -1   4   17.69    0.54
   1   1  -4   17.98    0.56
  -1  -1   3  152.12    1.48
   1   1  -3  153.56    1.52
  -1   1   3  150.80    1.57
  -1  -1   2  374.53    2.19
   1  -1  -2  373.06    2.07
  -1   1   2  372.63    2.16
   1   1  -2  375.10    2.19
  -1  -1   1  340.73    2.01
  -1   1   1  346.18    1.73
   1  -1  -1  345.38    1.67
   1  -1   0  312.01    1.21
  -1  -1  -1  169.57    1.48
  -1   1  -1  171.15    0.90
  -1  -1  -2  464.38    2.66
  -1   1  -3  260.35    1.28
  -1  -1  -3  256.59    2.21
   1  -1   3  254.87    1.27
  -1   1  -4  140.03    1.17
  -1  -1  -4  139.24    1.77
   1  -1   4  137.21    1.19
  -1  -1  -5  238.62    2.41
  -1  -1  -5  241.31    2.55
  -1   1  -5  238.67    1.79
   1  -1   5  240.59    1.86
  -1   1  -6    9.19    0.52
  -1  -1  -6    8.86    0.54
   1  -1   6    8.45    0.40
  -1   1  -6    9.25    0.41
  -1  -1  -6    8.88    0.52
   1  -1   7    5.50    0.36
  -1  -1  -7    5.29    0.42
  -1  -1  -7    5.08    0.44
  -1   1  -7    5.02    0.34
  -1   1  -7    5.00    0.42
  -1   1  -8   27.83    0.84
  -1   1  -8   29.41    1.06
  -1  -1  -8   28.54    1.09
   1  -1   8   26.45    0.86
  -1  -1  -8   28.63    0.98
  -1   1  -9    1.47    0.22
  -1  -1  -9    1.17    0.24
  -1  -1  -9    1.11    0.26
  -1   1  -9    1.06    0.24
  -1   1 -10    1.64    0.26
  -1  -1 -10    1.75    0.30
  -1   1 -11   13.08    0.73
  -1  -1 -11   14.84    0.84
  -1  -1 -12    0.42    0.22
  -1   1 -12    0.16    0.15
  -1  -1 -13    0.75    0.25
  -1   1 -13    0.69    0.21
  -1  -1 -14    0.13    0.15
  -1   1 -14    0.21    0.17
  -1  -1 -15    0.22    0.17
  -1   1 -15    0.15    0.14
  -1  -1 -16    0.28    0.16
  -1   1 -16    0.12    0.13
   1   2 -16    0.23    0.19
   1  -2 -15    0.08    0.18
   1   2 -15    0.04    0.14
   1   2 -14   -0.04    0.13
   1  -2 -14    0.47    0.24
   1   2 -13    0.61    0.23
   1  -2 -13    0.64    0.27
   1   2 -12    0.44    0.20
   1  -2 -12    0.69    0.23
  -1  -2  11    0.51    0.17
   1   2 -11    0.51    0.20
   1  -2 -11    0.87    0.25
  -1  -2  10    2.41    0.31
   1   2 -10    2.72    0.36
   1  -2 -10    2.98    0.40
   1  -2  -9    0.49    0.18
   1  -2  -9    0.36    0.15
   1   2  -9    0.53    0.17
  -1  -2   9    0.81    0.18
  -1  -2   8    5.01    0.39
   1   2  -8    4.04    0.40
   1  -2  -8    5.12    0.45
   1  -2  -8    4.84    0.44
  -1  -2   7   10.10    0.53
   1   2  -7   10.60    0.57
   1  -2  -7   10.52    0.61
   1   2  -6    3.59    0.33
  -1  -2   6    3.64    0.31
   1  -2  -6    3.58    0.34
   1  -2  -5    3.95    0.32
   1   2  -5    3.93    0.32
  -1  -2   5    4.24    0.31
   1   2  -4   40.81    0.96
  -1  -2   4   38.61    0.88
   1  -2  -4   39.32    0.88
   1  -2  -3   25.58    0.73
  -1  -2   3   24.70    0.70
   1  -2  -3   25.00    0.61
   1  -2  -2   34.33    0.61
   1  -2  -2   35.35    0.79
  -1  -2   2   33.70    0.80
   1  -2  -1   22.63    0.40
  -1   2   1   22.95    0.38
   1   2   0    9.59    0.42
  -1  -2  -1   37.32    0.84
   1   2   1   37.81    0.83
   1  -2   2   88.16    0.82
   1   2   2   89.19    1.34
  -1  -2  -2   90.21    1.36
  -1  -2  -3   52.50    1.10
   1  -2   3   51.30    0.61
   1   2   3   49.94    1.06
   1   2   4   43.29    1.06
  -1   2  -4   42.80    0.68
  -1  -2  -4   44.41    1.10
   1  -2   4   44.30    0.63
   1   2   5   48.19    1.21
   1  -2   5   49.22    0.75
  -1   2  -5   48.77    0.82
  -1  -2  -5   49.36    1.25
   1   2   6   36.99    1.13
  -1  -2  -6   38.46    1.18
  -1   2  -6   36.97    0.80
   1  -2   6   37.28    0.75
  -1  -2  -7    5.57    0.48
  -1  -2  -7    5.41    0.47
  -1   2  -7    5.00    0.33
   1  -2   7    5.12    0.32
  -1  -2  -8    6.93    0.57
  -1   2  -8    6.58    0.41
  -1  -2  -8    7.16    0.56
   1  -2   8    6.90    0.41
  -1  -2  -9   19.10    0.93
   1  -2   9   19.09    0.75
  -1  -2  -9   20.96    1.03
  -1   2  -9   18.90    0.75
  -1   2  -9   19.70    0.93
   1  -2  10   18.72    0.80
  -1   2 -10   19.96    0.82
  -1  -2 -10   19.18    0.96
  -1  -2 -11    0.17    0.18
  -1   2 -11    0.34    0.16
  -1   2 -12    0.69    0.20
  -1  -2 -12    0.69    0.25
  -1  -2 -13    0.64    0.24
  -1   2 -13    0.49    0.19
  -1  -2 -14    0.28    0.20
  -1   2 -14    0.32    0.17
  -1   2 -15    0.19    0.12
  -1  -2 -15    0.29    0.20
   1   3 -15    0.34    0.22
   1  -3 -14   -0.17    0.18
   1   3 -14    0.24    0.14
   1  -3 -13    0.67    0.26
   1   3 -13    0.65    0.22
   1  -3 -12    0.35    0.22
   1   3 -12    0.57    0.23
  -1  -3  11    1.74    0.28
   1  -3 -11    2.17    0.38
   1   3 -11    1.71    0.31
  -1  -3  10    0.64    0.16
   1  -3 -10    1.66    0.34
   1   3 -10    1.41    0.27
   1  -3  -9    0.20    0.16
   1   3  -9    0.38    0.16
   1  -3  -9    0.25    0.14
  -1  -3   9    0.33    0.13
   1  -3  -8    0.40    0.17
   1  -3  -8    0.34    0.17
  -1  -3   8    0.17    0.10
   1   3  -8    0.34    0.15
  -1  -3   7    3.36    0.33
   1   3  -7    4.02    0.39
   1  -3  -7    4.29    0.42
   1  -3  -7    4.03    0.43
  -1  -3   6    0.09    0.09
   1   3  -6    0.13    0.10
   1  -3  -6    0.22    0.16
   1  -3  -6    0.33    0.15
   1  -3  -5   32.90    0.96
  -1  -3   5   32.23    0.93
   1  -3  -5   33.62    1.08
   1  -3  -4   34.05    0.89
  -1  -3   4   35.93    0.96
   1  -3  -3   54.77    1.23
   1  -3  -3   55.50    1.02
  -1  -3   3   56.94    1.20
   1  -3  -2   50.39    0.87
  -1   3   2   51.03    0.82
  -1   3   1   15.76    0.40
   1   3   0   35.55    0.92
  -1   3   0   34.85    0.57
   1   3   1   46.21    1.05
  -1  -3  -2   41.57    1.05
   1   3   2   39.45    1.00
   1   3   3    2.99    0.31
  -1  -3  -3    2.98    0.31
   1  -3   3    3.07    0.21
   1  -3   4   25.21    0.57
   1   3   4   26.02    0.89
  -1  -3  -4   25.72    0.91
   1  -3   5    0.44    0.10
   1   3   5    0.21    0.13
  -1  -3  -5    0.17    0.11
   1   3   6    0.05    0.14
   1  -3   6    0.13    0.06
  -1  -3  -6    0.17    0.13
   1   3   7    3.69    0.41
   1  -3   7    3.53    0.26
  -1  -3  -7    3.07    0.39
  -1   3  -7    3.26    0.28
  -1  -3  -7    3.19    0.39
  -1  -3  -8    2.33    0.37
   1  -3   8    2.48    0.24
  -1   3  -8    2.55    0.26
  -1  -3  -8    2.19    0.34
   1  -3   9    6.48    0.41
  -1  -3  -9    7.15    0.63
  -1   3  -9    6.82    0.46
   1  -3  10    4.60    0.38
  -1   3 -10    5.91    0.45
  -1  -3 -10    5.60    0.57
  -1  -3 -11    3.71    0.49
  -1   3 -11    3.10    0.36
   1  -3  11    3.24    0.35
  -1  -3 -12    1.88    0.38
  -1   3 -12    0.97    0.23
  -1   3 -13    0.14    0.12
  -1  -3 -13    0.35    0.21
  -1  -3 -14    0.24    0.19
   1  -4 -13    0.00    0.15
   1   4 -13    0.11    0.13
   1  -4 -12    0.45    0.23
   1   4 -12    0.35    0.18
   1  -4 -11    1.24    0.32
   1   4 -11    0.96    0.26
   1  -4 -10    0.27    0.17
  -1  -4  10    0.18    0.13
  -1  -4   9    1.34    0.24
   1  -4  -9    1.41    0.31
   1  -4  -8    0.28    0.15
  -1  -4   8    0.59    0.18
   1  -4  -8    0.57    0.22
  -1  -4   7    2.33    0.29
   1  -4  -7    2.68    0.38
   1  -4  -7    2.52    0.34
  -1  -4   6    4.15    0.38
   1  -4  -6    4.02    0.44
   1  -4  -6    3.91    0.39
   1  -4  -5    3.24    0.39
   1  -4  -5    2.58    0.30
  -1  -4   5    2.14    0.28
  -1  -4   4    4.23    0.38
   1  -4  -4    4.53    0.36
   1  -4  -4    4.73    0.44
  -1   4   3   17.65    0.61
   1  -4  -3   18.09    0.65
  -1  -4   3   18.32    0.78
  -1   4   2    1.15    0.15
   1   4  -1    2.93    0.31
  -1   4   1    2.87    0.21
  -1   4   0    0.01    0.07
   1   4   0   -0.04    0.12
   1   4   1   11.14    0.58
  -1   4  -1   10.22    0.40
   1   4   2    6.23    0.45
   1   4   3    8.72    0.54
  -1  -4  -3    8.47    0.55
   1  -4   3    8.22    0.42
   1  -4   4    1.02    0.16
  -1  -4  -4    0.65    0.18
   1   4   4    1.13    0.23
   1  -4   5    4.83    0.31
   1   4   5    4.74    0.44
  -1  -4  -5    4.68    0.46
   1  -4   6    2.00    0.20
   1   4   6    1.85    0.30
  -1  -4  -6    1.85    0.30
   1  -4   7    0.04    0.07
  -1  -4  -7   -0.08    0.13
   1  -4   8    0.16    0.08
  -1  -4  -8    0.00    0.17
  -1  -4  -9    2.82    0.43
   1  -4   9    1.63    0.20
  -1  -4 -10    2.79    0.44
   1  -4  10    2.14    0.25
  -1  -4 -11    0.66    0.28
  -1  -4 -12    0.09    0.16
  -1  -4 -13    0.80    0.28
   1  -5 -12    0.58    0.26
   1  -5 -11    0.45    0.20
   1  -5 -10    0.86    0.28
   1  -5  -9    0.15    0.15
  -1  -5   9    0.25    0.14
   1  -5  -8    0.41    0.17
   1  -5  -8    0.64    0.23
  -1  -5   8    0.07    0.10
   1  -5  -7    0.09    0.10
   1  -5  -7    0.17    0.17
  -1  -5   7   -0.05    0.07
   1  -5  -6    0.17    0.13
  -1  -5   6    0.10    0.10
   1  -5  -5    3.05    0.34
   1  -5  -5    2.30    0.35
  -1  -5   5    2.82    0.35
   1  -5  -4    5.75    0.52
  -1  -5   4    5.79    0.49
  -1  -5   3    3.98    0.43
  -1   5   3    3.64    0.31
  -1   5   2   11.82    0.50
   1   5  -2   11.97    0.68
  -1   5   1   15.94    0.55
   1   5  -1   15.75    0.76
   1   5   0    8.88    0.56
  -1   5   0    8.19    0.38
  -1   5  -1    8.21    0.39
   1   5   1    8.19    0.55
  -1   5  -2    2.79    0.25
   1   5   2    3.11    0.36
   1   5   3    3.55    0.38
   1  -5   3    3.47    0.33
   1   5   4   12.19    0.72
   1  -5   4   11.19    0.55
  -1  -5  -5    1.97    0.33
   1   5   5    1.33    0.27
   1  -5   5    1.80    0.22
  -1  -5  -6    0.34    0.18
   1  -5   6    0.21    0.09
   1   5   6    0.27    0.15
   1  -5   7    0.14    0.08
   1   5   7    0.12    0.13
  -1  -5  -8    1.30    0.33
   1  -5   8    1.24    0.17
  -1  -5  -9    0.07    0.15
  -1  -5 -10    0.92    0.30
  -1  -5 -11    0.51    0.24
  -1  -5 -12    0.80    0.28
   1  -6 -10    0.56    0.26
   1  -6  -9    0.23    0.15
   1  -6  -8    0.49    0.22
   1  -6  -7    0.82    0.28
   1  -6  -6   -0.21    0.15
  -1  -6   5    0.14    0.14
   1  -6  -5    0.09    0.17
  -1  -6   4    1.09    0.25
   1  -6  -4    1.19    0.27
   1   6  -3    1.84    0.31
  -1  -6   3    1.71    0.32
   1  -6  -3    1.86    0.32
  -1   6   3    1.69    0.23
   1   6  -2    3.66    0.41
  -1   6   2    3.65    0.30
   1   6  -1    1.30    0.25
  -1   6   1    1.56    0.19
   1   6   0    2.80    0.35
  -1   6   0    2.69    0.24
  -1   6  -1    0.32    0.11
   1   6   1    0.24    0.13
  -1   6  -2    1.06    0.17
   1   6   2    0.82    0.22
   1   6   3    0.67    0.20
   1  -6   3    0.25    0.12
  -1   6  -3    0.46    0.13
   1  -6   4    0.07    0.08
   1   6   4    0.27    0.17
   1   6   5    0.16    0.16
   1   6   6    0.29    0.15
   1   6   7   -0.15    0.16
  -1  -6  -7    0.03    0.18
  -1  -6  -8    0.57    0.24
  -1  -6  -9    0.43    0.24
  -1  -6 -10    0.13    0.18
   1  -7  -8    0.07    0.15
   1  -7  -7    0.38    0.23
   1  -7  -6    0.77    0.28
   1  -7  -5   -0.03    0.14
   1   7  -5    0.52    0.19
   1  -7  -4    0.04    0.14
   1   7  -4    0.17    0.16
   1   7  -3    0.98    0.24
   1  -7  -3    0.34    0.17
   1  -7  -2    1.01    0.26
   1   7  -2    1.03    0.25
   1   7  -1    0.35    0.15
   1   7   0    0.01    0.11
   1   7   1    0.03    0.14
   1   7   2    0.14    0.14
   1   7   3    0.13    0.13
   1   7   4    0.41    0.17
   1   7   5    0.63    0.23
   1   7   6    0.19    0.15
  -1  -7  -6    0.23    0.21
  -1  -7  -7    0.20    0.19
   1  -8  -6    0.01    0.23
   1  -8  -5    0.14    0.16
   1  -8  -4   -0.14    0.14
   1  -8  -3   -0.13    0.14
   1  -8  -2   -0.39    0.19
   1  -8  -1   -0.25    0.17
   2   0 -16    0.28    0.21
   2   0 -15    0.37    0.22
   2   0 -14    0.41    0.24
   2   0 -13    0.25    0.17
   2   0 -12    0.14    0.14
   2   0 -11    0.62    0.20
  -2   0  10    0.35    0.16
   2   0 -10    0.67    0.20
  -2   0   9    2.04    0.30
   2   0  -9    1.81    0.30
  -2   0   8    0.60    0.16
   2   0  -8    0.49    0.18
  -2   0   7    3.47    0.33
  -2   0   6    3.97    0.33
  -2   0   5    0.19    0.09
  -2   0   4   63.34    1.09
  -2   0   3  455.34    2.70
  -2   0   2  425.21    2.42
   2   0  -1  423.64    2.28
  -2   0   1  419.68    2.21
  -2   0   0   23.03    0.49
  -2   0  -1   27.51    0.62
   2   0   1   27.89    0.62
  -2   0  -2   34.87    0.75
   2   0   2   34.67    0.75
  -2   0  -3   56.59    1.05
   2   0   3   55.22    1.03
   2   0   4    2.96    0.28
  -2   0  -4    3.17    0.29
  -2   0  -5    0.00    0.09
  -2   0  -5    0.04    0.09
  -2   0  -6   41.81    0.97
  -2   0  -6   41.04    1.16
  -2   0  -7    0.50    0.14
  -2   0  -7    0.39    0.15
  -2   0  -8    3.14    0.32
  -2   0  -8    3.90    0.42
  -2   0  -9   18.56    0.94
  -2   0  -9   18.86    0.78
  -2   0 -10    7.31    0.53
  -2   0 -11    0.81    0.22
  -2   0 -12    0.71    0.22
  -2   0 -13    0.39    0.18
  -2   0 -14   -0.01    0.12
  -2   0 -15    0.40    0.19
  -2   0 -16    0.20    0.19
   2   1 -16    0.48    0.24
   2  -1 -16    0.23    0.22
   2   1 -15    1.45    0.36
   2  -1 -15    1.40    0.38
   2  -1 -14    1.28    0.35
   2   1 -14    1.48    0.35
   2  -1 -13    0.08    0.16
   2   1 -13    0.41    0.21
   2   1 -12    0.64    0.23
   2  -1 -12    0.38    0.19
   2  -1 -11    2.56    0.39
   2   1 -11    2.45    0.37
   2  -1 -10    0.40    0.20
  -2  -1  10    0.18    0.10
   2   1 -10   -0.05    0.12
  -2  -1   9    3.97    0.40
  -2   1   9    4.85    0.47
   2   1  -9    5.41    0.48
   2  -1  -9    4.83    0.47
  -2  -1   8    4.00    0.37
   2   1  -8    3.92    0.40
  -2   1   8    4.73    0.43
  -2  -1   7    2.02    0.25
   2   1  -7    1.69    0.26
  -2   1   7    1.65    0.24
  -2  -1   6    3.12    0.31
   2   1  -6    3.75    0.33
  -2   1   6    3.44    0.32
  -2  -1   5   28.08    0.82
  -2   1   5   27.81    0.83
   2   1  -5   28.99    0.87
  -2  -1   4   60.39    1.13
   2   1  -4   58.32    1.17
  -2   1   4   60.10    1.11
   2   1  -3  133.01    1.67
   2  -1  -3  135.92    1.55
  -2   1   3  136.96    1.50
  -2  -1   3  139.73    1.66
  -2   1   2    5.22    0.27
  -2  -1   2    5.82    0.34
   2  -1  -2    5.91    0.29
   2  -1  -1  253.07    1.61
  -2  -1   1  251.42    2.08
   2  -1   0   11.92    0.29
  -2   1   0   12.57    0.28
   2  -1   0   11.47    0.28
  -2  -1  -1   31.42    0.77
   2  -1   1   31.29    0.50
  -2   1  -1   30.58    0.52
   2  -1   2  168.01    1.38
  -2   1  -2  165.51    1.42
  -2  -1  -2  167.52    1.87
  -2   1  -3   65.92    1.03
  -2   1  -3   66.72    0.60
  -2  -1  -3   63.61    1.24
  -2   1  -4   62.63    1.15
  -2  -1  -4   62.05    1.30
  -2   1  -4   62.17    0.73
  -2  -1  -5   36.39    1.09
  -2   1  -5   34.97    0.65
  -2   1  -5   34.66    0.94
  -2   1  -6   24.23    0.62
  -2   1  -6   24.68    0.87
  -2  -1  -6   23.64    0.93
  -2  -1  -7    7.85    0.52
  -2   1  -7    8.87    0.56
  -2   1  -7    7.83    0.40
  -2  -1  -7    7.26    0.55
  -2   1  -8    4.52    0.44
  -2  -1  -8    4.51    0.42
  -2   1  -8    4.11    0.32
  -2  -1  -8    4.85    0.48
  -2   1  -9    3.85    0.43
  -2  -1  -9    3.63    0.39
  -2  -1  -9    3.33    0.42
  -2   1  -9    3.55    0.33
  -2   1 -10    4.48    0.39
  -2  -1 -10    4.16    0.44
  -2   1 -11    3.10    0.35
  -2  -1 -11    2.87    0.39
  -2  -1 -12    3.06    0.42
  -2   1 -12    3.08    0.37
  -2   1 -13    0.91    0.22
  -2  -1 -13    1.07    0.27
  -2  -1 -14    0.27    0.18
  -2   1 -14    0.39    0.17
  -2  -1 -15    0.00    0.13
  -2   1 -15    0.01    0.10
  -2  -1 -16   -0.09    0.14
   2   2 -17   -1.08    0.34
   2   2 -16   -0.11    0.16
   2  -2 -15    0.49    0.24
   2   2 -15    0.89    0.30
   2  -2 -14    0.22    0.15
   2   2 -14    0.44    0.22
   2  -2 -13    0.22    0.16
   2   2 -13    0.32    0.17
   2  -2 -12    1.56    0.35
   2   2 -12    1.79    0.35
   2  -2 -11    0.26    0.16
   2   2 -11    0.53    0.19
  -2  -2  10    1.59    0.28
   2  -2 -10    1.93    0.32
   2   2 -10    2.13    0.33
  -2  -2   9    1.94    0.29
   2  -2  -9    1.47    0.28
   2  -2  -9    2.04    0.31
   2   2  -9    1.38    0.27
  -2  -2   8    2.55    0.31
   2  -2  -8    1.96    0.30
   2  -2  -8    1.96    0.31
   2   2  -8    1.71    0.27
   2   2  -7   19.84    0.85
   2  -2  -7   18.95    0.80
  -2   2   7   20.90    0.92
  -2  -2   7   19.91    0.80
   2   2  -6   14.42    0.68
  -2  -2   6   13.63    0.65
   2  -2  -6   14.60    0.65
  -2   2   6   14.36    0.71
  -2   2   5   16.17    0.71
  -2  -2   5   16.34    0.67
   2   2  -5   17.34    0.72
   2  -2  -5   16.05    0.62
  -2  -2   4   23.33    0.77
   2  -2  -4   22.89    0.64
  -2   2   4   23.91    0.80
   2   2  -4   23.24    0.82
   2  -2  -4   22.96    0.73
   2  -2  -3    1.11    0.14
   2  -2  -3    1.09    0.16
  -2   2   3    1.14    0.17
  -2  -2   3    1.27    0.20
  -2  -2   2   36.86    0.95
   2  -2  -2   36.33    0.56
   2  -2  -2   37.85    0.78
   2  -2  -1   41.49    0.72
   2   2   0   53.59    1.14
   2  -2   0   52.67    0.69
   2  -2   1  144.88    0.85
   2   2   1  143.74    1.87
  -2   2  -2   94.46    0.94
  -2  -2  -2   95.49    1.59
   2   2   2   96.30    1.59
  -2   2  -3    1.86    0.17
  -2  -2  -3    1.72    0.24
  -2  -2  -4   27.84    0.95
  -2   2  -4   26.82    0.72
  -2   2  -5    1.09    0.18
  -2  -2  -5    1.06    0.21
  -2   2  -5    1.02    0.10
  -2   2  -6    9.20    0.34
  -2   2  -6    9.73    0.54
  -2  -2  -6   10.03    0.64
  -2   2  -7    6.86    0.49
  -2   2  -7    6.38    0.33
  -2  -2  -7    6.33    0.54
   2   2   7    6.50    0.54
   2   2   8    4.17    0.47
  -2   2  -8    3.85    0.41
  -2   2  -8    3.91    0.30
  -2  -2  -8    3.70    0.41
  -2  -2  -8    3.03    0.41
  -2  -2  -9    9.52    0.69
  -2   2  -9    9.41    0.49
  -2   2  -9    9.69    0.67
  -2   2 -10    3.25    0.32
  -2  -2 -10    2.94    0.39
  -2  -2 -11    2.31    0.37
  -2   2 -11    1.53    0.24
  -2   2 -12    3.49    0.39
  -2  -2 -12    4.57    0.54
  -2  -2 -13    0.25    0.17
  -2   2 -13    0.27    0.11
  -2   2 -14   -0.17    0.13
  -2  -2 -14    0.10    0.18
  -2  -2 -15    0.03    0.15
   2   3 -16   -0.06    0.14
   2   3 -15    0.00    0.12
   2  -3 -14    0.61    0.26
   2   3 -14    0.71    0.25
   2   3 -13   -0.07    0.14
   2  -3 -13    0.16    0.17
   2  -3 -12    0.25    0.18
   2   3 -12    0.23    0.20
   2  -3 -11    0.23    0.16
   2   3 -11   -0.03    0.14
  -2  -3  10    4.83    0.47
   2   3 -10    4.54    0.50
   2  -3 -10    5.23    0.54
  -2  -3   9    0.36    0.13
   2  -3  -9    0.13    0.14
   2   3  -9    0.42    0.19
   2  -3  -9    0.26    0.15
  -2  -3   8    0.36    0.14
   2   3  -8    0.20    0.14
   2  -3  -8    0.12    0.14
   2  -3  -8    0.32    0.14
   2  -3  -7   -0.05    0.12
   2   3  -7    0.18    0.13
   2  -3  -7    0.02    0.11
  -2  -3   7    0.08    0.10
   2   3  -6    1.98    0.31
   2  -3  -6    2.19    0.26
   2  -3  -6    2.33    0.31
  -2  -3   6    2.51    0.31
  -2  -3   5   14.75    0.70
   2  -3  -5   14.45    0.69
   2  -3  -5   13.43    0.58
  -2  -3   4    5.15    0.41
   2  -3  -4    5.02    0.32
   2  -3  -3    1.06    0.19
  -2  -3   3    0.74    0.18
   2  -3  -3    0.91    0.14
  -2  -3   2   16.14    0.72
   2  -3  -2   14.69    0.38
   2  -3  -2   15.34    0.58
   2  -3  -1   14.33    0.51
   2   3   0   35.16    1.04
   2  -3   0   35.67    0.74
   2   3   1    2.13    0.28
   2  -3   1    2.11    0.16
   2   3   2    1.07    0.22
  -2   3  -2    1.26    0.11
  -2  -3  -3    6.63    0.50
   2   3   3    6.09    0.46
   2  -3   3    6.04    0.19
   2  -3   4    4.60    0.14
   2   3   4    4.68    0.43
  -2  -3  -4    4.91    0.44
  -2   3  -5   17.37    0.64
   2  -3   5   17.68    0.33
   2   3   5   17.32    0.83
  -2  -3  -5   17.83    0.87
   2   3   6   21.39    0.96
  -2  -3  -6   21.58    0.99
   2  -3   6   20.96    0.45
  -2   3  -6   20.78    0.77
  -2   3  -7    1.01    0.20
   2  -3   7    1.12    0.14
  -2  -3  -7    1.21    0.27
   2   3   7    1.08    0.29
  -2   3  -8   29.21    0.75
   2   3   8   29.19    1.22
  -2   3  -8   30.05    1.09
  -2  -3  -8   30.58    1.25
  -2   3  -9   12.09    0.53
  -2   3  -9   12.67    0.76
  -2  -3  -9   12.06    0.82
  -2  -3 -10   -0.07    0.16
  -2   3 -10    0.30    0.12
  -2  -3 -11    3.15    0.47
  -2   3 -11    3.47    0.35
  -2  -3 -12   -0.20    0.19
  -2   3 -12    0.05    0.09
  -2  -3 -13    0.52    0.24
  -2  -3 -14    0.35    0.22
   2   4 -14    0.08    0.16
   2  -4 -13    1.54    0.37
   2   4 -13    0.53    0.24
   2  -4 -12    0.20    0.21
   2   4 -12    0.48    0.20
   2  -4 -11    0.20    0.14
   2   4 -11    0.07    0.14
   2  -4 -10    2.22    0.39
  -2  -4   9    2.86    0.36
   2  -4  -9    2.91    0.42
   2  -4  -9    2.33    0.36
   2  -4  -8    0.24    0.13
   2  -4  -8    0.73    0.21
  -2  -4   8    0.63    0.19
  -2  -4   7    8.02    0.58
   2  -4  -7    8.27    0.63
   2  -4  -7    9.64    0.62
   2  -4  -6    7.06    0.56
  -2  -4   6    6.04    0.50
   2  -4  -6    6.07    0.46
  -2  -4   5    6.53    0.51
   2  -4  -5    6.90    0.52
   2  -4  -5    6.59    0.43
   2  -4  -4    0.95    0.22
   2  -4  -4    0.69    0.15
  -2  -4   4    0.62    0.19
   2  -4  -3    4.67    0.29
  -2  -4   3    5.40    0.47
   2   4  -1   12.05    0.67
   2  -4  -1   12.43    0.56
   2  -4   0   14.22    0.56
   2   4   0   15.20    0.75
   2   4   1    3.68    0.38
   2   4   2   33.39    1.12
   2  -4   3   10.60    0.38
   2   4   3   11.34    0.68
  -2  -4  -4    6.89    0.57
   2  -4   4    6.84    0.27
   2   4   4    7.40    0.57
  -2  -4  -5   18.73    0.96
   2  -4   5   16.44    0.38
   2   4   5   16.73    0.88
   2  -4   6    9.22    0.28
   2   4   6   10.08    0.70
  -2  -4  -6   10.06    0.73
  -2   4  -7   11.31    0.62
   2  -4   7   11.67    0.35
   2   4   7   11.84    0.79
  -2   4  -8    3.23    0.37
   2   4   8    4.31    0.52
   2  -4   8    3.22    0.22
   2   4   9    4.58    0.55
  -2  -4  -9    4.22    0.54
  -2   4  -9    4.08    0.44
  -2  -4 -10    1.51    0.36
  -2  -4 -11    0.98    0.29
  -2  -4 -12    0.36    0.22
  -2  -4 -13    0.05    0.15
   2  -5 -12   -0.25    0.20
   2  -5 -11    0.64    0.28
   2  -5 -10   -0.26    0.18
   2  -5  -9    1.70    0.35
   2  -5  -8    1.17    0.29
   2  -5  -8    1.21    0.26
   2  -5  -7   -0.11    0.15
  -2  -5   7   -0.07    0.13
   2  -5  -7    0.08    0.10
  -2  -5   6    5.69    0.53
   2  -5  -6    6.49    0.58
   2  -5  -6    5.08    0.43
  -2  -5   5    0.27    0.16
   2  -5  -5    0.52    0.21
   2  -5  -5    0.43    0.14
  -2  -5   4    1.72    0.30
   2  -5  -4    2.17    0.32
  -2  -5   3    7.98    0.63
   2  -5  -3    8.33    0.58
   2   5  -2    0.58    0.21
   2  -5  -2    0.41    0.16
   2   5  -1    1.33    0.28
   2   5   0    2.41    0.34
   2   5   1    2.70    0.36
  -2   5  -2    5.07    0.23
   2   5   2    5.45    0.50
   2  -5   3    3.69    0.29
   2   5   3    3.82    0.43
   2  -5   4    2.71    0.22
   2   5   4    2.64    0.36
   2   5   5    0.10    0.21
  -2  -5  -5    0.31    0.18
   2  -5   5    0.21    0.07
   2  -5   6    0.51    0.09
   2   5   6    0.36    0.18
  -2   5  -7    1.09    0.20
   2  -5   7    0.89    0.10
   2   5   7    1.00    0.28
  -2   5  -8    0.17    0.12
   2   5   8    0.09    0.21
   2   5   9    0.63    0.25
  -2  -5  -9    0.56    0.21
  -2  -5 -10    0.02    0.16
  -2  -5 -11    0.24    0.15
   2  -6 -10    0.17    0.21
   2  -6  -9    0.38    0.19
   2  -6  -8   -0.05    0.15
   2  -6  -7    0.23    0.18
   2  -6  -6    0.42    0.20
   2  -6  -5    0.68    0.22
   2  -6  -4    1.57    0.30
   2  -6  -3    1.87    0.30
   2   6  -3    2.14    0.36
   2  -6  -2    4.06    0.43
   2   6  -2    4.00    0.45
   2  -6  -1    8.36    0.58
   2   6  -1    8.65    0.66
   2  -6   0    5.67    0.45
   2   6   0    5.23    0.53
   2   6   1    3.26    0.42
   2   6   2    6.55    0.59
  -2   6  -3    0.95    0.12
   2  -6   3    0.80    0.16
   2   6   3    0.82    0.23
  -2   6  -4    0.28    0.11
   2   6   4    0.31    0.21
   2   6   5    0.19    0.16
   2   6   6    0.74    0.25
   2   6   7    1.28    0.32
   2   6   8    0.59    0.25
  -2  -6  -8    0.31    0.20
  -2  -6  -9    0.54    0.27
   2  -7  -8    0.34    0.21
   2  -7  -7    0.27    0.21
   2  -7  -6    0.19    0.18
   2   7  -5    0.70    0.22
   2  -7  -5    0.71    0.25
   2  -7  -4    1.01    0.27
   2   7  -4    1.07    0.30
   2   7  -3    0.02    0.13
   2  -7  -3    0.06    0.15
   2   7  -2    0.23    0.16
   2  -7  -2    0.86    0.24
   2   7  -1    2.56    0.41
   2  -7  -1    1.94    0.32
   2   7   0    0.36    0.18
   2  -7   0    0.01    0.08
   2   7   1    0.64    0.22
   2  -7   1    0.14    0.11
   2  -7   2    0.06    0.10
   2   7   2    0.06    0.13
   2   7   3    0.07    0.14
   2   7   4    0.65    0.23
   2   7   5   -0.02    0.15
   2   7   6    0.34    0.18
   2   7   7    0.11    0.15
   2   7   8    0.18    0.16
   2  -8  -6    0.07    0.18
   2  -8  -5    0.43    0.23
   2  -8  -4    0.22    0.17
   2  -8  -3    0.46    0.21
   3   0 -16    0.96    0.36
   3   0 -15    0.35    0.21
   3   0 -14   -0.23    0.20
   3   0 -13    0.83    0.29
   3   0 -12    0.03    0.46
   3   0 -11    2.54    0.41
   3   0 -10    0.01    0.14
   3   0  -9   -0.03    0.15
  -3   0   9   -0.03    0.09
  -3   0   8    0.15    0.10
   3   0  -8    0.22    0.15
  -3   0   7    4.93    0.40
  -3   0   6   31.88    0.96
  -3   0   5   43.14    1.06
  -3   0   4    0.55    0.14
  -3   0   3   44.57    0.98
  -3   0   2   10.15    0.45
   3   0  -2   10.30    0.46
   3   0  -1   39.11    0.85
  -3   0   1   41.51    0.84
   3   0   0  190.99    1.91
  -3   0   0  191.47    1.75
  -3   0  -1   31.39    0.79
   3   0   1   30.90    0.79
   3   0   2    0.24    0.12
  -3   0  -2    0.23    0.13
   3   0   3   58.19    1.17
  -3   0  -3   58.94    1.20
   3   0   4  126.30    1.85
  -3   0  -4  127.41    1.91
  -3   0  -5   10.12    0.58
  -3   0  -6   19.31    0.85
  -3   0  -7   26.71    1.06
  -3   0  -7   26.19    0.85
  -3   0  -8    2.87    0.31
  -3   0  -8    3.10    0.40
  -3   0  -9    8.77    0.69
  -3   0  -9    8.99    0.55
  -3   0 -10   14.65    0.74
  -3   0 -11    0.17    0.15
  -3   0 -12    0.11    0.13
  -3   0 -13    0.28    0.16
  -3   0 -14   -0.04    0.09
  -3   0 -15    0.19    0.15
  -3   0 -16    1.13    0.30
   3   1 -16   -0.06    0.16
   3   1 -15   -0.02    0.16
   3  -1 -15   -0.08    0.18
   3   1 -14    0.45    0.22
   3  -1 -14    0.30    0.22
   3   1 -13    0.36    0.21
   3  -1 -13    0.46    0.22
   3   1 -12    1.59    0.35
   3  -1 -12    1.13    0.30
   3  -1 -11    0.87    0.25
   3   1 -11    1.17    0.31
   3  -1 -10    1.66    0.32
   3   1 -10    1.85    0.32
   3   1  -9    4.74    0.49
  -3  -1   9    4.59    0.44
   3  -1  -9    3.83    0.44
  -3   1   9    4.93    0.47
   3   1  -8    7.66    0.58
   3  -1  -8    7.58    0.56
  -3  -1   8    7.91    0.55
  -3   1   8    7.68    0.55
  -3  -1   7    1.06    0.21
  -3   1   7    1.10    0.22
   3   1  -7    1.31    0.26
  -3  -1   6    4.55    0.39
  -3   1   6    4.54    0.38
  -3   1   5    7.03    0.44
  -3  -1   5    6.98    0.45
  -3  -1   4   63.26    1.29
   3  -1  -4   63.83    1.24
  -3   1   4   64.17    1.20
   3  -1  -3   73.40    1.23
  -3  -1   3   70.37    1.33
  -3   1   3   74.80    1.20
  -3  -1   2   17.18    0.65
   3  -1  -2   18.96    0.58
  -3   1   2   18.83    0.56
   3  -1  -1   45.46    0.82
  -3  -1   1   46.54    1.04
  -3   1   1   47.00    0.79
   3  -1   0    9.60    0.36
   3  -1   0    9.51    0.35
  -3   1   0   10.30    0.33
  -3   1  -1   29.33    0.66
  -3   1  -1   31.28    0.52
   3  -1   1   30.00    0.64
  -3  -1  -2   14.22    0.63
  -3   1  -2   14.34    0.34
   3  -1   2   13.60    0.47
  -3   1  -2   13.69    0.49
  -3   1  -3   28.60    0.77
   3  -1   3   28.37    0.74
  -3  -1  -3   29.40    0.94
  -3  -1  -4   96.94    1.79
  -3   1  -4   95.15    1.53
   3  -1   4   93.94    1.48
  -3   1  -5    5.03    0.26
  -3   1  -5    5.21    0.40
  -3  -1  -5    5.01    0.43
  -3   1  -6   12.59    0.65
  -3  -1  -6   13.74    0.74
  -3   1  -6   12.49    0.45
  -3   1  -7   22.88    0.66
   3   1   7   21.32    0.97
  -3   1  -7   24.39    0.97
  -3  -1  -7   22.83    1.02
  -3  -1  -8    3.10    0.42
   3   1   8    3.09    0.41
  -3   1  -8    3.09    0.39
  -3   1  -8    3.20    0.28
  -3  -1  -8    2.94    0.35
  -3   1  -9    9.49    0.51
  -3  -1  -9    9.84    0.65
  -3   1  -9   11.64    0.76
  -3   1 -10    9.06    0.53
  -3  -1 -10    8.39    0.62
  -3  -1 -11    4.27    0.47
  -3   1 -11    3.97    0.39
  -3  -1 -12    1.20    0.28
  -3   1 -12    1.39    0.26
  -3   1 -13    1.94    0.32
  -3  -1 -13    1.97    0.35
  -3   1 -14    1.70    0.31
  -3  -1 -14    1.75    0.33
  -3  -1 -15    0.63    0.24
  -3  -1 -16    1.01    0.28
   3   2 -16   -0.59    0.26
   3  -2 -15    0.08    0.19
   3   2 -15   -0.23    0.20
   3  -2 -14    0.18    0.22
   3   2 -14    0.05    0.15
   3  -2 -13    1.11    0.33
   3   2 -13    0.66    0.26
   3  -2 -12    1.81    0.39
   3   2 -12    1.31    0.33
   3  -2 -11    3.25    0.45
   3   2 -11    2.92    0.44
   3  -2 -10    2.28    0.36
   3   2 -10    1.53    0.31
   3  -2  -9   -0.07    0.14
  -3  -2   9    0.04    0.09
   3   2  -9    0.06    0.14
   3  -2  -8    6.28    0.53
  -3  -2   8    6.19    0.50
  -3   2   8    6.70    0.56
   3   2  -8    6.07    0.54
   3   2  -7    6.10    0.51
   3  -2  -7    5.70    0.47
  -3   2   7    5.62    0.48
  -3  -2   7    5.12    0.44
   3   2  -6    9.26    0.61
  -3  -2   6    9.73    0.59
   3  -2  -6   10.16    0.59
  -3   2   6    9.58    0.59
  -3   2   5   18.70    0.77
   3   2  -5   17.91    0.81
  -3  -2   5   18.32    0.78
  -3  -2   4    8.96    0.55
  -3   2   4    8.32    0.48
  -3   2   3   11.71    0.52
   3  -2  -3   11.65    0.50
  -3  -2   3   12.22    0.63
   3  -2  -2    0.72    0.13
  -3  -2   2    0.67    0.17
  -3   2   2    0.78    0.14
   3  -2  -1   61.08    0.93
  -3  -2   1   58.66    1.33
  -3   2   1   59.35    0.94
  -3   2   0   12.14    0.37
   3  -2   0   11.78    0.25
   3  -2   0   12.87    0.38
   3  -2   1    5.54    0.20
   3  -2   1    6.24    0.22
  -3  -2  -2   11.44    0.62
  -3   2  -2   10.83    0.37
  -3  -2  -3   40.38    1.20
  -3   2  -3   39.89    0.83
  -3   2  -4    6.71    0.39
  -3  -2  -4    6.96    0.52
  -3   2  -5    1.30    0.20
  -3  -2  -5    1.03    0.23
  -3   2  -6    1.41    0.23
  -3  -2  -6    1.88    0.30
  -3   2  -6    1.48    0.12
  -3   2  -7   22.19    0.55
   3   2   7   22.97    1.04
  -3  -2  -7   24.81    1.11
  -3   2  -7   24.47    0.95
   3   2   8    1.97    0.35
  -3   2  -8    1.81    0.30
  -3   2  -8    1.94    0.20
  -3   2  -9   11.40    0.51
   3   2   9   11.54    0.82
  -3  -2  -9   10.31    0.73
  -3   2  -9   10.94    0.73
  -3   2 -10    5.75    0.40
  -3  -2 -10    5.30    0.54
  -3   2 -11    2.74    0.30
  -3  -2 -11    3.02    0.42
  -3  -2 -12    3.54    0.47
  -3   2 -12    2.90    0.34
  -3  -2 -13    2.39    0.42
  -3   2 -13    1.73    0.28
  -3  -2 -14    1.48    0.34
  -3  -2 -15    0.30    0.17
   3   3 -16   -0.47    0.23
   3   3 -15   -0.36    0.20
   3  -3 -14    0.19    0.23
   3   3 -14   -0.03    0.16
   3  -3 -13    0.36    0.21
   3   3 -13    0.33    0.18
   3  -3 -12    0.92    0.28
   3   3 -12    0.48    0.22
   3  -3 -11    1.14    0.32
   3   3 -11    1.00    0.28
   3  -3 -10    0.06    0.16
   3   3 -10    0.44    0.19
   3  -3  -9    0.08    0.14
   3   3  -9   -0.05    0.14
   3  -3  -9   -0.05    0.11
   3  -3  -8    3.85    0.43
   3   3  -8    3.84    0.45
   3  -3  -8    3.57    0.38
  -3  -3   8    3.04    0.37
   3  -3  -7    2.09    0.31
   3  -3  -7    2.00    0.27
   3   3  -7    1.87    0.32
  -3  -3   7    1.92    0.30
   3  -3  -6    0.26    0.14
   3  -3  -6    0.35    0.12
  -3  -3   6    0.37    0.15
   3  -3  -5    3.09    0.27
   3  -3  -5    2.54    0.31
  -3  -3   5    3.24    0.37
  -3  -3   4   10.83    0.65
   3  -3  -4   11.38    0.45
  -3  -3   3   25.15    0.96
   3  -3  -3   22.49    0.53
  -3  -3   2   34.25    1.14
   3  -3  -2   32.41    0.83
   3  -3  -2   31.45    0.44
   3  -3  -1   15.27    0.51
   3   3   0  115.64    2.07
   3  -3   0  113.66    1.21
   3  -3   1   19.98    0.42
   3   3   1   19.70    0.86
   3   3   2    2.61    0.33
  -3   3  -2    2.43    0.14
  -3  -3  -3    5.58    0.49
  -3   3  -3    6.19    0.30
   3   3   3    5.98    0.50
  -3  -3  -4    3.66    0.41
  -3   3  -4    3.65    0.27
   3   3   4    3.89    0.43
  -3   3  -5    1.70    0.22
  -3  -3  -5    1.92    0.31
   3   3   5    1.68    0.31
  -3   3  -6    4.66    0.38
   3   3   6    5.39    0.55
  -3  -3  -6    5.15    0.53
   3   3   7    5.88    0.57
  -3   3  -7    6.05    0.47
  -3   3  -8    1.07    0.21
   3   3   8    1.10    0.31
   3   3   9    3.06    0.47
  -3   3  -9    3.15    0.22
  -3   3  -9    3.03    0.39
  -3  -3  -9    2.95    0.44
  -3   3 -10    3.77    0.28
  -3  -3 -10    4.72    0.55
  -3   3 -11    3.14    0.29
  -3  -3 -11    3.90    0.52
  -3  -3 -12    2.18    0.41
  -3  -3 -13    1.58    0.37
  -3  -3 -14    0.09    0.18
   3   4 -15   -0.13    0.16
   3   4 -14    0.13    0.18
   3  -4 -13    0.21    0.20
   3   4 -13    0.17    0.17
   3  -4 -12   -0.04    0.15
   3   4 -12    0.47    0.25
   3  -4 -11   -0.15    0.18
   3   4 -11    0.14    0.15
   3  -4 -10    0.08    0.13
   3  -4  -9    0.32    0.18
   3  -4  -9    0.68    0.20
   3  -4  -8   -0.03    0.14
   3  -4  -8    0.15    0.13
   3  -4  -7    0.98    0.24
  -3  -4   7    1.06    0.25
   3  -4  -7    0.72    0.18
  -3  -4   6    5.61    0.52
   3  -4  -6    4.71    0.38
   3  -4  -6    5.06    0.49
   3  -4  -5    5.68    0.47
  -3  -4   5    5.71    0.52
   3  -4  -5    5.66    0.37
   3  -4  -4    0.26    0.14
  -3  -4   4    0.44    0.19
   3  -4  -4    0.23    0.09
  -3  -4   3    6.39    0.55
   3  -4  -3    6.62    0.27
  -3  -4   2    1.47    0.28
   3   4  -1    6.01    0.53
   3  -4  -1    5.54    0.35
   3   4   0   18.08    0.90
   3  -4   0   18.24    0.57
   3   4   1    1.13    0.26
   3  -4   1    1.55    0.15
   3   4   2    3.97    0.44
   3  -4   2    3.72    0.18
   3   4   3    3.99    0.44
  -3   4  -3    3.29    0.19
  -3  -4  -4   11.90    0.79
  -3   4  -4   10.45    0.42
   3   4   4   12.12    0.79
  -3   4  -5    3.36    0.28
  -3  -4  -5    3.43    0.45
   3   4   5    2.99    0.41
  -3   4  -6   11.13    0.57
   3   4   6   10.50    0.76
  -3   4  -7    1.62    0.25
   3   4   7    1.40    0.32
   3   4   8    6.24    0.65
  -3   4  -8    6.52    0.52
   3   4   9    3.03    0.49
  -3   4  -9    2.44    0.35
   3   4  10    0.97    0.32
  -3  -4 -10    0.71    0.28
  -3  -4 -11    0.23    0.20
  -3  -4 -12    0.37    0.25
  -3  -4 -13    0.28    0.20
   3  -5 -12   -0.18    0.20
   3  -5 -11    0.15    0.20
   3  -5 -10    0.29    0.17
   3  -5  -9   -0.02    0.15
   3  -5  -8    0.46    0.18
   3  -5  -8    0.39    0.21
   3  -5  -7    0.76    0.22
   3  -5  -7    0.38    0.13
   3  -5  -6    0.37    0.17
   3  -5  -6    0.08    0.09
   3  -5  -5    6.02    0.52
   3  -5  -5    5.83    0.38
   3  -5  -4    0.83    0.20
   3  -5  -3    4.26    0.40
   3   5  -2    1.08    0.27
   3  -5  -2    1.33    0.22
   3   5  -1    0.07    0.14
   3   5   0    1.03    0.26
   3  -5   0    1.20    0.18
   3  -5   1    3.20    0.26
   3   5   1    3.45    0.42
   3   5   2    2.26    0.35
   3  -5   2    2.64    0.21
   3   5   3    3.90    0.47
   3  -5   3    3.86    0.21
   3  -5   3    3.75    0.19
   3   5   4   10.58    0.77
  -3   5  -4   10.05    0.36
   3   5   5    6.31    0.61
  -3   5  -5    5.68    0.35
   3   5   6    1.99    0.38
  -3   5  -6    1.91    0.24
   3   5   7    5.56    0.61
   3   5   8    0.34    0.20
   3   5   9   -0.26    0.20
   3   5  10   -0.12    0.21
  -3  -5 -10   -0.24    0.21
  -3  -5 -11    0.16    0.17
   3  -6 -10    0.12    0.19
   3  -6  -9    0.03    0.14
   3  -6  -8    0.04    0.15
   3  -6  -7    0.38    0.21
   3  -6  -6    0.35    0.19
   3  -6  -5    0.44    0.18
   3  -6  -4    0.90    0.22
   3   6  -3    0.71    0.26
   3  -6  -3    0.73    0.20
   3   6  -2    0.62    0.23
   3  -6  -2    0.62    0.19
   3   6  -1    1.30    0.30
   3  -6  -1    0.96    0.21
   3   6   0    0.62    0.22
   3   6   1    3.06    0.44
   3   6   2    0.59    0.23
   3  -6   2    0.65    0.14
   3  -6   3    1.43    0.15
   3   6   3    0.78    0.27
   3   6   4    0.87    0.25
   3   6   5    0.40    0.22
   3   6   6    0.22    0.15
   3   6   7    0.25    0.19
   3   6   8   -0.47    0.23
   3   6   9    0.30    0.20
  -3  -6  -9   -0.02    0.21
   3  -7  -8    0.13    0.15
   3  -7  -7    0.20    0.16
   3  -7  -6    0.03    0.13
   3  -7  -5    0.35    0.19
   3   7  -5    0.20    0.16
   3   7  -4   -0.12    0.13
   3  -7  -4    0.18    0.19
   3  -7  -3    0.38    0.18
   3   7  -3    0.11    0.16
   3  -7  -2    0.03    0.08
   3   7  -2   -0.03    0.14
   3  -7  -1    0.15    0.10
   3   7  -1    0.29    0.14
   3  -7   0    0.55    0.16
   3   7   0    0.60    0.26
   3   7   1    0.51    0.21
   3   7   2   -0.03    0.12
   3   7   3    0.11    0.12
   3   7   4    0.18    0.16
   3   7   5    0.04    0.14
   3   7   6   -0.36    0.20
   3   7   7   -0.12    0.19
   3   7   8    0.20    0.18
   3   7   9    0.34    0.21
   4   0 -15    0.95    0.33
   4   0 -14    4.75    0.63
   4   0 -13    0.92    0.33
   4   0 -12    0.84    0.30
   4   0 -11    0.17    0.18
   4   0 -10    1.08    0.28
   4   0  -9   -0.10    0.14
   4   0  -8    8.65    0.64
  -4   0   8    8.19    0.59
  -4   0   7    0.18    0.12
  -4   0   6   26.57    0.96
  -4   0   5   28.40    0.94
  -4   0   4    0.58    0.15
  -4   0   3   46.32    1.09
   4   0  -2    0.58    0.15
  -4   0   2    0.59    0.14
   4   0  -1   21.04    0.71
  -4   0   1   19.90    0.67
   4   0   0    2.18    0.25
  -4   0   0    2.22    0.24
   4   0   1    0.86    0.17
  -4   0  -1    0.80    0.15
   4   0   2    0.17    0.12
  -4   0  -2    0.20    0.13
   4   0   3   99.81    1.71
  -4   0  -3   99.88    1.74
  -4   0  -4    1.06    0.21
  -4   0  -5    8.31    0.57
  -4   0  -6   -0.01    0.11
   4   0   6    0.06    0.13
   4   0   7    3.32    0.40
  -4   0  -7    3.11    0.39
  -4   0  -8   13.11    0.66
  -4   0  -8   14.41    0.87
  -4   0  -9   24.21    0.93
  -4   0 -10    0.80    0.21
  -4   0 -11    0.92    0.23
  -4   0 -12   -0.01    0.12
  -4   0 -13    0.02    0.09
  -4   0 -14    0.43    0.18
  -4   0 -15   -0.16    0.14
   4   1 -15    0.30    0.21
   4  -1 -15    0.57    0.29
   4   1 -14    0.29    0.23
   4  -1 -14    0.71    0.31
   4   1 -13    0.70    0.27
   4  -1 -13    1.77    0.39
   4   1 -12    1.20    0.33
   4  -1 -12    1.25    0.33
   4   1 -11    1.15    0.31
   4  -1 -11    0.93    0.29
   4   1 -10    1.66    0.35
   4  -1 -10    1.75    0.34
   4  -1  -9    3.84    0.45
   4   1  -9    2.99    0.43
  -4  -1   8    1.00    0.23
  -4   1   8    0.88    0.22
   4   1  -8    0.67    0.24
   4  -1  -8    0.46    0.18
   4  -1  -7   37.75    1.25
  -4  -1   7   36.91    1.21
  -4   1   7   38.07    1.20
   4   1  -7   36.68    1.28
  -4   1   6   16.43    0.75
   4  -1  -6   15.88    0.78
  -4  -1   6   16.92    0.79
  -4  -1   5    7.29    0.51
  -4   1   5    7.50    0.48
  -4  -1   4  116.13    1.91
  -4   1   4  115.10    1.73
  -4   1   3   15.19    0.59
   4  -1  -3   16.20    0.64
  -4  -1   3   16.50    0.71
  -4  -1   2   40.95    1.12
  -4   1   2   41.62    0.91
   4  -1  -2   42.57    0.98
   4  -1  -1  137.01    1.65
  -4  -1   1  135.37    1.96
  -4   1   1  135.21    1.55
   4  -1   0   43.73    0.92
  -4  -1   0   43.66    1.12
   4  -1   0   45.43    0.89
  -4   1   0   44.03    0.83
  -4   1  -1   30.98    0.66
   4  -1   1   29.11    0.76
  -4  -1  -2    1.04    0.22
  -4   1  -2    1.50    0.20
  -4   1  -2    1.31    0.15
   4  -1   2    1.33    0.20
  -4  -1  -3   37.78    1.17
  -4   1  -3   35.32    0.71
   4  -1   3   34.88    0.91
  -4   1  -3   34.97    0.95
  -4   1  -4    1.32    0.21
   4  -1   4    1.25    0.20
  -4  -1  -4    1.01    0.22
  -4   1  -5    0.53    0.16
  -4  -1  -5    0.45    0.17
  -4   1  -6    1.26    0.25
  -4   1  -6    1.02    0.15
   4   1   6    0.81    0.22
  -4  -1  -6    1.11    0.25
  -4   1  -7    0.97    0.23
  -4   1  -7    0.91    0.15
  -4  -1  -7    0.67    0.21
   4   1   7    0.63    0.21
   4   1   8    2.71    0.40
  -4   1  -8    2.77    0.26
  -4   1  -8    3.66    0.43
   4   1   9    0.47    0.22
  -4   1  -9    0.31    0.13
  -4  -1  -9    0.29    0.13
  -4  -1 -10    3.81    0.43
  -4   1 -10    4.37    0.37
  -4   1 -11    0.32    0.13
  -4  -1 -11    0.35    0.19
  -4   1 -12   -0.03    0.11
  -4  -1 -12   -0.04    0.13
  -4   1 -13    0.30    0.15
  -4  -1 -13    0.15    0.13
  -4  -1 -14    0.46    0.20
  -4  -1 -15    0.00    0.13
   4   2 -15   -0.25    0.20
   4   2 -14    0.18    0.20
   4  -2 -14    0.16    0.20
   4   2 -13    0.52    0.24
   4  -2 -13    0.63    0.25
   4  -2 -12    2.52    0.45
   4   2 -12    1.84    0.40
   4  -2 -11    0.39    0.20
   4   2 -11    0.22    0.20
   4  -2 -10    2.64    0.41
   4   2 -10    3.43    0.47
   4  -2  -9    6.07    0.57
   4   2  -9    4.72    0.54
   4   2  -8    7.44    0.63
  -4  -2   8    7.54    0.59
   4  -2  -8    7.82    0.61
  -4  -2   7   17.85    0.89
   4  -2  -7   16.08    0.83
  -4   2   7   17.93    0.87
   4   2  -7   17.81    0.93
  -4  -2   6    7.14    0.55
   4  -2  -6    6.76    0.51
  -4   2   6    7.76    0.54
   4   2  -6    6.64    0.56
   4  -2  -5    0.10    0.12
  -4   2   5    0.23    0.12
   4   2  -5    0.19    0.15
  -4  -2   5    0.21    0.12
  -4  -2   4    7.14    0.52
  -4   2   4    6.31    0.43
  -4  -2   3   12.37    0.68
   4  -2  -3   12.55    0.57
  -4   2   3   11.83    0.54
  -4  -2   2   15.03    0.73
   4  -2  -2   15.64    0.58
  -4   2   2   15.18    0.56
   4  -2  -1   44.57    0.77
  -4  -2   1   45.16    1.27
   4  -2  -1   46.60    0.92
  -4   2   1   44.50    0.85
   4  -2   0    5.69    0.30
   4  -2   0    5.22    0.26
  -4   2   0    5.71    0.27
   4  -2   1   10.11    0.35
  -4   2  -1   10.61    0.31
   4  -2   1   10.55    0.37
  -4   2  -2   39.54    0.83
  -4   2  -2   40.47    0.46
   4  -2   2   39.94    0.79
  -4  -2  -3   22.56    0.97
   4  -2   3   21.57    0.65
  -4   2  -3   21.22    0.68
  -4  -2  -4    6.57    0.55
  -4   2  -4    6.78    0.42
  -4   2  -5    3.64    0.35
  -4  -2  -5    3.84    0.44
  -4  -2  -6    1.40    0.29
  -4   2  -6    1.39    0.10
   4   2   6    1.08    0.27
  -4   2  -6    1.38    0.25
  -4   2  -7    2.49    0.17
   4   2   7    2.45    0.40
  -4   2  -7    2.22    0.32
   4   2   8    0.38    0.20
  -4   2  -8    0.23    0.12
  -4   2  -8    0.24    0.08
   4   2   9    2.14    0.40
  -4   2  -9    2.18    0.21
  -4   2  -9    2.18    0.35
   4   2  10    0.70    0.27
  -4  -2 -10    0.74    0.24
  -4   2 -10    0.71    0.14
  -4  -2 -11    0.63    0.22
  -4   2 -11    1.02    0.18
  -4  -2 -12    1.38    0.32
  -4   2 -12    1.34    0.22
  -4  -2 -13    2.99    0.46
  -4  -2 -14    0.56    0.25
  -4  -2 -15    0.38    0.20
   4   3 -15   -0.38    0.22
   4  -3 -14    0.77    0.34
   4   3 -14    0.35    0.20
   4  -3 -13    0.02    0.16
   4   3 -13    0.20    0.19
   4  -3 -12    0.39    0.22
   4   3 -12    0.15    0.21
   4  -3 -11    3.19    0.47
   4   3 -11    2.73    0.48
   4  -3 -10    0.99    0.27
   4   3 -10    1.21    0.31
   4  -3  -9    2.18    0.37
   4  -3  -9    2.56    0.36
   4   3  -9    2.53    0.44
   4   3  -8   13.52    0.88
   4  -3  -8   13.10    0.73
   4  -3  -8   11.99    0.77
   4   3  -7    6.50    0.61
  -4  -3   7    6.38    0.56
   4  -3  -7    5.93    0.53
   4  -3  -7    6.64    0.48
  -4   3   7    7.52    0.61
   4  -3  -6    2.98    0.36
  -4   3   6    3.05    0.37
   4  -3  -6    2.85    0.29
  -4  -3   6    2.65    0.37
   4  -3  -5    1.79    0.27
  -4   3   5    1.53    0.26
  -4  -3   5    1.70    0.30
  -4   3   4    0.36    0.12
  -4  -3   4    0.37    0.14
  -4   3   3    3.08    0.31
  -4  -3   3    2.64    0.34
  -4  -3   2    9.02    0.63
   4  -3  -2    8.11    0.44
   4  -3  -2    7.98    0.24
  -4  -3   1    3.28    0.39
   4  -3  -1    3.07    0.25
   4  -3   0    2.82    0.21
   4   3   0    2.87    0.40
   4  -3   1    0.04    0.05
   4   3   1    0.06    0.16
   4   3   2    4.17    0.46
   4   3   3    4.80    0.50
  -4   3  -3    4.32    0.27
   4   3   4    2.27    0.37
  -4   3  -4    1.94    0.22
  -4  -3  -4    2.06    0.33
  -4  -3  -5    3.55    0.45
  -4   3  -5    3.37    0.31
   4   3   5    3.32    0.43
   4   3   6   38.88    1.44
  -4   3  -6   36.14    1.09
   4   3   7    3.31    0.48
  -4   3  -7    2.85    0.34
   4   3   8    0.73    0.27
  -4   3  -8    1.31    0.27
   4   3   9    4.39    0.57
  -4   3  -9    4.20    0.46
   4   3  10    0.98    0.31
  -4  -3 -10    1.23    0.31
  -4  -3 -11    1.80    0.37
  -4  -3 -12    0.10    0.14
  -4  -3 -13    0.28    0.20
   4   4 -14   -0.11    0.14
   4  -4 -13   -0.03    0.20
   4   4 -13   -0.32    0.21
   4  -4 -12   -0.39    0.22
   4   4 -12    0.64    0.28
   4  -4 -11    0.09    0.17
   4  -4 -10   -0.08    0.20
   4  -4  -9    0.48    0.23
   4  -4  -9    0.48    0.18
   4  -4  -8    0.32    0.18
   4  -4  -8    0.36    0.14
   4  -4  -7    3.52    0.43
   4  -4  -7    3.24    0.34
   4  -4  -6    1.46    0.26
   4  -4  -6    1.87    0.24
   4  -4  -5    0.39    0.17
   4  -4  -5    0.42    0.11
  -4  -4   4    8.90    0.68
   4  -4  -4    8.26    0.54
   4  -4  -4    7.96    0.35
  -4  -4   3    0.11    0.11
  -4  -4   2    1.60    0.31
   4   4  -1    2.30    0.38
   4  -4  -1    2.13    0.22
   4  -4   0    3.81    0.26
   4   4   0    4.15    0.48
   4   4   1    0.31    0.19
   4  -4   1    0.27    0.07
   4   4   2    0.39    0.20
   4   4   3    0.44    0.22
   4   4   4    1.23    0.31
  -4   4  -4    1.27    0.15
  -4   4  -5    0.25    0.09
   4   4   5    0.39    0.22
   4   4   6    0.37    0.23
  -4   4  -6    0.25    0.11
   4   4   7    0.23    0.17
  -4   4  -7    0.20    0.11
  -4   4  -8    0.69    0.18
   4   4   8    0.77    0.27
   4   4   9    1.64    0.40
   4   4  10    0.28    0.24
  -4  -4 -11    0.25    0.20
  -4  -4 -12   -0.03    0.15
   4  -5 -11    0.15    0.19
   4  -5 -10    0.20    0.20
   4  -5  -9    0.21    0.14
   4  -5  -8   -0.03    0.16
   4  -5  -7    0.94    0.26
   4  -5  -6    0.94    0.25
   4  -5  -6    0.96    0.17
   4  -5  -5    0.36    0.10
   4  -5  -5    0.17    0.15
   4  -5  -4    0.27    0.13
   4  -5  -3    0.19    0.11
   4   5  -2    0.59    0.26
   4   5  -1    0.93    0.29
   4  -5   0    0.49    0.11
   4   5   0    0.17    0.18
   4  -5   1    1.03    0.14
   4   5   1    0.72    0.25
   4   5   2    0.24    0.18
   4  -5   2    0.43    0.07
   4   5   3    1.75    0.34
   4   5   4    1.76    0.37
  -4   5  -5   -0.01    0.06
   4   5   5    0.28    0.21
   4   5   6    0.56    0.25
   4   5   7    0.42    0.24
   4   5   8    0.00    0.22
   4   5   9    0.94    0.32
   4   5  10    0.27    0.28
   4  -6 -10    0.18    0.18
   4  -6  -9   -0.04    0.14
   4  -6  -8    0.34    0.20
   4  -6  -7   -0.32    0.18
   4  -6  -6    0.12    0.13
   4  -6  -5    1.08    0.26
   4  -6  -4    0.46    0.20
   4   6  -3    0.41    0.24
   4  -6  -3    0.38    0.16
   4   6  -2    0.04    0.19
   4  -6  -2   -0.02    0.09
   4  -6  -1    0.10    0.10
   4   6  -1    0.13    0.16
   4   6   0    0.27    0.20
   4  -6   1    0.67    0.12
   4   6   1    0.70    0.27
   4   6   2    1.74    0.38
   4   6   3    0.56    0.26
   4   6   4    0.35    0.23
   4   6   5   -0.01    0.15
   4   6   6    0.13    0.19
   4   6   7    0.27    0.20
   4   6   8    0.29    0.26
   4   6   9   -0.37    0.24
   4  -7  -8   -0.21    0.17
   4  -7  -7    0.07    0.13
   4  -7  -6   -0.27    0.15
   4  -7  -5    0.40    0.16
   4   7  -5    0.23    0.20
   4  -7  -4   -0.08    0.10
   4   7  -4    0.46    0.26
   4  -7  -3   -0.03    0.09
   4   7  -3    0.65    0.28
   4  -7  -2    0.23    0.15
   4   7  -2   -0.18    0.18
   4   7  -1   -0.17    0.18
   4   7   0    0.45    0.23
   4   7   1    0.12    0.15
   4   7   2   -0.03    0.14
   4   7   3    0.24    0.15
   4   7   4    0.59    0.28
   4   7   5    0.03    0.15
   4   7   6    0.43    0.25
   4   7   7    0.07    0.15
   4   7   8   -0.10    0.18
   5   0 -15    0.25    0.26
   5   0 -14    1.37    0.38
   5   0 -13    1.03    0.34
   5   0 -12    0.18    0.21
   5   0 -11    2.21    0.42
   5   0 -10    0.11    0.19
   5   0  -9    0.10    0.16
   5   0  -8    0.05    0.13
  -5   0   7    2.92    0.36
   5   0  -7    3.11    0.40
  -5   0   6    1.59    0.26
   5   0  -6    1.30    0.27
   5   0  -5   71.26    1.67
  -5   0   5   75.06    1.63
   5   0  -4    7.12    0.52
  -5   0   4    7.48    0.51
  -5   0   3   34.52    1.04
  -5   0   2   94.12    1.68
   5   0  -1   20.48    0.79
  -5   0   1   20.18    0.75
   5   0   0    0.38    0.15
  -5   0   0    0.56    0.15
  -5   0  -1  113.59    1.73
  -5   0  -2    1.74    0.24
  -5   0  -3    3.59    0.38
  -5   0  -4   36.70    1.23
  -5   0  -5    0.35    0.16
   5   0   5    0.16    0.16
   5   0   6    0.18    0.14
  -5   0  -6    0.28    0.17
   5   0   7    4.46    0.48
  -5   0  -7    4.01    0.47
   5   0   8    0.19    0.19
  -5   0  -8    0.02    0.15
  -5   0  -9    3.90    0.39
  -5   0 -10   -0.03    0.09
  -5   0 -11    0.39    0.17
  -5   0 -12    0.04    0.10
  -5   0 -13   -0.23    0.13
   5   1 -15    0.54    0.28
   5   1 -14    0.59    0.27
   5  -1 -14    0.36    0.24
   5   1 -13    0.05    0.20
   5  -1 -13   -0.14    0.18
   5   1 -12    3.01    0.52
   5  -1 -12    3.98    0.56
   5   1 -11    7.07    0.71
   5  -1 -11    6.39    0.68
   5   1 -10    1.31    0.32
   5  -1 -10    1.72    0.36
   5   1  -9    3.59    0.49
   5  -1  -9    3.25    0.45
   5  -1  -8    4.08    0.48
   5   1  -8    3.41    0.45
   5   1  -7    8.36    0.67
   5  -1  -7    8.78    0.65
  -5  -1   7    9.37    0.65
  -5   1   7    9.52    0.63
   5  -1  -6   12.74    0.72
   5   1  -6   11.88    0.73
  -5  -1   6   12.28    0.73
  -5   1   6   13.08    0.70
  -5   1   5    1.63    0.24
   5  -1  -5    2.19    0.32
  -5  -1   5    2.09    0.30
  -5  -1   4   11.36    0.67
  -5   1   4   11.42    0.60
  -5   1   3   20.45    0.75
  -5  -1   3   20.16    0.88
   5  -1  -2   11.80    0.58
  -5  -1   2   10.23    0.60
  -5   1   2   11.22    0.54
   5  -1  -1    2.03    0.24
  -5  -1   1    1.90    0.27
  -5   1   1    1.97    0.22
  -5   1   0    3.71    0.29
   5  -1   0    3.89    0.31
  -5  -1   0    3.38    0.36
   5  -1   0    3.70    0.33
  -5  -1  -1    4.03    0.39
  -5   1  -1    3.83    0.28
   5  -1   1    3.57    0.32
  -5   1  -2    7.03    0.37
   5  -1   2    6.41    0.43
  -5   1  -3   13.46    0.66
  -5  -1  -3   14.62    0.79
   5  -1   3   14.29    0.66
  -5   1  -3   14.52    0.52
   5   1   3   14.34    0.78
  -5  -1  -4    4.55    0.46
  -5   1  -4    4.67    0.31
   5   1   4    5.07    0.49
  -5   1  -4    4.69    0.41
   5   1   5    8.25    0.62
  -5   1  -5    7.38    0.55
  -5  -1  -5    8.12    0.64
   5  -1   6    6.40    0.52
   5   1   6    6.45    0.58
  -5   1  -6    5.92    0.52
  -5  -1  -6    6.12    0.58
   5  -1   7    0.06    0.15
   5   1   7   -0.14    0.19
  -5   1  -7   -0.07    0.18
  -5   1  -7   -0.02    0.07
   5   1   8    0.63    0.22
  -5   1  -8    1.21    0.28
  -5   1  -8    1.14    0.18
   5   1   9    0.45    0.24
  -5   1  -9    0.57    0.14
  -5   1 -10    0.09    0.08
  -5  -1 -10    0.00    0.12
  -5   1 -11    1.04    0.21
  -5  -1 -11    1.31    0.29
  -5   1 -12    0.37    0.15
  -5  -1 -12    0.25    0.15
  -5  -1 -13    0.91    0.26
  -5  -1 -14   -0.08    0.14
  -5  -1 -15    0.20    0.17
   5   2 -14    0.02    0.21
   5  -2 -14    0.05    0.19
   5   2 -13    0.86    0.30
   5  -2 -13    0.29    0.22
   5   2 -12    0.61    0.26
   5  -2 -12    0.73    0.27
   5   2 -11    1.83    0.41
   5  -2 -11    2.45    0.43
   5   2 -10    1.53    0.34
   5  -2 -10    4.38    0.54
   5   2  -9    4.94    0.58
   5  -2  -9    5.24    0.56
   5   2  -8   13.60    0.91
   5  -2  -8   14.65    0.87
  -5   2   7    1.11    0.24
   5   2  -7    0.82    0.24
   5  -2  -7    1.11    0.26
   5   2  -6   22.43    1.06
  -5  -2   6   21.86    1.02
   5  -2  -6   22.07    0.96
  -5   2   6   22.15    0.93
   5   2  -5    5.51    0.55
  -5  -2   5    7.47    0.59
   5  -2  -5    6.85    0.53
  -5   2   5    8.35    0.55
  -5   2   4    0.45    0.14
  -5  -2   4    0.35    0.15
  -5  -2   3   21.05    0.95
  -5   2   3   21.63    0.76
  -5   2   2    0.55    0.12
  -5  -2   2    0.60    0.19
   5  -2  -2    0.60    0.16
   5  -2  -1    1.26    0.17
  -5   2   1    1.13    0.17
  -5  -2   1    1.30    0.25
   5  -2  -1    1.02    0.17
  -5  -2   0    8.69    0.61
   5  -2   0    9.00    0.43
  -5   2   0    9.67    0.40
   5  -2   0    9.39    0.42
  -5   2  -1   27.02    0.60
   5  -2   1   27.17    0.73
  -5   2  -2   21.40    0.47
   5  -2   2   21.09    0.67
  -5   2  -3    8.28    0.48
  -5   2  -3    9.20    0.26
   5  -2   3    8.88    0.46
  -5  -2  -4   27.75    1.19
  -5   2  -4   26.99    0.38
   5  -2   4   28.57    0.89
   5   2   4   29.63    1.21
  -5   2  -4   28.64    0.94
  -5  -2  -5    2.61    0.38
  -5   2  -5    2.66    0.12
  -5   2  -5    2.66    0.12
  -5   2  -5    2.65    0.33
   5   2   5    2.39    0.37
  -5   2  -6    8.55    0.25
   5   2   6    9.38    0.73
  -5   2  -6    8.83    0.24
  -5   2  -6    8.95    0.60
  -5   2  -7    3.09    0.39
  -5   2  -7    2.74    0.17
   5   2   7    2.43    0.39
  -5   2  -8    0.19    0.07
  -5   2  -8    0.23    0.16
   5   2   8    0.00    0.17
   5   2   9   -0.12    0.21
  -5   2  -9    0.17    0.08
   5   2  10    1.29    0.35
  -5  -2 -10    1.06    0.28
  -5   2 -10    1.12    0.16
  -5  -2 -11    0.67    0.24
  -5  -2 -12    0.29    0.17
  -5  -2 -13   -0.03    0.16
  -5  -2 -14    0.45    0.22
   5   3 -14   -0.23    0.21
   5   3 -13   -0.03    0.15
   5  -3 -13    0.10    0.20
   5   3 -12   -0.14    0.18
   5  -3 -12    0.10    0.15
   5  -3 -11    0.44    0.23
   5   3 -11   -0.07    0.19
   5  -3 -10    0.40    0.22
   5   3 -10    0.51    0.26
   5  -3  -9    1.02    0.29
   5   3  -9    1.20    0.31
   5  -3  -8    0.46    0.21
   5   3  -8    0.43    0.22
   5  -3  -7   12.91    0.80
   5  -3  -6    5.60    0.51
  -5   3   6    5.85    0.53
  -5   3   5    1.77    0.28
   5  -3  -5    1.75    0.29
  -5  -3   4    8.76    0.68
   5  -3  -4    8.96    0.57
  -5   3   4    8.27    0.55
  -5  -3   3    3.85    0.45
  -5   3   3    3.96    0.36
   5  -3  -2    6.77    0.30
  -5  -3   2    6.94    0.59
   5  -3  -2    7.09    0.44
  -5   3   2    6.76    0.44
   5   3  -1    6.65    0.61
  -5  -3   1    7.09    0.61
   5  -3  -1    7.39    0.41
  -5   3   1    6.84    0.40
   5  -3  -1    6.60    0.24
   5  -3   0    0.13    0.04
   5   3   0    0.15    0.20
   5  -3   0    0.15    0.09
   5  -3   1    6.75    0.30
   5   3   1    7.14    0.63
   5   3   2    3.96    0.47
  -5   3  -3    7.84    0.40
   5   3   3    7.56    0.65
   5   3   4    2.66    0.43
  -5   3  -4    2.53    0.26
  -5   3  -5    0.38    0.14
   5   3   5    0.20    0.20
  -5   3  -6    1.33    0.22
   5   3   6    0.89    0.28
  -5   3  -7    1.96    0.30
   5   3   7    2.77    0.45
  -5   3  -8    0.40    0.20
   5   3   8    0.63    0.28
   5   3   9    0.77    0.31
   5   3  10    0.59    0.28
   5   3  11    0.23    0.23
  -5  -3 -11    0.07    0.17
  -5  -3 -12    0.24    0.16
  -5  -3 -13   -0.26    0.19
   5   4 -13   -0.05    0.15
   5  -4 -12    0.30    0.22
   5  -4 -11    0.24    0.18
   5  -4 -10    0.40    0.21
   5  -4  -9    1.07    0.29
   5  -4  -8    0.87    0.26
   5  -4  -8    0.46    0.17
   5  -4  -7    0.38    0.19
   5  -4  -7    0.18    0.09
   5  -4  -6   11.92    0.74
   5  -4  -6   11.12    0.55
   5  -4  -5    1.85    0.31
   5  -4  -5    1.39    0.18
   5  -4  -4    4.61    0.43
   5  -4  -4    4.07    0.24
   5  -4  -3   20.36    0.82
   5  -4  -1    2.94    0.27
   5   4  -1    2.16    0.39
   5   4   0    1.31    0.30
   5  -4   0    1.85    0.19
   5   4   1    2.25    0.40
   5  -4   1    2.11    0.16
   5   4   2    2.03    0.38
   5   4   3    1.64    0.35
  -5   4  -4    4.41    0.27
   5   4   4    4.06    0.54
  -5   4  -5    0.83    0.16
   5   4   5    0.41    0.25
  -5   4  -6    1.30    0.22
   5   4   6    1.14    0.34
  -5   4  -7    1.30    0.23
   5   4   7    1.30    0.35
   5   4   8    0.81    0.31
   5   4   9    2.19    0.46
   5   4  10    0.72    0.33
   5   4  11   -0.07    0.20
  -5  -4 -11    0.35    0.24
   5  -5 -11   -0.04    0.14
   5  -5 -10    0.20    0.21
   5  -5  -9   -0.13    0.18
   5  -5  -8   -0.13    0.15
   5  -5  -7    1.01    0.26
   5  -5  -6    0.51    0.19
   5  -5  -5    0.32    0.17
   5  -5  -4    0.62    0.19
   5  -5  -3    2.19    0.29
   5   5  -2    3.03    0.50
   5   5  -1    2.78    0.47
   5   5   0    4.07    0.54
   5  -5   0    4.23    0.30
   5  -5   1    3.01    0.20
   5   5   1    2.94    0.47
   5   5   2    3.59    0.52
   5   5   3    0.91    0.30
   5   5   4    0.97    0.31
   5   5   5   -0.10    0.20
   5   5   6    0.39    0.27
   5   5   7    0.77    0.30
   5   5   8    0.72    0.30
   5   5   9    0.59    0.27
   5   5  10    0.28    0.26
   5  -6 -10    0.17    0.19
   5  -6  -9    0.31    0.19
   5  -6  -8    0.17    0.18
   5  -6  -7    0.26    0.17
   5  -6  -6    0.47    0.22
   5  -6  -5    0.82    0.22
   5  -6  -4    0.02    0.10
   5   6  -4    0.12    0.16
   5  -6  -3    0.00    0.08
   5   6  -3    0.19    0.24
   5  -6  -2    0.17    0.12
   5   6  -2    0.06    0.23
   5   6  -1    0.35    0.24
   5   6   0    0.23    0.20
   5   6   1    1.88    0.42
   5   6   2    0.98    0.34
   5   6   3    0.47    0.24
   5   6   4    0.37    0.20
   5   6   5    0.47    0.25
   5   6   6    0.87    0.33
   5   6   7    0.51    0.26
   5   6   8    0.20    0.20
   5  -7  -8    0.15    0.15
   5  -7  -7    0.24    0.20
   5  -7  -6    0.49    0.21
   5   7  -6    0.24    0.18
   5  -7  -5    0.00    0.11
   5   7  -5    0.12    0.21
   5   7  -4    0.18    0.21
   5   7  -3    0.49    0.28
   5   7  -2   -0.02    0.16
   5   7  -1    0.53    0.27
   5   7   0    0.67    0.29
   5   7   1   -0.21    0.21
   5   7   2    0.33    0.23
   5   7   3    1.05    0.34
   5   7   4   -0.22    0.26
   5   7   5    0.90    0.33
   5   7   6    1.00    0.33
   5   8  -1   -0.54    0.25
   5   8   0    0.65    0.26
   6   0 -14    1.22    0.36
   6   0 -13    0.12    0.21
   6   0 -12    0.68    0.27
   6   0 -11    0.66    0.25
   6   0 -10    0.11    0.19
   6   0  -9    2.40    0.40
   6   0  -8    2.29    0.39
   6   0  -7    2.19    0.36
  -6   0   6    0.18    0.12
   6   0  -6   -0.04    0.16
   6   0  -5    7.61    0.60
  -6   0   5    7.45    0.56
   6   0  -4    1.20    0.26
  -6   0   4    0.96    0.20
  -6   0   3    2.88    0.34
   6   0  -3    2.40    0.35
  -6   0   2   11.54    0.64
  -6   0   1   22.73    0.88
  -6   0   0   17.15    0.76
  -6   0  -1   12.39    0.63
   6   0   2    0.02    0.15
  -6   0  -2   -0.06    0.10
   6   0   3    1.98    0.31
  -6   0  -3    1.79    0.26
  -6   0  -4    5.61    0.52
   6   0   4    4.07    0.44
   6   0   5   -0.19    0.17
  -6   0  -5   -0.07    0.13
   6   0   6    3.83    0.47
  -6   0  -6    3.73    0.46
   6   0   7    0.10    0.19
   6   0   8    0.52    0.20
   6   0   9    0.99    0.28
  -6   0  -9    1.31    0.25
  -6   0 -10    0.95    0.22
  -6   0 -11    0.12    0.12
  -6   0 -12    0.26    0.14
   6   1 -14   -0.39    0.25
   6  -1 -14    0.01    0.22
   6   1 -13   -0.08    0.20
   6  -1 -13   -0.03    0.18
   6   1 -12   -0.07    0.19
   6  -1 -12    0.22    0.21
   6   1 -11    0.39    0.22
   6  -1 -11    0.15    0.15
   6   1 -10    0.27    0.20
   6  -1 -10    0.14    0.16
   6   1  -9    0.34    0.20
   6  -1  -9    0.05    0.18
   6   1  -8    4.40    0.55
   6  -1  -8    4.47    0.52
   6   1  -7    3.02    0.44
   6  -1  -7    3.56    0.44
   6   1  -6    7.33    0.65
   6  -1  -6    7.42    0.60
  -6   1   6    8.31    0.59
  -6   1   5    3.20    0.36
   6   1  -5    2.78    0.41
   6  -1  -5    3.47    0.41
  -6  -1   5    2.84    0.37
   6  -1  -4    4.28    0.42
  -6  -1   4    3.54    0.41
  -6   1   4    3.74    0.37
   6   1  -4    3.56    0.44
   6  -1  -3   11.56    0.68
  -6  -1   3   11.58    0.72
  -6   1   3   11.07    0.60
  -6  -1   2   13.36    0.74
  -6   1   2   13.77    0.65
   6   1  -1   19.73    0.96
  -6  -1   1   19.39    0.89
  -6   1   1   20.28    0.75
   6   1   0    5.68    0.53
  -6  -1   0    6.18    0.51
  -6   1   0    5.48    0.39
   6   1   1    0.25    0.18
  -6  -1  -1    0.70    0.19
  -6   1  -1    0.64    0.15
  -6  -1  -2    8.67    0.60
  -6   1  -2    7.89    0.44
   6   1   2    8.11    0.64
  -6   1  -3    4.60    0.34
   6   1   3    4.51    0.49
   6   1   4    0.10    0.16
   6  -1   4    0.18    0.14
  -6   1  -4   -0.06    0.10
  -6   1  -4    0.08    0.07
  -6  -1  -4    0.14    0.12
  -6   1  -5    6.31    0.54
  -6  -1  -5    5.57    0.58
  -6   1  -5    6.03    0.40
   6  -1   5    5.86    0.50
   6   1   5    4.25    0.51
   6  -1   6    7.92    0.61
   6   1   6    7.94    0.68
  -6   1  -6    7.93    0.63
   6  -1   7    0.17    0.16
   6   1   7    0.11    0.16
  -6   1  -7    0.14    0.15
   6   1   8    5.01    0.58
  -6   1  -8    5.49    0.40
   6   1   9    0.55    0.24
  -6   1  -9   -0.02    0.08
   6   1  10   -0.36    0.24
  -6   1 -10   -0.05    0.09
  -6  -1 -10   -0.03    0.13
  -6   1 -11    0.46    0.15
  -6  -1 -11    0.41    0.18
  -6  -1 -12    0.29    0.16
  -6  -1 -13    0.35    0.17
   6   2 -14    0.15    0.20
   6   2 -13   -0.21    0.22
   6  -2 -13    0.29    0.23
   6   2 -12    0.09    0.17
   6  -2 -12   -0.01    0.16
   6   2 -11   -0.05    0.18
   6  -2 -11    0.26    0.21
   6   2 -10    0.36    0.22
   6  -2 -10    0.19    0.17
   6   2  -9    2.57    0.46
   6  -2  -9    3.57    0.50
   6  -2  -8    4.74    0.54
   6   2  -8    5.09    0.59
   6   2  -7    6.17    0.64
   6  -2  -7    5.89    0.58
  -6   2   6    0.79    0.20
   6   2  -6    0.90    0.26
   6  -2  -6    0.95    0.24
   6  -2  -5    6.68    0.54
  -6   2   5    5.82    0.48
  -6   2   4   -0.04    0.11
  -6  -2   4    0.12    0.13
   6  -2  -4    0.03    0.14
  -6  -2   3    4.13    0.46
  -6   2   3    4.30    0.37
  -6   2   2    0.55    0.14
  -6  -2   2    0.74    0.22
   6   2  -1    5.88    0.57
  -6  -2   1    6.26    0.56
   6  -2  -1    6.35    0.44
  -6   2   1    6.47    0.40
   6  -2  -1    6.03    0.40
   6   2   0    8.59    0.69
   6  -2   0    9.34    0.50
  -6  -2   0    8.92    0.67
  -6   2   0    9.25    0.44
   6  -2   0    8.77    0.47
   6   2   1    3.50    0.45
  -6   2  -1    3.09    0.24
  -6  -2  -1    3.19    0.41
   6  -2   1    3.03    0.29
  -6   2  -2    5.44    0.29
   6  -2   2    5.54    0.40
   6   2   2    5.31    0.55
  -6   2  -3    3.78    0.23
   6  -2   3    4.19    0.36
   6   2   3    4.41    0.51
  -6   2  -4    5.03    0.43
   6   2   4    4.82    0.54
  -6   2  -4    5.10    0.24
  -6   2  -5    1.32    0.11
  -6   2  -5    1.25    0.23
   6   2   5    1.17    0.31
  -6   2  -6    0.17    0.13
  -6   2  -6    0.19    0.06
   6   2   6    0.07    0.17
  -6   2  -6    0.14    0.05
  -6   2  -7    1.47    0.12
   6   2   7    0.99    0.30
  -6   2  -7    1.08    0.11
  -6   2  -7    0.75    0.22
  -6   2  -8    0.93    0.11
   6   2   8    0.89    0.30
  -6   2  -8    0.86    0.11
   6   2   9    0.48    0.25
   6   2  10    0.26    0.24
   6   2  11   -0.11    0.21
  -6  -2 -11   -0.62    0.25
  -6  -2 -12    0.12    0.15
  -6  -2 -13   -0.28    0.19
  -6  -2 -14    0.23    0.16
   6   3 -13    0.18    0.25
   6   3 -12    0.55    0.23
   6  -3 -12    0.36    0.26
   6   3 -11    0.11    0.17
   6  -3 -11    0.15    0.15
   6   3 -10    0.17    0.24
   6  -3 -10    0.95    0.31
   6   3  -9    3.82    0.57
   6  -3  -9    3.74    0.50
   6  -3  -8    1.64    0.34
   6  -3  -7    0.76    0.26
   6  -3  -6    8.49    0.65
   6  -3  -5    7.39    0.59
  -6   3   5    7.39    0.56
  -6   3   4    2.73    0.34
   6  -3  -4    2.25    0.31
   6  -3  -3    5.01    0.44
  -6   3   3    4.88    0.41
  -6   3   2    9.48    0.53
   6  -3  -2    9.56    0.43
   6   3  -1   12.23    0.86
   6  -3  -1   12.46    0.58
  -6   3   1   11.81    0.54
   6  -3  -1   12.31    0.44
  -6   3   0    0.61    0.13
   6  -3   0    0.68    0.11
   6  -3   0    0.85    0.16
   6   3   0    0.32    0.18
  -6   3  -1    9.37    0.38
   6  -3   1    9.86    0.40
   6   3   1   10.48    0.81
   6  -3   2   11.04    0.45
   6   3   2   10.74    0.82
   6   3   3   11.31    0.84
   6   3   4    2.17    0.41
  -6   3  -4    2.00    0.26
  -6   3  -5    6.59    0.48
   6   3   5    5.85    0.64
  -6   3  -6    2.18    0.32
   6   3   6    2.38    0.42
   6   3   7    0.48    0.24
  -6   3  -7    0.23    0.10
   6   3   8    0.46    0.23
  -6   3  -8    0.33    0.14
   6   3   9    0.49    0.26
   6   3  10   -0.17    0.21
   6   3  11   -0.04    0.20
  -6  -3 -11   -0.66    0.26
  -6  -3 -12    0.00    0.20
   6  -4 -12    1.06    0.33
   6  -4 -11    0.78    0.31
   6  -4 -10    0.36    0.26
   6  -4  -9    0.96    0.29
   6  -4  -8    3.49    0.47
   6  -4  -7    1.45    0.23
   6  -4  -7    1.47    0.31
   6  -4  -6    0.31    0.11
   6  -4  -6    0.27    0.18
   6  -4  -5    0.32    0.09
   6  -4  -5    0.25    0.15
   6  -4  -4    2.35    0.18
   6  -4  -4    2.01    0.30
   6  -4  -3    0.28    0.14
   6   4  -2    3.37    0.51
   6   4  -1    2.06    0.41
   6  -4  -1    2.08    0.25
   6  -4   0    6.04    0.36
   6   4   0    6.58    0.68
   6   4   1    3.20    0.50
   6   4   2    3.30    0.52
   6   4   3    1.26    0.35
   6   4   4    0.03    0.18
   6   4   5    0.33    0.23
   6   4   6    0.64    0.23
   6   4   7   -0.10    0.24
   6   4   8    0.00    0.20
   6   4   9    0.24    0.25
   6   4  10    0.07    0.19
   6  -5 -11    0.21    0.19
   6  -5 -10    0.24    0.21
   6  -5  -9    0.24    0.20
   6  -5  -8    0.57    0.24
   6  -5  -7    0.36    0.20
   6  -5  -6    1.04    0.27
   6  -5  -5    0.12    0.12
   6  -5  -4   -0.06    0.12
   6   5  -3    0.69    0.31
   6  -5  -3    0.36    0.14
   6   5  -2    0.90    0.31
   6   5  -1    2.29    0.46
   6  -5  -1    1.67    0.22
   6   5   0   -0.05    0.24
   6  -5   0    0.23    0.09
   6   5   1    2.49    0.47
   6   5   2    1.52    0.38
   6   5   3    0.35    0.26
   6   5   4    0.78    0.35
   6   5   5    1.23    0.39
   6   5   6    0.09    0.19
   6   5   7    0.11    0.17
   6   5   8   -0.02    0.20
   6  -6  -9    0.16    0.17
   6  -6  -8    0.15    0.14
   6  -6  -7    0.59    0.21
   6  -6  -6    0.05    0.14
   6  -6  -5    0.27    0.14
   6   6  -4    1.49    0.40
   6  -6  -4    0.04    0.12
   6   6  -3    0.47    0.27
   6  -6  -3   -0.22    0.12
   6   6  -2    0.34    0.23
   6   6  -1    0.08    0.20
   6   6   0    0.43    0.27
   6   6   1   -0.02    0.18
   6   6   2    0.30    0.23
   6   6   3    0.70    0.30
   6   6   4   -0.05    0.22
   6   6   5    1.70    0.45
   6   6   6    0.25    0.27
   6   7  -5    0.55    0.29
   6   7  -4   -0.57    0.29
   6   7  -3    0.30    0.23
   6   7  -2    0.49    0.26
   6   7  -1    0.06    0.17
   6   7   0    0.35    0.23
   6   7   1    0.00    0.15
   6   7   2   -0.16    0.18
   6   7   3    0.38    0.27
   7   0 -13   -0.08    0.20
   7   0 -12    0.87    0.33
   7   0 -11   -0.08    0.18
   7   0 -10   -0.18    0.17
   7   0  -9    4.58    0.60
   7   0  -8    4.28    0.55
   7   0  -7    5.65    0.60
   7   0  -6    0.37    0.21
   7   0  -5    0.36    0.20
   7   0  -4    1.50    0.30
  -7   0   4    2.18    0.32
   7   0  -3    0.19    0.17
  -7   0   3    0.23    0.13
  -7   0   2    4.45    0.43
  -7   0   1    0.58    0.17
   7   0  -1    0.05    0.15
   7   0   0    2.96    0.39
  -7   0   0    2.78    0.34
  -7   0  -1    5.65    0.47
   7   0   1    5.00    0.50
  -7   0  -2   30.66    1.07
   7   0   2   28.50    1.18
  -7   0  -3   13.70    0.73
   7   0   3   13.23    0.82
  -7   0  -4    0.04    0.09
   7   0   4    0.04    0.17
  -7   0  -5    0.74    0.18
   7   0   5    0.60    0.22
   7   0   6    4.56    0.52
   7   0   7    0.49    0.23
   7   0   8    2.61    0.43
   7   0   9    0.76    0.26
  -7   0  -9    0.67    0.19
  -7   0 -10    0.19    0.14
  -7   0 -11    0.77    0.21
   7   1 -13    0.75    0.29
   7  -1 -13    0.69    0.31
   7   1 -12    0.12    0.18
   7  -1 -12    0.17    0.20
   7   1 -11    0.26    0.24
   7  -1 -11    0.39    0.24
   7   1 -10    0.28    0.20
   7  -1 -10    0.55    0.28
   7   1  -9    0.56    0.27
   7  -1  -9    0.52    0.24
   7   1  -8    5.41    0.61
   7  -1  -8    4.34    0.57
   7   1  -7    1.18    0.31
   7  -1  -7    1.12    0.30
   7   1  -6    3.94    0.51
   7  -1  -6    2.92    0.42
  -7   1   5    2.66    0.35
   7   1  -5    3.10    0.44
   7  -1  -5    1.90    0.33
  -7   1   4    0.83    0.20
   7   1  -4    0.91    0.27
   7  -1  -4    0.86    0.24
   7  -1  -3   14.82    0.80
  -7  -1   3   12.71    0.79
  -7   1   3   13.60    0.72
   7  -1  -2    5.55    0.50
  -7  -1   2    4.96    0.49
  -7   1   2    6.12    0.48
   7   1  -1    0.89    0.26
  -7  -1   1    1.27    0.27
  -7   1   1    1.35    0.22
   7   1   0   24.04    1.16
  -7  -1   0   26.76    1.12
  -7   1   0   24.55    0.89
  -7  -1  -1    6.92    0.57
  -7   1  -1    5.68    0.42
   7   1   1    6.77    0.62
   7  -1   2    1.41    0.27
  -7  -1  -2    1.02    0.24
   7   1   2    1.18    0.30
  -7   1  -2    1.31    0.21
  -7  -1  -3   15.37    0.86
  -7   1  -3   14.14    0.64
   7  -1   3   14.31    0.79
   7   1   3   14.63    0.92
   7   1   4    2.85    0.43
  -7   1  -4    3.07    0.30
   7  -1   4    2.55    0.36
  -7   1  -5    1.38    0.29
   7  -1   5    1.43    0.30
  -7   1  -5    1.23    0.20
   7   1   5    1.21    0.32
  -7   1  -6    2.80    0.29
   7  -1   6    2.14    0.35
   7   1   6    2.80    0.45
   7  -1   7    3.07    0.43
  -7   1  -7    3.76    0.36
   7   1   7    3.40    0.50
   7  -1   8    2.50    0.42
   7   1   8    2.52    0.45
  -7   1  -8    2.59    0.29
   7   1   9   -0.02    0.20
  -7   1  -9    0.04    0.10
   7   1  10    1.57    0.39
  -7  -1 -11    0.25    0.14
  -7  -1 -12    0.05    0.12
   7   2 -12    0.00    0.20
   7  -2 -12    0.11    0.20
   7   2 -11    0.35    0.26
   7  -2 -11    0.18    0.21
   7   2 -10    0.11    0.21
   7  -2 -10   -0.20    0.21
   7   2  -9    0.23    0.25
   7  -2  -9   -0.19    0.19
   7   2  -8    0.40    0.23
   7  -2  -8    0.23    0.17
   7   2  -7    3.87    0.56
   7  -2  -7    3.29    0.45
   7   2  -6    1.49    0.38
   7  -2  -6    1.34    0.30
   7  -2  -5    6.77    0.61
  -7   2   5    7.82    0.58
   7  -2  -4   21.50    0.99
  -7   2   4   19.94    0.88
   7  -2  -3   19.68    0.90
  -7   2   3   18.99    0.82
   7  -2  -2    8.48    0.57
  -7   2   2    9.25    0.55
   7   2  -1   16.40    1.01
  -7   2   1   15.05    0.66
   7   2   0   10.44    0.83
  -7   2   0   11.70    0.55
   7  -2   0   11.37    0.61
  -7   2  -1    1.06    0.17
   7   2   1    0.91    0.27
  -7   2  -2   15.21    0.56
   7   2   2   15.91    0.99
  -7   2  -3    6.68    0.35
   7   2   3    6.44    0.66
   7   2   4    0.76    0.28
   7  -2   4    1.05    0.23
  -7   2  -4    0.95    0.13
   7  -2   5    2.95    0.37
  -7   2  -5    3.02    0.21
  -7   2  -5    2.77    0.37
   7   2   5    2.63    0.45
  -7   2  -6    5.33    0.54
  -7   2  -6    5.68    0.27
  -7   2  -6    5.97    0.27
   7  -2   6    5.51    0.52
   7   2   6    6.05    0.66
  -7   2  -7    2.02    0.15
   7   2   7    1.65    0.38
   7   2   8    1.67    0.40
   7   2   9    3.48    0.55
   7   2  10    1.45    0.40
   7   2  11   -0.08    0.20
  -7  -2 -11    0.31    0.17
  -7  -2 -12    0.01    0.12
  -7  -2 -13    0.36    0.21
   7   3 -12    0.01    0.16
   7  -3 -12   -0.29    0.23
   7   3 -11    0.49    0.29
   7  -3 -11    0.37    0.24
   7   3 -10    2.08    0.51
   7  -3 -10    2.65    0.48
   7  -3  -9    0.31    0.22
   7  -3  -8    0.91    0.29
   7  -3  -7    5.00    0.55
   7  -3  -6    1.87    0.34
  -7   3   5    0.99    0.24
   7  -3  -5    0.91    0.28
  -7   3   4    3.32    0.38
   7  -3  -4    2.82    0.37
   7  -3  -3    4.56    0.37
   7  -3  -3    5.27    0.47
  -7   3   3    4.72    0.42
  -7   3   2    1.76    0.25
   7   3  -2    1.41    0.34
   7  -3  -2    1.76    0.22
   7   3  -1    2.93    0.48
  -7   3   1    2.82    0.29
   7  -3  -1    3.04    0.27
  -7   3   0    0.11    0.09
   7  -3   0    0.20    0.11
   7  -3   0    0.04    0.07
  -7   3  -1    7.28    0.37
   7  -3   1    7.94    0.43
   7   3   1    8.36    0.78
   7  -3   2    0.11    0.09
  -7   3  -2    0.08    0.07
   7   3   2    0.26    0.24
   7  -3   3    7.71    0.47
   7   3   3    8.25    0.78
   7   3   4    1.25    0.35
   7   3   5    0.14    0.18
  -7   3  -6    0.58    0.19
   7   3   6    0.48    0.23
   7   3   7    0.10    0.19
   7   3   8    0.17    0.21
   7   3   9   -0.07    0.21
   7   3  10    0.48    0.29
   7  -4 -11    0.40    0.26
   7  -4 -10    0.64    0.28
   7  -4  -9    0.80    0.28
   7  -4  -8    0.51    0.23
   7  -4  -7    0.91    0.27
   7  -4  -6    0.44    0.20
   7  -4  -5   -0.08    0.14
   7  -4  -4    0.71    0.13
   7  -4  -4    0.85    0.22
   7  -4  -3    0.44    0.06
   7   4  -3    0.43    0.21
   7  -4  -3    0.50    0.17
   7  -4  -3    0.53    0.08
   7   4  -2   -0.06    0.27
   7   4  -1    0.80    0.27
   7  -4   0    3.27    0.29
   7   4   0    2.76    0.49
   7   4   1    0.04    0.24
   7   4   2    4.45    0.61
   7   4   3    6.81    0.75
   7   4   4    1.11    0.34
   7   4   5    0.69    0.32
   7   4   6    1.49    0.42
   7   4   7   -0.02    0.21
   7   4   8    0.44    0.27
   7   4   9   -0.02    0.22
   7  -5 -10    0.27    0.22
   7  -5  -9    0.44    0.22
   7  -5  -8    0.10    0.14
   7  -5  -7    0.10    0.15
   7  -5  -6    0.39    0.20
   7  -5  -5   -0.02    0.13
   7   5  -4    0.44    0.28
   7  -5  -4    0.31    0.16
   7   5  -3    0.83    0.36
   7  -5  -3    0.03    0.08
   7   5  -2    0.25    0.24
   7  -5  -2    0.08    0.08
   7   5  -1    0.32    0.25
   7  -5  -1    0.44    0.13
   7   5   0    0.17    0.24
   7   5   1   -0.07    0.19
   7   5   2    2.14    0.49
   7   5   3   -0.15    0.22
   7   5   4    0.38    0.27
   7   5   5    1.63    0.43
   7   5   6    0.12    0.19
   7   5   7    0.02    0.20
   7  -6  -8    0.57    0.23
   7  -6  -7    0.59    0.22
   7  -6  -6    0.02    0.10
   7   6  -5    0.27    0.25
   7   6  -4    0.15    0.25
   7   6  -3    0.00    0.22
   7   6  -2    0.16    0.22
   7   6  -1    0.57    0.31
   7   6   0   -0.05    0.20
   7   6   1    0.28    0.24
   7   6   2    0.20    0.22
   7   6   3    0.12    0.23
   7   6   4    0.21    0.26
   8   0 -12    0.57    0.29
   8   0 -11    0.10    0.17
   8   0 -10    0.33    0.24
   8   0  -9    0.32    0.22
   8   0  -8    0.05    0.20
   8   0  -7    1.71    0.37
   8   0  -6    4.16    0.55
   8   0  -5    0.23    0.19
   8   0  -4    0.04    0.20
   8   0  -2    2.47    0.40
  -8   0   2    3.34    0.41
   8   0  -1    1.76    0.34
  -8   0   1    1.61    0.29
  -8   0   0    8.40    0.62
   8   0   0    8.27    0.68
  -8   0  -1    3.59    0.41
   8   0   1    3.33    0.46
  -8   0  -2    8.65    0.62
   8   0   2    9.35    0.75
  -8   0  -3   18.62    0.90
   8   0   3   19.78    1.08
  -8   0  -4    0.33    0.15
   8   0   4    0.60    0.26
  -8   0  -5   16.33    0.86
   8   0   5   15.72    0.99
  -8   0  -6    9.32    0.67
   8   0   6    8.96    0.77
   8   0   7    0.06    0.17
   8   0   8    2.89    0.47
   8   0   9    2.21    0.45
   8   0  10    0.04    0.22
   8   1 -12    0.11    0.20
   8  -1 -12    0.67    0.30
   8   1 -11    0.43    0.25
   8  -1 -11    0.81    0.29
   8   1 -10   -0.02    0.17
   8  -1 -10    0.28    0.21
   8   1  -9    0.27    0.24
   8  -1  -9    0.72    0.27
   8   1  -8    0.56    0.29
   8  -1  -8    0.54    0.26
   8   1  -7    1.24    0.35
   8  -1  -7    1.48    0.33
   8   1  -6    3.55    0.53
   8  -1  -6    2.89    0.44
   8   1  -5    0.49    0.24
   8  -1  -5    1.12    0.29
   8  -1  -4    3.95    0.49
  -8   1   3    2.14    0.32
   8  -1  -3    1.59    0.31
   8   1  -2    1.25    0.31
   8  -1  -2    1.51    0.30
  -8   1   2    1.23    0.25
   8   1  -1   10.46    0.82
  -8   1   1   11.47    0.67
   8  -1  -1   11.41    0.75
  -8   1   0    5.25    0.45
   8   1   0    5.20    0.58
   8  -1   0    4.32    0.47
  -8  -1  -1    4.00    0.48
  -8   1  -1    3.54    0.36
   8  -1   1    3.62    0.43
   8   1   1    4.94    0.58
  -8  -1  -2   16.21    0.92
  -8   1  -2   17.24    0.76
   8  -1   2   17.11    0.92
   8   1   2   16.87    1.04
   8   1   3    4.30    0.54
  -8   1  -3    4.16    0.38
  -8  -1  -3    4.13    0.48
   8  -1   3    3.62    0.44
  -8   1  -4    9.58    0.57
   8  -1   4   10.33    0.74
   8   1   4    9.59    0.82
   8  -1   5    1.42    0.32
  -8   1  -5    1.16    0.20
   8   1   5    1.00    0.34
   8  -1   6    2.46    0.40
   8   1   6    2.96    0.49
   8   1   7    5.64    0.66
   8  -1   7    6.21    0.64
   8  -1   8    2.08    0.40
   8   1   8    1.82    0.41
   8   1   9    1.75    0.42
   8   1  10    0.68    0.29
  -8  -1 -11    0.03    0.12
   8   2 -11    1.25    0.38
   8  -2 -11    1.43    0.39
   8   2 -10    0.47    0.30
   8  -2 -10    0.27    0.24
   8   2  -9    0.55    0.24
   8  -2  -9    0.40    0.22
   8   2  -8    0.24    0.24
   8  -2  -8   -0.03    0.18
   8  -2  -7   -0.12    0.17
   8  -2  -6    0.58    0.21
   8  -2  -5    0.62    0.24
  -8   2   4    1.66    0.28
   8  -2  -4    1.50    0.31
  -8   2   3    1.06    0.22
   8  -2  -3    0.90    0.22
   8  -2  -3    1.33    0.28
   8  -2  -2    4.31    0.46
  -8   2   2    3.64    0.37
   8   2  -2    3.96    0.55
  -8   2   1    2.70    0.31
   8   2  -1    2.40    0.43
  -8   2   0    0.80    0.17
   8   2   0    0.69    0.28
  -8   2  -1    7.99    0.47
   8   2   1    7.90    0.76
  -8   2  -2    5.18    0.37
   8   2   2    4.65    0.60
   8  -2   2    5.05    0.46
   8   2   3    0.43    0.22
   8  -2   3    0.17    0.14
  -8   2  -3    0.18    0.08
   8   2   4    0.10    0.21
   8  -2   4    0.53    0.20
  -8   2  -4    0.52    0.12
   8  -2   5    0.90    0.24
   8   2   5    1.24    0.35
   8  -2   6    0.39    0.18
   8   2   6    0.31    0.21
   8   2   7    2.40    0.46
   8   2   8   -0.24    0.23
   8   2   9    0.21    0.22
   8   2  10    0.72    0.32
  -8  -2 -12    0.36    0.20
   8  -3 -11    0.20    0.22
   8  -3 -10    0.13    0.19
   8  -3  -9    0.51    0.28
   8  -3  -8    0.12    0.18
   8  -3  -7    0.86    0.28
   8  -3  -6    1.14    0.29
   8  -3  -5    0.92    0.27
  -8   3   4    1.50    0.27
   8  -3  -4    1.34    0.28
   8  -3  -3    3.62    0.43
   8   3  -3    4.27    0.62
  -8   3   3    3.91    0.40
  -8   3   2    1.21    0.22
   8  -3  -2    1.25    0.25
   8  -3  -2    0.84    0.18
   8   3  -2    0.82    0.34
   8  -3  -1   -0.07    0.13
  -8   3   1    0.12    0.10
   8   3  -1   -0.16    0.27
  -8   3   0    0.53    0.13
   8   3   0    0.82    0.33
   8  -3   0    0.59    0.16
  -8   3  -1   10.58    0.48
   8  -3   1    8.90    0.51
   8   3   2    0.71    0.28
   8   3   3    0.88    0.33
   8   3   4    1.13    0.34
   8   3   5    0.10    0.20
   8   3   6    0.36    0.22
   8   3   7    0.29    0.23
   8   3   8    2.52    0.54
   8  -4 -10    0.07    0.17
   8  -4  -9    0.02    0.17
   8  -4  -8    0.03    0.13
   8  -4  -7    0.00    0.13
   8  -4  -6    0.74    0.24
   8  -4  -5    0.70    0.23
   8  -4  -4    0.22    0.14
   8   4  -3    0.15    0.24
   8  -4  -3    0.20    0.13
   8   4  -2    0.27    0.24
   8  -4  -2    0.21    0.11
   8   4  -1    0.70    0.32
   8   4   0    0.04    0.21
   8   4   1    0.31    0.26
   8   4   2    0.79    0.35
   8   4   3    0.76    0.31
   8   4   4    0.80    0.33
   8   4   5    0.26    0.28
   8   4   6    0.08    0.24
   8   4   7    0.16    0.21
   8  -5  -9    0.13    0.18
   8  -5  -8    0.37    0.19
   8  -5  -7    0.20    0.16
   8  -5  -6    0.34    0.19
   8   5  -5    0.24    0.27
   8  -5  -5    0.09    0.10
   8   5  -4   -0.37    0.23
   8  -5  -4   -0.06    0.09
   8   5  -3    0.13    0.23
   8   5  -2    0.06    0.20
   8   5  -1    0.29    0.28
   8   5   0    0.10    0.23
   8   5   1    0.08    0.23
   8   5   2   -0.13    0.25
   8   5   3    0.33    0.28
   8   5   4    0.17    0.30
   8   5   5   -0.18    0.28
   9   0 -11    0.00    0.16
   9   0 -10    0.02    0.18
   9   0  -9    1.17    0.34
   9   0  -8   -0.41    0.24
   9   0  -7    0.03    0.18
   9   0  -6    0.41    0.24
   9   0  -5    0.15    0.17
   9   0  -3    0.16    0.21
   9   0  -2    3.55    0.51
   9   0  -1    0.54    0.24
   9   0   0   -0.19    0.23
   9   0   1    2.00    0.40
   9   0   2   -0.14    0.20
  -9   0  -2    0.21    0.11
   9   0   3   -0.20    0.18
  -9   0  -3   -0.43    0.17
  -9   0  -4    0.98    0.24
   9   0   4    0.72    0.27
   9   0   5    0.85    0.27
   9   0   6    0.10    0.16
   9   0   7   -0.07    0.18
   9   0   8    0.08    0.18
   9   0   9   -0.02    0.17
   9   0  10   -0.19    0.20
   9  -1 -11    0.02    0.18
   9   1 -10   -0.37    0.25
   9  -1 -10   -0.06    0.17
   9   1  -9   -0.09    0.19
   9  -1  -9    0.53    0.28
   9   1  -8    1.56    0.41
   9  -1  -8    0.21    0.20
   9   1  -7   -0.22    0.21
   9  -1  -7    0.10    0.15
   9  -1  -6    0.19    0.24
   9  -1  -5    0.22    0.22
   9  -1  -4    0.20    0.18
   9  -1  -3    0.04    0.16
   9   1  -3    0.01    0.24
   9   1  -2    4.20    0.58
   9  -1  -2    4.10    0.50
   9  -1  -1   -0.02    0.19
   9   1  -1    0.10    0.20
  -9   1   1    0.51    0.18
   9   1   0    0.78    0.31
   9  -1   0    0.72    0.23
  -9   1   0    0.73    0.19
   9  -1   1    0.48    0.21
   9   1   1    0.46    0.24
  -9   1  -1    0.65    0.17
   9  -1   2    0.24    0.20
  -9   1  -2    0.07    0.10
   9   1   3    0.73    0.27
  -9   1  -3    0.67    0.18
   9  -1   3    0.78    0.25
   9  -1   4    1.02    0.27
   9   1   4    0.40    0.23
   9  -1   5    0.94    0.26
   9   1   5    0.70    0.28
   9  -1   6   -0.07    0.17
   9   1   6    0.30    0.21
   9  -1   7    0.81    0.27
   9   1   7    0.92    0.31
   9  -1   8    0.82    0.30
   9   1   8    0.86    0.34
   9   1   9    0.70    0.30
   9   2 -10    0.35    0.24
   9  -2 -10    0.06    0.17
   9   2  -9    0.63    0.33
   9  -2  -9    0.14    0.19
   9  -2  -8   -0.46    0.23
   9  -2  -7    0.03    0.16
   9  -2  -6   -0.12    0.18
   9  -2  -5    0.76    0.28
   9  -2  -4    0.22    0.14
   9  -2  -4   -0.10    0.15
   9  -2  -3   -0.01    0.15
   9   2  -3   -0.02    0.23
   9  -2  -3    0.13    0.17
  -9   2   2    0.50    0.16
   9  -2  -2    0.86    0.23
   9   2  -2    0.64    0.29
  -9   2   1    3.04    0.35
   9  -2  -1    3.94    0.44
   9   2  -1    3.28    0.56
  -9   2   0    1.78    0.26
   9   2   0    1.29    0.34
   9  -2   0    1.03    0.24
   9   2   1   -0.20    0.31
   9  -2   1    0.32    0.18
   9   2   2   -0.02    0.21
   9  -2   2    0.17    0.15
   9   2   3    0.03    0.22
   9  -2   3    0.39    0.18
   9   2   4    0.02    0.19
   9  -2   4    0.20    0.15
   9  -2   5    0.29    0.17
   9   2   5    0.35    0.23
   9  -2   6    0.36    0.20
   9   2   6    0.49    0.28
   9  -2   7    0.08    0.12
   9   2   7    0.03    0.19
   9   2   8    0.43    0.29
   9  -3 -10    0.24    0.21
   9  -3  -9    0.38    0.21
   9  -3  -8   -0.25    0.20
   9  -3  -7    0.06    0.17
   9  -3  -6    0.03    0.14
   9  -3  -5   -0.03    0.14
   9  -3  -5    0.00    0.15
   9  -3  -4    0.01    0.11
   9  -3  -4    0.22    0.15
   9   3  -4    0.17    0.22
   9   3  -3   -0.08    0.22
   9  -3  -3    0.07    0.13
   9   3  -2    0.28    0.20
   9  -3  -2    0.25    0.15
   9   3  -1    1.81    0.46
   9   3   0    0.25    0.28
   9   3   1    2.06    0.44
   9   3   2    0.84    0.29
   9  -3   3    0.11    0.11
   9   3   3    0.24    0.29
   9   3   4    0.62    0.32
   9   3   5    0.30    0.25
   9   3   6    0.83    0.32
   9   3   7    0.52    0.30
   9  -4  -9    0.48    0.23
   9  -4  -8    0.01    0.13
   9  -4  -7    0.22    0.16
   9  -4  -6    0.11    0.14
   9  -4  -5    0.34    0.17
   9  -4  -4   -0.01    0.08
   9   4  -4    0.60    0.35
   9   4  -3   -0.26    0.21
   9  -4  -3    0.00    0.08
   9   4  -2   -0.14    0.24
   9   4  -1    0.07    0.21
   9   4   0    1.31    0.42
   9   4   1    0.06    0.24
   9   4   2    0.17    0.29
   9   4   3    0.67    0.35
   9   4   4    0.59    0.33
   9   5  -1   -0.15    0.27
  10   0  -9    0.75    0.32
  10   0  -8    0.08    0.18
  10   0  -7    0.00    0.15
  10   0  -6    0.02    0.19
  10   0  -4    0.24    0.21
  10   0  -3   -0.07    0.19
  10   0  -2    0.29    0.22
  10   0  -1    0.49    0.24
  10   0   0    0.08    0.17
  10   0   1    2.24    0.44
  10   0   2    1.30    0.36
  10   0   3    0.25    0.20
  10   0   4    0.19    0.15
  10   0   5   -0.13    0.18
  10   0   6   -0.04    0.17
  10   0   7   -0.56    0.27
  10   0   8   -0.02    0.16
  10   1  -9    0.06    0.27
  10  -1  -9   -0.77    0.29
  10   1  -8    0.00    0.17
  10  -1  -8    0.32    0.26
  10  -1  -7   -0.11    0.17
  10  -1  -6    0.33    0.17
  10  -1  -5    0.50    0.24
  10  -1  -4    0.42    0.22
  10   1  -4    0.25    0.24
  10  -1  -3    0.52    0.19
  10   1  -3    0.50    0.26
  10  -1  -2    0.45    0.22
  10   1  -2    0.01    0.24
  10   1  -1    0.56    0.27
  10  -1  -1    0.43    0.21
  10  -1   0    1.08    0.29
  10   1   0    0.88    0.31
  10  -1   1    0.13    0.15
  10   1   1    0.32    0.29
  10  -1   2    0.67    0.25
  10   1   2    0.88    0.30
  10   1   3    0.65    0.31
  10  -1   3    0.65    0.26
  10  -1   4    0.41    0.26
  10   1   4   -0.16    0.20
  10  -1   5    0.94    0.31
  10   1   5    0.86    0.30
  10  -1   6    0.40    0.22
  10   1   6    0.32    0.26
  10  -1   7    0.40    0.20
  10   1   7    0.64    0.33
  10  -1   8    0.38    0.23
  10  -1   9    0.08    0.20
  10  -2  -9    0.18    0.19
  10  -2  -8    0.17    0.21
  10  -2  -7    0.17    0.16
  10  -2  -6    0.04    0.18
  10  -2  -5    0.43    0.19
  10  -2  -5    0.21    0.19
  10  -2  -4    0.24    0.15
  10   2  -4   -0.01    0.20
  10  -2  -4    0.18    0.17
  10  -2  -3    0.61    0.21
  10   2  -3    0.32    0.34
  10   2  -2    0.43    0.33
  10  -2  -2    0.00    0.11
  10   2  -1    0.24    0.27
  10  -2  -1    0.16    0.11
  10   2   0    0.10    0.22
  10  -2   0    0.44    0.19
  10   2   1    0.04    0.29
  10  -2   1   -0.03    0.09
  10   2   2    0.48    0.30
  10  -2   2    0.74    0.19
  10   2   3    0.56    0.30
  10  -2   3    0.51    0.19
  10   2   4    0.53    0.22
  10  -2   4    0.57    0.21
  10  -2   5    0.82    0.25
  10   2   5    0.82    0.33
  10  -2   6    0.58    0.23
  10   2   6   -0.43    0.28
  10  -3  -9   -0.14    0.17
  10  -3  -8    0.46    0.22
  10  -3  -7   -0.05    0.12
  10  -3  -6   -0.30    0.18
  10  -3  -5    0.23    0.18
  10   3  -5    0.10    0.26
  10   3  -4    0.27    0.30
  10  -3  -4   -0.18    0.13
  10   3  -3   -0.47    0.28
  10  -3  -3    0.23    0.13
  10   3  -2    0.88    0.37
  10   3  -1    0.04    0.22
  10   3   0    0.35    0.30
  10   3   1   -0.10    0.29
  10   3   2    0.69    0.33
  10   3   3    0.20    0.26
  10   3   4    0.08    0.22
  10  -4  -7    0.37    0.21
  10  -4  -6    0.00    0.12
  11   0  -5    0.71    0.31
  11   0  -4    1.91    0.42
  11   0  -3   -0.15    0.26
  11   0  -2    0.01    0.19
  11   0  -1    1.23    0.37
  11   0   0    0.56    0.29
  11   0   1    0.57    0.26
  11   0   2    0.22    0.19
  11   0   3   -0.11    0.20
  11   0   4    0.18    0.19
  11   0   5    0.10    0.18
  11   0   6    0.62    0.29
  11  -1  -7    0.16    0.23
  11  -1  -6    0.61    0.25
  11  -1  -6    0.47    0.24
  11  -1  -5    0.57    0.25
  11   1  -5    0.67    0.31
  11  -1  -4    0.07    0.17
  11   1  -4   -0.01    0.20
  11  -1  -3    0.28    0.22
  11   1  -3    0.33    0.26
  11  -1  -2    0.14    0.22
  11   1  -2    0.14    0.22
  11   1  -1   -0.39    0.26
  11  -1  -1   -0.10    0.17
  11  -1   0   -0.11    0.17
  11   1   0    0.61    0.28
  11  -1   1   -0.08    0.16
  11   1   1    0.05    0.19
  11   1   2    0.39    0.25
  11  -1   2    0.25    0.22
  11   1   3    0.26    0.24
  11  -1   3    0.21    0.17
  11  -1   4   -0.29    0.18
  11   1   4   -0.24    0.23
  11  -1   5    0.31    0.21
  11   1   5    0.19    0.20
  11  -1   6   -0.02    0.14
  11  -2  -8   -0.01    0.15
  11  -2  -7    0.26    0.21
  11  -2  -6    0.16    0.22
  11  -2  -5   -0.08    0.13
  11   2  -5    0.31    0.28
  11   2  -4    0.44    0.29
  11   2  -3   -0.43    0.30
  11   2  -2   -0.01    0.23
  11   2  -1   -0.11    0.24
  11   2   0    0.03    0.20
  11   2   1   -0.08    0.22
  11   2   2    0.19    0.25
  11   2   3    0.45    0.29
  11  -3  -7   -0.42    0.25
  11  -3  -6    0.18    0.13
  12   0  -6    0.19    0.25
  12   0  -5    0.08    0.20
  12   0  -4    0.01    0.20
  12   0  -3    0.26    0.23
  12   0  -2    0.33    0.23
  12   0  -1    0.59    0.27
  12   0   0    1.03    0.33
  12   0   1    0.03    0.16
  12   0   2    0.76    0.32
  12   0   3    0.74    0.32
  12   0   4    0.02    0.19
  12  -1  -5    0.15    0.22
  12  -1  -4    0.81    0.33
  12  -1  -3   -0.30    0.23
  12   1  -3    0.05    0.22
  12   1  -2   -0.53    0.30
  12  -1  -2    0.00    0.16
  12  -1  -1   -0.53    0.26
  12   1  -1    0.91    0.35
  12  -1   0    0.42    0.24
  12   1   0    0.08    0.19
  12  -1   1    0.30    0.21
  12   1   1    1.26    0.44
  12  -1   2   -0.36    0.23
   0   0   0    0.00    0.00
;
_shelx_hkl_checksum              30884
loop_
_space_group_symop_operation_xyz
'x, y, z'
'-x, y+1/2, -z'
loop_
_atom_site_label
_atom_site_type_symbol
_atom_site_fract_x
_atom_site_fract_y
_atom_site_fract_z
_atom_site_U_iso_or_equiv
_atom_site_adp_type
_atom_site_occupancy
_atom_site_site_symmetry_order
_atom_site_calc_flag
_atom_site_refinement_flags_posn
_atom_site_refinement_flags_adp
_atom_site_refinement_flags_occupancy
_atom_site_disorder_assembly
_atom_site_disorder_group
C1 C 0.0078(4) 0.6008(6) 0.6590(3) 0.0706(10) Uani 1 1 d . . . . .
C2 C 0.0857(3) 0.4519(5) 0.7333(2) 0.0564(8) Uani 1 1 d . . . . .
C3 C -0.0045(4) 0.2859(7) 0.7805(3) 0.0736(10) Uani 1 1 d . . . . .
H3A H 0.039917 0.148848 0.794308 0.088 Uiso 1 1 calc R U . . .
H3B H -0.107742 0.281949 0.758442 0.088 Uiso 1 1 calc R U . . .
C4 C 0.0503(3) 0.4673(6) 0.8485(2) 0.0651(9) Uani 1 1 d . . . . .
H4 H -0.024535 0.572237 0.861200 0.078 Uiso 1 1 calc R U . . .
C5 C 0.1654(3) 0.4469(6) 0.9366(2) 0.0623(9) Uani 1 1 d . . . . .
C6 C 0.2460(5) 0.2685(7) 0.9572(3) 0.0826(11) Uani 1 1 d . . . . .
H6 H 0.227702 0.149895 0.915125 0.099 Uiso 1 1 calc R U . . .
C7 C 0.3544(5) 0.2596(8) 1.0392(3) 0.0927(13) Uani 1 1 d . . . . .
H7 H 0.407922 0.136420 1.051457 0.111 Uiso 1 1 calc R U . . .
C8 C 0.3826(4) 0.4327(9) 1.1022(3) 0.0921(14) Uani 1 1 d . . . . .
H8 H 0.455370 0.427987 1.157198 0.110 Uiso 1 1 calc R U . . .
C9 C 0.3030(4) 0.6114(8) 1.0833(3) 0.0892(13) Uani 1 1 d . . . . .
H9 H 0.321281 0.729524 1.125658 0.107 Uiso 1 1 calc R U . . .
C10 C 0.1946(4) 0.6181(7) 1.0010(3) 0.0783(11) Uani 1 1 d . . . . .
H10 H 0.140592 0.741058 0.989250 0.094 Uiso 1 1 calc R U . . .
C11 C 0.2376(3) 0.4005(5) 0.7054(2) 0.0505(7) Uani 1 1 d . . . . .
C12 C 0.2636(4) 0.2221(5) 0.6483(2) 0.0610(9) Uani 1 1 d . . . . .
H12 H 0.186116 0.133759 0.627086 0.073 Uiso 1 1 calc R U . . .
C13 C 0.4027(4) 0.1704(6) 0.6215(2) 0.0642(9) Uani 1 1 d . . . . .
H13 H 0.418307 0.048086 0.583540 0.077 Uiso 1 1 calc R U . . .
C14 C 0.5174(3) 0.3029(6) 0.6518(2) 0.0578(8) Uani 1 1 d . . . . .
C15 C 0.4921(3) 0.4850(6) 0.7076(2) 0.0597(9) Uani 1 1 d . . . . .
H15 H 0.568975 0.575463 0.727232 0.072 Uiso 1 1 calc R U . . .
C16 C 0.3539(3) 0.5330(5) 0.7342(2) 0.0563(8) Uani 1 1 d . . . . .
H16 H 0.338270 0.655588 0.771926 0.068 Uiso 1 1 calc R U . . .
C17 C 0.6920(4) 0.0821(8) 0.5758(3) 0.0962(14) Uani 1 1 d . . . . .
H17A H 0.794533 0.078260 0.566531 0.144 Uiso 1 1 calc R U . . .
H17B H 0.665863 -0.038874 0.615774 0.144 Uiso 1 1 calc R U . . .
H17C H 0.638164 0.080665 0.507985 0.144 Uiso 1 1 calc R U . . .
O1 O 0.6586(2) 0.2691(5) 0.63099(19) 0.0802(8) Uani 1 1 d . . . . .
F1 F -0.0125(2) 0.5241(4) 0.56180(15) 0.0978(8) Uani 1 1 d . . . . .
F2 F -0.1250(2) 0.6538(4) 0.68716(18) 0.1023(8) Uani 1 1 d . . . . .
F3 F 0.0783(3) 0.7835(4) 0.6508(2) 0.1043(8) Uani 1 1 d . . . . .
loop_
_atom_site_aniso_label
_atom_site_aniso_U_11
_atom_site_aniso_U_22
_atom_site_aniso_U_33
_atom_site_aniso_U_23
_atom_site_aniso_U_13
_atom_site_aniso_U_12
C1 0.058(2) 0.076(3) 0.076(2) 0.005(2) -0.0089(17) -0.003(2)
C2 0.0504(17) 0.061(2) 0.0576(17) 0.0015(16) 0.0015(14) -0.0111(17)
C3 0.061(2) 0.083(3) 0.077(2) 0.008(2) 0.0050(17) -0.018(2)
C4 0.0578(18) 0.076(2) 0.0624(19) 0.0008(18) 0.0113(16) -0.0010(19)
C5 0.0571(19) 0.077(3) 0.0548(17) 0.0031(18) 0.0137(15) 0.0010(19)
C6 0.103(3) 0.081(3) 0.063(2) 0.003(2) 0.002(2) 0.008(3)
C7 0.108(3) 0.097(3) 0.072(2) 0.015(2) 0.001(2) 0.025(3)
C8 0.083(3) 0.130(4) 0.062(2) 0.007(3) 0.001(2) 0.010(3)
C9 0.091(3) 0.111(4) 0.065(2) -0.018(2) 0.000(2) 0.002(3)
C10 0.076(2) 0.090(3) 0.070(2) -0.010(2) 0.0133(19) 0.014(2)
C11 0.0498(17) 0.0545(19) 0.0465(15) 0.0027(15) -0.0014(13) -0.0079(16)
C12 0.062(2) 0.057(2) 0.0626(19) -0.0064(17) -0.0038(16) -0.0162(17)
C13 0.070(2) 0.059(2) 0.063(2) -0.0082(17) 0.0008(17) 0.0014(18)
C14 0.0540(19) 0.072(2) 0.0458(16) -0.0032(17) -0.0032(14) 0.0017(18)
C15 0.0506(17) 0.071(2) 0.0571(17) -0.0142(18) -0.0021(14) -0.0130(17)
C16 0.0531(18) 0.061(2) 0.0547(16) -0.0119(16) 0.0003(14) -0.0076(16)
C17 0.082(3) 0.114(4) 0.093(3) -0.027(3) 0.010(2) 0.030(3)
O1 0.0549(14) 0.107(2) 0.0782(15) -0.0276(15) 0.0001(12) 0.0071(14)
F1 0.0979(15) 0.123(2) 0.0678(12) 0.0055(14) -0.0219(11) 0.0010(15)
F2 0.0637(13) 0.123(2) 0.1188(18) 0.0163(15) -0.0019(12) 0.0219(13)
F3 0.0932(15) 0.0726(14) 0.1422(19) 0.0334(14) -0.0227(14) -0.0131(13)
loop_
_atom_type_symbol
_atom_type_description
_atom_type_scat_dispersion_real
_atom_type_scat_dispersion_imag
_atom_type_scat_source
C C 0.0033 0.0016 'International Tables Vol C Tables 4.2.6.8 and 6.1.1.4'
H H 0.0000 0.0000 'International Tables Vol C Tables 4.2.6.8 and 6.1.1.4'
O O 0.0106 0.0060 'International Tables Vol C Tables 4.2.6.8 and 6.1.1.4'
F F 0.0171 0.0103 'International Tables Vol C Tables 4.2.6.8 and 6.1.1.4'
loop_
_geom_angle_atom_site_label_1
_geom_angle_atom_site_label_2
_geom_angle_atom_site_label_3
_geom_angle
_geom_angle_site_symmetry_1
_geom_angle_site_symmetry_3
_geom_angle_publ_flag
F1 C1 F3 106.2(3) . . ?
F1 C1 F2 105.9(3) . . ?
F3 C1 F2 105.1(3) . . ?
F1 C1 C2 112.7(3) . . ?
F3 C1 C2 112.9(3) . . ?
F2 C1 C2 113.4(3) . . ?
C1 C2 C3 116.6(3) . . ?
C1 C2 C11 113.7(3) . . ?
C3 C2 C11 119.8(3) . . ?
C1 C2 C4 116.2(3) . . ?
C3 C2 C4 59.6(2) . . ?
C11 C2 C4 120.7(2) . . ?
C2 C3 C4 61.3(2) . . ?
C2 C3 H3A 117.6 . . ?
C4 C3 H3A 117.6 . . ?
C2 C3 H3B 117.6 . . ?
C4 C3 H3B 117.6 . . ?
H3A C3 H3B 114.7 . . ?
C5 C4 C3 123.7(3) . . ?
C5 C4 C2 121.6(3) . . ?
C3 C4 C2 59.1(2) . . ?
C5 C4 H4 113.9 . . ?
C3 C4 H4 113.9 . . ?
C2 C4 H4 113.9 . . ?
C6 C5 C10 117.5(3) . . ?
C6 C5 C4 124.1(3) . . ?
C10 C5 C4 118.4(3) . . ?
C5 C6 C7 121.7(4) . . ?
C5 C6 H6 119.1 . . ?
C7 C6 H6 119.1 . . ?
C8 C7 C6 119.9(4) . . ?
C8 C7 H7 120.0 . . ?
C6 C7 H7 120.0 . . ?
C9 C8 C7 119.2(4) . . ?
C9 C8 H8 120.4 . . ?
C7 C8 H8 120.4 . . ?
C8 C9 C10 120.3(4) . . ?
C8 C9 H9 119.9 . . ?
C10 C9 H9 119.9 . . ?
C5 C10 C9 121.3(4) . . ?
C5 C10 H10 119.3 . . ?
C9 C10 H10 119.3 . . ?
C12 C11 C16 118.4(3) . . ?
C12 C11 C2 120.3(3) . . ?
C16 C11 C2 121.3(3) . . ?
C11 C12 C13 121.6(3) . . ?
C11 C12 H12 119.2 . . ?
C13 C12 H12 119.2 . . ?
C14 C13 C12 119.2(3) . . ?
C14 C13 H13 120.4 . . ?
C12 C13 H13 120.4 . . ?
O1 C14 C13 124.8(3) . . ?
O1 C14 C15 115.6(3) . . ?
C13 C14 C15 119.6(3) . . ?
C16 C15 C14 120.4(3) . . ?
C16 C15 H15 119.8 . . ?
C14 C15 H15 119.8 . . ?
C15 C16 C11 120.7(3) . . ?
C15 C16 H16 119.7 . . ?
C11 C16 H16 119.7 . . ?
O1 C17 H17A 109.5 . . ?
O1 C17 H17B 109.5 . . ?
H17A C17 H17B 109.5 . . ?
O1 C17 H17C 109.5 . . ?
H17A C17 H17C 109.5 . . ?
H17B C17 H17C 109.5 . . ?
C14 O1 C17 118.2(3) . . ?
loop_
_geom_bond_atom_site_label_1
_geom_bond_atom_site_label_2
_geom_bond_distance
_geom_bond_site_symmetry_2
_geom_bond_publ_flag
C1 F1 1.326(4) . ?
C1 F3 1.335(4) . ?
C1 F2 1.342(4) . ?
C1 C2 1.480(4) . ?
C2 C3 1.494(5) . ?
C2 C11 1.504(4) . ?
C2 C4 1.526(4) . ?
C3 C4 1.502(5) . ?
C3 H3A 0.9700 . ?
C3 H3B 0.9700 . ?
C4 C5 1.484(4) . ?
C4 H4 0.9800 . ?
C5 C6 1.367(5) . ?
C5 C10 1.373(5) . ?
C6 C7 1.386(5) . ?
C6 H6 0.9300 . ?
C7 C8 1.370(6) . ?
C7 H7 0.9300 . ?
C8 C9 1.360(6) . ?
C8 H8 0.9300 . ?
C9 C10 1.389(5) . ?
C9 H9 0.9300 . ?
C10 H10 0.9300 . ?
C11 C12 1.374(4) . ?
C11 C16 1.387(4) . ?
C12 C13 1.388(4) . ?
C12 H12 0.9300 . ?
C13 C14 1.381(4) . ?
C13 H13 0.9300 . ?
C14 O1 1.362(3) . ?
C14 C15 1.383(5) . ?
C15 C16 1.374(4) . ?
C15 H15 0.9300 . ?
C16 H16 0.9300 . ?
C17 O1 1.422(5) . ?
C17 H17A 0.9600 . ?
C17 H17B 0.9600 . ?
C17 H17C 0.9600 . ?
loop_
_geom_torsion_atom_site_label_1
_geom_torsion_atom_site_label_2
_geom_torsion_atom_site_label_3
_geom_torsion_atom_site_label_4
_geom_torsion
_geom_torsion_site_symmetry_1
_geom_torsion_site_symmetry_2
_geom_torsion_site_symmetry_3
_geom_torsion_site_symmetry_4
_geom_torsion_publ_flag
F1 C1 C2 C3 -83.0(4) . . . . ?
F3 C1 C2 C3 156.6(3) . . . . ?
F2 C1 C2 C3 37.2(4) . . . . ?
F1 C1 C2 C11 62.8(4) . . . . ?
F3 C1 C2 C11 -57.6(4) . . . . ?
F2 C1 C2 C11 -177.0(3) . . . . ?
F1 C1 C2 C4 -150.4(3) . . . . ?
F3 C1 C2 C4 89.2(4) . . . . ?
F2 C1 C2 C4 -30.2(4) . . . . ?
C1 C2 C3 C4 -106.2(3) . . . . ?
C11 C2 C3 C4 110.2(3) . . . . ?
C2 C3 C4 C5 -109.6(3) . . . . ?
C1 C2 C4 C5 -140.1(3) . . . . ?
C3 C2 C4 C5 113.0(4) . . . . ?
C11 C2 C4 C5 4.2(5) . . . . ?
C1 C2 C4 C3 106.9(3) . . . . ?
C11 C2 C4 C3 -108.8(4) . . . . ?
C3 C4 C5 C6 8.3(5) . . . . ?
C2 C4 C5 C6 -63.4(5) . . . . ?
C3 C4 C5 C10 -172.5(3) . . . . ?
C2 C4 C5 C10 115.8(4) . . . . ?
C10 C5 C6 C7 -0.6(6) . . . . ?
C4 C5 C6 C7 178.6(3) . . . . ?
C5 C6 C7 C8 0.2(6) . . . . ?
C6 C7 C8 C9 0.2(7) . . . . ?
C7 C8 C9 C10 -0.1(6) . . . . ?
C6 C5 C10 C9 0.7(5) . . . . ?
C4 C5 C10 C9 -178.5(3) . . . . ?
C8 C9 C10 C5 -0.4(6) . . . . ?
C1 C2 C11 C12 -95.9(4) . . . . ?
C3 C2 C11 C12 48.7(4) . . . . ?
C4 C2 C11 C12 118.9(3) . . . . ?
C1 C2 C11 C16 82.6(4) . . . . ?
C3 C2 C11 C16 -132.8(3) . . . . ?
C4 C2 C11 C16 -62.5(4) . . . . ?
C16 C11 C12 C13 1.5(4) . . . . ?
C2 C11 C12 C13 -179.9(3) . . . . ?
C11 C12 C13 C14 -0.8(5) . . . . ?
C12 C13 C14 O1 179.6(3) . . . . ?
C12 C13 C14 C15 -0.4(5) . . . . ?
O1 C14 C15 C16 -179.1(3) . . . . ?
C13 C14 C15 C16 0.9(5) . . . . ?
C14 C15 C16 C11 -0.2(5) . . . . ?
C12 C11 C16 C15 -1.0(4) . . . . ?
C2 C11 C16 C15 -179.5(3) . . . . ?
C13 C14 O1 C17 -1.3(5) . . . . ?
C15 C14 O1 C17 178.7(3) . . . . ?
