#------------------------------------------------------------------------------
#$Date: 2021-05-01 00:27:08 +0300 (Sat, 01 May 2021) $
#$Revision: 264730 $
#$URL: file:///home/coder/svn-repositories/cod/cif/4/51/86/4518647.cif $
#------------------------------------------------------------------------------
#
# This file is available in the Crystallography Open Database (COD),
# http://www.crystallography.net/
#
# All data on this site have been placed in the public domain by the
# contributors.
#
data_4518647
loop_
_publ_author_name
'Yang, Feng'
'Xu, Yuangang'
'Wang, Pengcheng'
'Lin, Qiuhan'
'Lu, Ming'
_publ_section_title
;
 Oxygen-Enriched Metal--Organic Frameworks Based on
 1-(Trinitromethyl)-1H-1,2,4-Triazole-3-Carboxylic Acid and Their Thermal
 Decomposition and Effects on the Decomposition of Ammonium Perchlorate
;
_journal_name_full               'ACS Applied Materials &amp; Interfaces'
_journal_paper_doi               10.1021/acsami.1c03110
_journal_year                    2021
_chemical_formula_moiety         'C4 H Ag N6 O8'
_chemical_formula_sum            'C4 H Ag N6 O8'
_chemical_formula_weight         368.98
_space_group_crystal_system      triclinic
_space_group_IT_number           2
_space_group_name_Hall           '-P 1'
_space_group_name_H-M_alt        'P -1'
_atom_sites_solution_hydrogens   geom
_audit_creation_method           SHELXL-2018/3
_cell_angle_alpha                98.325(2)
_cell_angle_beta                 92.112(2)
_cell_angle_gamma                116.292(2)
_cell_formula_units_Z            2
_cell_length_a                   5.7421(5)
_cell_length_b                   6.0539(5)
_cell_length_c                   15.4130(11)
_cell_measurement_reflns_used    4819
_cell_measurement_temperature    296(2)
_cell_measurement_theta_max      27.53
_cell_measurement_theta_min      2.69
_cell_volume                     472.21(7)
_computing_cell_refinement       'Bruker SAINT'
_computing_data_collection       'Bruker APEX3'
_computing_data_reduction        'Bruker SAINT'
_computing_molecular_graphics    'Bruker SHELXTL'
_computing_publication_material  'Bruker SHELXTL'
_computing_structure_refinement  'SHELXL-2018/3 (Sheldrick, 2018)'
_computing_structure_solution    'SHELXT 2014/5 (Sheldrick, 2014)'
_diffrn_ambient_temperature      296(2)
_diffrn_detector_area_resol_mean 10.42
_diffrn_measured_fraction_theta_full 0.996
_diffrn_measured_fraction_theta_max 0.995
_diffrn_measurement_device_type  'Bruker D8 QUEST PHOTON 100'
_diffrn_measurement_method       '\f and \w scans'
_diffrn_radiation_type           MoK\a
_diffrn_radiation_wavelength     0.71073
_diffrn_reflns_av_R_equivalents  0.0343
_diffrn_reflns_av_unetI/netI     0.0354
_diffrn_reflns_Laue_measured_fraction_full 0.996
_diffrn_reflns_Laue_measured_fraction_max 0.995
_diffrn_reflns_limit_h_max       7
_diffrn_reflns_limit_h_min       -7
_diffrn_reflns_limit_k_max       7
_diffrn_reflns_limit_k_min       -7
_diffrn_reflns_limit_l_max       20
_diffrn_reflns_limit_l_min       -19
_diffrn_reflns_number            6902
_diffrn_reflns_point_group_measured_fraction_full 0.996
_diffrn_reflns_point_group_measured_fraction_max 0.995
_diffrn_reflns_theta_full        25.242
_diffrn_reflns_theta_max         27.584
_diffrn_reflns_theta_min         2.689
_diffrn_source.source            'Ius 2.0'
_diffrn_source.type              microfocus
_exptl_absorpt_coefficient_mu    2.196
_exptl_absorpt_correction_T_max  0.7456
_exptl_absorpt_correction_T_min  0.5369
_exptl_absorpt_correction_type   multi-scan
_exptl_absorpt_process_details   sadabs
_exptl_crystal_colour            colourless
_exptl_crystal_density_diffrn    2.595
_exptl_crystal_description       plate
_exptl_crystal_F_000             356
_exptl_crystal_size_max          0.060
_exptl_crystal_size_mid          0.050
_exptl_crystal_size_min          0.010
_refine_diff_density_max         0.946
_refine_diff_density_min         -1.158
_refine_diff_density_rms         0.127
_refine_ls_extinction_method     none
_refine_ls_goodness_of_fit_ref   1.061
_refine_ls_hydrogen_treatment    constr
_refine_ls_matrix_type           full
_refine_ls_number_parameters     228
_refine_ls_number_reflns         2178
_refine_ls_number_restraints     214
_refine_ls_restrained_S_all      1.102
_refine_ls_R_factor_all          0.0469
_refine_ls_R_factor_gt           0.0401
_refine_ls_shift/su_max          0.002
_refine_ls_shift/su_mean         0.000
_refine_ls_structure_factor_coef Fsqd
_refine_ls_weighting_details
'w=1/[\s^2^(Fo^2^)+(0.0530P)^2^+1.2689P] where P=(Fo^2^+2Fc^2^)/3'
_refine_ls_weighting_scheme      calc
_refine_ls_wR_factor_gt          0.1029
_refine_ls_wR_factor_ref         0.1072
_reflns_Friedel_coverage         0.000
_reflns_number_gt                1916
_reflns_number_total             2178
_reflns_threshold_expression     'I > 2\s(I)'
_cod_data_source_file            am1c03110_si_003.cif
_cod_data_source_block           YF_035_a
_cod_database_code               4518647
_shelx_shelxl_version_number     2018/3
_shelx_space_group_comment
;
The symmetry employed for this shelxl refinement is uniquely defined
by the following loop, which should always be used as a source of
symmetry information in preference to the above space-group names.
They are only intended as comments.
;
_shelx_estimated_absorpt_t_min   0.880
_shelx_estimated_absorpt_t_max   0.978
_shelx_res_file
;
TITL YF_035_a.res in P-1
    YF_035_a.res
    created by SHELXL-2018/3 at 21:10:12 on 22-Oct-2020
CELL 0.71073 5.7421 6.0539 15.413 98.325 92.112 116.292
ZERR 2 0.0005 0.0005 0.0011 0.002 0.002 0.002
LATT 1
SFAC C  H  N  O  Ag
UNIT 8  2  12  16  2
OMIT 0 0 1

L.S. 10
ACTA
BOND $H
FMAP 2
PLAN 5
dang 2.35 o3a c4 o4a c4 o3b c4 o4b c4
dang 2.15 o3a o4a o3b o4b
SIZE 0.06 0.05 0.01
CONF
dang 2.35 o7a c4 o8a c4 o7b c4 o8b c4
dang 2.15 o7a o8a o7b o8b
DFIX 1.20 N6A O7A N6A O8A N6B O7B N6B O8B
DFIX 1.55 0.01 C4 N6A C4 N6B
FLAT C4 O7A O8A N6A
FLAT C4 O7B O8B N6B
DELU 0.005 N6A O7A O8A N6B O7B O8B C4
SIMU 0.005 N6A O7A O8A N6B O7B O8B C4
DFIX 1.20 N4A O3A N4A O4A N4B O3B N4B O4B
DFIX 1.55 0.01 C4 N4A C4 N4B
FLAT C4 O3A O4A N4A
FLAT C4 O3B O4B N4B
DELU 0.005 N4A O3A O4A N4B O3B O4B C4
SIMU 0.005 N4A O3A O4A N4B O3B O4B C4
TEMP 23
HTAB
WGHT    0.053000    1.268900
FVAR       0.75634   0.37891   0.51448
AG1   5    0.804966    0.138034    0.531986    11.00000    0.04521    0.03445 =
         0.03897    0.01556   -0.01123    0.00763
C1    1    0.594368    0.567273    0.358707    11.00000    0.01835    0.02499 =
         0.02573    0.00228    0.00237    0.01005
C2    1    0.765787    0.927643    0.323516    11.00000    0.02222    0.02351 =
         0.02748    0.00194    0.00057    0.00516
AFIX  43
H2    2    0.869023    1.096462    0.322477    11.00000   -1.20000
AFIX   0
C3    1    0.558377    0.359575    0.407774    11.00000    0.02601    0.02691 =
         0.02584    0.00509    0.00134    0.01320
C4    1    0.464971    0.790448    0.180262    11.00000    0.02403    0.02580 =
         0.03140    0.00607   -0.00302    0.01032
N1    3    0.570381    0.761248    0.259536    11.00000    0.02127    0.02053 =
         0.02966    0.00646   -0.00113    0.00842
N2    3    0.459410    0.529388    0.282482    11.00000    0.02663    0.02069 =
         0.03115    0.00683    0.00051    0.00877
N3    3    0.783143    0.810645    0.385942    11.00000    0.02443    0.02654 =
         0.02391    0.00182    0.00035    0.00358
N5    3    0.389940    0.555714    0.109523    11.00000    0.03475    0.03283 =
         0.02553    0.00716    0.00367    0.01264
O1    4    0.731871    0.417965    0.470475    11.00000    0.03570    0.03362 =
         0.04347    0.01098   -0.00955    0.01500
O2    4    0.369564    0.153112    0.379971    11.00000    0.04049    0.02898 =
         0.03700    0.01412   -0.00608    0.00340
PART 1  21.00
N4A   3    0.643096    1.008541    0.134129    21.00000    0.02220    0.02893 =
         0.02463    0.01042   -0.00594    0.00751
O3A   4    0.719622    1.169690    0.179007    21.00000    0.04209    0.03938 =
         0.03500    0.01404   -0.01566    0.00456
O4A   4    0.625621    0.943640    0.053948    21.00000    0.04894    0.03723 =
         0.03323    0.00608   -0.01368   -0.00902
PART 2  -21.00
N4B   3    0.662560    1.036313    0.146668   -21.00000    0.01722    0.02098 =
         0.02119    0.00618   -0.00816    0.00434
O3B   4    0.773707    1.216178    0.202121   -21.00000    0.04993    0.03020 =
         0.04407    0.00053   -0.02537   -0.00359
O4B   4    0.689030    0.998137    0.070998   -21.00000    0.04983    0.04377 =
         0.03803    0.00535   -0.01250   -0.00750
PART 0
O5    4    0.173350    0.461535    0.070985    11.00000    0.03919    0.05997 =
         0.04188   -0.00933   -0.00756    0.00967
O6    4    0.561857    0.495278    0.098686    11.00000    0.06126    0.05281 =
         0.03992    0.00516    0.00639    0.03769
part  1 31
N6A   3    0.203037    0.807216    0.185889    31.00000    0.02694    0.03366 =
         0.03644   -0.00345   -0.01084    0.01484
O7A   4    0.155255    0.923477    0.136412    31.00000    0.04162    0.04359 =
         0.05293   -0.00220   -0.02986    0.02125
O8A   4    0.065727    0.687935    0.236708    31.00000    0.02523    0.04821 =
         0.03458   -0.00766   -0.00413    0.01502
part  2 -31
N6B   3    0.218194    0.826021    0.199268   -31.00000    0.02667    0.03248 =
         0.03693   -0.00193   -0.01035    0.01618
O7B   4    0.186148    0.975892    0.163404   -31.00000    0.04398    0.04020 =
         0.04947   -0.00365   -0.02545    0.02379
O8B   4    0.092886    0.714509    0.252338   -31.00000    0.02691    0.04435 =
         0.03455   -0.00747   -0.00123    0.01541
part  0
HKLF 4




REM  YF_035_a.res in P-1
REM wR2 = 0.1072, GooF = S = 1.061, Restrained GooF = 1.102 for all data
REM R1 = 0.0401 for 1916 Fo > 4sig(Fo) and 0.0469 for all 2178 data
REM 228 parameters refined using 214 restraints

END

WGHT      0.0531      1.2633

REM Instructions for potential hydrogen bonds
HTAB C2 O3B

REM Highest difference peak  0.946,  deepest hole -1.158,  1-sigma level  0.127
Q1    1   0.9048  0.0899  0.5110  11.00000  0.05    0.95
Q2    1   0.8041  0.6232  0.5299  11.00000  0.05    0.87
Q3    1   0.8001  0.3168  0.5289  11.00000  0.05    0.79
Q4    1   0.8099 -0.0217  0.5283  11.00000  0.05    0.77
Q5    1   0.8016  0.4733  0.5331  11.00000  0.05    0.76
;
_shelx_res_checksum              17
_shelx_hkl_file
;
  -1   0   0  780.72   40.10
   1   0   0  834.02   40.00
   1   0   0  804.62   40.00
   1   0   0  789.82   40.20
   1   0   0  813.82   39.80
   1   0   0  766.82   39.80
  -2   0   0 2998.40  152.78
   2   0   0 3032.00  152.48
   2   0   0 3005.40  152.88
   2   0   0 3088.49  152.08
   2   0   0 3239.48  152.58
   2   0   0 2971.30  152.08
  -3   0   0 1798.92   91.89
   3   0   0 1848.32   91.59
   3   0   0 1810.62   90.79
   3   0   0 1823.72   90.89
   3   0   0 1811.52   91.49
   3   0   0 1822.92   91.99
   4   0   0   16.00    3.20
   4   0   0   15.70    2.80
   4   0   0   14.30    1.70
   4   0   0   13.60    3.50
   4   0   0   15.40    2.10
   4   0   0    7.40    2.30
   5   0   0  519.05   28.40
   5   0   0  522.85   28.40
   5   0   0  612.64   29.90
   5   0   0  573.04   30.80
   6   0   0    5.00    5.70
   6   0   0    3.20    4.40
   7  -1   0  126.99   15.90
   7  -1   0  145.89   12.80
   6  -1   0   20.40    4.90
   6  -1   0   21.70    3.20
   6  -1   0   24.10    6.10
   5  -1   0   46.00    6.10
   5  -1   0   55.89    4.20
   5  -1   0   51.69    4.20
   4  -1   0  330.07   17.50
   4  -1   0  348.27   19.30
   4  -1   0  328.47   18.20
   4  -1   0  341.97   18.30
   4  -1   0  330.97   17.40
  -4   1   0  339.97   19.10
   3  -1   0    9.50    2.20
   3  -1   0   12.40    1.60
   3  -1   0   12.10    1.80
  -3   1   0   11.20    1.50
  -3   1   0   10.80    2.40
  -3   1   0   11.20    1.70
   2  -1   0 7897.51  393.16
  -2   1   0 7885.71  393.06
   1  -1   0  454.15   24.10
   1  -1   0  476.25   23.90
   1  -1   0  501.25   23.80
  -1   1   0  464.15   24.10
  -1   1   0  473.55   23.80
  -1   1   0  473.35   23.90
   0  -1   0 1171.08   56.39
   0   1   0 1003.00   56.09
   0   1   0 1210.08   56.39
   1   1   0 5593.34  278.27
  -2  -1   0  108.59    5.90
  -2  -1   0  108.89    6.30
   2   1   0   99.19    6.70
   2   1   0  107.99    6.40
   2   1   0  108.89    5.90
   2   1   0  103.49    6.10
  -3  -1   0  486.45   25.70
   3   1   0  511.25   26.20
   3   1   0  521.35   26.50
   3   1   0  499.75   25.60
   3   1   0  517.05   26.50
   3   1   0  476.65   26.20
   4   1   0  125.39    9.00
   4   1   0  113.99    9.00
   4   1   0  125.09    7.40
   4   1   0  132.89    8.30
   4   1   0  135.79    7.40
   5   1   0   71.69    7.30
   5   1   0   73.09    5.30
   5   1   0   76.19    8.40
   6   1   0   86.69   11.10
   6   1   0   71.39    9.60
   7  -2   0   17.00    8.30
   7  -2   0   21.10    6.30
   6  -2   0   53.19    6.80
   6  -2   0   52.29    7.50
   6  -2   0   43.20    5.20
   5  -2   0   49.90    6.90
   5  -2   0   53.39    4.50
  -5   2   0   55.89    4.20
   4  -2   0  419.76   21.80
   4  -2   0  418.06   23.40
   4  -2   0  418.96   22.20
  -4   2   0  428.06   22.40
  -4   2   0  409.86   23.20
  -4   2   0  421.16   21.60
   3  -2   0 1009.20   52.09
   3  -2   0 1023.30   51.09
   3  -2   0 1029.80   50.99
  -3   2   0  992.80   51.29
  -3   2   0 1015.00   50.89
  -3   2   0  995.20   51.99
   2  -2   0 1892.21   97.69
   2  -2   0 1914.11   97.19
   2  -2   0 2146.19   97.09
  -2   2   0 1847.42   97.09
  -2   2   0 1911.91   97.69
   1  -2   0 3379.56  170.48
   1  -2   0 3395.86  170.48
  -1   2   0 3475.35  170.48
  -1   2   0 3423.56  170.48
   0  -2   0  144.89    6.90
   0  -2   0  132.39    7.20
   0   2   0  131.19    7.30
   0   2   0  114.49    6.80
  -1  -2   0  372.96   19.80
  -1  -2   0  382.46   19.90
   1   2   0  388.66   19.70
   1   2   0  395.26   19.90
  -2  -2   0 1012.10   51.89
  -2  -2   0  990.70   52.29
   2   2   0 1068.09   52.09
   2   2   0 1049.40   51.99
  -3  -2   0   53.49    5.30
  -3  -2   0   55.19    4.30
   3   2   0   56.89    4.90
   3   2   0   55.89    4.80
   3   2   0   64.99    4.40
   3   2   0   64.69    4.70
  -4  -2   0  413.66   23.00
   4   2   0  442.66   23.60
   4   2   0  424.46   23.50
   4   2   0  429.26   23.00
   4   2   0  482.05   23.80
   5   2   0   38.00    5.20
   5   2   0   45.00    5.90
   7  -3   0    8.30    5.50
   7  -3   0   -9.60    7.30
   6  -3   0   17.50    3.40
   6  -3   0   23.80    5.90
  -6   3   0   11.50    4.10
  -6   3   0   12.50    3.20
   5  -3   0  407.16   20.70
  -5   3   0  369.76   20.30
  -5   3   0  381.56   21.30
   4  -3   0   15.90    3.70
   4  -3   0   20.30    3.10
   4  -3   0   21.60    3.00
  -4   3   0   19.10    2.70
  -4   3   0   21.00    2.80
  -4   3   0   14.60    3.70
   3  -3   0 1663.33   84.99
   3  -3   0 1641.14   85.79
   3  -3   0 1825.42   84.79
  -3   3   0 1718.03   84.99
  -3   3   0 1667.53   85.79
  -3   3   0 1621.74   84.99
   2  -3   0  492.25   26.90
   2  -3   0  550.84   26.10
   2  -3   0  513.45   26.70
  -2   3   0  514.25   27.00
  -2   3   0  508.55   26.30
  -2   3   0  513.45   26.70
   1  -3   0  456.85   24.40
   1  -3   0  467.95   24.60
  -1   3   0  510.65   23.90
  -1   3   0  467.25   24.60
  -1   3   0  466.75   24.40
   0  -3   0 3023.30  141.29
   0  -3   0 2820.12  141.59
   0   3   0 2594.24  140.89
   0   3   0 2883.21  141.59
  -1  -3   0  261.77   14.30
  -1  -3   0  268.37   14.30
   1   3   0  266.97   14.00
   1   3   0  271.97   14.50
  -2  -3   0  461.75   25.10
  -2  -3   0  471.75   24.70
   2   3   0  476.75   24.90
   2   3   0  495.15   24.70
  -3  -3   0  275.97   15.00
   3   3   0  286.57   15.10
   3   3   0  259.77   15.20
  -4  -3   0   89.49    7.80
   4   3   0  104.49    7.60
   7  -4   0   18.30    8.30
   7  -4   0   21.50    6.00
  -7   4   0   21.20    4.80
   6  -4   0    2.50    3.50
   6  -4   0    9.90    5.60
  -6   4   0    0.20    3.30
   5  -4   0   37.40    9.20
   5  -4   0   32.50    4.00
  -5   4   0   43.70    5.60
   4  -4   0  150.28   10.30
   4  -4   0  122.59    8.40
   4  -4   0  159.38    9.10
  -4   4   0  130.89   10.20
  -4   4   0  147.29    8.90
  -4   4   0  154.28    8.90
   3  -4   0    5.50    1.40
   3  -4   0    0.20    2.50
   3  -4   0    2.70    1.70
  -3   4   0    4.00    2.60
  -3   4   0    2.10    2.00
  -3   4   0    2.50    1.40
   2  -4   0  770.62   39.40
   2  -4   0  794.42   39.40
   2  -4   0  719.83   38.30
  -2   4   0  788.72   38.70
  -2   4   0  739.73   39.30
  -2   4   0  769.32   39.40
   1  -4   0   48.90    4.00
   1  -4   0   45.40    3.20
  -1   4   0   36.50    4.10
  -1   4   0   49.90    3.00
   0  -4   0  312.07   16.60
   0  -4   0  307.77   17.10
   0   4   0  293.57   17.10
   0   4   0  339.57   16.00
  -1  -4   0  398.96   21.00
  -1  -4   0  415.26   21.00
   1   4   0  377.26   21.10
   1   4   0  382.26   20.40
  -2  -4   0  192.38   10.90
   2   4   0  181.98   10.40
  -3  -4   0  267.87   14.90
   3   4   0  252.77   14.40
   7  -5   0    6.60    5.40
   7  -5   0    8.40    7.90
  -7   5   0    2.30    4.70
   6  -5   0   42.00    5.60
   6  -5   0   46.00    7.90
  -6   5   0   33.50    5.30
  -5   5   0    9.30    3.10
   4  -5   0  253.27   15.60
   4  -5   0  243.98   14.50
  -4   5   0  245.18   14.20
   3  -5   0   -1.60    1.60
   3  -5   0    2.20    2.80
   3  -5   0    0.30    2.10
  -3   5   0    3.10    1.80
   2  -5   0  164.28    9.70
   2  -5   0  142.89    9.70
   2  -5   0  143.99    9.40
  -2   5   0  167.18    8.90
   1  -5   0  116.69    7.30
   1  -5   0  119.09    8.20
  -1   5   0  131.29    7.00
   0  -5   0    1.00    2.70
   0  -5   0    5.00    2.30
   0   5   0    1.30    1.20
  -1  -5   0  371.36   20.30
   1   5   0  367.66   19.00
   2   5   0   79.39    6.00
   6  -6   0   76.39    9.70
   6  -6   0   86.89   13.30
  -6   6   0   88.09    9.00
   5  -6   0   28.70    4.90
   5  -6   0   32.90    6.90
  -5   6   0   34.00    4.70
   4  -6   0   50.69    8.00
   4  -6   0   46.10    6.50
  -4   6   0   59.59    6.30
   3  -6   0   98.89   10.10
   3  -6   0  130.99    9.50
  -3   6   0  142.59    8.40
   2  -6   0   20.40    3.90
  -2   6   0   19.70    2.90
   1  -6   0  158.38   11.30
  -1   6   0  181.18    9.70
   0  -6   0   43.90    6.40
   0   6   0   61.99    4.30
  -1  -6   0   44.90    5.90
   1   6   0   55.09    4.00
   5  -7   0   10.50    5.50
   5  -7   0   19.90    7.20
  -5   7   0   13.00    4.70
   4  -7   0    6.90    4.90
   4  -7   0    3.00    5.20
  -4   7   0    1.00    4.00
   3  -7   0   47.60    6.20
   3  -7   0   37.20    6.30
  -3   7   0   49.70    6.20
   2  -7   0   30.40    5.20
  -2   7   0   36.00    4.30
   1  -7   0   30.70    5.30
  -1   7   0   35.40    4.10
   0   7  -1  129.69    8.10
   0  -7   1  119.89   10.90
  -1   7  -1  153.48    9.40
   1  -7   1  136.99   11.30
  -2   7  -1   37.60    5.70
   2  -7   1   43.50    5.70
  -3   7  -1  173.38   11.10
   3  -7   1  162.78   11.50
   3  -7   1  163.18   12.00
  -4   7  -1   -1.40    3.50
   4  -7   1    1.10    4.30
   4  -7   1   -3.60    5.20
  -5   7  -1   80.59    9.20
   5  -7   1   76.79   12.30
   5  -7   1   75.39    9.50
  -6   7  -1   21.00    5.50
   6  -7   1   29.00    9.60
   6  -7   1   15.10    6.70
   1   6  -1  177.58    9.30
  -1  -6   1  150.48   11.20
   0   6  -1    6.50    1.80
   0  -6   1    2.70    3.10
  -1   6  -1  467.95   24.60
   1  -6   1  466.45   25.60
  -2   6  -1   82.39    5.80
   2  -6   1   73.99    6.30
   2  -6   1   76.79    9.40
   2  -6   1   75.49    6.00
  -3   6  -1  300.37   18.30
   3  -6   1  355.66   18.60
   3  -6   1  291.67   18.40
  -4   6  -1  212.98   12.80
   4  -6   1  208.78   13.20
   4  -6   1  197.28   14.20
  -5   6  -1   39.10    5.20
   5  -6   1   41.90    5.60
   5  -6   1   46.60    7.40
  -6   6  -1  130.19   11.00
   6  -6   1  134.19   11.60
   6  -6   1  152.48   14.90
   3   5  -1   38.80    5.50
  -3  -5   1   49.00    9.00
   2   5  -1    8.10    2.50
   1   5  -1  426.96   21.80
  -1  -5   1  405.96   23.00
   0   5  -1    9.30    1.50
   0  -5   1    5.30    2.60
  -1   5  -1    1.70    1.30
   1  -5   1   -1.10    1.90
   1  -5   1    3.90    2.20
  -2   5  -1  660.13   32.00
   2  -5   1  585.34   32.40
   2  -5   1  635.54   32.90
   2  -5   1  613.64   32.50
  -3   5  -1    1.80    2.00
   3  -5   1    0.00    2.90
   3  -5   1   -0.70    3.10
   3  -5   1    1.50    2.20
   3  -5   1    1.10    2.30
  -4   5  -1  504.85   27.00
   4  -5   1  502.05   28.20
   4  -5   1  514.25   27.30
  -5   5  -1    8.80    3.20
   5  -5   1   12.00    3.50
  -6   5  -1    1.90    3.70
   6  -5   1    8.50    6.40
   6  -5   1   -1.00    4.20
  -7   5  -1  106.29   11.20
   7  -5   1  114.69   11.20
   7  -5   1  112.89   15.20
   4   4  -1    3.20    3.50
   3   4  -1  258.97   15.00
  -3  -4   1  284.57   15.40
   2   4  -1    6.20    3.40
   2   4  -1   17.00    2.20
  -2  -4   1   11.30    2.40
   1   4  -1   28.60    3.50
   1   4  -1   18.70    2.70
  -1  -4   1   28.50    3.40
  -1  -4   1   25.30    3.80
   0   4  -1 2122.99  108.99
   0   4  -1 2114.19  107.99
   0  -4   1 2258.87  108.69
   0  -4   1 2170.48  108.99
  -1   4  -1   77.29    5.40
  -1   4  -1   82.09    4.30
   1  -4   1   65.19    4.60
   1  -4   1   72.19    5.20
  -2   4  -1 1340.37   64.79
  -2   4  -1 1246.88   65.29
   2  -4   1 1291.07   65.39
   2  -4   1 1300.37   65.39
   2  -4   1 1320.27   65.49
   2  -4   1 1229.68   64.39
  -3   4  -1  155.68    9.30
  -3   4  -1  158.78    9.00
   3  -4   1  152.88    8.40
   3  -4   1  152.58   10.10
   3  -4   1  156.18    9.40
  -4   4  -1   12.10    2.40
  -4   4  -1    8.60    2.30
   4  -4   1    7.40    3.30
   4  -4   1    4.60    2.20
   4  -4   1   12.00    4.40
  -5   4  -1  336.47   20.00
   5  -4   1  355.86   19.00
   5  -4   1  334.47   22.40
  -6   4  -1   50.19    5.90
   6  -4   1   52.99    6.30
   6  -4   1   42.80    7.30
  -7   4  -1   32.10    5.60
   7  -4   1   30.80    5.50
   7  -4   1   41.90    9.20
   4   3  -1   89.89    7.00
  -4  -3   1   74.99    7.00
   3   3  -1   -1.30    2.60
   3   3  -1    4.40    2.00
  -3  -3   1    0.80    2.00
   2   3  -1  491.25   25.50
   2   3  -1  510.75   25.30
  -2  -3   1  463.15   25.80
  -2  -3   1  489.95   25.30
   1   3  -1  418.16   22.10
   1   3  -1  432.46   21.70
  -1  -3   1  420.86   22.00
  -1  -3   1  423.46   22.10
   0   3  -1 1173.28   59.19
   0   3  -1 1035.00   58.49
   0  -3   1 1295.47   58.89
   0  -3   1 1181.98   59.19
  -1   3  -1 2243.48  113.09
  -1   3  -1 2387.66  112.39
   1  -3   1 2196.18  112.89
   1  -3   1 2202.68  113.09
   1  -3   1 2248.18  112.79
  -2   3  -1  252.57   13.60
  -2   3  -1  258.27   13.30
  -2   3  -1  251.67   14.00
   2  -3   1  241.98   14.00
   2  -3   1  268.57   13.10
   2  -3   1  248.18   13.70
  -3   3  -1  727.73   39.50
  -3   3  -1  769.12   38.80
  -3   3  -1  775.72   38.80
   3  -3   1  755.42   39.80
   3  -3   1  771.42   38.90
   3  -3   1  753.32   38.40
  -4   3  -1  326.37   17.50
  -4   3  -1  332.27   18.10
  -4   3  -1  318.07   19.00
   4  -3   1  331.87   17.70
   4  -3   1  342.07   17.80
   4  -3   1  341.57   19.40
  -5   3  -1   77.29    5.60
   5  -3   1   79.59    5.90
  -6   3  -1   60.69    6.40
   6  -3   1   80.09   10.10
   6  -3   1   77.39    6.70
   7  -3   1    0.70    4.60
   7  -3   1   13.80    8.20
   7  -3   1   -4.60    5.10
   5   2  -1   23.10    4.60
   5   2  -1   22.00    4.50
   4   2  -1    2.80    2.40
   4   2  -1    2.60    2.50
   4   2  -1   -5.50    3.70
   4   2  -1   -1.20    2.80
   3   2  -1  259.27   13.70
   3   2  -1  243.88   13.20
   3   2  -1  252.47   13.80
   3   2  -1  254.37   13.50
  -3  -2   1  244.18   13.20
  -3  -2   1  221.38   14.00
   2   2  -1  205.78   11.00
   2   2  -1  203.28   10.90
  -2  -2   1  197.48   11.30
  -2  -2   1  201.38   10.70
   1   2  -1 1299.57   64.19
   1   2  -1 1249.47   64.49
  -1  -2   1 1291.87   64.39
  -1  -2   1 1278.07   64.19
   0   2  -1  409.56   21.50
   0  -2   1  441.86   21.40
   0  -2   1  410.96   21.60
  -1   2  -1  209.98   10.30
  -1   2  -1  195.88   10.70
   1  -2   1  182.58   10.60
   1  -2   1  190.38   10.80
   1  -2   1  193.28   10.80
   1  -2   1  231.68   10.20
  -2   2  -1 1155.18   59.09
  -2   2  -1 1134.39   58.79
  -2   2  -1 1174.78   58.59
   2  -2   1 1141.99   58.59
   2  -2   1 1258.57   58.39
   2  -2   1 1124.29   59.19
  -3   2  -1   62.19    5.30
  -3   2  -1   68.79    4.50
  -3   2  -1   64.49    4.10
   3  -2   1   64.99    4.20
   3  -2   1   69.29    5.40
   3  -2   1   72.09    4.40
  -4   2  -1  833.92   41.90
  -4   2  -1  828.72   42.60
   4  -2   1  849.02   43.80
   4  -2   1  826.42   42.10
   4  -2   1  796.32   42.20
  -5   2  -1   29.20    4.10
   5  -2   1   27.70    5.00
   5  -2   1   38.00    3.80
   6  -2   1  190.88   12.90
   6  -2   1  162.78   11.40
   6  -2   1  197.88   11.50
   6  -2   1  227.98   15.10
   7  -2   1   22.80    8.90
   7  -2   1    5.30    6.10
   6   1  -1    4.10    5.30
   6   1  -1    3.40    6.00
   5   1  -1  185.98   12.10
   5   1  -1  195.08   12.90
   5   1  -1  184.48   10.30
   4   1  -1   31.40    2.70
   4   1  -1   28.80    2.90
   4   1  -1   21.90    4.00
   4   1  -1   27.00    4.20
   4   1  -1   21.60    3.20
   3   1  -1 2089.19  106.09
   3   1  -1 2148.58  106.29
   3   1  -1 2051.49  105.39
  -3  -1   1 2230.48  106.39
  -3  -1   1 2038.80  105.49
   2   1  -1   16.90    1.90
   2   1  -1   17.40    1.50
   2   1  -1   19.00    2.70
  -2  -1   1   16.80    2.20
  -2  -1   1   18.00    2.40
  -2  -1   1   18.80    1.60
   1   1  -1 2456.35  120.99
   1   1  -1 2455.15  121.09
   1   1  -1 2450.55  120.99
  -1  -1   1 2377.86  120.89
  -1  -1   1 2439.16  121.19
  -1  -1   1 2389.26  120.99
  -1   1  -1  102.39    5.60
  -1   1  -1  106.39    5.60
   1  -1   1  103.99    5.70
   1  -1   1  105.79    6.00
   1  -1   1  115.99    5.60
   1  -1   1  104.79    6.00
  -2   1  -1 1174.58   58.09
  -2   1  -1 1168.78   58.39
  -2   1  -1 1088.69   59.19
   2  -1   1 1201.98   58.99
   2  -1   1 1170.68   58.59
  -3   1  -1  874.91   44.70
   3  -1   1  875.11   44.60
   3  -1   1  863.21   44.20
   3  -1   1  897.81   45.40
   4  -1   1  119.29    7.10
   4  -1   1  126.59    8.90
   4  -1   1  121.89    6.90
   4  -1   1  115.99    8.70
   4  -1   1  126.09    7.80
   4  -1   1  113.19    7.60
   5  -1   1  391.06   22.00
   5  -1   1  356.26   19.50
   5  -1   1  370.66   19.50
   6  -1   1    7.70    2.90
   6  -1   1    4.40    4.00
   6  -1   1    3.30    5.40
   6   0  -1    7.00    4.40
   6   0  -1    4.00    5.70
   5   0  -1  293.57   16.70
   5   0  -1  300.27   16.70
   5   0  -1  351.66   19.40
   5   0  -1  356.56   18.50
   4   0  -1  232.18   13.10
   4   0  -1  214.58   11.30
   4   0  -1  205.48   11.20
   4   0  -1  228.48   12.40
   4   0  -1  196.78   12.40
  -4   0   1  213.18   13.10
   3   0  -1 1136.69   55.29
   3   0  -1 1109.09   54.49
   3   0  -1 1040.90   55.59
   3   0  -1 1104.29   55.19
   3   0  -1 1074.29   54.49
  -3   0   1 1065.69   55.69
   2   0  -1 4578.84  225.88
   2   0  -1 4345.67  225.28
   2   0  -1 4751.52  225.88
   2   0  -1 4381.26  226.08
   2   0  -1 4638.14  225.38
  -2   0   1 4498.65  226.18
   1   0  -1  272.97   13.80
   1   0  -1  261.77   13.90
  -1   0   1  264.37   13.90
  -1   0   1  278.67   13.80
   0   0  -1    0.00    0.10
   0   0  -1    0.00    0.10
   0   0  -1    0.10    0.10
   0   0   1    0.00    0.10
   0   0   1    0.10    0.10
   0   0   1    0.00    0.10
  -1   0  -1  658.43   33.60
  -1   0  -1  674.53   33.70
   1   0   1  691.63   33.70
   1   0   1  646.14   33.60
   1   0   1  682.53   33.80
   2   0   1  167.18    9.30
   2   0   1  164.28    8.60
   2   0   1  158.98    9.30
   2   0   1  169.18    8.90
   2   0   1  164.28    9.00
   2   0   1  155.28    8.80
   3   0   1  543.45   27.10
   3   0   1  559.84   28.10
   3   0   1  491.25   27.30
   3   0   1  543.95   27.70
   3   0   1  536.75   27.60
   3   0   1  525.35   28.20
   4   0   1   35.70    5.10
   4   0   1   29.60    2.90
   4   0   1   32.30    4.90
   4   0   1   30.10    2.80
   4   0   1   35.10    4.30
   4   0   1   28.60    3.80
   5   0   1  173.18   12.10
   5   0   1  154.68    9.50
   5   0   1  191.78   11.10
   5   0   1  157.68    9.60
   6   0   1   -2.90    4.80
   6   0   1   -7.30    5.70
   7  -1  -1   18.50    8.20
   7  -1  -1   33.20    6.50
   6  -1  -1    1.20    2.60
   6  -1  -1   -0.80    3.70
   6  -1  -1    5.80    5.30
   5  -1  -1  119.09    9.70
   5  -1  -1  111.99    6.90
   5  -1  -1  121.29    6.90
   4  -1  -1  477.35   25.10
   4  -1  -1  456.15   24.20
   4  -1  -1  441.86   24.10
   4  -1  -1  435.46   23.40
   4  -1  -1  470.85   23.40
  -4   1   1  459.95   25.00
   3  -1  -1    1.10    1.60
   3  -1  -1    2.20    1.10
   3  -1  -1    1.80    1.40
  -3   1   1    1.50    2.10
  -3   1   1    1.90    1.10
  -3   1   1    2.00    0.80
   2  -1  -1 2683.03  128.09
   2  -1  -1 2527.95  128.79
   2  -1  -1 2549.44  128.39
  -2   1   1 2582.54  128.89
  -2   1   1 2544.75  127.99
  -2   1   1 2532.25  128.39
   1  -1  -1  122.59    6.40
   1  -1  -1  123.39    6.50
   1  -1  -1  119.29    6.70
  -1   1   1  127.19    6.80
  -1   1   1  129.49    6.50
  -1   1   1  115.89    6.40
   0  -1  -1   41.40    2.60
   0  -1  -1   44.80    2.30
   0  -1  -1   44.00    2.30
   0   1   1   49.50    2.30
   0   1   1   42.30    2.60
   0   1   1   40.50    2.30
  -1  -1  -1 1352.86   65.79
  -1  -1  -1 1199.68   65.79
   1   1   1 1369.36   65.69
   1   1   1 1322.47   65.59
   1   1   1 1326.47   65.79
  -2  -1  -1   96.29    6.20
  -2  -1  -1  111.89    6.10
   2   1   1  109.99    6.40
   2   1   1  111.49    6.50
   2   1   1  108.79    6.20
  -3  -1  -1  456.65   25.40
   3   1   1  470.15   25.80
   3   1   1  485.85   25.20
   3   1   1  525.05   26.00
   3   1   1  523.15   26.20
   3   1   1  501.95   25.80
   4   1   1  397.46   21.80
   4   1   1  391.66   22.10
   4   1   1  408.56   22.40
   4   1   1  387.46   21.00
   4   1   1  431.16   21.10
   5   1   1   27.90    4.30
   5   1   1   23.90    5.30
   5   1   1   29.00    4.20
   6   1   1   74.29   11.30
   6   1   1   55.49    7.20
   7  -2  -1    3.70    5.30
   7  -2  -1    2.60    7.70
   6  -2  -1  144.49   12.80
   6  -2  -1  152.08    9.30
   5  -2  -1   57.89    4.60
   5  -2  -1   54.79    5.90
   5  -2  -1   61.09    7.20
  -5   2   1   58.79    4.30
   4  -2  -1  682.63   34.10
   4  -2  -1  637.54   34.50
   4  -2  -1  668.83   35.70
  -4   2   1  683.03   34.00
  -4   2   1  680.23   34.80
  -4   2   1  661.13   35.60
   3  -2  -1 1298.67   63.69
   3  -2  -1 1226.68   64.59
   3  -2  -1 1317.77   63.89
  -3   2   1 1257.57   64.79
  -3   2   1 1221.58   63.99
  -3   2   1 1281.47   63.59
   2  -2  -1   18.70    1.90
   2  -2  -1   16.80    2.30
  -2   2   1   18.00    1.70
  -2   2   1   19.00    2.20
  -2   2   1   18.60    2.60
   1  -2  -1  682.93   30.80
   1  -2  -1  606.34   31.20
   1  -2  -1  581.94   31.20
  -1   2   1  609.54   30.80
  -1   2   1  596.54   31.30
  -1   2   1  609.44   31.30
   0  -2  -1 1610.94   78.49
   0  -2  -1 1671.63   78.19
   0   2   1 1599.04   78.59
   0   2   1 1384.46   78.09
  -1  -2  -1  236.68   12.40
  -1  -2  -1  227.48   12.40
   1   2   1  240.08   12.60
   1   2   1  237.88   12.30
  -2  -2  -1 1533.15   76.49
  -2  -2  -1 1474.65   76.79
   2   2   1 1542.55   76.59
   2   2   1 1500.25   76.59
   2   2   1 1571.14   76.59
  -3  -2  -1   30.70    3.30
   3   2   1   29.80    3.60
   3   2   1   27.00    3.50
   3   2   1   26.60    3.80
   3   2   1   24.10    3.20
  -4  -2  -1  352.76   20.20
   4   2   1  370.46   20.20
   4   2   1  378.86   20.80
   4   2   1  407.96   20.80
   4   2   1  377.06   20.40
   5   2   1   68.29    8.20
   5   2   1   67.59    7.90
   7  -3  -1   34.70    6.70
   7  -3  -1   42.00    8.60
   6  -3  -1   45.10    5.40
   6  -3  -1   43.40    6.80
  -6   3   1   35.20    4.90
   5  -3  -1  479.35   24.60
  -5   3   1  473.85   25.20
  -5   3   1  446.46   24.20
   4  -3  -1    7.50    1.90
   4  -3  -1    7.80    1.90
   4  -3  -1    4.90    2.80
  -4   3   1    4.80    2.00
  -4   3   1    5.80    3.00
  -4   3   1    5.40    1.70
   3  -3  -1  853.61   40.70
   3  -3  -1  778.82   41.70
   3  -3  -1  791.62   40.90
  -3   3   1  787.22   40.90
  -3   3   1  819.32   40.90
  -3   3   1  779.12   41.80
   2  -3  -1  246.48   13.40
   2  -3  -1  265.17   12.80
   2  -3  -1  248.38   13.70
  -2   3   1  233.58   13.00
  -2   3   1  242.98   13.70
  -2   3   1  251.87   13.40
   1  -3  -1  804.32   41.80
   1  -3  -1  813.12   41.50
   1  -3  -1  800.22   41.20
  -1   3   1  800.12   41.80
  -1   3   1  825.12   41.70
  -1   3   1  883.91   41.20
   0  -3  -1 1215.08   61.69
   0  -3  -1 1287.17   61.29
   0   3   1 1227.58   61.79
   0   3   1 1159.18   60.99
  -1  -3  -1    0.50    1.40
  -1  -3  -1    0.40    1.30
   1   3   1    3.00    1.70
   1   3   1    3.60    1.00
  -2  -3  -1 1526.85   77.89
  -2  -3  -1 1519.55   77.49
   2   3   1 1582.84   77.39
   2   3   1 1531.35   77.79
  -3  -3  -1   11.60    2.60
   3   3   1    8.00    2.30
   3   3   1   10.80    3.10
  -4  -3  -1   25.90    4.30
   4   3   1   24.50    4.00
   7  -4  -1   23.00    5.20
   7  -4  -1   18.30    8.30
   7  -4  -1   19.00    6.10
   6  -4  -1    6.60    5.30
   6  -4  -1   -1.20    3.50
  -6   4   1   -2.80    2.90
   5  -4  -1  154.58   12.70
   5  -4  -1  147.29    9.40
  -5   4   1  144.79    9.30
  -5   4   1  141.09   10.50
   4  -4  -1   33.20    4.20
   4  -4  -1   44.20    5.80
   4  -4  -1   37.40    4.30
  -4   4   1   40.70    4.20
  -4   4   1   34.20    5.10
  -4   4   1   42.50    4.40
   3  -4  -1   12.60    3.00
   3  -4  -1   13.20    2.50
   3  -4  -1   15.70    1.90
  -3   4   1   11.70    3.10
  -3   4   1   15.00    2.20
  -3   4   1   15.50    2.40
   2  -4  -1 1116.59   59.19
   2  -4  -1 1240.88   60.29
   2  -4  -1 1205.48   60.19
  -2   4   1 1180.48   59.49
  -2   4   1 1192.08   60.29
  -2   4   1 1169.48   60.19
   1  -4  -1   10.50    1.50
   1  -4  -1    9.00    2.20
  -1   4   1   13.60    2.30
  -1   4   1   10.00    1.50
   0  -4  -1 1228.78   63.39
   0  -4  -1 1247.48   62.89
   0   4   1 1126.89   63.39
   0   4   1 1383.66   62.39
  -1  -4  -1  489.45   25.00
  -1  -4  -1  446.56   24.90
   1   4   1  482.45   26.10
   1   4   1  479.95   24.30
  -2  -4  -1  106.99    7.30
   2   4   1  112.79    6.70
  -3  -4  -1  192.98   12.60
   3   4   1  192.58   11.20
   7  -5  -1    1.00    5.20
   7  -5  -1    6.90    8.00
  -7   5   1    7.00    4.70
   6  -5  -1   38.00    5.60
   6  -5  -1   34.70    7.20
  -6   5   1   36.30    5.00
  -5   5   1    9.40    3.00
   4  -5  -1  110.29    8.10
   4  -5  -1  112.59    9.40
  -4   5   1  112.29    7.70
   3  -5  -1    0.80    2.30
   3  -5  -1   -0.50    1.60
   3  -5  -1   -1.70    2.60
  -3   5   1    9.30    3.20
  -3   5   1   -2.30    1.70
   2  -5  -1   39.40    4.50
   2  -5  -1   50.29    4.70
  -2   5   1   46.20    4.10
  -2   5   1   55.49    5.10
   1  -5  -1  753.02   39.10
   1  -5  -1  742.33   38.30
  -1   5   1  759.92   38.00
   0  -5  -1  106.69    9.60
   0  -5  -1   91.19    6.90
   0   5   1  108.89    5.70
   1   5   1  153.78    8.40
  -2  -5  -1   66.69    6.30
   2   5   1   62.99    5.30
   6  -6  -1    8.30    5.30
   6  -6  -1   17.40    7.10
  -6   6   1   18.80    4.60
   5  -6  -1    3.50    5.30
   5  -6  -1   -5.40    3.90
  -5   6   1    5.40    3.30
   4  -6  -1   72.59    7.30
   4  -6  -1   59.89    8.20
  -4   6   1   76.39    6.90
   3  -6  -1  185.48   13.30
   3  -6  -1  182.08   11.80
   3  -6  -1  160.28   13.00
  -3   6   1  200.88   11.10
   2  -6  -1   80.59    7.20
  -2   6   1   66.39    5.70
   1  -6  -1  133.99   10.00
  -1   6   1  150.78    8.40
   0  -6  -1   57.59    6.70
   0   6   1   54.09    5.40
  -1  -6  -1   33.30    5.00
   1   6   1   35.00    3.70
   5  -7  -1   24.70    6.80
   5  -7  -1    6.80    5.60
  -5   7   1   18.00    4.70
   4  -7  -1   -0.40    5.20
   4  -7  -1    8.40    4.60
  -4   7   1    1.80    4.10
   3  -7  -1   18.80    4.80
  -3   7   1   23.80    4.20
   2  -7  -1   62.59    7.90
  -2   7   1   55.09    6.30
   1  -7  -1    5.90    4.10
  -1   7   1   10.10    3.00
   0   7  -2  156.28    9.50
   0  -7   2  151.18   11.90
  -1   7  -2  168.08    9.70
   1  -7   2  132.79   11.30
  -2   7  -2   34.90    4.40
   2  -7   2   37.90    5.60
  -3   7  -2  142.89    9.90
   3  -7   2  144.19   10.70
   3  -7   2  125.59   10.50
  -4   7  -2   11.30    4.00
   4  -7   2    5.80    4.40
   4  -7   2    2.00    5.70
  -5   7  -2   50.09    6.50
   5  -7   2   46.30    6.90
   5  -7   2   80.69   12.20
  -6   7  -2   11.10    5.50
   6  -7   2    4.20    8.50
   6  -7   2   19.30    6.80
   1   6  -2  253.17   13.20
  -1  -6   2  237.98   15.00
   0   6  -2    1.30    1.70
   0  -6   2    0.40    3.10
  -1   6  -2  451.05   22.30
   1  -6   2  390.56   23.90
  -2   6  -2    7.80    3.70
   2  -6   2    1.00    2.90
   2  -6   2   -0.80    2.70
  -3   6  -2   19.60    3.20
   3  -6   2   20.00    4.50
   3  -6   2   19.10    4.40
  -4   6  -2  268.87   16.00
   4  -6   2  276.97   16.60
   4  -6   2  285.87   17.70
  -5   6  -2    0.00    3.30
   5  -6   2    0.10    5.70
   5  -6   2    0.90    4.10
  -6   6  -2   57.59    8.00
   6  -6   2   28.90    6.20
   6  -6   2   42.40    8.90
   3   5  -2  126.69    8.70
   2   5  -2   -0.20    2.30
  -2  -5   2    1.90    3.20
   1   5  -2  243.28   14.60
  -1  -5   2  300.27   15.50
   0   5  -2   83.59    4.90
   0  -5   2   87.99    6.50
  -1   5  -2   23.00    2.40
   1  -5   2   21.50    3.10
   1  -5   2   23.60    3.60
  -2   5  -2  828.22   39.80
   2  -5   2  769.12   40.40
   2  -5   2  788.02   40.70
   2  -5   2  740.63   40.10
  -3   5  -2   46.40    4.50
   3  -5   2   44.60    5.90
   3  -5   2   54.39    5.00
   3  -5   2   43.70    6.00
  -4   5  -2   58.99    5.40
   4  -5   2   57.29    7.10
   4  -5   2   51.79    5.90
   5  -5   2  381.56   21.30
  -6   5  -2    1.70    3.90
   6  -5   2    3.10    6.30
   6  -5   2    8.00    4.10
  -7   5  -2   47.50    6.80
   7  -5   2   38.90   10.10
   7  -5   2   53.29    6.80
   4   4  -2   24.00    4.20
   3   4  -2  223.38   12.70
  -3  -4   2  222.68   12.80
   2   4  -2  240.48   15.00
   2   4  -2  272.17   14.40
  -2  -4   2  281.77   14.70
   1   4  -2   49.10    3.80
   1   4  -2   49.20    4.60
  -1  -4   2   54.39    4.30
  -1  -4   2   51.99    5.00
   0   4  -2 1411.06   73.79
   0   4  -2 1426.96   74.69
   0  -4   2 1588.94   74.49
   0  -4   2 1481.95   74.69
  -1   4  -2   99.69    7.10
  -1   4  -2  124.89    6.30
   1  -4   2  114.99    7.20
  -2   4  -2  123.49    7.90
  -2   4  -2  141.89    7.40
   2  -4   2  125.19    6.90
   2  -4   2  129.89    8.00
   2  -4   2  124.59    8.30
   2  -4   2  130.19    8.20
  -3   4  -2 1832.22   92.09
  -3   4  -2 1854.11   92.29
   3  -4   2 1665.73   91.49
   3  -4   2 1936.31   92.59
   3  -4   2 1904.81   93.29
   3  -4   2 1800.42   92.89
  -4   4  -2    4.50    2.30
  -4   4  -2    6.70    2.20
   4  -4   2    3.20    2.10
   4  -4   2   -2.00    3.70
   4  -4   2    9.60    3.50
  -5   4  -2  204.88   12.90
   5  -4   2  220.58   14.80
   5  -4   2  212.18   12.60
  -6   4  -2   26.10    4.50
   6  -4   2   30.90    6.60
   6  -4   2   23.20    5.40
  -7   4  -2    1.70    4.80
   7  -4   2   13.50    8.50
   7  -4   2    2.80    4.90
  -4  -3   2   38.10    5.00
   3   3  -2    1.60    2.40
  -3  -3   2    3.20    1.90
   2   3  -2  806.52   39.20
   2   3  -2  764.32   39.30
  -2  -3   2  775.02   39.10
  -2  -3   2  730.13   39.70
   1   3  -2  140.49    7.10
   1   3  -2  120.59    7.50
  -1  -3   2  132.59    7.60
  -1  -3   2  115.69    7.30
   0   3  -2  426.96   22.50
   0   3  -2  389.86   22.00
   0  -3   2  448.06   22.60
   0  -3   2  476.85   22.40
  -1   3  -2 3319.67  168.38
  -1   3  -2 3458.25  167.88
   1  -3   2 3258.27  167.98
   1  -3   2 3390.46  168.48
   1  -3   2 3364.76  168.18
   1  -3   2 3439.76  168.38
  -2   3  -2    3.80    1.10
  -2   3  -2    4.50    1.30
   2  -3   2    2.40    1.20
   2  -3   2    0.90    1.70
   2  -3   2    2.60    1.60
  -3   3  -2  784.92   40.40
  -3   3  -2  809.62   40.50
   3  -3   2  782.22   41.30
   3  -3   2  796.32   40.60
   3  -3   2  792.62   40.10
   3  -3   2  793.32   41.50
  -4   3  -2  477.25   25.10
  -4   3  -2  506.35   25.70
   4  -3   2  510.25   26.90
   4  -3   2  461.35   25.10
   4  -3   2  495.75   25.40
   4  -3   2  456.95   26.50
  -5   3  -2  225.18   13.00
   5  -3   2  245.88   13.40
  -6   3  -2   68.39    7.30
   6  -3   2   61.89    6.50
   6  -3   2   70.39   10.00
   7  -3   2    0.70    7.60
   7  -3   2    6.70    7.30
   7  -3   2   -5.70    5.50
   5   2  -2    2.20    3.80
   5   2  -2    2.60    3.80
   4   2  -2  127.69    9.80
   4   2  -2  122.39    8.70
   4   2  -2  143.89    9.00
   4   2  -2  142.69    8.00
   3   2  -2  202.58   11.60
   3   2  -2  216.48   12.30
   3   2  -2  213.58   11.40
   3   2  -2  217.88   11.80
  -3  -2   2  200.48   11.30
   2   2  -2  421.96   21.10
  -2  -2   2  393.66   21.40
  -2  -2   2  405.36   20.80
   1   2  -2 1494.35   75.59
   1   2  -2 1512.25   75.59
  -1  -2   2 1538.35   75.79
  -1  -2   2 1493.65   75.59
   0   2  -2 1335.97   64.39
   0   2  -2 1177.78   64.09
   0  -2   2 1338.37   64.39
  -1   2  -2 1327.07   64.59
  -1   2  -2 1229.78   64.89
   1  -2   2 1254.77   64.99
   1  -2   2 1434.66   64.49
   1  -2   2 1236.18   64.89
   1  -2   2 1272.67   64.89
  -2   2  -2 4485.95  227.08
  -2   2  -2 4571.64  227.08
   2  -2   2 4889.51  226.98
   2  -2   2 4575.84  227.78
   2  -2   2 4516.15  227.58
   2  -2   2 4311.77  227.18
  -3   2  -2  103.69    6.40
  -3   2  -2  112.19    6.10
   3  -2   2  102.09    6.10
   3  -2   2   99.19    7.20
   3  -2   2  105.09    7.30
   3  -2   2  104.49    6.10
  -4   2  -2 1096.39   53.69
  -4   2  -2 1068.49   52.89
   4  -2   2  962.30   54.09
   4  -2   2 1085.79   54.69
   4  -2   2 1037.00   53.19
   4  -2   2 1036.10   52.99
  -5   2  -2  100.79    7.60
   5  -2   2  107.09    6.90
   5  -2   2  108.19    9.50
   5  -2   2  103.29    6.70
   6  -2   2  280.17   15.50
   6  -2   2  288.57   18.90
   6  -2   2  241.28   15.90
   6  -2   2  292.07   17.00
   7  -2   2    2.10    6.30
   7  -2   2    4.90    8.30
   6   1  -2   15.50    6.20
   6   1  -2    9.00    5.40
   5   1  -2  184.98   12.50
   5   1  -2  190.88   11.90
   4   1  -2  106.49    6.10
   4   1  -2  107.99    7.30
   4   1  -2  104.99    7.80
   4   1  -2  108.89    6.20
  -4  -1   2  114.29    8.50
   3   1  -2 1125.99   57.79
   3   1  -2 1115.99   57.09
   3   1  -2 1180.88   58.09
  -3  -1   2 1071.99   57.99
  -3  -1   2 1209.28   58.29
   2   1  -2   18.80    1.60
   2   1  -2   22.90    2.30
   2   1  -2   19.70    2.00
  -2  -1   2   19.90    2.60
  -2  -1   2   21.30    1.60
  -2  -1   2   21.90    2.40
   1   1  -2  527.85   27.30
   1   1  -2  532.15   27.50
   1   1  -2  541.25   27.40
  -1  -1   2  553.14   27.30
  -1  -1   2  552.84   27.60
  -1  -1   2  558.14   27.60
   0   1  -2  853.61   40.50
   0   1  -2  821.32   40.40
   0   1  -2  848.22   40.40
   0  -1   2  832.22   40.30
   0  -1   2  794.52   40.50
   0  -1   2  699.53   40.40
  -1   1  -2  803.62   37.50
  -1   1  -2  701.23   37.80
   1  -1   2  707.53   37.50
   1  -1   2  742.63   37.80
   1  -1   2  785.12   37.40
  -2   1  -2 2693.73  132.19
  -2   1  -2 2610.64  131.89
   2  -1   2 2645.04  132.69
   2  -1   2 2552.14  131.99
   2  -1   2 2733.73  132.79
  -3   1  -2  124.99    6.80
  -3   1  -2  121.09    7.20
   3  -1   2  117.89    6.70
   3  -1   2  118.49    7.10
   3  -1   2  121.69    8.00
   3  -1   2  125.89    7.90
   4  -1   2  654.33   34.10
   4  -1   2  620.54   32.90
   4  -1   2  642.14   32.60
   4  -1   2  633.54   32.40
   4  -1   2  626.94   33.70
   5  -1   2   64.29    5.40
   5  -1   2   58.19    8.20
   5  -1   2   82.99    5.30
   6  -1   2    6.80    3.10
   6  -1   2   11.00    6.30
   6  -1   2   13.10    4.50
   6   0  -2   31.60    6.10
   6   0  -2   27.20    5.10
   5   0  -2  405.06   23.50
   5   0  -2  418.56   22.70
   4   0  -2   27.90    2.40
   4   0  -2   22.90    3.60
   4   0  -2   33.50    4.50
   4   0  -2   15.90    3.20
  -4   0   2   17.40    3.70
   3   0  -2  306.87   15.80
   3   0  -2  281.37   14.80
   3   0  -2  292.77   16.10
   3   0  -2  307.47   15.90
   3   0  -2  285.17   14.90
  -3   0   2  288.07   16.30
   2   0  -2 1286.47   64.99
   2   0  -2 1294.17   65.29
  -2   0   2 1297.77   65.39
   1   0  -2  458.25   23.70
   1   0  -2  477.05   23.80
  -1   0   2  475.95   23.90
  -1   0   2  465.65   23.70
   0   0  -2 1032.70   52.19
   0   0   2 1062.39   52.19
  -1   0  -2  519.05   26.90
  -1   0  -2  536.35   26.70
  -1   0  -2  504.85   26.70
   1   0   2  523.15   26.70
   1   0   2  562.64   26.70
   1   0   2  533.95   26.80
   2   0   2 3583.44  180.68
   2   0   2 3907.41  180.88
   2   0   2 3507.45  180.28
   2   0   2 3674.03  180.88
   2   0   2 3421.36  180.18
   3   0   2  584.04   30.00
   3   0   2  596.64   30.50
   3   0   2  573.44   31.00
   3   0   2  608.24   30.90
   3   0   2  573.44   30.00
   3   0   2  598.94   30.40
   4   0   2   59.89    4.90
   4   0   2   54.19    5.00
   4   0   2   52.29    5.90
   4   0   2   52.19    4.00
   4   0   2   45.00    5.80
   4   0   2   51.29    3.90
   5   0   2   54.79    7.80
   5   0   2   62.49    6.30
   5   0   2   62.99    5.00
   5   0   2   54.09    5.00
   6   0   2  104.59    9.60
   6   0   2   78.89   11.60
   6   0   2   90.59    7.30
   7  -1  -2    9.20    6.10
   7  -1  -2    7.00    7.90
   6  -1  -2   28.00    4.80
   6  -1  -2   28.30    6.30
   5  -1  -2   80.89    7.80
   5  -1  -2   72.69    5.00
   5  -1  -2   73.09    4.70
   4  -1  -2  168.38    9.30
   4  -1  -2  178.38   10.90
   4  -1  -2  162.38    9.00
   4  -1  -2  170.28   10.00
   4  -1  -2  169.98   10.00
  -4   1   2  156.88   10.80
   3  -1  -2   29.50    3.30
   3  -1  -2   35.30    3.10
   3  -1  -2   27.60    2.20
   3  -1  -2   27.60    2.70
  -3   1   2   28.50    1.90
  -3   1   2   24.50    3.80
   2  -1  -2  847.02   42.20
   2  -1  -2  846.42   41.80
   2  -1  -2  831.62   42.60
  -2   1   2  802.12   43.20
  -2   1   2  857.01   41.80
  -2   1   2  819.42   42.10
   1  -1  -2 4290.57  214.48
   1  -1  -2 4304.57  214.68
  -1   1   2 4283.87  214.48
  -1   1   2 4360.16  214.78
   0  -1  -2  102.49    5.00
   0  -1  -2   91.59    5.10
   0   1   2   94.79    5.00
   0   1   2   92.49    5.20
  -1  -1  -2 1838.52   92.39
  -1  -1  -2 1861.41   92.49
  -1  -1  -2 1851.51   92.39
   1   1   2 1829.42   92.29
   1   1   2 1893.41   92.19
   1   1   2 1823.62   92.39
  -2  -1  -2   64.19    4.20
   2   1   2   69.59    4.70
   2   1   2   70.19    4.40
   2   1   2   63.59    4.10
   2   1   2   65.29    4.30
   2   1   2   69.39    4.30
  -3  -1  -2  113.89    6.80
   3   1   2  113.99    7.30
   3   1   2  109.29    7.00
   3   1   2  113.49    6.60
   3   1   2  115.89    7.00
   3   1   2  112.99    7.60
   4   1   2  454.35   24.00
   4   1   2  447.46   23.30
   4   1   2  403.46   22.50
   4   1   2  422.86   23.30
   4   1   2  435.56   22.70
   5   1   2   18.60    5.30
   5   1   2   27.20    3.70
   5   1   2   28.40    4.90
   6   1   2   80.29   11.90
   6   1   2   58.59    7.70
   7  -2  -2   23.80    7.90
   7  -2  -2   12.70    5.50
   6  -2  -2   52.99    5.10
   6  -2  -2   47.20    6.80
   6  -2  -2   65.89    9.50
   5  -2  -2   61.09    4.70
   5  -2  -2   67.79    7.30
   5  -2  -2   63.59    5.80
  -5   2   2   64.89    4.60
   4  -2  -2   43.10    3.40
   4  -2  -2   48.60    4.20
   4  -2  -2   40.00    5.10
  -4   2   2   37.40    5.40
  -4   2   2   45.50    3.20
  -4   2   2   48.70    4.00
   3  -2  -2  189.88   11.30
   3  -2  -2  194.28   10.30
   3  -2  -2  195.88   10.60
  -3   2   2  197.38   10.30
  -3   2   2  183.68   11.50
  -3   2   2  188.98   10.60
   2  -2  -2    4.40    1.50
   2  -2  -2    6.60    1.40
   2  -2  -2    4.60    1.00
  -2   2   2    4.20    1.70
  -2   2   2    6.60    1.10
   1  -2  -2 1199.68   61.59
   1  -2  -2 1312.37   61.09
   1  -2  -2 1260.67   61.69
  -1   2   2 1148.29   61.19
  -1   2   2 1186.08   61.89
  -1   2   2 1249.57   61.79
  -1  -2  -2  246.48   13.20
   1   2   2  244.18   13.00
   1   2   2  261.57   13.30
  -2  -2  -2  900.81   47.40
  -2  -2  -2  939.21   47.20
   2   2   2  916.91   47.30
   2   2   2  957.50   47.20
   2   2   2  948.11   47.40
   2   2   2  928.81   46.80
  -3  -2  -2   20.70    2.80
   3   2   2   23.60    3.20
   3   2   2   16.90    3.00
   3   2   2   19.80    2.60
   3   2   2   21.30    3.30
   3   2   2   19.70    2.40
  -4  -2  -2  289.27   16.40
   4   2   2  308.77   16.40
   4   2   2  270.57   16.30
   4   2   2  297.87   17.10
   4   2   2  315.77   17.50
   5   2   2   33.80    5.40
   5   2   2   32.50    4.70
   7  -3  -2   50.59    9.10
   7  -3  -2   47.40    6.70
   6  -3  -2   65.89    9.90
   6  -3  -2   78.59    6.20
   6  -3  -2   72.69    7.70
  -6   3   2   63.39    5.80
   5  -3  -2  134.99    8.10
  -5   3   2  131.79    8.70
  -5   3   2  122.89    7.70
   4  -3  -2   28.30    3.20
   4  -3  -2   32.90    4.80
   4  -3  -2   25.70    3.70
  -4   3   2   25.60    4.30
  -4   3   2   34.40    3.60
  -4   3   2   33.50    3.30
   3  -3  -2 1496.85   77.79
   3  -3  -2 1539.85   77.09
   3  -3  -2 1596.04   76.79
  -3   3   2 1532.75   77.09
  -3   3   2 1486.35   76.99
  -3   3   2 1528.65   78.09
   2  -3  -2  125.09    6.60
   2  -3  -2  120.39    7.40
   2  -3  -2  122.29    7.20
  -2   3   2  121.39    6.80
  -2   3   2  118.99    7.20
  -2   3   2  121.39    7.70
   1  -3  -2 1568.74   74.49
   1  -3  -2 1510.65   74.19
   1  -3  -2 1251.27   73.89
  -1   3   2 1543.15   74.49
  -1   3   2 1490.05   73.79
  -1   3   2 1509.05   74.59
   0  -3  -2  912.31   45.70
   0  -3  -2  870.71   46.10
   0   3   2  973.10   45.40
   0   3   2  872.21   46.20
  -1  -3  -2   15.50    2.20
  -1  -3  -2   14.50    2.00
   1   3   2   15.40    1.80
   1   3   2   14.30    2.40
  -2  -3  -2  562.94   27.80
  -2  -3  -2  509.25   27.80
   2   3   2  540.15   27.40
   2   3   2  519.45   27.90
  -3  -3  -2   49.70    4.90
   3   3   2   43.40    4.40
  -4  -3  -2    0.40    3.60
   4   3   2    4.00    3.00
   7  -4  -2   19.70    5.30
   7  -4  -2   18.70    5.70
   7  -4  -2   12.40    7.80
   6  -4  -2   25.50    6.10
   6  -4  -2   41.10    5.90
  -6   4   2   33.70    4.70
   5  -4  -2  129.19   11.20
   5  -4  -2  143.29    9.00
  -5   4   2  143.99    9.30
  -5   4   2  127.99    8.80
   4  -4  -2   39.70    4.40
   4  -4  -2   44.90    5.90
   4  -4  -2   44.60    4.40
  -4   4   2   32.70    5.60
  -4   4   2   43.20    4.20
  -4   4   2   41.80    4.70
   3  -4  -2    8.90    1.70
   3  -4  -2   14.10    2.50
   3  -4  -2    8.80    2.80
  -3   4   2    7.70    2.40
  -3   4   2   16.00    3.20
  -3   4   2   13.70    2.10
   2  -4  -2  667.13   33.30
   2  -4  -2  597.54   32.20
   2  -4  -2  655.03   33.20
  -2   4   2  641.34   32.60
  -2   4   2  629.94   33.30
  -2   4   2  663.83   33.60
   1  -4  -2  234.18   11.40
   1  -4  -2  214.28   12.20
   1  -4  -2  225.98   11.40
  -1   4   2  199.88   11.80
  -1   4   2  197.78   12.30
  -1   4   2  215.78   11.20
   0  -4  -2  673.33   35.70
   0  -4  -2  670.53   35.20
   0   4   2  781.22   34.60
   0   4   2  628.64   35.80
  -1  -4  -2   97.59    6.50
  -1  -4  -2   74.09    6.20
   1   4   2  101.49    5.60
  -2  -4  -2    0.30    2.10
   2   4   2    0.90    1.50
   3   4   2   98.29    6.80
   7  -5  -2   15.90    8.10
   7  -5  -2   14.00    5.60
  -7   5   2   24.60    5.50
   6  -5  -2   17.40    4.40
   6  -5  -2    8.80    6.30
  -6   5   2   18.70    4.30
  -5   5   2    5.00    2.90
   4  -5  -2  349.77   20.30
   4  -5  -2  348.67   19.40
  -4   5   2  351.26   19.20
   3  -5  -2    4.00    2.50
   3  -5  -2    5.80    2.70
   3  -5  -2    3.30    1.70
  -3   5   2    5.50    2.10
  -3   5   2    2.00    3.40
   2  -5  -2   93.79    6.30
   2  -5  -2   95.49    8.60
  -2   5   2   90.89    7.00
  -2   5   2   87.29    5.90
   1  -5  -2  616.54   31.60
   1  -5  -2  569.94   30.50
  -1   5   2  604.24   30.20
   0  -5  -2   21.00    3.00
   0  -5  -2   22.80    3.50
   0   5   2   26.10    2.20
   1   5   2  126.39    7.00
  -2  -5  -2   69.99    7.00
   2   5   2   74.49    5.40
   6  -6  -2   23.80    5.90
   6  -6  -2   24.40    7.30
  -6   6   2   27.20    5.60
   5  -6  -2   25.90    4.70
   5  -6  -2   20.90    5.90
  -5   6   2   22.50    4.20
   4  -6  -2   17.00    3.80
   4  -6  -2   12.00    4.30
   3  -6  -2  513.45   28.00
   3  -6  -2  559.04   28.60
  -3   6   2  475.05   28.50
  -3   6   2  549.54   27.60
   2  -6  -2   58.29    4.60
  -2   6   2   53.59    5.10
   1  -6  -2   41.80    5.80
  -1   6   2   44.70    4.20
   0  -6  -2  103.79    8.60
   0   6   2  111.09    6.50
  -1  -6  -2   20.00    4.60
   1   6   2   19.90    3.00
   5  -7  -2   89.29    9.80
   5  -7  -2   59.59    8.90
  -5   7   2   64.89    9.30
   4  -7  -2   -3.90    4.70
  -4   7   2   -0.20    3.90
   3  -7  -2   15.70    4.50
  -3   7   2   15.80    3.80
   2  -7  -2  115.99    9.80
  -2   7   2  119.39    8.60
   1  -7  -2   -0.30    4.50
  -1   7   2    7.90    3.20
   0   7  -3   56.19    5.70
   0  -7   3   59.29    8.10
  -1   7  -3  105.29    7.50
   1  -7   3   95.89    9.40
  -2   7  -3   40.80    4.80
   2  -7   3   43.60    5.90
   3  -7   3   39.10    5.90
   3  -7   3   31.10    5.70
  -4   7  -3   39.10    5.40
   4  -7   3   33.70    8.30
   4  -7   3   31.70    5.70
  -5   7  -3   79.09    8.80
   5  -7   3   55.29    7.40
   5  -7   3   59.59    9.80
   1   6  -3   42.20    3.90
  -1  -6   3   35.30    5.00
   0   6  -3    3.10    1.70
   0  -6   3   -2.20    3.00
  -1   6  -3  180.18   10.10
  -2   6  -3  140.59    7.90
   2  -6   3  127.19    8.60
   2  -6   3  100.89    7.80
  -3   6  -3  117.69    7.80
   3  -6   3   97.29    8.80
   3  -6   3  116.29    9.30
   4  -6   3   26.10    5.50
   4  -6   3   24.80    4.60
  -5   6  -3   28.60    4.60
   5  -6   3   40.00    5.60
   5  -6   3   39.40    7.20
  -6   6  -3   65.59    8.60
   6  -6   3   57.59    7.40
   6  -6   3   83.99   12.70
   3   5  -3   77.39    6.80
   2   5  -3   -0.20    2.30
  -2  -5   3   -1.40    2.90
   1   5  -3  132.39    7.90
  -1  -5   3  138.39    8.80
   0   5  -3  149.79    8.10
   0  -5   3  148.49    9.50
  -1   5  -3   31.60    2.70
   1  -5   3   28.70    4.10
  -2   5  -3  429.26   21.50
   2  -5   3  388.16   21.80
   2  -5   3  420.56   22.40
   2  -5   3  409.56   22.40
  -3   5  -3  348.57   18.10
   3  -5   3  316.57   18.70
   3  -5   3  331.37   18.50
   3  -5   3  330.07   19.20
  -4   5  -3   99.19    8.10
   4  -5   3  100.69    7.70
   4  -5   3  105.69    9.20
  -5   5  -3   47.60    6.10
   5  -5   3   55.19    6.50
  -6   5  -3    5.00    3.90
   6  -5   3  -12.30    5.90
   6  -5   3   -1.80    4.10
  -7   5  -3   10.80    6.40
   7  -5   3   22.10    8.80
   7  -5   3   16.30    6.20
   4   4  -3    4.60    3.70
   3   4  -3   96.89    6.90
  -3  -4   3   96.19    7.00
   2   4  -3  306.27   17.50
   2   4  -3  322.57   18.30
  -2  -4   3  333.57   17.30
   1   4  -3   91.09    6.50
   1   4  -3   96.29    5.90
  -1  -4   3  103.49    6.50
   0   4  -3  559.04   29.50
   0   4  -3  563.04   30.30
   0  -4   3  603.44   30.40
   0  -4   3  615.94   30.20
  -1   4  -3  367.56   20.90
  -1   4  -3  423.16   20.20
   1  -4   3  400.06   20.30
   1  -4   3  391.36   21.10
   1  -4   3  394.66   20.80
  -2   4  -3  285.97   14.70
  -2   4  -3  273.27   15.20
   2  -4   3  280.77   15.30
   2  -4   3  283.87   15.30
   2  -4   3  265.57   14.30
   2  -4   3  282.67   15.60
  -3   4  -3  387.76   20.70
  -3   4  -3  417.86   20.60
   3  -4   3  392.56   20.80
   3  -4   3  347.97   19.80
   3  -4   3  390.56   21.30
   3  -4   3  393.16   21.70
  -4   4  -3   29.30    4.20
  -4   4  -3   36.80    4.20
   4  -4   3   33.60    4.20
   4  -4   3   38.90    5.90
   5  -4   3   57.99    8.20
   5  -4   3   49.60    5.50
  -6   4  -3    6.40    3.70
   6  -4   3    0.80    3.80
   6  -4   3    2.70    5.90
  -7   4  -3    1.00    5.40
   7  -4   3   -2.30    5.00
   7  -4   3    8.90    8.40
   4   3  -3  199.98   12.10
   3   3  -3   26.00    3.00
   3   3  -3   20.70    2.80
  -3  -3   3   20.60    2.60
   2   3  -3  520.95   27.80
   2   3  -3  577.14   27.90
  -2  -3   3  511.05   28.50
  -2  -3   3  552.74   27.80
   1   3  -3 1344.37   70.89
   1   3  -3 1444.06   70.69
  -1  -3   3 1404.76   70.89
  -1  -3   3 1443.86   71.19
   0   3  -3  185.88    9.60
   0   3  -3  175.08   10.00
   0  -3   3  176.98    9.90
   0  -3   3  196.78   10.20
  -1   3  -3 4692.13  232.88
  -1   3  -3 4563.04  232.38
   1  -3   3 4739.03  232.48
   1  -3   3 4629.14  232.98
   1  -3   3 4627.84  232.68
   1  -3   3 4772.22  232.98
  -2   3  -3   72.29    4.90
  -2   3  -3   76.99    4.70
   2  -3   3   74.49    4.90
   2  -3   3   74.09    5.50
   2  -3   3   75.19    5.40
   2  -3   3   76.99    4.20
  -3   3  -3  919.61   46.90
  -3   3  -3  971.70   47.10
   3  -3   3  941.31   47.10
   3  -3   3  865.01   46.50
   3  -3   3  905.21   47.70
   3  -3   3  943.81   48.10
  -4   3  -3    9.00    2.20
  -4   3  -3    6.60    1.80
   4  -3   3    9.10    2.00
   4  -3   3    7.70    3.20
   4  -3   3    9.70    2.10
   4  -3   3    9.80    3.50
  -5   3  -3   20.10    2.90
   5  -3   3   31.20    4.10
  -6   3  -3  214.98   13.80
   6  -3   3  204.78   12.70
   6  -3   3  208.48   16.00
   7  -3   3    4.10    8.10
   7  -3   3   -5.50    4.60
   7  -3   3   11.90    6.20
   5   2  -3   11.90    4.20
   5   2  -3    8.40    3.60
   4   2  -3  247.78   15.20
   4   2  -3  247.28   13.10
   4   2  -3  234.88   14.00
   4   2  -3  267.57   14.40
   3   2  -3  330.67   17.80
   3   2  -3  349.87   18.20
   3   2  -3  339.37   17.60
  -3  -2   3  350.86   18.40
  -3  -2   3  322.97   17.50
   2   2  -3  150.18    8.40
   2   2  -3  144.89    8.10
  -2  -2   3  155.48    8.70
  -2  -2   3  157.18    8.90
  -2  -2   3  146.89    8.10
   1   2  -3 4293.57  219.68
   1   2  -3 4254.17  219.68
  -1  -2   3 4457.15  219.68
  -1  -2   3 4640.34  220.08
   0   2  -3  966.70   48.50
   0   2  -3  995.90   48.50
   0   2  -3 1016.50   48.80
   0  -2   3  965.60   48.50
   0  -2   3 1010.70   48.80
   0  -2   3  859.11   48.60
  -1   2  -3 1991.30   95.69
   1  -2   3 1892.01   95.99
   1  -2   3 1970.80   95.99
   1  -2   3 1824.72   95.89
  -2   2  -3  573.94   28.10
  -2   2  -3  546.55   28.10
   2  -2   3  568.24   27.90
   2  -2   3  563.24   28.70
   2  -2   3  520.95   28.10
   2  -2   3  535.15   28.80
  -3   2  -3    3.50    1.30
  -3   2  -3    2.00    1.10
   3  -2   3    1.10    1.90
   3  -2   3    2.60    2.20
   3  -2   3    3.20    1.20
   3  -2   3    4.90    1.30
  -4   2  -3 1004.80   48.90
  -4   2  -3 1002.10   49.60
   4  -2   3  988.10   50.69
   4  -2   3  905.91   50.09
   4  -2   3  916.01   49.00
   4  -2   3  971.90   49.00
  -5   2  -3   24.40    4.10
   5  -2   3   19.80    5.00
   5  -2   3   24.00    3.10
   5  -2   3   24.40    3.10
   6  -2   3   15.10    6.40
   6  -2   3   11.10    4.30
   6  -2   3   15.10    3.30
   7  -2   3   58.99    9.60
   7  -2   3   55.09    7.70
   6   1  -3  159.88   13.00
   6   1  -3  159.58   12.30
   5   1  -3   76.39    8.00
   5   1  -3   90.19    7.40
   4   1  -3   12.50    2.90
   4   1  -3   15.10    2.60
  -4  -1   3   18.10    4.20
   3   1  -3 1728.13   85.79
   3   1  -3 1639.74   85.69
  -3  -1   3 1655.03   85.89
  -3  -1   3 1783.62   86.19
   2   1  -3  819.82   41.30
   2   1  -3  809.32   41.40
  -2  -1   3  801.92   41.50
  -2  -1   3  831.32   41.70
   1   1  -3 4606.94  240.68
   1   1  -3 4944.91  240.48
   1   1  -3 5076.89  240.58
  -1  -1   3 4549.44  241.08
  -1  -1   3 4899.71  240.48
  -1  -1   3 4936.01  240.78
   0   1  -3 1634.24   84.29
   0   1  -3 1703.73   84.29
   0   1  -3 1743.43   84.39
   0  -1   3 1697.53   84.39
   0  -1   3 1679.83   84.39
  -1   1  -3  695.93   37.30
  -1   1  -3  796.32   37.00
  -1   1  -3  729.53   37.00
   1  -1   3  783.62   36.80
   1  -1   3  665.83   37.30
   1  -1   3  744.33   37.20
  -2   1  -3 3040.70  151.68
  -2   1  -3 2879.61  151.08
  -2   1  -3 2988.30  151.08
   2  -1   3 3260.67  151.58
   2  -1   3 3031.30  150.98
   2  -1   3 2959.70  150.88
  -3   1  -3  380.16   20.60
   3  -1   3  390.96   21.20
   3  -1   3  391.36   20.30
   3  -1   3  384.96   21.40
   3  -1   3  397.56   20.50
   3  -1   3  405.76   20.40
  -4   1  -3  111.79    7.40
   4  -1   3  107.39    8.20
   4  -1   3  101.09    7.20
   4  -1   3  110.19    6.80
   4  -1   3  111.69    6.60
   4  -1   3  118.59    8.60
   5  -1   3  505.75   28.90
   5  -1   3  573.14   28.90
   5  -1   3  594.54   31.30
   6  -1   3   10.30    6.10
   6  -1   3   -1.30    4.50
   6  -1   3    7.20    3.00
   6   0  -3    9.30    5.70
   6   0  -3    2.90    4.20
   5   0  -3  285.47   17.20
   4   0  -3  462.45   23.80
   4   0  -3  447.96   24.20
  -4   0   3  426.66   24.60
   3   0  -3  139.49    8.40
   3   0  -3  140.79    8.20
   3   0  -3  137.69    8.00
  -3   0   3  132.29    8.80
   2   0  -3 3850.61  193.18
   2   0  -3 3845.22  193.48
  -2   0   3 3930.21  193.28
   1   0  -3    0.30    0.60
   1   0  -3    1.20    0.50
  -1   0   3    1.00    0.70
  -1   0   3    0.50    0.50
  -1   0   3    0.70    0.30
  -1   0  -3 2111.69   99.89
  -1   0  -3 1916.61  100.09
   1   0   3 1894.01   99.99
   1   0   3 2074.29  100.09
   1   0   3 2021.70   99.89
  -2   0  -3  430.66   21.20
  -2   0  -3  415.66   21.70
   2   0   3  405.56   21.00
   2   0   3  419.16   21.40
   2   0   3  419.66   21.40
   2   0   3  369.46   21.00
   3   0   3 1669.33   81.89
   3   0   3 1643.74   82.19
   3   0   3 1610.14   81.59
   3   0   3 1666.33   81.99
   3   0   3 1564.04   82.49
   3   0   3 1596.54   81.59
   4   0   3  120.49    7.70
   4   0   3  113.29    8.70
   4   0   3  110.49    8.30
   4   0   3  114.99    7.80
   4   0   3  112.39    7.00
   4   0   3  112.69    6.90
   5   0   3    3.10    3.10
   5   0   3   10.90    4.70
   5   0   3    3.60    2.70
   5   0   3    6.80    2.60
   6   0   3  199.28   15.70
   6   0   3  185.98   12.20
   6   0   3  194.18   13.90
   7  -1  -3   -4.30    7.40
   7  -1  -3    7.40    6.00
   6  -1  -3   25.70    5.00
   6  -1  -3   35.50    6.40
   5  -1  -3   64.29    7.20
   4  -1  -3  592.14   30.80
   4  -1  -3  564.94   30.80
   4  -1  -3  575.04   29.70
   4  -1  -3  614.54   31.60
  -4   1   3  604.34   31.80
   3  -1  -3    7.20    1.50
   3  -1  -3    3.80    1.40
   3  -1  -3    4.80    1.90
   3  -1  -3    5.50    0.90
  -3   1   3    4.60    2.50
  -3   1   3    6.40    0.80
   2  -1  -3    3.30    0.70
   2  -1  -3    4.00    1.00
   2  -1  -3    5.20    1.10
   2  -1  -3    3.40    1.30
  -2   1   3    4.00    1.50
  -2   1   3    3.60    0.80
   1  -1  -3 6799.52  365.86
  -1   1   3 7561.44  365.56
  -1   1   3 7675.53  365.26
   0  -1  -3 1331.47   66.79
   0   1   3 1359.56   66.79
   0   1   3 1321.17   66.89
  -1  -1  -3 4009.30  200.28
  -1  -1  -3 4000.60  200.28
   1   1   3 4100.39  200.28
   1   1   3 3937.31  199.98
   1   1   3 4007.00  200.08
   1   1   3 4065.79  200.08
  -2  -1  -3  802.42   41.50
   2   1   3  837.02   41.50
   2   1   3  829.92   41.40
   2   1   3  823.12   41.40
   2   1   3  793.82   41.60
  -3  -1  -3  351.16   18.70
   3   1   3  348.87   18.50
   3   1   3  363.76   18.80
   3   1   3  340.07   18.80
   3   1   3  350.16   18.80
   3   1   3  361.46   19.40
   4   1   3  951.70   47.30
   4   1   3  906.01   47.10
   4   1   3  868.71   46.70
   4   1   3  957.80   48.00
   4   1   3  899.31   46.80
   5   1   3   40.10    5.50
   5   1   3   40.30    5.40
   5   1   3   41.50    6.40
   7  -2  -3   -4.60    4.90
   7  -2  -3    4.80    7.50
   6  -2  -3  115.59    7.30
   6  -2  -3  111.69    9.30
   6  -2  -3  117.89   11.20
   5  -2  -3   10.60    3.10
   5  -2  -3   11.00    2.00
   5  -2  -3   11.70    3.80
  -5   2   3    9.80    1.90
   4  -2  -3    6.10    1.60
   4  -2  -3    9.10    2.80
   4  -2  -3    9.60    2.00
  -4   2   3    6.10    3.20
  -4   2   3    8.50    1.50
   3  -2  -3 2980.70  152.58
   3  -2  -3 2982.60  151.78
   3  -2  -3 3022.30  151.58
  -3   2   3 3035.60  151.98
  -3   2   3 3238.68  152.98
  -3   2   3 2969.40  151.78
   2  -2  -3  831.12   41.60
   2  -2  -3  811.72   41.70
   2  -2  -3  813.72   42.20
  -2   2   3  834.12   41.70
  -2   2   3  798.62   42.00
  -2   2   3  865.41   42.50
   1  -2  -3 3524.35  171.58
   1  -2  -3 3548.55  171.48
   1  -2  -3 3104.49  170.98
  -1   2   3 3649.03  171.78
  -1   2   3 3569.14  171.58
  -1   2   3 3244.18  171.08
   0  -2  -3 1894.81   90.39
   0  -2  -3 1803.22   90.69
   0  -2  -3 1840.32   90.29
   0   2   3 1752.22   90.09
   0   2   3 1833.02   90.79
   0   2   3 1746.13   90.39
  -1  -2  -3  447.06   22.60
  -1  -2  -3  454.25   22.70
  -1  -2  -3  444.46   22.60
   1   2   3  444.86   22.30
   1   2   3  413.76   22.30
   1   2   3  438.56   22.80
  -2  -2  -3 2146.19  108.69
   2   2   3 2233.78  108.79
   2   2   3 2142.09  108.59
   2   2   3 2175.48  108.79
   2   2   3 2143.89  108.19
  -3  -2  -3   90.49    6.30
   3   2   3   83.59    6.10
   3   2   3   87.39    5.50
   3   2   3   75.29    6.30
   3   2   3   96.69    6.60
   3   2   3   87.39    6.00
  -4  -2  -3  460.95   24.80
   4   2   3  464.55   24.50
   4   2   3  463.95   25.30
   5   2   3   61.29    7.10
   5   2   3   81.39    8.50
   7  -3  -3   27.60    5.80
   7  -3  -3   34.20    8.00
   6  -3  -3   -2.30    5.10
   6  -3  -3    4.50    3.80
   6  -3  -3   -1.00    2.90
   5  -3  -3  232.08   13.00
  -5   3   3  229.28   12.70
  -5   3   3  238.08   13.70
   4  -3  -3    5.90    2.70
   4  -3  -3    2.20    1.60
   4  -3  -3    3.30    2.00
  -4   3   3    4.20    1.90
  -4   3   3    6.20    1.80
  -4   3   3    2.20    3.80
   3  -3  -3  843.92   42.40
   3  -3  -3  829.42   42.60
   3  -3  -3  802.42   43.30
  -3   3   3  845.52   43.70
  -3   3   3  856.41   42.70
  -3   3   3  838.02   42.60
   2  -3  -3  337.67   18.40
   2  -3  -3  345.37   17.50
   2  -3  -3  348.47   18.20
  -2   3   3  334.77   17.80
  -2   3   3  347.27   18.70
  -2   3   3  347.47   18.30
   1  -3  -3  138.09    7.90
   1  -3  -3  137.69    7.60
  -1   3   3  134.39    8.10
  -1   3   3  137.69    8.10
  -1   3   3  138.49    7.30
   0  -3  -3 1034.50   53.59
   0  -3  -3 1034.00   53.89
   0   3   3 1003.70   53.99
   0   3   3 1176.68   52.99
  -1  -3  -3   77.59    4.90
  -1  -3  -3   77.79    5.20
   1   3   3   75.29    4.40
   1   3   3   67.49    5.30
  -2  -3  -3  146.59    9.30
  -2  -3  -3  167.78    9.20
   2   3   3  146.39    9.40
   2   3   3  154.08    8.60
  -3  -3  -3  138.29    8.90
   3   3   3  133.09    8.30
   4   3   3    2.90    3.20
   7  -4  -3    3.90    5.60
   7  -4  -3   -6.40    6.70
   6  -4  -3    2.20    5.00
   6  -4  -3    0.60    3.30
  -6   4   3    5.10    3.50
   5  -4  -3   11.40    2.90
   5  -4  -3    7.40    4.80
  -5   4   3    8.90    3.10
  -5   4   3   11.20    2.90
   4  -4  -3  349.17   19.80
   4  -4  -3  359.46   18.80
   4  -4  -3  326.77   18.40
  -4   4   3  339.17   18.80
  -4   4   3  358.46   18.90
   3  -4  -3   70.49    5.80
   3  -4  -3   65.59    4.30
   3  -4  -3   76.29    5.20
  -3   4   3   55.99    6.20
  -3   4   3   62.69    4.80
  -3   4   3   64.39    5.40
   2  -4  -3  296.87   14.90
   2  -4  -3  297.97   16.00
   2  -4  -3  299.07   15.80
  -2   4   3  287.07   16.30
  -2   4   3  284.77   16.10
  -2   4   3  285.17   15.30
   1  -4  -3  461.45   23.30
   1  -4  -3  449.26   22.40
   1  -4  -3  448.16   22.30
  -1   4   3  433.86   22.20
  -1   4   3  422.86   23.40
  -1   4   3  408.06   23.30
   0  -4  -3  127.99    8.10
   0  -4  -3  118.09    7.40
   0   4   3  140.59    6.80
  -1  -4  -3  582.04   31.70
  -1  -4  -3  634.04   32.10
   1   4   3  626.54   31.10
  -2  -4  -3    5.00    2.50
  -2  -4  -3    1.20    4.10
   2   4   3    2.70    1.70
  -3  -4  -3  172.38   11.70
   3   4   3  174.68   10.10
   7  -5  -3   20.40    8.00
   7  -5  -3    1.60    5.20
  -7   5   3   -3.70    4.50
   6  -5  -3   67.79   11.50
   6  -5  -3   70.69    8.00
  -6   5   3   84.49    8.10
  -5   5   3   16.00    3.40
   4  -5  -3    4.70    3.40
   4  -5  -3    6.50    2.90
  -4   5   3    5.00    2.50
   3  -5  -3  479.35   26.10
   3  -5  -3  523.85   27.50
   3  -5  -3  535.85   27.50
  -3   5   3  498.65   27.90
  -3   5   3  531.85   26.90
   2  -5  -3   37.60    4.50
   2  -5  -3   41.20    3.80
  -2   5   3   30.90    3.70
  -2   5   3   30.90    5.00
   1  -5  -3  241.38   13.30
   1  -5  -3  242.38   16.60
  -1   5   3  258.27   13.10
   0  -5  -3   66.49    5.80
   0   5   3   89.29    4.70
  -1  -5  -3  134.39    9.40
   1   5   3  140.29    7.50
  -2  -5  -3  150.48   11.00
   2   5   3  170.28    9.40
   6  -6  -3    5.70    6.70
   6  -6  -3    5.50    5.10
  -6   6   3    1.60    4.60
   5  -6  -3  133.29   12.00
   5  -6  -3  146.29   10.50
  -5   6   3  133.49   10.30
   4  -6  -3   26.00    4.40
   4  -6  -3   23.40    4.80
  -4   6   3   25.80    3.90
   3  -6  -3   15.30    3.80
   3  -6  -3   25.80    4.50
  -3   6   3   18.40    5.30
  -3   6   3   23.90    3.50
   2  -6  -3   31.20    3.70
  -2   6   3   35.50    4.80
   1  -6  -3   30.00    4.40
  -1   6   3   32.20    4.00
   0  -6  -3   79.29    8.30
   0   6   3   96.49    5.80
  -1  -6  -3   10.10    4.20
   1   6   3    7.60    3.20
   5  -7  -3   17.40    6.80
   5  -7  -3    8.50    5.80
  -5   7   3   -0.30    4.20
   4  -7  -3   84.99    9.00
   4  -7  -3   61.79    9.00
  -4   7   3   83.69    8.50
   3  -7  -3   36.70    5.80
  -3   7   3   36.80    5.10
   2  -7  -3   57.69    8.40
  -2   7   3   65.39    7.70
   1  -7  -3    7.90    4.80
   0   7  -4   35.40    4.80
   0  -7   4   31.20    5.80
  -1   7  -4  219.88   12.60
   1  -7   4  213.28   14.30
  -2   7  -4    0.90    3.00
   2  -7   4   -0.70    3.70
  -3   7  -4  264.77   15.20
   3  -7   4  243.58   16.00
   3  -7   4  247.88   16.20
  -4   7  -4    2.70    3.90
   4  -7   4    3.90    4.50
  -5   7  -4    3.20    5.00
   5  -7   4   13.80    7.70
   5  -7   4    5.10    5.00
   1   6  -4  211.88   11.80
  -1  -6   4  219.98   13.60
   0   6  -4   80.89    5.10
   0  -6   4   73.59    7.50
  -1   6  -4  315.47   16.70
  -2   6  -4  307.67   15.40
   2  -6   4  258.97   15.10
   2  -6   4  270.07   16.00
  -3   6  -4   24.90    3.60
   3  -6   4   16.70    4.30
   3  -6   4   23.50    4.80
  -4   6  -4  236.58   13.10
   4  -6   4  183.28   13.30
   4  -6   4  207.08   14.70
  -5   6  -4   20.70    4.40
   5  -6   4   16.60    4.50
   5  -6   4   17.10    6.50
  -6   6  -4   43.80    6.30
   6  -6   4   59.99    9.50
   6  -6   4   49.70    6.60
   3   5  -4   41.50    5.60
   2   5  -4  111.19    7.70
  -2  -5   4  124.99    8.40
   1   5  -4  154.08    8.80
  -1  -5   4  150.18    9.80
   0   5  -4  761.32   38.20
   0  -5   4  752.62   39.30
  -1   5  -4   33.20    2.90
   1  -5   4   31.50    3.90
  -2   5  -4  433.76   21.70
   2  -5   4  409.46   22.50
   2  -5   4  403.76   21.90
   2  -5   4  416.36   22.70
  -3   5  -4  244.48   13.10
   3  -5   4  237.18   14.30
   3  -5   4  211.98   13.70
   3  -5   4  224.48   14.20
  -4   5  -4  157.28   11.40
   4  -5   4  153.28   11.50
  -5   5  -4  379.16   21.90
   5  -5   4  384.76   21.40
  -6   5  -4   26.40    5.30
   6  -5   4   23.80    7.30
   6  -5   4   20.00    4.80
  -7   5  -4  178.58   14.30
   7  -5   4  160.58   13.50
   7  -5   4  178.38   17.80
   4   4  -4   31.00    4.50
   3   4  -4   77.29    6.00
  -3  -4   4   78.09    6.10
   2   4  -4  874.81   42.60
   2   4  -4  774.02   42.70
  -2  -4   4  855.21   42.80
   1   4  -4   47.40    4.70
   1   4  -4   60.79    4.20
  -1  -4   4   58.99    4.60
   0   4  -4  649.74   34.60
   0   4  -4  682.53   33.90
   0  -4   4  650.43   34.50
   0  -4   4  703.73   34.80
  -1   4  -4  282.27   14.70
  -1   4  -4  282.87   15.50
   1  -4   4  296.97   15.50
   1  -4   4  291.37   15.70
   1  -4   4  273.77   14.80
  -2   4  -4  157.88    8.70
  -2   4  -4  157.18    9.20
   2  -4   4  159.88    9.30
   2  -4   4  144.39    8.20
   2  -4   4  164.98    9.80
   2  -4   4  157.98    9.30
  -3   4  -4  729.93   38.30
  -3   4  -4  785.72   38.30
   3  -4   4  672.53   37.50
   3  -4   4  762.92   38.60
   3  -4   4  764.12   39.40
   3  -4   4  755.72   38.90
  -4   4  -4    9.20    2.30
   4  -4   4    8.30    2.40
   4  -4   4   14.90    4.00
   5  -4   4  155.78   10.10
  -6   4  -4  225.28   14.90
   6  -4   4  221.08   14.10
   6  -4   4  234.98   17.40
  -7   4  -4   64.99    9.60
   7  -4   4   61.39    8.80
   7  -4   4   59.99   10.50
   4   3  -4  386.36   21.10
   3   3  -4    9.10    2.30
   3   3  -4    5.50    2.10
  -3  -3   4    7.90    1.90
   2   3  -4  192.48   10.10
   2   3  -4  171.38   10.10
  -2  -3   4  181.98   10.00
   1   3  -4 1094.19   58.39
   1   3  -4 1210.08   58.29
  -1  -3   4 1150.78   58.39
  -1  -3   4 1177.28   58.79
   0   3  -4  164.38    8.70
   0  -3   4  165.78    8.90
   0  -3   4  140.79    8.60
  -1   3  -4  558.54   29.40
  -1   3  -4  553.24   29.60
  -1   3  -4  519.75   28.90
   1  -3   4  594.64   29.20
   1  -3   4  645.94   29.20
   1  -3   4  572.04   29.50
  -2   3  -4    6.10    1.40
  -2   3  -4    7.50    1.60
   2  -3   4    7.30    1.00
   2  -3   4    5.60    1.40
   2  -3   4    6.60    2.00
   2  -3   4    4.60    1.90
  -3   3  -4  252.07   13.20
  -3   3  -4  229.38   12.80
   3  -3   4  240.08   14.10
   3  -3   4  227.48   12.50
   3  -3   4  246.78   13.90
   3  -3   4  231.88   13.00
  -4   3  -4  432.46   22.80
  -4   3  -4  473.05   23.50
   4  -3   4  398.36   22.60
   4  -3   4  465.45   24.70
   4  -3   4  417.56   24.10
   4  -3   4  430.06   23.00
   5  -3   4   31.40    4.30
  -6   3  -4   94.79    8.60
   6  -3   4   74.89   11.30
   7  -3   4   13.90    8.50
   7  -3   4   18.40    6.40
   7  -3   4   20.00    5.20
   5   2  -4   10.50    3.80
   5   2  -4   10.60    3.80
   4   2  -4   80.99    6.30
   4   2  -4   74.49    6.00
  -4  -2   4   84.39    8.20
   3   2  -4  526.45   27.50
   3   2  -4  545.25   27.90
   3   2  -4  518.85   27.10
  -3  -2   4  552.24   28.30
   2   2  -4    8.10    1.30
   2   2  -4    6.60    1.30
   2   2  -4    6.80    1.40
  -2  -2   4    7.00    2.00
  -2  -2   4    7.60    2.00
   1   2  -4 1652.93   84.79
   1   2  -4 1699.03   84.89
   1   2  -4 1644.54   84.69
  -1  -2   4 1748.93   85.19
  -1  -2   4 1735.63   84.89
  -1  -2   4 1699.83   84.89
   0   2  -4  249.58   12.30
   0   2  -4  249.28   12.40
   0   2  -4  229.58   12.50
   0  -2   4  234.48   12.30
   0  -2   4  231.28   12.50
  -1   2  -4  807.82   39.20
  -1   2  -4  762.32   39.40
  -1   2  -4  712.13   38.90
   1  -2   4  775.82   39.20
   1  -2   4  819.82   39.20
  -2   2  -4 1600.04   79.69
  -2   2  -4 1532.35   80.39
  -2   2  -4 1606.94   79.69
   2  -2   4 1613.44   80.09
   2  -2   4 1503.25   79.69
   2  -2   4 1676.73   79.39
  -3   2  -4  220.58   12.10
  -3   2  -4  232.78   12.50
   3  -2   4  221.08   12.20
   3  -2   4  229.68   13.30
   3  -2   4  234.88   13.20
   3  -2   4  224.48   12.10
  -4   2  -4 1610.74   82.49
  -4   2  -4 1734.43   83.29
   4  -2   4 1597.84   83.69
   4  -2   4 1721.23   84.39
   4  -2   4 1529.45   82.59
   4  -2   4 1659.33   82.69
  -5   2  -4  119.59   10.00
   5  -2   4  121.19    8.30
   5  -2   4  125.99    7.90
   6  -2   4   32.60    5.60
   6  -2   4   21.90    7.00
   6  -2   4   27.90    4.10
   7  -2   4   89.29   12.40
   7  -2   4   94.79   11.80
   7  -2   4   81.59   10.90
   6   1  -4   38.40    6.60
   6   1  -4   45.00    6.40
   5   1  -4  167.48   11.30
   5   1  -4  161.48   10.90
   4   1  -4   59.39    5.00
   4   1  -4   51.69    5.30
  -4  -1   4   50.79    6.90
   3   1  -4 1060.79   53.59
   3   1  -4 1054.49   53.59
  -3  -1   4 1080.39   54.19
  -3  -1   4 1020.20   53.79
   2   1  -4  119.49    6.80
   2   1  -4  118.09    6.80
  -2  -1   4  119.19    7.10
  -2  -1   4  117.49    7.50
   1   1  -4   87.09    4.40
   1   1  -4   81.39    4.60
   1   1  -4   82.69    4.90
  -1  -1   4   81.29    4.80
  -1  -1   4   83.19    4.90
  -1  -1   4   83.19    4.50
   0   1  -4 1354.16   71.39
   0   1  -4 1386.26   71.39
   0   1  -4 1515.65   71.29
   0  -1   4 1513.05   71.49
   0  -1   4 1485.75   71.39
   0  -1   4 1319.57   71.29
  -1   1  -4  678.83   36.00
  -1   1  -4  689.53   35.70
   1  -1   4  694.03   35.80
   1  -1   4  743.83   35.50
   1  -1   4  743.23   35.90
  -2   1  -4  484.25   26.40
  -2   1  -4  501.75   25.80
  -2   1  -4  496.35   25.70
   2  -1   4  530.05   25.70
   2  -1   4  511.25   25.80
   2  -1   4  502.55   26.10
  -3   1  -4 1656.23   83.19
   3  -1   4 1704.93   82.89
   3  -1   4 1612.44   83.79
   3  -1   4 1647.94   82.79
   3  -1   4 1631.74   82.79
   3  -1   4 1641.34   83.49
  -4   1  -4   54.49    5.10
   4  -1   4   50.69    4.90
   4  -1   4   55.59    6.20
   4  -1   4   64.49    4.40
   4  -1   4   54.99    6.20
   4  -1   4   59.19    4.60
   5  -1   4  546.85   27.50
   5  -1   4  542.15   29.90
   5  -1   4  507.45   31.60
   5  -1   4  496.65   27.60
   6  -1   4    6.90    3.40
   6  -1   4    5.80    6.40
   6  -1   4   -7.20    4.30
   6   0  -4   38.50    5.50
   6   0  -4   40.60    6.70
   5   0  -4    1.40    3.60
   4   0  -4  752.12   38.20
   4   0  -4  746.63   38.60
  -4   0   4  710.83   39.00
   3   0  -4  197.58   11.10
   3   0  -4  193.98   11.40
   3   0  -4  200.98   11.20
  -3   0   4  203.78   11.90
   2   0  -4 1162.28   59.39
   2   0  -4 1154.68   59.59
  -2   0   4 1194.48   59.89
  -2   0   4 1209.48   59.49
   1   0  -4    3.70    0.50
   1   0  -4    2.10    0.70
   1   0  -4    2.00    0.60
  -1   0   4    2.40    0.50
  -1   0   4    1.90    0.80
  -1   0   4    3.60    0.70
   0   0  -4   60.79    3.50
   0   0  -4   71.89    3.90
   0   0  -4   76.29    3.90
   0   0   4   69.99    3.90
   0   0   4   77.99    3.90
   0   0   4   62.49    3.60
  -1   0  -4 5004.60  258.57
  -1   0  -4 5149.48  258.67
  -1   0  -4 5522.95  258.37
   1   0   4 5095.99  258.47
   1   0   4 5196.18  258.57
  -2   0  -4    5.70    1.40
  -2   0  -4    8.20    1.80
   2   0   4    8.10    1.40
   2   0   4   10.60    1.40
   2   0   4    9.60    1.70
   2   0   4    8.10    1.50
   3   0   4 1053.19   56.09
   3   0   4 1140.49   55.39
   3   0   4 1127.89   55.69
   3   0   4 1040.60   55.19
   3   0   4 1055.99   55.29
   3   0   4 1139.69   55.59
   4   0   4   62.59    4.70
   4   0   4   61.79    4.80
   4   0   4   58.79    5.50
   4   0   4   54.59    6.10
   4   0   4   57.89    6.60
   4   0   4   59.99    5.30
   5   0   4    7.00    2.90
   5   0   4    7.40    4.70
   5   0   4    8.60    3.60
   6   0   4   90.39   12.70
   6   0   4   94.79   10.10
   6   0   4   82.39   12.50
   7  -1  -4   -8.80    7.10
   7  -1  -4    6.50    7.20
   6  -1  -4  233.78   15.00
   6  -1  -4  251.07   16.50
   5  -1  -4   11.00    3.70
   5  -1  -4    4.40    3.10
   4  -1  -4  283.47   15.20
   4  -1  -4  282.27   15.70
   4  -1  -4  258.27   15.20
  -4   1   4  264.07   16.20
   3  -1  -4 1031.80   52.79
   3  -1  -4 1022.60   53.29
   3  -1  -4 1070.09   52.09
   3  -1  -4 1020.20   52.69
  -3   1   4 1084.49   53.69
  -3   1   4 1017.50   51.99
   2  -1  -4  632.04   32.80
   2  -1  -4  599.74   33.10
   2  -1  -4  651.13   33.30
   2  -1  -4  659.53   32.50
  -2   1   4  690.83   33.60
  -2   1   4  647.44   32.50
  -1   1   4 9999.00  497.45
   0  -1  -4  177.68    9.40
   0   1   4  179.78    9.50
   0   1   4  181.38    9.40
  -1  -1  -4 3627.74  187.48
  -1  -1  -4 3831.22  187.58
   1   1   4 3843.02  187.58
   1   1   4 3651.43  187.28
   1   1   4 3716.33  187.28
   1   1   4 3904.31  187.38
  -2  -1  -4 1868.81   93.09
  -2  -1  -4 1799.12   93.29
   2   1   4 1877.71   92.89
   2   1   4 1894.01   92.79
   2   1   4 1846.02   92.89
   2   1   4 1835.62   92.89
  -3  -1  -4  226.78   12.60
   3   1   4  230.88   12.50
   3   1   4  235.78   12.50
   3   1   4  212.58   12.50
   3   1   4  227.48   13.20
   3   1   4  213.18   12.30
   4   1   4  476.85   26.00
   4   1   4  461.55   26.00
   4   1   4  521.45   26.50
   4   1   4  524.95   27.40
   4   1   4  491.05   26.20
   5   1   4   -2.00    5.10
   5   1   4    4.40    4.00
   5   1   4    6.90    3.40
   7  -2  -4    3.60    5.40
   7  -2  -4   -1.60    7.10
   6  -2  -4   49.50    7.10
   6  -2  -4   55.49    7.10
   5  -2  -4  162.48   10.50
   5  -2  -4  164.88    9.20
   5  -2  -4  171.38   11.70
  -5   2   4  168.28    9.20
   4  -2  -4  261.37   14.50
   4  -2  -4  258.37   15.20
   4  -2  -4  268.87   13.70
   4  -2  -4  248.58   14.40
  -4   2   4  261.67   13.60
  -4   2   4  257.87   15.80
   3  -2  -4 1140.89   58.89
   3  -2  -4 1112.79   59.49
   3  -2  -4 1156.38   58.59
  -3   2   4 1203.88   59.99
  -3   2   4 1182.58   58.99
  -3   2   4 1198.98   58.69
   2  -2  -4   61.39    3.90
   2  -2  -4   60.19    3.80
   2  -2  -4   60.29    4.30
  -2   2   4   60.09    3.80
  -2   2   4   62.09    4.00
  -2   2   4   58.39    4.70
   1  -2  -4  546.35   27.30
   1  -2  -4  534.45   27.40
  -1   2   4  524.05   27.40
   0  -2  -4 3704.13  178.58
   0  -2  -4 3565.34  178.88
   0   2   4 3533.25  178.58
   0   2   4 3536.85  178.88
  -1  -2  -4  360.26   18.60
  -1  -2  -4  361.66   18.90
  -1  -2  -4  372.06   18.80
   1   2   4  362.86   18.90
   1   2   4  335.87   18.40
   1   2   4  373.26   18.50
  -2  -2  -4  336.67   17.20
   2   2   4  307.97   16.90
   2   2   4  312.27   17.20
   2   2   4  326.57   17.10
   2   2   4  330.67   16.60
  -3  -2  -4   53.99    4.80
   3   2   4   47.20    3.70
   3   2   4   47.50    5.20
   3   2   4   46.30    4.70
   3   2   4   44.40    4.30
   3   2   4   42.20    4.70
  -4  -2  -4   51.89    5.90
   4   2   4   56.39    7.10
   4   2   4   56.79    7.20
   5   2   4  112.19    9.90
   5   2   4  135.49   10.40
   7  -3  -4    6.10    6.90
   7  -3  -4    5.30    5.20
   6  -3  -4   19.10    3.20
   6  -3  -4   22.70    4.50
   6  -3  -4   21.70    5.40
   5  -3  -4  119.79    7.60
  -5   3   4  123.09    7.50
   4  -3  -4   39.20    3.60
   4  -3  -4   47.90    5.20
   4  -3  -4   41.30    4.50
  -4   3   4   46.10    4.00
  -4   3   4   38.00    5.90
  -4   3   4   46.20    4.20
   3  -3  -4  602.14   32.30
   3  -3  -4  613.34   31.60
   3  -3  -4  625.54   31.50
  -3   3   4  614.74   32.90
  -3   3   4  611.54   31.70
  -3   3   4  625.24   31.70
   2  -3  -4  916.31   44.60
   2  -3  -4  900.21   44.70
   2  -3  -4  776.02   43.90
  -2   3   4  917.91   45.20
  -2   3   4  879.21   44.60
  -2   3   4  867.01   44.20
   1  -3  -4  211.48   11.10
   1  -3  -4  214.18   11.60
  -1   3   4  208.38   11.70
  -1   3   4  204.08   11.70
   0  -3  -4  176.88   10.80
   0  -3  -4  216.58   11.40
   0   3   4  218.78   11.10
   0   3   4  214.98   11.60
  -1  -3  -4  296.77   16.00
  -1  -3  -4  303.67   16.40
   1   3   4  295.27   16.60
   1   3   4  319.37   15.60
  -2  -3  -4  131.49    8.10
   2   3   4  130.29    7.40
   3   3   4  275.37   15.00
  -4  -3  -4   -7.50    4.30
   4   3   4    0.70    3.10
   7  -4  -4   11.40    5.50
   7  -4  -4   16.90    7.70
   6  -4  -4   43.30    5.70
   6  -4  -4   42.90    7.10
   5  -4  -4   34.90    4.80
  -5   4   4   37.50    5.00
  -5   4   4   36.10    5.20
   4  -4  -4  233.68   13.80
   4  -4  -4  202.38   12.50
   4  -4  -4  230.98   12.70
  -4   4   4  215.68   12.80
  -4   4   4  232.18   12.90
   3  -4  -4  220.18   12.60
   3  -4  -4  227.98   12.20
   3  -4  -4  190.58   11.20
  -3   4   4  225.58   11.90
  -3   4   4  205.78   13.10
  -3   4   4  204.28   12.20
   2  -4  -4  550.04   27.40
   2  -4  -4  517.05   27.00
   2  -4  -4  503.95   26.10
  -2   4   4  523.75   27.70
  -2   4   4  513.35   27.50
  -2   4   4  516.55   26.60
   1  -4  -4  447.96   23.60
   1  -4  -4  496.35   23.80
   1  -4  -4  487.85   24.70
  -1   4   4  458.15   23.60
  -1   4   4  443.86   25.00
  -1   4   4  457.45   24.50
   0  -4  -4   20.50    2.90
   0  -4  -4   23.60    2.70
   0   4   4   28.60    1.90
  -1  -4  -4  717.73   37.40
  -1  -4  -4  668.23   37.00
   1   4   4  778.22   36.40
  -2  -4  -4    7.30    3.50
   2   4   4    6.80    1.90
  -3  -4  -4   81.69    8.50
   3   4   4  101.19    6.60
   7  -5  -4    5.60    6.70
   7  -5  -4   -2.40    7.70
   6  -5  -4   30.20    5.10
   6  -5  -4   36.00    6.60
  -6   5   4   36.30    5.30
   5  -5  -4   -0.10    4.30
  -5   5   4    4.70    3.20
   4  -5  -4    8.30    4.50
   4  -5  -4   10.10    3.90
   4  -5  -4    9.30    3.20
  -4   5   4   14.10    3.00
   3  -5  -4   83.99    6.70
   3  -5  -4   81.89    5.10
   3  -5  -4   93.99    6.90
  -3   5   4   74.99    8.20
  -3   5   4   83.99    6.20
   2  -5  -4    0.80    1.30
   2  -5  -4    3.00    2.00
  -2   5   4    7.10    3.20
  -2   5   4    3.90    1.80
   1  -5  -4  308.67   16.70
  -1   5   4  324.87   16.50
   0  -5  -4   43.00    4.70
   0  -5  -4   46.10    7.30
   0   5   4   42.10    3.10
  -1  -5  -4  225.18   14.10
   1   5   4  247.58   12.30
  -2  -5  -4  113.59    9.20
   6  -6  -4    8.60    7.00
   6  -6  -4   -7.00    5.20
  -6   6   4    2.20    4.60
   5  -6  -4   41.00    5.70
   5  -6  -4   40.40    6.80
  -5   6   4   49.10    7.00
   4  -6  -4   10.80    4.10
  -4   6   4    6.20    3.30
   3  -6  -4    6.80    3.70
   3  -6  -4    2.80    3.10
   3  -6  -4    3.60    2.90
  -3   6   4    7.30    2.90
  -3   6   4   12.70    5.60
   2  -6  -4   82.49    5.80
   2  -6  -4   88.69    7.60
  -2   6   4   87.69    6.60
   1  -6  -4  136.39    9.80
  -1   6   4  123.49    7.80
   0  -6  -4   54.39    7.30
   0   6   4   52.99    4.40
  -1  -6  -4   -2.90    4.10
   5  -7  -4   -1.60    5.70
   5  -7  -4   -0.10    6.30
  -5   7   4    4.70    4.60
   4  -7  -4   48.70    6.70
  -4   7   4   64.49    8.10
   3  -7  -4   23.40    5.00
   2  -7  -4   32.20    5.60
   0   7  -5   33.90    5.10
   0  -7   5   32.70    5.90
  -1   7  -5  110.89    7.70
   1  -7   5   95.19    9.50
  -2   7  -5   31.10    4.20
   2  -7   5   23.70    5.20
  -3   7  -5   51.99    6.80
   3  -7   5   42.80    6.10
   3  -7   5   38.30    6.60
  -4   7  -5   76.19    8.50
   4  -7   5   70.49    8.80
   4  -7   5   81.39   11.50
  -5   7  -5   10.50    4.60
   5  -7   5    5.90    5.10
   5  -7   5   -6.20    7.60
   1   6  -5  300.27   15.60
  -1  -6   5  282.57   17.20
   0   6  -5  164.18    9.20
  -1   6  -5  196.78   11.00
  -2   6  -5  304.57   15.20
   2  -6   5  274.27   16.10
   2  -6   5  244.38   14.80
  -3   6  -5   47.70    5.50
   3  -6   5   51.29    7.60
   3  -6   5   45.30    6.90
   3  -6   5   48.50    7.00
  -4   6  -5  505.95   27.10
   4  -6   5  509.45   29.10
   4  -6   5  489.95   27.60
  -5   6  -5   14.90    4.30
   5  -6   5    9.90    4.50
   5  -6   5    5.30    6.00
  -6   6  -5    4.80    4.70
   6  -6   5   13.40    8.00
   6  -6   5   12.50    5.40
   3   5  -5  215.38   12.80
   2   5  -5  101.79    7.00
  -2  -5   5   94.39    7.50
   1   5  -5   58.49    4.50
  -1  -5   5   59.09    5.60
   0   5  -5 1088.99   53.29
   0  -5   5 1005.00   53.69
  -1   5  -5   39.60    3.50
   1  -5   5   49.80    4.80
   1  -5   5   46.00    3.90
  -2   5  -5  778.62   40.00
   2  -5   5  760.62   40.10
   2  -5   5  808.92   40.90
   2  -5   5  789.22   41.00
  -3   5  -5  534.25   28.00
   3  -5   5  522.85   28.50
   3  -5   5  542.55   29.20
  -4   5  -5   74.89    6.80
   4  -5   5   78.59    6.70
   4  -5   5   70.89    8.30
   5  -5   5  700.23   37.60
   5  -5   5  720.13   39.60
  -6   5  -5   -1.90    4.40
   6  -5   5   -1.70    4.20
   6  -5   5    2.90    6.90
   7  -5   5   42.00    7.30
   4   4  -5  102.89    8.30
   3   4  -5   37.60    4.50
  -3  -4   5   36.50    4.40
   2   4  -5  689.93   33.40
   2   4  -5  611.64   33.50
  -2  -4   5  647.64   33.50
   1   4  -5   13.80    2.50
   1   4  -5   17.30    2.60
  -1  -4   5   16.00    2.70
   0   4  -5   70.19    3.90
   0   4  -5   58.99    4.80
   0  -4   5   57.29    4.80
  -1   4  -5  944.81   52.49
  -1   4  -5 1050.79   53.29
   1  -4   5 1036.50   52.89
   1  -4   5 1075.59   53.39
   1  -4   5 1104.19   53.39
   1  -4   5 1075.69   52.59
  -2   4  -5   21.60    2.60
  -2   4  -5   23.00    2.90
   2  -4   5   23.00    2.00
   2  -4   5   25.00    3.20
   2  -4   5   26.00    3.80
   2  -4   5   25.10    3.30
  -3   4  -5 1298.37   61.99
  -3   4  -5 1201.78   61.99
   3  -4   5 1051.49   61.09
   3  -4   5 1269.77   62.29
   3  -4   5 1271.77   63.09
   3  -4   5 1236.68   62.49
  -4   4  -5  102.89    7.10
   4  -4   5  104.09    8.70
   4  -4   5   85.89    6.80
  -6   4  -5  151.18   11.50
   6  -4   5  141.59   10.60
   6  -4   5  141.69   14.00
  -7   4  -5    5.10    5.40
   7  -4   5   -5.50    8.70
   7  -4   5   14.90    5.70
   4   3  -5  186.28   11.50
   3   3  -5   19.30    2.60
   3   3  -5   24.80    3.60
  -3  -3   5   16.80    2.30
   2   3  -5   34.00    3.60
   2   3  -5   46.70    3.60
  -2  -3   5   44.90    3.40
   1   3  -5 1604.24   77.79
   1   3  -5 1509.55   77.89
  -1  -3   5 1546.25   77.99
  -1  -3   5 1542.95   78.39
   0   3  -5  110.09    6.50
   0   3  -5  111.19    6.40
   0  -3   5  109.89    6.60
  -1   3  -5 1856.21   96.59
  -1   3  -5 1894.21   96.39
   1  -3   5 2059.09   96.19
   1  -3   5 1898.21   96.09
   1  -3   5 1902.31   96.49
  -2   3  -5 1231.68   63.79
  -2   3  -5 1260.17   63.09
  -2   3  -5 1257.77   62.89
   2  -3   5 1262.97   63.29
   2  -3   5 1264.07   62.39
   2  -3   5 1221.58   63.19
  -3   3  -5  789.22   39.50
  -3   3  -5  766.92   39.30
   3  -3   5  783.82   39.50
   3  -3   5  764.52   40.40
   3  -3   5  732.63   38.80
   3  -3   5  780.32   40.00
  -4   3  -5 1115.69   60.19
  -4   3  -5 1234.28   60.89
   4  -3   5 1212.68   61.99
   4  -3   5 1196.78   60.49
  -5   3  -5    7.90    2.90
   5  -3   5    0.80    2.40
  -6   3  -5    3.50    4.60
   6  -3   5    1.30    3.40
   6  -3   5   15.50    6.30
   7  -3   5  175.88   12.40
   7  -3   5  161.78   14.40
   7  -3   5  147.39   17.30
   5   2  -5   33.60    4.50
   5   2  -5   42.30    6.00
   4   2  -5   10.30    2.90
   4   2  -5    8.50    2.50
  -4  -2   5    5.80    4.70
   3   2  -5  446.66   23.40
   3   2  -5  454.85   23.20
  -3  -2   5  437.66   24.00
   2   2  -5    1.70    1.00
   2   2  -5    3.10    1.00
   2   2  -5    2.20    1.20
  -2  -2   5    1.10    1.80
  -2  -2   5    2.40    1.10
  -2  -2   5    0.40    1.90
   1   2  -5   87.09    5.00
   1   2  -5   85.79    5.00
   1   2  -5   95.89    5.00
  -1  -2   5   82.29    5.20
  -1  -2   5   85.99    5.50
  -1  -2   5   86.49    5.10
   0   2  -5 6905.81  343.77
   0  -2   5 6470.75  343.47
   0  -2   5 7335.17  343.47
  -1   2  -5 1643.24   83.19
  -1   2  -5 1603.54   83.39
   1  -2   5 1758.02   82.79
   1  -2   5 1681.13   83.19
   1  -2   5 1616.14   83.19
  -2   2  -5 4423.26  229.98
  -2   2  -5 4614.94  229.28
  -2   2  -5 4716.33  229.38
   2  -2   5 4697.73  228.88
   2  -2   5 4390.06  229.38
   2  -2   5 4759.92  229.68
  -3   2  -5   60.29    4.30
  -3   2  -5   64.39    4.70
   3  -2   5   65.19    4.40
   3  -2   5   65.19    5.60
   3  -2   5   69.19    5.30
   3  -2   5   63.09    4.30
  -4   2  -5  203.38   11.60
  -4   2  -5  187.08   10.80
   4  -2   5  181.28   10.90
   4  -2   5  194.98   12.60
   4  -2   5  191.18   12.50
   4  -2   5  200.88   11.00
   5  -2   5  521.95   30.20
   5  -2   5  545.65   28.20
   6  -2   5   19.00    4.00
   6  -2   5   22.80    6.80
   6  -2   5   13.40    4.70
   6   1  -5    8.50    4.90
   6   1  -5    7.00    5.20
   5   1  -5   14.10    3.50
   5   1  -5   16.00    3.90
   4   1  -5   -3.00    2.20
  -4  -1   5   -1.80    3.90
   3   1  -5   18.30    2.80
   3   1  -5   14.50    2.40
  -3  -1   5   19.30    3.50
  -3  -1   5   15.50    2.80
   2   1  -5  554.64   28.80
   2   1  -5  550.94   28.90
  -2  -1   5  585.64   29.40
  -2  -1   5  566.94   29.20
   1   1  -5  509.85   26.30
   1   1  -5  521.35   26.50
   1   1  -5  505.05   26.50
  -1  -1   5  530.15   26.40
  -1  -1   5  530.55   26.80
  -1  -1   5  550.84   26.80
   0   1  -5  993.00   45.10
   0   1  -5  877.81   45.20
   0  -1   5  842.32   45.20
   0  -1   5  896.21   45.40
  -1   1  -5 1305.77   64.39
  -1   1  -5 1288.97   64.89
  -1   1  -5 1278.67   64.59
   1  -1   5 1372.96   64.19
   1  -1   5 1237.18   64.59
   1  -1   5 1243.88   64.59
  -2   1  -5  546.55   30.20
  -2   1  -5  575.54   29.70
   2  -1   5  595.24   29.90
   2  -1   5  596.54   29.70
   2  -1   5  582.34   29.40
   2  -1   5  587.94   29.70
  -3   1  -5 1016.20   51.09
   3  -1   5 1037.50   50.89
   3  -1   5  956.20   50.59
   3  -1   5  998.10   51.39
   3  -1   5 1008.50   50.89
  -4   1  -5    6.90    2.70
   4  -1   5    6.70    3.10
   4  -1   5    8.70    2.30
   4  -1   5   10.70    2.20
   4  -1   5    5.70    3.20
   4  -1   5    4.80    2.10
   5  -1   5  334.67   19.90
   5  -1   5  353.76   18.60
   5  -1   5  321.07   21.00
   6  -1   5   20.30    6.90
   6  -1   5   18.40    5.30
   6  -1   5   21.70    4.20
   6   0  -5   44.50    6.80
   6   0  -5   61.89    7.50
   5   0  -5   51.49    6.60
   4   0  -5  174.88   10.80
   4   0  -5  180.78   10.40
  -4   0   5  162.38   11.80
   3   0  -5    0.50    1.50
   3   0  -5    0.80    1.20
  -3   0   5    0.30    2.20
   2   0  -5 2042.40  103.69
   2   0  -5 1998.60  103.39
  -2   0   5 2094.39  103.99
  -2   0   5 2134.29  103.59
   1   0  -5 1715.73   81.69
   1   0  -5 1405.36   81.79
   1   0  -5 1665.13   81.89
  -1   0   5 1692.63   81.59
  -1   0   5 1554.54   82.59
  -1   0   5 1785.72   81.89
   0   0  -5 1175.28   59.39
   0   0  -5 1056.79   58.89
   0   0  -5 1229.78   59.39
   0   0   5 1249.07   59.39
   0   0   5 1126.89   58.99
   0   0   5 1271.97   59.39
  -1   0  -5 1986.70   93.89
  -1   0  -5 1823.82   94.19
  -1   0  -5 1886.11   94.29
   1   0   5 1892.41   94.19
   1   0   5 1807.72   93.99
   1   0   5 1894.41   93.69
  -2   0  -5  487.25   26.50
  -2   0  -5  541.45   26.00
   2   0   5  504.15   26.00
   2   0   5  464.65   26.00
   2   0   5  518.35   26.10
   2   0   5  517.15   25.80
   3   0   5  769.92   36.70
   3   0   5  717.93   36.90
   3   0   5  688.23   36.60
   3   0   5  667.63   36.60
   3   0   5  700.93   37.50
   3   0   5  746.23   36.80
   4   0   5  315.57   16.70
   4   0   5  306.57   16.90
   4   0   5  292.37   17.30
   4   0   5  330.47   17.10
   4   0   5  283.17   16.60
   4   0   5  303.47   18.00
   5   0   5    2.60    3.10
   5   0   5   11.80    4.00
   5   0   5   14.90    7.30
   6   0   5  179.28   12.10
   6   0   5  152.18   15.40
   6   0   5  178.98   13.70
   6  -1  -5   74.09    9.40
   6  -1  -5   69.29    8.00
   5  -1  -5    2.40    2.80
   5  -1  -5    0.70    3.00
   4  -1  -5  127.09    8.50
   4  -1  -5  137.79    8.00
   4  -1  -5  113.89    8.10
  -4   1   5  110.99    9.50
   3  -1  -5  867.51   45.00
   3  -1  -5  895.21   45.60
   3  -1  -5  897.71   44.30
   3  -1  -5  861.41   45.10
  -3   1   5  892.71   44.30
  -3   1   5  897.31   46.00
   2  -1  -5  258.27   14.00
   2  -1  -5  267.87   13.70
   2  -1  -5  268.77   14.40
  -2   1   5  273.97   13.80
  -2   1   5  265.57   14.70
   1  -1  -5  665.53   33.80
   1  -1  -5  653.03   34.00
  -1   1   5  668.73   34.20
  -1   1   5  697.13   33.90
   0  -1  -5 1673.63   81.49
   0  -1  -5 1593.64   81.59
   0   1   5 1694.63   81.69
   0   1   5 1559.24   81.49
  -1  -1  -5 1423.76   73.99
  -1  -1  -5 1492.25   74.09
   1   1   5 1519.65   73.79
   1   1   5 1462.75   74.09
  -2  -1  -5  219.98   12.20
  -2  -1  -5  215.28   12.50
   2   1   5  226.58   12.10
   2   1   5  222.48   11.80
   2   1   5  227.38   11.90
   2   1   5  224.48   11.90
  -3  -1  -5  149.29    8.70
   3   1   5  151.18    8.60
   3   1   5  140.89    9.30
   3   1   5  137.69    8.50
   3   1   5  140.09    8.60
   3   1   5  138.69    8.40
   4   1   5   53.79    5.60
   4   1   5   60.19    6.40
   4   1   5   62.69    7.30
   4   1   5   56.69    5.60
   5   1   5   73.49    7.50
   5   1   5   82.39    8.10
   5   1   5   57.89   12.60
   7  -2  -5   15.70    7.30
   7  -2  -5   22.80    5.80
   6  -2  -5   26.40    4.70
   6  -2  -5   18.40    5.50
   5  -2  -5   55.69    4.00
   5  -2  -5   55.49    5.70
  -5   2   5   47.60    4.00
   4  -2  -5  316.17   17.10
   4  -2  -5  315.27   17.80
   4  -2  -5  299.37   17.00
   4  -2  -5  314.67   16.20
  -4   2   5  304.67   18.60
  -4   2   5  318.67   16.50
   3  -2  -5    0.40    1.40
   3  -2  -5    2.60    1.20
   3  -2  -5    2.30    1.50
   3  -2  -5    2.80    1.90
  -3   2   5    0.30    2.30
  -3   2   5    2.20    1.30
   2  -2  -5  612.74   31.30
   2  -2  -5  587.04   30.60
   2  -2  -5  616.84   30.80
  -2   2   5  595.34   31.60
  -2   2   5  608.34   30.90
  -2   2   5  609.54   30.70
   1  -2  -5  638.54   32.90
   1  -2  -5  646.84   32.80
  -1   2   5  656.33   33.00
  -1   2   5  639.64   33.10
   0  -2  -5   41.00    3.20
   0  -2  -5   48.90    3.20
   0   2   5   43.90    3.40
  -1  -2  -5    1.80    1.20
  -1  -2  -5    4.00    1.70
   1   2   5    0.00    1.00
   1   2   5   -0.20    1.10
   1   2   5    1.80    1.30
  -2  -2  -5  306.57   16.80
  -2  -2  -5  321.67   16.60
   2   2   5  311.27   16.00
   2   2   5  296.67   16.10
   2   2   5  295.47   16.60
   2   2   5  313.97   16.30
  -3  -2  -5  150.48    9.10
   3   2   5  144.39    9.50
   3   2   5  133.29    8.00
   3   2   5  140.79    8.50
   3   2   5  142.09    8.90
  -4  -2  -5   51.49    6.00
   4   2   5   55.79    5.90
   4   2   5   53.49    7.70
   5   2   5   78.39    9.20
   5   2   5  112.99    9.40
   7  -3  -5   11.60    5.40
   7  -3  -5   20.20    7.50
   6  -3  -5    5.60    4.60
   6  -3  -5    6.90    4.00
   6  -3  -5   11.30    2.90
   5  -3  -5   43.70    5.60
   5  -3  -5   47.10    4.40
  -5   3   5   47.80    4.40
   4  -3  -5  159.58   10.40
   4  -3  -5  181.08   11.40
   4  -3  -5  186.48   10.10
  -4   3   5  180.68   10.40
  -4   3   5  180.38   10.20
   3  -3  -5    2.50    1.80
   3  -3  -5    2.60    1.40
   3  -3  -5    1.70    2.10
  -3   3   5    4.00    1.90
  -3   3   5    0.50    2.60
  -3   3   5    3.50    1.50
   2  -3  -5  390.56   19.50
   2  -3  -5  370.36   19.60
   2  -3  -5  326.77   19.10
  -2   3   5  377.06   20.20
  -2   3   5  381.06   19.10
  -2   3   5  370.66   19.60
   1  -3  -5   33.60    2.70
   1  -3  -5   33.00    3.00
  -1   3   5   32.00    3.40
  -1   3   5   28.60    3.60
   0  -3  -5  147.99    7.90
   0  -3  -5  152.38    8.50
   0   3   5  135.19    8.50
   0   3   5  133.99    8.50
  -1  -3  -5  132.89    7.80
  -1  -3  -5  136.69    8.20
  -1  -3  -5  137.69    8.20
   1   3   5  119.79    8.50
   1   3   5  151.78    7.30
  -2  -3  -5   42.10    4.40
   2   3   5   39.90    4.40
   2   3   5   41.90    3.20
   3   3   5  394.16   20.80
  -4  -3  -5   44.40    6.30
   4   3   5   29.20    4.30
   7  -4  -5   -5.30    5.60
   7  -4  -5    3.40    6.90
   6  -4  -5   31.10    5.40
   6  -4  -5   37.50    6.70
   6  -4  -5   45.50    5.90
   5  -4  -5   13.90    3.20
  -5   4   5   10.50    3.50
  -5   4   5   14.30    3.00
   4  -4  -5  265.87   14.10
   4  -4  -5  266.37   15.30
   4  -4  -5  209.38   13.80
  -4   4   5  271.37   14.20
  -4   4   5  238.48   14.30
   3  -4  -5   22.30    3.30
   3  -4  -5   29.50    3.40
   3  -4  -5   22.20    2.70
  -3   4   5   25.40    3.30
  -3   4   5   23.40    4.10
  -3   4   5   18.50    3.20
   2  -4  -5  236.48   12.60
   2  -4  -5  209.98   11.60
   2  -4  -5  229.18   12.80
  -2   4   5  245.28   12.30
  -2   4   5  230.98   13.40
  -2   4   5  210.68   13.10
   1  -4  -5  136.39    7.40
   1  -4  -5  132.99    8.20
  -1   4   5  118.99    8.20
   0  -4  -5   29.40    3.80
   0   4   5   24.30    1.90
  -1  -4  -5  544.95   29.30
  -1  -4  -5  590.84   30.00
   1   4   5  566.84   28.50
  -2  -4  -5    3.10    2.90
   2   4   5    2.10    1.70
  -3  -4  -5   38.40    5.50
   3   4   5   26.50    5.30
   6  -5  -5   19.00    4.80
   6  -5  -5   19.50    6.00
  -6   5   5   24.20    4.60
   5  -5  -5   20.30    3.90
   5  -5  -5   10.20    4.70
  -5   5   5   14.90    5.80
   4  -5  -5   65.59    9.60
   4  -5  -5   65.49    7.10
  -4   5   5   70.49    6.20
   3  -5  -5   63.79    5.70
   3  -5  -5   52.29    3.70
   3  -5  -5   66.19    6.70
  -3   5   5   52.59    6.50
  -3   5   5   66.89    5.40
   2  -5  -5    5.80    2.00
   2  -5  -5    2.90    2.40
   2  -5  -5    1.00    1.30
  -2   5   5    3.60    3.60
  -2   5   5    6.50    2.20
   1  -5  -5  433.86   23.10
   1  -5  -5  486.45   23.10
  -1   5   5  428.26   23.80
  -1   5   5  437.06   22.90
   0  -5  -5    1.80    4.40
   0  -5  -5   10.10    3.00
   0   5   5    5.80    1.50
  -1  -5  -5   55.39    6.10
   1   5   5   53.59    3.50
  -2  -5  -5  146.99   11.20
   6  -6  -5    2.60    6.60
   6  -6  -5    6.20    5.50
  -6   6   5    2.10    4.70
   5  -6  -5   14.40    4.60
   5  -6  -5   20.90    5.90
  -5   6   5   19.90    4.40
   4  -6  -5    5.30    3.70
   4  -6  -5    1.10    3.90
  -4   6   5    2.80    3.30
   3  -6  -5   47.00    6.30
   3  -6  -5   49.99    5.90
  -3   6   5   42.20    5.80
   2  -6  -5   44.20    6.00
   2  -6  -5   42.00    4.50
  -2   6   5   41.40    5.30
   1  -6  -5   63.69    7.00
  -1   6   5   51.99    5.30
   0  -6  -5   43.50    5.90
   4  -7  -5   45.70    6.80
  -4   7   5   63.99    8.40
   3  -7  -5   81.29    9.40
   2  -7  -5    8.70    5.00
   0   7  -6   -1.80    3.00
   0  -7   6   -0.20    4.70
  -1   7  -6   38.50    5.50
   1  -7   6   42.90    5.70
  -2   7  -6   65.29    6.50
   2  -7   6   61.89    8.10
  -3   7  -6    6.80    3.90
   3  -7   6    6.10    5.50
   3  -7   6   11.60    4.30
  -4   7  -6  163.08   12.00
   4  -7   6  167.78   12.70
  -5   7  -6    7.30    5.40
   5  -7   6    3.30    5.40
   5  -7   6   13.50    8.20
   1   6  -6   58.59    4.80
  -1  -6   6   60.19    6.90
   0   6  -6  300.07   15.80
  -1   6  -6   74.79    5.30
  -2   6  -6  464.65   24.10
   2  -6   6  421.36   23.60
   2  -6   6  464.05   26.10
   2  -6   6  480.05   25.20
  -3   6  -6   16.40    3.50
   3  -6   6   11.90    4.60
   3  -6   6   16.00    4.60
   3  -6   6   18.70    3.90
  -4   6  -6  141.49   10.00
   4  -6   6  140.69   10.20
   4  -6   6  122.49   12.30
  -5   6  -6   34.60    5.50
   5  -6   6   29.70    7.60
   5  -6   6   25.90    5.10
  -6   6  -6   -3.50    4.80
   6  -6   6    8.10    8.60
   6  -6   6   -2.50    5.00
   3   5  -6   55.39    6.00
   2   5  -6  111.49    7.70
  -2  -5   6  115.89    8.40
   1   5  -6   26.00    3.20
  -1  -5   6   30.20    3.70
   0   5  -6  419.46   20.60
   0  -5   6  377.96   21.60
  -1   5  -6   66.89    4.70
   1  -5   6   74.89    5.90
   1  -5   6   77.79    6.00
   1  -5   6   69.79    4.80
  -2   5  -6  467.95   26.30
   2  -5   6  526.25   27.40
   2  -5   6  519.05   26.40
   2  -5   6  517.35   27.10
  -3   5  -6   71.29    5.90
   3  -5   6   73.89    6.80
   3  -5   6   67.49    7.40
   4  -5   6   -0.90    2.70
   4  -5   6    3.30    4.40
   5  -5   6  138.49   13.10
   5  -5   6  153.38   10.50
  -6   5  -6    6.30    4.40
   6  -5   6    0.70    4.50
   6  -5   6    6.10    7.50
   4   4  -6   14.40    3.60
   3   4  -6   10.50    2.70
  -3  -4   6    7.00    3.20
   2   4  -6  167.28   10.80
   2   4  -6  197.78   10.60
  -2  -4   6  191.88   10.80
   1   4  -6   91.69    6.40
   1   4  -6  102.69    6.10
  -1  -4   6   96.79    6.50
   0   4  -6  654.13   30.30
   0   4  -6  574.34   30.80
   0   4  -6  561.34   30.90
   0  -4   6  595.64   31.10
   0  -4   6  610.64   30.50
  -1   4  -6  220.98   12.30
  -1   4  -6  203.98   12.00
  -1   4  -6  218.88   11.40
   1  -4   6  226.78   11.50
   1  -4   6  212.78   12.20
  -2   4  -6    3.90    2.00
  -2   4  -6    4.00    1.50
   2  -4   6    5.50    2.00
   2  -4   6    5.10    1.80
   2  -4   6    2.70    1.00
  -3   4  -6  150.38    8.80
   3  -4   6  139.19    8.70
   3  -4   6  125.09    9.70
   3  -4   6  140.49    9.10
  -4   4  -6  419.16   23.00
   4  -4   6  417.86   24.20
   4  -4   6  428.86   22.90
   5  -4   6   -0.70    2.70
  -6   4  -6  105.59   10.00
   6  -4   6  106.59    9.20
   6  -4   6  101.49   12.30
  -7   4  -6    8.70    5.80
   7  -4   6   25.70   10.90
   7  -4   6   -0.40    5.70
   4   3  -6   44.40    5.50
   3   3  -6  364.16   18.80
   3   3  -6  340.67   18.10
  -3  -3   6  335.07   18.10
  -3  -3   6  360.66   19.40
   2   3  -6  431.66   21.20
   2   3  -6  408.26   21.00
   2   3  -6  376.46   20.70
  -2  -3   6  410.06   21.80
  -2  -3   6  405.06   21.00
   1   3  -6 1000.70   45.50
   1   3  -6  875.91   45.40
   1   3  -6  825.52   45.20
  -1  -3   6  915.61   45.60
  -1  -3   6  928.91   45.50
  -1  -3   6  842.22   46.00
   0   3  -6   90.09    5.60
   0   3  -6   96.79    5.00
   0   3  -6   88.09    5.50
   0  -3   6   84.89    5.60
  -1   3  -6 1280.87   66.09
  -1   3  -6 1235.28   65.39
  -1   3  -6 1325.57   65.79
   1  -3   6 1322.47   65.49
   1  -3   6 1289.17   65.89
   1  -3   6 1382.56   65.59
  -2   3  -6 1357.56   75.09
  -2   3  -6 1490.85   75.29
  -2   3  -6 1471.95   75.99
   2  -3   6 1579.94   74.69
   2  -3   6 1600.34   75.59
   2  -3   6 1476.55   75.49
  -3   3  -6   67.89    5.00
  -3   3  -6   66.59    4.60
   3  -3   6   68.39    5.50
   3  -3   6   58.69    3.90
   3  -3   6   62.59    4.60
   3  -3   6   67.39    5.90
  -4   3  -6   90.69    6.60
   4  -3   6   83.89    7.90
   4  -3   6   88.69    6.30
   5  -3   6  254.17   14.70
  -6   3  -6   23.70    5.50
   6  -3   6   29.30    4.60
   6  -3   6   32.50    7.10
   7  -3   6   50.19   10.50
   5   2  -6   46.30    6.60
   5   2  -6   62.69    6.50
   4   2  -6   42.50    4.60
   4   2  -6   46.70    5.90
  -4  -2   6   36.80    6.20
   3   2  -6  272.97   15.20
   3   2  -6  278.57   14.80
  -3  -2   6  280.37   16.00
   2   2  -6  160.38    8.60
   2   2  -6  171.48    9.20
   2   2  -6  161.58    8.80
  -2  -2   6  160.48    9.80
  -2  -2   6  161.08    8.80
  -2  -2   6  174.48    9.80
   1   2  -6 2178.98  106.19
   1   2  -6 2217.58  106.29
   1   2  -6 2114.49  106.29
  -1  -2   6 2162.88  106.59
  -1  -2   6 2068.09  106.69
  -1  -2   6 2020.70  106.19
   0   2  -6 2233.18   98.69
   0   2  -6 1971.50   98.89
   0   2  -6 1865.91   98.99
   0  -2   6 1847.82   98.99
   0  -2   6 1905.81   98.89
   0  -2   6 2048.40   98.99
  -1   2  -6  165.08    8.70
  -1   2  -6  159.38    9.10
   1  -2   6  151.58    8.80
   1  -2   6  163.68    8.30
   1  -2   6  160.38    8.70
  -2   2  -6 2373.66  122.39
  -2   2  -6 2387.16  121.59
  -2   2  -6 2444.36  121.69
   2  -2   6 2587.94  122.09
   2  -2   6 2448.35  121.19
   2  -2   6 2352.06  121.79
  -3   2  -6   36.50    3.30
  -3   2  -6   37.60    3.70
  -3   2  -6   45.00    4.80
   3  -2   6   38.70    3.00
   3  -2   6   35.80    4.10
   3  -2   6   39.10    3.40
  -4   2  -6  159.28    9.50
   4  -2   6  146.99   10.30
   4  -2   6  128.19    8.50
   4  -2   6  150.48    8.80
   4  -2   6  137.69    8.80
  -5   2  -6  261.27   15.70
   5  -2   6  244.98   14.20
   5  -2   6  227.98   16.20
   6  -2   6   14.80    7.30
   6  -2   6   19.20    4.20
   6  -2   6   18.20    5.20
   6   1  -6   -1.50    5.10
   6   1  -6   -1.80    4.70
   5   1  -6  129.79    9.20
   5   1  -6  121.09    9.50
   4   1  -6    1.00    2.40
  -4  -1   6   -2.50    4.20
   3   1  -6  235.18   12.70
   3   1  -6  234.28   12.70
  -3  -1   6  217.28   13.10
  -3  -1   6  227.88   13.50
   2   1  -6 1965.90   97.69
   2   1  -6 1898.01   97.69
  -2  -1   6 1945.51   98.09
  -2  -1   6 1994.30   98.29
   1   1  -6    2.00    0.70
   1   1  -6    2.60    0.80
  -1  -1   6    2.50    0.80
  -1  -1   6    1.30    1.10
  -1  -1   6    4.00    1.10
   0   1  -6 4666.23  256.87
   0   1  -6 5158.48  256.77
   0  -1   6 5600.34  256.97
   0  -1   6 5214.98  256.67
  -1   1  -6  182.88    9.60
  -1   1  -6  192.18   10.00
  -1   1  -6  158.48    9.40
   1  -1   6  182.88    9.10
   1  -1   6  174.18    9.50
   1  -1   6  185.98    9.70
  -2   1  -6   11.00    2.10
  -2   1  -6   12.00    1.80
   2  -1   6   14.00    1.90
   2  -1   6   16.20    1.90
   2  -1   6   12.90    2.00
   2  -1   6   12.20    1.40
  -3   1  -6 2175.48  109.29
  -3   1  -6 2177.88  110.19
   3  -1   6 2159.88  109.19
   3  -1   6 2200.88  109.49
   3  -1   6 2191.28  109.09
   3  -1   6 2137.29  108.79
  -4   1  -6    9.40    2.60
   4  -1   6    8.10    3.50
   4  -1   6    7.60    2.30
   4  -1   6    7.20    2.40
   4  -1   6    8.70    2.20
   5  -1   6  289.97   17.00
   5  -1   6  292.07   19.10
   5  -1   6  329.37   17.90
   6  -1   6   84.29   12.40
   6  -1   6   69.09    8.00
   6  -1   6   67.19    9.80
   6   0  -6   17.60    4.70
   6   0  -6   11.20    5.30
   5   0  -6    8.90    3.20
   5   0  -6   10.10    3.70
   4   0  -6  835.82   42.60
   4   0  -6  837.52   43.00
  -4   0   6  801.92   43.80
   3   0  -6   21.70    3.10
   3   0  -6   24.90    2.80
  -3   0   6   27.60    4.40
  -3   0   6   24.50    3.00
   2   0  -6 2653.93  137.49
   2   0  -6 2649.53  137.69
  -2   0   6 2872.91  137.79
  -2   0   6 2841.42  138.29
   1   0  -6  502.15   26.60
   1   0  -6  499.15   26.40
   1   0  -6  553.14   26.50
  -1   0   6  519.95   26.50
  -1   0   6  530.45   26.60
  -1   0   6  542.35   27.00
   0   0  -6   15.30    1.10
   0   0  -6   21.60    1.80
   0   0   6   18.60    1.90
   0   0   6   19.10    1.30
  -1   0  -6 2776.12  136.79
  -1   0  -6 2764.32  136.19
  -1   0  -6 2718.43  136.59
   1   0   6 2646.54  135.99
   1   0   6 2705.43  136.39
   1   0   6 2789.52  136.59
  -2   0  -6    1.90    1.30
  -2   0  -6    0.70    1.50
   2   0   6    0.00    1.20
   2   0   6    1.20    1.00
   2   0   6   -0.30    1.00
   2   0   6    0.50    1.20
  -3   0  -6  472.25   25.20
   3   0   6  467.45   24.30
   3   0   6  441.06   24.20
   3   0   6  475.65   23.90
   3   0   6  431.76   24.10
   3   0   6  477.45   24.30
   4   0   6  381.36   19.80
   4   0   6  338.57   20.70
   4   0   6  346.47   19.40
   4   0   6  364.06   19.50
   5   0   6    7.30    4.10
   5   0   6   13.60    5.30
   5   0   6   13.20    4.40
   6   0   6  124.39   10.30
   6   0   6  106.99   14.60
   6   0   6  109.09   11.80
   6  -1  -6   21.80    4.70
   6  -1  -6   25.70    5.80
   5  -1  -6   16.10    4.40
   4  -1  -6  428.96   22.10
   4  -1  -6  385.96   22.20
   4  -1  -6  431.96   22.60
  -4   1   6  402.36   23.50
   3  -1  -6  641.04   32.20
   3  -1  -6  633.44   32.90
   3  -1  -6  637.84   33.40
   3  -1  -6  619.14   33.00
  -3   1   6  665.43   34.00
  -3   1   6  648.34   32.30
   2  -1  -6  373.76   19.60
   2  -1  -6  382.96   20.20
   2  -1  -6  363.36   20.20
   2  -1  -6  387.96   19.80
  -2   1   6  391.86   19.70
  -2   1   6  409.06   20.70
   1  -1  -6 2139.99  110.09
   1  -1  -6 2176.48  110.09
  -1   1   6 2229.58  110.19
  -1   1   6 2272.17  110.49
   0  -1  -6   16.30    1.70
   0  -1  -6   17.40    1.80
   0   1   6   17.70    2.00
   0   1   6   16.10    1.80
  -1  -1  -6 1588.54   76.59
  -1  -1  -6 1433.16   76.29
   1   1   6 1516.25   76.39
   1   1   6 1540.15   76.19
  -2  -1  -6 1314.67   65.69
  -2  -1  -6 1255.97   65.29
   2   1   6 1262.67   64.79
   2   1   6 1314.97   65.29
   2   1   6 1257.27   64.89
   2   1   6 1335.17   64.79
  -3  -1  -6  403.66   20.60
   3   1   6  383.76   20.30
   3   1   6  388.76   20.10
   3   1   6  347.47   20.30
   3   1   6  381.86   20.10
   4   1   6  275.97   16.10
   4   1   6  241.58   14.70
   4   1   6  259.77   14.80
   4   1   6  244.78   15.60
   5   1   6   31.40    6.70
   5   1   6   44.80    5.40
   5   1   6   34.10    5.40
   7  -2  -6    1.80    7.40
   7  -2  -6    1.30    5.60
   6  -2  -6   19.00    5.00
   6  -2  -6   13.20    4.20
   5  -2  -6  145.49   10.60
   5  -2  -6  149.59    9.90
   4  -2  -6   23.30    3.20
   4  -2  -6   16.50    2.40
   4  -2  -6   15.30    3.20
   4  -2  -6   20.00    2.80
  -4   2   6   18.30    2.50
   3  -2  -6    0.60    1.40
   3  -2  -6    1.50    1.10
   3  -2  -6    3.00    1.60
   3  -2  -6    1.20    1.70
  -3   2   6    1.40    1.50
  -3   2   6    2.30    2.60
   2  -2  -6  963.70   46.90
   2  -2  -6  908.61   47.20
   2  -2  -6  912.51   46.60
   2  -2  -6  924.31   46.70
  -2   2   6  940.61   47.00
  -2   2   6  912.31   47.70
   1  -2  -6  274.47   14.30
   1  -2  -6  269.97   14.20
  -1   2   6  264.37   14.40
  -1   2   6  269.77   14.60
   0  -2  -6 1268.77   66.19
   0  -2  -6 1355.36   65.99
   0   2   6 1259.97   66.29
   0   2   6 1371.36   66.19
  -1  -2  -6    7.50    2.00
  -1  -2  -6    6.80    1.60
   1   2   6    8.70    1.90
   1   2   6    7.80    1.50
  -2  -2  -6  279.67   15.40
  -2  -2  -6  271.17   15.00
   2   2   6  283.67   14.60
   2   2   6  262.57   14.30
   2   2   6  284.87   14.60
   2   2   6  255.27   15.10
  -3  -2  -6  663.83   33.20
   3   2   6  632.54   33.40
   3   2   6  628.84   32.70
   3   2   6  612.04   32.20
   3   2   6  621.84   32.60
   4   2   6   62.59    8.60
   4   2   6   72.59    6.60
   7  -3  -6   23.50    6.30
   7  -3  -6   19.70    7.50
   6  -3  -6    2.50    2.70
   6  -3  -6    6.90    4.80
   6  -3  -6    2.40    4.30
   5  -3  -6    0.10    2.90
   5  -3  -6   -0.90    2.10
  -5   3   6   -1.10    2.50
   4  -3  -6  335.57   17.80
   4  -3  -6  291.57   17.60
   4  -3  -6  327.77   17.30
   4  -3  -6  332.27   18.60
  -4   3   6  339.47   17.50
   3  -3  -6  138.19    8.60
   3  -3  -6  135.09    7.90
   3  -3  -6  129.49    7.90
  -3   3   6  137.79    7.90
  -3   3   6  134.29    9.40
  -3   3   6  134.89    8.20
   2  -3  -6  125.09    7.40
   2  -3  -6  126.49    7.20
   2  -3  -6  102.69    6.40
  -2   3   6  130.89    6.90
  -2   3   6  115.59    7.40
  -2   3   6  120.89    8.20
   1  -3  -6   25.40    2.60
   1  -3  -6   25.30    2.90
  -1   3   6   26.40    3.50
  -1   3   6   22.90    3.20
   0  -3  -6  454.15   22.10
   0  -3  -6  445.16   22.60
   0   3   6  380.76   22.60
   0   3   6  427.66   22.30
  -1  -3  -6  520.95   27.20
  -1  -3  -6  530.05   27.40
   1   3   6  516.15   26.90
   2   3   6   25.90    2.80
   2   3   6   25.90    3.20
   2   3   6   27.40    3.90
  -3  -3  -6  262.57   15.60
   3   3   6  269.37   14.30
   3   3   6  251.47   15.40
  -4  -3  -6   61.39    7.40
   4   3   6   61.69    6.60
   7  -4  -6    3.10    5.90
   7  -4  -6    0.80    6.80
   6  -4  -6   56.49    8.30
   6  -4  -6   58.69    8.10
   6  -4  -6   76.69    6.60
   5  -4  -6    5.00    2.70
   5  -4  -6    3.80    4.10
  -5   4   6    3.70    3.70
   4  -4  -6  256.47   16.70
   4  -4  -6  328.17   16.90
   4  -4  -6  332.17   18.00
  -4   4   6  340.77   17.20
  -4   4   6  290.17   17.30
   3  -4  -6    6.00    1.60
   3  -4  -6    6.80    2.40
   3  -4  -6    6.50    2.20
  -3   4   6    6.10    3.80
  -3   4   6    5.20    2.00
  -3   4   6    2.10    3.40
   2  -4  -6  444.76   23.00
   2  -4  -6  458.15   23.30
  -2   4   6  412.96   23.80
   1  -4  -6  359.06   19.50
   1  -4  -6  375.56   18.90
  -1   4   6  348.27   19.70
   0  -4  -6   25.50    4.70
   0  -4  -6   19.40    2.80
   0   4   6   27.30    4.10
  -2  -4  -6   85.09    7.40
   2   4   6   82.79    5.30
  -3  -4  -6   94.49    9.90
   6  -5  -6   15.00    5.90
   6  -5  -6   23.70    4.80
   5  -5  -6   -4.70    3.40
   5  -5  -6    2.30    4.40
   4  -5  -6   11.10    2.60
   4  -5  -6   13.40    3.30
   4  -5  -6    7.30    4.70
  -4   5   6   15.30    3.10
   3  -5  -6  107.29    7.60
   3  -5  -6  100.69    7.40
  -3   5   6  101.99    7.20
   2  -5  -6    1.50    2.60
   2  -5  -6   -0.10    2.00
  -2   5   6   -2.40    3.70
   1  -5  -6   73.89    5.20
  -1   5   6   53.79    6.40
   0  -5  -6  147.09    9.90
  -1  -5  -6   24.90    4.60
  -2  -5  -6   47.90    6.30
   6  -6  -6   17.30    7.10
   6  -6  -6   16.30    5.90
  -6   6   6   18.80    5.00
   5  -6  -6    8.30    5.20
   5  -6  -6    6.30    5.00
  -5   6   6    5.90    4.10
   4  -6  -6    3.00    3.90
  -4   6   6    1.10    3.30
   3  -6  -6   25.90    4.10
   3  -6  -6   34.70    5.00
  -3   6   6   45.00    5.90
   2  -6  -6   51.29    6.80
   2  -6  -6   43.20    5.10
   1  -6  -6    5.70    4.00
   0  -6  -6   96.89    9.00
   4  -7  -6   25.60    6.00
   4  -7  -6   24.60    5.90
   3  -7  -6    6.50    5.10
  -1   7  -7   68.59    6.60
   1  -7   7   75.09    8.30
  -2   7  -7  124.09    9.10
   2  -7   7  139.99   10.90
  -3   7  -7   76.99    8.40
   3  -7   7   93.09    9.30
   3  -7   7   86.49   10.90
  -4   7  -7  120.59   10.40
   4  -7   7  119.69   10.70
  -5   7  -7    6.70    5.10
   5  -7   7    9.30    8.70
   5  -7   7    7.30    5.60
   1   6  -7  198.98   11.10
   0   6  -7  119.79    7.20
  -1   6  -7   61.79    5.00
   1  -6   7   73.49    9.70
  -2   6  -7  382.16   21.90
   2  -6   7  401.96   21.50
   2  -6   7  443.56   23.20
   2  -6   7  419.16   22.90
  -3   6  -7    1.00    3.10
   3  -6   7    0.70    4.60
   3  -6   7   -0.70    3.20
  -4   6  -7  120.59    9.50
   4  -6   7  120.29    9.50
  -5   6  -7   80.69    9.10
   5  -6   7   93.19    9.00
   5  -6   7  111.89   12.10
  -6   6  -7   13.50    5.40
   6  -6   7    8.60    5.90
   6  -6   7    6.60    8.30
   2   5  -7   78.59    6.40
  -2  -5   7   87.29    7.10
   1   5  -7   15.30    2.20
  -1  -5   7   11.60    3.10
   0   5  -7  597.14   28.80
   0  -5   7  530.95   29.80
   1  -5   7   12.70    2.40
   1  -5   7   13.10    2.80
   1  -5   7    7.30    2.90
  -2   5  -7  164.28   11.10
   2  -5   7  213.88   11.30
   2  -5   7  208.88   12.50
   2  -5   7  208.88   11.90
   3  -5   7  375.36   21.60
   3  -5   7  358.06   21.20
   4  -5   7    1.40    3.40
  -5   5  -7  268.97   16.20
   5  -5   7  256.77   15.80
   5  -5   7  255.17   18.10
  -6   5  -7   14.20    5.80
   6  -5   7    6.80    5.00
   6  -5   7   -6.60    7.10
   3   4  -7    0.90    2.60
   2   4  -7  172.28   10.60
   2   4  -7  188.18   10.50
  -2  -4   7  190.58   10.70
   1   4  -7  115.69    7.70
   1   4  -7  130.29    7.60
  -1  -4   7  127.29    7.80
   0   4  -7   87.49    5.90
   0   4  -7  104.29    5.20
   0   4  -7   91.89    6.10
   0  -4   7   90.49    6.10
   0  -4   7   73.79    5.50
  -1   4  -7  458.25   24.20
  -1   4  -7  438.36   23.90
  -1   4  -7  478.95   23.30
   1  -4   7  451.15   23.40
   1  -4   7  452.65   24.20
  -2   4  -7  387.56   21.10
  -2   4  -7  397.96   21.90
   2  -4   7  400.76   21.40
   2  -4   7  405.16   21.00
  -3   4  -7  345.87   19.20
   3  -4   7  339.67   19.30
   3  -4   7  363.36   19.30
   3  -4   7  362.46   20.30
  -4   4  -7  384.36   21.10
   4  -4   7  371.46   22.30
   4  -4   7  382.76   20.90
  -5   4  -7   12.70    4.00
   5  -4   7   13.70    5.60
   5  -4   7    6.20    3.30
  -6   4  -7  251.57   16.40
   6  -4   7  247.88   18.40
   6  -4   7  235.18   15.40
   4   3  -7   40.50    5.40
   3   3  -7  327.77   17.00
  -3  -3   7  318.87   18.40
   2   3  -7  365.36   18.80
   2   3  -7  370.56   19.30
   2   3  -7  348.27   18.60
  -2  -3   7  366.56   18.80
  -2  -3   7  358.96   19.60
   1   3  -7  642.84   31.30
   1   3  -7  667.03   31.20
   1   3  -7  549.35   31.00
  -1  -3   7  659.43   31.50
  -1  -3   7  524.85   31.70
  -1  -3   7  623.24   31.40
   0   3  -7   48.70    2.70
   0   3  -7   44.70    3.50
   0   3  -7   38.10    3.30
   0  -3   7   35.50    3.30
   0  -3   7   41.00    3.50
   0  -3   7   43.30    3.20
  -1   3  -7  271.17   14.60
  -1   3  -7  278.87   14.10
  -1   3  -7  270.07   14.90
   1  -3   7  262.77   14.70
   1  -3   7  287.27   14.30
   1  -3   7  267.87   14.30
  -2   3  -7 1129.69   58.59
  -2   3  -7 1122.39   57.89
   2  -3   7 1106.99   58.09
   2  -3   7 1189.08   58.09
   2  -3   7 1168.08   57.19
  -3   3  -7  100.49    6.70
  -3   3  -7   91.49    6.30
  -3   3  -7  104.89    7.90
   3  -3   7  101.09    6.50
   3  -3   7  103.09    7.20
   3  -3   7   95.29    5.60
  -4   3  -7  507.85   26.90
   4  -3   7  486.25   28.00
   4  -3   7  509.15   26.70
   5  -3   7    0.90    2.80
  -6   3  -7  124.89   11.00
   6  -3   7   91.49   12.50
   6  -3   7   94.19    9.10
   5   2  -7  169.58   10.80
   5   2  -7  166.68   11.00
   4   2  -7  149.99    9.10
  -4  -2   7  147.49   11.90
   3   2  -7  267.87   14.10
  -3  -2   7  258.87   15.60
   2   2  -7  448.96   22.70
   2   2  -7  425.56   22.40
   2   2  -7  416.96   22.10
  -2  -2   7  448.66   22.30
  -2  -2   7  421.86   23.30
  -2  -2   7  459.75   23.30
   1   2  -7  699.53   34.90
   1   2  -7  692.53   34.80
   1   2  -7  692.93   34.90
  -1  -2   7  758.12   35.40
  -1  -2   7  606.44   35.30
  -1  -2   7  684.23   34.90
   0   2  -7 2582.24  124.19
   0   2  -7 2531.55  124.49
   0   2  -7 2230.88  124.59
   0  -2   7 2444.66  124.59
   0  -2   7 2667.83  124.59
   0  -2   7 2497.25  124.49
  -1   2  -7   81.19    4.80
  -1   2  -7   78.89    5.30
  -1   2  -7   73.39    4.50
   1  -2   7   83.49    5.00
   1  -2   7   82.59    4.80
  -2   2  -7 1060.29   54.89
  -2   2  -7 1005.60   54.89
  -2   2  -7 1078.69   55.69
   2  -2   7 1097.09   55.09
   2  -2   7 1149.08   54.39
   2  -2   7 1127.59   55.09
  -3   2  -7  208.98   11.90
  -3   2  -7  227.78   12.40
  -3   2  -7  209.28   13.20
   3  -2   7  215.18   11.50
   3  -2   7  224.88   12.20
   3  -2   7  218.48   12.50
  -4   2  -7  450.35   23.50
   4  -2   7  398.26   22.70
   4  -2   7  438.26   24.40
   4  -2   7  433.86   23.00
  -5   2  -7  149.09   11.00
   5  -2   7  128.59   11.70
   6  -2   7    3.70    4.20
   6  -2   7   -5.30    6.90
   6   1  -7    4.30    5.50
   6   1  -7   -3.50    5.10
   5   1  -7   79.49   10.80
   5   1  -7   73.99    7.30
   4   1  -7  209.88   12.00
  -4  -1   7  190.78   13.90
   3   1  -7  158.68    9.00
   3   1  -7  154.58    8.90
  -3  -1   7  143.49   10.00
  -3  -1   7  145.39    9.60
   2   1  -7  562.94   29.40
   2   1  -7  573.64   29.50
  -2  -1   7  574.84   30.00
  -2  -1   7  595.14   30.20
   1   1  -7  671.23   32.60
   1   1  -7  615.74   32.70
  -1  -1   7  669.33   33.10
  -1  -1   7  601.24   32.90
  -1  -1   7  670.03   32.60
   0   1  -7  604.74   31.70
   0   1  -7  597.74   31.20
   0  -1   7  633.34   31.70
   0  -1   7  648.24   31.70
   0  -1   7  635.34   31.60
  -1   1  -7  691.03   34.40
   1  -1   7  636.84   34.00
   1  -1   7  681.33   34.10
   1  -1   7  663.53   33.90
  -2   1  -7   15.70    2.20
  -2   1  -7   15.00    2.60
   2  -1   7   14.50    1.90
   2  -1   7   16.10    2.10
   2  -1   7   15.60    2.10
   2  -1   7   13.10    1.60
  -3   1  -7  979.30   50.09
  -3   1  -7  962.50   50.89
   3  -1   7  969.30   49.99
   3  -1   7  991.80   49.50
   3  -1   7  991.50   50.19
   3  -1   7  983.20   49.99
  -4   1  -7   11.80    3.20
   4  -1   7   12.60    3.90
   4  -1   7   12.40    2.70
   4  -1   7   12.70    2.60
   5  -1   7   72.69    7.50
   5  -1   7   65.39    6.70
   5  -1   7   72.99    9.30
   6  -1   7  133.49   15.20
   6  -1   7  135.49   12.30
   6  -1   7  140.39   11.30
   6   0  -7   19.30    5.60
   6   0  -7   18.20    4.80
   5   0  -7    8.50    3.80
   5   0  -7    8.20    3.40
   4   0  -7  902.91   45.10
   4   0  -7  899.01   45.40
  -4   0   7  820.82   47.20
   3   0  -7   42.20    3.50
   3   0  -7   38.50    3.80
  -3   0   7   39.70    4.10
  -3   0   7   32.90    4.80
   2   0  -7 1312.07   67.69
   2   0  -7 1379.56   67.49
  -2   0   7 1353.96   67.09
  -2   0   7 1381.46   68.29
  -2   0   7 1241.48   66.99
  -2   0   7 1390.06   67.79
   1   0  -7  531.25   25.40
   1   0  -7  461.05   25.20
   1   0  -7  478.15   25.50
  -1   0   7  511.25   25.90
  -1   0   7  514.65   25.50
  -1   0   7  505.95   25.40
   0   0  -7  406.46   21.30
   0   0  -7  427.26   21.40
   0   0  -7  414.06   20.80
   0   0   7  402.96   21.40
   0   0   7  426.76   21.40
  -1   0  -7 1767.62   85.79
  -1   0  -7 1736.63   85.49
   1   0   7 1636.74   85.19
   1   0   7 1631.74   84.69
   1   0   7 1741.23   85.39
  -2   0  -7   96.59    5.60
  -2   0  -7   91.89    6.50
   2   0   7   86.09    5.50
   2   0   7   88.99    5.70
   2   0   7   88.49    5.20
   2   0   7   89.79    5.70
  -3   0  -7  225.98   13.40
   3   0   7  214.48   12.30
   3   0   7  211.58   12.10
   3   0   7  224.98   11.90
   3   0   7  213.58   12.30
   4   0   7  973.70   51.99
   4   0   7 1000.40   50.49
   4   0   7  942.41   50.69
   4   0   7 1036.30   50.99
   5   0   7   28.20    4.90
   5   0   7   22.40    4.40
   5   0   7   33.80    6.80
   6  -1  -7  105.79   10.30
   6  -1  -7   98.59    9.20
   5  -1  -7   95.19    8.20
   4  -1  -7  105.99    7.20
   4  -1  -7   96.69    7.50
   4  -1  -7  106.79    7.50
   3  -1  -7  918.91   47.10
   3  -1  -7  914.51   46.40
   3  -1  -7  933.11   47.60
   3  -1  -7  910.21   47.30
  -3   1   7  947.61   46.60
  -3   1   7  937.01   48.20
   2  -1  -7   42.60    3.00
   2  -1  -7   40.20    3.40
   2  -1  -7   43.00    2.70
   2  -1  -7   37.20    3.20
  -2   1   7   38.90    3.00
  -2   1   7   42.80    4.20
   1  -1  -7 1084.59   56.79
   1  -1  -7 1136.39   56.69
  -1   1   7 1119.79   57.19
  -1   1   7 1174.08   56.79
   0  -1  -7  635.04   31.80
   0  -1  -7  632.14   31.70
   0   1   7  648.14   31.80
   0   1   7  574.44   31.70
  -1  -1  -7  435.06   22.70
  -1  -1  -7  415.96   22.40
   1   1   7  424.16   22.50
   1   1   7  444.06   22.30
  -2  -1  -7 1474.15   71.79
  -2  -1  -7 1371.46   71.29
   2   1   7 1375.76   71.29
   2   1   7 1496.55   70.69
   2   1   7 1328.67   70.79
   2   1   7 1409.46   70.79
  -3  -1  -7    5.00    2.30
  -3  -1  -7    3.30    3.30
   3   1   7    8.30    2.30
   3   1   7    7.90    2.20
   3   1   7    5.10    1.90
   4   1   7   82.19    9.00
   4   1   7   87.19    7.30
   4   1   7   87.49    7.10
   5   1   7   94.59    9.00
   5   1   7   84.69    8.90
   5   1   7   98.29   12.10
   7  -2  -7   38.20    6.70
   7  -2  -7   32.80    8.10
   6  -2  -7    1.40    4.60
   6  -2  -7    3.40    4.30
   5  -2  -7   61.79    8.10
   5  -2  -7   79.29    7.40
   4  -2  -7   20.80    2.40
   4  -2  -7   18.60    3.30
   4  -2  -7   20.90    3.10
   4  -2  -7   21.90    3.70
  -4   2   7   24.00    2.90
   3  -2  -7   61.19    3.90
   3  -2  -7   57.59    4.40
   3  -2  -7   58.39    4.70
   3  -2  -7   56.29    4.90
  -3   2   7   53.39    5.90
  -3   2   7   63.29    4.30
   2  -2  -7  399.96   21.40
   2  -2  -7  436.76   22.00
   2  -2  -7  425.96   21.60
   2  -2  -7  412.16   21.40
  -2   2   7  416.76   21.70
  -2   2   7  411.36   22.50
   1  -2  -7   15.70    2.10
   1  -2  -7   13.30    2.10
  -1   2   7   15.50    2.40
  -1   2   7   12.30    2.00
   0  -2  -7 2158.58  103.29
   0  -2  -7 2041.60  103.49
   0   2   7 1961.60  103.59
   0   2   7 2085.99  103.49
  -1  -2  -7  171.98    9.70
  -1  -2  -7  177.08   10.10
   1   2   7  150.68    9.80
   1   2   7  179.28    9.40
  -2  -2  -7  671.13   33.90
  -2  -2  -7  640.34   33.50
   2   2   7  658.33   32.90
   2   2   7  631.44   32.70
   2   2   7  612.24   32.60
  -3  -2  -7  289.97   15.60
   3   2   7  275.57   16.20
   3   2   7  264.77   15.00
   3   2   7  276.27   14.80
   3   2   7  252.37   14.60
   4   2   7    6.40    5.20
   4   2   7    3.20    3.20
   7  -3  -7   24.20    6.30
   7  -3  -7   31.20    7.40
   6  -3  -7   30.50    6.00
   6  -3  -7   31.50    5.10
   5  -3  -7   55.99    6.00
   5  -3  -7   43.70    4.50
  -5   3   7   45.70    5.00
   4  -3  -7  280.97   15.20
   4  -3  -7  265.17   15.70
   4  -3  -7  241.58   15.10
   4  -3  -7  287.87   14.70
  -4   3   7  275.87   14.90
   3  -3  -7  116.69    7.70
   3  -3  -7  147.69    7.90
   3  -3  -7  136.89    7.90
   3  -3  -7  135.49    8.50
  -3   3   7  128.79    8.10
  -3   3   7  121.29    9.50
   2  -3  -7  770.52   38.70
   2  -3  -7  761.12   38.80
  -2   3   7  742.73   38.90
  -2   3   7  749.82   39.50
   1  -3  -7  447.56   22.30
   1  -3  -7  445.86   22.70
  -1   3   7  426.66   23.00
  -1   3   7  399.46   22.70
   0  -3  -7  728.13   37.70
   0  -3  -7  752.32   37.40
   0   3   7  718.73   37.60
  -1  -3  -7  885.51   44.70
  -1  -3  -7  884.91   44.80
   1   3   7  841.12   44.30
  -2  -3  -7    8.00    3.70
   2   3   7    8.00    1.50
   2   3   7   11.80    2.30
  -3  -3  -7  173.58   11.70
   3   3   7  185.78   10.10
   3   3   7  168.18   12.00
   6  -4  -7   46.80    5.90
   6  -4  -7   39.50    5.80
   6  -4  -7   31.00    6.50
   5  -4  -7   21.00    3.50
   5  -4  -7   24.10    4.10
   5  -4  -7   20.30    4.70
  -5   4   7   22.80    5.30
   4  -4  -7   30.10    5.10
   4  -4  -7   32.40    4.90
   4  -4  -7   31.60    4.40
  -4   4   7   27.20    4.20
   3  -4  -7  279.67   15.70
   3  -4  -7  279.67   16.00
  -3   4   7  294.07   15.40
   2  -4  -7  318.17   17.10
   2  -4  -7  337.17   17.50
  -2   4   7  300.27   18.10
   1  -4  -7  362.16   19.00
   1  -4  -7  381.26   19.60
  -1   4   7  330.67   19.60
   0  -4  -7   -0.90    2.40
   0   4   7    3.70    2.80
  -1  -4  -7   87.09    7.20
  -2  -4  -7   68.59    7.40
   6  -5  -7   14.00    4.50
   6  -5  -7    8.90    5.80
   6  -5  -7   13.00    5.50
   5  -5  -7   17.80    4.90
   5  -5  -7    7.90    4.00
  -5   5   7   11.90    4.60
   4  -5  -7    8.90    3.30
   4  -5  -7    4.80    2.20
  -4   5   7    9.20    3.10
   3  -5  -7   82.29    6.90
   3  -5  -7   86.99    6.90
  -3   5   7   87.29    6.50
   2  -5  -7   24.90    3.80
   2  -5  -7   23.60    3.70
  -2   5   7   19.50    5.00
   1  -5  -7   26.40    3.30
  -1   5   7   27.30    4.60
   0  -5  -7  250.97   15.00
  -1  -5  -7   37.60    5.40
   5  -6  -7    9.30    5.40
   5  -6  -7    3.60    5.00
  -5   6   7    4.10    4.30
   4  -6  -7   57.49    7.40
   4  -6  -7   51.29    6.30
  -4   6   7   62.39    7.20
   3  -6  -7    4.20    3.30
   3  -6  -7    7.70    3.80
  -3   6   7    5.40    3.30
   2  -6  -7  106.69    8.90
   2  -6  -7  105.49    8.10
   1  -6  -7   -1.50    3.80
   0  -6  -7   27.60    5.30
  -1   7  -8   59.69    6.20
   1  -7   8   59.69    7.10
  -2   7  -8  134.69    9.70
   2  -7   8  145.99   11.40
  -3   7  -8    8.40    4.50
   3  -7   8    9.70    4.90
   3  -7   8   10.40    6.30
  -4   7  -8  171.18   12.90
   4  -7   8  181.18   13.70
   4  -7   8  177.48   15.90
  -5   7  -8    1.50    5.20
   5  -7   8    5.50    8.50
   1   6  -8  178.58   10.10
   0   6  -8  228.78   11.80
   0  -6   8  187.78   16.60
  -1   6  -8   31.40    3.90
   1  -6   8   33.20    4.80
  -2   6  -8  386.36   22.70
   2  -6   8  452.95   24.20
   2  -6   8  411.86   22.50
   2  -6   8  467.75   24.00
  -3   6  -8   42.90    5.40
   3  -6   8   52.29    6.70
   3  -6   8   49.60    6.70
  -4   6  -8   75.29    7.90
   4  -6   8   81.39    8.10
  -5   6  -8  106.19    9.60
   5  -6   8   76.89    9.40
   5  -6   8  103.39   13.20
  -6   6  -8   -4.80    5.20
   6  -6   8   -7.50    5.60
   6  -6   8   -7.40    8.60
   2   5  -8  100.89    7.40
  -2  -5   8  100.29    7.90
   1   5  -8   43.50    3.70
  -1  -5   8   43.60    5.30
   0   5  -8  737.83   34.50
   0  -5   8  604.84   35.20
   1  -5   8  449.95   24.10
   1  -5   8  441.56   23.30
   2  -5   8   54.19    5.20
   2  -5   8   42.40    4.20
   2  -5   8   52.79    6.10
   3  -5   8 1221.88   63.59
  -4   5  -8   27.50    4.50
  -5   5  -8   46.00    6.80
   5  -5   8   39.00    5.20
   5  -5   8   25.80    6.70
  -6   5  -8  123.79   11.60
   6  -5   8  120.59   11.10
   6  -5   8  113.19   14.40
   3   4  -8   16.80    3.20
   2   4  -8  148.99    8.90
   2   4  -8  142.89    9.00
  -2  -4   8  157.78    9.10
   1   4  -8  652.63   34.10
   1   4  -8  631.04   34.20
  -1  -4   8  690.23   34.60
  -1  -4   8  693.33   34.50
   0   4  -8   11.60    2.30
   0   4  -8   13.90    1.80
   0   4  -8   11.40    2.50
   0  -4   8   10.70    2.40
  -1   4  -8 1755.72   92.59
  -1   4  -8 1782.82   92.99
  -1   4  -8 2011.60   92.09
   1  -4   8 1831.22   92.99
   1  -4   8 1820.52   92.29
  -2   4  -8   96.39    7.30
  -2   4  -8   94.59    7.30
   2  -4   8   97.49    6.30
   2  -4   8   91.19    6.60
  -3   4  -8  161.78   10.10
  -4   4  -8  984.80   55.79
   4  -4   8 1152.48   54.89
   4  -4   8 1042.70   58.09
  -5   4  -8  134.69   10.70
   5  -4   8  151.98   10.10
   5  -4   8  137.99   12.60
  -6   4  -8  204.28   14.90
   6  -4   8  193.88   16.60
   6  -4   8  204.48   13.80
   4   3  -8   95.49    7.40
   3   3  -8  446.06   23.70
  -3  -3   8  467.35   25.20
   2   3  -8   66.09    4.40
   2   3  -8   66.99    4.40
  -2  -3   8   63.09    6.10
  -2  -3   8   68.69    4.60
   1   3  -8 1365.16   65.09
   1   3  -8 1303.17   65.09
   1   3  -8 1127.69   64.99
  -1  -3   8 1390.26   65.59
  -1  -3   8 1290.67   65.29
   0   3  -8  537.15   23.80
   0   3  -8  464.95   24.40
   0   3  -8  465.45   24.20
   0  -3   8  448.76   24.40
   0  -3   8  473.65   24.20
   0  -3   8  419.66   24.20
  -1   3  -8 1018.90   51.99
  -1   3  -8 1079.19   51.59
  -1   3  -8 1021.10   52.49
   1  -3   8  984.80   51.79
   1  -3   8 1058.79   51.69
   1  -3   8  997.20   52.19
  -2   3  -8 1478.05   74.59
  -2   3  -8 1462.35   73.69
   2  -3   8 1444.26   72.89
   2  -3   8 1423.46   73.59
   2  -3   8 1493.25   73.89
  -3   3  -8   52.39    5.00
  -3   3  -8   63.69    6.20
  -3   3  -8   59.39    5.20
   3  -3   8   65.19    5.70
   3  -3   8   54.59    3.60
   3  -3   8   66.39    5.00
  -4   3  -8  638.64   34.40
   4  -3   8  663.33   34.10
   5  -3   8  240.48   13.80
   5  -3   8  204.28   15.60
  -6   3  -8   70.69   10.30
   6  -3   8   72.69   10.00
   6  -3   8   86.79    8.90
   5   2  -8   94.09    7.90
   4   2  -8    3.00    2.40
   4   2  -8   -1.30    2.30
  -4  -2   8    0.20    5.70
   3   2  -8  199.38   11.20
  -3  -2   8  206.68   12.90
   2   2  -8  502.85   25.20
   2   2  -8  503.35   25.70
   2   2  -8  507.75   25.60
  -2  -2   8  456.35   26.40
  -2  -2   8  515.75   25.50
  -2  -2   8  506.45   26.50
   1   2  -8   90.09    5.10
   1   2  -8   82.29    4.80
   1   2  -8   84.99    4.90
  -1  -2   8   65.19    5.40
  -1  -2   8   83.39    5.60
  -1  -2   8   84.59    5.00
   0   2  -8 1048.90   60.89
   0   2  -8 1203.98   60.69
   0   2  -8 1375.66   60.39
   0  -2   8 1188.38   60.89
   0  -2   8 1182.08   60.69
   0  -2   8 1246.88   60.89
  -1   2  -8   64.99    3.80
  -1   2  -8   63.39    4.20
  -1   2  -8   63.09    4.70
   1  -2   8   68.19    3.80
   1  -2   8   59.39    4.20
   1  -2   8   58.49    4.10
  -2   2  -8 1413.16   74.29
  -2   2  -8 1439.76   73.39
   2  -2   8 1500.45   72.79
   2  -2   8 1472.25   73.59
   2  -2   8 1462.85   73.49
  -3   2  -8  490.85   26.00
  -3   2  -8  455.65   24.90
   3  -2   8  452.85   23.90
   3  -2   8  455.15   24.70
   3  -2   8  474.25   25.10
   3  -2   8  491.55   24.80
  -4   2  -8  263.87   15.70
   4  -2   8  276.67   16.90
   4  -2   8  277.77   15.40
   5  -2   8   82.89    7.20
   5  -2   8   78.79    9.80
   6  -2   8  110.09   10.40
   6  -2   8  112.59   13.70
   5   1  -8   10.00    3.70
   5   1  -8   12.90    3.90
   4   1  -8  200.58   12.00
   3   1  -8   21.20    2.70
   3   1  -8   20.90    3.00
  -3  -1   8   23.70    4.10
   2   1  -8  135.19    7.60
   2   1  -8  131.59    7.60
  -2  -1   8  137.99    8.60
  -2  -1   8  129.79    8.20
   1   1  -8  557.44   27.60
  -1  -1   8  545.05   27.70
  -1  -1   8  585.84   28.40
  -1  -1   8  544.55   27.70
  -1  -1   8  494.55   28.00
   0   1  -8  515.05   26.50
   0   1  -8  520.85   27.10
   0  -1   8  548.15   27.20
   0  -1   8  544.85   27.10
   0  -1   8  536.35   26.80
   0  -1   8  512.05   27.10
  -1   1  -8 2917.11  134.69
  -1   1  -8 2275.07  133.79
   1  -1   8 2604.94  133.49
   1  -1   8 2777.42  134.09
   1  -1   8 2653.93  134.29
   1  -1   8 2881.71  134.29
  -2   1  -8  402.36   21.80
  -2   1  -8  431.66   22.70
   2  -1   8  426.56   22.10
   2  -1   8  436.76   21.20
   2  -1   8  421.16   21.80
   2  -1   8  394.56   21.90
  -3   1  -8  829.32   43.20
  -3   1  -8  832.22   42.20
   3  -1   8  808.92   42.10
   3  -1   8  813.72   41.40
   3  -1   8  805.92   42.10
   3  -1   8  821.12   42.10
  -4   1  -8  552.44   29.10
   4  -1   8  504.75   28.20
   4  -1   8  581.64   30.30
   4  -1   8  540.95   28.80
   5  -1   8  225.88   14.30
   5  -1   8  208.68   15.60
   5  -1   8  224.58   13.90
   6  -1   8  128.29   13.10
   6  -1   8  143.89   12.10
   6  -1   8  171.78   16.10
   6   0  -8  120.59   10.30
   6   0  -8  108.59   10.80
   5   0  -8   31.80    4.80
   5   0  -8   30.40    4.30
   4   0  -8   17.00    3.20
   4   0  -8   17.20    3.00
   3   0  -8  378.16   19.10
   3   0  -8  372.56   19.40
  -3   0   8  343.17   19.40
  -3   0   8  341.57   20.20
   2   0  -8   92.79    5.70
   2   0  -8   89.59    5.40
  -2   0   8   89.69    5.10
  -2   0   8   96.19    6.70
  -2   0   8   90.89    5.90
  -2   0   8   89.09    5.20
   1   0  -8 1643.34   79.49
   1   0  -8 1528.35   79.49
   1   0  -8 1554.84   79.19
  -1   0   8 1583.24   79.99
  -1   0   8 1598.54   79.39
  -1   0   8 1609.24   79.49
   0   0  -8   29.00    2.60
   0   0  -8   34.40    2.60
   0   0   8   34.20    2.80
   0   0   8   31.20    2.60
   0   0   8   30.80    2.10
  -1   0  -8  701.23   34.80
  -1   0  -8  686.03   35.20
  -1   0  -8  643.04   35.50
   1   0   8  687.53   35.10
   1   0   8  698.03   34.40
   1   0   8  717.53   35.30
  -2   0  -8 1270.07   64.19
  -2   0  -8 1273.87   63.29
   2   0   8 1183.88   63.19
   2   0   8 1233.98   63.49
   2   0   8 1303.67   62.79
   2   0   8 1264.47   63.59
  -3   0  -8    6.40    3.50
   3   0   8   10.50    2.30
   3   0   8    9.30    1.90
   3   0   8    5.10    2.30
   4   0   8  742.83   39.00
   4   0   8  728.33   37.70
   4   0   8  690.83   37.10
   5   0   8   24.40    4.80
   5   0   8   25.50    5.30
   5   0   8   29.80    6.80
   6  -1  -8    4.80    4.60
   6  -1  -8    4.90    5.20
   5  -1  -8   77.69    7.60
   4  -1  -8    0.20    2.40
   4  -1  -8    2.70    2.30
   3  -1  -8  141.19    7.80
   3  -1  -8  140.79    8.70
   3  -1  -8  143.79    8.90
   3  -1  -8  147.79    8.50
  -3   1   8  150.58    9.90
  -3   1   8  149.99    8.00
   2  -1  -8    4.80    1.60
  -2   1   8    7.80    2.40
  -2   1   8   10.50    1.60
   1  -1  -8  280.67   14.70
   1  -1  -8  275.17   14.70
  -1   1   8  273.97   15.20
  -1   1   8  286.67   14.80
   0  -1  -8  961.60   46.30
   0  -1  -8  886.91   46.30
   0   1   8  914.81   46.40
   0   1   8  889.61   46.30
  -1  -1  -8   73.69    5.90
  -1  -1  -8   95.69    5.70
   1   1   8   84.49    5.40
   1   1   8   87.09    5.70
  -2  -1  -8  541.55   27.90
  -2  -1  -8  558.44   28.50
   2   1   8  536.75   27.40
   2   1   8  490.65   27.90
  -3  -1  -8   46.60    6.40
  -3  -1  -8   48.00    4.70
   3   1   8   27.40    4.00
   3   1   8   38.60    4.20
   3   1   8   35.20    4.00
   4   1   8   20.80    3.70
   4   1   8   23.30    5.60
   4   1   8   26.50    4.20
   5   1   8  102.69   13.30
   5   1   8  123.79   10.30
   5   1   8  135.99   10.80
   6  -2  -8    0.00    4.50
   6  -2  -8   -0.30    4.40
   5  -2  -8    3.40    3.50
   4  -2  -8  230.18   13.60
   4  -2  -8  225.48   11.90
   4  -2  -8  201.68   13.10
   4  -2  -8  234.08   13.00
  -4   2   8  234.88   12.30
   3  -2  -8  274.37   15.80
   3  -2  -8  301.07   16.40
   3  -2  -8  297.67   15.80
   3  -2  -8  303.27   15.50
  -3   2   8  304.37   15.80
  -3   2   8  289.27   17.30
   2  -2  -8  851.11   42.00
   2  -2  -8  853.11   42.30
  -2   2   8  786.72   42.90
  -2   2   8  813.22   42.10
   1  -2  -8    0.30    1.20
   1  -2  -8    1.30    1.30
  -1   2   8    0.10    1.90
  -1   2   8    0.10    1.50
   0  -2  -8  984.40   49.80
   0  -2  -8 1033.00   49.60
   0   2   8  921.41   49.90
  -1  -2  -8  795.42   40.70
  -1  -2  -8  778.22   40.90
   1   2   8  804.62   40.40
  -2  -2  -8  382.96   20.40
  -2  -2  -8  371.76   19.90
   2   2   8  339.07   19.10
   3   2   8  198.68   11.60
   3   2   8  181.08   11.70
   3   2   8  209.48   11.20
   4   2   8   17.50    4.60
   4   2   8   13.90    3.60
   4   2   8    5.80    5.80
   6  -3  -8   87.39    9.50
   6  -3  -8   63.99    8.40
   5  -3  -8  203.48   11.50
   5  -3  -8  222.28   13.00
  -5   3   8  201.58   12.10
   4  -3  -8   -3.50    2.60
   4  -3  -8   -0.20    1.90
   4  -3  -8   -0.80    2.40
   4  -3  -8   -4.20    2.80
  -4   3   8   -0.60    2.60
   3  -3  -8  135.59    8.30
   3  -3  -8  107.29    7.60
   3  -3  -8  136.99    7.70
   3  -3  -8  136.79    7.70
  -3   3   8  119.49    8.10
   2  -3  -8  614.54   30.20
   2  -3  -8  598.24   30.10
  -2   3   8  555.34   30.30
  -2   3   8  551.54   30.80
   1  -3  -8  232.98   12.40
   1  -3  -8  243.98   12.70
  -1   3   8  216.98   13.10
  -1   3   8  210.58   13.00
   0  -3  -8  161.48    9.00
   0  -3  -8  160.88    9.50
   0   3   8  145.99    9.40
  -1  -3  -8   22.40    3.70
  -1  -3  -8   28.70    3.90
   1   3   8   23.90    3.20
  -2  -3  -8   79.59    8.00
  -2  -3  -8   77.69    6.70
   2   3   8   67.99    5.70
  -3  -3  -8   97.59    9.10
   6  -4  -8    1.60    4.70
   6  -4  -8    4.70    5.40
   6  -4  -8    3.90    3.60
   5  -4  -8   19.50    4.10
   5  -4  -8   14.70    4.60
   5  -4  -8   20.00    3.40
   4  -4  -8  214.18   12.70
   4  -4  -8  225.38   14.70
   4  -4  -8  210.18   12.40
   3  -4  -8   14.40    3.10
   3  -4  -8   12.90    2.70
   3  -4  -8    9.60    1.80
   2  -4  -8   54.49    4.90
   2  -4  -8   48.90    4.30
  -2   4   8   42.70    5.60
   1  -4  -8   55.99    4.80
   1  -4  -8   58.29    5.10
  -1   4   8   43.50    6.20
   0  -4  -8   -5.40    2.80
   0   4   8    0.90    3.30
  -1  -4  -8   21.10    3.90
  -1  -4  -8   21.60    4.50
  -2  -4  -8   52.09    6.10
   6  -5  -8   -4.90    4.30
   6  -5  -8    4.90    6.10
   6  -5  -8    5.20    6.00
   5  -5  -8   46.50    6.30
   5  -5  -8   36.60    5.40
   5  -5  -8   28.20    5.70
   4  -5  -8   14.20    3.70
  -4   5   8   15.10    3.30
   3  -5  -8  109.99    8.10
   3  -5  -8  108.99    7.90
   2  -5  -8   14.70    3.50
   2  -5  -8   14.70    2.90
  -2   5   8   17.40    5.50
   1  -5  -8   -2.60    3.00
   1  -5  -8    1.80    2.70
   0  -5  -8  136.59   10.10
  -1  -5  -8   -4.00    4.20
   5  -6  -8   24.40    6.30
   5  -6  -8   26.30    5.60
   4  -6  -8   -5.30    4.20
   4  -6  -8   -2.90    4.30
   3  -6  -8    3.50    4.00
   3  -6  -8    1.00    3.80
   2  -6  -8   61.69    8.00
   1  -6  -8   -2.50    4.10
  -1   7  -9  113.69    8.50
   1  -7   9  133.29   10.80
  -2   7  -9   82.79    7.90
   2  -7   9   99.99    9.70
  -3   7  -9   -7.40    4.40
   3  -7   9   -0.50    4.70
  -4   7  -9   57.99    8.80
   4  -7   9   57.69    9.70
   4  -7   9   49.40    7.10
   1   6  -9   94.59    6.40
   0   6  -9  139.69    8.10
   0  -6   9  134.49   10.10
  -1   6  -9    2.20    2.20
   1  -6   9    5.10    4.00
   1  -6   9   -0.20    3.30
  -2   6  -9   92.39    7.10
   2  -6   9  106.39    9.50
   2  -6   9   89.29    8.20
   2  -6   9   82.99    9.80
  -3   6  -9  122.29   10.20
   3  -6   9  160.58   10.80
   3  -6   9  165.58   12.40
   4  -6   9   34.10    5.30
   4  -6   9   27.30    6.50
  -5   6  -9   18.60    5.20
   5  -6   9   28.10    5.50
   5  -6   9   24.40    8.40
   2   5  -9  143.59    9.10
   1   5  -9   63.29    4.60
  -1  -5   9   72.19    6.20
   0   5  -9  134.29    9.40
   0  -5   9  143.59    9.30
   0  -5   9  151.08    9.40
  -1   5  -9  551.74   29.60
   1  -5   9  543.15   28.70
   1  -5   9  569.14   29.60
  -2   5  -9   37.60    5.30
   2  -5   9   33.20    4.40
   2  -5   9   35.60    4.90
   3  -5   9  301.57   18.50
  -4   5  -9   22.10    4.20
  -5   5  -9   37.70    5.80
   5  -5   9   43.70    8.00
   5  -5   9   47.20    6.00
  -6   5  -9  100.49   11.60
   6  -5   9  105.49   11.00
   6  -5   9  115.29   14.90
   3   4  -9   41.20    4.80
   2   4  -9  109.79    7.10
   2   4  -9   92.09    6.60
  -2  -4   9  108.29    6.90
   1   4  -9  725.93   38.70
   1   4  -9  733.63   38.60
  -1  -4   9  772.92   39.00
  -1  -4   9  789.42   39.10
   0   4  -9    3.10    1.10
   0   4  -9    2.30    2.50
   0   4  -9   -1.10    2.00
   0  -4   9    0.20    2.10
   0  -4   9    2.30    1.90
  -1   4  -9 1099.89   59.29
  -1   4  -9 1159.78   59.89
  -1   4  -9 1326.37   58.79
   1  -4   9 1107.49   58.99
   1  -4   9 1144.29   59.59
  -2   4  -9  103.89    7.00
  -2   4  -9  118.49    8.60
   2  -4   9  114.99    7.20
   2  -4   9  121.49    7.70
  -3   4  -9   41.20    5.80
   4  -4   9  909.61   47.40
  -5   4  -9    0.00    3.60
   5  -4   9   -0.50    3.70
   5  -4   9   12.60    6.00
  -6   4  -9  138.59   12.60
   6  -4   9  142.49   15.30
   6  -4   9  149.59   11.80
   4   3  -9   40.40    5.40
   3   3  -9  320.87   16.70
   3   3  -9  288.17   16.10
  -3  -3   9  283.77   18.10
   2   3  -9    1.00    1.70
   2   3  -9    0.20    1.50
  -2  -3   9    0.90    3.30
  -2  -3   9    1.00    1.70
   1   3  -9  598.04   28.70
   1   3  -9  560.64   28.60
   1   3  -9  528.15   28.70
  -1  -3   9  573.14   29.20
  -1  -3   9  537.95   28.80
   0   3  -9  185.98    9.00
   0   3  -9  169.48    9.90
   0   3  -9  168.48    9.50
   0  -3   9  153.78    9.50
   0  -3   9  167.98    9.50
   0  -3   9  170.08    9.70
  -1   3  -9  181.58   10.00
  -1   3  -9  179.68    9.50
  -1   3  -9  177.38   10.70
   1  -3   9  165.58    9.80
   1  -3   9  175.78   10.20
   1  -3   9  186.88    9.70
  -2   3  -9  478.35   27.20
  -2   3  -9  506.05   27.30
  -2   3  -9  561.84   28.50
   2  -3   9  559.94   27.70
   2  -3   9  537.75   27.30
   2  -3   9  518.95   26.60
  -3   3  -9   50.09    5.90
   3  -3   9   49.20    4.60
   3  -3   9   42.80    3.10
  -4   3  -9   74.79    6.90
   4  -3   9   85.69    7.40
  -5   3  -9  263.37   17.40
   5  -3   9  285.07   18.90
   5  -3   9  291.97   16.60
  -6   3  -9    5.20    5.70
   6  -3   9    8.00    7.70
   6  -3   9   -4.70    5.10
   5   2  -9   -0.80    3.60
   5   2  -9    2.60    3.70
   4   2  -9   75.39    5.90
   4   2  -9   78.19    6.30
   3   2  -9  217.98   12.20
   3   2  -9  231.98   12.50
  -3  -2   9  216.28   14.20
   2   2  -9  410.06   22.30
   2   2  -9  460.75   22.40
  -2  -2   9  438.16   23.30
  -2  -2   9  408.66   22.50
   1   2  -9  428.56   21.90
   1   2  -9  423.06   22.10
   1   2  -9  453.35   22.00
  -1  -2   9  391.96   22.50
  -1  -2   9  432.86   22.70
  -1  -2   9  437.66   22.10
   0   2  -9  560.44   30.70
   0   2  -9  639.44   30.00
   0   2  -9  601.84   30.40
   0  -2   9  615.34   30.60
   0  -2   9  580.84   30.40
   0  -2   9  579.74   30.60
  -1   2  -9  490.95   26.50
  -1   2  -9  529.05   25.60
  -1   2  -9  497.15   26.00
   1  -2   9  508.65   26.20
   1  -2   9  490.25   25.90
   1  -2   9  508.05   25.60
  -2   2  -9 1238.58   63.69
  -2   2  -9 1305.47   64.69
   2  -2   9 1275.07   63.69
   2  -2   9 1280.07   63.89
   2  -2   9 1208.18   62.99
  -3   2  -9  592.14   30.20
  -3   2  -9  492.35   28.80
   3  -2   9  536.65   27.90
   3  -2   9  584.24   29.00
  -4   2  -9   11.00    3.50
   5  -2   9  138.99   12.30
   5  -2   9  143.69   10.40
   6  -2   9   93.49   14.10
   6  -2   9   99.39   10.50
   5   1  -9   72.19    7.50
   5   1  -9   62.29    7.10
   4   1  -9   54.99    5.30
   3   1  -9   31.60    3.40
   3   1  -9   30.80    3.40
  -3  -1   9   26.30    4.50
   2   1  -9  555.34   27.60
   2   1  -9  536.15   27.70
  -2  -1   9  533.35   27.20
  -2  -1   9  504.25   28.20
  -2  -1   9  537.15   27.30
  -2  -1   9  566.74   28.70
   1   1  -9 1346.27   67.99
   1   1  -9 1323.47   67.49
  -1  -1   9 1409.16   67.69
  -1  -1   9 1364.56   68.39
  -1  -1   9 1273.57   67.99
  -1  -1   9 1375.26   67.69
   0   1  -9 1441.96   72.69
   0   1  -9 1411.16   71.99
   0  -1   9 1442.56   72.59
   0  -1   9 1354.06   72.59
   0  -1   9 1565.04   72.79
   0  -1   9 1450.75   72.29
  -1   1  -9 2049.09  108.09
  -1   1  -9 2170.28  107.19
   1  -1   9 2032.90  107.59
   1  -1   9 2187.78  107.49
   1  -1   9 2185.78  107.69
   1  -1   9 2249.38  106.99
  -2   1  -9   52.89    4.50
  -2   1  -9   59.89    5.40
   2  -1   9   61.39    4.50
   2  -1   9   55.49    4.20
   2  -1   9   64.49    4.70
   2  -1   9   63.29    3.50
  -3   1  -9  634.34   32.70
  -3   1  -9  575.74   31.30
   3  -1   9  605.54   30.40
   3  -1   9  582.84   31.30
  -4   1  -9  521.85   28.50
   4  -1   9  565.64   28.30
   4  -1   9  505.25   28.90
   5  -1   9   38.90    5.70
   5  -1   9   55.09    7.70
   5  -1   9   44.00    5.70
   6  -1   9  101.49   11.40
   6  -1   9   80.49   11.80
   6  -1   9  122.09   15.70
   6   0  -9    9.80    5.60
   6   0  -9    9.50    5.20
   5   0  -9    5.60    3.50
   5   0  -9    7.30    3.80
   4   0  -9   98.39    7.10
   4   0  -9   97.09    7.30
   3   0  -9   81.49    5.60
   3   0  -9   79.69    5.50
  -3   0   9   71.69    6.20
  -3   0   9   72.09    7.20
   2   0  -9  368.46   20.10
   2   0  -9  407.96   20.50
  -2   0   9  394.16   20.00
  -2   0   9  380.16   20.60
  -2   0   9  389.96   20.00
  -2   0   9  405.56   21.40
   1   0  -9 1208.48   60.49
   1   0  -9 1166.28   60.99
  -1   0   9 1243.78   61.59
  -1   0   9 1268.77   60.89
  -1   0   9 1166.38   61.19
   0   0  -9   53.09    3.90
   0   0  -9   56.89    3.40
   0   0  -9   58.49    3.90
   0   0   9   60.69    4.20
   0   0   9   58.79    4.00
  -1   0  -9  312.87   19.60
   1   0   9  383.96   19.30
   1   0   9  397.66   19.30
  -2   0  -9  973.00   48.50
  -2   0  -9  929.91   47.30
   2   0   9  938.61   47.70
   2   0   9  893.71   47.30
   2   0   9  922.21   47.70
   2   0   9  944.71   46.80
  -3   0  -9   98.39    8.20
   3   0   9   84.19    5.70
   3   0   9   97.09    6.80
   4   0   9  273.07   15.50
   4   0   9  263.17   17.10
   4   0   9  258.27   15.40
   4   0   9  267.87   15.20
   5   0   9   26.90    5.30
   5   0   9   16.50    7.60
   5   0   9   34.20    5.50
   6  -1  -9   -4.30    4.50
   6  -1  -9   17.00    5.40
   5  -1  -9   41.60    6.30
   4  -1  -9    3.60    2.20
   4  -1  -9    6.60    2.80
   3  -1  -9 1081.99   50.39
   3  -1  -9  964.00   49.20
   3  -1  -9  914.41   49.90
   3  -1  -9 1005.20   49.70
  -3   1   9  995.20   49.40
  -3   1   9  913.61   50.99
   2  -1  -9    3.60    1.20
   2  -1  -9    2.20    1.40
   2  -1  -9    1.30    1.20
   2  -1  -9    3.40    1.60
  -2   1   9   -0.80    1.50
  -2   1   9    0.00    2.40
   1  -1  -9  893.91   45.80
   1  -1  -9  897.41   45.70
  -1   1   9  897.31   46.40
  -1   1   9  925.91   45.90
   0  -1  -9  644.44   31.30
   0  -1  -9  611.34   31.40
   0   1   9  591.14   31.40
   0   1   9  591.44   31.40
  -1  -1  -9    0.00    1.50
  -1  -1  -9    0.30    2.30
   1   1   9   -1.70    1.70
   1   1   9    1.00    1.70
  -2  -1  -9  589.04   30.30
  -2  -1  -9  606.94   31.00
   2   1   9  538.15   29.70
  -3  -1  -9  196.68   12.80
   3   1   9  187.48   10.50
   3   1   9  175.38   10.70
   4   1   9  160.18   12.70
   4   1   9  152.38   10.00
   4   1   9  143.49   10.80
   5   1   9   97.29   13.60
   5   1   9   98.19   10.20
   5   1   9   85.49    9.80
   6  -2  -9   -2.80    4.50
   6  -2  -9    0.50    4.90
   5  -2  -9  111.29    8.80
   5  -2  -9  115.89    9.10
   4  -2  -9   36.00    3.10
   4  -2  -9   29.70    4.20
   4  -2  -9   37.50    4.60
  -4   2   9   35.90    4.10
   3  -2  -9  110.89    6.50
   3  -2  -9  109.89    6.80
   3  -2  -9  123.79    7.60
   3  -2  -9  101.69    7.10
  -3   2   9  108.79    6.90
   2  -2  -9  466.95   23.70
   2  -2  -9  476.95   24.00
  -2   2   9  432.16   24.80
  -2   2   9  451.85   23.90
   1  -2  -9   44.10    3.80
   1  -2  -9   47.40    3.70
  -1   2   9   40.40    4.00
  -1   2   9   49.10    4.80
   0  -2  -9  461.85   21.70
   0  -2  -9  421.86   21.80
   0   2   9  392.36   21.90
   0   2   9  373.56   21.90
  -1  -2  -9  288.17   15.70
   1   2   9  280.57   15.20
  -2  -2  -9  186.48   11.70
  -2  -2  -9  205.78   12.60
   2   2   9  180.58   10.80
  -3  -2  -9  201.18   12.60
  -3  -2  -9  183.68   14.00
   3   2   9  193.08   10.80
   4   2   9   -2.30    6.40
   4   2   9    2.00    4.50
   6  -3  -9    5.20    5.10
   6  -3  -9    7.70    4.80
   5  -3  -9   94.19    8.70
   5  -3  -9  106.09    8.40
   5  -3  -9  111.99    6.90
   4  -3  -9   36.10    4.80
   4  -3  -9   31.30    4.10
   4  -3  -9   37.10    5.50
   4  -3  -9   40.70    3.90
  -4   3   9   35.70    5.20
   3  -3  -9   12.40    2.20
   3  -3  -9   11.50    2.80
   3  -3  -9   15.80    2.50
   3  -3  -9    9.70    2.40
  -3   3   9   12.50    3.10
   2  -3  -9   39.80    3.80
   2  -3  -9   38.50    3.90
  -2   3   9   29.30    4.30
  -2   3   9   32.10    4.60
   1  -3  -9   80.89    5.70
   1  -3  -9   80.69    5.60
  -1   3   9   67.39    6.50
   0  -3  -9   46.20    4.40
   0   3   9   40.70    5.00
  -1  -3  -9  219.18   12.80
   1   3   9  186.48   11.80
  -2  -3  -9   13.00    5.00
  -2  -3  -9   15.20    3.90
  -3  -3  -9  159.28   11.90
   6  -4  -9   -0.40    5.20
   6  -4  -9   -4.00    5.20
   5  -4  -9   26.60    5.00
   5  -4  -9   27.20    3.80
   5  -4  -9   31.80    4.70
   4  -4  -9   27.60    3.70
   4  -4  -9   40.10    4.70
   4  -4  -9   28.30    3.90
   3  -4  -9   20.80    3.30
   3  -4  -9   19.40    3.20
   2  -4  -9   12.40    3.10
   2  -4  -9    9.30    2.50
   1  -4  -9   70.09    5.90
   1  -4  -9   68.69    5.30
  -1   4   9   54.39    7.50
   0  -4  -9   42.40    5.70
   0   4   9   37.60    5.10
  -1  -4  -9   23.20    5.40
  -1  -4  -9   44.10    6.20
  -2  -4  -9   87.89    9.00
   6  -5  -9   -3.90    6.10
   6  -5  -9    0.00    4.70
   6  -5  -9   -0.90    5.90
   5  -5  -9   16.70    4.80
   5  -5  -9    7.10    4.90
   5  -5  -9   11.50    4.20
   4  -5  -9   10.20    3.80
   4  -5  -9   10.00    3.80
   4  -5  -9    6.70    3.90
   3  -5  -9    7.90    3.10
   3  -5  -9    7.00    3.40
   2  -5  -9   74.99    6.90
   2  -5  -9   69.39    6.00
   1  -5  -9   56.99    6.50
   1  -5  -9   53.19    5.80
   0  -5  -9  130.29   10.20
  -1  -5  -9   -4.20    4.60
   5  -6  -9    1.70    5.20
   5  -6  -9    3.30    6.00
   4  -6  -9   23.60    5.20
   4  -6  -9   27.60    5.30
   3  -6  -9   38.30    5.90
   2  -6  -9    7.70    4.90
   1  -6  -9   15.20    5.30
  -1   7 -10   39.20    4.90
   1  -7  10   31.10    6.10
  -2   7 -10  145.19   10.40
   2  -7  10  159.98   12.20
  -3   7 -10    3.80    4.90
   3  -7  10    2.40    5.30
  -4   7 -10   46.90    6.80
   4  -7  10   58.09   10.30
   4  -7  10   80.39   10.00
   1   6 -10   98.69    6.70
   0   6 -10   62.99    4.90
   0  -6  10   68.29    7.70
  -1   6 -10   56.39    4.90
   1  -6  10   53.19    6.20
   1  -6  10   48.50    7.70
  -2   6 -10   99.09    7.40
   2  -6  10   98.89    8.40
   2  -6  10   88.69    9.90
  -3   6 -10  200.98   13.50
   3  -6  10  222.28   14.00
   3  -6  10  224.78   15.60
  -4   6 -10   20.10    4.70
   4  -6  10   29.60    5.20
   4  -6  10   31.70    7.80
   5  -6  10  110.09   11.00
   5  -6  10  108.59   14.40
   2   5 -10  137.29    8.90
   1   5 -10  119.39    6.90
  -1  -5  10  112.19    8.50
   0   5 -10  118.19    8.60
   0  -5  10  119.49    8.30
   0  -5  10  106.39    8.60
  -1   5 -10  585.54   31.00
   1  -5  10  580.94   30.00
   1  -5  10  563.04   31.20
  -2   5 -10   43.50    6.90
  -3   5 -10  303.17   18.40
   3  -5  10  351.86   18.80
   4  -5  10  112.79   11.80
   4  -5  10  131.59    9.50
   5  -5  10  131.69   14.00
   5  -5  10  133.39   10.70
   6  -5  10  104.59   11.40
   6  -5  10   88.29   12.80
   3   4 -10   39.80    5.00
   2   4 -10   48.30    4.60
   2   4 -10   44.10    4.80
  -2  -4  10   47.70    5.10
   1   4 -10  294.87   16.30
   1   4 -10  288.57   16.00
  -1  -4  10  306.17   16.90
  -1  -4  10  296.17   16.30
   0   4 -10    0.40    2.60
   0   4 -10    3.10    1.90
   0   4 -10   -1.60    2.40
   0  -4  10   -0.20    2.10
   0  -4  10    1.00    2.40
  -1   4 -10  345.37   19.10
  -1   4 -10  366.46   17.80
   1  -4  10  315.67   18.20
   1  -4  10  332.87   18.60
  -2   4 -10  416.86   22.80
  -2   4 -10  397.96   21.20
   2  -4  10  406.66   21.90
   2  -4  10  391.56   22.20
  -3   4 -10  229.38   14.20
  -3   4 -10  192.28   12.60
   4  -4  10  253.07   19.80
  -5   4 -10    3.80    4.30
   5  -4  10   10.10    4.00
   5  -4  10    1.40    5.70
  -6   4 -10   46.10    7.90
   6  -4  10   72.59   10.50
   6  -4  10   64.79    7.50
   4   3 -10   24.90    4.10
   3   3 -10   68.79    5.70
   3   3 -10   72.29    5.70
   2   3 -10    2.30    1.80
   2   3 -10    5.30    1.80
  -2  -3  10    2.00    3.80
  -2  -3  10    2.80    1.90
   1   3 -10  497.15   26.10
   1   3 -10  490.15   26.40
   1   3 -10  543.45   26.30
  -1  -3  10  514.85   26.50
  -1  -3  10  500.85   27.00
   0   3 -10    9.60    1.80
   0   3 -10    7.60    2.40
   0   3 -10    7.70    1.20
   0  -3  10    7.80    2.10
   0  -3  10    4.70    1.70
   0  -3  10    9.90    2.20
  -1   3 -10   11.40    2.10
  -1   3 -10   13.40    1.80
  -1   3 -10   16.70    3.10
   1  -3  10   12.30    2.30
   1  -3  10   14.60    2.50
   1  -3  10   13.20    1.90
  -2   3 -10  332.57   17.80
  -2   3 -10  307.57   16.30
   2  -3  10  293.57   16.30
   2  -3  10  276.97   15.60
   2  -3  10  314.77   16.80
  -3   3 -10  328.17   19.20
   3  -3  10  317.87   19.30
  -4   3 -10   82.09    7.40
  -5   3 -10  111.79   10.80
   5  -3  10  145.79   12.70
   5  -3  10  134.09   10.10
  -6   3 -10   -1.20    5.90
   6  -3  10   -1.50    5.50
   6  -3  10    1.40    8.40
   5   2 -10   19.30    4.30
   5   2 -10   23.40    4.20
   4   2 -10   91.09    7.20
   4   2 -10   92.59    6.70
   3   2 -10  224.58   12.20
  -3  -2  10  212.28   14.80
   2   2 -10  161.68    9.80
   2   2 -10  188.88    9.70
  -2  -2  10  180.98   11.30
  -2  -2  10  159.38    9.30
  -2  -2  10  173.58    9.40
   1   2 -10    1.80    1.40
   1   2 -10    2.50    1.30
  -1  -2  10   -0.20    2.00
  -1  -2  10    2.50    1.40
  -1  -2  10    1.50    2.30
   0   2 -10  941.61   45.50
   0   2 -10  925.91   46.40
   0   2 -10  835.62   45.90
   0  -2  10  933.91   46.20
   0  -2  10  927.51   46.20
   0  -2  10  882.61   45.90
  -1   2 -10  574.74   30.80
  -1   2 -10  650.63   30.50
  -1   2 -10  576.24   31.50
   1  -2  10  598.24   30.90
   1  -2  10  634.74   31.20
   1  -2  10  570.34   30.40
  -2   2 -10   70.59    5.70
  -2   2 -10   91.79    7.00
   2  -2  10   91.59    5.90
   2  -2  10   77.59    4.50
   2  -2  10   82.09    5.50
   2  -2  10   85.49    5.80
  -3   2 -10  663.23   33.00
   3  -2  10  597.44   31.30
   3  -2  10  542.15   30.10
  -4   2 -10   39.60    5.10
   4  -2  10   38.70    5.20
   5  -2  10  110.39   11.80
   5  -2  10  107.19    9.20
   6  -2  10   43.90    7.00
   6  -2  10   28.80   10.00
   5   1 -10   43.80    6.70
   5   1 -10   50.99    6.20
   4   1 -10   74.59    6.20
   4   1 -10   74.49    6.40
   3   1 -10    1.60    1.90
   3   1 -10    2.60    1.90
  -3  -1  10   -0.60    5.00
   2   1 -10  514.45   26.80
   2   1 -10  536.35   27.10
  -2  -1  10  549.15   28.10
  -2  -1  10  522.95   26.50
  -2  -1  10  538.35   26.60
  -2  -1  10  474.65   27.40
   1   1 -10  296.17   15.70
   1   1 -10  314.47   16.30
  -1  -1  10  303.87   16.30
  -1  -1  10  288.17   16.70
  -1  -1  10  305.97   16.00
  -1  -1  10  316.77   16.00
   0   1 -10   42.00    2.60
   0   1 -10   39.90    3.40
   0  -1  10   38.20    3.30
   0  -1  10   46.40    3.50
   0  -1  10   47.60    3.70
   0  -1  10   38.40    3.10
  -1   1 -10 1761.52   81.89
  -1   1 -10 1476.45   82.69
   1  -1  10 1680.13   82.39
   1  -1  10 1587.44   81.59
   1  -1  10 1664.43   82.39
  -2   1 -10   75.69    6.30
  -2   1 -10   52.39    5.00
   2  -1  10   69.29    5.10
   2  -1  10   66.69    3.70
   2  -1  10   64.79    4.70
   2  -1  10   70.49    5.30
  -3   1 -10  940.21   46.50
  -3   1 -10  805.22   44.80
   3  -1  10  874.21   45.10
   3  -1  10  874.11   43.90
  -4   1 -10   21.60    4.00
   4  -1  10    9.60    3.30
   5  -1  10    5.60    4.50
   5  -1  10   13.70    6.50
   5  -1  10   10.70    4.90
   6   0 -10   10.60    5.90
   6   0 -10   24.60    5.90
   5   0 -10    3.80    3.70
   5   0 -10   -1.40    3.90
   4   0 -10  358.46   19.80
   4   0 -10  329.07   20.80
   3   0 -10   73.59    5.10
   3   0 -10   67.89    5.20
  -3   0  10   59.49    6.20
   2   0 -10   48.10    3.50
   2   0 -10   42.10    3.90
  -2   0  10   53.49    4.40
  -2   0  10   49.10    3.60
  -2   0  10   48.80    5.50
  -2   0  10   52.09    3.40
   1   0 -10 1411.96   69.09
   1   0 -10 1232.78   68.19
  -1   0  10 1418.96   68.69
  -1   0  10 1458.65   68.79
  -1   0  10 1235.08   69.29
  -1   0  10 1443.36   68.79
   0   0 -10  130.79    7.50
   0   0  10  125.09    7.40
   0   0  10  125.39    7.40
   0   0  10  125.49    7.60
  -1   0 -10  283.07   17.30
   1   0  10  338.47   16.90
   1   0  10  305.07   16.70
   1   0  10  325.27   16.80
  -2   0 -10  839.32   41.60
  -2   0 -10  798.32   40.10
   2   0  10  703.93   40.10
   2   0  10  759.12   39.40
   2   0  10  845.22   40.70
  -3   0 -10   21.50    4.70
   3   0  10   28.20    4.80
   3   0  10   20.80    3.00
   4   0  10  277.27   15.90
   4   0  10  257.77   15.60
   4   0  10  285.17   16.10
   5   0  10   44.00    8.70
   5   0  10   31.90    5.90
   5   0  10   41.70    6.20
   6  -1 -10   25.40    5.70
   6  -1 -10   10.70    5.50
   5  -1 -10  110.69    8.70
   5  -1 -10   97.89    8.50
   4  -1 -10   18.10    3.70
   4  -1 -10   18.70    3.20
   3  -1 -10  337.47   16.60
   3  -1 -10  281.37   16.80
   3  -1 -10  300.37   16.10
  -3   1  10  318.07   16.30
   2  -1 -10  219.28   11.60
   2  -1 -10  210.28   12.10
   2  -1 -10  230.28   12.00
  -2   1  10  235.58   12.20
  -2   1  10  212.98   13.40
   1  -1 -10   57.69    4.40
   1  -1 -10   56.19    4.10
  -1   1  10   56.29    5.00
  -1   1  10   50.99    4.20
   0  -1 -10 1165.98   60.29
   0  -1 -10 1285.57   60.29
   0   1  10 1194.08   60.39
   0   1  10 1110.69   60.29
  -1  -1 -10  189.48   12.00
  -1  -1 -10  199.18   11.40
   1   1  10  206.98   11.20
  -2  -1 -10   49.40    4.90
  -2  -1 -10   48.00    6.20
   2   1  10   36.80    4.80
  -3  -1 -10  282.27   16.80
   3   1  10  247.18   13.90
   3   1  10  239.48   14.20
   3   1  10  282.17   15.20
   4   1  10   83.29   11.30
   4   1  10   72.29    7.10
   4   1  10   85.39    8.30
   6  -2 -10   10.70    4.90
   6  -2 -10    1.90    5.00
   5  -2 -10   55.79    6.80
   5  -2 -10   51.49    6.90
   4  -2 -10  127.09    8.30
   4  -2 -10  122.39    7.20
   4  -2 -10  114.49    9.20
  -4   2  10  136.69    8.10
   3  -2 -10  113.49    6.90
   3  -2 -10  118.19    7.80
   3  -2 -10  106.69    7.60
   3  -2 -10  124.39    7.10
  -3   2  10  116.69    7.60
   2  -2 -10  429.66   21.30
   2  -2 -10  416.16   21.50
  -2   2  10  383.06   22.60
  -2   2  10  391.76   21.50
   1  -2 -10    1.70    1.60
   1  -2 -10    1.70    2.00
  -1   2  10    0.80    2.10
  -1   2  10    0.90    2.70
   0  -2 -10  546.45   26.20
   0  -2 -10  491.75   26.30
   0   2  10  464.35   26.50
   1   2  10  377.46   20.10
  -2  -2 -10  481.85   25.80
   2   2  10  439.06   24.80
  -3  -2 -10  139.99   10.80
  -3  -2 -10  161.98   13.10
   4   2  10    6.40    4.90
   4   2  10   23.70    8.10
   6  -3 -10   -0.70    4.90
   5  -3 -10   -0.20    2.30
   5  -3 -10    3.70    4.00
   5  -3 -10   -5.70    3.70
   4  -3 -10   32.70    5.00
   4  -3 -10   25.60    4.30
   4  -3 -10   37.60    4.10
  -4   3  10   33.90    4.40
   3  -3 -10   70.59    5.30
   3  -3 -10   67.19    5.50
   3  -3 -10   66.99    5.80
  -3   3  10   67.39    6.50
   2  -3 -10   72.79    5.50
   2  -3 -10   75.19    5.50
   1  -3 -10  286.47   15.40
   1  -3 -10  296.57   15.60
  -1   3  10  250.87   16.20
   0  -3 -10   33.20    4.60
   0   3  10   19.40    4.00
  -1  -3 -10  261.37   13.70
  -1  -3 -10  184.28   13.80
   1   3  10  220.48   13.40
  -2  -3 -10   78.09    8.10
  -2  -3 -10   79.89    9.80
  -3  -3 -10   35.70    6.20
   6  -4 -10   20.30    5.60
   6  -4 -10    4.80    5.80
   5  -4 -10   22.30    4.90
   5  -4 -10   20.40    3.70
   5  -4 -10   21.80    4.60
   4  -4 -10   -3.20    2.80
   4  -4 -10   -3.30    3.00
   4  -4 -10   -3.20    3.30
   3  -4 -10   68.89    6.00
   3  -4 -10   60.99    6.70
   2  -4 -10    3.80    2.60
   2  -4 -10    4.60    2.70
   1  -4 -10  225.78   12.80
   1  -4 -10  228.68   13.60
   0  -4 -10   58.09    6.90
   0  -4 -10   57.99    6.40
   0   4  10   50.89    6.50
  -1  -4 -10   85.09    9.90
  -1  -4 -10   76.39    8.30
  -2  -4 -10   70.59    9.60
   5  -5 -10   15.40    4.50
   5  -5 -10   19.10    5.50
   5  -5 -10   16.00    5.60
   4  -5 -10   23.40    4.40
   4  -5 -10   16.90    4.50
   3  -5 -10  159.38   10.80
   2  -5 -10   76.99    7.10
   2  -5 -10   74.49    7.40
   1  -5 -10   90.89    8.40
   1  -5 -10   96.29    7.70
   0  -5 -10   88.89    9.20
   4  -6 -10   15.40    5.40
   4  -6 -10   15.70    5.30
   3  -6 -10    5.80    4.80
   3  -6 -10   18.10    4.90
   2  -6 -10   -6.60    4.80
  -2   7 -11  155.38   10.90
   2  -7  11  151.58   12.40
  -3   7 -11   15.40    5.20
   3  -7  11    5.80    5.50
   3  -7  11   19.70    8.40
   0   6 -11  240.78   13.00
   0  -6  11  237.28   15.40
  -1   6 -11   40.60    4.40
   1  -6  11   36.40    5.40
  -2   6 -11  177.58   11.40
   2  -6  11  197.08   14.10
   2  -6  11  185.28   12.70
  -3   6 -11  176.18   12.60
   3  -6  11  204.68   13.30
  -4   6 -11   -1.40    4.20
   4  -6  11   -5.30    4.60
   4  -6  11   -5.50    6.90
   5  -6  11  136.99   16.20
   5  -6  11  134.89   12.50
   2   5 -11  249.88   14.20
   1   5 -11   70.19    7.50
   1   5 -11   74.29    5.00
  -1  -5  11   74.69    7.20
   0   5 -11  147.29   10.70
   0   5 -11  164.08    8.70
   0  -5  11  151.98   10.30
  -1   5 -11  580.94   30.80
  -1   5 -11  587.44   29.10
   1  -5  11  516.95   29.60
   1  -5  11  583.94   30.40
  -2   5 -11   -3.10    2.40
  -2   5 -11    5.50    4.20
  -3   5 -11  687.43   38.00
  -3   5 -11  755.62   40.00
   3  -5  11  734.43   38.60
  -4   5 -11   35.50    5.10
   4  -5  11   42.90    7.60
   4  -5  11   32.10    5.40
  -5   5 -11   15.80    5.20
   5  -5  11   23.70    7.90
   5  -5  11   30.00    5.30
   3   4 -11    7.30    3.00
   2   4 -11   16.70    3.30
   2   4 -11   14.00    2.90
  -2  -4  11   23.50    3.30
   1   4 -11  486.55   26.10
   1   4 -11  451.25   26.40
   1   4 -11  552.94   25.80
  -1  -4  11  495.15   27.20
  -1  -4  11  513.35   26.50
   0   4 -11   -1.90    2.80
   0   4 -11    3.30    3.00
   0   4 -11    0.50    1.40
   0  -4  11    1.70    2.70
   0  -4  11    1.30    2.30
  -1   4 -11  464.55   25.10
  -1   4 -11  472.75   23.50
   1  -4  11  415.66   24.10
   1  -4  11  472.75   24.60
  -2   4 -11  938.51   48.90
  -2   4 -11  971.90   50.59
   2  -4  11  973.10   49.70
  -3   4 -11  238.58   15.00
  -3   4 -11  257.77   16.20
  -4   4 -11  289.47   19.40
   4  -4  11  361.56   19.00
  -5   4 -11    9.40    4.80
   5  -4  11    9.30    6.40
   5  -4  11   17.20    4.80
  -6   4 -11   17.60    6.90
   6  -4  11   29.50    7.00
   6  -4  11   33.00   11.00
   4   3 -11   11.70    3.80
   3   3 -11   54.89    5.10
   3   3 -11   61.59    5.30
   2   3 -11   24.10    3.20
   2   3 -11   29.70    3.60
  -2  -3  11   27.70    5.40
  -2  -3  11   31.30    3.90
   1   3 -11   26.60    3.30
   1   3 -11   30.90    2.90
   1   3 -11   29.60    3.40
  -1  -3  11   27.50    3.70
  -1  -3  11   22.20    3.80
   0   3 -11 1746.23   91.69
   0   3 -11 1710.73   92.29
   0   3 -11 1961.60   91.19
   0  -3  11 1849.02   91.99
   0  -3  11 1857.61   92.09
  -1   3 -11  131.49    7.20
  -1   3 -11  115.59    8.60
  -1   3 -11  127.09    8.00
   1  -3  11  125.39    7.40
   1  -3  11  137.69    8.30
  -2   3 -11  322.67   16.70
  -2   3 -11  306.07   18.00
   2  -3  11  309.17   17.20
   2  -3  11  296.07   16.10
  -3   3 -11  548.15   29.00
  -4   3 -11   70.69    9.20
   4  -3  11   98.49    7.80
  -5   3 -11  309.87   21.60
   5  -3  11  391.26   23.90
   5  -3  11  404.36   21.60
  -6   3 -11  -12.50    6.70
   6  -3  11    6.60    8.70
   6  -3  11   10.50    6.00
   5   2 -11    7.30    5.40
   4   2 -11   89.19    7.60
   4   2 -11  107.09    7.60
   3   2 -11   58.59    5.10
   2   2 -11  557.84   29.60
   2   2 -11  608.04   29.30
  -2  -2  11  540.45   29.10
  -2  -2  11  576.84   29.10
  -2  -2  11  566.74   30.80
   1   2 -11   16.00    2.10
   1   2 -11   12.80    2.20
  -1  -2  11   15.40    2.30
  -1  -2  11   14.30    2.10
  -1  -2  11   12.20    2.60
  -1  -2  11   17.80    3.40
   0   2 -11  841.52   41.70
   0   2 -11  798.72   40.70
   0  -2  11  798.22   41.40
   0  -2  11  804.72   41.20
   0  -2  11  830.82   41.50
   0  -2  11  788.12   41.30
  -1   2 -11  874.21   49.60
  -1   2 -11 1064.99   48.60
   1  -2  11  984.10   48.50
   1  -2  11  924.21   49.20
   1  -2  11  976.20   49.20
   1  -2  11  954.50   49.30
  -2   2 -11  496.85   24.90
  -2   2 -11  506.85   26.30
   2  -2  11  472.75   25.20
   2  -2  11  430.26   23.90
  -3   2 -11  494.45   27.30
   3  -2  11  530.35   26.00
  -4   2 -11   -3.90    4.80
  -4   2 -11    1.90    3.40
   4  -2  11    2.90    3.10
  -5   2 -11  181.28   14.00
   5  -2  11  210.08   16.40
   5  -2  11  211.88   13.70
   5   1 -11   22.90    4.60
   5   1 -11   18.20    4.30
   4   1 -11   83.99    6.60
   4   1 -11   80.39    6.50
   3   1 -11  122.89    7.50
   3   1 -11  113.89    7.40
   2   1 -11  546.45   27.00
   2   1 -11  527.15   27.30
  -2  -1  11  511.65   28.50
  -2  -1  11  556.74   26.90
  -2  -1  11  471.45   27.70
  -2  -1  11  534.05   26.80
   1   1 -11 1056.89   53.79
   1   1 -11 1111.59   54.29
  -1  -1  11 1163.98   54.19
  -1  -1  11 1027.90   54.19
  -1  -1  11  941.51   54.79
  -1  -1  11 1124.99   54.39
   0   1 -11  177.08    9.30
   0   1 -11  182.88   10.20
   0  -1  11  179.78   10.30
   0  -1  11  182.88    9.70
   0  -1  11  182.88   10.10
   0  -1  11  173.98   10.20
  -1   1 -11 1452.85   63.79
  -1   1 -11 1198.28   64.69
   1  -1  11 1291.87   64.29
   1  -1  11 1253.97   64.19
   1  -1  11 1209.68   63.39
   1  -1  11 1194.98   64.19
  -2   1 -11   87.29    6.50
  -2   1 -11  113.49    8.20
   2  -1  11  108.69    6.70
   2  -1  11   83.39    5.00
  -3   1 -11  647.14   35.70
  -3   1 -11  687.83   39.20
   3  -1  11  736.03   36.30
   3  -1  11  675.23   34.60
  -4   1 -11  200.38   13.00
  -4   1 -11  216.48   15.60
   4  -1  11  205.08   13.10
   5  -1  11   18.70    8.00
   5  -1  11   13.00    5.20
   5  -1  11    9.60    5.20
   5   0 -11   18.70    4.30
   5   0 -11   24.30    4.70
   4   0 -11   52.29    5.50
   4   0 -11   49.00    5.60
   3   0 -11  176.68    9.70
   3   0 -11  168.78   10.00
  -3   0  11  155.78   10.90
   2   0 -11   88.19    5.20
   2   0 -11   83.99    5.80
  -2   0  11   87.19    5.30
  -2   0  11   87.89    5.50
  -2   0  11   85.89    6.20
  -2   0  11   85.69    8.00
   1   0 -11  214.88   11.80
   1   0 -11  207.48   10.90
  -1   0  11  179.28   12.20
  -1   0  11  222.28   11.50
  -1   0  11  216.68   11.50
  -1   0  11  217.48   11.50
   0   0 -11  726.93   38.10
   0   0  11  752.42   38.10
   0   0  11  739.63   38.30
   0   0  11  756.82   38.10
  -1   0 -11  613.84   30.90
   1   0  11  614.04   30.10
   1   0  11  549.15   30.10
   1   0  11  540.65   29.90
  -2   0 -11   74.99    7.50
   2   0  11   86.29    7.80
   3   0  11  155.78    9.70
   3   0  11  142.29    8.10
  -4   0 -11  279.97   19.30
   4   0  11  288.97   16.70
   4   0  11  271.17   16.20
   5   0  11  142.79   16.40
   5   0  11  160.68   12.30
   5   0  11  153.78   12.60
   6  -1 -11   17.00    6.10
   6  -1 -11   20.40    5.60
   5  -1 -11   36.60    5.00
   5  -1 -11   44.40    6.80
   4  -1 -11   49.50    5.30
   4  -1 -11   48.20    5.50
   3  -1 -11  149.29    9.00
   3  -1 -11  154.28    8.50
   3  -1 -11  142.49    8.10
   3  -1 -11  126.79    9.10
  -3   1  11  142.99    8.50
   2  -1 -11  358.56   17.90
   2  -1 -11  352.66   18.70
   2  -1 -11  326.67   18.40
   2  -1 -11  347.17   18.40
  -2   1  11  362.16   18.60
   1  -1 -11  433.26   22.20
  -1   1  11  453.25   22.50
  -1   1  11  387.86   23.00
   0  -1 -11   93.39    5.80
   0  -1 -11   88.39    5.80
   0   1  11   85.09    6.20
   0   1  11   67.69    5.90
  -1  -1 -11   62.19    5.20
  -1  -1 -11   60.49    6.20
   1   1  11   58.19    5.00
  -2  -1 -11  277.47   17.00
  -3  -1 -11  388.56   25.00
   3   1  11  407.36   22.00
   4   1  11    6.40    4.60
   4   1  11   16.30    7.30
   6  -2 -11   14.30    5.50
   6  -2 -11    9.20    5.20
   5  -2 -11   -1.40    3.70
   4  -2 -11  258.97   13.50
   4  -2 -11  235.68   12.60
   4  -2 -11  189.98   14.20
  -4   2  11  242.58   13.20
   3  -2 -11   12.10    2.20
   3  -2 -11   13.90    3.00
   3  -2 -11   13.10    2.70
   3  -2 -11   12.30    2.20
  -3   2  11   13.10    3.00
   2  -2 -11  213.28   12.00
   2  -2 -11  210.28   11.80
  -2   2  11  209.28   12.30
   1  -2 -11   44.80    4.20
   1  -2 -11   38.80    4.30
   0  -2 -11  144.89    9.10
   0  -2 -11  158.98    9.00
   0   2  11  129.89    9.60
  -1  -2 -11  350.06   20.00
  -2  -2 -11    0.60    4.50
  -2  -2 -11    2.60    3.20
  -3  -2 -11  196.78   15.30
  -3  -2 -11  188.98   13.10
   6  -3 -11    6.20    5.40
   6  -3 -11    0.20    5.10
   5  -3 -11   12.50    2.80
   5  -3 -11   11.20    4.40
   5  -3 -11    9.80    5.00
   4  -3 -11    5.00    2.70
   4  -3 -11    7.50    2.90
   4  -3 -11    6.10    3.80
   4  -3 -11    6.60    3.40
  -4   3  11    7.50    4.40
   3  -3 -11   38.30    4.80
   3  -3 -11   32.90    4.50
   2  -3 -11   35.50    4.30
   2  -3 -11   33.00    4.20
   1  -3 -11   57.49    4.90
   1  -3 -11   54.49    5.70
   0  -3 -11   99.69    7.50
  -1  -3 -11  109.89    9.90
  -2  -3 -11   74.99   11.30
  -2  -3 -11   78.39    8.10
   6  -4 -11   13.10    6.00
   6  -4 -11   19.60    6.30
   5  -4 -11    5.20    4.50
   5  -4 -11    5.50    4.30
   5  -4 -11    4.70    3.40
   4  -4 -11    9.80    3.70
   4  -4 -11    5.20    3.20
   4  -4 -11    6.40    3.40
   3  -4 -11   59.69    6.10
   2  -4 -11   26.00    4.00
   1  -4 -11  195.98   12.60
   1  -4 -11  206.48   11.90
   0  -4 -11   68.39    7.40
   0  -4 -11   67.49    8.20
  -1  -4 -11    2.00    4.60
   5  -5 -11   20.60    5.90
   5  -5 -11   22.30    5.00
   4  -5 -11   -3.10    4.20
   4  -5 -11    4.70    4.20
   3  -5 -11   38.00    5.00
   3  -5 -11   54.59    6.80
   2  -5 -11   41.00    5.40
   1  -5 -11    2.10    4.00
   1  -5 -11    7.00    4.50
   0  -5 -11   32.20    5.80
   0   6 -12  187.28   10.70
   0  -6  12  188.58   13.70
  -1   6 -12   90.49   10.40
  -1   6 -12   67.19    5.70
   1  -6  12   66.89    8.30
  -2   6 -12   46.30    6.00
   2  -6  12   49.80    6.30
  -3   6 -12  156.88   11.30
   3  -6  12  153.48   14.50
   3  -6  12  154.18   11.90
  -4   6 -12   42.90    6.40
   4  -6  12   53.49    9.30
   4  -6  12   39.60    6.30
   2   5 -12  189.58   11.20
   1   5 -12  110.89    6.60
   1   5 -12  109.99   10.80
  -1  -5  12  109.39    9.00
   0   5 -12  130.29    7.60
   0   5 -12  137.99   10.40
  -1   5 -12  292.17   18.10
  -1   5 -12  299.97   15.90
  -2   5 -12   49.50    5.20
   2  -5  12   60.89    6.80
  -3   5 -12  200.48   15.40
  -3   5 -12  204.88   12.80
   3  -5  12  205.78   13.40
  -4   5 -12  142.39   11.80
   4  -5  12  170.08   11.90
   4  -5  12  169.78   15.00
  -5   5 -12    3.10    5.70
   5  -5  12   -1.30    7.70
   5  -5  12  -13.60    5.00
   3   4 -12   35.10    4.30
   2   4 -12    9.00    3.40
   2   4 -12    7.30    2.90
   1   4 -12  194.18   11.90
   1   4 -12  218.98   11.10
   1   4 -12  189.18   12.40
  -1  -4  12  218.18   12.30
  -1  -4  12  199.18   13.80
   0   4 -12  368.06   21.10
   0  -4  12  365.76   20.90
   0  -4  12  408.76   20.90
  -1   4 -12  414.66   23.30
  -1   4 -12  416.46   21.60
   1  -4  12  409.86   22.60
  -2   4 -12  417.16   24.50
  -2   4 -12  475.85   26.10
   2  -4  12  479.05   25.10
  -3   4 -12    3.20    4.50
   3  -4  12    3.90    3.10
  -4   4 -12  143.49   10.60
  -4   4 -12  124.19   12.70
   4  -4  12  131.79   10.20
  -5   4 -12  163.48   14.00
   5  -4  12  202.98   13.70
   5  -4  12  192.68   16.60
   4   3 -12    6.30    3.40
   3   3 -12   90.19    6.60
   3   3 -12   90.09    6.70
   2   3 -12  250.67   13.40
   2   3 -12  241.48   13.20
  -2  -3  12  241.38   13.20
  -2  -3  12  228.38   13.40
   1   3 -12  100.09    7.60
   1   3 -12  109.39    6.70
   1   3 -12  116.69    7.30
   0   3 -12  772.62   40.00
   0   3 -12  727.83   39.10
   0   3 -12  809.52   38.60
   0  -3  12  724.83   39.50
   0  -3  12  789.42   39.60
  -1   3 -12   17.80    4.00
  -1   3 -12   20.20    2.50
   1  -3  12   18.90    3.30
  -2   3 -12  195.68   13.10
  -2   3 -12  197.98   11.50
   2  -3  12  198.48   11.90
  -3   3 -12  749.13   39.40
  -3   3 -12  685.53   37.40
  -4   3 -12   62.29    9.30
   4  -3  12   46.70    5.80
  -5   3 -12  340.67   22.00
   5  -3  12  382.76   24.40
   5  -3  12  372.26   21.80
   4   2 -12  146.39    9.40
   4   2 -12  131.09    9.20
   3   2 -12   30.70    4.00
   3   2 -12   32.20    4.30
   2   2 -12 1086.79   55.29
   2   2 -12 1083.59   55.59
  -2  -2  12 1127.09   55.39
  -2  -2  12 1084.89   55.19
   1   2 -12    0.50    1.30
   1   2 -12    0.90    1.90
  -1  -2  12    1.30    1.80
  -1  -2  12    4.60    2.80
  -1  -2  12    2.70    1.90
  -1  -2  12    8.50    3.60
   0   2 -12  715.63   34.90
   0   2 -12  660.13   33.70
   0  -2  12  674.43   34.70
   0  -2  12  641.54   34.40
   0  -2  12  660.63   34.30
  -1   2 -12  464.05   21.20
  -1   2 -12  380.36   22.40
   1  -2  12  401.56   21.00
   1  -2  12  388.06   21.70
   1  -2  12  403.66   21.80
  -2   2 -12   38.00    5.10
  -2   2 -12   32.00    4.10
   2  -2  12   32.70    2.60
   2  -2  12   35.90    4.20
  -3   2 -12  630.44   30.80
   3  -2  12  535.75   29.30
  -4   2 -12  183.18   12.00
  -4   2 -12  188.18   14.60
   4  -2  12  150.78   11.50
  -5   2 -12  218.28   15.10
   5  -2  12  189.28   14.30
   5  -2  12  218.78   17.90
   5   1 -12   -4.20    3.70
   5   1 -12    0.60    4.10
   4   1 -12  181.88   11.30
   4   1 -12  186.08   11.30
   3   1 -12   94.59    6.70
   3   1 -12   99.99    6.60
   2   1 -12  318.87   17.00
   2   1 -12  317.47   16.30
  -2  -1  12  308.57   16.20
  -2  -1  12  278.67   17.20
  -2  -1  12  321.87   16.40
   1   1 -12  128.79    6.40
   1   1 -12  110.99    7.00
  -1  -1  12   99.29    6.80
  -1  -1  12  116.39   11.20
  -1  -1  12  109.89    7.20
  -1  -1  12  109.59    6.80
   0   1 -12   24.70    3.20
   0   1 -12   19.50    2.00
   0  -1  12   23.70    3.10
   0  -1  12   27.20    4.30
   0  -1  12   23.60    2.80
   0  -1  12   20.20    2.80
  -1   1 -12  756.62   39.60
  -1   1 -12  789.72   38.30
   1  -1  12  751.22   39.40
   1  -1  12  757.62   39.00
   1  -1  12  721.53   38.00
  -2   1 -12  159.98   11.20
  -2   1 -12  164.58    9.60
   2  -1  12  172.98    9.70
   2  -1  12  136.39    8.10
  -3   1 -12  206.28   11.90
   3  -1  12  183.98   10.10
  -4   1 -12  237.68   16.90
  -4   1 -12  214.58   13.90
   4  -1  12  213.28   14.00
   5  -1  12    6.80    8.20
   5  -1  12    4.60    5.40
   5  -1  12   12.50    5.70
   5   0 -12   22.90    4.70
   5   0 -12   17.30    4.50
   4   0 -12   33.90    5.00
   3   0 -12   34.60    5.70
   3   0 -12   45.80    4.10
  -3   0  12   35.40    3.40
  -3   0  12   35.80    5.00
  -3   0  12   38.60    4.70
   2   0 -12   11.20    2.40
   2   0 -12   12.20    1.80
  -2   0  12   12.80    1.90
  -2   0  12   11.90    2.30
  -2   0  12    8.40    2.60
   1   0 -12  138.79    7.80
   1   0 -12  147.69    8.90
  -1   0  12  160.48    8.80
  -1   0  12  151.98    8.80
  -1   0  12  158.58    8.80
   0   0 -12  371.86   19.50
   0   0  12  366.36   19.40
   0   0  12  359.36   19.50
  -1   0 -12   54.69    5.90
   1   0  12   58.99    4.70
  -2   0 -12  919.81   48.60
   3   0  12   56.09    5.80
   3   0  12   40.10    5.00
   3   0  12   38.30    3.20
  -4   0 -12  198.48   16.50
   4   0  12  194.48   12.50
   4   0  12  197.28   13.30
   6  -1 -12   -4.30    6.00
   6  -1 -12   -4.50    5.60
   5  -1 -12   27.50    4.90
   5  -1 -12   39.00    5.10
   4  -1 -12   22.80    3.50
   4  -1 -12   18.50    3.60
   3  -1 -12   38.50    4.50
   3  -1 -12   29.20    4.10
   3  -1 -12   37.40    3.70
   3  -1 -12   44.20    3.90
  -3   1  12   37.40    4.50
   2  -1 -12  242.38   13.40
   2  -1 -12  252.87   12.80
   2  -1 -12  236.38   13.50
  -2   1  12  251.97   13.70
   1  -1 -12   77.39    5.50
   1  -1 -12   70.89    5.30
  -1   1  12   63.09    5.60
   0  -1 -12  258.37   14.80
   0  -1 -12  280.07   14.90
  -1  -1 -12  444.46   24.50
  -2  -1 -12  193.58   13.70
   3   1  12  294.97   17.30
   4   1  12    4.40    4.80
   6  -2 -12   31.60    6.40
   6  -2 -12   17.60    6.20
   5  -2 -12    8.70    4.30
   4  -2 -12    6.20    2.90
   4  -2 -12    2.60    2.40
   4  -2 -12    3.60    4.30
  -4   2  12    4.60    3.60
   3  -2 -12   -1.30    2.10
   3  -2 -12   -0.10    2.80
   3  -2 -12    1.40    1.90
  -3   2  12   -1.40    3.10
   2  -2 -12   42.50    4.30
   2  -2 -12   38.00    4.40
  -2   2  12   38.80    5.60
   1  -2 -12  227.78   12.70
   1  -2 -12  213.58   12.50
   0  -2 -12  271.37   15.90
   0  -2 -12  286.17   15.60
  -1  -2 -12  143.79   10.70
  -2  -2 -12    4.30    9.80
  -2  -2 -12    7.10    3.90
  -3  -2 -12  129.69   10.80
  -3  -2 -12  120.09   14.70
   6  -3 -12   -0.10    6.00
   6  -3 -12   -0.10    5.90
   5  -3 -12    4.80    3.10
   5  -3 -12    1.50    4.30
   4  -3 -12   38.10    5.60
   4  -3 -12   37.30    4.90
   4  -3 -12   32.30    4.00
   3  -3 -12   34.10    4.90
   2  -3 -12    3.30    2.70
   1  -3 -12  189.98   11.50
   1  -3 -12  186.98   11.10
   0  -3 -12  151.18    9.90
   0  -3 -12  128.49    9.60
  -1  -3 -12  233.88   13.70
  -1  -3 -12  177.48   14.50
  -2  -3 -12   88.79   13.50
  -2  -3 -12  101.79    9.60
   5  -4 -12    1.60    5.20
   5  -4 -12   -2.30    4.60
   5  -4 -12    0.80    4.40
   4  -4 -12   -0.40    3.60
   4  -4 -12    6.70    4.10
   3  -4 -12   59.09    6.30
   3  -4 -12   69.49    6.80
   2  -4 -12   32.50    4.50
   1  -4 -12   56.29    6.20
   1  -4 -12   66.09    6.90
   0  -4 -12   12.30    4.20
   0  -4 -12   20.60    5.70
  -1  -4 -12    4.10    5.00
   4  -5 -12    7.30    4.70
   4  -5 -12    6.10    4.40
   3  -5 -12    2.70    4.00
   3  -5 -12   -0.50    4.30
   2  -5 -12   11.40    4.90
   2  -5 -12   20.00    4.60
   1  -5 -12   -2.00    4.90
   0   6 -13  132.59    8.20
   0  -6  13  118.59   11.50
  -1   6 -13  112.19    7.60
   1  -6  13  107.39   10.10
  -2   6 -13   20.20    6.80
  -2   6 -13   10.60    3.60
   2  -6  13   12.50    4.90
  -3   6 -13  140.79   10.80
   3  -6  13  138.19   12.10
   3  -6  13  135.19   14.80
  -4   6 -13  151.58   12.10
   4  -6  13  150.08   16.70
   4  -6  13  122.59   12.50
   1   5 -13   54.99    4.40
  -1  -5  13   55.79    6.40
   0   5 -13    0.20    4.60
   0   5 -13   -1.40    1.80
   0  -5  13   -2.00    3.80
  -1   5 -13  179.38   10.60
  -1   5 -13  187.88   14.80
   1  -5  13  197.58   13.40
  -2   5 -13  176.88   10.90
  -2   5 -13  176.58   14.00
   2  -5  13  181.78   12.20
  -3   5 -13  146.69   11.00
  -3   5 -13  163.68   13.90
   3  -5  13  159.38   11.70
  -4   5 -13  137.89   11.30
   4  -5  13  133.09   14.70
   4  -5  13  133.69   11.30
  -5   5 -13   -5.90    6.00
   5  -5  13    1.10    5.60
   5  -5  13    6.80    9.00
   2   4 -13    4.70    3.70
   2   4 -13   -1.30    2.40
   1   4 -13   51.09    3.90
   1   4 -13   49.50    6.50
  -1  -4  13   53.99    6.00
   0   4 -13  278.97   17.10
   0   4 -13  294.97   15.30
   0  -4  13  296.67   16.70
  -1   4 -13   21.10    4.80
  -2   4 -13  549.05   30.80
  -3   4 -13   15.50    5.50
   3  -4  13   12.30    4.00
  -4   4 -13  299.67   17.80
  -4   4 -13  296.47   20.70
   4  -4  13  278.97   17.90
  -5   4 -13   76.09   10.40
   5  -4  13   56.09    7.70
   5  -4  13   57.09   10.60
   3   3 -13   43.30    4.80
   3   3 -13   36.50    5.00
   2   3 -13  253.57   14.20
   2   3 -13  248.08   14.00
  -2  -3  13  256.77   14.10
   1   3 -13   50.59    5.00
   1   3 -13   38.90    3.60
  -1  -3  13   51.39    4.90
  -1  -3  13   41.40    4.70
   0   3 -13  219.58   12.60
   0   3 -13  183.88   10.60
   0  -3  13  208.88   12.00
  -1   3 -13  349.27   21.40
  -1   3 -13  386.76   19.70
   1  -3  13  397.16   20.80
  -2   3 -13  564.94   28.50
  -2   3 -13  514.25   30.00
   2  -3  13  540.85   29.00
  -3   3 -13  407.26   22.40
  -3   3 -13  420.36   24.70
   3  -3  13  398.66   22.90
  -4   3 -13    8.30    6.30
   4  -3  13   12.10    4.80
  -5   3 -13  200.58   14.90
   5  -3  13  182.18   18.00
   5  -3  13  198.28   14.60
   4   2 -13   30.20    4.50
   3   2 -13   25.10    4.20
   3   2 -13   24.00    3.20
   2   2 -13   71.49    5.60
  -2  -2  13   79.99    5.50
  -2  -2  13   74.79    5.30
   1   2 -13  131.99    7.70
   1   2 -13  151.48    8.80
  -1  -2  13  137.69    8.60
  -1  -2  13  146.29    8.70
   0   2 -13  292.37   15.20
   0   2 -13  317.97   16.70
   0  -2  13  303.77   16.40
   0  -2  13  291.87   15.90
   0  -2  13  279.47   16.20
  -1   2 -13  163.38    8.90
  -1   2 -13  156.98   10.60
   1  -2  13  151.98    9.70
   1  -2  13  156.98    8.80
  -2   2 -13   -2.10    2.30
   2  -2  13   -1.40    1.40
  -3   2 -13  227.28   13.60
  -4   2 -13   88.29   11.70
  -4   2 -13   76.59    9.10
   4  -2  13   74.99    8.00
  -5   2 -13    6.00    5.90
   5  -2  13   -5.90    8.60
   5  -2  13    5.30    5.50
   5   1 -13   11.90    4.80
   5   1 -13   -0.60    4.30
   4   1 -13   58.09    6.30
   4   1 -13   62.49    6.40
   3   1 -13    2.50    2.90
   3   1 -13    3.30    2.60
   2   1 -13   33.00    3.10
   2   1 -13   37.50    4.40
  -2  -1  13   23.70    4.40
  -2  -1  13   27.80    3.80
  -2  -1  13   32.10    3.50
   1   1 -13  133.99    8.00
   1   1 -13  121.49    7.00
  -1  -1  13  137.09    8.00
  -1  -1  13  138.59    8.30
  -1  -1  13  127.69    8.00
   0   1 -13   36.70    2.80
   0   1 -13   41.90    4.30
   0  -1  13   40.70    4.30
   0  -1  13   38.50    4.00
   0  -1  13   39.20    3.60
  -1   1 -13  710.93   35.60
  -1   1 -13  722.33   37.50
   1  -1  13  666.13   35.20
   1  -1  13  696.93   36.30
  -2   1 -13  151.48   11.80
  -2   1 -13  177.68   10.10
   2  -1  13  163.28    8.80
  -3   1 -13   49.90    5.90
  -3   1 -13   52.79    7.60
   3  -1  13   44.70    6.10
   3  -1  13   30.30    2.70
  -4   1 -13  120.49   14.10
  -4   1 -13  138.29   10.40
   4  -1  13  142.19   10.90
   5   0 -13    5.10    4.20
   5   0 -13   -0.40    4.10
   4   0 -13    8.10    3.30
   3   0 -13   80.49    6.10
   3   0 -13   81.49    5.60
  -3   0  13   69.39    5.20
  -3   0  13   74.39    5.60
   2   0 -13  174.28   10.40
   2   0 -13  158.78    9.20
  -2   0  13  168.28    9.90
  -2   0  13  171.08   10.40
  -2   0  13  180.38    9.70
   1   0 -13  411.66   22.40
  -1   0  13  397.56   22.10
  -1   0  13  443.26   22.20
  -1   0  13  425.86   21.90
   0   0 -13  503.95   27.40
   0   0  13  537.85   27.40
  -1   0 -13   12.90    3.70
   1   0  13    8.20    2.50
  -2   0 -13  649.34   38.40
  -3   0 -13   57.99    8.40
   3   0  13   62.69    6.80
   3   0  13   61.79    6.00
  -4   0 -13   19.90    8.30
   4   0  13   16.20    5.00
   5  -1 -13   49.30    7.20
   5  -1 -13   40.90    5.70
   4  -1 -13    2.30    2.80
   4  -1 -13    2.80    3.10
   3  -1 -13   34.90    3.80
   3  -1 -13   24.10    4.00
  -3   1  13   30.80    4.00
   2  -1 -13  178.38   10.70
   2  -1 -13  203.48   10.90
  -2   1  13  179.08   11.20
   1  -1 -13    5.40    2.40
   1  -1 -13    8.20    2.40
   0  -1 -13  686.63   36.70
   0  -1 -13  724.23   36.70
  -1  -1 -13    4.80    2.90
  -1  -1 -13   11.80    5.40
   2   1  13   30.40    4.20
  -3  -1 -13  128.39   13.30
   3   1  13  129.49   10.10
   5  -2 -13    3.00    4.20
   4  -2 -13  113.69    7.40
   4  -2 -13  106.49    8.50
   4  -2 -13  113.29    7.90
   3  -2 -13    1.40    2.00
   3  -2 -13    2.00    2.80
   3  -2 -13    6.40    2.80
   3  -2 -13    4.60    3.00
  -3   2  13    4.20    4.00
   2  -2 -13  271.97   15.30
   1  -2 -13  123.19    9.50
   0  -2 -13  179.88   11.40
  -1  -2 -13   79.59    8.60
  -1  -2 -13   75.59    7.40
  -2  -2 -13   24.80    4.90
  -3  -2 -13   99.39   15.60
   3   2  13   97.59   10.00
   5  -3 -13    0.20    7.00
   5  -3 -13    8.40    4.70
   4  -3 -13   13.10    3.50
   4  -3 -13    8.30    3.20
   3  -3 -13  142.89    9.70
   3  -3 -13  145.09   10.40
   2  -3 -13   32.50    4.30
   1  -3 -13   51.59    6.20
   0  -3 -13   40.50    5.30
   0  -3 -13   53.39    6.90
  -1  -3 -13   60.99    8.30
  -2  -3 -13   55.89    7.10
  -2  -3 -13   50.29   10.40
   5  -4 -13   14.90    4.90
   5  -4 -13   11.90    5.50
   4  -4 -13   15.90    4.30
   4  -4 -13    9.40    4.10
   3  -4 -13   21.90    4.60
   3  -4 -13   21.10    4.30
   2  -4 -13    0.40    3.50
   2  -4 -13    1.60    3.80
   1  -4 -13   22.90    6.80
   1  -4 -13   14.70    4.50
   0  -4 -13   70.49    8.70
   4  -5 -13    6.70    4.90
   3  -5 -13   10.40    5.20
   3  -5 -13    8.20    5.40
   2  -5 -13   15.20    5.10
   2  -5 -13    1.90    4.50
  -1   6 -14  196.48   12.40
  -1   6 -14  235.98   16.90
   1  -6  14  222.68   15.10
  -2   6 -14    8.50    7.20
  -2   6 -14    5.40    3.80
   2  -6  14    7.80    5.10
  -3   6 -14  210.28   14.30
   3  -6  14  214.08   15.30
   1   5 -14  144.09    8.40
   0   5 -14    1.30    2.20
   0   5 -14   -3.50    5.90
  -1   5 -14  312.37   20.00
  -1   5 -14  304.37   17.00
   1  -5  14  331.87   18.80
  -2   5 -14   80.99   10.80
  -2   5 -14   70.59    6.70
   2  -5  14   74.39    8.50
  -3   5 -14  116.59   12.80
  -3   5 -14   99.79    8.80
   3  -5  14   84.39    9.70
  -4   5 -14  176.88   13.20
   4  -5  14  163.78   13.60
   2   4 -14   57.29    7.30
   2   4 -14   71.99    5.90
   1   4 -14  248.38   14.00
  -1  -4  14  288.97   15.60
   0   4 -14  184.08   17.50
   0   4 -14  219.78   11.90
   0  -4  14  255.47   13.80
  -1   4 -14   60.59    5.80
  -1   4 -14   73.79    8.50
  -2   4 -14  698.13   38.80
   2  -4  14  707.13   37.50
  -3   4 -14    1.20    3.40
  -3   4 -14    9.70    6.30
   3  -4  14    9.90    4.30
  -4   4 -14  244.78   15.60
  -4   4 -14  224.28   18.40
   4  -4  14  224.08   15.50
  -5   4 -14  140.89   13.20
   5  -4  14  108.29   17.20
   5  -4  14  120.99   12.40
   3   3 -14   18.70    3.50
   2   3 -14  162.48    9.80
   2   3 -14  161.68   10.10
  -2  -3  14  167.68   10.00
  -1  -3  14    2.70    2.90
  -1  -3  14   -0.10    3.00
   0   3 -14  519.75   28.60
   0  -3  14  609.84   29.90
  -1   3 -14   73.09    7.90
  -1   3 -14   81.49    5.50
   1  -3  14   79.39    7.00
  -2   3 -14  452.35   22.50
  -2   3 -14  381.86   24.30
  -3   3 -14  236.38   16.60
   3  -3  14  210.58   14.10
  -4   3 -14    3.30    4.40
  -4   3 -14   -2.10    6.70
   4  -3  14   -5.30    4.20
  -5   3 -14  126.59   12.80
   5  -3  14  113.29   12.00
   5  -3  14   95.69   13.10
   4   2 -14   27.20    4.90
   4   2 -14   27.30    4.30
   3   2 -14    4.60    3.50
   3   2 -14    3.00    2.50
   2   2 -14   99.69    8.20
   2   2 -14  109.29    7.30
  -2  -2  14  110.89    7.20
  -2  -2  14  113.69    7.30
   1   2 -14  116.49    6.60
  -1  -2  14  124.19    7.90
  -1  -2  14  120.39    7.70
   0   2 -14  556.44   27.90
   0   2 -14  545.65   31.70
   0  -2  14  544.65   28.60
   0  -2  14  552.64   29.10
  -1   2 -14   98.99    6.20
  -1   2 -14  106.69    8.50
   1  -2  14   92.29    7.10
   1  -2  14   90.89    6.20
  -2   2 -14   27.90    3.60
   2  -2  14   20.70    2.70
  -3   2 -14  171.68   13.90
  -3   2 -14  178.28   11.20
   3  -2  14  153.88   11.20
  -4   2 -14  230.98   18.00
  -4   2 -14  216.08   16.60
   4  -2  14  231.28   14.80
   4   1 -14    4.10    3.80
   4   1 -14    3.00    3.30
   3   1 -14  172.98   10.80
   2   1 -14   35.90    4.80
   2   1 -14   39.30    3.60
  -2  -1  14   40.90    4.30
  -2  -1  14   44.80    4.50
   1   1 -14  377.36   21.60
  -1  -1  14  433.46   22.50
  -1  -1  14  446.96   22.80
  -1  -1  14  453.65   22.70
   0   1 -14   35.50    3.00
   0  -1  14   39.40    4.20
   0  -1  14   38.90    4.00
  -1   1 -14  147.69    8.50
   1  -1  14  130.09    7.80
   1  -1  14  147.69    9.70
  -2   1 -14  447.76   21.70
   2  -1  14  365.06   20.70
  -3   1 -14    7.40    5.90
  -3   1 -14    9.50    3.70
   3  -1  14   11.80    3.90
  -4   1 -14  293.17   17.90
  -4   1 -14  294.07   21.70
   4  -1  14  311.17   18.40
   5   0 -14   19.60    4.90
   5   0 -14   25.50    5.20
   4   0 -14    7.60    3.50
   4   0 -14    2.60    3.40
   3   0 -14  217.08   11.50
   3   0 -14  204.38   12.20
  -3   0  14  191.98   11.40
   2   0 -14   31.70    4.20
   2   0 -14   25.30    2.90
  -2   0  14   27.70    3.60
  -2   0  14   25.60    4.00
  -2   0  14   28.10    3.20
   1   0 -14   55.79    3.60
  -1   0  14   73.29    5.20
  -1   0  14   62.69    5.90
  -1   0  14   65.19    5.10
   0   0 -14  731.73   37.20
   0   0  14  666.43   36.20
  -2   0 -14  406.06   26.40
   2   0  14  506.25   25.10
  -3   0 -14   71.69    9.70
   3   0  14   95.99    8.10
  -4   0 -14  114.39   16.30
   4   0  14  114.99   11.20
   5  -1 -14   33.00    5.30
   5  -1 -14   32.60    5.00
   4  -1 -14   22.10    3.70
   4  -1 -14   37.00    5.80
   3  -1 -14  162.68   10.70
   3  -1 -14  149.19    8.90
   3  -1 -14  134.39   10.60
  -3   1  14  160.98    9.00
  -3   1  14  162.68   10.30
   2  -1 -14  101.29    6.80
  -2   1  14   88.69    8.10
   1  -1 -14   14.10    2.90
   0  -1 -14  230.18   13.50
  -1  -1 -14  145.09    9.80
  -2  -1 -14   35.90    7.10
   2   1  14   52.09    6.30
  -3  -1 -14  175.78   16.50
   3   1  14  186.28   13.00
   5  -2 -14   10.10    4.70
   5  -2 -14   10.90    4.70
   4  -2 -14   11.60    3.10
   4  -2 -14   17.50    4.10
   4  -2 -14   20.10    3.30
   3  -2 -14   94.49    7.30
   3  -2 -14  108.79    7.90
   2  -2 -14  133.49    9.40
   2  -2 -14  147.29    9.60
   1  -2 -14   32.10    4.30
   0  -2 -14   -5.50    3.10
  -1  -2 -14   62.99    8.00
  -1  -2 -14   62.59    7.80
  -2  -2 -14   20.90    7.80
  -2  -2 -14   42.00    5.90
   5  -3 -14   13.80    5.30
   4  -3 -14   40.30    6.40
   4  -3 -14   42.20    4.80
   3  -3 -14    5.40    3.60
   3  -3 -14    6.30    3.70
   2  -3 -14    9.50    3.80
   2  -3 -14    4.30    3.60
   1  -3 -14   72.99    6.90
   1  -3 -14   86.29    7.80
   0  -3 -14   73.09    8.70
   0  -3 -14   75.69    8.40
  -1  -3 -14  137.49   13.70
  -1  -3 -14  102.99   10.70
   4  -4 -14    6.30    4.40
   4  -4 -14    8.40    4.50
   3  -4 -14   25.30    5.10
   3  -4 -14   25.40    5.00
   2  -4 -14   -7.80    4.10
   2  -4 -14   11.20    4.00
   1  -4 -14   -1.60    4.20
   1  -4 -14   -1.20    4.50
   0  -4 -14  100.39   12.70
   0  -4 -14   60.19    7.90
  -2   6 -15    9.10    7.70
  -2   6 -15   -0.60    4.10
   2  -6  15    6.90    6.00
   1   5 -15  191.68   10.80
   0   5 -15    7.00    2.50
   0   5 -15   -3.10    6.00
   0  -5  15    8.40    4.80
  -1   5 -15  145.79    9.50
  -1   5 -15  154.88   14.10
   1  -5  15  180.38   12.30
  -2   5 -15   34.00    7.80
  -2   5 -15   42.20    5.90
   2  -5  15   42.90    6.40
  -3   5 -15   17.80    4.60
  -3   5 -15    8.40    8.00
   3  -5  15   15.20    5.60
  -4   5 -15  368.26   21.40
  -4   5 -15  348.97   25.60
   4  -5  15  332.57   21.70
   2   4 -15    2.60    4.60
   2   4 -15    3.50    2.50
   1   4 -15  130.39    7.70
   1   4 -15  142.29   10.90
  -1  -4  15  131.39    9.90
   0   4 -15  155.58   11.70
   0   4 -15  145.79    8.50
   0  -4  15  158.08   11.70
  -1   4 -15   10.80    5.40
  -1   4 -15    1.50    2.20
   1  -4  15    2.40    4.50
  -2   4 -15  427.46   22.20
  -2   4 -15  383.56   24.80
   2  -4  15  408.96   23.30
  -3   4 -15  103.99    9.30
  -3   4 -15  109.19   13.10
   3  -4  15  121.59   10.30
  -4   4 -15   68.09    8.10
  -4   4 -15   83.19   11.50
   4  -4  15   71.69    9.70
   3   3 -15   90.89    7.50
   3   3 -15  109.79    8.00
   2   3 -15   42.70    4.60
   2   3 -15   47.30    5.50
   1   3 -15    8.40    3.40
   1   3 -15    4.60    1.50
  -1  -3  15    0.60    4.60
  -1  -3  15    5.90    3.30
   0   3 -15  219.28   12.50
   0   3 -15  260.87   14.90
   0  -3  15  229.78   14.10
  -1   3 -15  317.57   19.10
  -1   3 -15  316.27   17.00
  -2   3 -15  131.19   11.90
  -2   3 -15  155.88   10.10
   2  -3  15  130.69   10.20
  -3   3 -15  427.76   26.60
   3  -3  15  428.06   24.40
  -4   3 -15    6.10    8.00
  -4   3 -15    8.60    4.90
   4  -3  15    9.20    5.30
   4   2 -15    7.10    4.90
   4   2 -15    9.50    4.20
   3   2 -15    3.20    3.20
   3   2 -15    8.00    2.90
   2   2 -15  106.99    7.70
  -2  -2  15  111.19    7.70
   1   2 -15  199.78   11.00
   1   2 -15  166.98    9.60
  -1  -2  15  174.28   11.10
  -1  -2  15  188.88   11.10
   0   2 -15   29.40    3.00
   0   2 -15   40.40    5.60
   0  -2  15   40.30    5.10
  -1   2 -15  267.17   13.80
  -1   2 -15  258.97   15.80
   1  -2  15  215.78   13.70
   1  -2  15  274.37   15.70
  -2   2 -15  262.87   13.90
   2  -2  15  253.07   14.60
   2  -2  15  209.28   13.00
  -3   2 -15  109.89   12.70
  -3   2 -15  144.89    9.90
   3  -2  15  120.59   10.00
  -4   2 -15  271.57   20.70
   4  -2  15  262.37   16.90
   4   1 -15   17.00    4.60
   4   1 -15   18.60    4.10
   3   1 -15  104.19    8.50
   2   1 -15    1.50    1.70
   2   1 -15    6.90    2.80
  -2  -1  15   -3.10    2.50
  -2  -1  15    3.40    3.30
   1   1 -15  228.38   12.10
   1   1 -15  179.18   10.60
  -1  -1  15  195.08   12.10
  -1  -1  15  203.78   12.30
  -1  -1  15  218.48   12.00
   0   1 -15  349.77   19.50
   0  -1  15  393.56   20.20
   0  -1  15  401.26   20.70
  -1   1 -15  363.26   18.20
   1  -1  15  320.67   17.80
  -2   1 -15  294.27   16.80
  -2   1 -15  297.97   19.30
   2  -1  15  320.27   17.70
  -3   1 -15   -3.90    6.30
  -3   1 -15    0.30    3.80
   3  -1  15    6.50    3.90
  -4   1 -15  145.59   17.40
   4  -1  15  183.68   13.30
   4   0 -15    4.90    4.00
   4   0 -15    1.90    3.30
   3   0 -15  222.98   13.50
   3   0 -15  227.68   12.50
  -3   0  15  221.18   12.60
   2   0 -15   88.09    7.00
   2   0 -15   72.09    5.30
  -2   0  15   99.69    6.30
  -2   0  15   91.99    7.80
  -2   0  15   88.19    7.50
   1   0 -15   36.20    2.50
   0   0  15  536.05   29.30
  -1   0 -15   30.90    5.30
   1   0  15   28.60    4.20
  -2   0 -15  654.13   37.60
   2   0  15  696.23   35.90
  -3   0 -15   52.99    9.90
   3   0  15   83.99    8.40
   5  -1 -15   22.10    5.20
   5  -1 -15   24.40    5.40
   4  -1 -15    7.90    5.00
   4  -1 -15   -1.60    3.70
   3  -1 -15    8.20    2.50
   3  -1 -15   15.20    3.70
  -3   1  15   14.60    2.70
   2  -1 -15   94.39    7.70
   1  -1 -15   42.60    5.10
   0  -1 -15   86.49    7.40
   0  -1 -15   68.49    6.80
  -1  -1 -15   93.89   10.00
   1   1  15   96.79    8.10
  -2  -1 -15   -1.40    6.80
   2   1  15    0.60    3.90
  -3  -1 -15   33.30    9.90
   5  -2 -15    9.40    4.80
   5  -2 -15    1.40    4.60
   4  -2 -15    4.20    3.90
   4  -2 -15    0.40    3.40
   4  -2 -15    0.40    3.00
   3  -2 -15   50.49    6.40
   3  -2 -15   44.40    5.80
   2  -2 -15   34.30    4.30
   2  -2 -15   27.90    4.70
   1  -2 -15   37.80    4.80
   1  -2 -15   36.30    5.30
   0  -2 -15   -1.10    3.80
   0  -2 -15    0.00    3.70
  -1  -2 -15  162.48   12.20
  -1  -2 -15  174.48   13.60
  -2  -2 -15   24.10    9.00
  -2  -2 -15   34.10    5.60
   4  -3 -15    7.50    4.50
   4  -3 -15   -0.50    4.20
   3  -3 -15    8.50    4.40
   3  -3 -15    5.60    4.30
   2  -3 -15   60.29    7.40
   2  -3 -15   44.30    5.60
   1  -3 -15  151.68   10.60
   1  -3 -15  159.48   11.70
   0  -3 -15   27.20    6.20
  -1  -3 -15   -6.80    8.30
  -1  -3 -15    0.60    7.00
   3  -4 -15   13.60    5.70
   3  -4 -15   11.90    5.30
   2  -4 -15   -7.70    4.70
   2  -4 -15    8.70    4.40
   1  -4 -15   11.50    5.60
   1  -4 -15   13.30    5.50
   0   5 -16   73.49    5.80
   0   5 -16   75.69    9.30
   0  -5  16   83.09   10.00
  -1   5 -16  108.39   13.90
  -1   5 -16  115.19    8.10
   1  -5  16  146.09   11.60
  -2   5 -16  148.69   16.00
  -2   5 -16  178.68   11.40
   2  -5  16  166.38   13.40
  -3   5 -16    5.90    5.10
  -3   5 -16   -9.70    7.80
   3  -5  16    4.20    5.80
   1   4 -16   32.60    3.60
   1   4 -16   45.80    6.40
  -1  -4  16   40.70    5.80
   0   4 -16  170.08    9.90
   0   4 -16  184.28   13.40
  -1   4 -16   40.20    4.80
  -1   4 -16   42.00    7.60
   1  -4  16   43.90    6.10
  -2   4 -16  363.56   25.10
  -2   4 -16  436.06   22.30
   2  -4  16  407.06   23.40
  -3   4 -16   90.69    9.10
  -3   4 -16  101.09   13.90
   3  -4  16  102.39   10.50
  -4   4 -16   52.69    7.70
  -4   4 -16   40.10   10.50
   4  -4  16   34.60    6.90
   2   3 -16   60.19    6.80
   2   3 -16   42.50    4.50
   1   3 -16   96.29    6.20
   1   3 -16  116.29    8.90
  -1  -3  16  109.69    8.70
   0   3 -16  237.98   14.50
   0  -3  16  193.28   14.30
  -1   3 -16  288.47   15.40
  -1   3 -16  291.77   18.10
   1  -3  16  265.27   16.70
  -2   3 -16   16.40    5.90
  -2   3 -16   16.80    3.70
   2  -3  16   10.80    4.20
  -3   3 -16  177.48   16.50
   3  -3  16  207.68   13.80
  -4   3 -16   50.99   11.50
  -4   3 -16   80.19   10.30
   4  -3  16   50.19    7.60
   3   2 -16   51.19    5.80
   3   2 -16   58.89    6.60
   2   2 -16   45.20    4.60
   2   2 -16   59.29    6.00
  -2  -2  16   62.99    6.20
   1   2 -16  100.09    7.30
   1   2 -16   73.49    5.50
  -1  -2  16   80.79    7.10
   0   2 -16   37.00    3.50
   0   2 -16   47.70    6.20
  -1   2 -16  395.86   22.30
  -1   2 -16  387.06   20.30
   1  -2  16  360.46   21.80
  -2   2 -16   53.89    6.60
  -2   2 -16   60.79    8.30
   2  -2  16   72.89    7.20
  -3   2 -16   50.19    7.70
   3  -2  16   61.49    7.90
  -4   2 -16   70.09   11.60
   4  -2  16   97.79   10.10
   4   1 -16   20.30    5.70
   4   1 -16   19.40    4.10
   3   1 -16   84.39    6.50
   3   1 -16   87.49    8.10
   2   1 -16   38.80    3.80
   2   1 -16   42.90    5.20
  -2  -1  16   41.00    5.40
   1   1 -16  519.65   28.70
   1   1 -16  584.54   30.10
  -1  -1  16  626.94   30.20
  -1  -1  16  549.54   30.20
   0   1 -16   24.30    4.20
   0   1 -16   14.40    2.40
   0  -1  16   18.30    3.30
   0  -1  16   11.00    3.30
  -1   1 -16   54.19    7.90
  -1   1 -16   50.99    5.20
   1  -1  16   56.69    6.00
  -2   1 -16  255.77   17.90
  -2   1 -16  240.88   14.50
   2  -1  16  266.37   15.50
  -3   1 -16   14.50    7.60
   3  -1  16   25.00    5.00
   4   0 -16   15.10    4.90
   4   0 -16    4.50    3.70
   3   0 -16   47.60    4.70
   3   0 -16   52.89    6.70
  -3   0  16   52.79    5.70
   2   0 -16   31.70    3.00
   2   0 -16   36.00    5.00
  -2   0  16   42.20    4.80
  -1   0  16   20.90    3.40
   0   0 -16  162.48   11.00
  -1   0 -16    6.50    4.80
   1   0  16   -1.30    3.30
  -2   0 -16   48.70    9.20
   2   0  16   55.19    7.30
  -3   0 -16   81.59   12.70
   3   0  16  129.99   11.00
   4  -1 -16    1.80    3.80
   4  -1 -16    3.10    4.30
   3  -1 -16   -1.10    4.10
   3  -1 -16    1.20    2.30
  -3   1  16    1.10    2.80
   2  -1 -16   32.20    4.50
  -2   1  16   28.40    3.80
   1  -1 -16   -1.40    3.10
   0  -1 -16   -5.10    3.60
   0   1  16    0.60    3.00
  -1  -1 -16  196.28   14.90
   1   1  16  203.08   12.80
  -2  -1 -16    0.00    7.70
   2   1  16    2.00    4.60
   4  -2 -16   18.00    4.80
   3  -2 -16   -3.80    3.80
   3  -2 -16    1.90    4.30
   2  -2 -16    5.20    3.80
   2  -2 -16   -0.20    4.00
   1  -2 -16  158.08   10.70
   1  -2 -16  154.68   11.20
   0  -2 -16   -8.80    4.20
   0  -2 -16   -1.50    5.20
  -1  -2 -16   46.70    8.10
  -1  -2 -16   32.90    6.20
   4  -3 -16   -7.80    5.00
   4  -3 -16    6.00    5.10
   3  -3 -16   19.20    5.50
   3  -3 -16   31.90    5.80
   2  -3 -16   -6.10    4.90
   2  -3 -16    0.60    4.20
   1  -3 -16   92.39    9.20
   1  -3 -16   67.59    8.10
   0  -3 -16    6.80    6.60
   0  -3 -16    9.60    5.70
  -1   5 -17   49.60    6.20
  -1   5 -17   47.90    9.30
   1  -5  17   45.30    7.70
  -2   5 -17  120.19   16.20
  -2   5 -17  134.49   10.40
   2  -5  17  142.79   12.80
   1   4 -17   29.80    4.10
   0   4 -17  283.27   17.50
   0   4 -17  221.78   13.50
   0  -4  17  261.07   16.60
  -1   4 -17   -1.40    2.70
  -1   4 -17   -1.20    6.50
   1  -4  17   -1.90    4.90
  -2   4 -17   60.29    9.70
  -2   4 -17   64.99    7.50
   2  -4  17   65.89    9.30
  -3   4 -17  214.28   13.40
  -3   4 -17  143.09   17.90
   3  -4  17  171.28   14.10
   2   3 -17   94.69    6.50
   2   3 -17  119.79    9.20
   1   3 -17   13.00    4.40
   1   3 -17   10.00    2.20
  -1  -3  17   14.00    4.60
   0   3 -17   43.20    6.30
   0   3 -17   29.80    3.70
  -1   3 -17  223.18   15.60
   1  -3  17  215.58   14.20
  -2   3 -17    9.30    6.30
   2  -3  17    5.30    4.50
  -3   3 -17  259.47   15.50
  -3   3 -17  181.98   18.80
   3  -3  17  233.68   15.90
   3   2 -17   30.80    4.90
   3   2 -17   24.50    4.20
   2   2 -17   28.50    3.40
   2   2 -17   44.80    6.20
   1   2 -17   88.19    5.80
   1   2 -17   97.09    8.10
  -1  -2  17   97.59    8.20
   0   2 -17   26.00    4.90
   0   2 -17   12.60    2.50
  -1   2 -17  202.58   12.20
  -1   2 -17  214.58   14.40
   1  -2  17  203.58   13.10
  -2   2 -17  208.98   12.70
  -2   2 -17  187.28   15.70
   2  -2  17  200.78   13.40
  -3   2 -17   78.39    9.90
  -3   2 -17   67.59   11.40
   3  -2  17   65.79    8.80
   3   1 -17   21.80    3.60
   3   1 -17   25.80    4.70
   2   1 -17   18.30    2.80
  -2  -1  17   29.60    4.30
   1   1 -17  215.28   12.60
   1   1 -17  181.08   10.80
  -1  -1  17  234.58   13.50
   0   1 -17   10.20    2.50
   0   1 -17   16.90    4.70
   0  -1  17   11.00    4.20
  -1   1 -17   29.30    5.80
  -1   1 -17   17.50    3.30
   1  -1  17   25.50    4.40
  -2   1 -17  118.59   13.00
   2  -1  17  133.19   10.10
  -3   1 -17   40.00    9.60
   4   0 -17   -1.80    5.30
   4   0 -17   15.40    4.00
   3   0 -17   30.60    5.40
   3   0 -17   15.70    5.80
   2   0 -17   -0.30    1.20
   2   0 -17    8.70    3.30
  -2   0  17    2.60    3.20
   1   0 -17    0.30    3.20
   0   0 -17  170.28   11.90
   0   0  17  178.28   11.30
  -1   0 -17   34.90    6.70
   1   0  17   30.80    4.80
  -2   0 -17   78.99   12.60
   2   0  17   80.49    8.90
   4  -1 -17   28.80    5.70
   3  -1 -17   -5.70    4.50
  -3   1  17   -1.10    3.10
   2  -1 -17   17.30    4.30
   1  -1 -17   69.49    7.10
  -1   1  17   71.89    6.70
   0  -1 -17    0.90    4.80
   0   1  17    9.30    3.60
  -1  -1 -17  249.88   18.00
   1   1  17  284.17   16.60
  -2  -1 -17   31.40    9.50
   3  -2 -17   24.20    4.80
   3  -2 -17   15.00    5.60
   2  -2 -17    2.80    4.80
   2  -2 -17    4.20    4.10
   1  -2 -17  109.69    9.30
   1  -2 -17  121.69   10.30
   0  -2 -17    0.00    4.70
   0  -2 -17   -5.10    5.30
   3  -3 -17   46.80    7.20
   2  -3 -17    0.00    5.40
   2  -3 -17   -8.30    4.60
   1  -3 -17   16.50    5.60
   1  -3 -17   21.10    6.30
   0   4 -18  211.38   15.20
   0   4 -18  161.68   10.40
   0  -4  18  175.68   14.30
  -1   4 -18   15.00    7.10
  -1   4 -18    8.20    3.30
   1  -4  18    1.60    5.80
  -2   4 -18   57.99    8.30
  -2   4 -18   57.89   10.50
   2  -4  18   60.39    7.90
   1   3 -18   21.50    5.30
   1   3 -18   11.30    2.30
  -1  -3  18   24.30    6.40
   0   3 -18   15.70    2.90
   0   3 -18   21.00    6.00
   0  -3  18   12.90    5.30
  -1   3 -18  313.07   18.30
  -1   3 -18  354.16   21.40
   1  -3  18  341.37   20.10
  -2   3 -18   -6.40    4.20
  -2   3 -18    3.30    7.70
   2  -3  18  -10.80    4.70
   3  -3  18  202.28   15.80
   2   2 -18    6.40    4.10
   1   2 -18  172.18   11.50
  -1  -2  18  146.59   11.20
   0   2 -18   13.50    2.90
   0   2 -18   19.10    5.70
   0  -2  18   25.70    4.90
  -1   2 -18  225.38   13.60
  -1   2 -18  230.88   16.00
   1  -2  18  244.28   15.10
  -2   2 -18  114.79   13.50
   2  -2  18  118.39   10.50
  -3   2 -18   22.10   13.80
   3   1 -18   26.90    3.90
   3   1 -18   36.30    5.70
   2   1 -18   -0.80    1.50
   2   1 -18   -2.00    3.80
  -2  -1  18    4.50    4.00
   1   1 -18   79.39    7.40
   1   1 -18   63.19    4.70
   0   1 -18  124.79    9.40
   0   1 -18   87.09    7.40
   0  -1  18  104.59    8.70
  -1   1 -18   40.50    7.10
   1  -1  18   31.40    5.30
  -2   1 -18  155.98   15.10
   2  -1  18  154.08   12.10
   3   0 -18    7.20    4.70
   3   0 -18    4.00    3.30
   2   0 -18   91.19    7.90
   1   0 -18   13.70    3.80
  -1   0  18    5.40    3.70
   0   0 -18  128.49   10.80
   0   0  18  133.59    9.90
  -1   0 -18  124.69   12.20
   1   0  18  126.09   10.30
  -2   0 -18   33.50    9.40
   2   0  18   15.30    5.50
   3  -1 -18   15.00    5.50
   2  -1 -18   30.40    5.10
  -2   1  18   33.90    5.00
   1  -1 -18   85.99    8.30
  -1   1  18  111.09    8.50
   0  -1 -18   10.80    5.40
   0   1  18   -1.10    4.30
  -1  -1 -18  126.29   13.40
   1   1  18  133.69   11.30
   3  -2 -18   29.60    9.30
   2  -2 -18    8.60    4.60
   2  -2 -18   -2.30    5.10
   1  -2 -18   37.90    6.30
   1  -2 -18   36.50    6.00
   0   3 -19   22.40    3.70
   0   3 -19   27.10    7.60
   0  -3  19   22.80    6.40
  -1   3 -19  129.29   13.90
  -1   3 -19  141.99   10.20
   1  -3  19  147.39   12.10
   1   2 -19   46.80    4.70
   1   2 -19   61.99    7.30
  -1  -2  19   56.69    7.10
   0   2 -19   58.69    5.70
   0   2 -19   53.19    8.10
   0  -2  19   62.69    7.00
  -1   2 -19  103.99   12.40
   1  -2  19  113.29   10.50
  -2   2 -19  143.99   18.70
   2  -2  19  158.48   12.50
   2   1 -19   13.00    5.10
   1   1 -19   14.80    5.00
  -1  -1  19   11.20    4.50
   0   1 -19   76.79    9.20
   0  -1  19   61.29    8.10
  -1   1 -19   48.50    7.70
   1  -1  19   36.40    5.80
   2   0 -19  136.79   10.40
  -2   0  19  120.49   11.10
   1   0 -19    9.40    4.90
  -1   0  19   12.80    4.30
   0   0 -19   90.89   10.20
   0   0  19  107.69    9.40
  -1   0 -19   27.70    7.90
   1   0  19   21.00    5.70
   2  -1 -19   20.30    5.20
  -2   1  19   24.50    5.10
   1  -1 -19   45.60    6.50
  -1   1  19   68.09    8.30
   0  -1 -19  -13.40    6.40
   0   1  19   -0.40    5.10
   0  -1  20   82.09    9.80
   0   0   0    0.00    0.00

_computing_structure_solution     'SHELXT 2014/5 (Sheldrick, 2014)'
;
_shelx_hkl_checksum              99260
loop_
_space_group_symop_operation_xyz
'x, y, z'
'-x, -y, -z'
loop_
_atom_site_label
_atom_site_type_symbol
_atom_site_fract_x
_atom_site_fract_y
_atom_site_fract_z
_atom_site_U_iso_or_equiv
_atom_site_adp_type
_atom_site_occupancy
_atom_site_site_symmetry_order
_atom_site_calc_flag
_atom_site_refinement_flags_posn
_atom_site_refinement_flags_adp
_atom_site_refinement_flags_occupancy
_atom_site_disorder_assembly
_atom_site_disorder_group
Ag1 Ag 0.80497(7) 0.13803(6) 0.53199(2) 0.04292(16) Uani 1 1 d . . . . .
C1 C 0.5944(7) 0.5673(7) 0.3587(3) 0.0232(7) Uani 1 1 d . . . . .
C2 C 0.7658(8) 0.9276(7) 0.3235(3) 0.0267(8) Uani 1 1 d . . . . .
H2 H 0.869023 1.096462 0.322477 0.032 Uiso 1 1 calc R U . . .
C3 C 0.5584(8) 0.3596(7) 0.4078(3) 0.0258(8) Uani 1 1 d . . . . .
C4 C 0.4650(7) 0.7904(7) 0.1803(3) 0.0275(7) Uani 1 1 d D U . . .
N1 N 0.5704(6) 0.7612(6) 0.2595(2) 0.0241(6) Uani 1 1 d . . . . .
N2 N 0.4594(6) 0.5294(6) 0.2825(2) 0.0267(7) Uani 1 1 d . . . . .
N3 N 0.7831(6) 0.8106(6) 0.3859(2) 0.0283(7) Uani 1 1 d . . . . .
N5 N 0.3899(7) 0.5557(7) 0.1095(2) 0.0318(8) Uani 1 1 d . . . . .
O1 O 0.7319(6) 0.4180(6) 0.4705(2) 0.0378(7) Uani 1 1 d . . . . .
O2 O 0.3696(6) 0.1531(6) 0.3800(2) 0.0395(7) Uani 1 1 d . . . . .
N4A N 0.643(3) 1.009(3) 0.1341(11) 0.0264(19) Uani 0.38(3) 1 d D U P A 1
O3A O 0.720(3) 1.170(3) 0.1790(12) 0.044(2) Uani 0.38(3) 1 d D U P A 1
O4A O 0.626(4) 0.944(4) 0.0539(11) 0.051(3) Uani 0.38(3) 1 d D U P A 1
N4B N 0.6626(19) 1.0363(16) 0.1467(6) 0.0214(13) Uani 0.62(3) 1 d D U P A 2
O3B O 0.774(2) 1.2162(18) 0.2021(8) 0.051(2) Uani 0.62(3) 1 d D U P A 2
O4B O 0.689(2) 0.998(2) 0.0710(8) 0.055(2) Uani 0.62(3) 1 d D U P A 2
O5 O 0.1734(7) 0.4615(8) 0.0710(2) 0.0542(10) Uani 1 1 d . . . . .
O6 O 0.5619(8) 0.4953(7) 0.0987(2) 0.0472(8) Uani 1 1 d . . . . .
N6A N 0.203(2) 0.807(3) 0.1859(11) 0.0334(16) Uani 0.51(4) 1 d D U P A 1
O7A O 0.155(3) 0.923(3) 0.1364(15) 0.048(2) Uani 0.51(4) 1 d D U P A 1
O8A O 0.066(4) 0.688(4) 0.2367(13) 0.039(2) Uani 0.51(4) 1 d D U P A 1
N6B N 0.218(2) 0.826(3) 0.1993(12) 0.0323(16) Uani 0.49(4) 1 d D U P A 2
O7B O 0.186(3) 0.976(3) 0.1634(15) 0.045(2) Uani 0.49(4) 1 d D U P A 2
O8B O 0.093(4) 0.715(5) 0.2523(14) 0.037(3) Uani 0.49(4) 1 d D U P A 2
loop_
_atom_site_aniso_label
_atom_site_aniso_U_11
_atom_site_aniso_U_22
_atom_site_aniso_U_33
_atom_site_aniso_U_23
_atom_site_aniso_U_13
_atom_site_aniso_U_12
Ag1 0.0452(2) 0.0344(2) 0.0390(2) 0.01556(15) -0.01123(15) 0.00763(16)
C1 0.0183(16) 0.0250(17) 0.0257(18) 0.0023(14) 0.0024(14) 0.0101(14)
C2 0.0222(18) 0.0235(18) 0.0275(19) 0.0019(15) 0.0006(15) 0.0052(15)
C3 0.0260(18) 0.0269(18) 0.0258(19) 0.0051(15) 0.0013(15) 0.0132(15)
C4 0.0240(15) 0.0258(15) 0.0314(18) 0.0061(14) -0.0030(13) 0.0103(12)
N1 0.0213(15) 0.0205(14) 0.0297(17) 0.0065(12) -0.0011(13) 0.0084(12)
N2 0.0266(16) 0.0207(15) 0.0312(18) 0.0068(13) 0.0005(13) 0.0088(13)
N3 0.0244(16) 0.0265(16) 0.0239(16) 0.0018(13) 0.0004(13) 0.0036(13)
N5 0.0347(19) 0.0328(18) 0.0255(17) 0.0072(14) 0.0037(14) 0.0126(15)
O1 0.0357(16) 0.0336(15) 0.0435(19) 0.0110(13) -0.0096(14) 0.0150(13)
O2 0.0405(17) 0.0290(15) 0.0370(17) 0.0141(13) -0.0061(13) 0.0034(13)
N4A 0.022(3) 0.029(3) 0.025(3) 0.010(3) -0.006(3) 0.008(2)
O3A 0.042(5) 0.039(4) 0.035(5) 0.014(3) -0.016(4) 0.005(4)
O4A 0.049(6) 0.037(5) 0.033(4) 0.006(4) -0.014(4) -0.009(4)
N4B 0.017(2) 0.021(2) 0.021(3) 0.006(2) -0.008(2) 0.004(2)
O3B 0.050(4) 0.030(3) 0.044(4) 0.001(3) -0.025(3) -0.004(3)
O4B 0.050(4) 0.044(4) 0.038(3) 0.005(3) -0.012(3) -0.008(3)
O5 0.0392(19) 0.060(2) 0.042(2) -0.0093(17) -0.0076(16) 0.0097(17)
O6 0.061(2) 0.053(2) 0.0399(19) 0.0052(16) 0.0064(17) 0.0377(19)
N6A 0.027(2) 0.034(3) 0.036(4) -0.003(3) -0.011(2) 0.015(2)
O7A 0.042(4) 0.044(5) 0.053(6) -0.002(4) -0.030(4) 0.021(3)
O8A 0.025(4) 0.048(5) 0.035(5) -0.008(4) -0.004(4) 0.015(3)
N6B 0.027(2) 0.032(3) 0.037(4) -0.002(3) -0.010(2) 0.016(2)
O7B 0.044(4) 0.040(5) 0.049(6) -0.004(4) -0.025(4) 0.024(3)
O8B 0.027(4) 0.044(5) 0.035(5) -0.007(4) -0.001(4) 0.015(4)
loop_
_atom_type_symbol
_atom_type_description
_atom_type_scat_dispersion_real
_atom_type_scat_dispersion_imag
_atom_type_scat_source
C C 0.0033 0.0016 'International Tables Vol C Tables 4.2.6.8 and 6.1.1.4'
H H 0.0000 0.0000 'International Tables Vol C Tables 4.2.6.8 and 6.1.1.4'
N N 0.0061 0.0033 'International Tables Vol C Tables 4.2.6.8 and 6.1.1.4'
O O 0.0106 0.0060 'International Tables Vol C Tables 4.2.6.8 and 6.1.1.4'
Ag Ag -0.8971 1.1015 'International Tables Vol C Tables 4.2.6.8 and 6.1.1.4'
loop_
_geom_angle_atom_site_label_1
_geom_angle_atom_site_label_2
_geom_angle_atom_site_label_3
_geom_angle
_geom_angle_site_symmetry_1
_geom_angle_site_symmetry_3
_geom_angle_publ_flag
O1 Ag1 O2 142.03(13) . 2_656 ?
O1 Ag1 N3 129.14(12) . 2_766 ?
O2 Ag1 N3 80.19(11) 2_656 2_766 ?
O1 Ag1 Ag1 75.64(8) . 2_656 ?
O2 Ag1 Ag1 75.13(9) 2_656 2_656 ?
N3 Ag1 Ag1 154.66(8) 2_766 2_656 ?
N2 C1 N3 113.8(3) . . ?
N2 C1 C3 122.8(3) . . ?
N3 C1 C3 123.2(3) . . ?
N3 C2 N1 108.7(3) . . ?
N3 C2 H2 125.6 . . ?
N1 C2 H2 125.6 . . ?
O2 C3 O1 128.4(4) . . ?
O2 C3 C1 116.9(4) . . ?
O1 C3 C1 114.7(3) . . ?
N1 C4 N5 109.6(3) . . ?
N1 C4 N6A 114.7(7) . . ?
N5 C4 N6A 103.1(7) . . ?
N1 C4 N6B 108.0(7) . . ?
N5 C4 N6B 110.1(7) . . ?
N1 C4 N4A 118.2(8) . . ?
N5 C4 N4A 103.4(8) . . ?
N6A C4 N4A 106.3(11) . . ?
N1 C4 N4B 111.8(5) . . ?
N5 C4 N4B 110.9(5) . . ?
N6B C4 N4B 106.4(8) . . ?
N2 N1 C2 110.0(3) . . ?
N2 N1 C4 117.8(3) . . ?
C2 N1 C4 132.2(3) . . ?
C1 N2 N1 102.5(3) . . ?
C2 N3 C1 104.9(3) . . ?
C2 N3 Ag1 126.9(3) . 2_766 ?
C1 N3 Ag1 115.4(3) . 2_766 ?
O5 N5 O6 128.6(4) . . ?
O5 N5 C4 116.7(4) . . ?
O6 N5 C4 114.7(3) . . ?
C3 O1 Ag1 123.7(3) . . ?
C3 O2 Ag1 121.7(3) . 2_656 ?
O3A N4A O4A 138.1(13) . . ?
O3A N4A C4 108.5(13) . . ?
O4A N4A C4 112.6(11) . . ?
O3B N4B O4B 131.3(8) . . ?
O3B N4B C4 115.4(7) . . ?
O4B N4B C4 112.9(7) . . ?
O8A N6A O7A 128.2(14) . . ?
O8A N6A C4 114.4(14) . . ?
O7A N6A C4 117.2(12) . . ?
O8B N6B O7B 127.4(15) . . ?
O8B N6B C4 116.0(15) . . ?
O7B N6B C4 116.4(12) . . ?
loop_
_geom_bond_atom_site_label_1
_geom_bond_atom_site_label_2
_geom_bond_distance
_geom_bond_site_symmetry_2
_geom_bond_publ_flag
Ag1 O1 2.239(3) . ?
Ag1 O2 2.276(3) 2_656 ?
Ag1 N3 2.511(4) 2_766 ?
Ag1 Ag1 3.1803(8) 2_656 ?
C1 N2 1.316(5) . ?
C1 N3 1.376(5) . ?
C1 C3 1.501(5) . ?
C2 N3 1.300(5) . ?
C2 N1 1.370(5) . ?
C2 H2 0.9300 . ?
C3 O2 1.238(5) . ?
C3 O1 1.253(5) . ?
C4 N1 1.412(5) . ?
C4 N5 1.539(5) . ?
C4 N6A 1.556(8) . ?
C4 N6B 1.557(8) . ?
C4 N4A 1.557(9) . ?
C4 N4B 1.594(7) . ?
N1 N2 1.367(4) . ?
N5 O5 1.202(5) . ?
N5 O6 1.204(5) . ?
N4A O3A 1.013(15) . ?
N4A O4A 1.228(14) . ?
N4B O3B 1.182(9) . ?
N4B O4B 1.184(10) . ?
N6A O8A 1.209(13) . ?
N6A O7A 1.210(13) . ?
N6B O8B 1.190(13) . ?
N6B O7B 1.203(13) . ?
loop_
_geom_torsion_atom_site_label_1
_geom_torsion_atom_site_label_2
_geom_torsion_atom_site_label_3
_geom_torsion_atom_site_label_4
_geom_torsion
_geom_torsion_site_symmetry_1
_geom_torsion_site_symmetry_2
_geom_torsion_site_symmetry_3
_geom_torsion_site_symmetry_4
_geom_torsion_publ_flag
N2 C1 C3 O2 -9.9(6) . . . . ?
N3 C1 C3 O2 174.9(4) . . . . ?
N2 C1 C3 O1 167.7(4) . . . . ?
N3 C1 C3 O1 -7.5(5) . . . . ?
N3 C2 N1 N2 0.0(4) . . . . ?
N3 C2 N1 C4 177.4(4) . . . . ?
N5 C4 N1 N2 -38.5(4) . . . . ?
N6A C4 N1 N2 76.9(8) . . . . ?
N6B C4 N1 N2 81.5(8) . . . . ?
N4A C4 N1 N2 -156.4(10) . . . . ?
N4B C4 N1 N2 -161.8(5) . . . . ?
N5 C4 N1 C2 144.3(4) . . . . ?
N6A C4 N1 C2 -100.3(8) . . . . ?
N6B C4 N1 C2 -95.7(8) . . . . ?
N4A C4 N1 C2 26.3(11) . . . . ?
N4B C4 N1 C2 20.9(7) . . . . ?
N3 C1 N2 N1 0.6(4) . . . . ?
C3 C1 N2 N1 -175.1(3) . . . . ?
C2 N1 N2 C1 -0.4(4) . . . . ?
C4 N1 N2 C1 -178.2(3) . . . . ?
N1 C2 N3 C1 0.3(4) . . . . ?
N1 C2 N3 Ag1 139.3(3) . . . 2_766 ?
N2 C1 N3 C2 -0.6(5) . . . . ?
C3 C1 N3 C2 175.0(3) . . . . ?
N2 C1 N3 Ag1 -145.0(3) . . . 2_766 ?
C3 C1 N3 Ag1 30.6(4) . . . 2_766 ?
N1 C4 N5 O5 129.7(4) . . . . ?
N6A C4 N5 O5 7.2(8) . . . . ?
N6B C4 N5 O5 11.0(9) . . . . ?
N4A C4 N5 O5 -103.4(9) . . . . ?
N4B C4 N5 O5 -106.4(6) . . . . ?
N1 C4 N5 O6 -52.3(4) . . . . ?
N6A C4 N5 O6 -174.8(8) . . . . ?
N6B C4 N5 O6 -171.0(8) . . . . ?
N4A C4 N5 O6 74.6(9) . . . . ?
N4B C4 N5 O6 71.6(6) . . . . ?
O2 C3 O1 Ag1 15.3(6) . . . . ?
C1 C3 O1 Ag1 -161.9(2) . . . . ?
O1 C3 O2 Ag1 25.2(6) . . . 2_656 ?
C1 C3 O2 Ag1 -157.6(3) . . . 2_656 ?
N1 C4 N4A O3A -52.0(19) . . . . ?
N5 C4 N4A O3A -173.2(14) . . . . ?
N6A C4 N4A O3A 78.6(17) . . . . ?
N1 C4 N4A O4A 136.3(13) . . . . ?
N5 C4 N4A O4A 15.1(16) . . . . ?
N6A C4 N4A O4A -93.1(16) . . . . ?
N1 C4 N4B O3B -41.8(11) . . . . ?
N5 C4 N4B O3B -164.4(8) . . . . ?
N6B C4 N4B O3B 75.8(12) . . . . ?
N1 C4 N4B O4B 131.4(8) . . . . ?
N5 C4 N4B O4B 8.9(10) . . . . ?
N6B C4 N4B O4B -110.9(11) . . . . ?
N1 C4 N6A O8A -31.8(12) . . . . ?
N5 C4 N6A O8A 87.2(10) . . . . ?
N4A C4 N6A O8A -164.4(12) . . . . ?
N1 C4 N6A O7A 152.2(10) . . . . ?
N5 C4 N6A O7A -88.8(12) . . . . ?
N4A C4 N6A O7A 19.6(14) . . . . ?
N1 C4 N6B O8B -34.0(12) . . . . ?
N5 C4 N6B O8B 85.6(11) . . . . ?
N4B C4 N6B O8B -154.1(11) . . . . ?
N1 C4 N6B O7B 141.0(11) . . . . ?
N5 C4 N6B O7B -99.4(12) . . . . ?
N4B C4 N6B O7B 20.9(13) . . . . ?
