#------------------------------------------------------------------------------
#$Date: 2021-06-26 03:30:45 +0300 (Sat, 26 Jun 2021) $
#$Revision: 266703 $
#$URL: file:///home/coder/svn-repositories/cod/cif/4/51/88/4518839.cif $
#------------------------------------------------------------------------------
#
# This file is available in the Crystallography Open Database (COD),
# http://www.crystallography.net/
#
# All data on this site have been placed in the public domain by the
# contributors.
#
data_4518839
loop_
_publ_author_name
'Barman, Debasish'
'Gopikrishna, Peddaboodi'
'Iyer, Parameswar Krishnan'
_publ_section_title
;
 Stimuli-Responsive Trimorphs and Charge-Transfer Complexes of a Twisted
 Molecular Donor.
;
_journal_name_full
'Langmuir : the ACS journal of surfaces and colloids'
_journal_paper_doi               10.1021/acs.langmuir.1c01172
_journal_year                    2021
_chemical_formula_sum            'C23 H11 Cl4 O2'
_chemical_formula_weight         461.12
_chemical_melting_point          523
_chemical_name_systematic        DBFTCQ
_chemical_properties_physical    Heat-sensitive
_space_group_crystal_system      triclinic
_space_group_IT_number           2
_space_group_name_Hall           '-P 1'
_space_group_name_H-M_alt        'P -1'
_atom_sites_solution_hydrogens   geom
_audit_creation_method           SHELXL-2018/3
_audit_update_record
;
2019-06-21 deposited with the CCDC.	2019-07-02 downloaded from the CCDC.
;
_cell_angle_alpha                94.027(9)
_cell_angle_beta                 99.706(7)
_cell_angle_gamma                91.048(7)
_cell_formula_units_Z            2
_cell_length_a                   7.3722(5)
_cell_length_b                   9.0690(10)
_cell_length_c                   14.8974(14)
_cell_measurement_reflns_used    1905
_cell_measurement_temperature    293(2)
_cell_measurement_theta_max      28.685
_cell_measurement_theta_min      2.273
_cell_volume                     978.88(16)
_computing_structure_refinement  'SHELXL-2018/3 (Sheldrick, 2018)'
_computing_structure_solution    'SHELXT 2018/2 (Sheldrick, 2018)'
_diffrn_ambient_temperature      293(2)
_diffrn_measured_fraction_theta_full 1.000
_diffrn_measured_fraction_theta_max 0.870
_diffrn_measurement_device_type  'SuperNova, Single source at offset/far, Eos'
_diffrn_measurement_method       '\w scans'
_diffrn_radiation_type           MoK\a
_diffrn_radiation_wavelength     0.71073
_diffrn_reflns_av_R_equivalents  0.0369
_diffrn_reflns_av_unetI/netI     0.0743
_diffrn_reflns_Laue_measured_fraction_full 1.000
_diffrn_reflns_Laue_measured_fraction_max 0.870
_diffrn_reflns_limit_h_max       9
_diffrn_reflns_limit_h_min       -9
_diffrn_reflns_limit_k_max       11
_diffrn_reflns_limit_k_min       -12
_diffrn_reflns_limit_l_max       10
_diffrn_reflns_limit_l_min       -19
_diffrn_reflns_number            7468
_diffrn_reflns_point_group_measured_fraction_full 1.000
_diffrn_reflns_point_group_measured_fraction_max 0.870
_diffrn_reflns_theta_full        25.242
_diffrn_reflns_theta_max         28.732
_diffrn_reflns_theta_min         2.252
_exptl_absorpt_coefficient_mu    0.623
_exptl_crystal_colour            black
_exptl_crystal_density_diffrn    1.564
_exptl_crystal_description       sheet
_exptl_crystal_F_000             466
_exptl_crystal_preparation       Mechanochromism
_exptl_crystal_recrystallization_method 'Vapour deposition'
_refine_diff_density_max         0.406
_refine_diff_density_min         -0.299
_refine_diff_density_rms         0.068
_refine_ls_extinction_method     none
_refine_ls_goodness_of_fit_ref   1.052
_refine_ls_hydrogen_treatment    constr
_refine_ls_matrix_type           full
_refine_ls_number_parameters     262
_refine_ls_number_reflns         4404
_refine_ls_number_restraints     0
_refine_ls_restrained_S_all      1.052
_refine_ls_R_factor_all          0.1182
_refine_ls_R_factor_gt           0.0637
_refine_ls_shift/su_max          0.001
_refine_ls_shift/su_mean         0.000
_refine_ls_structure_factor_coef Fsqd
_refine_ls_weighting_details
'w=1/[\s^2^(Fo^2^)+(0.0626P)^2^+0.0221P] where P=(Fo^2^+2Fc^2^)/3'
_refine_ls_weighting_scheme      calc
_refine_ls_wR_factor_gt          0.1385
_refine_ls_wR_factor_ref         0.1753
_reflns_Friedel_coverage         0.000
_reflns_number_gt                2520
_reflns_number_total             4404
_reflns_threshold_expression     'I > 2\s(I)'
_cod_data_source_file            la1c01172_si_011.cif
_cod_data_source_block           TAHTCQ
_cod_database_code               4518839
_shelx_shelxl_version_number     2018/3
_shelx_space_group_comment
;
The symmetry employed for this shelxl refinement is uniquely defined
by the following loop, which should always be used as a source of
symmetry information in preference to the above space-group names.
They are only intended as comments.
;
_shelx_res_file
;
TITL exp_6052_a.res in P-1
    exp_6052.res
    created by SHELXL-2018/3 at 12:23:24 on 09-Feb-2019
REM Old TITL exp_6052 in P-1
REM SHELXT solution in P-1: R1 0.203, Rweak 0.015, Alpha 0.039
REM <I/s> 0.000 for 0 systematic absences, Orientation as input
REM Formula found by SHELXT: C23 O2 Cl4
CELL 0.71073 7.3722 9.069 14.8974 94.027 99.706 91.048
ZERR 2 0.0005 0.001 0.0014 0.009 0.007 0.007
LATT 1
SFAC C H Cl O
UNIT 46 22 8 4

L.S. 4
BOND
LIST 6
fmap 2
ACTA
REM <olex2.extras>
REM <HklSrc "%.\\exp_6052.hkl">
REM </olex2.extras>

WGHT    0.062600    0.022100
FVAR       0.37678
CL9   3    0.779384    0.881695    0.906206    11.00000    0.05781    0.06099 =
         0.07704   -0.02363    0.00915   -0.00795
CL8   3    0.619562    0.924485    0.698550    11.00000    0.06439    0.05383 =
         0.08547    0.02348    0.02276    0.00569
CL10  3    0.382111    0.351688    0.652433    11.00000    0.05601    0.06598 =
         0.07501   -0.02304   -0.00488   -0.00434
CL7   3    0.532960    0.313717    0.861388    11.00000    0.07405    0.05999 =
         0.08342    0.02334    0.01277   -0.01052
O11   4    0.458781    0.649225    0.603675    11.00000    0.07985    0.08145 =
         0.04746    0.01188    0.00160    0.02173
O12   4    0.717942    0.582067    0.951680    11.00000    0.08343    0.07998 =
         0.04241    0.00692   -0.00516    0.00140
C14   1   -0.036017    0.525495    0.684267    11.00000    0.03455    0.03458 =
         0.03762    0.00397    0.01103    0.00519
C16   1    0.104235    0.755561    0.742262    11.00000    0.03316    0.03412 =
         0.03704    0.00125    0.00988    0.00501
C13   1    0.042619    0.514013    0.776257    11.00000    0.03522    0.03783 =
         0.03661    0.00459    0.00885    0.00550
C21   1    0.128760    0.658157    0.812149    11.00000    0.03486    0.03925 =
         0.03903    0.00284    0.00919    0.00667
C15   1   -0.001159    0.676773    0.658214    11.00000    0.03336    0.03600 =
         0.03645    0.00351    0.00594    0.00368
C27   1   -0.030452    0.865439    0.538975    11.00000    0.05089    0.04018 =
         0.02683    0.00217    0.00548    0.00221
C20   1    0.220420    0.702103    0.899449    11.00000    0.04643    0.04142 =
         0.03645    0.00516    0.00366    0.00411
AFIX  43
H20   2    0.238677    0.635484    0.944591    11.00000   -1.20000
AFIX   0
C28   1    0.146728    0.927466    0.544826    11.00000    0.04031    0.04281 =
         0.03870    0.00880    0.00286    0.00905
AFIX  43
H28   2    0.246950    0.878667    0.574346    11.00000   -1.20000
AFIX   0
C25   1    0.028551    0.382289    0.817178    11.00000    0.05063    0.03788 =
         0.04442    0.01193    0.00964    0.00760
AFIX  43
H25   2    0.077530    0.375499    0.878449    11.00000   -1.20000
AFIX   0

C1    1    0.558801    0.474084    0.811834    11.00000    0.03873    0.04066 =
         0.05488    0.00534    0.01337    0.00212
C22   1   -0.123547    0.403560    0.633024    11.00000    0.04676    0.03947 =
         0.04305   -0.00004    0.00978    0.00365
AFIX  43
H22   2   -0.174695    0.409799    0.571975    11.00000   -1.20000
AFIX   0

C3    1    0.672484    0.741236    0.833115    11.00000    0.04046    0.04228 =
         0.04210   -0.00727    0.01188   -0.00071
C26   1   -0.065187    0.724071    0.575914    11.00000    0.04418    0.03913 =
         0.04289    0.00422    0.00717    0.00190
AFIX  43
H26   2   -0.143104    0.657367    0.536459    11.00000   -1.20000
AFIX   0
C17   1    0.165104    0.902267    0.763327    11.00000    0.04691    0.03740 =
         0.04114    0.00242    0.00981    0.00290
AFIX  43
H17   2    0.146517    0.970060    0.718879    11.00000   -1.20000
AFIX   0

C5    1    0.514683    0.635169    0.683008    11.00000    0.03745    0.05437 =
         0.04077    0.00467    0.00730    0.01487
C29   1    0.176153    1.058607    0.508041    11.00000    0.04417    0.04386 =
         0.03480    0.00632    0.00208    0.00305
AFIX  43
H29   2    0.295467    1.097858    0.514491    11.00000   -1.20000
AFIX   0

C4    1    0.605804    0.759755    0.745614    11.00000    0.03938    0.03869 =
         0.05357    0.00397    0.01499    0.00734
C2    1    0.655815    0.597521    0.873499    11.00000    0.04042    0.05064 =
         0.04217   -0.00024    0.00604    0.00437
C18   1    0.253303    0.946303    0.850761    11.00000    0.05107    0.03529 =
         0.04924   -0.00654    0.00752   -0.00436
AFIX  43
H18   2    0.292833    1.044450    0.864852    11.00000   -1.20000
AFIX   0

C6    1    0.494092    0.491270    0.723887    11.00000    0.03618    0.04617 =
         0.04799   -0.00683    0.00267    0.00319
C23   1   -0.133874    0.271811    0.674090    11.00000    0.05919    0.03253 =
         0.05658   -0.00204    0.01758   -0.00557
AFIX  43
H23   2   -0.191662    0.189195    0.639808    11.00000   -1.20000
AFIX   0
C19   1    0.283777    0.847092    0.917591    11.00000    0.04760    0.05173 =
         0.04103   -0.00412    0.00279   -0.00065
AFIX  43
H19   2    0.347539    0.878277    0.975305    11.00000   -1.20000
AFIX   0
C24   1   -0.060176    0.260775    0.764764    11.00000    0.05846    0.03539 =
         0.05607    0.01206    0.01611    0.00339
AFIX  43
H24   2   -0.069914    0.171503    0.790981    11.00000   -1.20000
AFIX   0
HKLF 4




REM  exp_6052_a.res in P-1
REM wR2 = 0.1753, GooF = S = 1.052, Restrained GooF = 1.052 for all data
REM R1 = 0.0637 for 2520 Fo > 4sig(Fo) and 0.1182 for all 4404 data
REM 262 parameters refined using 0 restraints

END

WGHT      0.0626      0.0221

REM Highest difference peak  0.406,  deepest hole -0.299,  1-sigma level  0.068
Q1    1   0.4939  0.3022  0.7910  11.00000  0.05    0.41
Q2    1   0.4001  0.3901  0.5959  11.00000  0.05    0.32
Q3    1   0.6463  0.9349  0.7847  11.00000  0.05    0.29
Q4    1   0.7716  0.7241  0.9544  11.00000  0.05    0.27
Q5    1   0.0346  0.7349  0.6993  11.00000  0.05    0.27
Q6    1   0.6416  0.5353  0.8352  11.00000  0.05    0.27
Q7    1   0.7541  0.8255  0.9615  11.00000  0.05    0.26
Q8    1   0.4703  0.6383  0.6795  11.00000  0.05    0.26
Q9    1   0.4124  0.5121  0.6056  11.00000  0.05    0.26
Q10   1   0.5730  0.9311  0.6009  11.00000  0.05    0.25
Q11   1   0.7664  1.0422  0.8592  11.00000  0.05    0.25
Q12   1   0.1246  0.8284  0.7360  11.00000  0.05    0.25
Q13   1  -0.0099  0.7024  0.6050  11.00000  0.05    0.24
Q14   1   0.0371  0.5834  0.8212  11.00000  0.05    0.23
Q15   1   0.1589  0.6754  0.8542  11.00000  0.05    0.23
Q16   1   0.4961  0.3023  0.9427  11.00000  0.05    0.22
Q17   1   0.7995  0.4992  1.0145  11.00000  0.05    0.22
Q18   1   0.2384  0.9028  0.8160  11.00000  0.05    0.21
Q19   1   0.6088  0.5227  0.9232  11.00000  0.05    0.21
Q20   1   0.2579  0.9407  0.9993  11.00000  0.05    0.21
;
_shelx_res_checksum              34027
_shelx_hkl_file
;
   0   0  -2  967.46    7.61
   0   0   2  967.15    7.20
   0   0   3    6.80    0.76
   0   0  -3    5.99    0.74
   0   0  -4  321.21    6.34
   0   0   4  331.88    5.74
   0   0  -5  376.84    7.72
   0   0   5  363.12    6.62
   0   0   6   19.83    1.89
   0   0  -6   22.45    2.09
   0   0  -7    7.56    1.41
   0   0   7    6.88    1.23
   0   0  -8    4.99    1.19
   0   0   8    4.42    1.10
   0   0  -9   20.96    2.52
   0   0   9   15.91    2.11
   0   0 -10    5.16    1.41
   0   0 -11    1.02    0.52
   0   0 -12    7.63    1.83
   0   0 -13    1.67    1.00
   0   0 -14    6.72    1.83
   0   0 -15    1.18    0.97
   0   0 -16    0.84    0.83
   0   0 -17    1.03    0.89
   0   0 -17   -0.90    0.86
   0   0 -18    1.16    1.26
   0   1 -18    4.45    1.61
   0   1 -17    4.35    1.63
   0   1 -16    0.98    0.82
   0   1 -15   20.30    3.13
   0   1 -14   10.86    2.24
   0   1 -13  109.53    6.74
   0   1 -12    5.99    1.59
   0   1 -11   14.09    2.30
   0   1 -10    0.00    0.41
   0   1  -9   80.33    4.75
   0   1  -8    3.11    0.89
   0   1  -7   -0.02    0.30
   0   1  -6  239.06    6.64
   0   1  -5   18.87    1.70
   0  -1   5   17.18    1.46
   0  -1   4  366.50    6.09
   0   1  -4  360.83    6.55
   0  -1   3    0.20    0.20
   0   1  -3   -0.09    0.14
   0  -1   2  459.69    5.46
   0   1  -2  438.95    5.37
   0   1  -1  197.61    3.18
   0   1   0  225.46    4.47
   0  -1   0  197.03    4.43
   0  -1  -1  401.52    4.94
   0   1   1  399.36    6.64
   0   1   1  407.66    4.67
   0  -1  -1  386.35    6.59
   0   1   2  114.86    4.03
   0  -1  -2  108.51    3.00
   0  -1  -2  112.48    4.17
   0   1   2  114.08    2.87
   0  -1  -3  441.66    7.04
   0   1   3  454.34    6.28
   0  -1  -3  464.55    9.49
   0   1   3  448.78    8.66
   0  -1  -3  428.58    7.21
   0   1   4   76.47    3.89
   0  -1  -4   76.22    4.11
   0  -1  -4   78.71    2.95
   0   1   4   74.59    2.84
   0  -1  -4   73.47    3.23
   0  -1  -5 1550.99   16.49
   0   1   6    5.77    1.05
   0  -1  -6    6.16    1.19
   0   1   7   71.13    3.88
   0  -1  -7   80.18    4.50
   0  -1  -8    0.54    0.60
   0   1   8    0.46    0.50
   0   1   9   78.30    4.57
   0  -1  -9  104.36    5.80
   0  -1 -10   67.42    4.95
   0   1  10   51.87    3.87
   0  -1 -11    3.17    1.20
   0  -1 -12    1.83    1.02
   0  -1 -13    0.00    0.46
   0  -1 -14    8.18    2.26
   0  -1 -14    5.60    1.74
   0  -1 -15   -0.08    0.61
   0  -1 -16    0.66    0.72
   0  -1 -17    0.45    0.87
   0  -1 -18    0.53    0.77
   0   2 -18    4.85    1.71
   0   2 -17    0.64    0.73
   0   2 -16    0.90    0.82
   0   2 -15    0.53    0.70
   0   2 -14   35.35    3.93
   0   2 -13    1.50    0.97
   0   2 -12   11.27    2.03
   0   2 -11    9.29    1.77
   0   2 -10    9.60    1.76
   0   2  -9    1.27    0.75
   0   2  -8  205.56    7.21
   0   2  -7    0.67    0.49
   0   2  -6   54.17    3.19
   0  -2   5   95.55    3.67
   0   2  -5   94.51    3.83
   0   2  -4  315.03    6.41
   0  -2   4  299.48    6.06
   0  -2   3   55.14    2.46
   0   2  -3   53.48    2.52
   0   2  -2   49.47    2.32
   0   2  -1  564.05    7.44
   0   2  -1  533.78    6.67
   0  -2   1  534.29    7.27
   0  -2   0   36.53    1.89
   0  -2   0   32.42    2.56
   0   2   0   34.63    2.43
   0  -2   0   32.93    1.47
   0   2   0   34.33    1.67
   0   2   0   30.31    1.57
   0   2   1  799.58    8.02
   0   2   1  824.32   12.28
   0  -2  -1  797.01   12.73
   0  -2  -1  789.52    8.87
   0   2   2    3.52    0.62
   0   2   2    4.54    1.02
   0  -2  -2    2.86    0.87
   0  -2  -2    3.91    0.76
   0   2   3   13.43    1.30
   0   2   3   15.57    1.36
   0  -2  -3   13.28    1.41
   0  -2  -3   12.55    1.86
   0   2   3   13.62    1.82
   0  -2  -4   30.87    3.10
   0   2   4   28.86    2.78
   0   2   4   30.40    2.00
   0  -2  -4   27.60    2.22
   0  -2  -5    0.34    0.54
   0  -2  -5    0.57    0.55
   0  -2  -5    0.40    0.84
   0  -2  -6  168.68    5.44
   0  -2  -6  164.81    6.41
   0  -2  -6  163.77    7.96
   0  -2  -7    0.77    0.50
   0  -2  -7    1.04    0.40
   0  -2  -7    1.55    0.70
   0  -2  -8   25.28    2.97
   0  -2  -9   37.50    3.81
   0  -2 -10   79.74    5.79
   0  -2 -11    4.06    1.33
   0  -2 -12   79.01    6.33
   0  -2 -13    6.85    2.06
   0  -2 -14    8.64    2.31
   0  -2 -15   17.34    3.35
   0  -2 -16    1.35    1.04
   0  -2 -17   -0.38    0.93
   0   3 -19    6.02    1.98
   0   3 -18    1.11    0.85
   0   3 -17   -0.55    0.70
   0   3 -16    2.07    1.17
   0   3 -15    0.42    0.71
   0   3 -14   21.16    3.05
   0   3 -13   39.25    4.00
   0   3 -12   59.26    4.70
   0   3 -11   -0.46    0.77
   0   3 -10    8.45    1.66
   0   3  -9    9.32    1.68
   0   3  -8    8.63    1.52
   0   3  -7   83.38    4.33
   0   3  -6   17.54    1.88
   0   3  -5   50.46    3.05
   0  -3   5   43.62    2.68
   0   3  -4   37.40    2.54
   0  -3   4   34.46    2.30
   0   3  -3   40.80    2.57
   0   3  -2    9.67    1.37
   0   3  -2   10.26    1.12
   0  -3   1   47.45    2.66
   0   3  -1   45.67    2.33
   0   3  -1   43.40    2.53
   0   3   0  351.23    6.24
   0  -3   0  348.87    7.00
   0  -3   0  362.29   10.37
   0  -3   0  338.67    5.63
   0   3   1  489.76   11.30
   0  -3  -1  470.72   11.98
   0   3   1  472.18    7.07
   0  -3  -1  465.08    8.30
   0   3   2  125.19    5.77
   0   3   2  131.13    3.98
   0  -3  -2  119.36    6.16
   0  -3  -2  131.55    4.82
   0   3   3    8.73    1.10
   0  -3  -3   10.11    1.42
   0  -3  -3    8.42    1.72
   0  -3  -4 1061.18   15.30
   0  -3  -4 1039.24   19.83
   0  -3  -5    1.12    0.61
   0  -3  -5    2.20    1.31
   0  -3  -6  673.76   17.41
   0  -3  -6  651.91   13.52
   0  -3  -7    0.54    0.89
   0  -3  -7    0.64    0.54
   0  -3  -7    2.54    0.97
   0  -3  -8   31.72    2.60
   0  -3  -8   31.38    4.13
   0  -3  -8   32.93    3.49
   0  -3  -9   18.53    2.80
   0  -3  -9   19.06    1.92
   0  -3 -10  106.24    6.95
   0  -3 -11   58.48    5.44
   0  -3 -12   44.45    4.94
   0  -3 -13    8.45    2.25
   0  -3 -14    2.96    1.53
   0  -3 -15    8.80    2.53
   0  -3 -16    0.56    0.86
   0  -3 -17    6.14    2.11
   0   4 -18    2.32    1.16
   0   4 -17    3.93    1.47
   0   4 -16    0.65    0.61
   0   4 -15    0.91    0.78
   0   4 -14   27.01    3.43
   0   4 -13    1.16    0.88
   0   4 -12   36.75    3.79
   0   4 -11   -0.21    0.40
   0   4 -10   38.06    3.57
   0   4  -9  134.89    6.38
   0   4  -8   10.51    1.74
   0   4  -7   65.91    4.01
   0   4  -6   14.59    1.85
   0   4  -5   63.83    3.74
   0   4  -4  157.20    5.70
   0   4  -3   71.76    3.77
   0   4  -3   76.78    4.59
   0   4  -3   76.77    3.45
   0   4  -2  526.46   10.90
   0   4  -2  556.01    8.82
   0   4  -1   32.23    2.20
   0  -4   1   29.36    2.51
   0  -4   1   30.19    3.77
   0   4   0  184.28    5.83
   0   4   0  208.07    5.41
   0  -4   0  199.95    8.94
   0  -4   0  201.19    6.16
   0  -4  -1   52.50    2.48
   0  -4  -1   48.42    4.49
   0   4   1   46.02    2.68
   0  -4  -1   49.27    3.09
   0   4   1   49.72    2.57
   0  -4  -1   44.22    1.33
   0   4   2   17.13    1.56
   0  -4  -2   16.72    1.89
   0  -4  -2   16.57    1.38
   0  -4  -2   17.30    2.75
   0  -4  -3    1.39    0.44
   0  -4  -3    1.63    0.60
   0  -4  -3    0.87    0.86
   0  -4  -4  357.57    9.81
   0  -4  -4  342.66    7.05
   0  -4  -4  359.94   12.83
   0  -4  -5   11.61    2.46
   0  -4  -5   11.70    1.90
   0  -4  -6    1.46    1.33
   0  -4  -6    0.81    0.75
   0  -4  -7   62.98    5.87
   0  -4  -7   63.96    4.79
   0  -4  -8   -0.44    0.89
   0  -4  -8    0.12    0.39
   0  -4  -8    0.44    0.90
   0  -4  -9    6.88    1.33
   0  -4  -9    8.43    2.38
   0  -4  -9    6.62    1.70
   0  -4 -10    0.93    0.52
   0  -4 -10    0.57    0.66
   0  -4 -10    0.94    1.15
   0  -4 -11   42.00    4.84
   0  -4 -12    1.98    1.20
   0  -4 -13    0.44    0.93
   0  -4 -14    8.31    2.52
   0  -4 -15    0.09    0.89
   0  -4 -16    3.62    1.73
   0   5 -18   -1.71    1.04
   0   5 -17    0.42    0.70
   0   5 -16   -1.69    0.98
   0   5 -15    0.15    0.44
   0   5 -14    1.47    0.97
   0   5 -13   40.76    4.17
   0   5 -12    0.17    0.55
   0   5 -11    0.57    0.53
   0   5 -10   -0.07    0.41
   0   5  -9    2.95    1.13
   0   5  -8   52.25    3.89
   0   5  -7    5.33    1.27
   0   5  -6   20.20    2.37
   0   5  -5   25.48    2.54
   0   5  -5   30.86    3.71
   0   5  -4    8.07    1.47
   0   5  -4   11.14    2.14
   0   5  -3    1.20    0.89
   0   5  -3    0.95    0.65
   0   5  -3    0.33    0.15
   0   5  -2   15.77    2.20
   0  -5   2   14.32    2.63
   0   5  -1   46.20    3.48
   0  -5   1   52.06    3.58
   0  -5   1   46.65    4.77
   0   5   0  421.93   10.04
   0  -5   0  440.83   14.58
   0  -5   0  453.00   10.37
   0  -5  -1   89.89    3.44
   0  -5  -1   86.73    4.67
   0  -5  -2   63.86    2.04
   0  -5  -2   70.14    2.98
   0  -5  -2   76.94    6.30
   0  -5  -2   80.83    4.65
   0  -5  -3   88.64    5.10
   0  -5  -3   77.38    3.14
   0  -5  -3   86.10    6.75
   0  -5  -4   -0.37    0.41
   0  -5  -4    0.79    1.09
   0  -5  -4    0.17    0.50
   0  -5  -5  161.09    4.97
   0  -5  -5  179.68   10.02
   0  -5  -6   20.89    2.82
   0  -5  -6   21.46    3.60
   0  -5  -7   22.16    3.00
   0  -5  -7   19.56    3.58
   0  -5  -8    5.94    2.01
   0  -5  -8    7.36    1.81
   0  -5  -9  118.77    7.51
   0  -5  -9   89.97    5.63
   0  -5  -9  110.94    8.71
   0  -5 -10   29.93    4.57
   0  -5 -10   30.93    4.05
   0  -5 -11   11.45    2.60
   0  -5 -11   10.75    2.73
   0  -5 -12    8.76    2.42
   0  -5 -13    0.37    0.61
   0  -5 -14    0.83    0.90
   0  -5 -15    0.58    0.70
   0  -5 -16   11.89    3.23
   0   6 -17   -1.18    0.86
   0   6 -16   -2.00    1.06
   0   6 -15    5.81    1.66
   0   6 -14   -0.05    0.62
   0   6 -13   14.88    2.48
   0   6 -12   10.93    2.15
   0   6 -11    0.74    0.63
   0   6 -10    1.71    0.79
   0   6  -9   20.70    2.64
   0   6  -8   65.32    6.63
   0   6  -8   78.78    4.93
   0   6  -7    1.31    0.79
   0   6  -7    3.22    1.64
   0   6  -6    2.12    0.61
   0   6  -6    0.79    0.76
   0   6  -5   -0.23    0.23
   0   6  -5    0.20    0.48
   0   6  -5    0.78    0.84
   0   6  -4  106.95    6.94
   0   6  -4  106.74    5.62
   0   6  -3   54.88    4.69
   0   6  -3   57.67    4.20
   0  -6   3   61.08    5.94
   0   6  -2    3.81    1.39
   0  -6   2   11.05    2.88
   0   6  -1   -0.67    0.40
   0  -6   1   -0.27    0.38
   0  -6   0   10.94    1.79
   0   6   0   10.87    1.72
   0  -6   0    8.44    2.22
   0  -6  -1    5.07    2.00
   0  -6  -1    2.76    1.05
   0  -6  -2    0.50    0.36
   0  -6  -2   -0.60    0.75
   0  -6  -2    0.12    0.72
   0  -6  -3   62.08    6.23
   0  -6  -3   54.96    2.63
   0  -6  -3   66.57    4.84
   0  -6  -4    8.18    0.94
   0  -6  -4    9.73    2.48
   0  -6  -4    8.47    1.75
   0  -6  -4    5.98    0.85
   0  -6  -5   15.71    1.48
   0  -6  -5   14.12    3.01
   0  -6  -5   16.75    2.63
   0  -6  -6   43.45    4.34
   0  -6  -6   37.50    4.97
   0  -6  -7   27.00    4.39
   0  -6  -7   32.89    3.91
   0  -6  -8   87.02    6.38
   0  -6  -8   82.06    7.70
   0  -6  -9    0.47    0.94
   0  -6  -9   -0.09    0.48
   0  -6 -10    3.96    1.63
   0  -6 -10    2.72    1.83
   0  -6 -11    1.93    1.28
   0  -6 -11    0.96    1.09
   0  -6 -12   12.22    2.83
   0  -6 -12   12.37    3.19
   0  -6 -13   -1.13    1.17
   0  -6 -14   10.38    2.96
   0  -6 -15   27.75    4.74
   0   7 -15   -0.49    1.31
   0   7 -14    4.28    2.01
   0   7 -14    5.08    1.53
   0   7 -13    3.01    1.83
   0   7 -13    0.77    0.83
   0   7 -12    4.16    2.22
   0   7 -12    1.70    0.93
   0   7 -11    1.76    1.60
   0   7 -11    0.47    0.44
   0   7 -10    9.81    2.74
   0   7 -10    8.52    1.77
   0   7  -9    2.13    0.83
   0   7  -9    2.46    1.76
   0   7  -8    0.41    1.27
   0   7  -8    0.71    0.57
   0   7  -7    3.90    1.29
   0   7  -7    3.62    1.71
   0   7  -6   -1.41    0.95
   0   7  -6    0.98    1.46
   0   7  -5   -0.21    0.53
   0   7  -5   -0.51    0.88
   0  -7   4    8.18    2.60
   0   7  -4   12.43    2.14
   0   7  -4   12.19    2.74
   0   7  -3   39.97    3.75
   0   7  -3   42.41    4.43
   0  -7   3   42.45    5.47
   0   7  -2    3.36    1.30
   0  -7   2    7.83    2.58
   0  -7   1    4.22    1.78
   0  -7   1    3.81    1.21
   0   7  -1    6.49    1.55
   0  -7   0   29.18    3.18
   0   7   0   31.70    3.14
   0  -7  -1  129.16    9.25
   0  -7  -1  100.56    5.90
   0  -7  -2  222.45   12.37
   0  -7  -2  194.04    8.29
   0  -7  -3    3.32    1.24
   0  -7  -3    3.20    1.91
   0  -7  -4    7.22    2.42
   0  -7  -4    6.61    1.75
   0  -7  -5    1.70    1.18
   0  -7  -5    4.05    2.02
   0  -7  -6   96.79    8.46
   0  -7  -6  100.34    6.86
   0  -7  -7    7.45    1.93
   0  -7  -7    7.21    2.36
   0  -7  -8   -0.16    0.82
   0  -7  -8    0.15    0.80
   0  -7  -9    1.69    1.29
   0  -7  -9    3.10    1.35
   0  -7 -10    0.49    0.92
   0  -7 -10   -0.50    1.12
   0  -7 -11    0.19    0.93
   0  -7 -11   -3.14    1.73
   0  -7 -12    1.37    1.23
   0  -7 -12    2.31    1.59
   0  -7 -13    7.18    2.26
   0  -7 -13    5.38    2.20
   0  -7 -14    0.87    0.96
   0   8 -14   25.48    5.05
   0   8 -13    3.31    2.13
   0   8 -12   20.39    4.50
   0   8 -11    3.16    1.87
   0   8 -10    0.87    0.95
   0   8 -10    1.19    0.73
   0   8  -9    4.10    2.11
   0   8  -9    4.82    1.39
   0   8  -8    0.81    0.71
   0   8  -8    3.60    1.82
   0   8  -7   20.48    2.71
   0   8  -7   22.47    4.23
   0   8  -6   21.02    2.81
   0   8  -6   23.50    4.05
   0   8  -5    5.28    1.99
   0  -8   5    5.08    2.26
   0   8  -5    4.54    1.32
   0   8  -4    1.91    0.96
   0  -8   4   -0.39    1.02
   0   8  -4    1.74    1.05
   0   8  -3   24.19    3.51
   0   8  -3   22.55    2.96
   0  -8   3   31.24    4.93
   0  -8   2    1.22    1.30
   0   8  -2   -1.11    0.96
   0  -8   1    8.13    2.37
   0  -8   1    8.86    1.84
   0   8  -1    9.92    1.91
   0   8   0    4.78    1.34
   0  -8   0    3.72    1.21
   0  -8  -1   20.50    3.93
   0  -8  -1   14.95    2.40
   0  -8  -2   20.04    2.82
   0  -8  -2   21.59    4.13
   0  -8  -3   12.55    3.27
   0  -8  -3   10.76    2.17
   0  -8  -4    2.22    1.80
   0  -8  -4    4.20    1.46
   0  -8  -5    3.49    1.35
   0  -8  -5    4.46    1.91
   0  -8  -6   17.45    3.10
   0  -8  -6   19.83    4.01
   0  -8  -7   15.54    3.61
   0  -8  -7   14.43    2.83
   0  -8  -8    0.32    0.66
   0  -8  -8   -0.23    0.95
   0  -8  -9   -0.21    0.85
   0  -8  -9    1.70    1.47
   0  -8 -10    2.88    1.37
   0  -8 -10    3.26    2.01
   0  -8 -11   22.94    4.44
   0  -8 -11   19.72    3.51
   0  -8 -12    0.60    0.84
   0  -8 -12   -0.21    1.17
   0  -8 -13    1.88    1.14
   0   9 -13    1.60    1.47
   0   9 -12    2.27    1.97
   0   9 -11   -0.43    1.01
   0   9 -10    3.71    2.11
   0   9  -9   13.75    3.63
   0   9  -8    7.62    2.77
   0   9  -7    9.61    2.76
   0  -9   7    9.29    3.08
   0  -9   6   -0.03    0.95
   0   9  -6    0.93    1.03
   0   9  -6    2.85    1.08
   0   9  -5   -0.26    0.43
   0   9  -5   -1.21    1.30
   0  -9   5    1.45    1.58
   0   9  -4   17.60    3.25
   0   9  -4   13.65    2.33
   0  -9   4   19.48    4.25
   0   9  -3    3.93    1.42
   0   9  -3    4.14    1.64
   0  -9   3    4.09    1.98
   0  -9   2   10.24    2.89
   0   9  -2   12.17    2.40
   0  -9   1    2.86    1.84
   0  -9   0    2.43    1.09
   0  -9   0    5.66    2.41
   0  -9  -1    2.44    1.56
   0  -9  -1    2.44    1.10
   0  -9  -2    4.42    1.53
   0  -9  -2    3.58    1.78
   0  -9  -3    0.17    0.50
   0  -9  -3    0.97    1.32
   0  -9  -4    1.50    1.60
   0  -9  -4   -0.30    0.56
   0  -9  -5    2.17    1.22
   0  -9  -5    1.98    1.51
   0  -9  -6   -0.48    1.15
   0  -9  -6    1.45    0.99
   0  -9  -7    0.06    0.65
   0  -9  -7   -2.29    1.60
   0  -9  -8   -2.14    1.24
   0  -9  -8   -2.24    1.77
   0  -9  -9    5.88    2.28
   0  -9  -9    1.00    0.68
   0  -9 -10   -0.52    1.10
   0  -9 -10    3.22    1.48
   0  -9 -11    2.68    1.34
   0  -9 -12    9.31    2.55
   0  10 -12   -0.20    1.39
   0  10 -11   -0.61    1.21
   0  10 -10    1.37    1.32
   0  10  -9    2.33    1.51
   0 -10   9    0.66    1.26
   0 -10   8   -2.04    1.56
   0  10  -8    1.90    2.04
   0 -10   7    1.74    1.63
   0  10  -7    0.83    1.26
   0  10  -6    4.32    1.89
   0 -10   6    4.58    2.29
   0 -10   5    0.40    0.88
   0 -10   4    7.52    2.77
   0 -10   3   -1.64    1.59
   0 -10   2    5.40    2.39
   0 -10   1    2.98    1.90
   0 -10   0    0.76    1.31
   0 -10  -1    2.47    1.58
   0 -10  -2    2.89    1.84
   0 -10  -3    2.99    1.76
   0 -10  -4    0.36    1.28
   0 -10  -5    1.27    1.32
   0 -10  -6   12.77    3.47
   0 -10  -7    1.58    1.73
   0 -10  -8    5.31    2.36
   0 -11   9    1.21    1.37
   0 -11   8   27.79    5.38
   0 -11   7    6.22    2.74
   0 -11   6   -0.70    1.29
   0 -11   5   -2.08    1.59
   0 -11   4    6.49    2.68
   0 -11   3    8.13    2.87
   0 -11   2    8.18    2.89
   0 -11   1    8.84    3.04
   0 -11   0    0.27    1.12
   0 -11  -1    0.97    0.96
   0 -11  -2   -2.30    1.63
   0 -11  -3    0.08    1.08
   0 -11  -4    0.84    1.27
   0 -11  -5   -0.13    0.99
   1 -11  -4    0.25    1.27
   1 -11  -3    2.03    1.68
   1 -11  -2    3.08    1.94
   1 -11  -1    1.99    1.93
   1 -11   0   -1.94    1.54
   1 -11   1   20.69    4.75
   1 -11   2    5.28    2.51
   1 -11   3    8.92    3.16
   1 -11   4   -3.49    2.13
   1 -11   5    3.94    2.43
   1 -11   6    6.11    2.83
   1 -11   7    3.30    2.18
  -1  11  -9   -1.23    1.53
   1 -10  -7   16.31    4.03
   1 -10  -6    2.99    1.70
   1 -10  -5   -1.35    1.36
   1 -10  -4   12.51    3.54
   1 -10  -3   14.26    3.74
   1 -10  -2    1.64    1.26
   1 -10  -1   -0.80    1.08
   1 -10   0    2.11    1.68
   1 -10   1    4.40    1.89
   1 -10   2    0.12    0.77
   1 -10   3   -4.63    2.17
   1 -10   4    3.80    2.20
  -1  10  -4    1.91    1.30
  -1  10  -5    1.50    1.36
   1 -10   5    2.57    1.65
   1 -10   6    4.71    2.50
  -1  10  -6   15.40    3.88
   1 -10   7    3.64    2.03
  -1  10  -7    4.21    2.15
   1 -10   8   -0.33    1.01
  -1  10  -8   -0.96    2.14
  -1  10  -9   -5.24    2.57
  -1  10 -10   -3.76    2.19
  -1  10 -11   -2.12    1.78
   1  -9 -10    0.72    1.33
   1  -9  -9   -0.73    1.63
   1  -9  -8    0.26    0.90
   1  -9  -7   11.84    3.22
   1  -9  -6    4.69    2.43
   1  -9  -5    0.50    1.21
   1  -9  -4    6.48    2.67
   1  -9  -3   13.50    3.45
   1  -9  -2   45.65    6.27
   1  -9  -1    2.14    1.54
   1  -9   0    1.98    1.61
  -1   9  -1    8.50    1.99
   1  -9   1    8.95    2.91
   1  -9   2   31.00    5.25
  -1   9  -2   27.99    3.93
   1  -9   3    9.69    3.20
  -1   9  -3   15.49    3.13
  -1   9  -4    1.68    1.36
   1  -9   4   -0.01    0.80
   1  -9   5   -1.80    1.80
  -1   9  -5    0.27    0.83
   1  -9   6   -0.40    1.02
  -1   9  -6    1.33    1.22
  -1   9  -7    5.81    2.51
  -1   9  -8    1.48    1.49
  -1   9  -9   -0.91    1.34
  -1   9 -10    0.37    1.70
  -1   9 -11   15.57    4.03
  -1   9 -12    3.24    1.75
   1  -8 -13    9.05    2.42
   1  -8 -12    0.48    0.85
   1  -8 -12   -1.07    1.19
   1  -8 -11    8.94    2.24
   1  -8 -11   10.26    3.16
   1  -8 -10    0.57    1.26
   1  -8 -10   -2.18    1.16
   1  -8  -9    0.00    0.46
   1  -8  -9    0.44    0.98
   1  -8  -8   28.46    3.68
   1  -8  -8   29.63    5.16
   1  -8  -7   11.20    2.25
   1  -8  -7   10.20    2.90
   1  -8  -6    1.55    0.91
   1  -8  -6    3.52    1.82
   1  -8  -5    1.08    0.93
   1  -8  -5    0.87    1.20
   1  -8  -4    8.59    1.77
   1  -8  -4    7.02    2.53
   1  -8  -3   21.05    4.22
   1  -8  -3   20.13    2.51
   1  -8  -2   10.72    3.12
   1  -8  -2   11.11    1.83
   1  -8  -1   62.63    4.18
   1  -8  -1   63.54    7.14
   1  -8   0    0.30    0.95
  -1   8   0    3.47    1.44
  -1   8  -1    3.40    1.66
   1  -8   1    3.37    1.84
  -1   8  -2   27.96    2.79
  -1   8  -2   29.81    4.03
   1  -8   2   35.76    5.71
  -1   8  -3   62.77    4.12
  -1   8  -3   63.68    6.39
   1  -8   3   75.94    8.08
   1  -8   4   16.58    3.74
  -1   8  -4    9.18    1.52
  -1   8  -4   12.06    2.91
  -1   8  -5   17.53    3.51
  -1   8  -5   21.29    2.32
   1  -8   5   15.92    3.86
  -1   8  -6    7.09    2.30
  -1   8  -7   10.03    2.83
  -1   8  -8   36.16    5.89
  -1   8  -9    5.13    2.27
  -1   8 -10    0.08    1.16
  -1   8 -11   -0.22    0.93
  -1   8 -12   17.50    4.69
  -1   8 -13    0.22    1.07
   1  -7 -15    3.49    1.54
   1  -7 -14    0.02    0.81
   1  -7 -13    1.50    1.19
   1  -7 -13   -0.10    1.16
   1  -7 -12    0.88    0.95
   1  -7 -12    0.62    0.97
   1  -7 -11    4.99    1.75
   1  -7 -11    3.00    1.66
   1  -7 -10   10.95    3.12
   1  -7 -10   10.17    2.27
   1  -7  -9    8.75    2.07
   1  -7  -9    6.89    2.47
   1  -7  -8    1.13    0.92
   1  -7  -8    1.77    1.12
   1  -7  -7    4.04    1.28
   1  -7  -7    6.60    2.36
   1  -7  -6   15.28    3.40
   1  -7  -6   14.71    2.42
   1  -7  -5   16.91    2.53
   1  -7  -5   16.60    3.76
   1  -7  -4    0.65    0.61
   1  -7  -4    1.65    1.84
   1  -7  -3  234.77    8.34
   1  -7  -3  246.08   13.45
   1  -7  -2   39.18    5.52
   1  -7  -2   25.54    2.63
   1  -7  -1  272.05    8.33
   1  -7  -1  278.24   14.02
  -1   7   0    5.46    1.78
   1  -7   0    2.43    0.91
   1  -7   1   24.56    4.13
  -1   7  -1   22.95    3.20
  -1   7  -2    2.47    1.67
   1  -7   2    3.93    2.18
   1  -7   3   38.34    5.59
  -1   7  -3   42.42    4.93
  -1   7  -3   33.53    2.86
  -1   7  -4   36.93    2.88
  -1   7  -4   37.67    4.79
  -1   7  -5   30.14    4.49
  -1   7  -5   37.75    2.92
  -1   7  -6    5.55    1.99
  -1   7  -6    8.18    1.40
  -1   7  -7    3.31    2.12
  -1   7  -7    1.69    0.66
  -1   7  -8    0.70    0.49
  -1   7  -8    2.30    1.76
  -1   7  -9    4.14    2.16
  -1   7  -9    3.54    0.97
  -1   7 -10    3.79    1.06
  -1   7 -10    1.98    1.74
  -1   7 -11   -0.30    1.11
  -1   7 -12    1.58    1.93
  -1   7 -13    0.61    0.95
  -1   7 -14   -2.80    1.94
   1  -6 -16    6.06    2.24
   1  -6 -15    0.30    1.11
   1  -6 -14   -1.23    1.14
   1  -6 -13   -3.40    1.59
   1  -6 -13    0.50    0.68
   1  -6 -12   16.31    3.12
   1  -6 -12   12.38    3.17
   1  -6 -11    0.74    0.92
   1  -6 -11    0.55    0.55
   1  -6 -10    3.26    1.32
   1  -6 -10    5.06    2.22
   1  -6  -9    1.78    1.38
   1  -6  -9    2.70    1.26
   1  -6  -8   -0.44    1.17
   1  -6  -8   -0.21    0.55
   1  -6  -7    1.43    0.99
   1  -6  -7    1.40    1.11
   1  -6  -6    0.06    0.49
   1  -6  -6    0.13    0.89
   1  -6  -5    2.52    0.93
   1  -6  -5    3.18    1.62
   1  -6  -4    7.98    2.31
   1  -6  -4    7.60    1.52
   1  -6  -3    7.72    2.37
   1  -6  -3    5.97    1.28
   1  -6  -2   20.26    3.94
   1  -6  -2   10.11    1.59
  -1   6   1    2.61    0.63
   1  -6  -1    1.97    0.72
   1  -6  -1    3.45    1.61
  -1   6   0   11.87    1.26
   1  -6   0   14.62    3.11
   1  -6   0   11.98    1.66
  -1   6   0   16.29    2.48
   1  -6   1   11.47    2.95
  -1   6  -1    9.32    2.21
  -1   6  -1    3.44    0.76
  -1   6  -2   50.54    2.74
   1  -6   2   41.30    5.28
  -1   6  -2   41.52    4.25
  -1   6  -3   17.73    3.05
  -1   6  -3   15.03    1.75
  -1   6  -4  189.99    9.86
  -1   6  -4  198.67    6.29
  -1   6  -5   17.19    1.89
  -1   6  -5   18.87    3.31
  -1   6  -6   72.62    6.88
  -1   6  -6   80.11    4.06
  -1   6  -7    1.73    1.62
  -1   6  -7    1.59    0.69
  -1   6  -8   27.22    2.54
  -1   6  -8   23.24    4.37
  -1   6  -9    1.51    1.04
  -1   6  -9    1.01    0.58
  -1   6 -10    4.52    2.13
  -1   6 -10    6.25    1.33
  -1   6 -11    5.85    2.57
  -1   6 -11    5.33    1.32
  -1   6 -12    3.72    2.21
  -1   6 -12    2.53    0.97
  -1   6 -13    6.22    2.69
  -1   6 -13    0.72    0.61
  -1   6 -14    2.60    1.81
  -1   6 -15    2.46    1.82
   1  -5 -16    1.03    1.12
   1  -5 -15    0.14    0.74
   1  -5 -14   -0.12    0.63
   1  -5 -13   10.68    2.67
   1  -5 -12    4.22    1.77
   1  -5 -12    2.17    1.08
   1  -5 -11    2.06    1.05
   1  -5 -11    5.21    2.06
   1  -5 -10   22.32    3.32
   1  -5 -10   21.03    3.86
   1  -5 -10   21.68    3.25
   1  -5  -9    0.94    0.57
   1  -5  -9    0.64    0.88
   1  -5  -9    2.60    1.26
   1  -5  -8   20.94    2.86
   1  -5  -8   20.75    3.80
   1  -5  -7   89.20    5.50
   1  -5  -7   91.62    7.72
   1  -5  -6   31.99    3.18
   1  -5  -6   33.93    4.67
   1  -5  -5    1.69    1.09
   1  -5  -5    2.12    0.87
   1  -5  -4    2.95    1.33
   1  -5  -4    3.43    0.99
  -1   5   3   21.81    1.70
   1  -5  -3   21.45    3.54
   1  -5  -3   27.27    2.44
   1  -5  -2   12.79    1.57
  -1   5   2   11.69    1.18
   1  -5  -1   64.76    3.25
   1  -5  -1   58.68    5.68
  -1   5   1   58.09    4.17
  -1   5   1   60.63    2.58
  -1   5   0    1.74    1.05
   1  -5   0    0.54    0.39
   1  -5   0   -0.68    1.06
  -1   5   0    1.05    0.42
   1  -5   0    0.72    0.23
  -1   5  -1    7.23    1.74
   1  -5   1    7.47    2.30
  -1   5  -1    8.34    1.04
  -1   5  -2    8.67    1.07
  -1   5  -2   10.69    1.99
  -1   5  -2    9.16    1.26
  -1   5  -3   18.81    1.61
  -1   5  -3   18.57    1.76
  -1   5  -3   18.62    2.84
  -1   5  -4   -0.43    0.64
  -1   5  -4    0.72    0.50
  -1   5  -5   -0.24    0.28
  -1   5  -5   -0.30    0.75
  -1   5  -5   -0.05    0.30
  -1   5  -6    6.77    2.04
  -1   5  -6    7.75    1.24
  -1   5  -7   36.83    4.84
  -1   5  -7   35.33    2.71
  -1   5  -8    6.43    1.23
  -1   5  -8   10.32    2.78
  -1   5  -9  370.77   16.46
  -1   5  -9  397.16   10.12
  -1   5 -10   14.01    1.98
  -1   5 -10   11.95    3.24
  -1   5 -11    1.00    0.69
  -1   5 -11    1.76    1.41
  -1   5 -12    7.86    2.79
  -1   5 -12    8.20    1.70
  -1   5 -13    1.32    0.80
  -1   5 -13    1.54    1.59
  -1   5 -14    8.12    2.98
  -1   5 -14    7.19    1.61
  -1   5 -15    2.24    2.18
  -1   5 -15    1.61    0.82
  -1   5 -16   16.57    2.61
  -1   5 -16   12.95    3.87
   1  -4 -17   -0.20    0.76
   1  -4 -16   -0.94    1.03
   1  -4 -15    4.02    1.70
   1  -4 -14    8.48    2.47
   1  -4 -13    3.27    1.44
   1  -4 -12   -0.35    0.75
   1  -4 -11   27.17    3.77
   1  -4 -11   34.27    4.91
   1  -4 -11   27.02    3.13
   1  -4 -10    5.41    1.54
   1  -4 -10    3.22    1.26
   1  -4  -9    0.19    0.41
   1  -4  -9   -0.12    0.49
   1  -4  -9    0.57    0.85
   1  -4  -8   14.75    2.78
   1  -4  -8   14.34    3.03
   1  -4  -8   18.41    2.55
   1  -4  -7    9.66    1.75
   1  -4  -7   12.54    2.79
   1  -4  -6   51.64    5.33
   1  -4  -6   48.65    3.66
   1  -4  -5   10.44    2.49
   1  -4  -5    9.26    1.51
   1  -4  -4   18.94    3.14
   1  -4  -4   18.22    1.99
   1  -4  -4   19.13    2.07
   1  -4  -3   11.58    1.54
   1  -4  -3   14.45    1.64
   1  -4  -3    9.38    2.08
   1  -4  -2  351.10   12.82
   1  -4  -2  371.18    7.32
  -1   4   2  373.93    6.20
  -1   4   1  210.74    4.33
   1  -4  -1  214.61    6.24
   1  -4  -1  191.14    9.35
  -1   4   1  193.22    7.01
   1  -4  -1  214.65    5.15
   1  -4   0   34.65    2.13
   1  -4   0   37.20    2.60
  -1   4   0   37.66    3.24
  -1   4   0   37.47    1.87
   1  -4   0   35.84    4.12
  -1   4  -1  187.09    7.35
   1  -4   1  197.24    3.33
  -1   4  -2   84.23    5.13
  -1   4  -2   88.81    3.10
  -1   4  -2   85.31    3.23
  -1   4  -3 1229.87   12.32
  -1   4  -3 1236.73   12.34
  -1   4  -4    0.19    0.20
  -1   4  -4    0.67    0.44
  -1   4  -4    0.91    1.07
  -1   4  -5  113.40    4.21
  -1   4  -5  114.89    7.07
   1  -4   5  121.60    4.26
  -1   4  -5  121.02    4.22
  -1   4  -6   12.43    1.46
  -1   4  -6   10.87    2.40
  -1   4  -7   70.57    3.75
  -1   4  -7   65.14    6.07
  -1   4  -8    5.43    1.20
  -1   4  -9   89.49    4.81
  -1   4 -10   40.02    3.35
  -1   4 -11   49.39    3.94
  -1   4 -12   27.54    3.09
  -1   4 -13    3.83    1.21
  -1   4 -14    2.43    0.97
  -1   4 -15    1.57    0.90
  -1   4 -16    1.26    0.78
  -1   4 -17    5.80    2.48
  -1   4 -17   -1.13    0.81
  -1   4 -18    0.29    0.54
   1  -3 -17    5.46    2.08
   1  -3 -16    0.46    1.02
   1  -3 -15    2.76    1.48
   1  -3 -14    3.34    1.52
   1  -3 -13   85.34    6.98
   1  -3 -12    7.40    2.09
   1  -3 -11   44.18    3.71
   1  -3 -11   37.91    4.34
   1  -3 -10  104.39    6.06
   1  -3 -10  102.29    6.65
   1  -3 -10   92.24    7.42
   1  -3  -9   15.32    3.03
   1  -3  -9   15.77    2.49
   1  -3  -9   11.55    2.12
   1  -3  -8   53.24    4.24
   1  -3  -8   49.17    5.17
   1  -3  -8   55.52    4.86
   1  -3  -7   29.72    2.93
   1  -3  -7   32.24    3.87
   1  -3  -7   30.34    3.98
   1  -3  -6   68.31    5.73
   1  -3  -6   69.37    4.08
   1  -3  -5  154.53    8.24
   1  -3  -5  170.48    5.78
   1  -3  -4   69.24    3.40
   1  -3  -4   66.51    5.20
  -1   3   3   13.77    1.28
   1  -3  -3   14.70    1.46
   1  -3  -3   13.10    2.27
  -1   3   2    0.15    0.26
   1  -3  -2    0.22    0.36
  -1   3   2    0.42    0.32
   1  -3  -2    1.20    1.21
   1  -3  -2    0.06    0.27
  -1   3   1   22.13    1.23
   1  -3  -1   20.73    1.31
   1  -3  -1   27.79    2.23
   1  -3  -1   27.46    3.41
  -1   3   1   29.16    2.96
  -1   3   1   25.04    2.37
  -1   3   0    4.11    1.16
   1  -3   0    3.35    1.47
   1  -3   0    2.10    0.44
   1  -3   0    3.95    0.83
  -1   3   0    1.99    0.34
   1  -3   1  154.89    4.92
  -1   3  -1  149.10    3.17
  -1   3  -1  150.27    5.94
   1  -3   1  143.15    3.21
  -1   3  -2   27.70    1.48
  -1   3  -2   23.64    2.52
   1  -3   2   27.68    2.14
  -1   3  -3   35.26    3.13
  -1   3  -3   31.49    1.89
  -1   3  -3   33.58    1.68
  -1   3  -4   25.08    2.91
  -1   3  -4   26.44    1.91
  -1   3  -4   24.34    1.62
   1  -3   4   24.99    1.71
  -1   3  -5  118.99    4.32
  -1   3  -5  123.60    4.08
   1  -3   5  121.59    4.04
  -1   3  -5  119.11    6.59
   1  -3   6   12.85    1.41
  -1   3  -6   14.63    1.58
  -1   3  -7   21.57    2.09
  -1   3  -8  274.37    7.82
  -1   3  -9   -0.23    0.52
  -1   3 -10   19.05    2.38
  -1   3 -11    3.62    1.09
  -1   3 -12   21.24    2.76
  -1   3 -13    7.28    1.74
  -1   3 -14    0.04    0.60
  -1   3 -15    4.09    1.31
  -1   3 -16    2.21    1.08
  -1   3 -17    9.75    2.25
  -1   3 -18    0.82    0.95
   1  -2 -18   -0.37    0.54
   1  -2 -17   -0.68    0.91
   1  -2 -16    4.42    1.92
   1  -2 -15    0.19    0.81
   1  -2 -15   -0.50    0.85
   1  -2 -14   11.87    2.51
   1  -2 -13    2.28    1.11
   1  -2 -12   14.20    2.56
   1  -2 -11    0.11    0.55
   1  -2 -10   97.21    6.07
   1  -2  -9   10.42    1.89
   1  -2  -9    8.99    1.79
   1  -2  -8    5.56    1.45
   1  -2  -8    5.63    1.69
   1  -2  -8    4.89    1.31
   1  -2  -7    1.78    0.99
   1  -2  -7    1.51    1.04
   1  -2  -7    1.36    0.57
   1  -2  -6   -0.14    0.28
   1  -2  -6   -0.33    0.71
   1  -2  -6    0.47    0.44
   1  -2  -5  318.20   10.77
   1  -2  -5  322.19    7.81
   1  -2  -4  125.78    6.37
   1  -2  -4  133.58    4.52
  -1   2   4  132.86    3.98
  -1   2   4  141.16    6.20
  -1   2   3  168.87    4.00
   1  -2  -3  163.89    4.43
  -1   2   3  170.25    6.46
   1  -2  -3  162.20    6.82
  -1   2   2   16.83    1.13
  -1   2   2   17.98    2.03
   1  -2  -2   18.70    2.24
   1  -2  -2   17.31    1.12
   1  -2  -1  138.68    5.87
   1  -2  -1  156.57    4.62
  -1   2   1  139.82    2.67
  -1   2   1  147.33    5.54
   1  -2  -1  142.91    2.53
  -1   2   0    4.45    0.96
   1  -2   0    4.53    0.83
   1  -2   1   11.64    0.95
   1  -2   1   14.67    1.45
  -1   2  -1   13.81    1.61
   1  -2   2   19.07    1.64
  -1   2  -2   17.93    1.90
   1  -2   2   18.03    0.98
   1  -2   2   18.18    1.27
  -1   2  -2   16.79    1.27
  -1   2  -2   18.24    0.87
  -1   2  -3   67.40    3.96
  -1   2  -3   64.25    2.14
   1  -2   3   60.72    2.13
  -1   2  -3   63.18    2.63
  -1   2  -4  880.24    9.60
   1  -2   4  891.82    9.34
  -1   2  -4  875.63   15.56
  -1   2  -4  916.13   10.99
   1  -2   5    4.37    0.75
  -1   2  -5    4.13    0.76
  -1   2  -6    5.92    1.02
   1  -2   6    6.15    0.95
  -1   2  -7    9.85    1.42
  -1   2  -8   36.30    2.90
  -1   2  -9   10.57    1.68
  -1   2 -10   30.45    3.05
  -1   2 -11    0.75    0.66
  -1   2 -12   12.81    2.21
  -1   2 -13   31.66    3.56
  -1   2 -14    3.71    1.38
  -1   2 -15   13.73    2.53
  -1   2 -16    2.48    1.23
  -1   2 -17    8.10    2.13
  -1   2 -18    1.98    1.43
   1  -1 -18   -0.09    0.98
   1  -1 -18    0.56    0.56
   1  -1 -17   -0.45    0.55
   1  -1 -16    6.56    1.89
   1  -1 -15   -0.78    0.92
   1  -1 -14   17.18    2.87
   1  -1 -13    0.19    0.60
   1  -1 -12    0.16    0.51
   1  -1 -11   55.45    4.56
   1  -1 -10   43.95    3.90
   1  -1  -9  250.28    8.92
   1  -1  -8   11.94    1.86
  -1   1   8   11.93    2.09
  -1   1   7   19.46    2.56
   1  -1  -7   19.70    2.22
   1  -1  -7   18.94    2.36
   1  -1  -6   32.01    2.63
   1  -1  -6   31.01    3.11
   1  -1  -6   33.28    3.08
   1  -1  -5   40.72    2.70
  -1   1   5   38.11    2.98
   1  -1  -5   38.04    3.32
   1  -1  -5   39.53    3.31
  -1   1   5   35.99    2.17
  -1   1   4   72.70    3.97
   1  -1  -4   77.49    3.33
  -1   1   4   75.41    2.91
   1  -1  -4   79.94    4.72
   1  -1  -4   79.13    4.40
   1  -1  -3  394.97    6.53
   1  -1  -3  382.42    8.78
   1  -1  -3  408.24   10.22
  -1   1   3  389.29    5.88
  -1   1   3  386.98    8.58
  -1   1   2   12.88    0.91
   1  -1  -2   14.15    1.03
  -1   1   2   13.69    1.49
   1  -1  -2   12.31    1.43
   1  -1  -1    9.75    1.19
  -1   1   1   10.21    0.62
   1  -1  -1   10.88    0.67
  -1   1   1    9.60    1.14
   1  -1   0  221.15    5.02
  -1   1   0  197.77    4.98
  -1   1  -1    1.61    0.46
   1  -1   1    2.04    0.42
   1  -1   1    2.41    0.54
  -1   1  -2  532.32    6.95
   1  -1   2  548.52    7.63
   1  -1   2  536.09    4.90
  -1   1  -2  556.82    9.02
  -1   1  -2  532.99    5.11
   1  -1   2  519.79    6.91
  -1   1  -3  108.60    3.49
  -1   1  -3  110.61    4.44
  -1   1  -3  104.16    2.87
   1  -1   3  107.50    2.76
  -1   1  -4  406.32    6.66
   1  -1   4  400.35    6.10
  -1   1  -5   45.83    2.55
   1  -1   5   43.87    2.26
  -1   1  -6    4.25    0.94
  -1   1  -7   34.73    2.72
  -1   1  -8   10.60    1.66
  -1   1  -9  133.59    6.17
  -1   1 -10    1.19    0.77
  -1   1 -11   16.38    2.45
  -1   1 -12    0.60    0.72
  -1   1 -13   49.27    4.58
  -1   1 -14   10.27    2.22
  -1   1 -15    5.60    1.67
  -1   1 -16   -0.32    0.69
  -1   1 -17    2.12    1.34
  -1   1 -18    3.15    1.55
   1   0 -18   -0.37    0.63
   1   0 -17    0.27    0.48
   1   0 -16    1.73    1.10
   1   0 -15   18.91    3.03
   1   0 -14    0.42    0.91
   1   0 -13    0.42    0.64
   1   0 -12    1.41    0.80
   1   0 -11   39.37    3.79
   1   0 -10    0.90    0.72
   1   0  -9    8.20    1.59
   1   0  -8    0.94    0.55
  -1   0   7  128.38    6.07
   1   0  -7  128.99    5.57
   1   0  -6  165.23    5.80
  -1   0   6  159.33    6.45
  -1   0   6  161.76    6.05
  -1   0   5   85.59    3.29
   1   0  -5   82.95    3.77
  -1   0   5   79.98    3.89
  -1   0   5   84.87    4.41
  -1   0   4  957.05   10.13
  -1   0   4  958.10   14.10
  -1   0   4  923.54   11.79
   1   0  -4  944.02   11.40
   1   0  -4  963.22   13.96
   1   0  -3   33.03    1.89
  -1   0   3   33.40    1.75
  -1   0   3   33.94    2.49
  -1   0   3   30.00    1.86
   1   0  -3   33.88    2.55
   1   0  -2  183.40    3.83
  -1   0   2  183.86    3.71
   1   0  -2  191.59    4.02
  -1   0   2  194.85    3.99
  -1   0   2  184.02    5.43
   1   0  -2  187.74    5.65
   1   0  -1   13.29    0.90
  -1   0   1   14.20    0.94
   1   0  -1   15.41    1.56
   1   0  -1   13.22    0.95
  -1   0   1   13.61    1.47
   1   0   0   33.34    1.35
   1   0   0   35.67    1.72
  -1   0   0   34.63    1.44
   1   0   1  401.17    5.64
  -1   0  -1  405.25    6.14
   1   0   1  389.54    5.71
   1   0   1  359.96    5.06
  -1   0  -1  351.03    5.38
   1   0   2    4.83    0.70
  -1   0  -2    4.50    0.73
   1   0   2    3.69    0.59
  -1   0  -2    4.94    0.71
  -1   0  -2    5.51    0.73
  -1   0  -3  221.69    4.96
   1   0   3  209.23    4.13
   1   0   4   19.44    1.39
  -1   0  -4   18.69    1.77
  -1   0  -5   54.93    3.09
   1   0   5   51.91    2.48
  -1   0  -6    2.62    0.82
  -1   0  -7  153.85    6.07
  -1   0  -8   68.16    4.30
  -1   0  -9  149.77    6.83
   1   0  10    3.12    0.97
  -1   0 -10    3.92    1.28
  -1   0 -11   -0.07    0.49
  -1   0 -12   11.64    2.50
  -1   0 -13    3.29    1.43
  -1   0 -14    9.08    2.26
  -1   0 -15    0.82    0.86
  -1   0 -16   -0.03    0.78
  -1   0 -17   -0.28    0.66
   1   1 -18   -0.44    0.68
   1   1 -17    4.34    1.53
   1   1 -16    1.19    1.02
   1   1 -15   45.54    4.73
   1   1 -14    6.61    1.83
   1   1 -13   -0.34    0.54
   1   1 -12   30.03    3.46
   1   1 -11   -0.09    0.47
   1   1 -10    7.99    1.68
   1   1  -9    2.13    0.84
   1   1  -8    0.44    0.34
   1   1  -7    0.11    0.45
   1   1  -6  189.83    6.25
   1   1  -5   13.95    1.60
  -1  -1   5   13.25    1.40
   1   1  -4   10.48    1.34
  -1  -1   4   10.15    1.15
  -1  -1   3   30.09    1.89
   1   1  -3   28.71    2.03
   1   1  -2   26.09    1.60
   1   1  -2   23.69    1.72
  -1  -1   2   24.62    1.65
  -1  -1   1   18.14    1.49
   1   1  -1   18.15    1.31
  -1  -1   0   12.29    1.18
   1   1   0   12.74    0.93
   1   1   0   13.40    1.13
  -1  -1   0   13.50    0.94
   1   1   1   39.47    1.87
  -1  -1  -1   42.33    1.76
   1   1   1   40.93    2.04
  -1  -1  -1   39.43    2.18
  -1  -1  -1   38.92    1.80
  -1  -1  -1   39.65    1.99
   1   1   1   40.71    1.93
  -1  -1  -2   42.11    2.05
  -1  -1  -2   40.86    2.46
  -1  -1  -2   40.74    1.62
   1   1   2   40.44    2.37
   1   1   2   43.46    2.19
  -1  -1  -3  332.19    7.54
   1   1   3  352.27    6.67
   1   1   3  328.40    7.58
  -1  -1  -3  328.24    6.23
   1   1   4   47.47    2.48
  -1  -1  -4   41.70    2.88
   1   1   4   44.11    3.07
  -1  -1  -5  183.87    6.42
  -1  -1  -6    1.42    0.63
  -1  -1  -7   13.98    2.10
  -1  -1  -8  234.60    8.98
  -1  -1  -9    1.50    0.93
  -1  -1 -10   14.23    2.46
  -1  -1 -11    5.88    1.57
  -1  -1 -12   59.46    5.50
  -1  -1 -13    0.11    0.48
  -1  -1 -14   -0.11    0.61
  -1  -1 -15    0.74    0.75
  -1  -1 -16    0.28    0.78
  -1  -1 -17   -0.83    0.78
   1   2 -18   -0.33    0.62
   1   2 -17   -0.04    0.48
   1   2 -16    0.05    0.52
   1   2 -15    6.96    1.96
   1   2 -14    8.02    1.98
   1   2 -13   16.69    2.73
   1   2 -12    0.57    0.75
   1   2 -11    0.93    0.66
   1   2 -10  305.06   10.12
   1   2  -9    8.62    1.68
   1   2  -8   15.93    2.09
   1   2  -7   44.31    3.34
   1   2  -6  132.01    5.47
   1   2  -5  495.56   10.22
  -1  -2   4    4.73    0.90
   1   2  -4    5.05    1.04
   1   2  -3   23.67    2.06
   1   2  -3   24.88    1.85
   1   2  -2   20.29    1.64
  -1  -2   2   18.84    1.82
   1   2  -1   49.08    2.52
  -1  -2   1   49.68    2.89
  -1  -2   1   42.07    2.50
  -1  -2   0   15.69    1.54
   1   2   0   17.13    1.50
   1   2   0   16.41    1.60
  -1  -2   0   16.60    1.63
   1   2   1  110.33    3.05
  -1  -2  -1  111.89    4.46
   1   2   1  115.30    4.48
   1   2   1  116.17    3.80
  -1  -2  -1  103.71    4.11
  -1  -2  -2   25.93    1.64
  -1  -2  -2   28.54    2.37
  -1  -2  -2   27.45    2.50
   1   2   2   25.01    1.81
   1   2   2   27.07    2.37
   1   2   3  107.13    3.95
  -1  -2  -3  114.56    3.75
  -1  -2  -3  110.76    5.39
   1   2   3  108.34    4.91
  -1  -2  -3  109.49    4.88
  -1  -2  -4   54.34    3.64
  -1  -2  -4   59.59    4.20
  -1  -2  -5    8.33    1.54
  -1  -2  -6   17.54    2.32
  -1  -2  -7    9.73    1.83
  -1  -2  -8   28.23    3.21
  -1  -2  -9   42.10    4.16
  -1  -2 -10   64.39    5.45
  -1  -2 -11   96.54    6.95
  -1  -2 -12    3.68    1.51
  -1  -2 -13    1.10    1.00
  -1  -2 -14    0.51    0.82
  -1  -2 -15   26.43    4.20
  -1  -2 -16   -0.08    0.61
  -1  -2 -17    0.98    1.13
   1   3 -18    1.16    0.88
   1   3 -17    0.10    0.61
   1   3 -16    0.57    0.61
   1   3 -15    0.92    0.96
   1   3 -14    5.04    1.71
   1   3 -13    8.77    1.98
   1   3 -12   -0.29    0.67
   1   3 -11   37.20    3.82
   1   3 -10    4.03    1.37
   1   3  -9    0.24    0.65
   1   3  -8   59.31    4.22
   1   3  -7    3.28    0.97
   1   3  -6    0.92    0.70
   1   3  -5 1045.33   15.85
   1   3  -4   31.22    2.67
   1   3  -3  429.25    9.77
   1   3  -3  421.94    8.29
  -1  -3   2    2.53    0.85
   1   3  -2    1.10    0.40
  -1  -3   1  217.19    7.36
   1   3  -1  237.61    6.15
  -1  -3   1  235.11    7.29
   1   3   0  625.67   12.03
   1   3   0  695.58   10.45
  -1  -3   0  633.19   12.47
  -1  -3   0  677.23   12.13
   1   3   0  665.86    7.17
   1   3   1   34.44    2.88
   1   3   1   40.93    2.53
  -1  -3  -1   36.35    3.05
  -1  -3  -1   36.52    2.82
  -1  -3  -2    1.72    0.62
   1   3   2    3.27    1.17
  -1  -3  -2    3.05    1.04
  -1  -3  -2    2.68    0.55
  -1  -3  -3    1.30    0.87
  -1  -3  -3    1.00    0.78
  -1  -3  -3    0.19    0.23
  -1  -3  -4  284.72    9.00
  -1  -3  -4  283.95   10.26
  -1  -3  -5  102.89    6.60
  -1  -3  -5   99.03    5.63
  -1  -3  -6   10.61    1.90
  -1  -3  -6   10.52    2.21
  -1  -3  -7    7.14    1.87
  -1  -3  -7    6.76    1.59
  -1  -3  -8    2.87    1.19
  -1  -3  -9   62.52    5.36
  -1  -3 -10    9.23    2.27
  -1  -3 -11   53.62    5.37
  -1  -3 -12   11.92    2.65
  -1  -3 -13    0.93    1.16
  -1  -3 -14    1.16    1.24
  -1  -3 -15    0.36    1.03
  -1  -3 -16   -0.17    0.70
   1   4 -18    5.06    1.78
   1   4 -17    0.76    0.81
   1   4 -16    1.46    1.00
   1   4 -15    5.64    1.76
   1   4 -14   20.61    3.19
   1   4 -13    0.62    0.84
   1   4 -12    3.80    1.33
   1   4 -11  308.07   11.12
   1   4 -10    4.35    1.51
   1   4  -9  208.93    8.52
   1   4  -8    1.32    0.73
   1   4  -7   25.54    2.85
   1   4  -6    3.22    1.03
   1   4  -5   80.92    4.76
   1   4  -4  283.69    8.85
   1   4  -3   94.07    5.16
  -1  -4   2    0.10    0.37
  -1  -4   2    0.92    0.68
  -1  -4   1   91.70    5.05
  -1  -4   1   89.23    5.51
   1   4   0   39.28    2.00
  -1  -4   0   35.02    3.54
  -1  -4   0   39.03    3.29
  -1  -4  -1   13.05    2.22
  -1  -4  -1   12.83    1.90
  -1  -4  -2    0.11    0.19
  -1  -4  -2   -0.07    0.56
  -1  -4  -2    0.26    0.51
  -1  -4  -3   12.30    1.97
  -1  -4  -3   10.82    1.21
  -1  -4  -3   12.09    2.23
  -1  -4  -4   24.78    2.99
  -1  -4  -4   17.79    0.96
  -1  -4  -4   26.07    3.37
  -1  -4  -5  111.85    7.31
  -1  -4  -5  111.88    6.37
  -1  -4  -6   53.43    5.24
  -1  -4  -6   52.01    4.45
  -1  -4  -7    5.55    1.54
  -1  -4  -7    5.15    1.81
  -1  -4  -8    0.85    0.37
  -1  -4  -8    4.65    1.52
  -1  -4  -8    5.80    1.98
  -1  -4  -9    8.35    2.01
  -1  -4 -10   25.22    3.69
  -1  -4 -11    1.14    0.99
  -1  -4 -12    8.34    2.30
  -1  -4 -13    4.17    1.63
  -1  -4 -14    5.07    1.96
  -1  -4 -15    0.52    1.22
  -1  -4 -16    0.54    0.87
   1   5 -18    4.81    1.63
   1   5 -17   -0.33    0.74
   1   5 -16    0.23    0.64
   1   5 -15    0.06    0.59
   1   5 -14    0.21    0.59
   1   5 -13    0.10    0.60
   1   5 -12    1.31    0.71
   1   5 -11   12.07    2.21
   1   5 -10    9.67    2.06
   1   5  -9    0.25    0.67
   1   5  -8   29.83    3.30
   1   5  -7   -0.43    0.73
   1   5  -6  123.64    6.42
   1   5  -5   36.88    3.48
   1   5  -4  244.46    8.91
  -1  -5   3    3.10    1.52
  -1  -5   2   20.15    2.68
   1   5  -2   20.16    2.15
  -1  -5   2   17.63    2.96
  -1  -5   1   16.07    2.85
  -1  -5   1   15.53    2.27
   1   5  -1   20.79    2.02
  -1  -5   0    3.47    1.09
  -1  -5   0    5.70    1.90
   1   5   0    6.32    0.96
  -1  -5  -1  101.57    6.88
  -1  -5  -1  102.59    5.77
  -1  -5  -2   15.82    2.75
  -1  -5  -2   17.17    2.48
  -1  -5  -3    0.04    0.50
  -1  -5  -3   -0.29    0.32
  -1  -5  -3    0.99    0.96
  -1  -5  -4    0.01    0.70
  -1  -5  -4   -0.35    0.66
  -1  -5  -5   58.86    4.94
  -1  -5  -5   60.85    5.71
  -1  -5  -6    0.97    0.80
  -1  -5  -6    0.57    0.31
  -1  -5  -7   17.78    2.96
  -1  -5  -7   15.78    3.16
  -1  -5  -8    3.34    1.65
  -1  -5  -8    4.10    1.42
  -1  -5  -9   -0.38    0.49
  -1  -5  -9   -0.44    1.00
  -1  -5 -10   10.44    2.52
  -1  -5 -11    3.03    1.38
  -1  -5 -12    1.75    1.17
  -1  -5 -13   -0.77    1.00
  -1  -5 -14    2.43    1.60
  -1  -5 -15   14.08    3.39
   1   6 -18    2.41    1.28
   1   6 -17   -0.58    0.75
   1   6 -16   -1.27    0.95
   1   6 -15   -1.79    1.07
   1   6 -14    1.47    0.96
   1   6 -13    5.33    1.63
   1   6 -12   -1.79    1.21
   1   6 -11    0.06    0.54
   1   6 -10    2.92    1.10
   1   6  -9   16.19    2.58
   1   6  -8   65.12    5.02
   1   6  -7    4.58    1.33
   1   6  -6    5.70    1.55
   1   6  -5    4.37    1.30
   1   6  -4    3.13    1.27
   1   6  -4    6.32    1.73
  -1  -6   4    3.41    1.49
   1   6  -3    6.92    1.55
  -1  -6   3    6.29    1.88
   1   6  -2    2.28    0.96
  -1  -6   2    1.24    0.94
   1   6  -1  115.39    5.05
  -1  -6   1  130.55    6.93
  -1  -6   1  134.26    8.30
  -1  -6   0   38.61    3.81
   1   6   0   38.56    2.81
  -1  -6  -1  337.90   11.21
  -1  -6  -1  320.10   13.16
  -1  -6  -2   20.48    3.55
  -1  -6  -2   14.03    2.43
  -1  -6  -3    9.81    2.03
  -1  -6  -3    6.24    1.90
  -1  -6  -4   15.40    2.71
  -1  -6  -4   15.91    3.05
  -1  -6  -5   19.03    3.01
  -1  -6  -5   16.23    3.13
  -1  -6  -6   19.57    3.56
  -1  -6  -6   18.46    3.04
  -1  -6  -7    4.83    1.53
  -1  -6  -7    8.74    2.48
  -1  -6  -8   15.37    3.28
  -1  -6  -8   17.19    3.08
  -1  -6  -9   16.73    3.14
  -1  -6  -9   18.28    3.59
  -1  -6 -10   13.34    2.88
  -1  -6 -10   14.43    3.27
  -1  -6 -11    5.72    2.02
  -1  -6 -12   -1.07    1.10
  -1  -6 -13   11.64    2.96
  -1  -6 -14    1.12    1.16
   1   7 -17    1.12    0.86
   1   7 -16    0.19    0.57
   1   7 -15    2.20    1.19
   1   7 -14   12.60    2.57
   1   7 -13    0.29    0.46
   1   7 -12    1.87    0.92
   1   7 -11    1.69    0.99
   1   7 -10   35.52    3.86
   1   7  -9   26.07    3.29
   1   7  -8   24.68    3.24
   1   7  -7   41.74    4.13
   1   7  -6   -1.35    0.93
   1   7  -6    0.65    0.95
   1   7  -5  136.10    7.53
   1   7  -5  136.46    8.09
  -1  -7   5  123.35    8.74
   1   7  -4   63.33    5.19
  -1  -7   4   66.61    6.56
   1   7  -4   59.41    5.15
  -1  -7   3   29.10    4.30
   1   7  -3   32.89    3.57
  -1  -7   2   -0.01    0.85
   1   7  -2    3.60    1.22
   1   7  -1  129.55    5.80
  -1  -7   1  147.46    7.85
  -1  -7   0  109.37    6.82
  -1  -7   0  131.48    9.01
  -1  -7  -1  109.96    6.76
  -1  -7  -1  115.80    8.54
  -1  -7  -2    7.61    2.50
  -1  -7  -2    6.64    1.77
  -1  -7  -3   -0.01    0.85
  -1  -7  -3    0.36    0.61
  -1  -7  -4   20.80    3.68
  -1  -7  -4   19.80    3.19
  -1  -7  -5    5.23    1.72
  -1  -7  -5    5.89    2.17
  -1  -7  -6    7.63    2.45
  -1  -7  -6    7.72    2.13
  -1  -7  -7    8.71    2.54
  -1  -7  -7    6.53    1.95
  -1  -7  -8    0.02    0.50
  -1  -7  -8    0.13    1.06
  -1  -7  -9    4.60    2.00
  -1  -7  -9    4.22    1.58
  -1  -7 -10   -0.57    0.83
  -1  -7 -10   -0.56    1.23
  -1  -7 -11   23.70    4.04
  -1  -7 -11   21.50    4.06
  -1  -7 -12    1.64    1.24
  -1  -7 -13    1.17    1.07
   1   8 -14    2.68    1.62
   1   8 -14    5.23    1.70
   1   8 -13   12.79    3.30
   1   8 -13   26.76    3.52
   1   8 -12    2.74    1.77
   1   8 -12    2.44    1.22
   1   8 -11    1.72    1.23
   1   8 -11    1.85    0.92
   1   8 -10   -1.67    0.93
   1   8 -10    2.49    1.38
   1   8  -9    1.43    1.20
   1   8  -9   -0.58    0.80
   1   8  -8    0.17    1.07
   1   8  -8    1.13    0.85
   1   8  -7    0.16    0.47
   1   8  -7    1.52    1.26
   1   8  -6    4.21    1.63
   1   8  -6    4.72    1.49
  -1  -8   6    4.29    1.84
   1   8  -5    6.31    1.73
  -1  -8   5    4.26    1.98
   1   8  -4   17.06    2.87
   1   8  -4   22.19    3.22
  -1  -8   4   17.75    3.57
  -1  -8   3   26.68    4.29
   1   8  -3   28.05    3.38
  -1  -8   2    1.85    1.41
   1   8  -2    1.74    0.96
  -1  -8   1    2.51    1.05
   1   8  -1    5.15    1.24
  -1  -8   0   41.48    4.38
  -1  -8   0   47.65    5.72
  -1  -8  -1   27.00    3.57
  -1  -8  -1   27.70    4.48
  -1  -8  -2   33.85    4.92
  -1  -8  -2   33.93    4.04
  -1  -8  -3    9.41    2.79
  -1  -8  -3   11.40    2.49
  -1  -8  -4    2.60    1.19
  -1  -8  -4    2.09    1.49
  -1  -8  -5   54.01    5.64
  -1  -8  -5   41.59    5.62
  -1  -8  -6   15.87    3.14
  -1  -8  -6   14.92    3.48
  -1  -8  -7    7.68    2.47
  -1  -8  -7    5.99    2.02
  -1  -8  -8    0.73    1.00
  -1  -8  -8    2.97    1.68
  -1  -8  -9   17.17    3.29
  -1  -8  -9   17.44    3.80
  -1  -8 -10    2.50    1.37
  -1  -8 -10    3.50    1.54
  -1  -8 -11   -0.26    0.87
  -1  -8 -11    0.73    0.77
  -1  -8 -12    2.25    1.33
  -1  -8 -12    1.94    1.34
   1   9 -13    3.31    1.71
   1   9 -12   -0.55    0.96
   1   9 -11    2.40    1.51
   1   9 -10   -1.35    1.06
   1   9 -10    0.91    1.48
   1   9  -9   16.39    3.52
   1   9  -9   18.30    2.86
   1   9  -8   16.62    2.79
  -1  -9   8   15.54    3.76
   1   9  -8   15.40    3.44
   1   9  -7    4.42    1.47
  -1  -9   7    3.51    1.89
   1   9  -7    2.58    1.25
   1   9  -6    1.58    1.09
   1   9  -6    0.95    0.86
  -1  -9   6    1.33    1.29
   1   9  -5    0.08    0.55
   1   9  -5    0.96    1.12
  -1  -9   5   -0.38    0.89
   1   9  -4   24.72    3.53
  -1  -9   4   18.42    3.82
   1   9  -3   11.64    2.48
  -1  -9   3    5.75    2.19
  -1  -9   2    1.18    1.24
  -1  -9   1    2.67    1.68
  -1  -9   1   -0.42    0.88
  -1  -9   0    8.39    2.00
  -1  -9   0    4.03    1.84
  -1  -9  -1    1.73    0.98
  -1  -9  -1    2.49    1.56
  -1  -9  -2    2.45    1.15
  -1  -9  -2    4.56    2.07
  -1  -9  -3   -0.24    0.74
  -1  -9  -3    1.27    1.11
  -1  -9  -4   -1.22    1.14
  -1  -9  -4   -1.40    1.62
  -1  -9  -5    8.76    2.40
  -1  -9  -5    8.64    2.67
  -1  -9  -6    0.13    1.09
  -1  -9  -6    0.47    1.12
  -1  -9  -7    7.70    2.27
  -1  -9  -7    3.26    1.52
  -1  -9  -8    0.44    1.04
  -1  -9  -8    0.90    0.61
  -1  -9  -9    1.06    1.12
  -1  -9  -9   -0.12    0.86
  -1  -9 -10   10.48    3.05
  -1  -9 -10   12.39    2.94
  -1  -9 -11    4.40    1.84
   1  10 -12    1.55    1.46
   1  10 -11    4.63    2.08
   1  10 -10    2.10    1.63
  -1 -10  10   -0.67    1.10
   1  10  -9   -0.41    0.97
  -1 -10   9   -1.96    1.46
  -1 -10   8    0.47    1.17
  -1 -10   7    2.49    1.71
   1  10  -6   -0.43    0.64
  -1 -10   6    1.72    1.39
   1  10  -5    8.26    2.05
  -1 -10   5    3.53    2.07
  -1 -10   4    2.11    1.56
   1  10  -4    1.36    0.96
  -1 -10   3   18.36    3.92
   1  10  -3   20.49    3.32
  -1 -10   2    1.77    1.55
  -1 -10   1    3.89    2.56
  -1 -10   0    0.25    0.85
  -1 -10   0   -0.63    0.87
  -1 -10  -1   24.34    4.54
  -1 -10  -1   29.75    4.01
  -1 -10  -2    3.72    1.60
  -1 -10  -2    5.89    2.45
  -1 -10  -3    0.26    0.98
  -1 -10  -3    0.48    0.86
  -1 -10  -4    7.57    2.60
  -1 -10  -4    5.46    1.99
  -1 -10  -5   23.84    4.56
  -1 -10  -5   29.34    4.31
  -1 -10  -6   10.70    3.09
  -1 -10  -6   11.32    2.75
  -1 -10  -7    2.27    1.33
  -1 -10  -7    3.22    1.78
  -1 -10  -8   -0.30    0.68
  -1 -10  -8   -1.03    1.23
  -1 -10  -9    2.99    1.50
  -1 -11   9    5.95    2.53
  -1 -11   8    6.06    2.49
  -1 -11   7    4.41    2.14
  -1 -11   6    1.12    0.93
  -1 -11   5    0.09    0.81
  -1 -11   4    1.79    1.46
  -1 -11   3    4.94    2.40
  -1 -11   2    3.91    1.89
  -1 -11   1    2.28    1.67
  -1 -11   0   -1.70    1.39
  -1 -11  -1    2.53    1.64
  -1 -11  -2    3.70    2.00
  -1 -11  -3    0.61    0.98
  -1 -11  -4    1.73    0.89
  -1 -11  -5   -0.74    1.15
  -1 -12   4    4.30    1.88
  -1 -12   3   -0.68    1.08
  -1 -12   2    3.56    2.23
  -1 -12   1    4.04    2.05
  -1 -12   0    1.70    1.59
   2 -11  -2    3.09    2.06
   2 -11  -1    1.34    1.47
   2 -11   0   12.30    3.78
   2 -11   1    7.33    2.83
   2 -11   2    6.76    2.83
   2 -11   3   -4.82    2.33
   2 -11   4   -1.78    1.61
  -2  11  -6   -1.57    1.48
  -2  11  -7    5.56    2.79
  -2  11  -8    6.96    3.29
   2 -10  -7    1.96    1.75
   2 -10  -6    0.58    1.02
   2 -10  -5    1.28    1.38
   2 -10  -4    3.92    2.60
   2 -10  -3   -0.75    1.09
   2 -10  -2    0.61    0.94
   2 -10  -1   -0.42    1.17
   2 -10   0    5.84    2.65
   2 -10   1   -1.56    1.27
  -2  10  -2    3.66    1.62
   2 -10   2    1.68    1.72
  -2  10  -3   -2.61    1.87
   2 -10   3    3.51    2.29
   2 -10   4    0.45    1.03
  -2  10  -4    3.42    1.66
  -2  10  -5   12.10    3.45
   2 -10   5    3.70    2.42
  -2  10  -6   10.57    3.52
   2 -10   6   13.19    4.22
  -2  10  -7    3.51    1.84
   2 -10   7    6.17    2.88
  -2  10  -8    4.91    3.11
   2 -10   8    8.04    3.19
  -2  10  -9    1.26    1.95
  -2  10 -10    3.16    2.06
   2  -9 -10    3.04    1.99
   2  -9  -9    1.08    1.08
   2  -9  -8    2.52    1.97
   2  -9  -7    4.86    2.18
   2  -9  -6    5.26    2.27
   2  -9  -5    4.30    2.28
   2  -9  -4    1.94    1.76
   2  -9  -3   -0.83    1.39
   2  -9  -2    8.98    2.97
   2  -9  -1    8.18    2.84
   2  -9   0   -0.41    1.11
  -2   9  -1   -1.22    1.19
   2  -9   1    0.42    0.84
  -2   9  -2    3.12    1.31
   2  -9   2    5.83    2.43
  -2   9  -3    3.84    1.93
   2  -9   3    0.66    1.33
  -2   9  -4    4.14    1.97
   2  -9   4    6.46    2.71
  -2   9  -5    5.89    2.05
   2  -9   5    5.03    2.46
  -2   9  -6    2.34    1.42
   2  -9   6    2.10    1.64
  -2   9  -7    0.36    1.01
  -2   9  -8    0.65    1.48
  -2   9  -9    4.89    2.46
  -2   9 -10    7.80    3.45
  -2   9 -11    1.58    1.34
   2  -8 -12    6.46    2.58
   2  -8 -11   -1.28    0.88
   2  -8 -10    0.80    1.09
   2  -8  -9    2.12    1.17
   2  -8  -8    6.36    2.46
   2  -8  -7    2.01    1.51
   2  -8  -6    0.46    0.82
   2  -8  -5    1.50    1.43
   2  -8  -4  103.85    9.46
   2  -8  -3   12.57    3.28
   2  -8  -2   28.64    5.08
   2  -8  -1    1.23    1.28
  -2   8   0   21.66    3.74
   2  -8   0   27.24    4.78
  -2   8  -1   73.26    6.60
   2  -8   1   70.85    7.76
  -2   8  -2    4.46    2.10
   2  -8   2    3.17    2.08
  -2   8  -3    1.34    1.27
   2  -8   3    0.63    1.41
   2  -8   4    4.61    2.41
  -2   8  -4    2.27    1.06
  -2   8  -5    3.98    1.76
  -2   8  -6    3.24    1.81
  -2   8  -7    9.74    3.19
  -2   8  -8    3.19    1.92
  -2   8  -9    2.10    1.31
  -2   8 -10   -1.32    1.96
  -2   8 -11   -0.06    1.43
  -2   8 -12   17.01    4.65
  -2   8 -13    1.41    2.02
   2  -7 -14    0.27    1.09
   2  -7 -13    2.41    1.65
   2  -7 -13   -0.05    0.73
   2  -7 -12    5.06    2.16
   2  -7 -12    4.93    1.67
   2  -7 -11    0.87    0.83
   2  -7 -11    3.21    1.77
   2  -7 -10   21.43    3.03
   2  -7 -10   21.52    4.37
   2  -7  -9    5.32    1.59
   2  -7  -9    7.52    2.52
   2  -7  -8   56.23    4.67
   2  -7  -8   57.44    6.98
   2  -7  -7   20.29    2.63
   2  -7  -7   18.77    4.06
   2  -7  -6    7.59    2.39
   2  -7  -6    6.89    1.48
   2  -7  -5   26.11    4.74
   2  -7  -5   24.30    2.54
   2  -7  -4    0.04    1.01
   2  -7  -4    0.24    0.33
   2  -7  -3   40.77    2.76
   2  -7  -3   44.35    5.89
   2  -7  -2    1.56    0.58
   2  -7  -2    4.60    2.52
   2  -7  -1    0.10    1.34
   2  -7  -1   -1.39    0.45
  -2   7   0    3.48    2.03
   2  -7   0    7.47    2.57
   2  -7   1   37.56    5.48
  -2   7  -1   33.31    4.28
  -2   7  -2    2.25    0.61
  -2   7  -2    1.69    0.99
  -2   7  -3    2.61    1.26
   2  -7   3    2.71    2.08
  -2   7  -3    1.01    0.44
  -2   7  -4   18.80    1.47
  -2   7  -4   18.48    3.67
  -2   7  -5    4.62    1.86
  -2   7  -6   65.83    7.37
  -2   7  -7    1.32    0.99
  -2   7  -8    3.54    1.87
  -2   7  -9   -4.65    2.31
  -2   7 -10   16.29    4.32
  -2   7 -11   10.11    3.62
  -2   7 -12   -1.49    1.58
  -2   7 -13    8.98    3.54
  -2   7 -14   -0.93    1.51
   2  -6 -16   -0.05    0.75
   2  -6 -15   -2.29    1.58
   2  -6 -14    4.99    1.85
   2  -6 -14    1.63    1.18
   2  -6 -13   -1.37    1.25
   2  -6 -13    1.36    1.48
   2  -6 -12    2.94    1.27
   2  -6 -12    3.27    2.08
   2  -6 -11   41.10    5.85
   2  -6 -11   41.99    5.31
   2  -6 -11   41.43    4.50
   2  -6 -10    0.13    0.67
   2  -6 -10   -1.10    1.25
   2  -6 -10    0.94    0.84
   2  -6  -9    9.68    1.98
   2  -6  -9   11.38    3.13
   2  -6  -8    8.82    1.74
   2  -6  -8    8.41    2.76
   2  -6  -7   45.33    5.90
   2  -6  -7   44.98    3.74
   2  -6  -6    0.90    1.36
   2  -6  -6    0.87    0.78
   2  -6  -5    1.43    0.67
   2  -6  -5   -0.45    0.88
   2  -6  -4    5.07    2.04
   2  -6  -4    4.20    1.00
   2  -6  -3   76.89    7.28
   2  -6  -3   65.58    3.31
   2  -6  -2  100.51    3.76
   2  -6  -2  113.40    8.90
  -2   6   1   15.21    1.29
  -2   6   1   15.75    1.13
   2  -6  -1   15.75    3.26
   2  -6   0    7.49    0.92
  -2   6   0    8.14    0.76
  -2   6   0   10.77    2.33
   2  -6   0    7.05    2.27
   2  -6   1   11.54    1.09
  -2   6  -1    8.43    0.85
   2  -6   2   82.29    7.43
  -2   6  -2   99.91    3.18
  -2   6  -2   81.18    2.96
  -2   6  -2   88.41    6.97
  -2   6  -3    3.82    1.48
  -2   6  -3    4.95    0.77
  -2   6  -3    4.31    0.64
  -2   6  -4    2.78    1.45
  -2   6  -4    2.16    0.54
  -2   6  -4    2.08    0.46
  -2   6  -5    3.29    1.36
  -2   6  -5    4.88    0.73
  -2   6  -6   26.77    4.29
  -2   6  -6   29.87    1.92
  -2   6  -7   43.80    5.97
  -2   6  -7   43.93    2.51
  -2   6  -8    2.46    2.08
  -2   6  -8    0.48    0.40
  -2   6  -9    7.05    2.50
  -2   6  -9    4.99    0.94
  -2   6 -10    0.41    1.51
  -2   6 -11   16.03    4.21
  -2   6 -12    1.71    1.69
  -2   6 -13    4.44    2.80
  -2   6 -14    1.90    1.77
  -2   6 -15    4.33    2.73
   2  -5 -17    1.46    1.12
   2  -5 -16    1.91    1.16
   2  -5 -15    7.15    2.19
   2  -5 -14    3.27    1.63
   2  -5 -13   28.30    4.12
   2  -5 -13   29.79    4.80
   2  -5 -12    2.04    1.77
   2  -5 -12    1.88    1.28
   2  -5 -11   24.53    3.49
   2  -5 -11   25.21    3.99
   2  -5 -11   25.97    4.50
   2  -5 -10    6.86    2.38
   2  -5 -10    6.98    1.78
   2  -5 -10    6.15    2.13
   2  -5  -9   31.15    4.72
   2  -5  -9   34.64    4.95
   2  -5  -9   34.52    3.66
   2  -5  -8    5.20    1.33
   2  -5  -8    5.63    2.15
   2  -5  -7   19.00    3.67
   2  -5  -7   17.70    2.26
   2  -5  -6   24.57    4.06
   2  -5  -6   30.23    2.74
   2  -5  -5    2.73    1.59
   2  -5  -5    1.58    0.68
   2  -5  -4  123.79    4.84
   2  -5  -4  116.02    8.48
   2  -5  -3   28.91    4.18
   2  -5  -3   23.05    1.82
   2  -5  -2    0.36    0.64
  -2   5   2    0.19    0.24
   2  -5  -2   -0.04    0.17
   2  -5  -1   16.06    1.19
  -2   5   1   18.61    1.35
   2  -5  -1   17.49    4.46
  -2   5   0  119.98    2.53
  -2   5   0  118.30    7.06
  -2   5   0  123.95    3.07
   2  -5   0  130.60    9.02
   2  -5   1   31.97    2.08
   2  -5   1   47.87    5.74
  -2   5  -1   35.20    1.52
  -2   5  -1   43.27    4.52
  -2   5  -2  174.57    9.30
   2  -5   2  177.00    4.73
  -2   5  -2  168.49    3.39
  -2   5  -2  190.32    4.09
  -2   5  -3   10.29    0.82
  -2   5  -3   12.05    1.14
  -2   5  -3   10.16    2.22
  -2   5  -4    0.12    0.83
  -2   5  -4    1.32    0.32
  -2   5  -4    1.18    0.39
  -2   5  -5   16.29    3.05
  -2   5  -5   18.23    1.38
  -2   5  -6    2.04    0.56
  -2   5  -6    2.28    1.31
  -2   5  -7  151.90    4.76
  -2   5  -7  142.68   10.01
  -2   5  -8    5.30    2.21
  -2   5  -8    6.10    1.08
  -2   5  -9   -0.39    0.34
  -2   5  -9   -0.10    1.04
  -2   5 -10   30.05    5.16
  -2   5 -10   30.45    2.64
  -2   5 -11    9.46    3.35
  -2   5 -11    7.82    1.39
  -2   5 -12   29.61    2.87
  -2   5 -12   36.93    6.28
  -2   5 -13    3.16    2.47
  -2   5 -13    3.67    1.08
  -2   5 -14    5.05    2.65
  -2   5 -15    1.95    1.59
  -2   5 -16    3.96    2.68
   2  -4 -17    0.73    0.80
   2  -4 -16    0.64    0.61
   2  -4 -15   13.69    2.96
   2  -4 -14   25.22    3.97
   2  -4 -13   11.56    2.59
   2  -4 -12    9.12    2.20
   2  -4 -12   11.68    2.55
   2  -4 -12   11.80    3.29
   2  -4 -11    2.87    1.44
   2  -4 -11    3.27    1.62
   2  -4 -11   -0.97    0.95
   2  -4 -10   52.12    4.74
   2  -4 -10   52.12    5.97
   2  -4 -10   51.85    5.62
   2  -4  -9    4.12    1.88
   2  -4  -9    3.09    1.09
   2  -4  -9    1.38    0.77
   2  -4  -8  118.98    6.20
   2  -4  -8  131.04    9.15
   2  -4  -8  125.25    9.13
   2  -4  -7    3.09    1.05
   2  -4  -7    4.25    1.99
   2  -4  -6  571.73   11.30
   2  -4  -6  576.66   18.18
   2  -4  -5   11.60    1.50
   2  -4  -5   12.63    2.67
   2  -4  -4   14.75    1.52
   2  -4  -4   13.06    2.65
  -2   4   3   98.30    3.32
   2  -4  -3  107.65    7.36
   2  -4  -3  103.06    3.52
  -2   4   2  294.68    5.17
   2  -4  -2  299.32   12.20
   2  -4  -2  284.03    4.66
   2  -4  -1  111.14    2.25
   2  -4  -1  115.43    7.60
  -2   4   1  110.11    2.77
  -2   4   0    1.17    0.30
  -2   4   0    3.94    1.47
   2  -4   0    5.13    1.81
   2  -4   1  111.98    4.00
  -2   4  -1  116.99    6.62
  -2   4  -1  117.70    2.22
  -2   4  -2   12.85    0.95
  -2   4  -2   12.50    2.36
   2  -4   2   12.48    1.33
  -2   4  -3   14.08    2.56
  -2   4  -3   12.12    0.74
  -2   4  -4   24.65    3.35
  -2   4  -4   25.73    1.37
   2  -4   5    9.94    1.08
  -2   4  -5   12.35    2.58
  -2   4  -5   11.86    1.09
   2  -4   6    2.08    0.57
  -2   4  -6    2.50    1.22
  -2   4  -6    1.96    0.53
  -2   4  -7   12.09    2.95
  -2   4  -7   11.04    1.34
  -2   4  -8   29.25    2.35
  -2   4  -8   31.57    4.76
  -2   4  -9    0.33    1.21
  -2   4  -9    0.25    0.41
  -2   4 -10   53.66    6.66
  -2   4 -10   49.64    3.51
  -2   4 -11   22.75    4.57
  -2   4 -11   19.58    2.34
  -2   4 -12   19.00    4.30
  -2   4 -12   19.28    2.40
  -2   4 -13    1.06    1.31
  -2   4 -13    0.38    0.46
  -2   4 -14    2.14    1.93
  -2   4 -14    2.12    1.01
  -2   4 -15    1.33    1.86
  -2   4 -15    0.16    0.42
  -2   4 -16    0.08    1.05
  -2   4 -17    4.59    1.65
   2  -3 -18    0.46    0.97
   2  -3 -17    7.36    2.25
   2  -3 -16    4.07    1.77
   2  -3 -15    5.19    1.83
   2  -3 -15   12.54    2.79
   2  -3 -14   15.95    3.07
   2  -3 -14   17.51    3.16
   2  -3 -13    1.81    1.29
   2  -3 -12  179.74    9.07
   2  -3 -12  161.46    8.89
   2  -3 -11   16.87    2.77
   2  -3 -11   15.68    2.86
   2  -3 -11   14.76    3.10
   2  -3 -10    1.47    1.14
   2  -3 -10    2.52    1.55
   2  -3 -10    0.59    0.48
   2  -3  -9   -0.77    1.12
   2  -3  -9    0.67    0.61
   2  -3  -8    1.66    1.20
   2  -3  -8    0.03    0.73
   2  -3  -8    0.63    0.70
   2  -3  -7   54.87    4.02
   2  -3  -7   56.34    5.51
   2  -3  -7   57.79    6.03
   2  -3  -6   33.06    2.93
   2  -3  -6   34.01    4.13
   2  -3  -5    0.78    0.83
   2  -3  -5    0.56    0.50
   2  -3  -4   18.20    1.81
   2  -3  -4   17.23    2.85
  -2   3   4   19.74    1.56
   2  -3  -3    1.23    1.12
   2  -3  -3    1.06    0.43
  -2   3   3    1.02    0.36
   2  -3  -3    1.35    0.40
   2  -3  -2    9.50    2.01
   2  -3  -2   10.72    0.80
  -2   3   2    9.70    0.89
  -2   3   1  226.24    3.42
   2  -3  -1  224.58    9.50
  -2   3   0    7.01    1.64
  -2   3  -1   19.65    2.58
  -2   3  -2   85.81    5.46
   2  -3   2   82.05    3.59
   2  -3   3   85.79    3.76
   2  -3   3   83.57    2.16
  -2   3  -3   90.48    5.67
  -2   3  -4  144.54    7.45
  -2   3  -4  150.32    3.53
   2  -3   4  147.39    3.58
  -2   3  -5    0.54    0.38
  -2   3  -5    0.78    0.72
   2  -3   5    0.53    0.29
  -2   3  -6  160.26    4.90
   2  -3   6  163.42    4.68
  -2   3  -6  163.53    8.85
  -2   3  -7    2.89    1.41
  -2   3  -7    2.56    0.75
  -2   3  -8   42.12    5.13
  -2   3  -8   43.63    3.10
  -2   3  -9    6.55    2.31
  -2   3  -9    5.99    1.22
  -2   3 -10    2.46    1.70
  -2   3 -10    0.45    0.48
  -2   3 -11   22.81    4.25
  -2   3 -11   19.49    2.50
  -2   3 -12   15.54    2.32
  -2   3 -12   13.76    3.45
  -2   3 -13    3.56    1.86
  -2   3 -13    2.43    1.00
  -2   3 -14   -0.79    0.96
  -2   3 -15   -0.51    0.98
  -2   3 -15    0.74    0.83
  -2   3 -16    1.15    1.16
  -2   3 -16    2.32    1.66
  -2   3 -17    3.65    1.58
  -2   3 -17    0.90    1.47
   2  -2 -18    3.10    1.61
   2  -2 -18    0.25    0.51
   2  -2 -17   -1.49    1.19
   2  -2 -16   -0.87    0.75
   2  -2 -15   -0.02    0.69
   2  -2 -14    5.63    1.73
   2  -2 -13    1.43    0.94
   2  -2 -12   12.50    2.42
   2  -2 -11   18.00    2.73
   2  -2 -11   22.49    3.26
   2  -2 -10    0.81    0.81
   2  -2 -10    0.99    1.05
   2  -2  -9    0.94    1.04
   2  -2  -9   -0.19    0.73
   2  -2  -9    1.56    0.89
   2  -2  -8    9.76    2.29
   2  -2  -8   10.87    1.89
   2  -2  -8   12.14    2.45
   2  -2  -7  748.03   14.35
   2  -2  -7  764.02   18.60
   2  -2  -7  806.52   20.70
   2  -2  -6   24.47    2.41
   2  -2  -6   23.49    3.57
   2  -2  -6   25.67    3.33
   2  -2  -5    3.55    1.47
   2  -2  -5    5.30    1.09
   2  -2  -5    5.41    1.58
   2  -2  -4    0.12    0.42
   2  -2  -4    0.83    0.53
  -2   2   4    0.21    0.27
   2  -2  -3  127.13    3.95
   2  -2  -3  117.18    6.06
  -2   2   3  119.81    5.62
  -2   2   3  116.44    3.28
   2  -2  -2    7.99    1.50
  -2   2   2    9.99    0.83
   2  -2  -2   10.87    1.54
  -2   2   2   10.27    1.56
   2  -2  -2   10.02    0.95
   2  -2  -1   12.71    1.57
   2  -2  -1   11.30    1.87
  -2   2   1   11.19    0.77
   2  -2  -1   12.64    0.82
  -2   2   0    0.33    0.49
   2  -2   0   -0.33    0.46
   2  -2   1   33.04    2.50
  -2   2  -1   28.78    1.19
  -2   2  -1   32.17    3.11
  -2   2  -2    4.21    0.62
   2  -2   2    3.69    0.77
   2  -2   2    3.84    0.38
  -2   2  -2    3.77    1.13
  -2   2  -3   30.23    1.92
   2  -2   3   27.85    2.22
   2  -2   3   27.83    1.34
  -2   2  -3   27.08    2.91
  -2   2  -4  106.34    5.96
   2  -2   4  108.85    3.13
  -2   2  -5   -0.66    0.64
   2  -2   5   -0.24    0.21
  -2   2  -6    4.91    1.59
   2  -2   6    7.49    1.00
  -2   2  -7    3.98    1.46
  -2   2  -7    4.30    0.97
  -2   2  -8    3.92    1.62
  -2   2  -8    1.76    0.70
  -2   2  -9   34.25    4.39
  -2   2  -9   35.96    3.16
  -2   2 -10   19.29    3.51
  -2   2 -10   17.90    2.38
  -2   2 -11   87.42    7.68
  -2   2 -12    5.29    2.63
  -2   2 -13   51.22    6.18
  -2   2 -13   55.51    5.47
  -2   2 -14    3.97    1.85
  -2   2 -14    4.34    1.58
  -2   2 -15    1.18    0.96
  -2   2 -15    0.38    0.59
  -2   2 -16   10.84    2.61
  -2   2 -16   13.81    3.40
  -2   2 -17   -0.06    0.79
  -2   2 -17    0.67    1.01
   2  -1 -18   -0.04    0.48
   2  -1 -17   -0.09    0.54
   2  -1 -16   -0.64    1.05
   2  -1 -15    1.50    1.19
   2  -1 -14    1.22    0.86
   2  -1 -13   -0.42    0.67
   2  -1 -12    5.65    1.69
   2  -1 -11    2.81    1.20
   2  -1 -10    0.17    0.67
   2  -1  -9   22.42    2.70
   2  -1  -9   18.99    2.97
   2  -1  -8    4.51    1.23
   2  -1  -8    3.78    1.35
   2  -1  -7    9.81    1.67
   2  -1  -7   10.80    2.27
   2  -1  -7   10.56    1.98
   2  -1  -6   29.05    2.60
   2  -1  -6   29.32    3.15
   2  -1  -6   28.88    3.61
  -2   1   5   23.95    2.52
   2  -1  -5   23.70    2.77
   2  -1  -5   23.34    3.21
   2  -1  -5   22.98    2.14
   2  -1  -4   37.19    2.47
  -2   1   4   35.17    2.08
   2  -1  -4   36.59    3.15
   2  -1  -4   41.09    4.16
  -2   1   4   37.19    2.89
  -2   1   3   56.26    2.44
   2  -1  -3   55.78    2.67
  -2   1   3   52.36    3.08
   2  -1  -3   57.62    4.78
   2  -1  -3   54.97    3.56
  -2   1   2 9999.00   42.04
  -2   1   2 9866.77   29.92
   2  -1  -1   37.32    1.75
   2  -1  -1   36.88    2.56
   2  -1  -1   32.56    2.54
   2  -1  -1   34.17    1.54
  -2   1   0 3668.78   28.64
  -2   1   0 3210.05   16.44
   2  -1   0 3662.87   24.96
  -2   1  -1    2.05    0.81
   2  -1   1    1.76    0.38
   2  -1   1    1.50    0.49
  -2   1  -1    1.94    0.46
   2  -1   2  644.61   10.88
  -2   1  -2  745.37   13.66
   2  -1   2  733.74   10.95
  -2   1  -2  683.35    9.09
   2  -1   2  674.79    7.90
  -2   1  -3  324.98    7.28
  -2   1  -3  339.24    9.40
  -2   1  -3  329.24    7.15
   2  -1   3  306.78    7.51
   2  -1   3  328.54    5.04
   2  -1   3  328.15    7.26
   2  -1   4   82.12    2.78
  -2   1  -4   79.47    4.82
  -2   1  -4   89.20    4.04
  -2   1  -5   53.36    4.12
   2  -1   5   55.02    2.47
  -2   1  -5   54.42    3.45
  -2   1  -6   42.42    3.29
  -2   1  -6   38.45    3.82
  -2   1  -7  116.43    5.82
  -2   1  -7  108.49    6.59
  -2   1  -8    2.77    1.36
  -2   1  -8    2.72    1.05
  -2   1  -9    7.40    1.66
  -2   1  -9    8.05    2.02
  -2   1 -10    2.60    1.11
  -2   1 -10    2.88    1.37
  -2   1 -11    1.16    0.99
  -2   1 -12   35.60    4.29
  -2   1 -13    0.88    0.93
  -2   1 -14    0.70    1.07
  -2   1 -14    3.16    1.55
  -2   1 -15    0.43    0.88
  -2   1 -15   -0.91    1.09
  -2   1 -16    0.00    0.91
  -2   1 -16    1.92    1.27
  -2   1 -17    3.06    1.61
  -2   1 -17    1.91    1.25
  -2   1 -18    1.94    1.50
   2   0 -18    1.22    0.94
   2   0 -17    0.85    0.85
   2   0 -16    3.51    1.54
   2   0 -15   59.59    5.54
   2   0 -14    0.41    0.61
   2   0 -13   -0.25    0.67
   2   0 -12    0.23    0.67
   2   0 -11   71.90    5.29
   2   0 -10    0.51    0.55
   2   0  -9    7.61    1.64
   2   0  -8  123.16    6.05
   2   0  -7   28.03    2.76
   2   0  -6  481.27   13.49
   2   0  -6  473.67   10.38
  -2   0   6  467.49   10.27
   2   0  -5    5.62    1.13
   2   0  -5    4.43    1.48
  -2   0   5    4.41    0.95
   2   0  -4  152.69    7.40
   2   0  -4  146.33    5.10
  -2   0   4  145.86    4.51
  -2   0   4  157.00    5.14
   2   0  -4  136.97    4.72
  -2   0   4  154.07    6.79
   2   0  -3  619.68    9.99
   2   0  -3  616.23    8.98
  -2   0   3  612.03    8.65
  -2   0   3  630.74    9.09
  -2   0   3  622.00   13.44
   2   0  -3  611.54   14.21
   2   0  -2 2597.49   16.10
  -2   0   2 2574.11   16.35
   2   0  -2 2533.31   18.76
  -2   0   2 2579.22   17.59
  -2   0   2 2638.76   26.91
   2   0  -2 2580.03   16.73
   2   0  -2 2573.19   28.88
   2   0  -1 1511.61   12.79
   2   0  -1 1543.30   21.32
  -2   0   1 1491.81   13.85
   2   0   0  163.67    6.63
   2   0   0  149.28    3.84
  -2   0   0  148.81    4.32
   2   0   1   69.93    2.72
  -2   0  -1   78.36    3.88
  -2   0  -1   69.46    3.01
   2   0   1   79.67    3.35
  -2   0  -2    1.11    0.60
   2   0   2    0.68    0.33
   2   0   2    1.10    0.39
   2   0   2    0.57    0.41
  -2   0  -2    0.95    0.51
   2   0   3  193.20    5.18
   2   0   3  182.83    5.75
  -2   0  -3  192.95    6.44
  -2   0  -3  199.63    6.20
   2   0   3  187.86    4.99
  -2   0  -4   28.22    2.61
   2   0   4   32.99    2.03
  -2   0  -4   30.02    2.60
  -2   0  -5  345.70    9.32
  -2   0  -5  326.98    9.32
  -2   0  -6    2.48    0.87
  -2   0  -6    1.78    0.78
  -2   0  -7   86.22    5.46
  -2   0  -7  101.70    5.71
  -2   0  -8   61.61    4.70
  -2   0  -8   59.78    4.89
  -2   0  -9    0.72    0.76
  -2   0 -10    5.88    1.63
  -2   0 -11    0.30    0.69
  -2   0 -12   18.11    3.07
  -2   0 -13    0.50    0.98
  -2   0 -14   -1.24    1.06
  -2   0 -15    0.27    0.48
  -2   0 -16    0.66    0.83
  -2   0 -16   -0.34    1.15
  -2   0 -17    4.31    1.91
  -2   0 -17    6.37    1.84
  -2   0 -18    1.14    0.84
   2   1 -18    0.46    0.54
   2   1 -17    2.88    1.35
   2   1 -16   10.39    2.44
   2   1 -15    7.77    2.26
   2   1 -14   42.20    4.50
   2   1 -13    0.15    0.63
   2   1 -12   -0.10    0.47
   2   1 -11    4.56    1.41
   2   1 -10   61.08    4.75
   2   1  -9    1.30    0.72
   2   1  -8    1.55    0.78
   2   1  -7    5.34    1.28
   2   1  -6  108.21    5.35
  -2  -1   6  113.72    4.52
   2   1  -5   40.46    3.11
  -2  -1   5   40.82    2.41
  -2  -1   4    0.38    0.34
  -2  -1   4    0.27    0.30
   2   1  -4    0.65    0.57
   2   1  -3  228.82    5.69
  -2  -1   3  235.59    6.12
   2   1  -3  222.34    6.64
  -2  -1   3  223.86    3.84
  -2  -1   3  229.03    7.74
   2   1  -2  235.18    5.83
   2   1  -2  222.42    6.49
  -2  -1   2  237.10    7.45
   2   1  -2  221.38    7.52
  -2  -1   2  226.97    6.61
  -2  -1   1  778.87   12.23
   2   1  -1  813.70   10.75
  -2  -1   1  812.83   13.28
   2   1  -1  808.20   13.87
  -2  -1   0   51.03    3.03
   2   1   0   54.95    2.74
   2   1   0   53.47    1.94
  -2  -1   0   55.70    3.35
   2   1   0   61.01    3.64
   2   1   1  160.28    5.60
   2   1   1  158.60    4.72
  -2  -1  -1  144.78    5.13
  -2  -1  -1  155.10    5.51
   2   1   1  150.40    4.07
   2   1   1  163.42    5.57
   2   1   1  159.55    4.38
  -2  -1  -2   14.73    1.48
   2   1   2   15.38    1.49
  -2  -1  -2   15.00    1.84
   2   1   2   16.95    1.33
   2   1   2   17.77    1.66
   2   1   2   15.77    1.69
   2   1   2   17.26    1.66
  -2  -1  -3  395.63    8.26
   2   1   3  392.82    8.40
  -2  -1  -3  408.61    9.74
   2   1   3  409.84    8.83
   2   1   3  408.70    7.16
  -2  -1  -4  367.84    9.89
   2   1   4  354.02    5.77
  -2  -1  -5    0.20    0.42
  -2  -1  -5    0.64    0.57
  -2  -1  -6   -0.03    0.42
  -2  -1  -6    0.06    0.44
  -2  -1  -7   21.01    2.49
  -2  -1  -7   22.38    2.84
  -2  -1  -8    8.64    1.83
  -2  -1  -9    7.39    1.81
  -2  -1 -10   87.32    6.37
  -2  -1 -11    0.04    0.63
  -2  -1 -12    3.95    1.53
  -2  -1 -13    8.91    2.34
  -2  -1 -14   -0.62    0.67
  -2  -1 -15    4.36    1.72
  -2  -1 -16    1.43    1.04
  -2  -1 -16    1.90    1.30
  -2  -1 -17    2.67    1.41
  -2  -1 -17    4.22    1.71
   2   2 -18   -0.07    0.43
   2   2 -17    1.93    1.15
   2   2 -16    1.48    1.15
   2   2 -15   19.66    3.20
   2   2 -14   36.95    4.37
   2   2 -13    5.57    1.72
   2   2 -12    0.16    0.60
   2   2 -11    0.40    0.71
   2   2 -10   18.89    2.69
   2   2  -9   97.58    5.89
   2   2  -8   -0.30    0.57
   2   2  -7   87.48    5.16
   2   2  -6   44.89    3.61
   2   2  -5   26.01    2.72
   2   2  -4    9.74    1.66
   2   2  -3    8.75    1.52
  -2  -2   2   22.54    2.38
   2   2  -2   22.93    1.95
  -2  -2   2   20.78    1.36
   2   2  -1  121.00    4.51
  -2  -2   1  129.35    5.50
  -2  -2   1  107.26    5.09
  -2  -2   1  113.71    3.26
   2   2   0  178.40    5.42
   2   2   0  173.75    4.77
  -2  -2   0  187.14    4.90
  -2  -2   0  167.73    6.21
  -2  -2  -1   38.25    3.02
  -2  -2  -1   39.97    2.55
   2   2   1   36.42    2.54
   2   2   1   34.56    1.73
  -2  -2  -1   41.46    2.78
   2   2   1   40.13    2.61
   2   2   2  722.17   11.21
   2   2   2  691.83    6.88
  -2  -2  -2  672.46   10.17
   2   2   2  696.74   11.67
  -2  -2  -2  699.67   13.33
  -2  -2  -3   30.63    3.07
  -2  -2  -3   27.82    1.93
   2   2   3   29.61    2.34
   2   2   3   27.72    2.52
  -2  -2  -4  543.57   12.99
  -2  -2  -4  526.86    8.68
  -2  -2  -5    5.20    1.37
  -2  -2  -5    6.36    1.08
  -2  -2  -6   13.75    1.74
  -2  -2  -6   13.12    2.19
  -2  -2  -7   37.17    3.79
  -2  -2  -7   34.93    2.90
  -2  -2  -8  194.90    9.15
  -2  -2  -9  131.43    7.80
  -2  -2 -10   84.69    6.52
  -2  -2 -11   -0.55    0.56
  -2  -2 -12    6.76    1.95
  -2  -2 -13   44.23    5.30
  -2  -2 -14   -0.14    0.53
  -2  -2 -15    2.76    1.63
  -2  -2 -16   -0.53    0.81
   2   3 -18    0.84    0.73
   2   3 -17   -0.37    0.92
   2   3 -16    1.84    1.17
   2   3 -15    1.37    0.97
   2   3 -14   17.22    3.04
   2   3 -13    3.60    1.40
   2   3 -12   53.89    4.99
   2   3 -11   26.99    3.41
   2   3 -10    9.62    2.02
   2   3  -9   45.55    4.15
   2   3  -8   24.23    2.99
   2   3  -7   30.30    3.25
   2   3  -6   41.48    3.73
   2   3  -5   77.74    5.03
   2   3  -4  436.75   11.55
   2   3  -3    1.77    1.06
  -2  -3   3    1.37    0.74
  -2  -3   2  276.85    7.11
  -2  -3   2  296.61    9.50
  -2  -3   1    9.71    1.30
  -2  -3   1   12.10    1.96
  -2  -3   0  175.16    7.11
   2   3   0  166.21    5.82
  -2  -3   0  176.53    6.04
   2   3   1    2.60    0.96
  -2  -3  -1    1.04    0.71
  -2  -3  -1    1.04    0.63
   2   3   1    0.40    0.28
  -2  -3  -2  521.39   12.82
   2   3   2  550.36    9.72
   2   3   2  531.97   11.82
  -2  -3  -3  264.74    9.44
  -2  -3  -3  277.51    9.63
  -2  -3  -4  227.25    9.20
  -2  -3  -4  201.28    4.22
  -2  -3  -4  217.78    8.90
  -2  -3  -5   14.56    1.34
  -2  -3  -5   15.31    2.49
  -2  -3  -6   13.90    1.51
  -2  -3  -6   14.22    2.38
  -2  -3  -7    0.86    0.71
  -2  -3  -7    0.11    0.36
  -2  -3  -8    1.30    1.06
  -2  -3  -8    3.24    0.95
  -2  -3  -9    6.05    1.89
  -2  -3 -10   15.01    2.93
  -2  -3 -11   -0.50    0.76
  -2  -3 -12   -1.03    1.24
  -2  -3 -13    1.60    0.86
  -2  -3 -14   11.64    2.92
  -2  -3 -15    2.19    1.57
  -2  -3 -16    0.54    0.80
   2   4 -18    1.04    0.98
   2   4 -17    0.61    0.82
   2   4 -16    4.62    1.58
   2   4 -15   18.06    3.16
   2   4 -14    3.35    1.32
   2   4 -13    3.35    1.42
   2   4 -12    0.45    0.74
   2   4 -11   16.86    2.80
   2   4 -10   38.62    3.99
   2   4  -9   13.55    2.44
   2   4  -8   31.68    3.53
   2   4  -7   16.88    2.54
   2   4  -6    7.57    1.72
   2   4  -5    4.88    1.43
   2   4  -4  103.31    6.12
  -2  -4   3   12.29    1.91
  -2  -4   3   15.43    2.46
  -2  -4   2  296.90    9.01
  -2  -4   2  323.52   10.83
  -2  -4   1   27.18    3.50
  -2  -4   1   21.14    2.57
   2   4   0  220.74    7.86
  -2  -4   0  220.67    7.96
   2   4   0  238.39    6.15
  -2  -4   0  228.21    8.81
  -2  -4  -1  150.15    6.92
  -2  -4  -1  148.95    7.20
  -2  -4  -2   11.74    2.08
  -2  -4  -2   14.94    2.38
  -2  -4  -3  103.24    6.34
  -2  -4  -3  103.24    6.42
  -2  -4  -4    6.20    1.74
  -2  -4  -4    9.52    2.19
  -2  -4  -5  178.15    8.93
  -2  -4  -5  184.65    9.35
  -2  -4  -6   56.32    5.10
  -2  -4  -6   58.84    5.45
  -2  -4  -7   57.55    2.75
  -2  -4  -7   77.82    6.11
  -2  -4  -8   71.83    5.95
  -2  -4  -8   54.34    2.98
  -2  -4  -9   96.35    7.17
  -2  -4  -9   73.21    3.80
  -2  -4 -10   -0.39    0.79
  -2  -4 -11    1.41    1.08
  -2  -4 -12   12.82    2.96
  -2  -4 -13    1.40    1.10
  -2  -4 -14    2.21    1.64
  -2  -4 -15    3.06    1.71
   2   5 -18   -0.08    0.57
   2   5 -17    3.99    1.55
   2   5 -16    0.03    0.66
   2   5 -15    1.22    0.91
   2   5 -14    2.59    1.22
   2   5 -13    2.47    1.09
   2   5 -12    0.77    0.64
   2   5 -11   37.29    4.11
   2   5 -10   13.20    2.53
   2   5  -9    3.03    1.27
   2   5  -8    2.53    1.16
   2   5  -7    0.04    0.46
   2   5  -6  150.65    7.94
   2   5  -5   57.79    4.99
  -2  -5   4   35.17    3.59
   2   5  -4   33.31    3.80
  -2  -5   3    3.61    1.53
  -2  -5   3    5.91    1.76
  -2  -5   2    2.59    1.08
  -2  -5   2    4.48    1.41
   2   5  -1   84.72    3.44
  -2  -5   1   86.97    5.68
  -2  -5   1   88.43    5.98
   2   5   0   12.39    1.42
  -2  -5   0   14.34    2.56
   2   5   0   17.79    1.23
  -2  -5  -1   -0.02    0.59
  -2  -5  -1   -0.10    0.48
  -2  -5  -2    5.27    1.54
  -2  -5  -2    2.57    0.97
  -2  -5  -3    4.82    1.60
  -2  -5  -3    4.73    1.47
  -2  -5  -4   -0.23    0.51
  -2  -5  -4    1.70    1.11
  -2  -5  -5   18.27    3.14
  -2  -5  -5   23.72    3.45
  -2  -5  -6   69.67    5.97
  -2  -5  -6   71.57    6.37
  -2  -5  -7   15.59    2.95
  -2  -5  -7   13.86    2.87
  -2  -5  -8    3.65    1.47
  -2  -5  -9    1.12    1.09
  -2  -5 -10   26.32    3.96
  -2  -5 -11    6.50    2.22
  -2  -5 -12    2.40    1.30
  -2  -5 -13   24.82    4.28
  -2  -5 -14   26.64    4.49
   2   6 -17   -1.59    1.07
   2   6 -16    1.52    1.08
   2   6 -15    3.66    1.61
   2   6 -14    4.66    1.58
   2   6 -13    0.64    0.78
   2   6 -12   18.17    3.05
   2   6 -11    0.55    0.81
   2   6 -10   13.06    2.61
   2   6  -9    0.10    0.49
   2   6  -8   -0.29    0.85
   2   6  -7    0.45    0.44
   2   6  -6    5.62    1.65
   2   6  -5    1.80    1.12
  -2  -6   5    1.72    1.03
   2   6  -4    3.76    1.47
  -2  -6   4    2.22    1.14
  -2  -6   3    0.09    0.72
  -2  -6   3    1.28    0.99
   2   6  -2   -0.34    0.45
  -2  -6   2    0.23    0.49
  -2  -6   1   96.07    6.64
   2   6  -1  114.19    3.56
  -2  -6   1  103.10    6.84
  -2  -6   0  262.38   11.01
  -2  -6   0  240.80   10.25
  -2  -6  -1   77.79    6.12
  -2  -6  -1   67.52    5.63
  -2  -6  -2   13.26    2.59
  -2  -6  -2   12.35    2.49
  -2  -6  -3    1.62    1.25
  -2  -6  -3    0.56    0.81
  -2  -6  -4  194.35   10.27
  -2  -6  -4  215.49   10.86
  -2  -6  -5   15.14    2.96
  -2  -6  -5   14.03    2.92
  -2  -6  -6   38.61    4.88
  -2  -6  -6   41.40    4.83
  -2  -6  -7   12.64    2.72
  -2  -6  -7   11.47    2.71
  -2  -6  -8    9.57    2.42
  -2  -6  -8    9.78    2.57
  -2  -6  -9    4.44    1.82
  -2  -6 -10   -0.83    0.88
  -2  -6 -11    4.59    1.92
  -2  -6 -12    3.70    1.69
  -2  -6 -13   16.85    3.58
   2   7 -16   15.70    2.98
   2   7 -15    4.79    1.84
   2   7 -14   26.38    3.80
   2   7 -13    3.29    1.41
   2   7 -12    0.96    0.99
   2   7 -11    8.49    2.07
   2   7 -10    1.15    1.14
   2   7  -9   29.17    3.87
   2   7  -8   18.30    3.05
   2   7  -7   11.60    2.59
   2   7  -6    3.82    1.58
  -2  -7   6    3.34    1.53
  -2  -7   5   73.05    6.50
   2   7  -5   76.36    6.43
   2   7  -4    5.74    1.86
   2   7  -4    7.06    1.75
  -2  -7   4    5.98    1.97
   2   7  -3   43.04    3.56
  -2  -7   3   42.43    4.80
  -2  -7   3   43.95    4.86
  -2  -7   2    4.63    1.65
   2   7  -2    8.43    1.47
  -2  -7   1    2.30    1.03
   2   7  -1    4.71    0.87
  -2  -7   0   67.00    6.05
  -2  -7   0   69.94    5.91
  -2  -7  -1   45.67    4.79
  -2  -7  -1   46.64    5.11
  -2  -7  -2   26.69    3.90
  -2  -7  -2   24.82    3.73
  -2  -7  -3    0.78    0.82
  -2  -7  -3    0.83    0.80
  -2  -7  -4    3.10    1.41
  -2  -7  -4    3.42    1.61
  -2  -7  -5   13.05    2.89
  -2  -7  -5   11.11    2.73
  -2  -7  -6    7.20    2.30
  -2  -7  -6    6.64    2.17
  -2  -7  -7   -0.27    0.97
  -2  -7  -7    1.96    1.43
  -2  -7  -8    1.57    1.03
  -2  -7  -8    2.69    1.43
  -2  -7  -9   31.59    4.56
  -2  -7  -9   24.92    4.17
  -2  -7 -10    2.09    1.65
  -2  -7 -11    1.03    0.77
  -2  -7 -12   -2.75    1.52
   2   8 -16    1.14    1.02
   2   8 -15   -1.39    0.97
   2   8 -14    4.92    1.70
   2   8 -13    5.15    1.74
   2   8 -12   -0.45    0.64
   2   8 -11    7.15    1.98
   2   8 -10    3.26    1.41
   2   8  -9    2.82    1.37
  -2  -8   8   -0.45    0.74
   2   8  -8    0.38    0.59
   2   8  -7   -0.44    0.91
  -2  -8   7    0.17    0.67
   2   8  -6   22.38    3.59
   2   8  -6   18.70    3.01
  -2  -8   6   20.05    3.59
   2   8  -5    3.81    1.54
   2   8  -5    4.08    1.34
  -2  -8   5    2.93    1.57
   2   8  -4   11.30    2.61
   2   8  -4   14.18    2.38
  -2  -8   4    8.41    2.33
  -2  -8   3    4.83    1.90
  -2  -8   2    0.27    0.59
  -2  -8   2    2.86    1.58
  -2  -8   1   -0.53    0.96
  -2  -8   1    3.02    1.48
  -2  -8   0    4.44    1.77
  -2  -8   0    3.18    1.43
  -2  -8  -1    5.00    1.84
  -2  -8  -1    6.80    2.09
  -2  -8  -2    4.96    1.83
  -2  -8  -2    3.03    1.36
  -2  -8  -3   12.21    2.85
  -2  -8  -3   13.21    2.99
  -2  -8  -4    4.55    1.95
  -2  -8  -4    3.92    1.73
  -2  -8  -5    4.26    1.68
  -2  -8  -5    4.82    1.85
  -2  -8  -6    5.85    2.06
  -2  -8  -6    4.34    1.79
  -2  -8  -7    2.05    1.24
  -2  -8  -7   -0.36    1.05
  -2  -8  -8    1.81    1.49
  -2  -8  -8    2.14    1.17
  -2  -8  -9    2.23    0.98
  -2  -8  -9    0.68    0.98
  -2  -8 -10    3.23    1.61
  -2  -8 -10   -0.99    1.09
  -2  -8 -11    4.80    1.91
   2   9 -14    1.03    1.09
   2   9 -14    1.42    0.96
   2   9 -13    5.22    1.99
   2   9 -13    3.83    1.43
   2   9 -12   -0.09    0.68
   2   9 -12   -0.16    0.53
   2   9 -11    2.38    1.41
   2   9 -11    0.60    0.85
   2   9 -10    6.12    2.17
   2   9 -10    8.50    2.12
  -2  -9   9    0.84    1.01
   2   9  -9   -0.62    0.61
   2   9  -8   10.86    2.68
  -2  -9   8   12.82    3.14
   2   9  -8   17.61    3.11
   2   9  -7    0.31    0.54
  -2  -9   7   -0.53    0.90
   2   9  -6    0.29    0.83
  -2  -9   6    3.47    1.58
   2   9  -5   -0.56    0.89
  -2  -9   5   -1.96    1.32
  -2  -9   4    0.56    0.78
   2   9  -4    0.74    0.82
  -2  -9   3    5.21    2.00
  -2  -9   2    0.64    0.84
  -2  -9   2   -0.76    0.87
  -2  -9   1    0.88    0.65
  -2  -9   1    2.75    1.68
  -2  -9   0    1.33    1.32
  -2  -9   0    1.33    1.15
  -2  -9  -1    2.65    1.33
  -2  -9  -1    2.14    1.52
  -2  -9  -2   -0.12    1.03
  -2  -9  -2   -0.56    0.88
  -2  -9  -3    3.46    1.73
  -2  -9  -3    0.15    0.81
  -2  -9  -4    5.04    2.08
  -2  -9  -4    7.42    2.33
  -2  -9  -5    4.08    1.76
  -2  -9  -5    3.18    1.71
  -2  -9  -6   42.85    5.68
  -2  -9  -6   45.57    5.74
  -2  -9  -7   -1.02    1.02
  -2  -9  -7    1.12    1.17
  -2  -9  -8    6.85    2.36
  -2  -9  -8    6.33    2.31
  -2  -9  -9    4.50    2.04
  -2  -9  -9    3.29    1.58
  -2  -9 -10   24.58    4.32
  -2  -9 -10   27.33    4.52
   2  10 -10   26.50    3.73
   2  10  -9    5.97    1.86
   2  10  -8    0.68    0.79
   2  10  -7   -0.22    0.73
  -2 -10   7    0.14    0.65
   2  10  -6    7.03    2.21
  -2 -10   6    8.24    2.41
  -2 -10   5   15.59    3.33
   2  10  -5   11.16    2.59
  -2 -10   4   14.09    3.22
   2  10  -4    8.79    2.53
  -2 -10   3   28.71    4.56
   2  10  -3   27.10    4.19
  -2 -10   2    4.18    2.02
  -2 -10   1    1.01    0.91
  -2 -10   1    3.28    2.26
  -2 -10   0    2.85    1.24
  -2 -10   0    2.99    1.67
  -2 -10  -1    4.68    1.96
  -2 -10  -1    3.73    1.85
  -2 -10  -2    2.24    1.32
  -2 -10  -2    0.44    0.82
  -2 -10  -3   -0.35    0.84
  -2 -10  -3    0.67    0.86
  -2 -10  -4    4.70    1.94
  -2 -10  -4    4.70    1.69
  -2 -10  -5    1.40    1.16
  -2 -10  -5    0.31    0.82
  -2 -10  -6    1.33    0.79
  -2 -10  -6   -1.46    1.26
  -2 -10  -7    1.37    1.25
  -2 -10  -7   -0.28    0.94
  -2 -10  -8    5.18    2.00
  -2 -10  -8    6.39    2.33
   2  11  -5    0.13    0.60
   2  11  -4    0.97    0.88
   2  11  -3   -1.32    1.05
  -2 -11   2    0.44    1.17
  -2 -11   1   -1.63    1.34
  -2 -11   0   14.72    3.16
  -2 -11   0   12.72    3.20
  -2 -11  -1   -0.33    0.74
  -2 -11  -1   -1.27    1.22
  -2 -11  -2   20.55    4.01
  -2 -11  -2   19.12    3.63
  -2 -11  -3    1.22    1.23
  -2 -11  -3    2.09    1.52
  -2 -11  -4    0.14    0.98
  -2 -11  -4   -0.54    1.23
  -2 -11  -5    1.10    0.93
  -2 -11  -5   -0.22    0.97
  -3  11  -4    1.78    1.52
  -3  11  -5   -2.63    1.83
  -3  11  -6    2.44    1.59
   3 -10  -6   -0.05    1.20
   3 -10  -5   -2.12    1.82
   3 -10  -4   15.31    3.94
   3 -10  -3    0.94    0.98
   3 -10  -2    1.94    1.75
   3 -10  -1    1.79    1.79
   3 -10   0   13.32    3.84
   3 -10   1    3.19    1.83
  -3  10  -2    7.63    2.61
   3 -10   2    0.13    1.36
  -3  10  -3    0.15    1.11
   3 -10   3    0.16    1.32
  -3  10  -4   -2.40    1.87
   3 -10   4   -1.18    1.71
  -3  10  -5    7.59    2.88
   3 -10   5    8.45    3.62
  -3  10  -6    0.24    1.12
   3 -10   6    0.18    1.14
  -3  10  -7    0.76    1.27
  -3  10  -8    0.58    1.85
   3  -9  -9   -1.11    1.60
   3  -9  -8    2.78    1.91
   3  -9  -7    4.06    2.26
   3  -9  -6   19.24    4.35
   3  -9  -5    9.54    3.11
   3  -9  -4    0.48    1.17
   3  -9  -3    7.64    2.92
   3  -9  -2    9.13    3.18
   3  -9  -1   27.82    5.11
   3  -9   0    2.30    1.95
   3  -9   1    7.24    2.89
  -3   9  -2   11.05    3.17
   3  -9   2    8.55    3.44
  -3   9  -3   10.81    3.02
   3  -9   3    9.51    3.37
  -3   9  -4    4.15    1.98
   3  -9   4    0.80    1.57
  -3   9  -5    2.14    1.61
   3  -9   5    4.31    2.53
   3  -9   6    2.31    1.62
  -3   9  -6    7.68    2.86
  -3   9  -7   -0.52    1.67
  -3   9  -8   -0.39    1.27
  -3   9  -9    4.68    2.82
  -3   9 -10   16.00    4.83
   3  -8 -11    2.11    1.80
   3  -8 -10    1.29    1.19
   3  -8  -9    2.29    1.65
   3  -8  -8    5.55    2.52
   3  -8  -7    5.72    2.45
   3  -8  -6    0.03    1.02
   3  -8  -5   43.91    6.35
   3  -8  -4    4.43    2.36
   3  -8  -3  198.83   13.14
   3  -8  -2    4.64    2.27
   3  -8  -1    7.89    2.76
   3  -8   0    9.00    2.75
  -3   8  -1   45.10    5.80
   3  -8   1   59.69    7.64
  -3   8  -2   33.85    5.10
   3  -8   2   31.97    5.64
   3  -8   3   43.49    6.54
  -3   8  -3   44.68    5.89
  -3   8  -4   -0.38    1.18
   3  -8   4    0.34    1.19
  -3   8  -5    2.08    1.65
  -3   8  -6    3.49    2.14
  -3   8  -7    0.79    1.34
  -3   8  -8    0.86    1.13
  -3   8  -9    2.47    2.01
  -3   8 -10   -0.45    1.10
  -3   8 -11    0.11    1.40
   3  -7 -13   -0.54    1.07
   3  -7 -12    7.19    2.40
   3  -7 -11    1.11    1.40
   3  -7 -11    0.93    1.32
   3  -7 -10    2.30    1.51
   3  -7 -10    0.36    0.91
   3  -7  -9    0.67    0.91
   3  -7  -8    0.07    0.84
   3  -7  -7   -0.09    1.22
   3  -7  -6    2.46    1.60
   3  -7  -5   11.62    3.06
   3  -7  -4    5.55    2.34
   3  -7  -3    8.80    2.86
   3  -7  -2    1.35    1.51
   3  -7  -1    2.80    1.58
  -3   7   0    3.64    1.59
   3  -7   0    2.00    1.26
   3  -7   0    0.10    0.34
  -3   7  -1    8.10    2.51
   3  -7   1    5.30    0.94
  -3   7  -2   50.72    5.98
   3  -7   2   54.88    6.93
   3  -7   3   17.91    4.00
  -3   7  -3   16.01    3.58
  -3   7  -4   27.06    4.71
  -3   7  -5   -1.19    1.44
  -3   7  -6   30.03    5.20
  -3   7  -7    0.42    1.11
  -3   7  -8    4.28    2.46
  -3   7  -9    1.82    1.69
  -3   7 -10   -6.31    2.90
  -3   7 -11    0.64    1.47
  -3   7 -12    1.50    1.75
  -3   7 -13    3.12    2.43
   3  -6 -15    2.65    1.73
   3  -6 -14   -1.35    1.37
   3  -6 -14   -2.30    1.56
   3  -6 -13    0.46    0.75
   3  -6 -13    5.29    2.53
   3  -6 -12    5.34    1.52
   3  -6 -12    4.12    1.94
   3  -6 -12    4.29    1.95
   3  -6 -11    0.09    0.97
   3  -6 -11    0.31    0.90
   3  -6 -11    0.12    0.42
   3  -6 -10    9.84    3.10
   3  -6 -10   10.52    2.00
   3  -6 -10    6.58    2.42
   3  -6  -9   25.45    2.87
   3  -6  -9   25.18    4.65
   3  -6  -8    7.69    2.78
   3  -6  -8    7.49    1.47
   3  -6  -7    7.43    2.51
   3  -6  -7    7.63    1.39
   3  -6  -6    0.83    0.84
   3  -6  -6    1.39    0.67
   3  -6  -5   11.61    2.97
   3  -6  -5    8.61    1.22
   3  -6  -4   20.66    3.93
   3  -6  -4   14.49    1.30
   3  -6  -3   25.30    4.38
   3  -6  -3   16.18    1.06
   3  -6  -2   13.27    3.17
   3  -6  -1    7.19    2.96
   3  -6   0   13.48    3.53
  -3   6   0    7.10    2.17
  -3   6  -1    3.71    1.91
   3  -6   1    1.43    0.67
   3  -6   2   20.17    1.91
   3  -6   2   23.15    4.21
  -3   6  -2   19.93    3.60
  -3   6  -3    2.87    1.41
  -3   6  -4    3.47    1.69
  -3   6  -5    0.36    0.93
  -3   6  -6   10.24    3.03
  -3   6  -7  108.84    9.95
  -3   6  -8   -0.81    0.96
  -3   6  -9    8.25    2.60
  -3   6 -10    4.69    2.12
  -3   6 -11    8.87    3.27
  -3   6 -12    3.94    2.74
  -3   6 -13    1.40    2.44
  -3   6 -14   -0.85    2.36
   3  -5 -17    3.92    1.78
   3  -5 -16    4.28    1.68
   3  -5 -15    2.23    1.31
   3  -5 -14    0.53    1.23
   3  -5 -14    2.53    1.30
   3  -5 -13    2.76    1.36
   3  -5 -13    1.93    1.25
   3  -5 -12   -0.30    1.13
   3  -5 -12   -0.21    0.67
   3  -5 -12    1.23    1.57
   3  -5 -11    0.69    0.84
   3  -5 -11    2.46    1.80
   3  -5 -11    2.35    1.13
   3  -5 -10    9.82    2.00
   3  -5 -10    6.58    2.13
   3  -5 -10    3.63    1.92
   3  -5  -9    3.95    2.02
   3  -5  -9    3.54    1.65
   3  -5  -9    3.87    1.25
   3  -5  -8    5.26    1.26
   3  -5  -8    6.32    2.39
   3  -5  -7    2.09    1.64
   3  -5  -7    0.98    0.53
   3  -5  -6   16.02    1.79
   3  -5  -6   16.62    3.43
   3  -5  -5    4.98    1.99
   3  -5  -5    5.49    0.96
   3  -5  -4   48.07    2.39
   3  -5  -4   51.51    5.73
  -3   5   3   39.62    1.98
   3  -5  -3   45.99    5.45
   3  -5  -3   32.77    1.41
  -3   5   2   24.62    1.37
   3  -5  -2   27.98    4.15
  -3   5   1    7.08    0.60
   3  -5  -1   12.28    3.00
  -3   5   0   93.65    7.29
   3  -5   0   95.04    9.08
   3  -5   1  380.11    8.86
   3  -5   1  401.30   16.16
  -3   5  -1  398.17   14.36
   3  -5   2    7.03    1.21
  -3   5  -2    8.79    2.37
  -3   5  -3  107.38    8.23
  -3   5  -3   97.81    2.59
  -3   5  -3   98.29    2.68
   3  -5   3  110.02    4.80
  -3   5  -4    0.74    0.84
  -3   5  -5   44.96    5.50
  -3   5  -6   17.88    3.73
  -3   5  -7  154.87   10.93
  -3   5  -8   39.29    5.77
  -3   5  -9   50.69    6.88
  -3   5 -10   11.03    3.52
  -3   5 -11    1.86    2.08
  -3   5 -12    4.74    2.51
  -3   5 -12    3.22    1.16
  -3   5 -13    3.17    2.18
  -3   5 -13    1.34    0.84
  -3   5 -14   -0.48    0.58
  -3   5 -14   -1.00    1.74
  -3   5 -15   -0.30    0.58
  -3   5 -15    1.41    1.91
  -3   5 -16   -0.60    0.86
   3  -4 -17    1.85    1.17
   3  -4 -16    0.10    0.80
   3  -4 -15   25.77    4.01
   3  -4 -14    0.80    0.88
   3  -4 -14    0.75    0.99
   3  -4 -13   37.56    4.49
   3  -4 -13   32.45    4.32
   3  -4 -13   27.37    4.69
   3  -4 -13   43.17    5.34
   3  -4 -12   31.26    3.96
   3  -4 -12   30.24    4.05
   3  -4 -12   27.02    4.63
   3  -4 -12   29.83    4.58
   3  -4 -11    7.16    2.40
   3  -4 -11    9.85    2.17
   3  -4 -11    6.65    2.23
   3  -4 -11   11.29    2.38
   3  -4 -10    2.93    1.61
   3  -4 -10    1.97    1.05
   3  -4 -10    0.15    1.05
   3  -4  -9    4.60    2.09
   3  -4  -9    2.38    1.54
   3  -4  -9    2.84    1.13
   3  -4  -8   74.68    5.10
   3  -4  -8   76.35    7.02
   3  -4  -8   83.33    8.06
   3  -4  -7   17.99    2.13
   3  -4  -7   17.27    2.34
   3  -4  -7   21.43    3.71
   3  -4  -6   15.93    3.01
   3  -4  -6   14.35    1.67
   3  -4  -6   14.91    2.02
   3  -4  -5   11.51    1.67
   3  -4  -5   12.41    1.40
   3  -4  -4    0.43    0.27
   3  -4  -4    1.13    1.17
  -3   4   4    0.68    0.35
   3  -4  -3  108.01    2.72
   3  -4  -3  115.11    7.95
  -3   4   3  112.05    3.30
  -3   4   2    5.77    0.67
   3  -4  -2    5.82    1.74
   3  -4  -1   64.75    5.96
  -3   4   1   54.46    1.68
  -3   4   0   24.08    3.47
   3  -4   0   20.70    3.34
  -3   4  -1   57.09    5.24
  -3   4  -2   17.74    2.93
  -3   4  -2   13.50    0.72
   3  -4   2   18.87    2.12
  -3   4  -3    9.59    0.96
  -3   4  -3    8.49    2.10
   3  -4   3    9.69    1.49
   3  -4   4    2.29    0.86
  -3   4  -4    2.45    1.33
  -3   4  -4    2.25    0.63
  -3   4  -5   -0.21    0.61
  -3   4  -5    0.14    0.39
   3  -4   5    0.39    0.24
  -3   4  -6   72.51    6.84
  -3   4  -6   79.33    4.21
   3  -4   6   69.44    2.76
  -3   4  -7   -0.38    0.88
  -3   4  -7    0.92    0.51
  -3   4  -8    8.55    2.69
  -3   4  -8    6.91    1.44
  -3   4  -9    5.04    1.89
  -3   4  -9    5.03    1.37
  -3   4 -10    5.26    1.90
  -3   4 -10    5.28    1.41
  -3   4 -11    1.36    2.01
  -3   4 -11    0.05    0.69
  -3   4 -12    4.68    2.08
  -3   4 -12    4.09    1.17
  -3   4 -13    2.31    1.96
  -3   4 -13    0.88    0.81
  -3   4 -14    0.35    1.20
  -3   4 -14    0.53    0.54
  -3   4 -15    5.42    2.60
  -3   4 -15    1.28    0.91
  -3   4 -16    0.57    0.73
  -3   4 -17    2.13    1.36
   3  -3 -18    2.88    1.46
   3  -3 -17    1.63    1.38
   3  -3 -17    0.08    0.60
   3  -3 -16    1.59    1.10
   3  -3 -15    3.12    1.55
   3  -3 -14   24.61    3.69
   3  -3 -13    1.96    1.21
   3  -3 -13    1.01    1.03
   3  -3 -12    0.93    0.92
   3  -3 -12   -0.12    0.62
   3  -3 -12    1.27    1.53
   3  -3 -11    4.87    2.01
   3  -3 -11    4.02    1.74
   3  -3 -11    7.34    1.91
   3  -3 -10    0.47    0.72
   3  -3 -10    2.19    1.35
   3  -3 -10    2.25    1.04
   3  -3  -9    0.11    0.70
   3  -3  -9    0.27    0.53
   3  -3  -9    0.41    0.90
   3  -3  -8    0.91    1.10
   3  -3  -8    3.34    1.39
   3  -3  -8    3.42    1.08
   3  -3  -7    6.49    2.44
   3  -3  -7    8.97    2.38
   3  -3  -7    6.43    1.46
   3  -3  -6   11.06    2.52
   3  -3  -6    9.05    1.61
   3  -3  -5    8.68    2.19
   3  -3  -5    9.47    1.55
  -3   3   4    2.02    0.53
   3  -3  -4    1.33    0.86
   3  -3  -4    2.15    0.72
  -3   3   3  173.66    4.31
   3  -3  -3  179.17    4.91
   3  -3  -3  169.14    8.74
  -3   3   2    6.98    0.81
   3  -3  -2    7.65    0.88
   3  -3  -2    5.57    0.50
   3  -3  -2    7.59    1.92
   3  -3  -1    3.61    0.44
   3  -3  -1    2.95    1.24
  -3   3   0    5.42    1.62
  -3   3  -1   28.11    3.52
  -3   3  -1   23.96    1.04
   3  -3   2  536.43   11.13
  -3   3  -2  512.74    6.37
   3  -3   3   32.15    2.77
  -3   3  -3   38.34    4.38
   3  -3   3   27.80    1.06
  -3   3  -3   36.70    2.19
  -3   3  -4   32.79    2.36
   3  -3   4   33.45    2.87
   3  -3   4   29.48    1.46
  -3   3  -4   29.21    3.84
  -3   3  -5    4.20    1.03
  -3   3  -5    2.98    1.15
   3  -3   5    3.74    0.61
  -3   3  -6  109.34    5.18
  -3   3  -6  102.21    7.58
   3  -3   6  102.95    3.46
  -3   3  -7   31.55    3.06
  -3   3  -7   29.95    4.35
  -3   3  -8    0.95    1.35
  -3   3  -8    0.29    0.37
  -3   3  -9   -1.05    1.13
  -3   3  -9    1.03    0.80
  -3   3 -10   29.16    4.81
  -3   3 -10   26.02    3.23
  -3   3 -11   13.09    3.37
  -3   3 -11   12.26    2.30
  -3   3 -12    6.41    2.56
  -3   3 -12    2.12    1.19
  -3   3 -13    3.32    1.36
  -3   3 -13    3.97    2.16
  -3   3 -14    1.55    1.66
  -3   3 -14    1.10    0.97
  -3   3 -15    1.71    1.53
  -3   3 -15   -0.03    0.54
  -3   3 -16    5.87    2.57
  -3   3 -16    0.53    0.78
  -3   3 -17    3.63    1.72
   3  -2 -17    0.19    0.56
   3  -2 -16    6.52    1.97
   3  -2 -15    3.27    1.48
   3  -2 -14   -0.65    0.61
   3  -2 -13    6.80    1.76
   3  -2 -12   33.15    3.89
   3  -2 -12   40.43    4.95
   3  -2 -11   77.00    5.75
   3  -2 -11   90.21    7.80
   3  -2 -10    1.47    0.98
   3  -2 -10    2.52    1.57
   3  -2 -10    1.55    0.92
   3  -2  -9    5.18    2.07
   3  -2  -9    4.25    1.87
   3  -2  -9    2.74    1.10
   3  -2  -8   -1.34    1.34
   3  -2  -8    1.50    1.19
   3  -2  -8    1.39    0.86
   3  -2  -7   54.66    3.98
   3  -2  -7   54.46    5.23
   3  -2  -7   57.55    6.25
   3  -2  -6    2.91    1.78
   3  -2  -6    2.57    1.55
   3  -2  -6    0.67    0.70
   3  -2  -5   20.58    2.29
   3  -2  -5   23.80    3.21
   3  -2  -5   23.69    3.94
   3  -2  -4    3.83    1.70
   3  -2  -4    0.34    0.82
  -3   2   4    2.28    0.87
  -3   2   3    5.35    0.82
   3  -2  -3    7.31    1.85
   3  -2  -3    5.75    0.96
   3  -2  -3    5.43    0.73
   3  -2  -2    0.36    0.20
   3  -2  -2    0.68    0.34
   3  -2  -2   -0.04    0.52
   3  -2  -1   15.59    1.00
   3  -2  -1   16.96    2.49
   3  -2  -1   18.60    1.28
  -3   2   0   14.07    2.46
   3  -2   0   12.71    0.95
   3  -2   0   11.77    0.96
  -3   2   0   11.06    0.97
  -3   2  -1   28.23    3.30
  -3   2  -1   25.60    1.61
   3  -2   1   26.82    1.44
   3  -2   2  106.77    5.17
  -3   2  -2  116.81    6.78
  -3   2  -2  106.55    3.68
  -3   2  -3   -0.33    0.89
  -3   2  -3    1.12    0.61
   3  -2   3    0.33    0.47
   3  -2   3    0.54    0.21
  -3   2  -4    4.78    1.40
  -3   2  -4    5.53    1.05
   3  -2   4    3.43    0.55
   3  -2   4    4.06    1.09
  -3   2  -5   31.45    3.81
  -3   2  -5   36.30    2.98
   3  -2   5   33.45    1.85
  -3   2  -6   12.34    2.46
  -3   2  -6   14.64    2.08
  -3   2  -7   77.61    4.96
  -3   2  -7   71.40    6.27
  -3   2  -8   13.22    2.99
  -3   2  -8   11.59    2.02
  -3   2  -9   44.67    4.21
  -3   2  -9   47.59    5.57
  -3   2 -10    1.62    1.40
  -3   2 -10    2.26    1.04
  -3   2 -11   37.07    5.19
  -3   2 -11   38.32    4.29
  -3   2 -12   24.73    3.56
  -3   2 -12   24.74    4.36
  -3   2 -13   29.73    3.98
  -3   2 -13   31.47    4.98
  -3   2 -14    0.77    0.85
  -3   2 -14    0.87    1.03
  -3   2 -15    3.57    1.60
  -3   2 -15    7.35    2.57
  -3   2 -16    3.78    1.89
  -3   2 -16    1.73    1.08
  -3   2 -17   -0.23    0.79
  -3   2 -17   -0.22    0.91
   3  -1 -18    1.07    0.93
   3  -1 -17    1.88    1.22
   3  -1 -16    1.41    1.05
   3  -1 -15   -0.98    0.84
   3  -1 -14    1.48    0.73
   3  -1 -13    1.01    0.71
   3  -1 -12    4.29    1.60
   3  -1 -11   14.39    2.50
   3  -1 -10    2.36    1.06
   3  -1 -10    2.33    1.35
   3  -1  -9   27.92    3.20
   3  -1  -9   29.61    4.40
   3  -1  -8   55.09    4.26
   3  -1  -8   48.73    4.47
   3  -1  -8   60.54    6.19
   3  -1  -7   94.66    5.29
   3  -1  -7   89.63    5.92
   3  -1  -7  101.41    7.86
   3  -1  -6  144.64    6.09
   3  -1  -6  141.62    7.17
   3  -1  -6  140.25    9.20
  -3   1   5    6.62    1.31
   3  -1  -5    7.79    2.08
   3  -1  -5    8.03    1.36
   3  -1  -5    6.75    1.60
  -3   1   4    0.67    0.38
   3  -1  -4    0.55    0.96
   3  -1  -4    0.48    0.57
  -3   1   4    0.82    0.58
   3  -1  -4   -0.29    0.40
   3  -1  -3    9.89    2.25
   3  -1  -3   13.62    1.56
   3  -1  -3   11.94    1.74
  -3   1   3   12.89    1.38
   3  -1  -3   12.64    1.24
   3  -1  -2  205.32    4.89
   3  -1  -2  195.36    6.87
   3  -1  -2  199.92    5.54
   3  -1  -2  197.95    9.90
   3  -1  -1   46.87    2.28
  -3   1   1   44.63    2.45
   3  -1  -1   44.04    2.49
   3  -1   0   14.65    1.25
  -3   1   0   15.01    1.47
  -3   1  -1  184.88    7.89
   3  -1   1  169.33    4.43
   3  -1   2   27.97    2.69
  -3   1  -2   26.67    2.12
   3  -1   2   31.09    1.99
  -3   1  -2   27.47    3.15
  -3   1  -3  226.53    6.79
   3  -1   3  234.97    5.79
   3  -1   3  229.14    7.71
  -3   1  -4    5.93    1.56
  -3   1  -4    5.80    1.28
   3  -1   4    6.36    0.86
   3  -1   4    4.87    1.25
  -3   1  -5   42.47    4.18
  -3   1  -5   47.42    3.67
  -3   1  -6   20.92    2.99
  -3   1  -6   28.65    3.04
  -3   1  -7   32.58    4.05
  -3   1  -7   34.05    3.46
  -3   1  -8    8.29    1.76
  -3   1  -8    7.31    2.07
  -3   1  -9    1.79    1.39
  -3   1  -9    0.29    0.54
  -3   1 -10   10.51    2.77
  -3   1 -10    6.95    1.87
  -3   1 -11    6.99    2.01
  -3   1 -11    6.32    2.19
  -3   1 -12    1.09    0.70
  -3   1 -12    5.38    2.50
  -3   1 -13   -0.14    0.55
  -3   1 -13    0.75    1.13
  -3   1 -14    0.62    0.73
  -3   1 -14    0.73    1.13
  -3   1 -15    0.30    0.64
  -3   1 -15    1.31    1.12
  -3   1 -16    1.02    0.83
  -3   1 -16   -0.40    0.86
  -3   1 -17    3.21    1.68
   3   0 -18    0.58    0.88
   3   0 -17   28.54    4.12
   3   0 -16    0.78    0.95
   3   0 -15    1.09    1.08
   3   0 -14    6.51    1.86
   3   0 -13    2.96    1.29
   3   0 -12   27.29    3.58
   3   0 -11    0.57    0.65
   3   0 -10    1.94    0.83
   3   0  -9    2.28    1.02
   3   0  -8    9.54    1.92
   3   0  -8    8.36    2.40
   3   0  -7    4.87    1.85
   3   0  -7    5.12    1.31
   3   0  -6   41.01    3.33
  -3   0   6   46.44    3.41
   3   0  -6   49.26    5.23
  -3   0   5    3.12    1.17
   3   0  -5    1.33    0.93
   3   0  -5    2.76    1.97
   3   0  -5    3.90    1.17
   3   0  -4    0.08    0.35
   3   0  -4   -0.24    0.70
  -3   0   4   -0.10    0.24
   3   0  -4    0.48    0.35
   3   0  -3   20.72    1.79
   3   0  -3   21.58    2.14
   3   0  -3   18.38    1.65
   3   0  -3   18.93    3.04
  -3   0   2   20.55    2.00
   3   0  -2   20.39    1.75
   3   0  -2   19.66    1.67
   3   0  -2   19.41    2.01
   3   0  -2   18.89    3.07
  -3   0   1   51.66    3.29
   3   0  -1   54.41    2.82
   3   0  -1   55.06    4.86
   3   0   0    8.72    1.86
   3   0   0    6.93    0.97
  -3   0   0    8.22    1.28
   3   0   0    6.98    1.29
  -3   0  -1   50.96    3.90
   3   0   1   41.92    2.41
  -3   0  -1   42.13    2.90
   3   0   1   41.67    4.03
   3   0   1   48.87    3.21
   3   0   2   16.94    2.12
  -3   0  -2   16.64    1.91
  -3   0  -2   18.78    2.40
  -3   0  -3  182.52    7.89
   3   0   3  168.64    6.70
  -3   0  -3  169.61    6.60
  -3   0  -4   10.94    1.98
  -3   0  -4   12.09    1.85
   3   0   4   12.05    1.83
  -3   0  -5   13.77    2.27
  -3   0  -5   16.66    2.33
  -3   0  -6  224.95    9.43
  -3   0  -6  244.38    9.24
  -3   0  -7   17.54    2.70
  -3   0  -7   14.37    2.50
  -3   0  -8   71.63    5.82
  -3   0  -8   84.41    6.01
  -3   0  -9    8.20    1.96
  -3   0  -9    5.97    1.96
  -3   0 -10   35.37    4.43
  -3   0 -10   38.65    4.35
  -3   0 -11   -0.07    0.79
  -3   0 -11    2.46    1.39
  -3   0 -12   12.60    2.79
  -3   0 -12   10.51    2.49
  -3   0 -13    1.73    1.26
  -3   0 -13    1.26    1.45
  -3   0 -14    1.96    1.19
  -3   0 -14    1.97    1.17
  -3   0 -15   -1.29    1.28
  -3   0 -15   -1.09    0.86
  -3   0 -16    2.43    1.26
  -3   0 -16    2.67    1.24
  -3   0 -17    1.04    1.23
   3   1 -18    0.56    0.86
   3   1 -17    3.96    1.79
   3   1 -16    1.61    1.19
   3   1 -15   14.88    2.91
   3   1 -14    1.41    0.92
   3   1 -13    5.38    1.69
   3   1 -12   82.13    6.20
   3   1 -11    1.39    1.07
   3   1 -10   22.19    3.04
   3   1  -9    5.34    1.48
   3   1  -8   99.91    5.84
   3   1  -7  265.44    9.31
  -3  -1   7  281.68    8.02
   3   1  -6   48.28    3.84
  -3  -1   6   52.62    3.24
  -3  -1   5    9.52    1.51
   3   1  -5    7.22    1.59
   3   1  -4    1.28    0.75
  -3  -1   4    1.29    0.47
   3   1  -4    1.91    1.31
   3   1  -3   27.48    2.76
   3   1  -3   27.11    3.47
  -3  -1   2   63.55    4.04
   3   1  -2   63.41    4.12
   3   1  -2   63.76    5.14
  -3  -1   1  236.58    7.73
   3   1  -1  227.00    9.32
  -3  -1   0    2.24    0.97
  -3  -1   0    2.02    0.80
   3   1   0    3.00    1.19
   3   1   0    2.58    0.78
   3   1   1    1.10    0.32
  -3  -1  -1    1.08    0.55
   3   1   1    2.21    0.91
   3   1   2    2.58    0.82
  -3  -1  -2    2.65    0.92
  -3  -1  -2    2.13    0.76
   3   1   2    2.60    0.94
   3   1   2    2.63    0.65
  -3  -1  -3    4.99    1.25
  -3  -1  -3    4.92    1.24
   3   1   3    4.31    1.09
   3   1   3    5.19    0.92
   3   1   3    5.97    1.34
  -3  -1  -4    0.89    0.70
   3   1   4    0.61    0.44
  -3  -1  -4    1.03    0.66
   3   1   4    0.59    0.70
  -3  -1  -5   31.72    3.16
  -3  -1  -5   31.54    3.37
   3   1   5   28.10    2.28
  -3  -1  -6    0.54    0.76
  -3  -1  -6   -0.53    0.65
   3   1   6    0.48    0.32
  -3  -1  -7   -0.10    0.52
  -3  -1  -7    1.19    0.90
   3   1   7    0.25    0.24
  -3  -1  -8   26.34    3.34
  -3  -1  -8   25.79    3.46
  -3  -1  -9   92.67    6.40
  -3  -1  -9   95.43    6.83
  -3  -1 -10    2.57    1.25
  -3  -1 -10    1.98    1.04
  -3  -1 -11    0.61    0.88
  -3  -1 -11    1.29    0.86
  -3  -1 -12    0.20    0.74
  -3  -1 -12    2.03    1.14
  -3  -1 -13   29.77    4.42
  -3  -1 -13   20.04    3.37
  -3  -1 -14   -0.16    0.92
  -3  -1 -14    0.79    0.76
  -3  -1 -15   -0.82    0.92
  -3  -1 -15   -0.56    0.71
  -3  -1 -16   -0.30    1.00
   3   2 -18   -0.91    0.91
   3   2 -17    0.21    0.50
   3   2 -16    0.68    0.85
   3   2 -15    2.79    1.29
   3   2 -14    3.10    1.29
   3   2 -13    4.51    1.68
   3   2 -12    5.90    1.83
   3   2 -11   11.88    2.36
   3   2 -10   23.49    3.18
   3   2  -9    1.67    0.99
   3   2  -8   14.19    2.38
   3   2  -7   97.63    5.92
  -3  -2   7   97.47    4.26
  -3  -2   6    1.67    0.53
   3   2  -6    2.10    1.17
   3   2  -5  189.57    7.94
  -3  -2   5  197.26    4.51
   3   2  -4   24.55    2.86
  -3  -2   4   23.40    1.20
  -3  -2   3   32.78    3.33
   3   2  -3   30.07    3.20
  -3  -2   2  256.69    9.16
  -3  -2   1   45.69    3.76
   3   2  -1   34.89    1.55
  -3  -2   0    0.13    0.40
   3   2   0    0.60    0.37
   3   2   0    0.49    0.51
  -3  -2   0    1.56    0.77
   3   2   1   25.88    2.65
   3   2   1   24.31    1.97
  -3  -2  -1   26.08    2.79
   3   2   1   27.41    2.14
  -3  -2  -1   25.39    2.64
  -3  -2  -2  222.09    8.54
   3   2   2  213.20    5.30
   3   2   2  237.61    8.04
   3   2   2  215.60    6.56
  -3  -2  -2  194.68    7.01
  -3  -2  -3  109.52    4.76
  -3  -2  -3  124.08    6.72
   3   2   3  118.28    3.74
   3   2   3  129.14    5.88
  -3  -2  -4   84.51    4.38
  -3  -2  -4   99.35    6.26
   3   2   4   95.93    5.04
  -3  -2  -5    0.68    0.52
  -3  -2  -5    1.55    1.05
  -3  -2  -6    8.28    1.60
  -3  -2  -6   10.37    2.19
  -3  -2  -7  138.54    6.54
  -3  -2  -7  138.97    7.92
  -3  -2  -8   -0.12    0.68
  -3  -2  -8    1.47    1.25
  -3  -2  -9   96.58    6.07
  -3  -2  -9  100.59    7.23
  -3  -2 -10   35.45    3.85
  -3  -2 -10   39.46    4.67
  -3  -2 -11    2.54    1.39
  -3  -2 -11    1.57    0.90
  -3  -2 -12    3.40    1.58
  -3  -2 -12    0.68    0.81
  -3  -2 -13   10.19    2.67
  -3  -2 -14    0.67    1.07
  -3  -2 -15   -0.88    1.06
   3   3 -18    0.60    0.62
   3   3 -17    4.10    1.70
   3   3 -16   12.79    2.87
   3   3 -15    0.70    0.80
   3   3 -14    3.21    1.24
   3   3 -13  124.41    8.04
   3   3 -12    3.28    1.62
   3   3 -11  146.72    8.19
   3   3 -10    7.15    1.94
   3   3  -9    4.54    1.48
   3   3  -8   17.63    2.78
   3   3  -7  210.67    9.04
   3   3  -6  268.59   10.08
   3   3  -5   84.45    5.65
  -3  -3   4   24.12    1.92
   3   3  -4   27.37    3.37
  -3  -3   3   15.27    2.55
  -3  -3   3   14.21    1.20
  -3  -3   2  207.63    8.90
  -3  -3   2  212.59    4.91
  -3  -3   1   -0.10    1.56
  -3  -3   1    1.19    0.52
  -3  -3   0   29.62    3.30
   3   3   0   28.55    2.29
  -3  -3   0   35.38    2.56
   3   3   1   32.29    2.87
  -3  -3  -1   34.22    3.57
   3   3   1   31.06    1.95
   3   3   1   35.61    2.88
  -3  -3  -1   33.81    3.23
   3   3   2    0.39    0.46
  -3  -3  -2    0.02    0.56
  -3  -3  -2   -0.30    0.33
   3   3   2    0.21    0.19
   3   3   2    0.29    0.38
  -3  -3  -3   11.59    2.20
  -3  -3  -3    8.44    1.38
   3   3   3   14.27    1.98
  -3  -3  -4   42.83    4.32
  -3  -3  -4   26.38    2.20
  -3  -3  -5   10.23    2.20
  -3  -3  -5    7.46    1.15
  -3  -3  -6   -0.37    0.37
  -3  -3  -6    0.16    0.82
  -3  -3  -7    2.56    0.89
  -3  -3  -7    4.57    1.77
  -3  -3  -8    7.06    1.40
  -3  -3  -8   10.18    2.38
  -3  -3  -9   -0.03    0.64
  -3  -3  -9    1.00    0.73
  -3  -3 -10    2.75    1.12
  -3  -3 -10    3.12    1.40
  -3  -3 -11    1.80    1.29
  -3  -3 -12   20.42    3.71
  -3  -3 -13    2.72    1.31
  -3  -3 -14    0.38    0.68
  -3  -3 -15    2.04    1.13
   3   4 -17   -1.67    1.15
   3   4 -16    1.80    1.31
   3   4 -15    3.32    1.46
   3   4 -14    8.04    2.10
   3   4 -13   22.04    3.42
   3   4 -12    6.95    2.01
   3   4 -11   15.04    2.76
   3   4 -10    5.28    1.62
   3   4  -9    0.10    0.50
   3   4  -8   45.20    4.53
   3   4  -7    1.26    0.87
   3   4  -6   69.67    5.59
   3   4  -5   12.90    2.46
   3   4  -4    0.42    0.53
  -3  -4   4   -0.11    0.35
  -3  -4   3   43.67    4.45
  -3  -4   3   41.56    2.87
  -3  -4   2   24.51    3.31
  -3  -4   2   22.74    2.13
  -3  -4   1  114.38    6.90
  -3  -4   1  119.08    5.13
   3   4   0   20.44    2.28
  -3  -4   0   13.45    2.53
   3   4   0   12.50    1.86
  -3  -4   0   19.15    2.34
   3   4   1    5.97    0.71
  -3  -4  -1    7.23    1.74
  -3  -4  -1   10.93    1.86
   3   4   1    8.40    1.45
  -3  -4  -2    1.71    1.04
   3   4   2    0.93    0.68
  -3  -4  -2    2.00    1.01
  -3  -4  -3  141.16    8.30
  -3  -4  -3  143.17    7.38
  -3  -4  -4    3.30    0.82
  -3  -4  -4    9.80    2.28
  -3  -4  -5   68.23    5.87
  -3  -4  -5   28.03    2.06
  -3  -4  -6   10.73    2.38
  -3  -4  -7   -0.37    0.84
  -3  -4  -8    3.43    1.53
  -3  -4  -9    4.79    1.86
  -3  -4 -10    4.45    1.76
  -3  -4 -11   -0.04    0.72
  -3  -4 -12    1.03    1.09
  -3  -4 -13    5.46    1.99
  -3  -4 -14    0.52    1.22
   3   5 -17    0.70    0.82
   3   5 -16    2.75    1.38
   3   5 -15    2.36    1.23
   3   5 -14   -0.39    0.94
   3   5 -13    1.13    0.94
   3   5 -12    3.31    1.48
   3   5 -11    6.70    1.97
   3   5 -10   59.35    5.44
   3   5  -9    7.21    2.00
   3   5  -8    1.84    0.91
   3   5  -7   23.44    3.39
   3   5  -6   18.68    3.15
   3   5  -5    0.91    1.00
  -3  -5   5    0.10    0.60
   3   5  -4    4.30    1.64
  -3  -5   4    4.22    1.27
  -3  -5   3   52.16    5.10
  -3  -5   3   51.34    3.87
  -3  -5   2   11.36    2.01
  -3  -5   2    3.29    1.50
   3   5  -1   56.76    3.53
  -3  -5   1   55.07    5.09
  -3  -5   1   57.06    4.05
  -3  -5   0   36.62    4.16
   3   5   0   40.25    3.05
  -3  -5   0   40.51    3.59
  -3  -5  -1    1.44    1.14
   3   5   1    1.45    0.74
  -3  -5  -1    1.92    1.07
  -3  -5  -2    3.66    1.48
  -3  -5  -2    4.44    1.41
  -3  -5  -3   12.48    2.60
  -3  -5  -3   11.48    2.33
  -3  -5  -4   15.86    3.01
  -3  -5  -4   16.65    2.86
  -3  -5  -5    2.25    1.15
  -3  -5  -5    3.75    1.42
  -3  -5  -6    8.55    2.24
  -3  -5  -7    9.08    2.46
  -3  -5  -8   33.69    4.55
  -3  -5  -9   19.24    3.53
  -3  -5 -10    2.33    1.24
  -3  -5 -11    5.74    2.06
  -3  -5 -12    2.43    1.64
  -3  -5 -13   16.98    3.82
   3   6 -16    2.54    1.43
   3   6 -15    2.25    1.32
   3   6 -14    1.19    0.91
   3   6 -13    0.16    0.52
   3   6 -12   15.17    2.86
   3   6 -11    7.92    2.16
   3   6 -10    8.73    2.26
   3   6  -9   19.95    3.34
   3   6  -8    1.55    1.08
   3   6  -7  153.66    9.09
   3   6  -6   11.91    2.65
  -3  -6   6    5.23    1.68
  -3  -6   5   43.77    4.23
   3   6  -5   57.38    5.73
  -3  -6   4   23.05    2.99
   3   6  -4   20.77    3.48
  -3  -6   3   56.33    5.47
  -3  -6   3   66.32    4.91
  -3  -6   2  211.59    8.76
  -3  -6   2  227.42   10.88
  -3  -6   1  295.90   12.45
   3   6  -1  306.79    7.83
  -3  -6   1  319.28   10.79
  -3  -6   0   68.98    6.00
   3   6   0   84.14    4.21
  -3  -6   0   80.87    5.59
  -3  -6  -1   -0.43    0.58
  -3  -6  -1    2.72    1.22
  -3  -6  -2   12.39    2.40
  -3  -6  -2   14.03    2.84
  -3  -6  -3    0.51    0.88
  -3  -6  -3    0.70    0.86
  -3  -6  -4    8.13    2.18
  -3  -6  -4    7.57    2.37
  -3  -6  -5    9.37    2.57
  -3  -6  -5    6.91    1.99
  -3  -6  -6    0.33    0.58
  -3  -6  -6    1.16    1.11
  -3  -6  -7    1.07    0.75
  -3  -6  -8    1.60    1.09
  -3  -6  -9   14.47    3.16
  -3  -6 -10    0.18    0.64
  -3  -6 -11    1.01    0.71
  -3  -6 -12   -0.50    0.99
   3   7 -16    5.82    2.04
   3   7 -15   14.23    2.92
   3   7 -14    2.82    1.40
   3   7 -13    0.38    0.70
   3   7 -12    0.61    0.71
   3   7 -11    6.28    1.93
   3   7 -10    2.28    1.28
   3   7  -9   -0.24    0.51
   3   7  -8   16.10    3.20
  -3  -7   8    8.31    2.11
   3   7  -7    0.84    1.00
  -3  -7   7   -0.14    0.54
   3   7  -6    3.48    1.56
  -3  -7   6    0.74    0.99
   3   7  -5   12.69    2.79
  -3  -7   5    7.54    1.96
  -3  -7   4   -0.07    0.56
   3   7  -4   -1.41    1.18
  -3  -7   3   21.76    3.15
   3   7  -3   17.23    1.72
  -3  -7   3   24.29    3.79
  -3  -7   2   12.90    2.43
   3   7  -2    8.31    1.17
  -3  -7   2   10.12    2.47
  -3  -7   1    5.17    1.62
   3   7  -1    2.90    0.66
  -3  -7   1    5.16    1.78
  -3  -7   0    3.50    1.39
  -3  -7   0    6.95    1.82
  -3  -7  -1   41.40    5.05
  -3  -7  -1   37.66    4.17
  -3  -7  -2    3.53    1.35
  -3  -7  -2    4.45    1.65
  -3  -7  -3   57.92    6.20
  -3  -7  -3   51.64    5.14
  -3  -7  -4   36.08    5.03
  -3  -7  -4   36.57    4.46
  -3  -7  -5   20.40    3.48
  -3  -7  -5   25.95    4.30
  -3  -7  -6    0.70    1.04
  -3  -7  -6    0.31    0.66
  -3  -7  -7   20.55    3.91
  -3  -7  -7   21.47    3.65
  -3  -7  -8    8.13    2.50
  -3  -7  -9   17.14    3.50
  -3  -7 -10   -0.87    1.25
  -3  -7 -11   -2.58    1.52
   3   8 -15    2.65    1.38
   3   8 -14    2.73    1.41
   3   8 -13    5.36    1.98
   3   8 -12   -0.63    0.89
   3   8 -11   17.31    3.30
   3   8 -10   12.28    2.81
   3   8  -9    4.91    1.92
   3   8  -8    0.26    0.79
   3   8  -7    0.06    0.97
  -3  -8   7    0.92    0.92
  -3  -8   6   49.46    5.08
   3   8  -6   55.33    6.05
  -3  -8   5    3.29    1.52
   3   8  -5    5.53    2.03
  -3  -8   4   10.58    2.46
   3   8  -4    7.37    2.22
  -3  -8   3    0.28    0.73
  -3  -8   3   -1.97    1.35
  -3  -8   2   11.59    2.69
  -3  -8   2   10.40    2.34
  -3  -8   1   15.82    3.20
  -3  -8   1   14.57    2.80
  -3  -8   0    0.79    1.11
  -3  -8   0    2.31    1.20
  -3  -8  -1    0.04    0.72
  -3  -8  -1    0.87    0.99
  -3  -8  -2    7.53    2.33
  -3  -8  -2    6.20    1.87
  -3  -8  -3   -0.60    0.78
  -3  -8  -3   -0.46    0.83
  -3  -8  -4    1.92    1.43
  -3  -8  -4    2.18    1.39
  -3  -8  -5    1.92    1.36
  -3  -8  -5   -0.09    0.67
  -3  -8  -6    2.55    1.51
  -3  -8  -6    1.95    1.15
  -3  -8  -7    4.29    1.76
  -3  -8  -7    1.67    1.06
  -3  -8  -8    3.45    1.51
  -3  -8  -8    1.59    0.90
  -3  -8  -9    2.81    1.54
  -3  -8 -10   10.52    2.94
   3   9 -13   -0.71    0.82
   3   9 -12    2.43    1.39
   3   9 -11   -0.88    0.90
   3   9 -10   -2.31    1.29
   3   9  -9    1.52    1.02
   3   9  -8    1.29    1.05
   3   9  -7    1.31    1.04
   3   9  -6    0.45    0.70
   3   9  -5    6.17    2.06
   3   9  -4   -0.69    0.74
  -3  -9   3   -0.17    0.68
  -3  -9   2    0.63    1.23
  -3  -9   2   -1.48    1.34
  -3  -9   1   48.19    5.76
  -3  -9   1   45.55    5.15
  -3  -9   0    2.10    1.37
  -3  -9   0    3.00    1.66
  -3  -9  -1    4.18    2.06
  -3  -9  -1    5.80    1.90
  -3  -9  -2    0.23    0.79
  -3  -9  -2    1.29    1.34
  -3  -9  -3   27.06    4.61
  -3  -9  -3   20.56    3.56
  -3  -9  -4   29.41    4.80
  -3  -9  -4   26.44    4.10
  -3  -9  -5   14.24    3.29
  -3  -9  -5   12.38    2.80
  -3  -9  -6   -0.33    0.83
  -3  -9  -6    0.60    0.87
  -3  -9  -7    1.74    1.41
  -3  -9  -7    1.03    0.78
  -3  -9  -8    1.95    1.44
  -3  -9  -8    4.39    1.83
   3  10 -11    3.73    1.61
   3  10 -10    6.82    2.11
   3  10  -9    3.25    1.67
   3  10  -8    4.88    1.88
   3  10  -7   -0.09    0.56
   3  10  -6   -0.68    0.67
   3  10  -5   15.98    3.39
   3  10  -4    3.59    1.93
   3  10  -3    4.35    1.99
  -3 -10   2    3.24    1.74
  -3 -10   1   -1.01    0.96
  -3 -10   0    0.11    0.89
  -3 -10  -1   -1.26    1.08
  -3 -10  -2    5.92    2.28
  -3 -10  -3    2.00    1.20
  -3 -10  -4   -1.59    1.25
  -3 -10  -5    1.04    1.14
  -3 -10  -6    0.39    0.90
   3  11  -8    0.42    0.81
   3  11  -7    2.14    1.24
   3  11  -6    1.00    0.83
   3  11  -5    2.59    1.52
   3  11  -4    3.32    1.71
   3  11  -3    2.64    1.61
  -3 -11   1    3.39    1.70
  -3 -11   0    3.16    1.75
  -3 -11  -1    0.95    1.04
  -3 -11  -2   -0.53    0.88
   4 -10  -4    5.86    2.68
   4 -10  -3    2.58    1.65
   4 -10  -2    2.28    1.74
   4 -10  -1    1.26    1.40
   4 -10   0    4.81    2.43
   4 -10   1   -1.11    1.36
   4 -10   2    5.49    2.67
  -4  10  -3    0.57    1.20
   4 -10   3   -1.89    2.47
  -4  10  -4   -4.72    2.39
  -4  10  -5    2.41    1.87
  -4  10  -6   -2.28    1.92
   4  -9  -8   -0.31    1.17
   4  -9  -7    0.93    1.81
   4  -9  -6   31.47    5.60
   4  -9  -5    0.64    1.21
   4  -9  -4   11.69    3.38
   4  -9  -3   -0.14    1.03
   4  -9  -2   12.62    3.70
   4  -9  -1   17.55    4.33
   4  -9   0    3.77    2.19
   4  -9   1   -1.37    1.86
  -4   9  -2    1.64    0.99
   4  -9   2    3.43    2.15
  -4   9  -3    9.88    3.21
   4  -9   3    9.15    3.41
  -4   9  -4   -0.23    0.99
   4  -9   4    0.34    1.21
  -4   9  -5    3.24    1.97
   4  -9   5    2.95    2.04
  -4   9  -6    1.56    1.74
   4  -9   6    3.90    2.22
  -4   9  -7    2.76    1.99
  -4   9  -8    4.96    2.14
   4  -8 -11    1.79    1.98
   4  -8 -10   26.08    5.02
   4  -8 -10   18.54    4.26
   4  -8  -9    4.91    2.33
   4  -8  -8    3.66    1.76
   4  -8  -7    1.40    1.49
   4  -8  -6    0.90    1.73
   4  -8  -5   39.69    6.02
   4  -8  -4   -0.01    1.28
   4  -8  -3    3.76    2.14
   4  -8  -2   -1.19    0.80
   4  -8  -1    5.48    2.67
   4  -8   0    2.97    2.01
   4  -8   1    0.60    1.23
  -4   8  -2    4.86    2.09
   4  -8   2    2.61    1.91
  -4   8  -3    1.62    1.66
   4  -8   3    0.09    1.40
  -4   8  -4    0.83    1.25
   4  -8   4    3.01    1.82
  -4   8  -5    0.04    1.03
  -4   8  -6    3.41    2.00
  -4   8  -7    1.08    1.48
  -4   8  -8   16.29    4.51
  -4   8  -9    0.60    1.59
  -4   8 -10   -0.93    1.57
   4  -7 -13    4.64    2.13
   4  -7 -12    1.03    0.91
   4  -7 -11   16.25    4.11
   4  -7 -11   17.46    3.91
   4  -7 -10   -1.05    1.08
   4  -7 -10    0.84    1.03
   4  -7  -9    0.28    0.99
   4  -7  -8    1.94    1.49
   4  -7  -7    1.94    1.17
   4  -7  -6    2.06    1.57
   4  -7  -5   13.69    3.57
   4  -7  -4    7.60    2.69
   4  -7  -3   10.10    3.09
   4  -7  -2   -0.33    1.25
   4  -7  -1    6.17    2.61
   4  -7   0   34.76    2.89
   4  -7   0   40.54    6.03
  -4   7  -1    3.40    1.88
   4  -7   1    3.23    0.88
   4  -7   1    5.88    2.38
  -4   7  -2    5.94    2.26
   4  -7   2    7.63    1.31
   4  -7   2    9.56    3.10
  -4   7  -3    0.92    1.20
   4  -7   3   -2.38    1.68
  -4   7  -4    1.08    1.02
  -4   7  -5   15.04    3.95
  -4   7  -6    0.64    1.53
  -4   7  -7   -0.97    1.36
  -4   7  -8   -0.15    1.76
  -4   7  -9    3.08    2.10
  -4   7 -10   -0.89    1.15
  -4   7 -11    2.32    1.97
   4  -6 -14    0.60    1.26
   4  -6 -13   20.70    4.25
   4  -6 -12    1.15    1.62
   4  -6 -12    5.42    2.34
   4  -6 -11    3.76    2.14
   4  -6 -11    7.05    2.70
   4  -6 -10    1.73    1.73
   4  -6 -10    2.43    1.57
   4  -6  -9   16.15    3.66
   4  -6  -9   18.59    4.30
   4  -6  -8    1.32    1.12
   4  -6  -7    0.23    1.22
   4  -6  -6   54.09    6.58
   4  -6  -5   -1.08    1.46
   4  -6  -4   33.53    5.17
   4  -6  -3   10.60    3.16
   4  -6  -2   27.95    4.74
   4  -6  -1    7.05    2.73
   4  -6   0   34.23    5.41
  -4   6  -1    2.37    1.38
   4  -6   1   -0.09    1.23
   4  -6   1    0.73    0.44
  -4   6  -2    3.56    1.59
   4  -6   2    3.96    1.05
   4  -6   2    3.04    2.06
  -4   6  -3    3.88    1.85
   4  -6   3    8.36    1.52
  -4   6  -4    5.86    2.33
  -4   6  -5   29.04    5.00
  -4   6  -6    2.14    1.87
  -4   6  -7    0.84    1.34
  -4   6  -8    0.79    0.97
  -4   6  -9   13.18    4.06
  -4   6 -10    4.95    2.63
  -4   6 -11    4.43    2.36
  -4   6 -12   12.68    4.06
   4  -5 -14    3.61    1.57
   4  -5 -14    4.96    2.30
   4  -5 -13    2.42    1.28
   4  -5 -13    5.22    2.29
   4  -5 -12    7.38    2.60
   4  -5 -12    6.19    1.68
   4  -5 -12    8.67    2.59
   4  -5 -11    1.15    1.15
   4  -5 -11    1.56    0.82
   4  -5 -11    2.03    1.56
   4  -5 -10    0.48    1.05
   4  -5 -10    0.08    1.18
   4  -5 -10    0.29    0.43
   4  -5  -9    3.19    2.17
   4  -5  -9    2.13    1.60
   4  -5  -9    0.22    0.46
   4  -5  -8  141.96    5.83
   4  -5  -8  163.16   10.95
   4  -5  -8  151.48   11.82
   4  -5  -7    5.07    2.36
   4  -5  -7    3.26    0.86
   4  -5  -6    1.96    1.49
   4  -5  -6    1.64    0.48
   4  -5  -5    2.06    1.88
   4  -5  -5    0.49    0.34
   4  -5  -4   69.76    6.85
   4  -5  -3   38.38    5.20
   4  -5  -2    2.46    1.89
   4  -5  -1   57.70    6.38
   4  -5   0   23.84    4.32
   4  -5   1   50.44    3.80
  -4   5  -1   53.28    5.89
   4  -5   1   51.86    6.09
   4  -5   2    4.83    1.21
  -4   5  -2    4.06    1.78
  -4   5  -3    0.92    0.96
   4  -5   3    4.66    1.17
  -4   5  -4   17.46    3.59
   4  -5   4   24.37    2.62
  -4   5  -5    0.65    0.45
  -4   5  -5    1.88    1.69
  -4   5  -6   18.68    1.95
  -4   5  -6   20.17    4.23
  -4   5  -7    4.88    2.07
  -4   5  -7    1.45    0.58
  -4   5  -8   38.59    6.12
  -4   5  -8   37.76    3.27
  -4   5  -9    1.36    1.02
  -4   5 -10    3.01    2.17
  -4   5 -11   -0.63    1.09
  -4   5 -12    0.24    1.61
  -4   5 -13    0.14    1.54
   4  -4 -17    6.26    2.04
   4  -4 -16    2.56    1.36
   4  -4 -16    3.05    1.55
   4  -4 -15    1.77    1.09
   4  -4 -15    1.51    1.34
   4  -4 -14   49.93    5.34
   4  -4 -14   69.29    7.33
   4  -4 -13    2.97    1.52
   4  -4 -13    0.64    0.81
   4  -4 -13   -0.12    1.20
   4  -4 -12   15.87    3.73
   4  -4 -12   16.82    3.53
   4  -4 -12   15.48    2.83
   4  -4 -11    3.12    1.96
   4  -4 -11    1.34    1.44
   4  -4 -11    2.23    1.18
   4  -4 -10   19.54    3.65
   4  -4 -10   20.64    3.03
   4  -4 -10   18.18    4.20
   4  -4  -9   26.54    3.27
   4  -4  -9   31.13    4.76
   4  -4  -9   26.67    5.14
   4  -4  -8   26.30    4.96
   4  -4  -8   25.22    3.08
   4  -4  -8   26.10    4.30
   4  -4  -7   21.43    3.70
   4  -4  -7   20.29    2.49
   4  -4  -7   18.25    4.02
   4  -4  -6   10.54    2.70
   4  -4  -6   11.73    1.79
   4  -4  -5   31.23    2.58
   4  -4  -5   34.61    4.61
   4  -4  -4    2.28    1.58
   4  -4  -4    1.34    0.33
   4  -4  -4    2.13    0.65
  -4   4   4    1.85    0.51
  -4   4   3    4.56    0.71
   4  -4  -3    2.54    1.22
   4  -4  -3    3.47    0.70
   4  -4  -2    2.00    1.27
   4  -4  -1    1.18    1.11
   4  -4   0    0.73    0.96
  -4   4  -1   24.21    3.91
  -4   4  -2   52.97    5.58
   4  -4   2   56.46    4.16
  -4   4  -3    0.97    1.07
   4  -4   3    0.25    0.38
  -4   4  -3    0.51    0.27
  -4   4  -4   28.99    4.47
   4  -4   4   29.54    2.98
  -4   4  -4   23.40    1.78
   4  -4   5    4.01    1.40
  -4   4  -5    4.00    2.08
  -4   4  -5    0.85    0.53
  -4   4  -6   24.97    4.29
  -4   4  -6   27.62    2.58
  -4   4  -7    1.44    1.03
  -4   4  -7    1.41    0.62
  -4   4  -8    0.40    0.86
  -4   4  -8   -0.38    0.60
  -4   4  -9   47.07    6.56
  -4   4  -9   38.95    3.69
  -4   4 -10    1.39    1.50
  -4   4 -10    0.89    0.69
  -4   4 -11    4.42    2.53
  -4   4 -11    1.47    0.99
  -4   4 -12   -0.88    0.86
  -4   4 -12    0.97    0.76
  -4   4 -13   -0.10    1.06
  -4   4 -13    2.32    1.24
  -4   4 -14   -6.55    2.82
  -4   4 -14    1.00    0.80
  -4   4 -15    1.43    1.00
   4  -3 -17    0.07    0.55
   4  -3 -16    0.88    0.76
   4  -3 -15    6.45    1.99
   4  -3 -14    6.06    1.95
   4  -3 -14    5.90    2.31
   4  -3 -13    1.35    0.89
   4  -3 -13    1.99    1.33
   4  -3 -12    3.38    1.87
   4  -3 -12    1.89    1.40
   4  -3 -12    2.56    1.14
   4  -3 -11    2.79    2.06
   4  -3 -11    2.52    1.61
   4  -3 -11    1.18    0.89
   4  -3 -10   15.48    3.72
   4  -3 -10   14.51    3.13
   4  -3 -10   11.25    2.17
   4  -3  -9   66.08    5.02
   4  -3  -9   70.75    6.66
   4  -3  -9   71.10    7.92
   4  -3  -8    3.09    1.83
   4  -3  -8    4.43    1.89
   4  -3  -8    3.51    1.03
   4  -3  -7   25.76    4.66
   4  -3  -7   24.48    2.85
   4  -3  -7   22.63    3.60
   4  -3  -6    0.47    1.39
   4  -3  -6    1.65    0.78
   4  -3  -6    2.50    1.45
   4  -3  -5   90.23    4.64
   4  -3  -5   80.79    6.50
   4  -3  -4   19.64    1.45
   4  -3  -4   18.50    2.00
  -4   3   4   21.90    1.77
   4  -3  -4   18.23    3.19
   4  -3  -3   22.55    1.43
   4  -3  -3   25.36    2.02
   4  -3  -3   22.10    3.41
  -4   3   3   22.67    1.74
   4  -3  -2   28.85    1.87
   4  -3  -2   27.70    3.74
   4  -3  -2   24.41    1.22
   4  -3  -1    7.05    0.57
   4  -3  -1   10.03    0.93
   4  -3  -1    9.05    2.19
   4  -3   0   33.38    1.34
  -4   3  -1    3.33    1.53
  -4   3  -1    2.08    0.52
  -4   3  -2    0.21    0.30
   4  -3   2    0.18    0.11
   4  -3   2    0.27    0.48
   4  -3   2    0.14    0.15
  -4   3  -3    1.95    1.27
   4  -3   3    1.17    0.70
   4  -3   3    0.96    0.25
  -4   3  -3    0.15    0.24
  -4   3  -4   12.01    2.81
   4  -3   4   12.37    1.96
   4  -3   4   10.08    0.85
  -4   3  -4   10.52    1.39
  -4   3  -5    5.50    2.12
  -4   3  -5    3.95    0.94
   4  -3   5    4.26    0.63
   4  -3   5    7.01    1.59
  -4   3  -6    1.96    1.23
  -4   3  -6    3.48    1.03
  -4   3  -7    7.85    2.35
  -4   3  -7    7.95    1.61
  -4   3  -8   18.28    2.59
  -4   3  -8   18.32    3.83
  -4   3  -9   20.87    2.91
  -4   3  -9   21.17    4.19
  -4   3 -10    5.40    2.33
  -4   3 -10    8.84    2.08
  -4   3 -11   32.89    5.58
  -4   3 -11   31.52    3.80
  -4   3 -12    4.99    2.18
  -4   3 -12    6.12    1.80
  -4   3 -13    0.72    0.79
  -4   3 -13    0.21    0.49
  -4   3 -14    5.04    2.09
  -4   3 -14   10.73    2.55
  -4   3 -15    0.11    1.48
  -4   3 -15    0.57    0.75
  -4   3 -16    2.53    1.29
   4  -2 -17   -1.00    0.94
   4  -2 -16   -0.87    0.55
   4  -2 -15    0.14    0.59
   4  -2 -14    6.26    1.94
   4  -2 -13    1.84    0.97
   4  -2 -13    4.49    2.06
   4  -2 -12    1.26    1.08
   4  -2 -12    2.92    1.67
   4  -2 -11    0.41    0.79
   4  -2 -11   -0.11    0.55
   4  -2 -11    1.21    0.82
   4  -2 -10   14.60    2.51
   4  -2 -10   11.98    3.17
   4  -2 -10   15.28    2.96
   4  -2  -9   33.76    3.65
   4  -2  -9   41.59    4.75
   4  -2  -9   38.59    5.75
   4  -2  -8    0.69    1.14
   4  -2  -8    1.37    1.22
   4  -2  -8    0.87    0.81
   4  -2  -7   13.45    3.36
   4  -2  -7   11.02    1.87
   4  -2  -7   12.61    2.64
   4  -2  -6   -0.19    0.55
   4  -2  -6    0.68    0.80
   4  -2  -6    0.30    0.58
   4  -2  -5   10.50    3.40
   4  -2  -5    8.35    2.01
   4  -2  -5    9.87    1.72
   4  -2  -4  803.99   10.48
   4  -2  -4  813.84   13.06
   4  -2  -4  779.00   17.51
   4  -2  -4  760.40   22.48
   4  -2  -3   -0.16    0.48
   4  -2  -3    1.37    0.77
   4  -2  -2  880.40    9.95
   4  -2  -2  868.55   18.53
   4  -2  -2  903.33   11.74
   4  -2  -1    5.51    0.76
   4  -2  -1    5.01    1.26
   4  -2  -1    5.29    0.75
  -4   2   0   79.83    3.52
   4  -2   0   76.65    2.92
   4  -2   0   70.92    3.18
  -4   2  -1  129.12    8.20
  -4   2  -1  122.39    4.54
   4  -2   1  129.14    3.85
   4  -2   2  135.52    6.81
  -4   2  -2  123.71    4.60
   4  -2   2  141.66    4.19
  -4   2  -2  140.00    8.37
  -4   2  -3   58.01    5.55
  -4   2  -3   55.25    3.26
   4  -2   3   59.61    4.46
  -4   2  -4   17.14    2.06
  -4   2  -4   15.45    2.87
   4  -2   4   16.11    1.26
   4  -2   4   16.75    2.37
  -4   2  -5   51.45    5.66
  -4   2  -5   48.40    3.68
   4  -2   5   46.00    3.97
  -4   2  -6    2.80    1.39
  -4   2  -6    1.78    0.88
  -4   2  -7   32.28    3.47
  -4   2  -7   28.78    4.40
  -4   2  -8   -1.65    1.47
  -4   2  -8    1.21    0.96
  -4   2  -9   10.12    2.76
  -4   2  -9   11.28    2.22
  -4   2 -10   45.43    4.68
  -4   2 -10   42.95    5.73
  -4   2 -11    6.55    2.31
  -4   2 -11    5.79    1.77
  -4   2 -12    5.52    2.28
  -4   2 -12    5.30    1.83
  -4   2 -13   -0.01    1.07
  -4   2 -13    0.18    0.48
  -4   2 -14    1.22    1.50
  -4   2 -14   -1.27    1.34
  -4   2 -15    2.49    1.51
  -4   2 -15    0.86    0.76
  -4   2 -16    1.39    1.24
  -4   2 -16    0.59    0.85
   4  -1 -17    7.57    2.22
   4  -1 -16    3.10    1.63
   4  -1 -15    0.83    0.90
   4  -1 -14   -0.45    0.72
   4  -1 -13   19.85    3.20
   4  -1 -12    1.59    1.00
   4  -1 -11   14.43    2.60
   4  -1 -11   16.43    3.49
   4  -1 -10   22.64    3.13
   4  -1 -10   29.11    4.88
   4  -1  -9   30.92    3.53
   4  -1  -9   29.14    3.57
   4  -1  -9   28.11    4.72
   4  -1  -8  128.47    6.79
   4  -1  -8  128.46    7.22
   4  -1  -8  129.84   10.21
   4  -1  -7    4.93    2.18
   4  -1  -7    3.26    1.27
   4  -1  -7    5.72    1.44
   4  -1  -6    2.07    1.17
   4  -1  -6    0.40    0.76
   4  -1  -6    0.24    0.53
  -4   1   5  199.68    6.97
   4  -1  -5  182.29    6.93
   4  -1  -5  199.76    8.06
   4  -1  -5  197.74   11.61
   4  -1  -4 1315.18   18.22
   4  -1  -4 1320.07   19.78
   4  -1  -4 1282.11   29.01
   4  -1  -3  849.58   11.47
   4  -1  -3  816.57   14.88
   4  -1  -3  834.33   13.84
   4  -1  -3  839.57   23.07
   4  -1  -2  344.17    7.19
   4  -1  -2  351.92    9.97
   4  -1  -2  346.65    8.60
   4  -1  -2  361.29   14.59
   4  -1  -1    5.48    1.82
   4  -1  -1    6.67    1.15
  -4   1   1    5.70    1.09
   4  -1  -1    6.19    0.95
  -4   1   0    0.10    0.28
   4  -1   0    0.46    0.32
  -4   1  -1   10.21    1.52
   4  -1   1   11.10    1.28
  -4   1  -2    0.38    1.04
  -4   1  -2    0.59    0.58
   4  -1   2    0.05    0.45
  -4   1  -3   38.95    3.08
   4  -1   3   44.26    3.97
  -4   1  -3   44.26    4.56
   4  -1   4    9.91    1.88
  -4   1  -4   12.14    1.94
  -4   1  -4    9.87    2.25
  -4   1  -5    0.71    0.93
  -4   1  -5    1.45    0.95
   4  -1   5    1.40    0.95
  -4   1  -6   28.39    4.10
  -4   1  -6   30.28    3.41
  -4   1  -7    1.43    0.93
  -4   1  -7    0.94    0.47
  -4   1  -8    7.05    2.12
  -4   1  -8    8.99    2.05
  -4   1  -9    2.97    1.54
  -4   1  -9    3.04    1.18
  -4   1 -10    3.51    1.47
  -4   1 -10    1.37    0.54
  -4   1 -11   -1.11    1.35
  -4   1 -11   -1.12    1.06
  -4   1 -12    2.15    1.34
  -4   1 -12   -0.27    0.67
  -4   1 -13    0.29    0.94
  -4   1 -13    0.81    0.99
  -4   1 -14   -1.07    0.88
  -4   1 -14   -2.27    1.34
  -4   1 -15    3.89    1.58
  -4   1 -15    4.70    1.80
  -4   1 -16   -1.01    1.08
  -4   1 -16    0.79    1.20
   4   0 -17    8.90    2.42
   4   0 -16   27.07    4.04
   4   0 -15    0.65    0.90
   4   0 -14    1.39    1.08
   4   0 -13    5.20    1.73
   4   0 -12    1.38    1.11
   4   0 -11    2.60    1.10
   4   0 -10   11.33    2.26
   4   0  -9    7.75    1.81
   4   0  -9    6.24    2.30
   4   0  -8    0.99    1.18
   4   0  -8    0.41    0.49
  -4   0   7    7.01    1.34
   4   0  -7    6.08    2.17
   4   0  -7    7.18    1.59
  -4   0   6   11.26    1.53
   4   0  -6   13.04    2.10
   4   0  -6   12.43    3.06
   4   0  -6   11.19    1.49
   4   0  -5    3.73    0.84
   4   0  -5    2.55    1.39
  -4   0   5    3.05    0.80
   4   0  -5    3.65    1.16
   4   0  -4   90.44    5.07
   4   0  -4  103.10    4.24
   4   0  -4   98.20    7.75
   4   0  -3   55.61    3.99
   4   0  -3   56.59    3.02
   4   0  -3   54.19    5.68
   4   0  -2    2.21    0.77
   4   0  -2    1.25    1.07
  -4   0   2    1.99    0.73
   4   0  -2    2.04    0.63
  -4   0   1  141.71    6.30
   4   0  -1  138.03    8.57
   4   0   0   -0.20    0.76
  -4   0   0    0.04    0.58
  -4   0  -1  203.14    7.35
   4   0   1  227.80   10.46
   4   0   2  311.04   10.49
  -4   0  -2  318.56   11.48
  -4   0  -2  291.40    9.06
   4   0   2  318.01   12.24
  -4   0  -3  102.13    6.58
  -4   0  -3   91.59    5.26
   4   0   3   99.21    5.96
   4   0   3   90.73    6.41
   4   0   4    4.81    1.37
  -4   0  -4    4.15    1.36
  -4   0  -4    4.56    1.36
   4   0   4    4.23    1.39
  -4   0  -5   35.88    4.27
  -4   0  -5   35.21    3.74
   4   0   5   32.26    3.39
  -4   0  -6   42.93    4.75
  -4   0  -6   40.53    4.12
  -4   0  -7    0.30    0.87
  -4   0  -7    0.43    0.82
  -4   0  -8    2.47    1.43
  -4   0  -8    2.20    0.85
  -4   0  -9    5.73    1.94
  -4   0  -9    6.53    1.79
  -4   0 -10    3.63    1.62
  -4   0 -10    3.06    1.22
  -4   0 -11    1.54    1.34
  -4   0 -11   -0.08    0.59
  -4   0 -12    3.31    1.60
  -4   0 -12   -0.42    1.05
  -4   0 -13    1.07    1.01
  -4   0 -13    1.57    1.32
  -4   0 -14   -0.74    0.89
  -4   0 -14    0.47    0.88
  -4   0 -15    1.80    1.39
  -4   0 -15   -0.30    0.83
   4   1 -17   12.72    2.84
   4   1 -16    1.88    1.24
   4   1 -15    3.76    1.62
   4   1 -14    1.82    1.12
   4   1 -13    0.59    0.96
   4   1 -12   19.27    3.16
   4   1 -11   20.30    3.17
   4   1 -10   -0.09    0.61
   4   1  -9   16.14    2.54
   4   1  -8   21.15    2.90
  -4  -1   8   20.08    2.33
   4   1  -7   60.02    4.78
  -4  -1   7   62.00    3.59
   4   1  -6    0.12    0.44
  -4  -1   6    0.44    0.37
   4   1  -6    1.06    0.74
   4   1  -5   12.01    2.08
   4   1  -5   12.43    2.77
   4   1  -4    9.22    1.81
   4   1  -4   10.26    2.60
  -4  -1   3   34.36    3.36
   4   1  -3   30.61    3.31
   4   1  -3   34.62    4.50
   4   1  -2    9.47    1.87
  -4  -1   2    9.20    1.76
   4   1  -2   10.20    2.30
  -4  -1   1   15.19    2.25
   4   1  -1   13.66    2.65
  -4  -1   0   82.22    5.15
   4   1   0   92.42    6.56
  -4  -1  -1    4.70    1.21
   4   1   1    6.96    1.74
  -4  -1  -2  114.07    6.24
   4   1   2  120.86    6.57
   4   1   2  130.45    7.31
  -4  -1  -3    3.15    1.28
  -4  -1  -3    3.34    1.06
   4   1   3    1.44    0.84
   4   1   3    3.07    1.18
  -4  -1  -4   18.24    2.63
  -4  -1  -4   16.89    2.57
   4   1   4   19.95    2.68
   4   1   4   19.29    2.62
   4   1   5    2.54    1.15
  -4  -1  -5    2.10    1.00
  -4  -1  -5    2.12    1.07
   4   1   5    2.28    0.95
  -4  -1  -6   44.94    4.67
  -4  -1  -6   45.04    4.69
   4   1   6   41.88    3.24
  -4  -1  -7  169.33    8.96
  -4  -1  -7  156.17    8.76
   4   1   7  147.59    5.37
  -4  -1  -8  139.77    8.36
  -4  -1  -8  132.66    8.20
  -4  -1  -9   -0.43    1.27
  -4  -1  -9    0.87    0.69
  -4  -1 -10    0.33    0.93
  -4  -1 -10    0.92    0.98
  -4  -1 -11   28.88    4.05
  -4  -1 -11   29.36    4.33
  -4  -1 -12    3.41    1.30
  -4  -1 -12    6.34    2.17
  -4  -1 -13    0.51    0.77
  -4  -1 -13   -0.35    1.24
  -4  -1 -14    1.07    0.63
  -4  -1 -15    2.18    1.13
   4   2 -17    0.63    0.98
   4   2 -16   18.57    3.35
   4   2 -15   -0.33    0.90
   4   2 -14   11.86    2.61
   4   2 -13   15.11    2.98
   4   2 -12   16.95    2.98
   4   2 -11    0.90    0.76
   4   2 -10    0.71    0.83
   4   2  -9    0.68    0.70
   4   2  -8    6.60    1.77
  -4  -2   8    8.83    1.42
   4   2  -7   23.42    3.17
  -4  -2   7   22.74    2.04
  -4  -2   6   65.45    2.57
   4   2  -6   96.88    6.28
   4   2  -5   -0.49    0.51
   4   2  -4   75.66    5.56
   4   2  -3    9.53    2.17
  -4  -2   3    8.14    1.87
  -4  -2   2  294.47   10.85
  -4  -2   1    1.05    0.72
  -4  -2   0  139.91    7.20
   4   2   0  128.16    4.12
   4   2   1  214.87    8.66
  -4  -2  -1  204.97    8.82
   4   2   1  184.05    5.59
  -4  -2  -2  384.74   12.39
   4   2   2  404.29   11.89
  -4  -2  -3   36.34    4.00
   4   2   3   35.95    3.54
  -4  -2  -4    0.88    0.78
   4   2   4    0.60    0.78
  -4  -2  -5   15.89    2.21
  -4  -2  -5   16.07    2.80
   4   2   5   18.21    2.58
  -4  -2  -6   21.49    2.68
  -4  -2  -6   22.47    3.50
  -4  -2  -7   11.73    2.24
  -4  -2  -7   11.89    2.71
  -4  -2  -8    2.60    0.75
  -4  -2  -8    5.32    1.94
  -4  -2  -9    5.01    1.46
  -4  -2  -9    8.49    2.34
  -4  -2 -10   10.51    2.23
  -4  -2 -10   11.58    2.72
  -4  -2 -11    2.41    1.35
  -4  -2 -12   15.56    3.32
  -4  -2 -13    6.23    2.05
  -4  -2 -14   -1.92    1.41
   4   3 -17    5.24    1.97
   4   3 -16    1.92    1.37
   4   3 -15    1.15    0.76
   4   3 -14    4.47    1.58
   4   3 -13    7.92    2.26
   4   3 -12   28.44    3.91
   4   3 -11   47.75    4.86
   4   3 -10    2.81    1.37
   4   3  -9   -0.46    0.99
  -4  -3   8    2.98    0.76
   4   3  -8    3.78    1.32
  -4  -3   7    8.77    1.14
   4   3  -7    6.73    1.82
   4   3  -6  142.75    8.12
  -4  -3   6  117.89    3.43
   4   3  -5    3.81    1.41
   4   3  -4   76.62    6.10
  -4  -3   3    5.32    1.57
  -4  -3   2   75.74    5.89
  -4  -3   1   53.50    5.01
   4   3   0   25.52    2.15
  -4  -3   0   27.76    3.55
   4   3   0   25.77    2.08
   4   3   1    0.07    0.38
  -4  -3  -1   -0.04    0.74
   4   3   1   -0.24    0.39
   4   3   1    0.03    0.40
  -4  -3  -2    0.86    0.62
   4   3   2    1.75    0.90
   4   3   2    0.39    0.33
  -4  -3  -3  147.08    8.59
   4   3   3  138.10    4.07
   4   3   3  144.14    6.98
  -4  -3  -4   35.10    4.29
   4   3   4   38.47    3.71
  -4  -3  -5    6.92    1.87
  -4  -3  -6   20.69    2.32
  -4  -3  -6   25.00    3.76
  -4  -3  -7   89.19    4.83
  -4  -3  -7   95.78    7.45
  -4  -3  -8   24.87    4.03
  -4  -3  -9    3.32    1.52
  -4  -3 -10   27.47    4.26
  -4  -3 -11    0.34    0.75
  -4  -3 -12    1.48    1.07
  -4  -3 -13    3.56    1.67
  -4  -3 -14    2.40    1.91
   4   4 -17    0.21    0.82
   4   4 -16    0.63    0.93
   4   4 -15   -0.27    0.81
   4   4 -14    0.61    0.73
   4   4 -13    9.73    2.41
   4   4 -12    1.76    1.21
   4   4 -11   18.03    3.16
   4   4 -10    1.59    1.22
   4   4  -9    7.21    1.93
   4   4  -8   21.83    3.49
   4   4  -7   31.56    4.09
  -4  -4   6   38.14    2.48
   4   4  -6   63.21    5.84
   4   4  -5    7.08    2.04
  -4  -4   5    6.95    0.85
  -4  -4   4   33.20    4.24
  -4  -4   4   34.47    1.72
   4   4  -4   32.49    4.26
  -4  -4   3  122.78    7.96
  -4  -4   3  136.83    3.72
  -4  -4   2    3.85    1.74
  -4  -4   1   48.33    4.93
  -4  -4   0    7.28    2.03
   4   4   0    9.56    1.23
   4   4   0    8.79    1.70
   4   4   0    4.85    1.02
   4   4   1   16.35    1.48
  -4  -4  -1   16.89    2.91
   4   4   1   19.43    2.50
   4   4   1   15.46    2.02
  -4  -4  -2   17.58    3.03
   4   4   2   12.54    1.11
   4   4   2   16.89    2.33
  -4  -4  -3    1.09    0.76
   4   4   3    1.35    0.85
  -4  -4  -4    4.55    1.75
  -4  -4  -5   27.35    4.10
  -4  -4  -6   46.99    5.33
  -4  -4  -7    0.29    0.96
  -4  -4  -8    8.24    2.29
  -4  -4  -9    1.03    1.07
  -4  -4 -10    0.45    0.84
  -4  -4 -11    4.34    1.97
  -4  -4 -12   26.33    4.49
  -4  -4 -13   23.35    4.31
   4   5 -16    5.04    1.81
   4   5 -15    0.03    0.60
   4   5 -14    7.09    2.14
   4   5 -13    3.41    1.54
   4   5 -12   11.17    2.57
   4   5 -11    0.76    0.68
   4   5 -10    7.70    2.14
   4   5  -9    0.37    0.82
   4   5  -8    1.94    1.13
   4   5  -7    0.79    0.89
  -4  -5   7   -0.90    0.65
   4   5  -6    8.73    2.36
  -4  -5   6    4.96    1.11
  -4  -5   5    9.85    1.42
   4   5  -5    8.72    2.53
   4   5  -4   14.07    3.04
  -4  -5   4   13.46    2.75
  -4  -5   4   13.82    1.55
  -4  -5   3    8.56    2.13
  -4  -5   3   12.06    1.51
  -4  -5   2   92.29    7.16
  -4  -5   2   95.49    4.48
   4   5  -1   88.24    5.09
  -4  -5   1   86.50    6.94
  -4  -5   0   27.35    3.88
   4   5   0   32.36    3.13
  -4  -5   0   36.81    3.25
  -4  -5  -1    0.35    0.91
  -4  -5  -1    1.89    0.94
   4   5   1    0.24    0.45
  -4  -5  -2  142.55    9.19
   4   5   2  147.03    6.72
  -4  -5  -3    1.74    1.41
  -4  -5  -4  130.76    9.09
  -4  -5  -5   27.29    4.23
  -4  -5  -6    3.20    1.53
  -4  -5  -7    3.58    1.68
  -4  -5  -8   14.51    3.17
  -4  -5  -9    2.80    1.38
  -4  -5 -10    3.02    1.38
  -4  -5 -11   34.23    5.04
  -4  -5 -12   -0.89    1.21
   4   6 -15    3.51    1.63
   4   6 -14    0.25    0.51
   4   6 -13    3.57    1.56
   4   6 -12    1.29    1.20
   4   6 -11   17.16    3.30
   4   6 -10    3.29    1.66
   4   6  -9    1.73    1.18
   4   6  -8   12.67    2.95
   4   6  -7   33.21    4.66
   4   6  -6   12.12    2.94
  -4  -6   5   70.50    4.27
   4   6  -5   77.13    7.08
   4   6  -4   10.52    2.81
  -4  -6   4    5.32    1.23
  -4  -6   4    5.98    1.87
  -4  -6   3    1.03    0.65
  -4  -6   3   -0.29    1.33
  -4  -6   2  104.46    7.90
  -4  -6   2   95.35    4.92
  -4  -6   1   56.55    6.08
   4   6  -1   57.33    3.91
  -4  -6   1   59.40    4.14
  -4  -6   0   73.68    6.65
   4   6   0   77.18    4.54
  -4  -6   0   81.08    5.11
  -4  -6  -1    1.72    1.41
   4   6   1    1.31    0.85
  -4  -6  -1    3.21    1.21
  -4  -6  -2    2.78    1.39
  -4  -6  -2    1.68    1.00
  -4  -6  -3    3.94    1.64
  -4  -6  -3   -0.07    0.63
  -4  -6  -4    3.17    1.56
  -4  -6  -5    2.58    1.62
  -4  -6  -6   -0.78    0.86
  -4  -6  -7   14.34    3.30
  -4  -6  -8    2.48    1.55
  -4  -6  -9    8.89    2.54
  -4  -6 -10   -2.12    1.58
  -4  -6 -11   -0.64    0.99
   4   7 -14    0.18    0.79
   4   7 -13    5.83    2.00
   4   7 -12   -0.06    0.62
   4   7 -11   -0.08    0.69
   4   7 -10    1.75    1.22
   4   7  -9    0.92    0.97
   4   7  -8    6.45    2.30
   4   7  -7    0.42    0.92
   4   7  -6    3.70    1.76
   4   7  -5    0.39    0.63
   4   7  -4    0.23    0.74
  -4  -7   3   11.76    2.78
   4   7  -2   -0.29    0.52
  -4  -7   2    0.19    0.63
  -4  -7   1    0.40    0.66
  -4  -7   1    0.81    0.82
   4   7  -1    0.28    0.39
  -4  -7   0    5.65    2.10
  -4  -7   0    5.76    1.53
   4   7   0    7.31    1.40
  -4  -7  -1   14.15    3.15
  -4  -7  -1   13.01    2.27
  -4  -7  -2   14.48    3.28
  -4  -7  -2    9.26    2.04
  -4  -7  -3   29.57    4.74
  -4  -7  -3   19.55    3.05
  -4  -7  -4    4.75    1.85
  -4  -7  -4    7.25    1.91
  -4  -7  -5    0.97    0.93
  -4  -7  -6    0.27    0.71
  -4  -7  -7   11.84    3.03
  -4  -7  -8    1.91    1.24
  -4  -7  -9    0.91    1.17
   4   8 -13    1.23    1.13
   4   8 -12   12.30    2.92
   4   8 -11    2.07    1.34
   4   8 -10   13.39    3.10
   4   8  -9    0.37    0.62
   4   8  -8    0.15    0.61
   4   8  -7    0.81    0.95
   4   8  -6    8.26    2.56
   4   8  -5    2.60    1.39
   4   8  -4    5.09    1.97
  -4  -8   3    0.14    0.54
  -4  -8   2    0.14    0.61
  -4  -8   1   -0.95    0.78
  -4  -8   0    0.23    0.59
  -4  -8  -1    2.02    1.46
  -4  -8  -2   -1.21    1.39
  -4  -8  -3    0.94    1.09
  -4  -8  -4   26.97    4.71
  -4  -8  -5    3.50    1.62
  -4  -8  -6    1.08    1.18
  -4  -8  -7    2.39    1.40
  -4  -8  -8   25.71    4.60
   4   9 -11   -0.86    0.73
   4   9 -10   -1.27    1.31
   4   9  -9   -1.26    1.06
   4   9  -8    1.63    1.44
   4   9  -7   11.89    3.04
   4   9  -6    9.65    2.59
   4   9  -5   18.81    3.85
   4   9  -4    0.83    0.91
  -4  -9   3    0.95    0.89
  -4  -9   2   -2.10    1.53
  -4  -9   1    7.65    2.47
  -4  -9   0    5.54    2.14
  -4  -9  -1    1.11    1.24
  -4  -9  -2    9.40    2.99
  -4  -9  -3   -0.07    0.69
  -4  -9  -4    8.03    2.55
  -4  -9  -5   -2.90    1.64
   4  10  -9    3.81    1.71
   4  10  -8    4.37    1.90
   4  10  -7    0.41    0.81
   4  10  -6   -1.35    1.14
   4  10  -5    2.72    1.48
   4  10  -4   -0.42    0.75
   4  10  -3    1.57    1.49
  -4 -10   2    6.60    2.20
  -4 -10   1   -0.98    1.06
  -4 -10   0    8.91    2.77
  -4 -10  -1   -1.54    1.27
  -4 -10  -2    0.88    1.18
   5  -9 -10    2.06    1.45
   5  -9  -7    3.23    1.99
   5  -9  -6    0.96    1.73
   5  -9  -5   52.12    7.26
   5  -9  -4    1.47    1.75
   5  -9  -3    2.39    1.90
   5  -9  -2    3.96    2.03
   5  -9  -1   23.52    5.00
   5  -9   0   -0.07    1.52
   5  -9   1   16.48    4.35
   5  -9   2    1.72    1.57
  -5   9  -3    6.22    2.75
   5  -9   3   -0.18    1.68
  -5   9  -4   11.71    3.65
   5  -9   4    9.41    3.57
  -5   9  -5   -0.20    1.19
   5  -9   5    4.55    3.40
  -5   9  -6    0.36    1.36
   5  -8 -11   -0.30    1.23
   5  -8 -10    1.37    1.52
   5  -8 -10    1.98    1.78
   5  -8  -9    0.57    1.48
   5  -8  -8    1.62    1.40
   5  -8  -7    9.68    2.95
   5  -8  -6   10.13    3.16
   5  -8  -5   22.55    4.63
   5  -8  -4   -0.05    1.31
   5  -8  -3    0.17    0.86
   5  -8  -2    2.30    1.82
   5  -8  -1    0.43    1.19
   5  -8   0    2.55    2.57
   5  -8   1   -2.10    1.70
   5  -8   2    3.39    1.78
  -5   8  -3    2.54    1.65
   5  -8   3    2.57    2.56
  -5   8  -4   12.38    3.72
   5  -8   4   21.55    5.10
  -5   8  -5    2.35    1.77
  -5   8  -6    2.38    1.68
  -5   8  -7    1.87    1.65
  -5   8  -8    1.94    1.82
   5  -7 -12    0.74    0.86
   5  -7 -12    2.64    1.56
   5  -7 -11    6.18    2.70
   5  -7 -11    2.34    1.39
   5  -7 -10    0.95    1.30
   5  -7 -10    0.39    1.50
   5  -7  -9    1.94    1.20
   5  -7  -9    4.69    2.50
   5  -7  -8    1.66    1.69
   5  -7  -7   -0.51    1.10
   5  -7  -6    2.80    1.71
   5  -7  -5    5.70    2.30
   5  -7  -4    1.82    1.68
   5  -7  -3    0.85    1.04
   5  -7  -2    2.35    1.75
   5  -7  -1    8.08    2.86
   5  -7   0   32.47    3.19
   5  -7   0   39.18    6.18
   5  -7   1   -1.24    0.87
   5  -7   1   -0.71    1.04
  -5   7  -2    0.39    1.22
   5  -7   2    0.27    1.59
   5  -7   2    0.59    0.52
   5  -7   3    1.42    1.33
  -5   7  -3    0.46    1.58
  -5   7  -4    6.00    2.66
  -5   7  -5    5.63    2.19
  -5   7  -6    4.13    2.32
  -5   7  -7    6.30    2.43
  -5   7  -8   -2.16    1.75
  -5   7  -9   -1.22    1.65
   5  -6 -14    2.86    1.71
   5  -6 -13   -2.96    1.82
   5  -6 -13    0.99    0.96
   5  -6 -12   -3.48    2.00
   5  -6 -12   -0.37    0.91
   5  -6 -11    2.28    1.89
   5  -6 -11    1.86    1.09
   5  -6 -10    7.42    3.16
   5  -6 -10   11.80    3.15
   5  -6  -9    2.66    1.97
   5  -6  -9    0.68    1.57
   5  -6  -8    2.81    1.71
   5  -6  -8    0.89    0.90
   5  -6  -7    0.98    1.33
   5  -6  -6    2.11    1.50
   5  -6  -5    3.67    1.90
   5  -6  -4    6.44    2.25
   5  -6  -3    0.19    0.97
   5  -6  -2    3.14    2.59
   5  -6  -1   58.23    7.12
   5  -6   0    5.85    1.51
   5  -6   0   13.28    3.69
   5  -6   1   26.36    2.95
   5  -6   1   25.16    4.98
  -5   6  -2    0.46    0.83
   5  -6   2    0.88    0.55
   5  -6   2    0.73    1.45
   5  -6   3    2.13    0.89
  -5   6  -3    1.71    1.20
  -5   6  -4   16.31    3.84
   5  -6   4   17.53    2.41
  -5   6  -5  103.20    9.53
  -5   6  -6   11.78    3.42
  -5   6  -7   31.66    5.59
  -5   6  -8   -0.69    1.08
  -5   6  -9    0.70    1.32
  -5   6 -10    4.73    2.97
  -5   6 -11    1.48    1.25
   5  -5 -15   11.32    2.95
   5  -5 -14    0.59    0.93
   5  -5 -14   -0.42    0.92
   5  -5 -13    1.12    0.78
   5  -5 -13    3.47    1.86
   5  -5 -13    3.84    1.55
   5  -5 -12    1.98    1.57
   5  -5 -12   -0.16    0.84
   5  -5 -12   -0.01    0.58
   5  -5 -11   -0.77    1.64
   5  -5 -11   -0.85    1.00
   5  -5 -11    1.33    0.96
   5  -5 -10   13.38    3.78
   5  -5 -10   14.70    3.45
   5  -5 -10   13.07    2.34
   5  -5  -9    0.15    1.54
   5  -5  -9    0.23    0.96
   5  -5  -9    0.20    0.44
   5  -5  -8    6.21    2.59
   5  -5  -8    7.00    2.44
   5  -5  -8    7.26    1.59
   5  -5  -7    0.21    1.13
   5  -5  -7    2.64    0.83
   5  -5  -7    1.31    0.82
   5  -5  -6    0.76    0.96
   5  -5  -6    0.66    0.51
   5  -5  -5   37.22    5.11
   5  -5  -4    3.35    1.64
   5  -5  -3   -0.62    1.59
   5  -5  -2   19.36    4.03
   5  -5  -1   88.41    8.39
   5  -5   0   31.25    5.07
   5  -5   1    8.45    1.75
   5  -5   1    5.63    2.19
   5  -5   2    1.21    0.61
  -5   5  -2    0.98    1.09
  -5   5  -3    2.01    1.74
   5  -5   3    1.86    0.86
  -5   5  -4    0.72    0.96
   5  -5   4    3.50    1.21
  -5   5  -5   -0.10    1.28
   5  -5   5    1.77    1.00
  -5   5  -6    1.74    1.72
  -5   5  -7    6.93    2.77
  -5   5  -8    0.73    1.00
  -5   5  -9    2.82    1.76
  -5   5 -10    1.44    1.45
  -5   5 -11    1.95    1.81
  -5   5 -12   -0.50    1.18
   5  -4 -16    3.30    1.57
   5  -4 -15   -0.96    0.97
   5  -4 -15    1.45    1.33
   5  -4 -14    6.01    1.73
   5  -4 -14    7.01    2.68
   5  -4 -14    7.25    2.63
   5  -4 -13    2.50    1.41
   5  -4 -13    0.82    0.77
   5  -4 -12    2.21    1.45
   5  -4 -12    0.69    0.70
   5  -4 -12    2.26    1.17
   5  -4 -11    1.32    0.93
   5  -4 -11    0.83    0.84
   5  -4 -11    1.29    1.01
   5  -4 -10   -1.02    1.67
   5  -4 -10    0.14    0.70
   5  -4 -10   -0.13    0.73
   5  -4  -9    2.84    1.70
   5  -4  -9    2.42    1.36
   5  -4  -9    1.72    0.81
   5  -4  -8    0.45    1.07
   5  -4  -8    2.08    1.42
   5  -4  -8    1.37    0.97
   5  -4  -7    2.28    1.59
   5  -4  -7    4.12    1.56
   5  -4  -7    3.22    0.99
   5  -4  -6   -0.73    0.68
   5  -4  -6    0.42    0.30
   5  -4  -6   -0.19    1.11
   5  -4  -5   19.58    2.02
   5  -4  -5   25.41    3.89
   5  -4  -4    2.52    1.32
   5  -4  -4    0.99    0.43
   5  -4  -3   12.36    2.71
   5  -4  -3   10.70    1.17
   5  -4  -2    2.76    0.49
   5  -4  -2    2.91    1.19
   5  -4  -1   13.33    3.26
   5  -4   0   73.84    6.95
   5  -4   1   18.82    2.81
  -5   4  -2   38.66    5.43
   5  -4   2   37.75    3.70
  -5   4  -3    4.40    1.73
   5  -4   3    3.60    1.21
  -5   4  -4   53.02    6.37
   5  -4   4   57.12    4.53
  -5   4  -5   21.62    4.14
   5  -4   5   20.97    2.78
  -5   4  -6   23.45    4.38
  -5   4  -7   -0.09    0.91
  -5   4  -8   18.28    4.36
  -5   4  -9    1.61    1.71
  -5   4 -10    3.77    1.96
  -5   4 -11    2.13    1.94
  -5   4 -12   -1.00    2.55
  -5   4 -13   -0.98    1.43
   5  -3 -16    3.31    1.41
   5  -3 -15    0.00    0.87
   5  -3 -15    5.98    2.34
   5  -3 -14   12.06    2.59
   5  -3 -14   17.84    4.08
   5  -3 -13    4.60    1.60
   5  -3 -13    4.96    2.46
   5  -3 -12   -0.98    1.46
   5  -3 -12   -0.26    0.85
   5  -3 -12    0.81    0.84
   5  -3 -11    2.31    1.63
   5  -3 -11    1.53    1.05
   5  -3 -11    1.85    0.89
   5  -3 -10    0.64    0.98
   5  -3 -10    0.23    1.00
   5  -3 -10    1.10    0.77
   5  -3  -9   27.43    3.30
   5  -3  -9   30.13    4.30
   5  -3  -9   30.39    5.40
   5  -3  -8    1.86    1.30
   5  -3  -8    1.53    1.11
   5  -3  -8    0.15    0.52
   5  -3  -7    7.71    2.97
   5  -3  -7   11.66    2.61
   5  -3  -7    9.88    1.79
   5  -3  -6    8.88    3.19
   5  -3  -6    6.34    1.83
   5  -3  -6    7.79    1.52
   5  -3  -5    3.91    2.05
   5  -3  -5    3.26    1.46
   5  -3  -5    4.72    1.11
   5  -3  -4    3.14    1.44
   5  -3  -4    2.63    0.53
   5  -3  -4    1.64    0.67
   5  -3  -3    0.37    0.80
   5  -3  -3    1.05    0.36
   5  -3  -3    1.24    0.52
   5  -3  -2    0.66    0.34
   5  -3  -2    0.53    0.37
   5  -3  -2    0.37    0.83
   5  -3  -1    0.99    0.30
   5  -3  -1    1.28    0.42
   5  -3  -1    1.04    0.64
   5  -3   0    3.56    0.57
   5  -3   0    4.74    0.67
  -5   3  -1    1.70    0.58
   5  -3   1    1.66    0.36
  -5   3  -2    1.47    0.53
   5  -3   2    0.33    0.62
   5  -3   2    1.01    0.29
   5  -3   3    6.06    1.47
  -5   3  -3    5.89    1.07
  -5   3  -3    7.14    2.26
  -5   3  -4    4.89    1.84
  -5   3  -4    3.76    0.85
   5  -3   4    3.80    1.38
  -5   3  -5    1.02    1.27
  -5   3  -5    0.49    0.53
   5  -3   6   10.75    2.04
  -5   3  -6   12.64    3.32
  -5   3  -6   10.85    1.84
  -5   3  -7   31.76    5.36
  -5   3  -7   24.51    2.86
  -5   3  -8    2.38    1.69
  -5   3  -8    3.49    1.17
  -5   3  -9    9.45    3.03
  -5   3  -9    6.14    1.70
  -5   3 -10   20.87    3.14
  -5   3 -10   19.87    4.60
  -5   3 -11   27.86    3.79
  -5   3 -11   25.62    5.10
  -5   3 -12   -0.55    1.99
  -5   3 -12   -0.46    0.68
  -5   3 -13    0.62    1.19
  -5   3 -13    0.66    1.04
  -5   3 -14    1.67    1.51
   5  -2 -17    1.08    0.95
   5  -2 -16    1.49    1.05
   5  -2 -15    0.09    0.72
   5  -2 -14    3.00    1.36
   5  -2 -13   15.90    2.96
   5  -2 -13   15.79    3.82
   5  -2 -12    1.19    0.93
   5  -2 -12    0.64    1.10
   5  -2 -11    4.86    2.32
   5  -2 -11    2.72    1.35
   5  -2 -11    4.05    1.38
   5  -2 -10    7.27    2.74
   5  -2 -10    5.86    1.82
   5  -2 -10    8.93    2.09
   5  -2  -9   19.16    4.24
   5  -2  -9   19.22    2.84
   5  -2  -9   17.76    3.16
   5  -2  -8   10.44    3.07
   5  -2  -8    7.98    2.14
   5  -2  -8    5.98    1.54
   5  -2  -7   -1.19    1.82
   5  -2  -7    2.54    1.38
   5  -2  -7    2.34    1.03
   5  -2  -6   -0.07    0.97
   5  -2  -6    1.75    1.01
   5  -2  -6    0.65    0.34
   5  -2  -5    1.90    1.63
   5  -2  -5    0.84    0.81
   5  -2  -5    2.29    0.93
   5  -2  -4   26.18    2.53
   5  -2  -4   24.48    3.20
   5  -2  -4   24.18    4.32
   5  -2  -3   19.50    3.86
   5  -2  -3   22.17    1.77
   5  -2  -3   24.36    2.28
   5  -2  -3   23.01    3.10
   5  -2  -2    1.73    0.38
   5  -2  -2    1.50    0.78
   5  -2  -2    2.55    0.72
   5  -2  -2    2.83    1.34
   5  -2  -1   57.41    2.70
   5  -2  -1   68.35    5.58
   5  -2  -1   66.72    3.57
  -5   2   0   61.15    3.60
   5  -2   0   59.94    2.87
   5  -2   0   57.55    3.30
  -5   2  -1   96.29    4.58
   5  -2   1   95.47    4.34
  -5   2  -2    0.03    0.69
  -5   2  -2    0.20    0.50
   5  -2   2    0.24    0.70
  -5   2  -3   40.10    5.09
  -5   2  -3   28.92    2.63
   5  -2   3   35.70    3.86
  -5   2  -4    0.94    0.96
  -5   2  -4    0.89    0.57
   5  -2   4    1.80    1.01
  -5   2  -5    2.80    1.59
  -5   2  -5    1.80    0.83
   5  -2   5    3.29    1.35
   5  -2   6    4.09    1.43
  -5   2  -6    5.13    2.18
  -5   2  -6    4.82    1.51
  -5   2  -7    6.28    2.23
  -5   2  -7    3.47    1.34
  -5   2  -8    4.59    2.12
  -5   2  -8    3.41    1.27
  -5   2  -9    3.57    1.83
  -5   2  -9    5.84    1.92
  -5   2 -10    4.27    2.11
  -5   2 -10    2.48    1.36
  -5   2 -11    3.22    1.85
  -5   2 -11    3.82    1.59
  -5   2 -12    0.40    1.45
  -5   2 -12   -1.22    0.99
  -5   2 -13   -0.28    1.06
  -5   2 -13   -0.33    0.83
  -5   2 -14    2.86    1.80
  -5   2 -14    0.57    0.85
  -5   2 -15   -0.05    1.35
  -5   2 -15    2.57    1.41
   5  -1 -17    1.36    1.02
   5  -1 -16    1.69    1.01
   5  -1 -15    1.63    1.27
   5  -1 -14    4.20    1.63
   5  -1 -13    0.67    1.05
   5  -1 -12   -0.38    0.77
   5  -1 -12    1.95    1.65
   5  -1 -11    3.14    1.20
   5  -1 -11   -0.33    1.15
   5  -1 -10    4.73    2.45
   5  -1 -10    4.02    1.46
   5  -1  -9    3.35    1.19
   5  -1  -9    4.70    2.34
   5  -1  -9    2.08    1.19
   5  -1  -8   47.36    4.22
   5  -1  -8   44.85    4.04
   5  -1  -8   41.78    6.31
   5  -1  -7    1.08    0.83
   5  -1  -7    2.15    1.62
   5  -1  -7    2.61    1.04
   5  -1  -6    0.89    0.80
   5  -1  -6    0.45    0.77
   5  -1  -6    1.96    0.91
   5  -1  -5    0.41    0.66
   5  -1  -5    1.47    1.53
   5  -1  -5    0.88    0.77
   5  -1  -4    1.58    0.84
   5  -1  -4   -0.01    1.04
   5  -1  -4    0.11    0.65
   5  -1  -3   15.20    3.47
   5  -1  -3   19.54    2.45
   5  -1  -3   15.78    2.22
   5  -1  -2    0.22    0.47
   5  -1  -2   -0.81    1.13
   5  -1  -2   -0.02    0.45
   5  -1  -1   16.83    3.35
  -5   1   1   16.95    2.15
   5  -1  -1   14.70    2.17
   5  -1  -1   15.30    2.09
   5  -1   0   11.04    2.68
  -5   1   0   11.31    1.75
   5  -1   0   15.37    2.10
   5  -1   1    3.71    1.70
  -5   1  -1    1.46    0.75
   5  -1   2   14.70    2.49
  -5   1  -2    9.77    1.66
  -5   1  -3    0.50    1.05
   5  -1   3   -0.31    0.75
  -5   1  -3    0.05    0.34
  -5   1  -4  100.62    7.86
  -5   1  -4   99.15    5.65
   5  -1   4  109.43    6.72
  -5   1  -5   46.43    5.43
  -5   1  -5   44.12    4.03
   5  -1   5   45.13    4.34
  -5   1  -6   47.67    5.69
  -5   1  -6   48.36    4.61
   5  -1   6   42.84    4.15
  -5   1  -7    7.10    2.43
  -5   1  -7    6.36    1.76
  -5   1  -8    2.38    1.71
  -5   1  -8    4.62    1.64
  -5   1  -9    2.74    1.76
  -5   1  -9    6.51    1.98
  -5   1 -10   16.45    3.79
  -5   1 -10   17.01    3.02
  -5   1 -11    1.01    1.47
  -5   1 -11    0.22    1.01
  -5   1 -12    4.44    1.93
  -5   1 -12    4.84    1.63
  -5   1 -13   -0.39    1.36
  -5   1 -13   -0.59    0.61
  -5   1 -14   -2.53    1.57
  -5   1 -14    1.78    1.39
  -5   1 -15   -0.28    0.85
  -5   1 -15    2.38    1.49
   5   0 -17    1.58    1.28
   5   0 -16   -0.62    0.72
   5   0 -15    4.82    1.71
   5   0 -14    2.16    1.23
   5   0 -13    1.53    1.12
   5   0 -12    5.92    1.89
   5   0 -11    1.21    0.85
   5   0 -10   19.28    4.12
   5   0 -10   16.02    2.71
   5   0  -9   40.17    4.15
   5   0  -9   40.49    5.86
   5   0  -8   31.40    3.62
   5   0  -8   31.55    5.27
   5   0  -7    8.49    2.81
  -5   0   7    5.03    1.06
   5   0  -7    6.36    1.56
   5   0  -6   -0.04    0.31
   5   0  -6    0.10    0.75
   5   0  -6    0.32    0.58
   5   0  -5    8.88    2.60
   5   0  -5   12.91    2.22
   5   0  -5   11.11    1.37
   5   0  -4    7.66    1.15
   5   0  -4    5.12    2.00
   5   0  -4    5.64    1.53
   5   0  -3   53.29    3.07
   5   0  -3   54.01    4.36
   5   0  -3   55.71    6.22
   5   0  -2    0.17    0.44
   5   0  -2    0.97    1.03
  -5   0   2   -0.30    0.59
   5   0  -2   -0.04    0.35
   5   0  -1    0.86    0.79
  -5   0   1    0.43    0.49
   5   0  -1    0.79    0.61
  -5   0   0   22.49    2.77
   5   0   0   31.51    4.45
  -5   0  -1   31.96    3.28
   5   0   1   33.74    4.60
   5   0   2    3.56    1.53
  -5   0  -2    3.76    1.08
   5   0   2    3.39    1.06
   5   0   3    2.53    1.25
   5   0   3    1.79    0.82
  -5   0  -3    2.03    0.97
   5   0   4    1.28    0.89
  -5   0  -4    1.56    0.88
  -5   0  -4    0.86    0.65
   5   0   4    1.54    1.15
  -5   0  -5   38.70    4.69
  -5   0  -5   32.32    3.65
   5   0   5   39.08    4.07
   5   0   5   35.42    4.37
   5   0   6    3.30    1.35
  -5   0  -6    9.89    2.47
  -5   0  -6    7.91    2.04
   5   0   6    9.30    2.15
  -5   0  -7   50.35    5.54
  -5   0  -7   46.84    5.01
   5   0   7   43.55    4.45
  -5   0  -8   11.88    3.04
  -5   0  -8   14.54    2.90
  -5   0  -9    4.97    2.21
  -5   0  -9    6.94    2.06
  -5   0 -10    0.74    0.74
  -5   0 -10    0.83    1.14
  -5   0 -11    4.89    2.16
  -5   0 -11    9.12    2.59
  -5   0 -12   -0.51    1.00
  -5   0 -12    0.45    0.67
  -5   0 -13    2.34    1.44
  -5   0 -13   -1.47    1.13
  -5   0 -14   -0.59    0.93
   5   1 -17    5.09    1.86
   5   1 -16   -1.15    1.10
   5   1 -15    2.25    1.33
   5   1 -14   14.50    2.99
   5   1 -13    7.52    2.08
   5   1 -12    6.86    2.01
   5   1 -11    0.55    0.70
   5   1 -10    6.02    1.73
   5   1  -9    0.37    0.82
   5   1  -8    2.85    1.22
   5   1  -7   12.43    3.34
  -5  -1   7    5.21    0.83
   5   1  -7   12.11    2.32
   5   1  -6    7.99    2.65
   5   1  -6    7.45    1.82
   5   1  -5   -0.30    0.66
   5   1  -5    2.11    1.52
   5   1  -4    5.76    1.63
   5   1  -4    9.69    2.74
   5   1  -3    4.05    1.59
  -5  -1   3    3.98    1.24
   5   1  -3    2.56    1.57
   5   1  -2    1.30    0.93
  -5  -1   2    0.08    0.65
   5   1  -2    0.97    1.32
  -5  -1   1    7.51    1.80
   5   1  -1    9.32    2.42
  -5  -1   0   83.53    5.62
   5   1   0   84.33    7.05
  -5  -1  -1   13.64    2.34
   5   1   1   19.79    3.46
  -5  -1  -2   41.69    4.10
   5   1   2   54.77    5.40
   5   1   2   45.88    4.52
  -5  -1  -3   19.08    2.87
   5   1   3   20.69    2.99
   5   1   3   25.44    3.55
   5   1   4   -0.19    0.68
  -5  -1  -4    0.33    0.61
   5   1   4   -0.34    0.52
  -5  -1  -5   90.71    6.67
  -5  -1  -5  100.79    7.01
   5   1   5   97.74    6.38
   5   1   5  110.70    6.79
  -5  -1  -6   10.54    2.32
  -5  -1  -6   14.08    2.85
   5   1   6   12.55    2.16
  -5  -1  -7   83.97    6.67
  -5  -1  -7   87.99    7.07
  -5  -1  -8   46.59    5.01
  -5  -1  -8   48.30    5.41
  -5  -1  -9   11.43    2.85
  -5  -1  -9   16.24    3.27
  -5  -1 -10    0.45    1.02
  -5  -1 -10    1.17    1.29
  -5  -1 -11   24.18    4.03
  -5  -1 -11   21.39    3.91
  -5  -1 -12    1.16    1.39
  -5  -1 -13   -0.44    0.63
  -5  -1 -14    2.14    1.39
   5   2 -17    0.97    0.77
   5   2 -16    5.70    1.87
   5   2 -15   29.18    4.34
   5   2 -14    4.67    1.78
   5   2 -13   26.79    3.94
   5   2 -12    7.94    2.19
   5   2 -11    1.48    1.00
   5   2 -10    6.78    1.90
   5   2  -9  118.09    7.70
   5   2  -8   99.49    6.96
   5   2  -7   71.28    5.81
   5   2  -6   33.12    4.00
   5   2  -5    3.38    1.31
   5   2  -4   99.10    6.92
   5   2  -3    1.64    1.26
  -5  -2   3    0.44    0.87
  -5  -2   2   52.31    4.96
  -5  -2   1    3.23    1.07
   5   2   0    1.17    0.46
  -5  -2   0    2.79    1.11
   5   2   1   22.11    3.06
  -5  -2  -1   21.76    3.16
   5   2   1   15.20    1.61
   5   2   2    0.05    0.80
  -5  -2  -2   -0.19    0.65
  -5  -2  -3    3.03    1.26
   5   2   3    2.64    1.15
  -5  -2  -4    0.44    0.61
   5   2   4    0.87    0.76
  -5  -2  -5    0.58    0.58
   5   2   5    1.55    1.18
  -5  -2  -6    4.34    1.34
  -5  -2  -6    5.29    1.94
  -5  -2  -7    4.66    1.50
  -5  -2  -7    2.08    1.25
  -5  -2  -8    1.24    0.88
  -5  -2  -8    1.59    1.23
  -5  -2  -9    0.00    0.69
  -5  -2 -10   20.23    3.91
  -5  -2 -11    7.12    2.39
  -5  -2 -12    2.96    1.75
  -5  -2 -13    0.47    0.73
   5   3 -16    4.06    1.67
   5   3 -15    6.30    2.08
   5   3 -14   21.78    3.62
   5   3 -13   41.43    4.90
   5   3 -12    1.84    1.28
   5   3 -11    0.29    0.54
   5   3 -10    7.13    2.03
   5   3  -9    0.78    0.81
   5   3  -8    0.80    1.03
   5   3  -7    3.43    1.48
   5   3  -6    0.77    1.00
   5   3  -5    3.82    1.44
   5   3  -4    0.80    0.82
  -5  -3   3   41.30    4.71
   5   3  -3   39.04    4.71
  -5  -3   2    3.19    1.40
  -5  -3   1    6.38    1.83
  -5  -3   0    4.10    1.51
   5   3   0    3.58    0.77
   5   3   1   75.72    5.50
  -5  -3  -1   63.77    5.72
   5   3   2    0.58    0.95
  -5  -3  -2    2.09    1.35
  -5  -3  -3   66.36    6.07
   5   3   3   70.80    5.38
  -5  -3  -4    0.27    0.71
   5   3   4    1.01    0.76
  -5  -3  -5    2.18    1.33
   5   3   5    0.51    0.66
  -5  -3  -6   31.66    4.48
  -5  -3  -7   -0.81    1.00
  -5  -3  -8   -1.03    1.24
  -5  -3  -9   -0.87    1.27
  -5  -3 -10    0.81    0.73
  -5  -3 -11   -0.12    0.89
  -5  -3 -12    2.40    1.71
   5   4 -16    0.26    0.63
   5   4 -15    0.09    0.73
   5   4 -14    3.55    1.53
   5   4 -13    1.34    1.33
   5   4 -12   15.27    3.16
   5   4 -11    7.30    2.19
   5   4 -10    3.80    1.61
   5   4  -9   33.26    4.44
   5   4  -8   39.14    4.87
   5   4  -7    6.33    2.01
   5   4  -6    0.70    0.76
   5   4  -5    5.11    1.98
   5   4  -4    0.87    0.87
  -5  -4   4   -0.90    1.07
  -5  -4   3    0.34    0.66
  -5  -4   2    4.18    1.67
  -5  -4   1    4.28    1.60
  -5  -4   0    0.94    0.85
   5   4   0    2.68    1.05
   5   4   1    0.71    0.82
  -5  -4  -1    0.15    0.53
  -5  -4  -2    1.75    1.01
   5   4   2    0.26    0.48
  -5  -4  -3   -0.03    0.60
   5   4   3    0.78    0.94
   5   4   4    2.18    1.02
  -5  -4  -4    3.17    1.49
  -5  -4  -5    1.18    1.26
  -5  -4  -6   19.65    3.81
  -5  -4  -7   10.14    2.81
  -5  -4  -8    5.89    2.16
  -5  -4  -9   -0.39    0.97
  -5  -4 -10    0.07    0.63
  -5  -4 -11   17.36    3.63
   5   5 -15   -0.64    0.80
   5   5 -14    3.37    1.50
   5   5 -13    0.78    0.96
   5   5 -12   -0.43    0.58
   5   5 -11    4.43    1.70
   5   5 -10   -0.18    0.55
   5   5  -9   64.72    6.44
   5   5  -8    1.82    1.41
   5   5  -7   24.56    4.05
   5   5  -6   12.47    2.89
   5   5  -5   13.33    3.08
  -5  -5   4   92.15    7.84
   5   5  -4   99.80    8.26
  -5  -5   3  179.51   10.59
  -5  -5   2  107.20    8.23
  -5  -5   1    7.54    2.18
   5   5  -1   12.43    2.30
   5   5   0    4.68    1.37
  -5  -5   0    2.30    0.94
  -5  -5  -1    3.64    1.70
   5   5   1    4.44    1.32
  -5  -5  -2   18.85    3.54
   5   5   2   21.25    2.75
  -5  -5  -3    1.52    1.16
   5   5   3    2.97    1.25
  -5  -5  -4    2.41    1.37
  -5  -5  -5   18.30    3.65
  -5  -5  -6    2.16    1.49
  -5  -5  -7   -1.58    1.56
  -5  -5  -8   -1.41    1.01
  -5  -5  -9    2.99    1.64
  -5  -5 -10   -1.34    1.47
   5   6 -14    1.07    1.02
   5   6 -13    6.13    2.10
   5   6 -12    4.58    1.74
   5   6 -11    1.68    0.94
   5   6 -10    9.50    2.61
   5   6  -9    0.39    0.76
   5   6  -8   24.56    4.31
   5   6  -7    1.41    1.32
   5   6  -6    0.26    0.97
   5   6  -5   23.15    4.18
   5   6  -4    3.20    1.74
  -5  -6   4    2.08    1.18
  -5  -6   3    5.91    2.04
  -5  -6   2   -0.31    0.99
   5   6  -2    0.37    0.48
  -5  -6   1   14.18    3.15
   5   6  -1   12.81    2.01
  -5  -6   0    2.04    1.51
   5   6   0    1.84    0.95
   5   6   1    6.46    1.47
  -5  -6  -1   10.22    2.52
  -5  -6  -2    8.88    2.65
   5   6   2    8.73    1.77
  -5  -6  -3   39.90    5.46
  -5  -6  -4    1.41    1.26
  -5  -6  -5    8.52    2.62
  -5  -6  -6    3.28    1.73
  -5  -6  -7   23.92    4.36
  -5  -6  -8    7.78    2.62
  -5  -6  -9    4.11    1.85
   5   7 -13    5.57    2.02
   5   7 -12    3.99    1.76
   5   7 -11    0.02    0.57
   5   7 -10    0.98    0.93
   5   7  -9    2.21    1.37
   5   7  -8   29.02    4.82
   5   7  -7    0.91    1.15
   5   7  -6   14.97    3.49
   5   7  -5    0.58    0.95
   5   7  -4    9.88    2.78
  -5  -7   3   22.55    3.97
  -5  -7   2    6.32    2.41
  -5  -7   1    8.44    2.48
  -5  -7   0    1.43    1.15
  -5  -7  -1    3.83    1.87
  -5  -7  -2    0.23    1.01
  -5  -7  -3    5.64    2.14
  -5  -7  -4   -2.45    1.52
  -5  -7  -5    4.86    2.08
  -5  -7  -6    3.48    1.93
  -5  -7  -7    2.45    1.75
   5   8 -11   -0.42    0.67
   5   8 -10    3.37    1.83
   5   8  -9   -0.52    0.92
   5   8  -8   -1.18    0.97
   5   8  -7    1.33    1.14
   5   8  -6   -1.03    0.91
   5   8  -5   -1.05    1.05
   5   8  -4   -2.16    1.42
  -5  -8   3   13.60    3.26
  -5  -8   2    1.35    1.45
  -5  -8   1   10.85    3.00
  -5  -8   0   -0.06    0.86
  -5  -8  -1   14.50    3.55
  -5  -8  -2   13.64    3.53
  -5  -8  -3   12.59    3.48
  -5  -8  -4    5.74    2.23
  -5  -8  -5    0.45    1.04
   5   9  -8   -1.50    1.26
   5   9  -7    9.42    2.87
   5   9  -6    6.37    2.43
   5   9  -5    4.79    2.04
   5   9  -4    1.08    1.57
   5   9  -3    3.12    1.84
  -5  -9   3    2.78    1.57
  -5  -9   2    3.84    1.95
  -5  -9   1   -0.49    1.01
  -5  -9   0    2.16    1.34
  -5  -9  -1    3.69    1.97
  -5  -9  -2   15.75    3.84
   6  -9  -4   -2.07    1.75
   6  -9  -3   -2.39    1.82
   6  -9  -2    1.42    1.66
   6  -9  -1    0.02    1.21
   6  -9   0   -3.68    1.94
   6  -8  -9   -0.58    0.92
   6  -8  -8    4.02    2.12
   6  -8  -7   -0.43    1.32
   6  -8  -6    0.65    1.14
   6  -8  -5    7.79    3.13
   6  -8  -4   -4.36    2.18
   6  -8  -3    1.75    1.61
   6  -8  -2    3.95    1.84
   6  -8  -1    0.55    1.14
   6  -8   0    9.56    3.24
   6  -8   1    0.16    1.02
   6  -8   2   -0.81    1.80
   6  -8   3    9.41    3.59
  -6   8  -4    3.13    2.05
   6  -8   4    3.25    2.02
  -6   8  -5    1.34    1.32
   6  -8   5   -1.29    2.03
   6  -7 -12   -0.67    1.22
   6  -7 -11    3.05    1.93
   6  -7 -11    1.53    1.13
   6  -7 -10   -3.61    2.18
   6  -7 -10   -0.96    1.14
   6  -7  -9    2.03    1.94
   6  -7  -9    0.16    1.16
   6  -7  -8    6.44    2.42
   6  -7  -8    2.55    1.68
   6  -7  -7    1.17    1.31
   6  -7  -6   18.71    3.98
   6  -7  -5    3.76    1.90
   6  -7  -4   11.16    3.28
   6  -7  -3    5.48    2.31
   6  -7  -2    0.93    0.82
   6  -7  -1   -0.92    1.07
   6  -7   0    3.30    2.12
   6  -7   1    4.36    2.29
   6  -7   2    4.73    2.42
   6  -7   3    2.73    2.03
  -6   7  -4    1.82    1.53
   6  -7   4    0.81    1.03
  -6   7  -5    6.65    2.97
  -6   7  -6    4.34    2.45
  -6   7  -7    2.02    1.73
   6  -6 -14   -1.97    1.54
   6  -6 -13    1.22    1.04
   6  -6 -13    1.09    1.13
   6  -6 -12   -0.16    0.87
   6  -6 -12   -4.94    2.05
   6  -6 -11   -3.18    2.01
   6  -6 -11    1.52    1.37
   6  -6 -10   13.62    3.98
   6  -6 -10   12.01    3.04
   6  -6  -9    4.07    2.62
   6  -6  -9    2.86    1.78
   6  -6  -8    6.26    2.95
   6  -6  -8    8.01    2.63
   6  -6  -7    1.83    1.36
   6  -6  -7    6.69    2.76
   6  -6  -6    9.51    2.78
   6  -6  -5   -1.15    1.05
   6  -6  -4    0.80    1.09
   6  -6  -3    7.68    2.63
   6  -6  -2    6.51    2.60
   6  -6  -1   29.39    5.05
   6  -6   0    0.50    0.63
   6  -6   0   -1.63    1.81
   6  -6   1    1.80    0.67
   6  -6   1    7.47    2.87
   6  -6   2    9.15    1.86
   6  -6   2   11.37    3.34
   6  -6   3    3.84    1.34
  -6   6  -3    3.14    1.58
   6  -6   4   10.97    2.05
  -6   6  -4    9.97    3.20
  -6   6  -5    1.99    1.96
  -6   6  -6    9.47    3.20
  -6   6  -7    4.64    2.55
  -6   6  -8    0.49    1.06
   6  -5 -15    0.56    1.10
   6  -5 -14    7.68    2.99
   6  -5 -14    6.34    2.14
   6  -5 -13   -1.36    1.55
   6  -5 -13    0.36    0.84
   6  -5 -12    2.68    2.04
   6  -5 -12    0.82    1.21
   6  -5 -11    8.20    3.36
   6  -5 -11    6.46    2.00
   6  -5 -10   18.68    4.54
   6  -5 -10   23.48    4.15
   6  -5  -9    9.68    3.52
   6  -5  -9    9.09    2.49
   6  -5  -8   -0.39    1.02
   6  -5  -8    2.07    1.36
   6  -5  -7    5.35    2.94
   6  -5  -7    2.90    1.44
   6  -5  -6    1.52    1.12
   6  -5  -6   -0.17    1.03
   6  -5  -5    5.36    2.11
   6  -5  -4    0.21    0.84
   6  -5  -3    1.48    1.07
   6  -5  -2    0.13    1.48
   6  -5  -1    0.06    1.28
   6  -5   0    6.13    2.31
   6  -5   1   -1.09    1.01
   6  -5   1   -0.50    1.61
   6  -5   2   -0.25    0.55
  -6   5  -3    4.60    2.33
   6  -5   3    3.49    1.27
  -6   5  -4    4.21    2.18
   6  -5   4    4.70    1.46
  -6   5  -5    1.30    1.22
   6  -5   5    3.21    1.23
  -6   5  -6   -0.59    1.02
  -6   5  -7   16.15    3.99
  -6   5  -8    4.17    2.11
  -6   5  -9    5.84    2.76
  -6   5 -10    1.14    1.67
   6  -4 -16    9.51    2.86
   6  -4 -15   -0.68    0.59
   6  -4 -15    1.44    1.02
   6  -4 -14    0.34    0.76
   6  -4 -14   -0.66    1.13
   6  -4 -13   -0.85    1.75
   6  -4 -13   -0.22    0.80
   6  -4 -13    0.45    0.70
   6  -4 -12    0.31    1.09
   6  -4 -12   -1.26    0.95
   6  -4 -12    0.53    0.56
   6  -4 -11    2.84    2.14
   6  -4 -11    0.39    0.86
   6  -4 -11    0.59    0.73
   6  -4 -10    3.16    2.14
   6  -4 -10    5.00    1.95
   6  -4 -10    6.21    1.70
   6  -4  -9    0.42    1.43
   6  -4  -9    2.63    1.30
   6  -4  -9    1.43    0.81
   6  -4  -8    2.22    1.43
   6  -4  -8   -1.14    1.18
   6  -4  -8    0.99    0.59
   6  -4  -7    0.88    0.87
   6  -4  -7    2.20    1.21
   6  -4  -7    1.11    0.51
   6  -4  -6    9.02    3.22
   6  -4  -6    9.44    2.51
   6  -4  -5   21.24    4.49
   6  -4  -5   23.12    3.86
   6  -4  -4    3.97    1.86
   6  -4  -3   -0.43    1.10
   6  -4  -2    5.90    1.95
   6  -4  -1   -0.60    0.73
   6  -4   0    9.28    2.74
   6  -4   1   -0.05    0.88
   6  -4   2    3.47    1.22
  -6   4  -3    9.15    2.93
   6  -4   3    6.32    1.67
   6  -4   4    7.40    1.77
  -6   4  -4    1.70    1.61
   6  -4   5    1.43    1.03
  -6   4  -5    0.13    1.21
   6  -4   6    8.86    1.97
  -6   4  -6    6.47    2.56
  -6   4  -7    3.78    2.09
  -6   4  -8    7.36    2.98
  -6   4  -9    9.15    3.05
  -6   4 -10    4.85    2.39
  -6   4 -11   -1.86    1.94
   6  -3 -16    4.26    1.67
   6  -3 -15   -0.40    0.78
   6  -3 -15    3.78    2.17
   6  -3 -14   -0.39    0.79
   6  -3 -14    2.01    1.41
   6  -3 -13   -0.08    0.57
   6  -3 -13    0.28    0.93
   6  -3 -12    3.58    1.94
   6  -3 -12    1.31    1.13
   6  -3 -12    2.49    1.25
   6  -3 -11   18.01    4.29
   6  -3 -11   15.33    3.19
   6  -3 -11   15.48    2.61
   6  -3 -10    5.87    2.57
   6  -3 -10    4.28    1.73
   6  -3 -10    3.60    1.26
   6  -3  -9   -0.43    1.24
   6  -3  -9    0.25    0.88
   6  -3  -9    1.00    0.67
   6  -3  -8    0.82    1.08
   6  -3  -8    1.35    0.94
   6  -3  -8    1.53    0.68
   6  -3  -7    2.29    1.85
   6  -3  -7    1.63    1.04
   6  -3  -7    1.38    0.78
   6  -3  -6   59.45    4.15
   6  -3  -6   54.53    5.32
   6  -3  -6   48.44    6.66
   6  -3  -5    5.93    2.49
   6  -3  -5    5.42    1.72
   6  -3  -5    8.38    1.50
   6  -3  -4   78.49    4.15
   6  -3  -4   75.71    6.17
   6  -3  -4   61.72    7.32
   6  -3  -3   11.96    3.35
   6  -3  -3    7.46    2.06
   6  -3  -3   13.21    1.56
   6  -3  -2    1.20    0.43
   6  -3  -2    0.57    0.93
   6  -3  -1   16.66    3.13
   6  -3   0   67.57    6.50
   6  -3   1   18.74    3.02
   6  -3   2    3.99    1.39
  -6   3  -3    3.07    1.74
   6  -3   3    3.11    1.14
  -6   3  -4    1.23    1.28
   6  -3   4    1.90    1.04
  -6   3  -5   15.35    3.60
   6  -3   5   13.64    2.48
  -6   3  -6    2.81    1.73
   6  -3   6    3.26    1.20
  -6   3  -7    5.47    2.21
  -6   3  -8   22.20    4.64
  -6   3  -9   17.05    4.06
  -6   3 -10   13.62    3.84
  -6   3 -11   -0.08    1.08
  -6   3 -12    0.20    1.51
   6  -2 -16    0.47    0.99
   6  -2 -15    1.73    1.29
   6  -2 -14    0.82    1.48
   6  -2 -14    0.82    0.91
   6  -2 -13    5.65    1.83
   6  -2 -13    7.49    2.94
   6  -2 -12    1.04    0.94
   6  -2 -12    0.94    0.96
   6  -2 -11    4.08    2.61
   6  -2 -11    4.95    1.61
   6  -2 -10   21.42    3.06
   6  -2 -10   25.59    5.24
   6  -2 -10   19.02    3.03
   6  -2  -9    2.64    1.97
   6  -2  -9   -0.03    0.51
   6  -2  -9    1.47    0.93
   6  -2  -8   -0.55    0.96
   6  -2  -8    1.67    1.04
   6  -2  -8    0.55    0.68
   6  -2  -7   16.91    4.22
   6  -2  -7   20.17    2.78
   6  -2  -7   17.90    2.94
   6  -2  -6  261.25    9.08
   6  -2  -6  268.88   10.51
   6  -2  -6  248.08   14.86
   6  -2  -5  271.15    8.84
   6  -2  -5  267.46   10.54
   6  -2  -5  251.93   14.98
   6  -2  -4  263.37    8.32
   6  -2  -4  260.90   10.15
   6  -2  -4  242.23   14.87
   6  -2  -3   18.68    4.08
   6  -2  -3   19.64    2.18
   6  -2  -3   21.41    3.05
   6  -2  -2    1.62    1.35
   6  -2  -2    0.68    0.60
   6  -2  -2    0.54    0.49
   6  -2  -1   13.36    3.13
   6  -2  -1   17.38    2.00
   6  -2  -1   18.01    2.97
   6  -2   0    3.69    1.75
   6  -2   0    1.84    0.76
  -6   2   0    1.33    0.61
   6  -2   1   11.43    1.69
  -6   2  -1    8.22    1.51
   6  -2   1    9.58    2.22
  -6   2  -2   15.11    2.03
   6  -2   2   15.73    2.71
   6  -2   3    4.93    1.63
  -6   2  -3    4.00    1.08
  -6   2  -4    0.36    0.80
  -6   2  -4    1.31    0.74
   6  -2   4    0.85    0.69
  -6   2  -5    0.16    1.12
  -6   2  -5    0.09    0.73
   6  -2   5    1.15    1.03
   6  -2   6    7.33    1.83
  -6   2  -6    6.45    2.48
  -6   2  -6    6.44    1.44
  -6   2  -7    3.71    2.03
  -6   2  -7   -0.60    0.88
  -6   2  -8   -0.11    0.77
  -6   2  -8    0.53    0.70
  -6   2  -9    2.13    1.34
  -6   2  -9    3.01    1.37
  -6   2 -10    2.41    1.61
  -6   2 -10   -0.01    0.62
  -6   2 -11    1.64    1.33
  -6   2 -11    0.42    0.88
  -6   2 -12    0.16    0.94
  -6   2 -13    2.97    1.79
   6  -1 -16    1.46    1.01
   6  -1 -15    2.09    1.02
   6  -1 -14    0.30    0.66
   6  -1 -13    1.76    1.06
   6  -1 -12    5.09    1.65
   6  -1 -12    4.11    1.93
   6  -1 -11    6.14    1.83
   6  -1 -11    7.23    2.83
   6  -1 -10    8.38    2.97
   6  -1 -10    8.15    1.98
   6  -1  -9   -0.37    0.88
   6  -1  -9    0.94    0.75
   6  -1  -8    1.64    0.70
   6  -1  -8    2.14    1.45
   6  -1  -8    1.59    0.92
   6  -1  -7   14.32    2.09
   6  -1  -7   17.30    3.96
   6  -1  -7   14.55    2.38
   6  -1  -6    4.00    1.23
   6  -1  -6    4.72    2.06
   6  -1  -6    3.73    1.37
   6  -1  -5    5.85    1.40
   6  -1  -5    5.04    2.09
   6  -1  -5    6.22    1.53
   6  -1  -4    6.19    1.50
   6  -1  -4    4.25    2.19
   6  -1  -4    6.64    1.44
   6  -1  -3    5.81    1.40
   6  -1  -3    4.34    2.06
   6  -1  -3    3.19    0.97
   6  -1  -2    8.38    1.59
   6  -1  -2   10.42    2.99
   6  -1  -2    9.55    1.71
   6  -1  -1   12.37    1.99
   6  -1  -1   14.92    3.41
  -6   1   1   11.64    1.83
   6  -1  -1   16.84    2.45
  -6   1   0  107.25    6.03
   6  -1   0   95.73    5.83
   6  -1   0   98.24    8.42
   6  -1   1  113.91    7.58
  -6   1  -1  112.33    6.11
   6  -1   1  110.06    9.12
   6  -1   2    6.77    2.35
  -6   1  -2    5.65    1.42
   6  -1   2    4.63    1.43
   6  -1   3   11.74    2.93
   6  -1   3   12.72    2.47
  -6   1  -3   11.36    2.01
   6  -1   4   11.33    2.83
  -6   1  -4   16.95    2.47
  -6   1  -4   16.86    3.49
   6  -1   4   18.78    3.00
   6  -1   5    1.24    1.28
  -6   1  -5    0.87    1.46
  -6   1  -5    2.71    1.28
   6  -1   5    0.99    1.02
   6  -1   6    4.65    1.77
   6  -1   6    8.68    2.10
  -6   1  -6    7.73    2.66
  -6   1  -6    2.88    1.13
  -6   1  -7    2.81    1.97
  -6   1  -7   -0.21    0.83
  -6   1  -8    3.04    1.90
  -6   1  -8    2.09    1.11
  -6   1  -9    3.47    1.93
  -6   1  -9    0.73    0.74
  -6   1 -10   -0.79    1.07
  -6   1 -10    2.19    1.34
  -6   1 -11    1.99    1.37
  -6   1 -11    2.39    1.53
  -6   1 -12    0.48    1.10
  -6   1 -12    0.10    0.78
  -6   1 -13    0.79    1.19
  -6   1 -13    0.28    0.70
   6   0 -16    0.34    0.81
   6   0 -15    0.08    0.79
   6   0 -14    3.98    1.64
   6   0 -13    4.70    1.77
   6   0 -12    2.25    1.30
   6   0 -11    0.76    0.83
   6   0 -10    9.22    2.20
   6   0 -10   10.13    3.31
   6   0  -9   23.39    3.26
   6   0  -9   25.84    5.00
   6   0  -8    0.48    0.96
   6   0  -8    1.75    0.96
   6   0  -7   -0.06    1.19
   6   0  -7    2.40    1.15
   6   0  -6    0.50    1.15
   6   0  -6    6.40    1.74
   6   0  -5   51.21    4.61
   6   0  -5   47.60    6.44
   6   0  -4    7.90    1.11
   6   0  -4    7.23    2.55
   6   0  -4    8.57    1.90
   6   0  -3    3.73    0.83
   6   0  -3    3.78    2.03
   6   0  -2    0.71    0.52
  -6   0   2    0.54    0.45
   6   0  -2    1.01    0.81
   6   0  -2    1.52    0.64
   6   0  -1    3.46    1.31
  -6   0   1    2.01    0.96
   6   0  -1    0.80    0.87
   6   0  -1    0.71    0.50
  -6   0   0    2.04    1.05
   6   0   0    0.71    1.02
  -6   0  -1    7.35    1.77
   6   0   1    7.77    2.40
   6   0   1   11.63    2.40
   6   0   2   -2.38    1.66
  -6   0  -2   -0.31    0.50
   6   0   2   -0.33    0.94
   6   0   3   -0.15    0.90
  -6   0  -3    0.39    0.48
   6   0   3    0.80    0.56
   6   0   4    0.59    1.03
  -6   0  -4    0.93    0.79
   6   0   4   -0.16    0.69
  -6   0  -5   55.10    5.98
  -6   0  -5   55.29    5.09
   6   0   5   62.72    5.47
   6   0   5   63.21    6.21
  -6   0  -6   58.10    6.25
  -6   0  -6   54.32    5.27
   6   0   6   62.43    5.40
  -6   0  -7    7.63    2.40
  -6   0  -7    7.29    2.05
  -6   0  -8    2.19    1.65
  -6   0  -8   -0.65    0.81
  -6   0  -9   13.47    3.28
  -6   0  -9    9.82    2.43
  -6   0 -10    1.23    1.17
  -6   0 -10    0.33    0.73
  -6   0 -11    2.05    1.48
  -6   0 -11    7.38    2.45
  -6   0 -12    0.39    1.05
  -6   0 -13    2.31    1.32
   6   1 -16    0.48    0.92
   6   1 -15    2.91    1.43
   6   1 -14    3.67    1.57
   6   1 -13    0.50    0.53
   6   1 -12    0.96    0.75
   6   1 -11   -0.31    0.51
   6   1 -10   -0.27    0.56
   6   1  -9    0.69    0.74
   6   1  -8   12.40    2.49
   6   1  -7    0.96    1.24
   6   1  -7    0.44    0.81
   6   1  -6    2.16    1.54
   6   1  -6    2.42    1.06
   6   1  -5    7.67    2.00
   6   1  -5    5.77    2.33
   6   1  -4   94.10    6.90
   6   1  -4   87.76    8.41
   6   1  -3   -0.31    0.88
  -6  -1   3   -0.44    1.06
   6   1  -3    0.78    1.31
   6   1  -2   14.05    2.79
  -6  -1   2   13.76    2.44
   6   1  -2   12.63    3.17
  -6  -1   1   33.82    4.04
   6   1  -1   37.31    5.25
  -6  -1   0  198.86    9.47
   6   1   0  198.79   11.82
   6   1   1   74.59    6.14
  -6  -1  -1   68.06    5.50
   6   1   1   79.09    7.32
  -6  -1  -2   25.25    3.42
   6   1   2   23.20    3.40
   6   1   2   29.56    4.37
  -6  -1  -3    6.41    1.70
   6   1   3    7.84    1.85
   6   1   3    5.85    1.92
  -6  -1  -4   18.80    3.17
   6   1   4   18.54    3.05
   6   1   4   17.30    3.12
  -6  -1  -5   43.28    4.85
   6   1   5   45.55    4.66
  -6  -1  -6    5.70    2.11
   6   1   6    8.46    2.20
  -6  -1  -7   22.20    3.71
  -6  -1  -7   19.24    3.47
  -6  -1  -8   15.89    3.12
  -6  -1  -8   13.14    2.85
  -6  -1  -9    2.72    1.42
  -6  -1 -10   -0.01    0.78
  -6  -1 -11   -0.06    0.77
  -6  -1 -12    0.33    0.82
   6   2 -15    0.63    0.92
   6   2 -14    3.81    1.44
   6   2 -13   29.65    4.16
   6   2 -12    0.58    0.78
   6   2 -11    0.95    1.08
   6   2 -10    2.99    1.50
   6   2  -9    2.01    1.08
   6   2  -8   48.71    5.20
   6   2  -7    3.06    1.28
   6   2  -6   14.55    2.92
   6   2  -5   15.45    3.01
   6   2  -4    1.06    0.79
   6   2  -3    0.81    0.91
  -6  -2   3    0.54    0.62
   6   2  -2   12.13    2.76
  -6  -2   2   11.37    2.41
  -6  -2   1   34.95    4.24
  -6  -2   0    0.82    0.83
  -6  -2  -1   13.37    2.63
   6   2   1   13.97    2.66
   6   2   2    4.22    1.43
  -6  -2  -2    6.00    1.83
  -6  -2  -3   -0.07    0.63
   6   2   3    0.10    0.65
   6   2   4    2.48    1.20
  -6  -2  -4   -0.23    0.55
  -6  -2  -5   32.09    4.53
   6   2   5   26.09    3.60
  -6  -2  -6   25.27    4.12
  -6  -2  -7    3.93    1.74
  -6  -2  -8    2.15    1.33
  -6  -2  -9    0.17    0.89
  -6  -2 -10    6.60    2.07
  -6  -2 -11    1.18    1.46
  -6  -2 -12   -0.03    1.02
   6   3 -15   -0.17    0.59
   6   3 -14    0.68    0.90
   6   3 -13   12.63    2.85
   6   3 -12    7.81    2.28
   6   3 -11    2.49    1.54
   6   3 -10    4.71    1.73
   6   3  -9    1.08    0.74
   6   3  -8   12.74    2.84
   6   3  -7    1.53    0.91
   6   3  -6    9.59    2.47
   6   3  -5   58.84    6.18
   6   3  -4   23.17    3.91
  -6  -3   3   45.53    5.19
   6   3  -3   56.51    6.06
  -6  -3   2    3.69    1.42
  -6  -3   1    0.77    1.12
  -6  -3   0   15.23    2.94
   6   3   0   11.96    2.42
  -6  -3  -1   23.79    3.71
   6   3   1   20.78    3.11
  -6  -3  -2    6.89    2.03
   6   3   2    6.68    1.76
  -6  -3  -3    9.53    2.44
   6   3   3   10.70    2.25
  -6  -3  -4   41.48    5.27
   6   3   4   40.18    4.28
  -6  -3  -5    5.67    2.06
   6   3   5    7.27    1.95
  -6  -3  -6    2.80    1.73
  -6  -3  -7    2.73    1.49
  -6  -3  -8    5.90    2.24
  -6  -3  -9    1.95    1.36
  -6  -3 -10    4.33    1.85
  -6  -3 -11   11.31    3.02
   6   4 -14    0.96    1.17
   6   4 -13   -1.16    1.10
   6   4 -12    5.39    1.95
   6   4 -11   -0.53    1.15
   6   4 -10    2.32    1.42
   6   4  -9    6.59    2.18
   6   4  -8   -1.84    1.41
   6   4  -7    7.41    2.32
   6   4  -6    4.30    1.82
   6   4  -5    0.41    0.63
   6   4  -4   -0.63    0.68
  -6  -4   4    0.24    1.12
   6   4  -3    9.38    2.73
  -6  -4   3    8.52    2.32
  -6  -4   2   17.10    3.35
  -6  -4   1    1.24    0.71
   6   4   0   30.25    3.69
  -6  -4   0   28.90    4.28
   6   4   1    3.59    1.48
  -6  -4  -1    2.82    1.76
  -6  -4  -2   73.63    7.02
   6   4   2   75.88    5.74
  -6  -4  -3   19.39    3.81
   6   4   3   14.97    2.61
  -6  -4  -4    6.20    2.22
   6   4   4    3.27    1.27
  -6  -4  -5    2.25    1.31
  -6  -4  -6   17.04    3.61
  -6  -4  -7    5.67    2.28
  -6  -4  -8   -1.42    1.23
  -6  -4  -9   20.63    4.06
  -6  -4 -10    6.92    2.61
   6   5 -13    3.23    1.53
   6   5 -12   -0.05    0.85
   6   5 -11    1.36    1.09
   6   5 -10    5.05    1.95
   6   5  -9    8.26    2.45
   6   5  -8    0.05    0.83
   6   5  -7   22.60    4.07
   6   5  -6   -0.77    0.64
   6   5  -5    0.58    0.75
  -6  -5   4   81.16    7.70
   6   5  -4   78.07    7.61
   6   5  -3   17.36    3.82
  -6  -5   3    5.97    2.42
  -6  -5   2   61.21    6.50
  -6  -5   1    1.44    1.19
   6   5  -1    6.18    1.86
   6   5   0    2.72    1.08
  -6  -5   0    0.70    1.04
  -6  -5  -1   22.22    3.89
   6   5   1   27.30    3.38
   6   5   2    4.64    1.48
  -6  -5  -2    5.34    1.99
   6   5   3    0.82    0.56
  -6  -5  -3    0.61    1.00
  -6  -5  -4    3.84    1.73
  -6  -5  -5    0.18    0.66
  -6  -5  -6    0.54    0.62
  -6  -5  -7    3.32    1.90
  -6  -5  -8    1.68    1.02
   6   6 -12    3.47    1.82
   6   6 -11    0.81    1.11
   6   6 -10    3.27    1.71
   6   6  -9    1.35    1.15
   6   6  -8   -0.03    0.65
   6   6  -7    5.21    2.13
   6   6  -6    0.67    1.12
   6   6  -5    9.63    2.85
   6   6  -4    0.32    0.78
  -6  -6   4   -0.42    0.94
  -6  -6   3   11.49    3.02
  -6  -6   2   -0.17    0.86
   6   6  -2   -1.29    0.76
   6   6  -1    1.30    0.78
  -6  -6   1    2.48    1.49
  -6  -6   0    3.31    1.56
   6   6   0    2.37    0.96
  -6  -6  -1   24.14    4.32
   6   6   1   21.10    2.81
   6   6   2    0.58    0.86
  -6  -6  -2    0.71    1.31
  -6  -6  -3    5.31    2.23
  -6  -6  -4    1.71    1.07
  -6  -6  -5   10.24    2.82
  -6  -6  -6    8.14    2.64
  -6  -6  -7    1.44    1.13
   6   7 -10   -0.35    0.80
   6   7  -9    1.73    1.41
   6   7  -8    7.10    2.49
   6   7  -7    1.75    1.33
   6   7  -6    0.17    0.98
   6   7  -5    0.69    1.02
   6   7  -4   -1.43    1.17
  -6  -7   3    5.24    2.05
  -6  -7   2    1.82    1.05
  -6  -7   1    0.18    0.94
  -6  -7   0   -0.26    0.82
  -6  -7  -1    0.17    0.90
  -6  -7  -2    2.44    1.74
  -6  -7  -3   -0.58    0.84
  -6  -7  -4    4.40    2.06
   6   8  -7    3.44    1.70
   6   8  -6    0.22    0.82
   6   8  -5    0.33    0.83
   6   8  -4    0.22    0.92
   6   8  -3    0.50    0.92
  -6  -8   3    5.90    2.44
  -6  -8   2    1.79    1.33
  -6  -8   1    0.85    1.02
  -6  -8   0    0.01    0.89
  -6  -8  -1    4.10    2.09
   7  -8  -6    0.74    1.13
   7  -8  -5    2.13    1.68
   7  -8  -4   -4.51    2.17
   7  -8  -3    1.81    1.64
   7  -8  -2    5.46    2.27
   7  -8  -1   -1.16    1.59
   7  -8   0    1.22    1.06
   7  -8   1   -0.70    1.28
   7  -8   2    1.13    0.99
   7  -7  -9   -0.70    1.30
   7  -7  -8   -1.39    1.00
   7  -7  -7   -3.57    1.81
   7  -7  -6    0.33    0.90
   7  -7  -6   -0.68    1.51
   7  -7  -5    2.08    1.50
   7  -7  -4   -0.53    1.04
   7  -7  -3    3.30    1.94
   7  -7  -2    1.17    1.32
   7  -7  -1    2.48    1.50
   7  -7   0   -0.67    1.67
   7  -7   1   -2.73    1.89
   7  -7   2    5.14    2.54
   7  -7   3   21.65    4.90
   7  -7   4   10.75    3.68
   7  -7   5   20.21    4.84
   7  -6 -10    2.70    2.03
   7  -6  -9    1.53    1.91
   7  -6  -9   -0.19    0.91
   7  -6  -8    0.91    1.46
   7  -6  -8    0.69    0.81
   7  -6  -7    7.44    3.07
   7  -6  -7    3.54    1.71
   7  -6  -6    0.62    1.62
   7  -6  -6    0.31    1.01
   7  -6  -5    1.68    0.95
   7  -6  -5    1.74    1.60
   7  -6  -4    2.84    1.63
   7  -6  -3   23.75    4.33
   7  -6  -2   12.49    3.27
   7  -6  -1   15.62    2.71
   7  -6  -1   17.67    3.94
   7  -6   0   -1.39    1.02
   7  -6   0   -1.17    1.53
   7  -6   1    0.54    0.65
   7  -6   1   -0.95    1.88
   7  -6   2    0.36    0.52
   7  -6   2    1.66    1.71
   7  -6   3    1.58    1.07
   7  -6   3    1.87    1.63
   7  -6   4    6.42    1.64
  -7   6  -5    3.08    1.94
   7  -6   5    4.42    1.42
   7  -5 -12    3.54    2.38
   7  -5 -11    1.14    1.22
   7  -5 -10    1.33    1.44
   7  -5  -9    3.97    2.24
   7  -5  -8    2.41    2.19
   7  -5  -8    1.02    0.88
   7  -5  -7   -2.41    1.84
   7  -5  -7   -0.66    1.10
   7  -5  -6    2.38    2.04
   7  -5  -6   -0.40    0.97
   7  -5  -5    1.78    1.62
   7  -5  -5    6.14    2.07
   7  -5  -4    2.37    1.32
   7  -5  -4   -0.75    1.55
   7  -5  -3    0.77    1.14
   7  -5  -2    2.06    1.59
   7  -5  -1    6.49    2.41
   7  -5   0    7.25    1.88
   7  -5   0    6.42    2.43
   7  -5   1    2.79    1.66
   7  -5   1    0.35    0.54
   7  -5   2    5.80    1.57
   7  -5   2    4.12    1.94
   7  -5   3    4.18    1.45
   7  -5   4   13.84    2.54
  -7   5  -5    2.59    1.66
   7  -5   5    1.95    1.06
  -7   5  -6    1.58    1.50
  -7   5  -7   -1.18    1.60
   7  -4 -13   -0.33    1.02
   7  -4 -12   -0.47    0.86
   7  -4 -11    1.25    1.64
   7  -4 -10   -0.25    0.97
   7  -4  -9   10.56    3.46
   7  -4  -8    5.03    2.27
   7  -4  -7   10.01    3.25
   7  -4  -6    1.46    1.07
   7  -4  -6    0.07    0.61
   7  -4  -5    0.16    0.87
   7  -4  -5    0.54    0.61
   7  -4  -4   -0.81    1.07
   7  -4  -4    1.31    1.08
   7  -4  -3    2.57    1.84
   7  -4  -3    1.91    1.09
   7  -4  -2   12.85    3.55
   7  -4  -2   12.65    2.85
   7  -4  -1    1.12    1.42
   7  -4   0    5.35    1.76
   7  -4   0    5.56    1.98
   7  -4   1    1.67    0.88
   7  -4   1    2.42    1.09
   7  -4   2   -0.21    0.59
   7  -4   3    0.77    0.82
   7  -4   4    2.24    1.19
   7  -4   5    3.31    1.46
  -7   4  -5    3.25    1.68
   7  -4   6    3.97    1.45
  -7   4  -6    4.93    2.64
  -7   4  -7   -1.44    1.21
  -7   4  -8    8.91    3.15
  -7   4  -9    9.83    3.53
   7  -3 -15    4.16    1.42
   7  -3 -14   -0.07    0.68
   7  -3 -14    0.20    1.37
   7  -3 -13    2.05    0.92
   7  -3 -13    1.70    1.54
   7  -3 -12   -1.06    1.49
   7  -3 -12    0.43    0.47
   7  -3 -11    2.19    1.79
   7  -3 -11    1.94    0.95
   7  -3 -10   -0.61    1.58
   7  -3 -10    0.80    0.78
   7  -3  -9    0.16    1.04
   7  -3  -9   -0.66    0.45
   7  -3  -8    0.88    1.03
   7  -3  -7    5.23    1.86
   7  -3  -6   -0.34    1.00
   7  -3  -5    7.65    2.88
   7  -3  -4    5.16    1.54
   7  -3  -4    7.01    2.76
   7  -3  -3    5.12    1.77
   7  -3  -3    7.02    2.69
   7  -3  -2   16.34    3.91
   7  -3  -2   16.20    2.97
   7  -3  -1   11.85    3.20
   7  -3  -1   15.31    2.91
   7  -3   0   -0.76    1.00
   7  -3   0    1.66    1.37
   7  -3   1   14.30    2.87
   7  -3   1    7.72    2.42
   7  -3   1    8.48    2.59
   7  -3   2    1.05    0.79
   7  -3   3    1.07    1.02
   7  -3   4    2.70    1.24
  -7   3  -5    9.16    3.19
   7  -3   5   13.88    2.70
  -7   3  -6   -0.18    1.10
   7  -3   6    2.55    1.20
  -7   3  -7   -1.01    1.41
  -7   3  -8    5.29    2.52
  -7   3  -9    1.79    2.35
  -7   3 -10    2.95    2.32
   7  -2 -15    1.27    0.93
   7  -2 -14    0.64    1.12
   7  -2 -14    0.03    0.54
   7  -2 -13    0.10    0.60
   7  -2 -13    1.77    1.68
   7  -2 -12    3.74    1.50
   7  -2 -12    1.66    1.54
   7  -2 -11    3.73    2.41
   7  -2 -11   -0.46    0.90
   7  -2 -10   10.96    3.64
   7  -2 -10   10.24    2.15
   7  -2  -9    1.70    0.99
   7  -2  -9    2.57    1.16
   7  -2  -8    2.80    1.84
   7  -2  -8    2.48    1.12
   7  -2  -7    0.18    1.07
   7  -2  -7    0.00    0.59
   7  -2  -6    0.49    1.45
   7  -2  -6    1.78    0.88
   7  -2  -5    2.21    1.65
   7  -2  -5    3.50    1.10
   7  -2  -4    1.31    1.42
   7  -2  -4    0.96    0.61
   7  -2  -3    4.67    1.96
   7  -2  -3    3.73    1.08
   7  -2  -2   13.50    3.44
   7  -2  -1    7.65    2.57
   7  -2   0   -0.85    1.07
   7  -2   0   -0.18    0.85
   7  -2   1    0.50    1.26
   7  -2   1   -1.90    1.30
   7  -2   2   12.13    2.54
   7  -2   2   13.95    3.37
   7  -2   3    4.55    2.04
   7  -2   3   10.64    2.38
   7  -2   4   15.85    3.47
   7  -2   4   15.48    2.78
   7  -2   5    4.95    1.90
   7  -2   5   13.00    2.67
   7  -2   6    1.08    1.01
  -7   2  -6    2.66    1.98
  -7   2  -7    1.83    1.48
  -7   2  -8    1.40    1.04
  -7   2  -9    2.21    1.35
  -7   2 -10    6.53    2.76
  -7   2 -11    1.29    1.39
   7  -1 -15    1.25    0.87
   7  -1 -14    0.49    0.55
   7  -1 -13    0.33    0.63
   7  -1 -12    1.00    0.53
   7  -1 -12    3.27    2.11
   7  -1 -11    2.26    1.23
   7  -1 -11   -0.08    0.95
   7  -1 -10    7.88    2.93
   7  -1 -10    5.18    1.59
   7  -1  -9    0.64    1.21
   7  -1  -9    1.41    0.95
   7  -1  -8    0.67    0.89
   7  -1  -8   -0.12    0.44
   7  -1  -7    1.94    1.59
   7  -1  -7    3.26    1.20
   7  -1  -6    2.03    1.73
   7  -1  -6    0.38    0.70
   7  -1  -5    5.09    2.19
   7  -1  -5    5.07    1.35
   7  -1  -4   -1.91    1.86
   7  -1  -4    0.17    0.68
   7  -1  -3    0.04    0.89
   7  -1  -3    0.17    0.51
   7  -1  -2   13.38    3.38
   7  -1  -2   12.11    2.12
  -7   1   1   24.21    3.10
   7  -1  -1   19.50    4.01
   7  -1  -1   21.90    2.90
   7  -1   0    0.72    0.67
  -7   1   0    1.13    0.69
   7  -1   0    2.25    1.31
   7  -1   1    1.22    0.70
   7  -1   1   -0.41    0.73
  -7   1  -1    0.30    0.44
   7  -1   1    0.64    0.85
   7  -1   2    1.46    1.27
   7  -1   2    2.66    1.54
  -7   1  -2    1.43    0.85
   7  -1   3   12.77    3.17
  -7   1  -3    9.76    1.97
   7  -1   3   15.38    3.00
   7  -1   4   18.64    3.84
   7  -1   4   22.32    3.47
  -7   1  -4   16.35    2.55
   7  -1   5    0.78    0.66
  -7   1  -5    3.25    1.32
   7  -1   5    4.76    1.68
  -7   1  -6   -0.07    0.50
   7  -1   6    3.76    1.49
  -7   1  -7   12.09    3.12
  -7   1  -7    9.90    2.17
  -7   1  -8    2.82    1.74
  -7   1  -8    2.20    1.06
  -7   1  -9    4.12    2.15
  -7   1 -10    3.15    1.66
   7   0 -15    2.47    1.31
   7   0 -14    3.54    1.55
   7   0 -13   -0.87    0.78
   7   0 -12    0.21    0.49
   7   0 -11    1.61    1.08
   7   0 -10    5.52    2.60
   7   0 -10    1.54    1.07
   7   0  -9    0.82    0.96
   7   0  -9    2.44    1.84
   7   0  -8    0.57    1.62
   7   0  -8    0.63    0.54
   7   0  -7    1.75    1.93
   7   0  -7    2.57    1.18
   7   0  -6    2.41    1.68
   7   0  -6    1.72    1.06
   7   0  -5   -1.50    1.33
   7   0  -5    0.02    0.75
   7   0  -4   -0.15    0.81
   7   0  -4   -0.27    0.61
   7   0  -3    2.21    1.21
   7   0  -3   -0.89    1.32
   7   0  -2    7.78    1.91
  -7   0   2    7.00    1.78
   7   0  -2    3.20    1.71
   7   0  -1   -0.02    0.55
  -7   0   1    0.25    0.47
   7   0  -1    1.56    1.48
   7   0   0    7.95    2.00
  -7   0   0   10.41    2.17
   7   0   0    6.09    2.19
  -7   0  -1    8.70    1.99
   7   0   1   10.15    2.88
   7   0   1   10.96    2.46
   7   0   2   -1.51    1.44
  -7   0  -2   -0.48    0.49
   7   0   2    0.61    0.95
  -7   0  -3    6.74    1.85
   7   0   3    9.35    2.65
   7   0   3    8.93    2.11
  -7   0  -4    3.56    1.33
   7   0   4    4.54    1.97
   7   0   4    5.94    1.86
  -7   0  -5   48.33    4.88
   7   0   5   53.59    5.32
   7   0   6   10.01    2.39
  -7   0  -6    7.51    2.13
  -7   0  -7    6.03    1.75
  -7   0  -8    0.06    0.75
  -7   0  -8    3.18    1.57
  -7   0  -9    6.63    1.98
  -7   0 -10    2.88    1.43
  -7   0 -11    0.38    0.79
   7   1 -15    3.74    1.72
   7   1 -14   -0.87    0.88
   7   1 -13    0.20    0.57
   7   1 -12    0.78    0.64
   7   1 -11   16.52    3.02
   7   1 -10   19.11    3.30
   7   1  -9   36.44    4.47
   7   1  -8   10.43    2.52
   7   1  -7    2.95    1.72
   7   1  -7    0.85    0.65
   7   1  -6   10.75    3.09
   7   1  -6   14.52    2.93
   7   1  -5    3.30    2.15
   7   1  -5    2.09    1.46
   7   1  -4   21.89    3.53
   7   1  -4   23.64    4.49
   7   1  -3   -0.27    0.81
   7   1  -3    1.80    1.82
   7   1  -2   -0.76    1.02
  -7  -1   2    0.99    1.09
  -7  -1   1   23.70    3.61
   7   1  -1   20.75    3.48
   7   1  -1   20.61    4.09
  -7  -1   0    2.21    1.12
   7   1   0    2.59    1.69
  -7  -1  -1    1.87    0.86
   7   1   1    3.12    1.76
   7   1   1    0.94    0.67
   7   1   2    1.39    1.08
  -7  -1  -2   -0.62    1.09
   7   1   2   -1.19    1.13
  -7  -1  -3    8.18    1.95
   7   1   3   14.06    2.70
   7   1   3    9.42    2.51
   7   1   4    8.20    2.24
  -7  -1  -4    4.46    1.50
  -7  -1  -5    7.51    2.26
   7   1   5    8.19    2.18
   7   1   6   11.04    2.47
  -7  -1  -6   14.52    3.08
  -7  -1  -7   -0.18    0.85
  -7  -1  -8    0.50    0.84
  -7  -1  -9    1.97    1.31
  -7  -1 -10   -1.57    1.23
  -7  -1 -11   -1.82    1.39
   7   2 -14    2.42    1.43
   7   2 -13    0.76    0.92
   7   2 -12    1.29    0.95
   7   2 -11    0.86    0.92
   7   2 -10    5.05    1.90
   7   2  -9    0.66    1.09
   7   2  -8    2.03    1.15
   7   2  -7   -0.88    1.10
   7   2  -6    1.63    1.12
   7   2  -5    4.39    1.72
   7   2  -4   -0.55    0.90
   7   2  -3    0.44    0.75
  -7  -2   3    1.73    0.94
   7   2  -2    4.08    1.75
  -7  -2   2    2.39    1.15
  -7  -2   1    7.20    1.98
  -7  -2   0   -0.87    0.68
   7   2   0   -1.41    1.03
   7   2   1   27.75    3.86
  -7  -2  -1   28.17    3.96
   7   2   2   -0.71    0.88
  -7  -2  -2    0.39    0.62
  -7  -2  -3    0.58    0.93
   7   2   3   -0.18    0.69
  -7  -2  -4    6.56    2.12
   7   2   4    6.13    1.95
  -7  -2  -5    1.48    1.30
   7   2   5   -0.23    0.63
  -7  -2  -6    1.67    1.17
  -7  -2  -7   -0.38    0.72
  -7  -2  -8    8.02    2.67
  -7  -2  -9    1.37    1.20
  -7  -2 -10    4.77    2.21
   7   3 -13    1.48    0.99
   7   3 -12   -1.50    1.09
   7   3 -11    3.55    1.60
   7   3 -10    9.63    2.71
   7   3  -9    8.63    2.42
   7   3  -8    1.24    1.15
   7   3  -7   -1.05    1.36
   7   3  -6   -0.24    0.66
   7   3  -5    2.84    1.29
   7   3  -4   -0.28    0.74
   7   3  -3   10.02    2.62
  -7  -3   3    9.42    2.59
   7   3  -2    1.44    1.07
  -7  -3   2    3.72    1.54
  -7  -3   1    0.88    0.81
  -7  -3   0    1.92    1.16
   7   3   0    0.70    0.70
   7   3   1    0.71    0.86
  -7  -3  -1    1.52    1.11
  -7  -3  -2    1.00    1.14
   7   3   2    1.82    1.07
   7   3   3    1.34    1.16
  -7  -3  -3    1.53    1.24
  -7  -3  -4    1.22    1.20
   7   3   4    1.75    1.11
  -7  -3  -5   -0.16    0.84
   7   3   5    1.14    0.95
  -7  -3  -6    3.00    1.47
  -7  -3  -7    0.65    1.28
  -7  -3  -8    0.88    1.02
  -7  -3  -9    5.14    2.10
   7   4 -12    0.98    1.25
   7   4 -11    4.63    1.92
   7   4 -10    0.29    0.81
   7   4  -9    7.11    2.28
   7   4  -8   -1.32    1.31
   7   4  -7    3.91    1.74
   7   4  -6    9.76    2.76
   7   4  -5   39.11    5.56
   7   4  -4   45.33    5.89
   7   4  -3    7.72    2.56
  -7  -4   3    5.17    1.98
  -7  -4   2   -1.00    1.48
  -7  -4   1    2.97    1.50
   7   4  -1    2.53    1.24
  -7  -4   0    9.42    2.61
   7   4   0   11.41    2.33
  -7  -4  -1    0.70    0.72
   7   4   1    2.24    1.28
  -7  -4  -2    3.94    1.74
   7   4   2    3.89    1.30
  -7  -4  -3   10.52    2.81
   7   4   3    6.52    1.70
  -7  -4  -4    4.41    2.15
   7   4   4    3.17    1.36
  -7  -4  -5    6.16    2.33
  -7  -4  -6    0.08    0.69
  -7  -4  -7    1.04    1.63
   7   5 -11    7.19    2.47
   7   5 -10   13.16    3.15
   7   5  -9    1.78    1.24
   7   5  -8    6.05    2.29
   7   5  -7    3.72    1.72
   7   5  -6   15.66    3.47
   7   5  -5    8.06    2.68
   7   5  -4   12.16    3.18
   7   5  -3    2.24    1.40
  -7  -5   3    2.13    1.63
  -7  -5   2    1.90    1.29
   7   5  -2   -0.51    0.71
  -7  -5   1   -1.22    1.34
   7   5  -1    0.10    0.54
   7   5   0   -1.69    1.24
  -7  -5   0    0.81    0.74
  -7  -5  -1   11.01    2.97
   7   5   1    8.40    1.97
   7   5   2    0.27    0.50
  -7  -5  -2    1.33    1.40
   7   5   3    2.05    1.11
  -7  -5  -3   -0.65    0.99
  -7  -5  -4    1.53    1.12
   7   5   4    1.56    0.99
  -7  -5  -5   10.29    2.91
  -7  -5  -6    5.60    2.30
   7   6  -9    1.80    1.32
   7   6  -8   14.89    3.55
   7   6  -7    0.35    1.06
   7   6  -6    3.04    1.72
   7   6  -5    4.14    2.07
   7   6  -4    2.81    1.53
   7   6  -3   14.57    3.49
  -7  -6   3   16.83    3.64
   7   6  -3   11.41    2.34
  -7  -6   2   -0.88    1.00
   7   6  -2   -0.25    0.49
   7   6  -1    0.16    0.55
  -7  -6   1    1.63    0.82
  -7  -6   0   -1.08    1.48
   7   6   0    0.22    0.71
   7   6   1   12.74    2.28
  -7  -6  -1   15.17    3.59
   7   6   2   -1.02    0.53
  -7  -6  -2   -0.57    1.03
  -7  -6  -3    1.37    0.76
   7   6   3    2.15    1.02
   7   7  -6   -0.59    0.65
   7   7  -5   -1.58    1.72
   7   7  -4   -2.09    1.79
   7   7  -3    5.96    2.17
  -7  -7   3    4.57    1.93
  -7  -7   2   -0.31    0.86
  -7  -7   1    2.36    1.33
   8  -7   0   -0.20    0.82
   8  -7   1   -1.83    1.48
   8  -6  -1   -0.06    0.69
   8  -6   0    0.35    0.66
   8  -6   1    0.61    0.71
   8  -6   2    0.16    0.69
   8  -6   2   -1.44    1.30
   8  -6   3    4.43    1.55
   8  -6   3    5.82    2.42
   8  -6   4    2.19    1.02
   8  -6   4   -3.02    1.72
   8  -5  -6   -0.26    0.99
   8  -5  -5   -1.19    2.06
   8  -5  -4    3.08    2.09
   8  -5  -3   -0.17    0.92
   8  -5  -2   -0.93    1.41
   8  -5  -1   -1.23    1.05
   8  -5  -1   -4.55    2.26
   8  -5   0   -2.08    1.15
   8  -5   1    2.24    0.97
   8  -5   2    1.16    0.64
   8  -5   3   -0.23    0.50
   8  -5   4    4.97    1.58
   8  -5   5    1.41    1.10
   8  -4  -9    4.96    2.40
   8  -4  -8   -2.04    1.70
   8  -4  -7   -1.61    1.60
   8  -4  -6    3.15    2.07
   8  -4  -5   -0.73    1.55
   8  -4  -4    4.29    2.19
   8  -4  -3   -1.04    1.72
   8  -4  -2    2.99    1.50
   8  -4  -1    3.49    1.88
   8  -4   0    2.70    1.72
   8  -4   0    1.26    1.00
   8  -4   1   -1.72    1.40
   8  -4   1   -0.10    0.59
   8  -4   2    0.76    1.00
   8  -4   2    2.05    1.47
   8  -4   3    0.69    0.61
   8  -4   3    2.05    1.34
   8  -4   4    1.59    0.93
   8  -4   5    2.31    1.22
   8  -4   6    3.46    1.36
   8  -3 -10   -2.52    1.85
   8  -3  -9    0.18    0.95
   8  -3  -8   26.67    5.33
   8  -3  -7   54.16    7.52
   8  -3  -6   79.01    8.83
   8  -3  -5   12.35    3.64
   8  -3  -4    1.08    0.88
   8  -3  -3    3.72    2.13
   8  -3  -2   -0.33    0.97
   8  -3  -1    7.98    2.63
   8  -3   0    1.79    1.40
   8  -3   0    0.58    0.88
   8  -3   1   -0.97    1.41
   8  -3   1   -1.62    0.98
   8  -3   2    4.45    2.17
   8  -3   2    3.36    1.43
   8  -3   3    0.20    0.68
   8  -3   3    2.61    1.20
   8  -3   4    1.22    1.23
   8  -3   4    5.19    1.68
   8  -3   5    1.92    1.10
   8  -3   6    4.96    1.84
   8  -2 -11    3.21    1.94
   8  -2 -10   -1.21    1.43
   8  -2  -9    8.07    2.87
   8  -2  -8   -2.45    1.78
   8  -2  -7   25.97    5.07
   8  -2  -6    0.07    0.86
   8  -2  -5    2.53    1.74
   8  -2  -4    0.43    1.16
   8  -2  -3   -1.34    1.29
   8  -2  -2    2.97    1.74
   8  -2  -1   11.90    3.25
   8  -2   0    6.75    2.33
   8  -2   0    7.34    2.13
   8  -2   1   -0.06    0.96
   8  -2   1   -1.86    1.26
   8  -2   2    4.04    1.94
   8  -2   2    3.70    1.52
   8  -2   3    1.05    1.22
   8  -2   3   -1.39    0.98
   8  -2   4    3.12    1.27
   8  -2   4    0.67    0.95
   8  -2   5    3.21    1.44
   8  -2   6    2.41    1.26
   8  -1 -14    1.73    1.09
   8  -1 -13    1.95    1.08
   8  -1 -12    0.82    0.79
   8  -1 -11    3.64    1.44
   8  -1 -11    2.10    1.73
   8  -1 -10   -0.27    0.89
   8  -1 -10   -1.56    1.48
   8  -1  -9   -1.84    2.18
   8  -1  -9    0.88    0.95
   8  -1  -8   -2.55    2.48
   8  -1  -8   -0.37    0.47
   8  -1  -7   13.74    3.63
   8  -1  -7   13.39    2.40
   8  -1  -6    2.51    1.67
   8  -1  -6    0.84    0.84
   8  -1  -5    6.55    2.54
   8  -1  -4   -0.17    0.81
   8  -1  -3    0.03    0.96
   8  -1  -2    6.41    2.21
   8  -1  -1   -2.20    1.88
   8  -1   0    2.09    1.36
   8  -1   0   -0.86    0.87
   8  -1   1   -2.24    1.52
   8  -1   1   -2.51    1.35
   8  -1   2   -0.20    1.03
   8  -1   2    0.86    1.11
   8  -1   3    0.09    1.15
   8  -1   3   -0.04    0.80
   8  -1   4    5.41    1.83
   8  -1   5    8.16    2.17
   8  -1   6    3.46    1.52
   8   0 -13    0.06    0.55
   8   0 -12    2.19    1.27
   8   0 -11    1.50    1.06
   8   0 -10   -1.95    2.06
   8   0 -10    1.97    1.30
   8   0  -9    0.53    0.78
   8   0  -9   -1.48    1.44
   8   0  -8    0.98    0.87
   8   0  -8   -1.37    1.62
   8   0  -7   -0.11    0.85
   8   0  -7    0.30    0.74
   8   0  -6    5.57    2.45
   8   0  -6    3.38    1.38
   8   0  -5   -0.29    1.22
   8   0  -5   -0.04    0.67
   8   0  -4    0.59    0.88
   8   0  -4   -1.18    0.93
   8   0  -3    1.75    1.63
   8   0  -3    2.46    1.46
   8   0  -2   50.51    5.27
   8   0  -2   45.35    6.45
   8   0  -1    9.27    2.37
  -8   0   1   13.24    2.63
   8   0  -1   12.17    3.43
  -8   0   0   12.29    2.43
   8   0   0   12.00    3.34
   8   0   0   13.54    3.01
  -8   0  -1   -0.73    1.10
   8   0   1    3.01    1.85
   8   0   1   -1.12    1.43
   8   0   2    0.08    0.86
  -8   0  -2    0.49    0.90
   8   0   2    2.00    1.71
  -8   0  -3   31.34    3.90
   8   0   3   38.87    4.79
   8   0   4    8.71    2.28
  -8   0  -4    5.36    1.63
   8   0   5   16.02    2.99
   8   0   6    6.08    2.00
   8   1 -13   -0.16    0.61
   8   1 -12    1.46    1.28
   8   1 -11    1.61    1.31
   8   1 -10    3.96    1.53
   8   1  -9    2.90    1.31
   8   1  -8    3.82    1.53
   8   1  -7    3.86    1.59
   8   1  -6    2.08    1.56
   8   1  -6    1.16    1.02
   8   1  -5    2.44    1.71
   8   1  -5    1.64    1.19
   8   1  -4    3.13    1.49
   8   1  -4    1.05    1.01
   8   1  -3   20.40    3.58
   8   1  -3   19.23    4.04
   8   1  -2    0.71    1.05
  -8  -1   2    2.49    1.37
   8   1  -2    3.25    1.91
   8   1  -1    6.93    2.09
  -8  -1   1   10.46    2.50
   8   1  -1    7.00    2.61
   8   1   0    0.72    1.00
  -8  -1   0    1.62    0.89
   8   1   0    0.42    0.62
   8   1   0    0.89    1.18
  -8  -1  -1    0.93    0.81
   8   1   1    0.32    0.66
  -8  -1  -2    0.05    0.51
   8   1   2   -1.12    1.29
  -8  -1  -3    1.38    0.84
   8   1   3    1.59    1.23
  -8  -1  -4    1.16    1.02
   8   1   4    2.48    1.47
   8   1   5   -0.67    0.97
  -8  -1  -5    0.61    0.66
   8   1   6    2.72    1.36
  -8  -1  -6    0.57    0.78
  -8  -1  -7   -0.14    0.65
  -8  -1  -8    5.24    1.95
   8   2 -12    0.43    0.58
   8   2 -11    1.44    1.16
   8   2 -10    1.32    1.10
   8   2  -9    0.24    0.69
   8   2  -8    4.18    1.65
   8   2  -7   15.08    3.20
   8   2  -6   18.49    3.47
   8   2  -5   16.40    3.29
   8   2  -4    1.09    1.03
   8   2  -3    0.02    0.69
   8   2  -2    1.69    1.06
  -8  -2   2    2.23    1.22
   8   2  -1    7.65    2.32
  -8  -2   1   13.15    2.80
   8   2  -1   12.70    2.78
   8   2   0    6.50    1.95
  -8  -2   0    4.53    1.60
   8   2   0    5.78    1.97
   8   2   1   -0.75    0.99
  -8  -2  -1    2.37    1.38
  -8  -2  -2    6.00    1.95
   8   2   2    6.63    1.96
  -8  -2  -3    4.11    1.71
   8   2   3    3.92    1.68
  -8  -2  -4   12.52    2.83
   8   2   4   13.40    2.70
  -8  -2  -5    3.19    1.45
   8   2   5    1.78    1.28
  -8  -2  -6    0.41    0.84
  -8  -2  -7   -2.18    1.36
   8   3 -11    2.09    1.47
   8   3 -10    4.55    1.84
   8   3  -9    5.23    2.08
   8   3  -8    0.99    1.11
   8   3  -7    0.70    1.25
   8   3  -6   -0.58    0.97
   8   3  -5    1.58    1.39
   8   3  -4    1.07    0.96
   8   3  -3    0.55    0.77
   8   3  -2    0.39    0.78
  -8  -3   2    1.64    1.25
   8   3  -1    0.42    0.86
  -8  -3   1    0.11    1.05
   8   3  -1   -0.07    0.83
  -8  -3   0   14.26    3.15
   8   3   0   15.73    2.98
   8   3   1    2.51    1.33
  -8  -3  -1    1.39    1.25
  -8  -3  -2    7.39    2.16
   8   3   2   11.57    2.54
   8   3   3    0.40    0.75
  -8  -3  -3    0.41    0.73
   8   3   4    3.01    1.26
  -8  -3  -4    3.45    1.46
  -8  -3  -5    2.90    1.09
   8   3   5    5.61    1.75
  -8  -3  -6   -0.31    0.81
   8   4 -10    1.12    1.21
   8   4  -9    1.51    1.37
   8   4  -8    0.71    0.77
   8   4  -7    0.18    0.97
   8   4  -6   17.56    3.76
   8   4  -5    2.61    1.83
   8   4  -4   32.63    5.02
   8   4  -3    1.53    1.35
  -8  -4   3    1.80    1.54
   8   4  -2    0.89    0.70
  -8  -4   2    1.17    0.92
   8   4  -2    1.15    0.75
   8   4  -1    8.36    2.49
  -8  -4   1   11.73    2.83
   8   4  -1    7.01    2.15
   8   4   0    9.26    2.32
  -8  -4   0    6.76    2.29
  -8  -4  -1    8.18    2.48
   8   4   1    7.04    1.92
   8   4   2    1.92    0.97
  -8  -4  -2    1.50    1.16
  -8  -4  -3   -0.84    0.99
   8   4   3    1.42    1.08
  -8  -4  -4   -0.62    0.90
   8   4   4    1.41    1.09
   8   5  -8    0.39    0.87
   8   5  -7    1.53    1.09
   8   5  -6    1.13    1.44
   8   5  -5   15.73    3.57
   8   5  -4    2.18    1.63
   8   5  -3    2.10    1.29
  -8  -5   3    2.10    1.42
   8   5  -3    5.02    1.76
   8   5  -2    0.52    1.02
  -8  -5   2    1.97    1.50
   8   5  -2    1.52    0.94
   8   5  -1   -1.02    0.86
  -8  -5   1    2.73    1.77
  -8  -5   0   -0.35    1.44
   8   5   0   -0.02    0.56
  -8  -5  -1    5.48    1.99
   8   5   1    4.73    1.62
  -8  -5  -2   -2.53    1.58
   8   5   2   -0.56    0.81
   8   5   3    4.37    1.46
   8   6  -4    0.80    0.75
   8   6  -3   -2.95    1.20
   8   6  -2   -1.01    0.78
   8   6  -1    2.20    1.20
   8   6   0    1.67    0.88
   8   6   1    0.72    0.44
   8   6   2   -0.44    0.59
   9  -4   0    3.28    1.73
   9  -4   1    2.43    1.63
   9  -4   2   -2.12    1.47
   9  -4   3    3.15    1.79
   9  -3  -4    1.10    1.29
   9  -3  -3    1.99    1.83
   9  -3  -2    1.21    0.87
   9  -3  -1    1.14    1.31
   9  -3  -1    1.95    1.25
   9  -3   0   -0.32    0.82
   9  -3   0   -1.83    1.22
   9  -3   1    1.04    1.10
   9  -3   2    2.17    1.45
   9  -2  -6    0.57    1.33
   9  -2  -5    0.95    0.87
   9  -2  -4   -2.68    1.72
   9  -2  -3    1.33    1.28
   9  -2  -2    1.11    1.52
   9  -2  -1   -0.64    1.49
   9  -2  -1   -0.31    1.33
   9  -2   0    3.95    1.66
   9  -2   0   -0.05    0.70
   9  -2   1    0.67    0.83
   9  -2   2    6.62    2.47
   9  -1  -7    0.60    1.05
   9  -1  -6   -0.41    0.94
   9  -1  -5    1.62    1.36
   9  -1  -4   -0.33    0.92
   9  -1  -3   -0.85    1.15
   9  -1  -2   -1.57    1.41
   9  -1  -1   -0.47    1.05
   9  -1  -1   -0.70    0.91
   9  -1   0    0.56    0.84
   9  -1   0   -0.01    0.86
   9  -1   1    0.85    1.06
   9   0 -11    4.65    1.64
   9   0 -10    2.54    1.25
   9   0  -7   -0.22    1.39
   9   0  -6    4.71    2.39
   9   0  -5    1.92    1.49
   9   0  -4    5.24    2.31
   9   0  -3    2.32    1.60
   9   0  -2    3.34    1.88
   9   0  -1    3.27    1.46
   9   0  -1    5.56    2.48
   9   0   0    0.50    1.02
   9   0   0   -2.79    1.58
   9   1 -11    0.60    0.90
   9   1 -10    1.58    1.06
   9   1  -9    1.36    1.00
   9   1  -8    2.25    1.33
   9   1  -7   -0.07    0.77
   9   1  -6    0.33    0.91
   9   1  -5    2.35    1.21
   9   1  -4    0.55    1.19
   9   1  -4    1.36    1.29
   9   1  -3   -0.10    0.78
   9   1  -2    0.80    1.11
   9   1  -1    2.70    1.40
   9   1  -1    5.89    2.32
   9   1   0    0.20    0.84
   9   2  -9   -0.80    0.93
   9   2  -8    1.60    1.17
   9   2  -7    2.74    1.55
   9   2  -6    1.98    1.59
   9   2  -5    3.50    1.75
   9   2  -4    1.16    0.99
   9   2  -3    0.43    0.75
   9   2  -2    1.28    1.04
   9   2  -2    1.58    1.04
   9   2  -1    3.70    1.73
  -9  -2   1    1.85    1.04
   9   2  -1    1.07    1.03
   9   2   0   -0.13    0.73
   9   2   0   -0.69    0.69
  -9  -2  -1    2.32    0.96
  -9  -2  -2    2.42    1.26
  -9  -2  -3    0.66    0.63
  -9  -2  -4    1.39    1.19
   9   3  -8    1.56    0.95
   9   3  -7    7.24    2.29
   9   3  -6    2.18    1.54
   9   3  -5    1.23    0.99
   9   3  -4    3.42    1.82
   9   3  -3    0.76    0.81
   9   3  -2    1.84    1.37
  -9  -3   2    1.89    1.28
   9   3  -2    0.51    0.70
   9   3  -1    1.24    0.97
  -9  -3   1    1.27    0.80
   9   3  -1   -1.12    0.67
   9   3   0    0.38    0.69
  -9  -3   0   -0.47    1.20
  -9  -3  -1    1.00    1.00
  -9  -3  -2    2.86    1.57
   9   4  -4   -1.37    1.14
   9   4  -3    0.10    0.60
   9   4  -3   -0.13    1.06
   9   4  -2   -1.34    1.02
  -9  -4   2   -1.54    1.18
   9   4  -1   -1.40    1.12
   0   0   0    0.00    0.00


TITL exp_6052 in P-1
REM P-1 (#2 in standard setting)
CELL 0.71073   7.372188   9.069052  14.897398  94.0267  99.7062  91.0477
ZERR    1.00   0.000481   0.001035   0.001413   0.0089   0.0066   0.0072
LATT  1
SFAC C H O Cl
UNIT 40.00 14.00 2.00 4.00
TREF
HKLF 4
END
_computing_structure_solution     'SHELXT 2018/2 (Sheldrick, 2018)'
;
_shelx_hkl_checksum              22133
loop_
_space_group_symop_operation_xyz
'x, y, z'
'-x, -y, -z'
loop_
_atom_site_label
_atom_site_type_symbol
_atom_site_fract_x
_atom_site_fract_y
_atom_site_fract_z
_atom_site_U_iso_or_equiv
_atom_site_adp_type
_atom_site_occupancy
_atom_site_site_symmetry_order
_atom_site_calc_flag
_atom_site_refinement_flags_posn
_atom_site_refinement_flags_adp
_atom_site_refinement_flags_occupancy
_atom_site_disorder_assembly
_atom_site_disorder_group
Cl9 Cl 0.77938(14) 0.88169(12) 0.90621(8) 0.0670(4) Uani 1 1 d . . . . .
Cl8 Cl 0.61956(14) 0.92449(11) 0.69855(8) 0.0658(3) Uani 1 1 d . . . . .
Cl10 Cl 0.38211(14) 0.35169(12) 0.65243(8) 0.0690(4) Uani 1 1 d . . . . .
Cl7 Cl 0.53296(15) 0.31372(12) 0.86139(9) 0.0719(4) Uani 1 1 d . . . . .
O11 O 0.4588(4) 0.6492(3) 0.6037(2) 0.0701(9) Uani 1 1 d . . . . .
O12 O 0.7179(4) 0.5821(3) 0.9517(2) 0.0704(9) Uani 1 1 d . . . . .
C14 C -0.0360(4) 0.5255(4) 0.6843(2) 0.0349(8) Uani 1 1 d . . . . .
C16 C 0.1042(4) 0.7556(4) 0.7423(2) 0.0343(8) Uani 1 1 d . . . . .
C13 C 0.0426(4) 0.5140(4) 0.7763(2) 0.0361(8) Uani 1 1 d . . . . .
C21 C 0.1288(4) 0.6582(4) 0.8121(2) 0.0373(8) Uani 1 1 d . . . . .
C15 C -0.0012(4) 0.6768(4) 0.6582(2) 0.0352(8) Uani 1 1 d . . . . .
C27 C -0.0305(5) 0.8654(4) 0.5390(2) 0.0394(8) Uani 1 1 d . . . . .
C20 C 0.2204(4) 0.7021(4) 0.8994(2) 0.0417(8) Uani 1 1 d . . . . .
H20 H 0.238677 0.635484 0.944591 0.050 Uiso 1 1 calc R U . . .
C28 C 0.1467(5) 0.9275(4) 0.5448(2) 0.0407(8) Uani 1 1 d . . . . .
H28 H 0.246950 0.878667 0.574346 0.049 Uiso 1 1 calc R U . . .
C25 C 0.0286(5) 0.3823(4) 0.8172(3) 0.0436(9) Uani 1 1 d . . . . .
H25 H 0.077530 0.375499 0.878449 0.052 Uiso 1 1 calc R U . . .
C1 C 0.5588(4) 0.4741(4) 0.8118(3) 0.0440(9) Uani 1 1 d . . . . .
C22 C -0.1235(4) 0.4036(4) 0.6330(3) 0.0430(9) Uani 1 1 d . . . . .
H22 H -0.174695 0.409799 0.571975 0.052 Uiso 1 1 calc R U . . .
C3 C 0.6725(4) 0.7412(4) 0.8331(3) 0.0416(8) Uani 1 1 d . . . . .
C26 C -0.0652(4) 0.7241(4) 0.5759(2) 0.0420(9) Uani 1 1 d . . . . .
H26 H -0.143104 0.657367 0.536459 0.050 Uiso 1 1 calc R U . . .
C17 C 0.1651(4) 0.9023(4) 0.7633(2) 0.0416(8) Uani 1 1 d . . . . .
H17 H 0.146517 0.970060 0.718879 0.050 Uiso 1 1 calc R U . . .
C5 C 0.5147(5) 0.6352(4) 0.6830(3) 0.0439(9) Uani 1 1 d . . . . .
C29 C 0.1762(5) 1.0586(4) 0.5080(2) 0.0413(8) Uani 1 1 d . . . . .
H29 H 0.295467 1.097858 0.514491 0.050 Uiso 1 1 calc R U . . .
C4 C 0.6058(4) 0.7598(4) 0.7456(3) 0.0430(9) Uani 1 1 d . . . . .
C2 C 0.6558(5) 0.5975(4) 0.8735(3) 0.0447(9) Uani 1 1 d . . . . .
C18 C 0.2533(5) 0.9463(4) 0.8508(3) 0.0459(9) Uani 1 1 d . . . . .
H18 H 0.292833 1.044450 0.864852 0.055 Uiso 1 1 calc R U . . .
C6 C 0.4941(4) 0.4913(4) 0.7239(3) 0.0444(9) Uani 1 1 d . . . . .
C23 C -0.1339(5) 0.2718(4) 0.6741(3) 0.0489(10) Uani 1 1 d . . . . .
H23 H -0.191662 0.189195 0.639808 0.059 Uiso 1 1 calc R U . . .
C19 C 0.2838(5) 0.8471(4) 0.9176(3) 0.0477(9) Uani 1 1 d . . . . .
H19 H 0.347539 0.878277 0.975305 0.057 Uiso 1 1 calc R U . . .
C24 C -0.0602(5) 0.2608(4) 0.7648(3) 0.0488(9) Uani 1 1 d . . . . .
H24 H -0.069914 0.171503 0.790981 0.059 Uiso 1 1 calc R U . . .
loop_
_atom_site_aniso_label
_atom_site_aniso_U_11
_atom_site_aniso_U_22
_atom_site_aniso_U_33
_atom_site_aniso_U_23
_atom_site_aniso_U_13
_atom_site_aniso_U_12
Cl9 0.0578(6) 0.0610(7) 0.0770(8) -0.0236(6) 0.0091(5) -0.0080(5)
Cl8 0.0644(6) 0.0538(7) 0.0855(9) 0.0235(6) 0.0228(6) 0.0057(5)
Cl10 0.0560(6) 0.0660(7) 0.0750(8) -0.0230(6) -0.0049(5) -0.0043(5)
Cl7 0.0740(7) 0.0600(7) 0.0834(9) 0.0233(6) 0.0128(6) -0.0105(6)
O11 0.080(2) 0.081(2) 0.0475(19) 0.0119(16) 0.0016(15) 0.0217(17)
O12 0.083(2) 0.080(2) 0.0424(18) 0.0069(16) -0.0052(15) 0.0014(17)
C14 0.0345(16) 0.0346(18) 0.038(2) 0.0040(15) 0.0110(15) 0.0052(14)
C16 0.0332(16) 0.0341(18) 0.037(2) 0.0012(15) 0.0099(14) 0.0050(14)
C13 0.0352(17) 0.0378(19) 0.037(2) 0.0046(15) 0.0088(15) 0.0055(15)
C21 0.0349(17) 0.039(2) 0.039(2) 0.0028(16) 0.0092(15) 0.0067(15)
C15 0.0334(16) 0.0360(19) 0.036(2) 0.0035(15) 0.0059(14) 0.0037(15)
C27 0.051(2) 0.040(2) 0.0268(19) 0.0022(15) 0.0055(15) 0.0022(17)
C20 0.0464(19) 0.041(2) 0.036(2) 0.0052(16) 0.0037(16) 0.0041(16)
C28 0.0403(18) 0.043(2) 0.039(2) 0.0088(16) 0.0029(16) 0.0090(16)
C25 0.051(2) 0.038(2) 0.044(2) 0.0119(16) 0.0096(17) 0.0076(17)
C1 0.0387(18) 0.041(2) 0.055(3) 0.0053(18) 0.0134(17) 0.0021(16)
C22 0.047(2) 0.039(2) 0.043(2) 0.0000(16) 0.0098(17) 0.0037(17)
C3 0.0405(18) 0.042(2) 0.042(2) -0.0073(17) 0.0119(16) -0.0007(16)
C26 0.0442(19) 0.039(2) 0.043(2) 0.0042(16) 0.0072(16) 0.0019(16)
C17 0.0469(19) 0.037(2) 0.041(2) 0.0024(16) 0.0098(16) 0.0029(16)
C5 0.0375(18) 0.054(2) 0.041(2) 0.0047(18) 0.0073(16) 0.0149(17)
C29 0.0442(18) 0.044(2) 0.035(2) 0.0063(16) 0.0021(16) 0.0030(16)
C4 0.0394(18) 0.039(2) 0.054(2) 0.0040(17) 0.0150(17) 0.0073(16)
C2 0.0404(18) 0.051(2) 0.042(2) -0.0002(18) 0.0060(17) 0.0044(17)
C18 0.051(2) 0.035(2) 0.049(2) -0.0065(17) 0.0075(18) -0.0044(17)
C6 0.0362(18) 0.046(2) 0.048(2) -0.0068(18) 0.0027(16) 0.0032(16)
C23 0.059(2) 0.033(2) 0.057(3) -0.0020(17) 0.018(2) -0.0056(17)
C19 0.048(2) 0.052(2) 0.041(2) -0.0041(18) 0.0028(17) -0.0007(18)
C24 0.058(2) 0.035(2) 0.056(3) 0.0121(18) 0.0161(19) 0.0034(18)
loop_
_atom_type_symbol
_atom_type_description
_atom_type_scat_dispersion_real
_atom_type_scat_dispersion_imag
_atom_type_scat_source
C C 0.0033 0.0016 'International Tables Vol C Tables 4.2.6.8 and 6.1.1.4'
H H 0.0000 0.0000 'International Tables Vol C Tables 4.2.6.8 and 6.1.1.4'
Cl Cl 0.1484 0.1585 'International Tables Vol C Tables 4.2.6.8 and 6.1.1.4'
O O 0.0106 0.0060 'International Tables Vol C Tables 4.2.6.8 and 6.1.1.4'
loop_
_geom_angle_atom_site_label_1
_geom_angle_atom_site_label_2
_geom_angle_atom_site_label_3
_geom_angle
_geom_angle_site_symmetry_1
_geom_angle_site_symmetry_3
_geom_angle_publ_flag
C22 C14 C13 119.9(3) . . ?
C22 C14 C15 130.5(3) . . ?
C13 C14 C15 109.5(3) . . ?
C17 C16 C21 118.4(3) . . ?
C17 C16 C15 132.5(3) . . ?
C21 C16 C15 108.9(3) . . ?
C25 C13 C14 120.6(3) . . ?
C25 C13 C21 131.6(3) . . ?
C14 C13 C21 107.8(3) . . ?
C20 C21 C16 121.8(3) . . ?
C20 C21 C13 129.3(3) . . ?
C16 C21 C13 108.9(3) . . ?
C26 C15 C14 123.8(3) . . ?
C26 C15 C16 131.2(3) . . ?
C14 C15 C16 104.9(3) . . ?
C28 C27 C29 117.0(3) . 2_576 ?
C28 C27 C26 122.6(3) . . ?
C29 C27 C26 120.3(3) 2_576 . ?
C19 C20 C21 118.4(3) . . ?
C29 C28 C27 121.6(3) . . ?
C13 C25 C24 118.7(3) . . ?
C6 C1 C2 121.4(4) . . ?
C6 C1 Cl7 123.1(3) . . ?
C2 C1 Cl7 115.5(3) . . ?
C14 C22 C23 119.0(3) . . ?
C4 C3 C2 122.2(3) . . ?
C4 C3 Cl9 122.3(3) . . ?
C2 C3 Cl9 115.5(3) . . ?
C15 C26 C27 129.5(3) . . ?
C18 C17 C16 119.5(3) . . ?
O11 C5 C4 121.9(4) . . ?
O11 C5 C6 121.4(4) . . ?
C4 C5 C6 116.7(3) . . ?
C28 C29 C27 121.4(3) . 2_576 ?
C3 C4 C5 121.2(3) . . ?
C3 C4 Cl8 122.9(3) . . ?
C5 C4 Cl8 115.8(3) . . ?
O12 C2 C3 121.5(4) . . ?
O12 C2 C1 121.8(4) . . ?
C3 C2 C1 116.7(3) . . ?
C19 C18 C17 121.2(4) . . ?
C1 C6 C5 121.7(3) . . ?
C1 C6 Cl10 122.1(3) . . ?
C5 C6 Cl10 116.1(3) . . ?
C24 C23 C22 121.4(3) . . ?
C20 C19 C18 120.6(3) . . ?
C23 C24 C25 120.4(3) . . ?
loop_
_geom_bond_atom_site_label_1
_geom_bond_atom_site_label_2
_geom_bond_distance
_geom_bond_site_symmetry_2
_geom_bond_publ_flag
Cl9 C3 1.705(3) . ?
Cl8 C4 1.703(4) . ?
Cl10 C6 1.701(4) . ?
Cl7 C1 1.698(4) . ?
O11 C5 1.201(4) . ?
O12 C2 1.196(4) . ?
C14 C22 1.382(5) . ?
C14 C13 1.407(4) . ?
C14 C15 1.481(5) . ?
C16 C17 1.394(4) . ?
C16 C21 1.403(5) . ?
C16 C15 1.486(4) . ?
C13 C25 1.389(5) . ?
C13 C21 1.468(5) . ?
C21 C20 1.388(5) . ?
C15 C26 1.340(4) . ?
C27 C28 1.399(5) . ?
C27 C29 1.400(4) 2_576 ?
C27 C26 1.465(5) . ?
C20 C19 1.380(5) . ?
C28 C29 1.373(5) . ?
C25 C24 1.390(5) . ?
C1 C6 1.338(5) . ?
C1 C2 1.488(5) . ?
C22 C23 1.387(5) . ?
C3 C4 1.337(5) . ?
C3 C2 1.485(5) . ?
C17 C18 1.382(5) . ?
C5 C4 1.487(5) . ?
C5 C6 1.494(5) . ?
C18 C19 1.382(5) . ?
C23 C24 1.380(5) . ?
