#------------------------------------------------------------------------------
#$Date: 2020-10-03 00:23:57 +0300 (Sat, 03 Oct 2020) $
#$Revision: 256946 $
#$URL: file:///home/coder/svn-repositories/cod/cif/4/51/81/4518109.cif $
#------------------------------------------------------------------------------
#
# This file is available in the Crystallography Open Database (COD),
# http://www.crystallography.net/
#
# All data on this site have been placed in the public domain by the
# contributors.
#
data_4518109
loop_
_publ_author_name
'Wagener, Tobias'
'Heusler, Arne'
'Nairoukh, Zackaria'
'Bergander, Klaus'
'Daniliuc, Constantin G.'
'Glorius, Frank'
_publ_section_title
;
 Accessing (Multi)Fluorinated Piperidines Using Heterogeneous
 Hydrogenation
;
_journal_name_full               'ACS Catalysis'
_journal_page_first              12052
_journal_page_last               12057
_journal_paper_doi               10.1021/acscatal.0c03278
_journal_year                    2020
_chemical_formula_sum            'C5 H8 F N O'
_chemical_formula_weight         117.12
_space_group_crystal_system      monoclinic
_space_group_IT_number           14
_space_group_name_Hall           '-P 2ybc'
_space_group_name_H-M_alt        'P 1 21/c 1'
_atom_sites_solution_hydrogens   mixed
_audit_creation_method           'APEX3 v2016.1-0'
_cell_angle_alpha                90
_cell_angle_beta                 112.366(6)
_cell_angle_gamma                90
_cell_formula_units_Z            4
_cell_length_a                   10.9416(17)
_cell_length_b                   5.8946(9)
_cell_length_c                   8.9783(13)
_cell_measurement_reflns_used    3456
_cell_measurement_temperature    100.(2)
_cell_measurement_theta_max      27.4804
_cell_measurement_theta_min      4.0008
_cell_volume                     535.51(14)
_computing_cell_refinement       'SAINT V8.37A (Bruker AXS Inc., 2015)'
_computing_data_collection
;

APEX3 v2016.1-0 (Bruker AXS Inc., 2016)
;
_computing_data_reduction        'SAINT V8.37A (Bruker AXS Inc., 2015)'
_computing_molecular_graphics    'XP (Sheldrick, 2014)'
_computing_publication_material  'SHELXL-2014/7 (Sheldrick, 2014)'
_computing_structure_refinement  'SHELXL-2014/7 (Sheldrick, 2014)'
_computing_structure_solution    'SHELXL-2014/7 (Sheldrick, 2014)'
_diffrn_ambient_temperature      100.(2)
_diffrn_detector_area_resol_mean 7.3910
_diffrn_measured_fraction_theta_full 0.990
_diffrn_measured_fraction_theta_max 0.990
_diffrn_measurement_device_type  'Bruker D8 Venture PHOTON 100 CMOS'
_diffrn_measurement_method       'omega and phi scans'
_diffrn_radiation_monochromator  'MX mirror'
_diffrn_radiation_type           'Mo K\a'
_diffrn_radiation_wavelength     0.71073
_diffrn_reflns_av_R_equivalents  0.0235
_diffrn_reflns_av_unetI/netI     0.0165
_diffrn_reflns_limit_h_max       14
_diffrn_reflns_limit_h_min       -13
_diffrn_reflns_limit_k_max       7
_diffrn_reflns_limit_k_min       -7
_diffrn_reflns_limit_l_max       11
_diffrn_reflns_limit_l_min       -10
_diffrn_reflns_number            6571
_diffrn_reflns_theta_full        27.49
_diffrn_reflns_theta_max         27.49
_diffrn_reflns_theta_min         4.00
_diffrn_source                   'Mo ImS'
_diffrn_source_type              'micro focus tube'
_exptl_absorpt_coefficient_mu    0.124
_exptl_absorpt_correction_T_max  0.99
_exptl_absorpt_correction_T_min  0.93
_exptl_absorpt_correction_type   multi-scan
_exptl_absorpt_process_details
;
Bruker AXS (2014). SADABS, Version 2014/5, Bruker AXS Inc., Madison, Wisconsin,
USA.
;
_exptl_crystal_colour            colourless
_exptl_crystal_density_diffrn    1.453
_exptl_crystal_density_method    'not measured'
_exptl_crystal_description       plate
_exptl_crystal_F_000             248
_exptl_crystal_size_max          0.558
_exptl_crystal_size_mid          0.210
_exptl_crystal_size_min          0.060
_refine_diff_density_max         0.411
_refine_diff_density_min         -0.168
_refine_ls_extinction_method     none
_refine_ls_goodness_of_fit_ref   1.074
_refine_ls_hydrogen_treatment    mixed
_refine_ls_matrix_type           full
_refine_ls_number_parameters     114
_refine_ls_number_reflns         1216
_refine_ls_number_restraints     94
_refine_ls_restrained_S_all      1.049
_refine_ls_R_factor_all          0.0400
_refine_ls_R_factor_gt           0.0383
_refine_ls_shift/su_max          0.000
_refine_ls_shift/su_mean         0.000
_refine_ls_structure_factor_coef Fsqd
_refine_ls_weighting_details
'w=1/[\s^2^(Fo^2^)+(0.0355P)^2^+0.3287P] where P=(Fo^2^+2Fc^2^)/3'
_refine_ls_weighting_scheme      calc
_refine_ls_wR_factor_gt          0.0924
_refine_ls_wR_factor_ref         0.0934
_reflns_number_gt                1163
_reflns_number_total             1216
_reflns_threshold_expression     'I > 2\s(I)'
_cod_data_source_file            cs0c03278_si_002.cif
_cod_data_source_block           glo9747
_cod_database_code               4518109
_shelx_res_file
;


    glo9747.res created by SHELXL-2014/7


TITL glo9747.res in P2(1)/c
CELL  0.71073  10.9416   5.8946   8.9783   90.000  112.366   90.000
ZERR    4.000   0.0017   0.0009   0.0013    0.000    0.006    0.000
LATT 1
SYMM -X, 1/2+Y, 1/2-Z
SFAC C  H  N  O  F
UNIT 20  32  4  4  4
SIZE 0.06 0.21 0.558
TEMP -173.150
ACTA
CONF

L.S. 40
BOND $H
FMAP 2
PLAN 10

HTAB

EQIV $1 -x+1, y+1/2, -z+3/2
HTAB N1 O1_$1

OMIT  6   0   6

WGHT    0.035500    0.328700
FVAR       2.30612   0.89333
O1    4    0.367187    0.275421    0.697963    11.00000    0.01786    0.02004 =
         0.02164    0.00629    0.00195    0.00224
N1    3    0.390338    0.595063    0.571753    11.00000    0.01309    0.01736 =
         0.01514   -0.00127    0.00186   -0.00112
H1    2    0.465721    0.622990    0.654291    11.00000    0.02365
SIMU 0.02 0.04 0.9 C1 > C4A
SAME C1 C5 C2A F1A C3A C4A
SADI c1 c2
SADI c2 c3 c3 c4 c4 c5
SADI c2 f1

ISOR 0.007 C2 > C4A

C1    1    0.324864    0.410012    0.583971    11.00000    0.01370    0.01532 =
         0.01762   -0.00118    0.00463    0.00192
C5    1    0.342563    0.775872    0.451481    11.00000    0.02190    0.01680 =
         0.01991    0.00220    0.00808   -0.00231
PART 1 21
AFIX  23
H5A   2    0.414223    0.819886    0.415421    21.00000   -1.20000
H5B   2    0.319977    0.910409    0.501906    21.00000   -1.20000
AFIX  23
PART 2 -21
H5C   2    0.392154    0.772260    0.379454   -21.00000   -1.20000
H5D   2    0.357925    0.925096    0.506149   -21.00000   -1.20000
AFIX   0
PART 0
PART 1 21
C2    1    0.194461    0.362512    0.442585    21.00000    0.01482    0.01654 =
         0.01639    0.00095    0.00387   -0.00387
AFIX  13
H2    2    0.213507    0.265378    0.362661    21.00000   -1.20000
AFIX   0
F1    5    0.114731    0.239057    0.504087    21.00000    0.01805    0.03092 =
         0.02720    0.00881    0.00438   -0.00972
C3    1    0.124890    0.574331    0.358152    21.00000    0.01282    0.02191 =
         0.01747    0.00314    0.00266    0.00184
AFIX  23
H3A   2    0.097621    0.667617    0.431896    21.00000   -1.20000
H3B   2    0.045072    0.534212    0.263060    21.00000   -1.20000
AFIX   0
C4    1    0.222231    0.705312    0.306186    21.00000    0.01973    0.01791 =
         0.01493    0.00249    0.00642    0.00133
AFIX  23
H4A   2    0.250275    0.609034    0.234550    21.00000   -1.20000
H4B   2    0.178319    0.841869    0.244940    21.00000   -1.20000
AFIX   0
PART 2 -21
C2A   1    0.174034    0.396554    0.483524   -21.00000    0.02701    0.02799 =
         0.02306   -0.00456    0.00355   -0.00224
AFIX  13
H2A   2    0.123526    0.476064    0.540353   -21.00000   -1.20000
AFIX   0
F1A   5    0.141899    0.168088    0.465243   -21.00000    0.02221    0.02485 =
         0.04636   -0.00154   -0.00141   -0.00415
C3A   1    0.148533    0.505112    0.323592   -21.00000    0.01751    0.03028 =
         0.02961   -0.01023    0.00248    0.00641
AFIX  23
H3A1  2    0.196293    0.422056    0.266443   -21.00000   -1.20000
H3A2  2    0.052865    0.501092    0.256269   -21.00000   -1.20000
AFIX   0
C4A   1    0.195718    0.745799    0.352501   -21.00000    0.01851    0.03309 =
         0.01958    0.00466    0.00483    0.00678
AFIX  23
H4A1  2    0.145457    0.825549    0.407988   -21.00000   -1.20000
H4A2  2    0.174737    0.820468    0.246874   -21.00000   -1.20000

PART 0

AFIX   0
HKLF 4

REM  glo9747.res in P2(1)/c
REM R1 =  0.0383 for    1163 Fo > 4sig(Fo)  and  0.0400 for all    1216 data
REM    114 parameters refined using     94 restraints

END

WGHT      0.0360      0.3235

REM Instructions for potential hydrogen bonds
HTAB N1 O1_$1
EQIV $2 x, -y+1/2, z-1/2
HTAB C2 O1_$2
HTAB C3A O1_$2
HTAB C3A F1A_$2
EQIV $3 -x, y+1/2, -z+1/2
HTAB C3A F1A_$3
EQIV $4 x, y+1, z
HTAB C4A F1A_$4

REM Highest difference peak  0.411,  deepest hole -0.168,  1-sigma level  0.040
Q1    1   0.2594  0.3950  0.5182  11.00000  0.05    0.41
Q2    1   0.2803  0.7375  0.3779  11.00000  0.05    0.28
Q3    1   0.1783  0.6263  0.3360  11.00000  0.05    0.28
Q4    1   0.1560  0.4636  0.4057  11.00000  0.05    0.25
Q5    1   0.3607  0.6801  0.5128  11.00000  0.05    0.21
Q6    1   0.3604  0.4904  0.5597  11.00000  0.05    0.19
Q7    1   0.3387  0.5402  0.5970  11.00000  0.05    0.19
Q8    1   0.3195  0.3919  0.6741  11.00000  0.05    0.13
Q9    1   0.4172  0.8860  0.4771  11.00000  0.05    0.13
Q10   1   0.4321  0.2752  0.7979  11.00000  0.05    0.11
;
_shelx_res_checksum              17594
_shelx_hkl_file
;
   0   0   1   -0.30    0.50
   0   0   1    0.10    0.40
   0   0   3    1.40    1.00
   0   0   3   -0.60    1.20
   0   0   4 1277.07   30.70
   0   0   4 1335.87   28.10
   0   0   5   12.20    2.80
   0   0   6   74.19    6.00
   0   0   7   21.60    4.60
   0   0   8 1299.77   42.70
   0   0   8 1314.17   29.90
   0   0   9    4.00    3.20
   0   0   9    0.90    1.60
   0   0   9    3.70    4.40
   0   0  10   32.60   10.30
   0   0  10   26.80    3.40
   0   0  10   37.90    9.40
   0   1   0    0.00    1.10
   0   1   0   -0.10    1.20
   0  -1   0    0.90    1.40
   0  -1   0    0.50    1.20
   0   1  -2 5736.33  116.19
   0   1  -2 5758.42  116.79
   0  -1   2 5858.91  116.59
   0   1  -3 1215.18   29.50
   0   1  -3 1284.47   28.00
   0   1   3 1332.47   26.80
   0   1   3 1299.77   28.10
   0   1   3 1297.77   30.20
   0  -1   3 1326.17   29.20
   0  -1   3 1280.37   30.20
   0   1   4 3152.18   61.49
   0   1   4 3061.19   67.19
   0   1  -4 2912.81   65.19
   0  -1   4 2988.00   65.99
   0  -1   4 3158.88   64.29
   0   1  -5  677.93   19.10
   0   1   5  692.13   15.20
   0   1   5  640.44   21.20
   0  -1   5  657.93   19.80
   0  -1   5  663.23   17.70
   0   1   6  929.51   29.00
   0   1   6  959.10   21.20
   0   1   6  929.01   25.70
   0  -1   6  940.51   23.70
   0  -1   6  979.10   27.20
   0   1   7  566.54   22.50
   0   1   7  587.84   14.30
   0   1   7  576.84   19.40
   0  -1   7  573.34   16.60
   0  -1   7  550.94   20.00
   0   1   8   16.00    5.40
   0   1   8   11.90    3.60
   0   1   8   10.50    2.20
   0  -1   8    6.90    2.70
   0   1   9  127.29   11.40
   0   1   9  136.19    6.20
   0   1   9  167.58   13.30
   0  -1   9  142.09    7.40
   0  -1   9  135.69   13.60
   0  -1   9  159.78   15.40
   0   1  10   10.70    5.20
   0   1  10    9.20    2.50
   0  -1  10   15.80    3.10
   0   2   1 1077.59   25.70
   0   2   1 1084.99   25.90
   0   2  -1 1047.00   26.00
   0  -2   1 1021.50   27.80
   0  -2  -1 1050.39   24.80
   0  -2   1 1083.99   25.80
   0  -2  -1 1089.09   25.80
   0   2  -2  227.08    8.70
   0   2  -2  225.48    9.10
   0   2   2  233.38    8.80
   0  -2  -2  233.78    7.30
   0  -2   2  220.68    9.10
   0  -2  -2  227.58    8.40
   0   2  -3 1500.25   35.20
   0   2   3 1531.75   33.70
   0   2  -3 1495.55   34.70
   0   2   3 1465.65   34.40
   0  -2   3 1499.95   35.50
   0  -2  -3 1508.45   33.30
   0  -2   3 1486.15   35.80
   0   2   4 3509.45   74.69
   0   2  -4 3506.55   74.49
   0   2   4 3757.82   73.69
   0   2  -4 3481.05   76.19
   0  -2   4 3483.45   77.29
   0  -2   4 3589.44   76.39
   0  -2  -4 3493.25   71.89
   0  -2  -4 3571.74   70.79
   0   2   5 1341.77   29.90
   0   2  -5 1280.77   29.70
   0  -2   5 1343.27   32.80
   0  -2   5 1301.77   34.40
   0   2  -6 1465.05   36.90
   0   2   6 1446.86   32.50
   0  -2   6 1416.56   35.60
   0  -2   6 1416.66   38.10
   0   2  -7   31.70    4.90
   0   2   7   44.30    4.10
   0  -2   7   48.40    5.10
   0   2   8  132.99    6.50
   0   2   8  142.09   10.30
   0   2   8  129.99    9.20
   0  -2   8  126.99    7.90
   0   2   9    8.10    4.70
   0   2   9    1.20    2.20
   0   2   9    5.50    3.90
   0  -2   9    4.60    2.70
   0  -2   9   -1.70    2.70
   0   2  10  186.68    9.40
   0  -2  10  235.38   10.70
   0  -2  10  227.58   21.00
   0   3   0   -2.40    2.60
   0   3   0    0.60    3.00
   0  -3   0    1.10    3.00
   0  -3   0    3.20    3.20
   0   3  -1  148.69    8.40
   0   3   1  134.79    8.00
   0   3   1  141.49    7.90
   0  -3  -1  140.49    8.10
   0  -3   1  143.49    8.40
   0  -3  -1  144.19    7.40
   0  -3   1  136.69    8.00
   0   3  -2 1270.97   32.80
   0   3   2 1337.17   33.40
   0   3   2 1339.67   33.00
   0   3  -2 1327.37   33.50
   0  -3  -2 1331.87   32.70
   0  -3   2 1298.27   33.20
   0  -3   2 1337.07   34.00
   0  -3  -2 1335.17   31.00
   0   3  -3  878.51   24.20
   0   3   3  858.91   23.50
   0   3   3  875.11   24.10
   0  -3  -3  853.71   22.80
   0  -3  -3  841.32   20.50
   0  -3   3  886.91   25.00
   0  -3   3  831.62   23.90
   0   3  -4   16.20    3.80
   0   3   4   18.20    3.70
   0   3  -4   14.90    3.40
   0   3   4   20.10    3.90
   0  -3  -4   17.70    2.10
   0  -3   4   16.10    3.90
   0   3  -5   49.50    5.60
   0   3  -5   48.40    5.10
   0   3   5   48.70    5.40
   0   3   5   52.29    5.20
   0  -3  -5   48.20    3.70
   0  -3   5   47.20    6.20
   0  -3  -5   53.39    3.50
   0   3  -6 2893.01   67.69
   0   3   6 2950.20   64.59
   0   3  -6 2926.01   62.59
   0  -3   6 2860.51   67.09
   0  -3   6 2926.61   69.69
   0   3  -7  514.35   19.00
   0   3   7  470.65   16.10
   0  -3   7  474.35   18.00
   0   3   8   15.40    3.70
   0   3  -8    3.90    3.50
   0  -3   8    9.20    3.50
   0  -3   8    5.60    3.30
   0   3   9   17.00    4.50
   0  -3   9   12.60    4.10
   0  -3   9    8.10    4.80
   0   4   0  334.17   13.50
   0   4   0  308.17   13.80
   0  -4   0  324.57   13.40
   0  -4   0  324.37   14.00
   0   4   1  115.29    8.30
   0   4   1  101.99    7.70
   0   4  -1   99.59    7.90
   0  -4   1   99.79    8.00
   0  -4  -1  105.79    7.80
   0  -4   1  118.49    8.10
   0  -4  -1  120.69    7.60
   0   4  -2  199.58   11.00
   0   4   2  215.68   11.40
   0   4  -2  199.48   10.30
   0   4   2  200.98   10.70
   0  -4   2  195.08   10.80
   0  -4  -2  194.78   10.30
   0  -4  -2  204.38    9.30
   0  -4   2  208.18   11.40
   0   4  -3  649.83   20.90
   0   4   3  612.94   21.00
   0   4  -3  639.34   21.30
   0   4   3  624.94   20.90
   0  -4  -3  627.14   17.60
   0  -4   3  613.54   21.30
   0  -4   3  645.44   22.00
   0  -4  -3  597.84   19.70
   0   4  -4  897.21   27.10
   0   4  -4  922.21   27.00
   0   4   4  900.11   26.80
   0   4   4  870.41   26.60
   0  -4   4  930.31   29.60
   0  -4  -4  888.31   21.70
   0  -4  -4  896.41   24.80
   0  -4   4  898.01   28.10
   0   4   5   13.70    4.40
   0   4   5    7.40    3.60
   0   4  -5    8.80    3.50
   0   4  -5    9.40    3.70
   0  -4  -5    7.00    2.60
   0  -4   5   13.60    4.50
   0  -4  -5    7.80    1.80
   0  -4   5    5.20    3.60
   0   4  -6 1446.96   36.50
   0   4   6 1472.45   38.70
   0   4  -6 1462.55   39.80
   0  -4   6 1448.76   40.00
   0  -4   6 1446.06   40.40
   0   4  -7   82.89    8.30
   0   4   7  110.79    9.70
   0  -4   7  105.09    9.10
   0  -4   7   94.79    9.00
   0   4  -8   40.70    6.50
   0   4   8   33.20    5.80
   0  -4   8   41.10    6.70
   0  -4   8   50.69    7.30
   0   4   9  260.17   13.20
   0   4  -9  246.08   14.30
   0  -4   9  268.67   14.20
   0   5   0   19.40    5.80
   0   5   0   27.90    5.80
   0  -5   0   21.60    4.70
   0  -5   0   27.10    5.50
   0   5   1 1871.81   49.10
   0   5  -1 1867.51   49.10
   0  -5  -1 1847.02   48.40
   0  -5  -1 1869.91   46.80
   0  -5   1 1857.81   48.40
   0   5   2 1057.59   32.60
   0   5  -2 1075.89   31.80
   0   5   2 1103.39   36.50
   0   5  -2 1074.99   32.70
   0  -5   2 1063.39   33.10
   0  -5  -2 1099.39   29.80
   0  -5   2 1062.99   33.30
   0  -5  -2 1033.90   31.40
   0   5  -3  895.71   28.60
   0   5   3  931.41   29.50
   0   5  -3  920.71   29.40
   0   5   3  951.70   29.80
   0  -5   3  895.21   29.80
   0  -5  -3  909.21   25.50
   0  -5   3  941.11   30.60
   0  -5  -3  954.60   28.30
   0   5  -4   21.50    5.40
   0   5   4   19.50    5.40
   0   5  -4   17.40    4.90
   0   5   4   19.10    5.20
   0  -5   4   15.60    5.10
   0  -5  -4   19.10    3.30
   0  -5   4   25.70    6.00
   0  -5  -4   19.40    4.10
   0   5   5 1108.19   33.60
   0   5  -5 1159.48   33.00
   0   5  -5 1079.19   33.30
   0   5   5 1097.89   33.90
   0  -5  -5 1120.39   29.50
   0  -5  -5 1109.79   26.10
   0  -5   5 1130.79   35.20
   0  -5   5 1102.69   34.80
   0   5   6  375.86   17.50
   0   5  -6  379.56   17.40
   0   5  -6  369.76   15.60
   0  -5   6  380.46   18.10
   0  -5  -6  355.36    9.90
   0  -5   6  387.56   18.30
   0  -5  -6  381.36   11.70
   0   5  -7    9.30    4.50
   0   5   7    3.50    3.90
   0  -5   7   12.40    4.60
   0   5   8   68.89    8.10
   0   5  -8   64.69    8.00
   0  -5   8   80.19   10.20
   0  -5   8   67.49   11.50
   0  -6   0 2560.34   65.39
   0   6  -1  583.74   23.50
   0   6   1  518.75   22.80
   0   6   1  563.84   22.50
   0  -6   1  553.94   23.20
   0  -6   1  622.54   25.10
   0  -6  -1  557.64   22.60
   0   6  -2  281.67   14.90
   0   6   2  301.17   16.20
   0   6  -2  291.57   16.00
   0   6   2  301.17   16.00
   0  -6  -2  287.57   15.30
   0  -6   2  290.37   16.40
   0   6   3   45.60    7.40
   0   6  -3   47.70    6.60
   0   6   3   50.19    8.40
   0   6  -3   48.20    8.00
   0  -6  -3   46.10    6.60
   0  -6   3   41.50    7.60
   0  -6  -3   41.70    5.90
   0  -6   3   56.49    8.80
   0   6   4   41.40    8.10
   0   6  -4   41.60    7.70
   0   6  -4   19.70    4.80
   0   6   4   31.30    6.70
   0  -6  -4   30.20    4.50
   0  -6   4   21.40    5.50
   0  -6   4   37.20    7.70
   0   6  -5   -0.10    3.00
   0   6  -5    2.30    2.90
   0   6   5    2.10    3.70
   0  -6   5    3.30    3.30
   0  -6  -5    1.90    2.50
   0  -6  -5    0.90    1.90
   0  -6   5   -0.40    3.70
   0   6  -6    4.10    3.60
   0   6   6   14.30    4.70
   0  -6  -6    5.50    1.80
   0  -6   6   11.40    4.40
   0  -6  -6    2.90    2.10
   0   7   0   49.70    8.00
   0  -7   0   42.60    6.90
   0   7  -1    1.60    4.10
   0   7  -1    0.20    2.80
   0   7   1    6.40    4.60
   0  -7   1    3.30    3.70
   0  -7  -1    1.30    3.40
   0  -7   1    0.10    3.70
   0  -7  -1    1.60    3.00
   0   7   2   20.60    5.80
   0   7  -2   19.80    5.70
   0   7  -2   10.80    4.60
   0  -7   2   12.50    5.80
   0  -7  -2   25.00    5.50
   0  -7  -2   21.10    5.10
   0   7   3  750.52   29.50
   0   7  -3  817.92   30.20
   0  -7   3  767.82   30.60
   0  -7  -3  765.62   25.20
   0  -7  -3  800.22   28.00
   0   7  -4   -0.20    2.70
   0   7   4    2.20    3.70
   0   7  -4    1.50    4.30
   0  -7  -4    7.80    3.30
   0  -7  -4    1.30    2.80
   0  -7   4    6.30    5.50
  -1   0  11    1.10    1.80
  -1   0  10  155.18    6.40
  -1   0  10  133.49   11.00
  -1   0  10  154.38   14.80
  -1   0   9    3.40    2.00
  -1   0   9    4.70    3.50
  -1   0   9    0.80    4.30
  -1   0   8   80.79    7.60
  -1   0   7    0.00    2.50
  -1   0   7   -4.00    3.60
  -1   0   6 1493.35   37.30
  -1   0   6 1539.35   43.30
  -1   0   6 1519.85   32.50
  -1   0   5   -2.60    2.90
  -1   0   5    1.60    2.00
  -1   0   5    0.10    1.20
  -1   0   4  692.13   22.10
  -1   0   4  677.03   18.10
  -1   0   3   -0.20    1.10
  -1   0   3    0.20    2.30
   1   0  -2   23.20    2.00
  -1   0   2   24.80    2.10
  -1   0   2   20.50    3.40
  -1   0   1   -0.40    1.20
   1   0  -1   -0.70    1.10
  -1   0   1    0.20    0.50
   1   0  -1    0.00    0.40
  -1   0  -1   -0.10    0.90
   1   0   1    0.00    0.80
   1   0   2 1859.91   37.50
  -1   0  -2 1786.12   37.70
   1   0   3   -0.30    1.50
  -1   0  -3   -1.20    1.30
   1   0   3   -0.30    1.30
   1   0   4  692.73   19.10
   1   0   4  730.53   16.90
  -1   0  -4  705.83   16.10
   1   0   5   -0.40    1.40
   1   0   5    0.10    2.00
   1   0   6 1747.73   45.90
   1   0   6 1770.62   38.40
   1   0   7   -0.90    1.80
   1   0   8 3945.11   82.09
   1   0   9   -0.20    1.80
   1   0   9    1.20    3.80
   1   0   9   -0.10    2.70
   1   0  10   36.30    4.00
   1   0  10   47.00   10.80
  -1   1  10  147.99   11.20
  -1   1  10  159.28   14.30
  -1   1  10  154.18    6.40
  -1  -1  10  130.19   14.60
  -1  -1  10  171.18    7.70
  -1  -1  10  160.78   11.90
  -1   1   9  212.18   16.60
  -1   1   9  246.38    7.90
  -1   1   9  244.28   13.10
  -1  -1   9  242.48    9.60
  -1  -1   9  220.18   13.60
  -1  -1   9  230.88   17.90
  -1   1   8   32.50    7.50
  -1   1   8   27.50    2.80
  -1   1   8   21.70    4.90
  -1  -1   8   30.00    4.00
  -1  -1   8   34.70    8.90
  -1   1   7   94.39    9.50
  -1   1   7   94.79    5.60
  -1   1   7   95.49    7.20
  -1  -1   7   84.19    5.60
  -1  -1   7  100.99    7.80
  -1  -1   7   97.59   12.90
   1   1  -6 1366.66   33.90
  -1   1   6 1388.76   28.40
  -1   1   6 1375.36   38.00
  -1   1   6 1279.17   33.30
  -1  -1   6 1370.16   31.60
  -1  -1   6 1354.06   35.00
  -1   1   5 1322.97   26.50
   1   1  -5 1272.17   31.40
  -1   1   5 1231.68   34.00
  -1   1   5 1276.47   27.70
  -1   1   5 1285.47   30.90
  -1  -1   5 1307.27   29.40
  -1  -1   5 1277.57   32.30
   1   1  -4  380.46   12.50
  -1   1   4  413.06   10.10
  -1   1   4  430.56    9.00
  -1   1   4  375.46   14.10
  -1  -1   4  379.16   13.00
  -1  -1   4  415.96   11.40
  -1   1   3  237.18    9.30
   1   1  -3  213.58    8.10
  -1   1   3  259.87    5.80
  -1   1   3  246.18    6.60
  -1  -1   3  249.68    7.60
  -1  -1   3  221.48    8.40
  -1   1   2 2351.36   48.90
  -1   1   2 2267.47   47.00
  -1   1   2 2289.67   46.70
   1   1  -2 2226.88   48.60
   1  -1  -2 2458.15   49.20
   1  -1  -2 2285.77   45.80
  -1  -1   2 2253.87   48.90
  -1  -1   2 2265.57   47.90
   1  -1  -2 2287.97   45.60
   1   1  -1  538.15   13.10
  -1   1   1  534.95   12.90
  -1   1   1  553.84   12.90
   1  -1  -1  526.15   12.70
   1  -1  -1  530.35   12.50
  -1  -1   1  535.85   13.20
  -1  -1   1  548.95   13.20
   1   1   0  498.85   12.20
   1   1   0  483.65   12.00
  -1  -1   0  484.15   11.90
   1  -1   0  484.45   12.10
  -1  -1   0  480.75   12.20
  -1   1  -1   82.79    3.70
   1   1   1   89.49    3.70
  -1   1  -1   80.69    4.40
  -1  -1  -1   89.79    3.30
   1  -1   1   84.59    3.80
   1  -1   1   95.79    4.40
  -1  -1  -1   89.79    4.30
  -1   1  -2  246.68    7.80
   1   1   2  245.48    6.60
  -1   1  -2  216.78    8.90
   1  -1   2  238.48    8.00
   1  -1   2  230.38    7.90
  -1  -1  -2  242.58    6.30
  -1  -1  -2  239.88    7.60
  -1   1  -3 1624.14   36.00
   1   1   3 1611.14   33.40
  -1   1  -3 1588.04   37.00
   1  -1   3 1566.74   36.80
  -1  -1  -3 1617.04   34.50
   1  -1   3 1626.04   36.50
  -1  -1  -3 1564.64   33.10
   1   1   4 1210.78   25.80
  -1   1  -4 1137.99   28.40
   1  -1   4 1226.68   28.00
  -1  -1  -4 1189.98   25.50
  -1  -1  -4 1164.48   25.00
   1  -1   4 1141.09   29.20
   1   1   5  113.39    4.60
  -1   1  -5  117.79    4.80
   1  -1   5  119.69    7.30
   1  -1   5  105.29    5.80
   1   1   6  102.79    4.80
   1   1   6   96.39    7.20
   1  -1   6  116.39    6.50
   1   1   7  694.53   26.00
   1   1   7  750.92   18.10
   1  -1   7  712.03   23.80
   1  -1   7  717.53   19.80
   1   1   8  140.79    6.50
   1   1   8  161.98   12.50
   1  -1   8  154.78    7.60
   1   1   9  148.99   13.40
   1   1   9  182.28    7.80
   1   1   9  205.08   12.70
   1  -1   9  176.78   12.20
   1  -1   9  192.08    8.80
   1   1  10  165.08   14.00
   1   1  10  144.19    7.40
   1  -1  10  171.28   16.80
   1  -1  10  157.48    7.90
  -1   2  10  225.68   16.30
  -1   2  10  243.68    9.70
  -1  -2  10  256.97   21.50
  -1   2   9   97.89    8.40
  -1   2   9  104.39   10.50
  -1   2   9   91.69    5.60
  -1  -2   9   97.09    7.10
  -1  -2   9  124.29   14.60
  -1   2   8  245.28   12.10
  -1   2   8  228.48    8.70
  -1  -2   8  231.68   10.70
  -1  -2   8  272.57   19.60
   1   2  -7  388.76   15.20
  -1   2   7  388.16   11.50
  -1  -2   7  367.46   13.90
  -1   2   6   43.80    3.60
  -1   2   6   37.40    3.90
   1   2  -6   52.89    5.50
  -1  -2   6   45.70    5.20
  -1   2   5   44.60    3.50
  -1   2   5   39.70    3.90
   1   2  -5   48.80    4.90
  -1  -2   5   47.70    5.10
  -1  -2   5   43.60    4.60
  -1   2   4  621.04   16.80
   1   2  -4  570.34   17.90
  -1   2   4  672.53   16.90
  -1  -2   4  650.43   18.20
  -1  -2   4  581.64   18.60
  -1   2   3   27.40    3.50
  -1   2   3   23.20    3.70
   1   2  -3   20.30    3.20
   1   2  -3   15.90    3.30
   1  -2  -3   21.40    2.10
   1  -2  -3   27.20    2.80
  -1  -2   3   24.00    3.90
  -1  -2   3   24.70    3.60
   1   2  -2 1665.73   38.70
  -1   2   2 1668.73   38.80
   1   2  -2 1759.62   39.70
  -1   2   2 1809.82   38.80
  -1  -2   2 1742.53   39.20
   1  -2  -2 1712.93   37.40
  -1  -2   2 1737.43   39.70
   1  -2  -2 1756.02   38.00
   1   2  -1   18.00    3.60
  -1   2   1    9.80    2.60
   1   2  -1   13.30    3.00
  -1   2   1    8.80    2.50
  -1  -2   1    9.40    3.10
  -1  -2   1   12.90    2.90
   1  -2  -1   10.60    2.50
   1  -2  -1   13.70    2.80
   1   2   0    4.90    2.40
   1   2   0    7.20    2.40
  -1   2   0    3.20    2.00
   1  -2   0    3.10    1.90
  -1  -2   0    5.70    2.10
  -1   2  -1 1245.28   30.60
   1   2   1 1302.87   29.90
  -1   2  -1 1298.87   29.60
   1   2   1 1296.07   30.20
  -1  -2  -1 1272.17   28.80
   1  -2   1 1280.87   30.60
  -1   2  -2 6928.11  141.49
   1   2   2 7199.68  141.09
   1   2   2 7053.49  141.69
  -1   2  -2 6906.41  142.49
  -1  -2  -2 7006.40  139.19
  -1  -2  -2 6854.01  141.89
   1  -2   2 6975.40  142.49
   1  -2   2 6784.62  141.79
   1   2   3 2400.46   50.19
  -1   2  -3 2313.47   51.99
  -1   2  -3 2190.58   51.29
   1  -2   3 2276.87   52.19
   1  -2   3 2412.46   52.39
  -1  -2  -3 2368.16   48.00
  -1  -2  -3 2380.76   50.89
   1   2   4 3587.24   71.89
  -1   2  -4 3372.76   73.49
  -1   2  -4 3531.65   74.39
   1  -2   4 3434.96   75.29
  -1  -2  -4 3367.76   69.39
  -1  -2  -4 3370.36   71.59
   1  -2   4 3398.26   74.39
  -1   2  -5   69.09    5.80
  -1   2  -5   51.59    4.60
   1   2   5   55.69    4.20
   1  -2   5   62.89    5.80
   1  -2   5   58.19    5.40
   1   2   6  139.39    6.60
  -1   2  -6  149.99    8.80
  -1   2  -6  133.59    6.00
   1  -2   6  144.99    9.30
   1  -2   6  129.59    7.90
   1   2   7  161.18    7.50
   1  -2   7  180.28   11.00
   1  -2   7  169.78    9.00
   1   2   8  111.99    6.50
   1   2   8  112.79    8.80
   1  -2   8  123.09    9.70
   1  -2   8  114.59    7.60
   1   2   9    6.40    4.00
   1   2   9   -0.50    2.00
   1  -2   9    3.50    3.10
   1  -2   9    2.60    3.50
   1   2  10    5.00    2.70
   1  -2  10    9.70    3.10
  -1  -3  10   14.30    3.70
  -1   3   9   -2.60    2.30
   1   3  -9   -2.00    3.30
  -1   3   9   -1.30    2.20
  -1  -3   9   10.10    7.60
  -1  -3   9    0.20    3.20
  -1  -3   9    3.40    2.90
   1   3  -8  368.06   16.30
  -1   3   8  351.66   13.50
  -1  -3   8  375.36   15.50
   1   3  -7   31.30    5.60
  -1   3   7   30.00    4.50
  -1  -3   7   27.80    5.30
  -1   3   6 1089.79   28.30
  -1   3   6 1075.19   28.70
  -1  -3   6 1084.99   30.80
  -1  -3   6 1143.99   33.10
  -1   3   5   51.39    5.50
  -1   3   5   61.99    5.50
   1   3  -5   62.29    6.20
  -1  -3   5   77.19    6.30
  -1  -3   5   72.29    6.60
   1   3  -4   27.10    4.70
  -1   3   4   27.80    4.70
  -1   3   4   32.30    4.60
   1   3  -4   31.80    4.30
  -1  -3   4   28.00    4.90
  -1  -3   4   35.90    5.10
   1  -3  -4   26.20    2.30
   1  -3  -4   29.90    3.40
   1   3  -3   98.99    6.50
   1   3  -3   91.79    6.50
  -1   3   3   93.89    6.40
  -1   3   3   94.49    6.70
  -1  -3   3   88.89    6.60
   1  -3  -3   95.69    4.90
  -1  -3   3   93.39    7.10
   1  -3  -3   95.99    5.70
   1   3  -2  811.72   22.90
   1   3  -2  818.52   23.20
  -1   3   2  791.52   23.10
  -1   3   2  849.52   22.90
  -1  -3   2  848.42   24.00
   1  -3  -2  837.12   22.30
   1  -3  -2  822.32   21.40
  -1  -3   2  815.62   23.20
   1   3  -1    4.40    3.10
  -1   3   1    8.20    2.90
   1   3  -1    2.50    2.70
  -1   3   1    8.20    3.40
   1  -3  -1    6.30    3.00
  -1  -3   1    3.90    3.00
  -1  -3   1    4.90    2.90
   1  -3  -1    5.00    3.10
   1   3   0  668.93   19.90
   1   3   0  674.43   20.20
  -1   3   0  677.93   20.50
  -1  -3   0  677.13   19.50
   1  -3   0  711.83   20.50
   1  -3   0  690.93   20.00
  -1  -3   0  669.93   20.50
   1   3   1   80.89    6.40
  -1   3  -1   73.29    5.50
   1   3   1   87.79    6.50
  -1   3  -1   86.39    6.80
  -1  -3  -1   89.39    6.70
   1  -3   1   76.19    6.20
   1  -3   1   83.39    6.70
  -1  -3  -1   89.59    5.80
  -1   3  -2 2214.18   51.99
   1   3   2 2271.57   51.09
  -1   3  -2 2161.38   50.39
   1   3   2 2192.88   50.99
  -1  -3  -2 2232.58   51.19
   1  -3   2 2229.38   51.29
  -1  -3  -2 2252.97   48.50
   1  -3   2 2239.48   51.99
  -1   3  -3   92.39    7.00
   1   3   3   90.59    6.50
   1   3   3   93.09    6.30
  -1   3  -3   87.59    6.20
  -1  -3  -3   80.69    6.20
  -1  -3  -3   85.49    4.50
   1  -3   3   93.89    6.90
   1   3   4  287.67   11.50
  -1   3  -4  293.97   12.40
  -1   3  -4  304.97   12.20
   1  -3   4  284.27   12.60
  -1  -3  -4  291.57    8.50
  -1  -3  -4  300.27   11.20
   1  -3   4  288.27   12.80
   1   3   5  107.49    7.00
  -1   3  -5  102.89    7.50
  -1   3  -5  122.59    7.80
  -1  -3  -5  103.49    6.00
  -1  -3  -5   94.59    4.10
   1  -3   5   93.49    7.70
   1  -3   5  100.19    8.20
   1   3   6  206.98    9.90
  -1   3  -6  236.28   11.70
  -1   3  -6  209.28    9.60
   1  -3   6  230.98   12.70
   1  -3   6  198.88   11.10
   1   3   7    3.80    2.80
  -1   3  -7   -1.10    2.60
   1  -3   7    2.10    3.50
   1  -3   8  222.58   11.50
   1  -3   8  176.68   15.90
   1   3   9   93.89    7.40
   1  -3   9  106.89    8.40
   1   4  -9  112.79    9.80
  -1   4   9  108.29    8.70
  -1  -4   9  113.39    9.90
  -1  -4   9  116.79    9.60
  -1   4   8  206.08   11.60
   1   4  -8  210.08   12.70
  -1  -4   8  214.08   12.50
  -1  -4   8  198.98   12.30
  -1   4   7   17.90    4.40
   1   4  -7   14.30    4.30
  -1  -4   7   17.30    4.90
  -1  -4   7    8.80    4.00
   1   4  -6   22.40    5.00
  -1   4   6   31.20    5.30
  -1   4   6   37.00    6.10
  -1  -4   6   21.90    7.40
  -1  -4   6   25.00    5.60
  -1   4   5  208.18   11.60
  -1   4   5  261.87   12.30
   1   4  -5  223.78   10.80
   1   4  -5  238.78   12.20
   1  -4  -5  226.18    6.90
   1  -4  -5  224.38    9.30
  -1  -4   5  212.18   12.30
  -1  -4   5  233.88   12.50
   1   4  -4   61.19    6.40
  -1   4   4   69.69    7.30
  -1   4   4   62.89    6.70
   1   4  -4   56.19    6.20
  -1  -4   4   66.69    7.40
   1  -4  -4   64.89    5.60
   1  -4  -4   59.89    4.30
  -1  -4   4   61.69    7.00
  -1   4   3  104.19    8.30
   1   4  -3  101.69    7.70
   1   4  -3  101.69    7.90
  -1   4   3   95.89    7.60
   1  -4  -3  106.39    6.30
  -1  -4   3  103.79    8.50
  -1  -4   3   88.59    7.80
   1  -4  -3  111.19    7.40
  -1   4   2  310.07   13.90
   1   4  -2  310.77   13.50
  -1   4   2  310.27   13.30
  -1  -4   2  304.97   13.60
   1  -4  -2  307.57   12.10
   1  -4  -2  314.77   13.00
  -1  -4   2  312.07   14.10
  -1   4   1  494.95   18.40
   1   4  -1  501.85   17.50
   1   4  -1  511.05   18.10
  -1   4   1  501.05   17.60
   1  -4  -1  498.95   17.70
  -1  -4   1  526.75   18.10
   1  -4  -1  508.85   17.30
  -1  -4   1  491.45   18.50
  -1   4   0  150.48    9.50
   1   4   0  145.49    9.00
   1   4   0  137.09    8.90
   1  -4   0  128.29    8.60
  -1  -4   0  131.39    8.90
   1  -4   0  129.49    8.50
  -1  -4   0  141.39    8.40
  -1   4  -1  135.09    9.30
   1   4   1  133.99    8.90
   1   4   1  135.89    8.80
  -1  -4  -1  136.49    9.10
   1  -4   1  125.29    8.80
   1  -4   1  138.19    8.90
  -1  -4  -1  138.19    7.90
  -1   4  -2 1105.39   31.70
   1   4   2 1084.29   30.70
  -1   4  -2 1083.79   29.90
   1   4   2 1106.19   31.00
  -1  -4  -2 1123.89   28.20
   1  -4   2 1071.99   31.30
  -1  -4  -2 1126.39   30.90
   1  -4   2 1081.79   31.10
   1   4   3    6.90    3.40
  -1   4  -3    0.50    2.00
   1   4   3    0.10    2.80
  -1   4  -3    0.10    3.00
  -1  -4  -3    5.30    3.40
   1  -4   3    3.60    3.30
  -1  -4  -3    4.70    2.20
   1   4   4  367.86   15.50
  -1   4  -4  414.46   15.80
  -1   4  -4  385.46   16.20
   1  -4   4  402.86   16.80
   1  -4   4  387.76   16.20
  -1  -4  -4  372.66   14.50
  -1  -4  -4  393.06   11.60
  -1   4  -5    2.10    3.40
   1   4   5    6.00    3.40
  -1   4  -5    3.10    3.10
  -1  -4  -5    0.60    2.50
   1  -4   5    8.80    4.10
   1  -4   5    3.40    3.20
  -1  -4  -5    3.80    1.50
  -1   4  -6   31.40    5.50
   1   4   6   16.70    5.10
  -1   4  -6   14.70    4.30
  -1  -4  -6   21.90    3.10
   1  -4   6   31.40    6.40
  -1   4  -7    3.10    3.60
   1   4   7    0.90    2.40
  -1   4  -7    5.70    2.60
   1  -4   7   10.30    4.00
   1   4   8   16.90    4.50
   1  -4   8   15.60    4.30
   1   5  -8   15.40    5.10
  -1   5   8   13.90    5.00
  -1  -5   8   22.60    5.50
  -1  -5   8   14.40    4.60
  -1   5   7   70.49    8.80
   1   5  -7   58.89    7.80
  -1  -5   7   61.89    8.50
  -1  -5   7   59.89    8.80
  -1   5   6  214.08   12.70
   1   5  -6  225.88   13.40
  -1   5   6  200.28   12.50
  -1  -5   6  202.58   13.00
   1  -5  -6  204.28    6.20
  -1  -5   6  227.88   13.80
  -1   5   5  263.47   14.30
  -1   5   5  271.67   14.20
   1   5  -5  276.07   14.40
  -1  -5   5  259.37   14.90
   1  -5  -5  272.67   10.90
  -1  -5   5  264.27   14.60
   1  -5  -5  284.07    9.20
  -1   5   4   23.70    5.90
   1   5  -4   29.50    5.40
  -1   5   4   29.70    5.80
   1   5  -4   20.70    4.20
   1  -5  -4   22.20    4.60
  -1  -5   4   29.40    6.30
   1  -5  -4   25.40    3.80
  -1  -5   4   31.80    6.50
   1   5  -3    3.80    3.50
  -1   5   3    4.50    3.70
   1   5  -3    2.20    2.80
  -1   5   3    5.70    3.60
  -1  -5   3    2.90    3.60
  -1  -5   3   -0.20    3.20
   1  -5  -3    4.50    2.90
   1  -5  -3   -0.40    3.00
  -1   5   2   87.09   10.50
   1   5  -2   75.09    7.90
  -1  -5   2   77.69    9.40
   1  -5  -2   71.39    7.40
   1  -5  -2   73.99    9.20
  -1  -5   2   70.59    9.10
   1   5  -1   43.40    6.70
   1   5  -1   46.00    7.50
  -1   5   1   38.10    7.30
  -1  -5   1   52.89    7.80
   1  -5  -1   46.50    6.90
   1  -5  -1   51.79    7.50
   1   5   0    7.00    3.90
  -1   5   0   10.10    4.10
  -1  -5   0    6.00    4.00
  -1  -5   0    9.90    3.80
   1  -5   0   10.00    3.70
   1  -5   0    9.60    4.30
   1   5   1  136.59   10.20
  -1   5  -1  155.78   11.10
   1   5   1  162.18   12.40
   1  -5   1  142.39   10.30
   1  -5   1  160.38   14.40
  -1  -5  -1  150.48    9.30
  -1  -5  -1  158.38   10.80
  -1   5  -2   68.59    8.00
   1   5   2   58.19    8.00
  -1   5  -2   48.30    6.00
   1   5   2   79.29    9.70
  -1  -5  -2   56.69    5.80
   1  -5   2   73.39    9.40
  -1  -5  -2   67.79    8.70
   1   5   3  202.78   12.30
   1   5   3  216.08   12.60
  -1   5  -3  210.58   12.80
  -1   5  -3  211.68   12.20
   1  -5   3  202.88   12.60
  -1  -5  -3  196.18   11.60
  -1  -5  -3  197.68    9.40
   1  -5   3  194.68   12.40
  -1   5  -4  232.58   13.40
   1   5   4  206.98   12.60
  -1   5  -4  196.28   11.60
   1  -5   4  200.88   12.70
  -1  -5  -4  213.18    8.70
   1  -5   4  221.08   13.30
  -1  -5  -4  223.08   11.70
  -1   5  -5  266.57   13.90
   1   5   5  299.17   15.20
  -1   5  -5  283.47   14.50
   1  -5   5  276.37   15.10
   1  -5   5  272.57   15.10
  -1  -5  -5  277.37    9.50
  -1  -5  -5  274.97   12.10
   1   5   6    4.50    3.50
  -1   5  -6    8.20    3.80
  -1   5  -6    6.90    3.90
   1  -5   6   10.20    3.60
  -1  -5  -6    5.60    2.50
   1  -5   6    4.20    3.50
  -1  -5  -6    6.40    1.80
   1   5   7  465.25   20.10
   1  -5   7  455.95   20.50
   1  -5   7  451.35   20.80
   1   6  -6  860.11   30.50
  -1   6   6  847.52   31.10
  -1   6   6  841.32   30.40
  -1  -6   6  901.51   35.80
   1  -6  -6  845.22   20.10
   1  -6  -6  833.72   22.00
  -1  -6   6  859.61   31.90
  -1   6   5   59.89    9.00
  -1   6   5   43.90    8.20
   1   6  -5   40.80    7.30
   1  -6  -5   57.19    5.40
  -1  -6   5   66.49    9.80
  -1  -6   5   60.39    9.40
   1   6  -4  209.98   13.10
  -1   6   4  238.38   14.70
   1   6  -4  241.78   14.10
  -1   6   4  240.08   14.20
   1  -6  -4  220.28   10.30
  -1  -6   4  216.68   14.60
   1  -6  -4  233.28   12.00
   1   6  -3   68.19    9.30
  -1   6   3   54.29    8.60
   1   6  -3   52.79    7.10
  -1   6   3   59.79    8.20
  -1  -6   3   50.49    8.10
  -1  -6   3   49.70    9.00
   1  -6  -3   50.79    7.30
   1  -6  -3   47.10    5.50
  -1   6   2  159.18   12.20
  -1   6   2  174.88   12.00
   1   6  -2  167.38   11.60
   1   6  -2  163.28   11.70
   1  -6  -2  158.38   11.10
   1  -6  -2  162.78   12.20
  -1  -6   2  161.78   12.50
  -1   6   1   16.50    5.80
   1   6  -1    6.70    4.30
  -1  -6   1    4.20    4.00
   1  -6  -1    9.00    4.50
   1   6   0  125.79   10.30
  -1  -6   0  129.89   10.90
  -1  -6   0  107.29   10.10
   1  -6   0  139.39   10.90
   1   6   1   64.39    9.50
  -1   6  -1   72.39    9.90
  -1   6  -1   62.79    7.20
   1   6   1   55.09    9.30
  -1  -6  -1   79.59   10.30
   1  -6   1   62.89    9.00
   1  -6   1   73.19    8.40
  -1   6  -2  175.88   11.50
   1   6   2  172.58   12.30
   1   6   2  177.88   12.30
  -1   6  -2  194.08   13.40
   1  -6   2  167.78   12.40
  -1  -6  -2  189.98   12.50
   1   6   3   71.29    9.80
  -1   6  -3   75.99    8.90
  -1   6  -3   75.49    7.90
  -1  -6  -3   70.79    7.80
  -1  -6  -3   79.39    6.60
   1  -6   3  101.09   15.20
   1  -6   3   76.19   10.40
  -1   6  -4   49.50    6.70
  -1   6  -4   54.09    8.90
   1   6   4   61.69    8.60
   1  -6   4   54.49    8.70
   1  -6   4   61.39    9.40
  -1  -6  -4   47.60    4.90
  -1  -6  -4   48.50    6.80
  -1   6  -5   -1.80    3.20
  -1   6  -5   -1.30    3.10
   1   6   5    1.60    3.70
  -1  -6  -5   -0.70    1.90
   1  -6   5   -1.20    4.10
  -1  -6  -5    5.30    2.60
   1  -6   5   -0.10    3.30
  -1   6  -6   23.70    5.70
   1   6   6   15.90    6.20
  -1   6  -6   14.10    4.80
  -1  -6  -6   15.40    3.20
   1  -6   6   24.20    5.10
  -1  -6  -6   22.00    3.00
   1   7  -4   -2.30    3.20
  -1   7   4    0.10    3.60
   1  -7  -4    7.50    3.20
  -1  -7   4    3.60    6.80
   1  -7  -4    3.90    2.80
  -1  -7   4    9.90    3.90
   1   7  -3  219.88   14.70
  -1   7   3  244.38   15.50
   1  -7  -3  227.38   13.30
  -1  -7   3  259.57   17.00
  -1  -7   3  223.28   18.80
   1  -7  -3  231.88   12.20
  -1   7   2   11.60    6.40
   1   7  -2    5.00    4.70
   1   7  -2   11.60    4.40
   1  -7  -2    1.30    3.20
  -1  -7   2    5.80    6.50
  -1  -7   2    3.50    3.70
   1  -7  -2    1.30    3.60
  -1   7   1    3.70    4.90
   1   7  -1   -0.60    3.70
  -1  -7   1    4.70    3.60
  -1  -7   1    2.30    4.10
   1  -7  -1    3.80    3.50
  -1  -7   1    3.60    5.00
   1  -7  -1   -0.70    3.30
  -1   7   0   83.89   11.80
   1   7   0  106.69   10.70
  -1  -7   0   92.29   12.10
   1  -7   0   88.29    9.20
  -1  -7   0   96.39    9.80
   1  -7   0   81.39    9.30
  -1  -7   0   82.49    8.60
  -1   7  -1  102.29    9.70
   1   7   1  112.59   10.70
  -1   7  -1  115.59   11.60
  -1  -7  -1   78.19    8.40
  -1  -7  -1   90.49    9.90
   1  -7   1   94.59   10.00
  -1   7  -2    5.00    5.30
   1   7   2    7.70    4.80
  -1   7  -2    4.90    3.60
   1  -7   2    3.80    3.80
  -1  -7  -2    7.60    3.20
  -1  -7  -2    4.80    3.80
   1   7   3  335.07   18.80
  -1   7  -3  361.16   20.00
  -1  -7  -3  344.37   16.80
  -1  -7  -3  349.07   17.70
   1  -7   3  343.07   19.40
  -2   0  11    7.50    8.70
  -2   0  10  338.17   16.90
  -2   0  10  328.47   10.00
  -2   0  10  357.76   21.70
  -2   0   9    0.10    1.60
  -2   0   9    1.60    4.50
  -2   0   9    0.00    2.90
  -2   0   8 1974.70   50.09
  -2   0   8 2066.29   42.80
  -2   0   7   -1.30    2.10
  -2   0   7   -1.30    3.50
  -2   0   6  126.39    7.30
  -2   0   6  127.09   10.50
  -2   0   5   -0.30    3.20
  -2   0   5   -0.30    1.90
  -2   0   4  256.17    9.00
  -2   0   4  253.17   12.60
  -2   0   3   -0.40    1.00
  -2   0   3   -0.60    2.70
   2   0  -3   -1.30    2.50
   2   0  -3    0.50    1.10
   2   0  -1   -1.20    2.00
  -2   0   1   -2.00    0.70
   2   0  -1   -1.80    0.70
  -2   0   1    0.50    2.50
   2   0  -1   -1.00    0.80
  -2   0  -1  -13.60    1.00
   2   0   1   -7.20    1.40
   2   0   3    1.10    2.00
   2   0   3    0.50    1.50
  -2   0  -3   -0.30    1.80
   2   0   4  268.07    8.50
   2   0   4  286.97   10.30
  -2   0  -4  261.97    8.80
   2   0   5    0.90    1.60
   2   0   5   -0.20    1.80
   2   0   6  433.26   15.90
   2   0   6  420.46   12.40
   2   0   7    1.90    2.10
   2   0   7   -0.30    2.60
   2   0   8   13.40    2.70
   2   0   8   19.40    4.70
   2   0   9    0.40    2.90
   2   0   9    1.20    1.90
   2   0  10  332.77   22.10
   2   0  10  317.57   11.80
  -2   1  11  105.79   12.80
  -2  -1  11   91.59    5.60
  -2  -1  11  118.59   14.80
  -2   1  10  376.66   21.70
  -2   1  10  371.76   17.40
  -2  -1  10  344.47   23.10
  -2  -1  10  370.46   18.40
  -2  -1  10  404.86   12.70
  -2   1   9  185.58   11.30
  -2   1   9  207.38   16.30
  -2   1   9  198.88    6.30
  -2  -1   9  172.68   15.90
  -2  -1   9  184.68   12.00
  -2  -1   9  190.88    8.40
  -2   1   8   40.40    8.70
  -2   1   8   36.90    6.10
  -2   1   8   39.40    2.60
  -2  -1   8   32.90    8.50
  -2  -1   8   34.30    5.70
  -2  -1   8   39.20    4.20
  -2   1   7   71.99    8.90
  -2   1   7   91.19   12.90
  -2  -1   7   79.99   12.40
  -2  -1   7   70.89    5.30
  -2  -1   7   67.89    6.70
   2   1  -6  175.28    8.50
  -2   1   6  169.28   11.10
  -2   1   6  161.08    8.00
  -2  -1   6  160.08    8.90
  -2  -1   6  168.58   12.80
  -2  -1   6  148.79    6.50
   2   1  -5  149.49    7.30
  -2   1   5  147.99    9.70
  -2   1   5  146.89    6.80
  -2  -1   5  146.59    7.80
  -2  -1   5  151.88    5.90
  -2  -1   5  147.59   11.30
   2   1  -4  803.42   20.90
  -2   1   4  830.12   23.90
  -2  -1   4  808.62   21.50
  -2  -1   4  787.92   26.40
   2  -1  -4  815.52   23.70
  -2  -1   4  825.12   18.80
  -2   1   3 5263.77  113.59
   2   1  -3 5403.36  109.49
  -2   1   3 5473.75  106.29
  -2  -1   3 5366.96  107.59
  -2  -1   3 5229.08  114.89
  -2  -1   3 5414.46  109.99
   2  -1  -3 5384.16  112.09
  -2   1   0 2064.69   45.30
   2   1   0 2139.19   43.70
  -2   1   0 2102.49   42.30
   2   1   0 2053.39   45.00
  -2  -1   0 2158.58   44.30
  -2  -1   0 2008.10   44.70
   2  -1   0 2030.50   43.50
   2   1   1 3173.28   63.89
  -2   1  -1 3139.39   63.79
  -2   1  -1 3016.00   65.19
   2  -1   1 3152.88   64.09
   2  -1   1 3149.19   64.79
  -2  -1  -1 3157.98   63.39
  -2   1  -3 3603.24   76.99
   2   1   3 3738.13   74.69
   2  -1   3 3685.23   77.39
  -2  -1  -3 3641.24   74.59
   2  -1   3 3685.43   76.49
   2   1   4 3683.43   73.29
  -2   1  -4 3516.15   75.39
  -2  -1  -4 3444.36   73.09
   2  -1   4 3606.04   75.19
  -2  -1  -4 3617.24   74.29
  -2   1  -5  272.87    9.80
   2   1   5  286.67    8.80
   2  -1   5  275.77   10.10
   2  -1   5  296.67   12.10
  -2  -1  -5  273.27    8.70
   2   1   6   78.29    4.70
   2   1   6   83.39    6.90
   2  -1   6   74.99    5.60
   2   1   7  102.29    5.70
   2  -1   7  120.19    8.80
   2  -1   7   99.59    6.30
   2   1   8  188.98    8.00
   2  -1   8  177.88    8.50
   2  -1   8  187.38   11.90
   2   1   9   42.70    4.40
   2   1   9   46.90    7.40
   2   1   9   59.49   10.10
   2  -1   9   47.50    5.00
   2  -1   9   42.50    7.30
  -2   2  10    1.40    2.10
  -2   2  10    3.80    3.60
  -2  -2  10    5.70    2.40
  -2  -2  10    7.70    7.00
  -2  -2  10    3.30    3.20
  -2   2   9  547.65   23.20
  -2   2   9  515.65   19.80
  -2   2   9  559.84   15.20
  -2  -2   9  532.65   22.10
  -2  -2   9  550.54   18.10
  -2  -2   9  517.15   28.50
  -2   2   8  746.63   26.50
  -2   2   8  723.33   23.20
   2   2  -8  708.93   23.40
  -2   2   8  724.53   18.40
  -2  -2   8  722.93   21.60
  -2  -2   8  764.12   33.40
  -2   2   7  387.76   11.10
  -2   2   7  383.16   14.30
  -2   2   7  378.86   11.90
  -2   2   7  380.56   16.90
  -2  -2   7  361.36   16.00
  -2  -2   7  387.56   21.80
  -2  -2   7  369.36   13.70
  -2   2   6  202.68   11.00
  -2   2   6  204.68    7.90
   2   2  -6  196.08    9.90
  -2  -2   6  179.78   14.40
  -2  -2   6  203.38    9.20
  -2   2   5  776.92   23.00
  -2   2   5  776.22   19.90
   2   2  -5  801.32   22.70
  -2   2   5  821.32   19.30
  -2  -2   5  811.12   21.60
  -2  -2   5  783.42   29.20
  -2  -2   5  777.42   23.50
  -2   2   4 4333.17   89.19
   2   2  -4 4155.18   91.49
  -2   2   4 4473.05   88.79
   2  -2  -4 4348.27   91.99
  -2  -2   4 4284.07   89.99
  -2  -2   4 4457.85   90.99
  -2  -2   4 4291.07   99.29
  -2  -2   4 4196.98   92.39
  -2   2   3  543.65   15.30
   2   2  -3  546.95   16.60
  -2   2   3  557.74   15.10
  -2  -2   3  532.75   15.80
   2  -2  -3  565.94   13.00
   2  -2  -3  564.04   13.00
   2  -2  -3  544.35   16.80
  -2  -2   3  560.74   21.00
  -2  -2   3  568.84   16.30
  -2   2   2 1741.03   39.10
  -2   2   2 1736.43   38.80
   2   2  -2 1707.43   40.70
   2  -2  -2 1739.13   37.30
  -2  -2   2 1729.53   39.10
  -2  -2   2 1703.43   39.40
  -2  -2   2 1699.33   43.10
   2  -2  -2 1712.13   37.70
   2   2  -1   25.30    3.60
  -2   2   1   30.90    3.90
   2  -2  -1   29.10    3.50
  -2  -2   1   26.40    4.70
  -2  -2   1   24.60    3.80
  -2  -2   1   26.00    3.50
   2  -2  -1   31.20    3.80
  -2   2   0 1449.55   34.70
   2   2   0 1498.65   34.30
   2  -2   0 1489.15   34.10
  -2  -2   0 1509.55   34.80
  -2  -2   0 1463.45   34.20
  -2  -2   0 1502.35   33.60
   2   2   1 1103.79   26.40
  -2   2  -1 1056.29   27.30
  -2   2  -1 1097.89   25.40
   2  -2   1 1090.19   26.90
  -2  -2  -1 1105.49   25.10
  -2  -2  -1 1098.39   27.10
   2   2   2   16.70    3.00
  -2   2  -2   17.00    3.10
  -2   2  -2   15.60    3.70
  -2  -2  -2   16.40    2.40
   2  -2   2   16.20    3.10
   2  -2   2   18.40    3.50
  -2  -2  -2   14.90    3.40
   2   2   3  735.73   18.50
  -2   2  -3  746.53   19.40
  -2   2  -3  703.93   20.30
   2  -2   3  673.43   19.70
  -2  -2  -3  688.73   16.50
   2  -2   3  701.13   19.90
  -2  -2  -3  674.23   19.20
  -2   2  -4 2900.21   65.39
  -2   2  -4 3012.00   65.19
   2   2   4 2988.40   63.09
  -2  -2  -4 2988.60   63.99
   2  -2   4 3004.80   66.39
  -2  -2  -4 2919.91   61.09
   2  -2   4 2960.20   65.39
  -2   2  -5   44.50    5.40
  -2   2  -5   36.20    5.00
   2   2   5   37.60    3.90
   2  -2   5   44.00    5.40
  -2  -2  -5   38.10    4.00
  -2  -2  -5   35.60    3.10
   2  -2   5   39.80    5.20
   2   2   6   29.80    3.90
  -2   2  -6   32.40    4.20
   2  -2   6   31.60    5.30
   2  -2   6   22.30    4.40
   2   2   7   59.59    5.00
   2  -2   7   54.29    5.80
   2   2   8    3.40    2.70
   2   2   8   -2.70    2.80
   2  -2   8    1.40    2.90
   2  -2   8    1.80    2.20
   2   2   9    0.80    2.40
   2  -2   9    1.50    2.70
  -2   3  10   30.10    4.60
  -2  -3  10   27.00    4.90
  -2  -3  10   13.50    4.10
  -2   3   9  167.88    8.70
   2   3  -9  160.48   10.90
  -2   3   9  158.88   11.10
  -2  -3   9  134.49   10.00
  -2  -3   9  150.38   12.00
  -2  -3   9  175.38   18.00
   2   3  -8 1409.26   39.70
  -2   3   8 1466.75   35.70
  -2  -3   8 1470.15   38.10
  -2  -3   8 1412.56   51.29
  -2  -3   8 1458.05   38.70
   2   3  -7    0.20    2.80
  -2   3   7    1.40    2.70
  -2   3   7   -3.30    2.10
  -2  -3   7   -0.40    2.40
  -2  -3   7   -2.70    2.70
   2   3  -6 1064.09   30.70
  -2   3   6 1078.79   27.50
  -2   3   6 1060.99   28.00
  -2  -3   6 1032.30   29.70
  -2  -3   6 1060.79   39.00
  -2  -3   6 1022.50   28.70
   2   3  -5  551.14   18.80
  -2   3   5  538.35   17.30
  -2   3   5  538.65   16.80
  -2  -3   5  565.64   18.10
  -2  -3   5  531.05   18.50
  -2   3   4   46.50    5.00
  -2   3   4   44.30    4.80
   2   3  -4   41.30    5.10
  -2  -3   4   49.50    5.80
   2  -3  -4   43.60    3.30
  -2  -3   4   46.60    6.00
   2  -3  -4   42.00    2.70
  -2   3   3   20.10    3.80
  -2   3   3   20.20    3.90
   2   3  -3   21.40    4.10
   2  -3  -3   20.10    2.90
   2  -3  -3   20.60    3.20
  -2  -3   3   25.80    4.50
  -2  -3   3   23.50    4.30
  -2   3   2 3386.76   71.99
   2   3  -2 3301.97   71.79
  -2   3   2 3249.48   72.69
  -2  -3   2 3330.47   77.09
  -2  -3   2 3330.37   73.59
   2  -3  -2 3264.67   70.89
   2  -3  -2 3317.27   70.99
  -2  -3   2 3296.37   72.59
  -2   3   1 1415.06   35.80
   2   3  -1 1425.06   35.30
   2  -3  -1 1480.55   35.10
   2  -3  -1 1429.66   34.70
  -2  -3   1 1413.86   36.10
  -2  -3   1 1474.75   37.40
  -2  -3   1 1383.46   34.80
   2   3   0  293.37   12.00
  -2   3   0  297.47   12.50
  -2  -3   0  328.47   11.70
   2  -3   0  298.07   11.90
   2  -3   0  303.77   12.10
  -2  -3   0  295.47   12.50
  -2   3  -1  130.79    6.80
   2   3   1  125.09    7.70
  -2   3  -1  114.69    7.90
  -2  -3  -1  114.39    6.40
   2  -3   1  121.19    7.70
  -2  -3  -1  123.29    7.90
   2  -3   1  121.79    7.50
  -2   3  -2 2197.78   50.09
   2   3   2 2229.88   51.09
  -2   3  -2 2200.78   52.49
  -2  -3  -2 2225.78   51.79
   2  -3   2 2247.18   51.99
  -2  -3  -2 2223.38   48.20
   2   3   3  330.97   12.50
  -2   3  -3  340.07   13.70
  -2   3  -3  333.37   12.30
   2  -3   3  328.17   13.30
  -2  -3  -3  318.87    9.80
  -2  -3  -3  325.67   12.80
  -2   3  -4  301.17   13.20
   2   3   4  315.77   12.10
  -2   3  -4  308.17   12.40
   2  -3   4  298.67   13.10
  -2  -3  -4  288.17    9.00
   2  -3   4  295.67   12.90
  -2  -3  -4  303.47   12.00
  -2   3  -5   66.89    6.80
   2   3   5   64.79    5.90
  -2   3  -5   63.99    6.20
   2  -3   5   65.59    6.70
   2  -3   5   64.99    6.50
  -2  -3  -5   68.79    4.00
  -2  -3  -5   68.89    5.60
  -2   3  -6    1.40    2.40
  -2   3  -6    7.30    3.40
   2   3   6    4.80    2.70
   2  -3   6    1.40    2.80
  -2  -3  -6    2.10    1.50
  -2  -3  -6    3.70    2.00
   2   3   7  283.67   14.50
  -2   3  -7  289.17   10.90
   2  -3   7  288.27   13.60
   2  -3   7  303.07   15.60
   2   3   8  381.06   15.40
   2  -3   8  407.46   16.20
   2  -3   8  392.76   19.20
   2   3   9   35.40    5.50
   2  -3   9   45.40    6.40
  -2   4   9   12.20    3.90
   2   4  -9   13.10    5.30
  -2  -4   9    7.60    4.30
  -2  -4   9   12.40    4.30
   2   4  -8   55.29    7.30
  -2   4   8   65.79    6.80
  -2  -4   8   69.89    7.80
  -2  -4   8   67.09    8.50
  -2  -4   8   59.49   13.10
  -2   4   7  535.85   19.00
   2   4  -7  522.55   20.60
  -2   4   7  536.95   19.20
  -2  -4   7  505.85   20.20
  -2  -4   7  561.74   21.30
  -2   4   6    6.20    3.50
  -2   4   6    5.70    3.50
   2   4  -6    5.10    3.80
  -2  -4   6    6.00    3.60
  -2  -4   6    7.40    3.60
  -2  -4   6    3.40    7.30
  -2   4   5 1243.08   33.30
   2   4  -5 1158.18   34.20
  -2   4   5 1175.88   33.50
   2  -4  -5 1207.38   26.20
  -2  -4   5 1228.78   36.40
  -2  -4   5 1216.28   35.10
   2  -4  -5 1253.47   28.00
  -2   4   4 4099.19   91.39
  -2   4   4 4274.37   90.89
   2   4  -4 3911.31   91.49
  -2  -4   4 4108.69   92.79
   2  -4  -4 4166.38   85.39
   2  -4  -4 4110.29   86.49
  -2  -4   4 4094.29   91.69
  -2   4   3 1062.89   31.40
   2   4  -3 1107.59   31.80
  -2   4   3 1135.89   31.00
   2  -4  -3 1121.49   28.50
  -2  -4   3 1148.39   32.80
  -2  -4   3 1130.89   31.80
   2  -4  -3 1151.28   29.30
   2   4  -2 1468.75   37.30
  -2   4   2 1430.16   38.30
   2   4  -2 1429.36   36.90
  -2   4   2 1444.86   37.20
  -2  -4   2 1429.66   41.70
  -2  -4   2 1430.16   38.80
   2  -4  -2 1441.46   36.30
   2  -4  -2 1425.36   36.00
  -2  -4   2 1459.05   37.80
  -2   4   1  212.88   11.50
   2   4  -1  211.28   10.70
   2   4  -1  213.48   10.80
   2  -4  -1  202.18   10.40
  -2  -4   1  214.38   10.70
  -2  -4   1  219.38   11.70
   2  -4  -1  207.58   10.40
  -2  -4   1  195.68   11.80
   2   4   0   32.10    5.60
   2   4   0   35.40    5.70
  -2   4   0   25.60    5.20
   2  -4   0   34.80    5.60
   2  -4   0   33.60    5.70
  -2  -4   0   23.00    4.80
  -2  -4   0   36.70    5.90
  -2  -4   0   26.30    4.60
  -2   4  -1  499.35   18.90
   2   4   1  483.85   18.10
  -2   4  -1  515.45   17.00
  -2  -4  -1  503.35   18.60
   2  -4   1  484.65   18.00
  -2  -4  -1  517.65   16.60
   2  -4   1  514.65   18.50
  -2   4  -2   64.49    7.10
   2   4   2   57.59    6.40
  -2   4  -2   51.59    5.30
  -2  -4  -2   54.79    7.00
   2  -4   2   52.79    6.20
  -2  -4  -2   59.39    5.10
   2  -4   2   70.49   10.40
   2   4   3   94.79    7.90
  -2   4  -3   94.49    7.10
  -2   4  -3   83.99    8.10
   2  -4   3   89.99    7.90
   2  -4   3   81.99    7.70
  -2  -4  -3   88.59    5.40
  -2  -4  -3   90.89    7.60
  -2   4  -4 2020.10   50.19
   2   4   4 2066.99   51.19
   2  -4   4 2146.49   54.09
  -2  -4  -4 2025.90   49.99
  -2  -4  -4 2117.89   45.30
  -2   4  -5   61.69    6.70
   2   4   5   72.79    7.20
   2  -4   5   67.29    7.20
  -2  -4  -5   70.99    4.40
  -2  -4  -5   66.89    6.20
  -2   4  -6  156.08   11.10
   2   4   6  134.29    9.50
  -2   4  -6  146.49    9.70
  -2  -4  -6  142.59    5.70
   2  -4   6  154.08   10.20
  -2  -4  -6  151.28    7.30
  -2   4  -7  111.79    8.00
   2   4   7   99.09    8.40
  -2   4  -7  128.19    9.50
   2  -4   7  115.29    9.30
   2   4   8   10.60    4.10
   2  -4   8   14.60    4.40
   2   5  -8  135.49   11.10
  -2   5   8  164.18   11.20
  -2  -5   8  141.89   11.10
  -2  -5   8  184.18   14.60
  -2   5   7  178.88   11.70
  -2   5   7  173.98   11.40
   2   5  -7  168.48   11.60
  -2  -5   7  159.18   17.20
  -2  -5   7  162.48   11.80
  -2  -5   7  161.88   12.10
  -2   5   6  129.89   10.10
  -2   5   6  141.39   10.60
   2   5  -6  139.19   10.50
  -2  -5   6  145.69   11.30
  -2  -5   6  135.99   10.90
  -2  -5   6  160.38   16.40
  -2   5   5   71.59    8.00
   2   5  -5   72.89    7.60
  -2   5   5   63.49    9.10
   2  -5  -5   66.39    4.30
  -2  -5   5   64.09    9.00
  -2  -5   5   74.09    9.50
   2  -5  -5   73.19    5.40
   2   5  -4  911.11   29.10
  -2   5   4  874.61   29.00
  -2   5   4  860.41   27.90
  -2  -5   4  878.01   29.90
  -2  -5   4  875.91   35.20
  -2  -5   4  867.51   28.90
   2  -5  -4  903.61   23.60
   2  -5  -4  836.42   24.50
   2   5  -3 2340.97   58.99
  -2   5   3 2359.06   59.69
  -2   5   3 2409.56   59.69
   2  -5  -3 2323.77   55.79
  -2  -5   3 2322.57   60.29
   2  -5  -3 2374.36   54.89
  -2  -5   3 2351.86   58.99
  -2   5   2 1564.34   43.50
  -2  -5   2 1562.84   42.20
  -2  -5   2 1537.45   45.90
   2  -5  -2 1519.15   40.60
  -2  -5   2 1574.94   44.00
   2  -5  -2 1558.04   43.50
  -2   5   1   46.50    7.80
  -2  -5   1   54.49    9.30
   2  -5  -1   43.80    6.60
   2  -5  -1   39.10    6.50
  -2  -5   1   40.70    6.60
  -2  -5   1   44.80    8.30
  -2   5   0   46.10   10.30
   2   5   0   39.50    7.00
  -2  -5   0   38.60    9.10
  -2  -5   0   41.30    7.10
   2  -5   0   36.10    6.40
  -2  -5   0   39.50    6.20
   2  -5   0   54.19    7.90
   2   5   1   52.79    8.00
  -2   5  -1   40.20    5.50
  -2   5  -1   52.89    7.80
   2  -5   1   62.99    9.30
   2  -5   1   61.19    8.30
  -2  -5  -1   45.60    7.40
  -2  -5  -1   46.80    6.40
  -2   5  -2  203.78   11.00
   2   5   2  204.08   12.30
  -2   5  -2  161.28   11.70
  -2  -5  -2  189.98   12.00
  -2  -5  -2  198.88    9.80
   2  -5   2  188.08   12.10
  -2   5  -3  316.57   16.10
  -2   5  -3  289.77   16.30
   2   5   3  308.67   15.50
  -2  -5  -3  307.67   15.00
  -2  -5  -3  323.67   12.00
   2  -5   3  307.27   15.80
   2  -5   3  326.07   15.90
   2   5   4   60.99    8.20
  -2   5  -4   53.39    6.50
  -2   5  -4   61.19    8.80
   2  -5   4   55.69    8.00
  -2  -5  -4   64.39    4.90
  -2  -5  -4   66.09    7.10
   2  -5   4   48.90    7.70
  -2   5  -5  293.67   14.40
  -2   5  -5  279.87   14.70
   2   5   5  288.57   15.20
   2  -5   5  258.27   15.10
  -2  -5  -5  280.97   12.90
   2  -5   5  284.27   15.30
  -2  -5  -5  274.97    9.70
  -2   5  -6   63.99    8.60
  -2   5  -6   44.10    6.90
   2   5   6   61.49    8.30
  -2  -5  -6   57.49    5.30
  -2  -5  -6   50.39    3.80
   2  -5   6   53.89    8.30
   2  -5   6   68.89    7.80
   2   5   7  153.28   11.40
  -2   5  -7  138.59   10.60
  -2   5  -7  158.78   10.10
   2  -5   7  148.39   15.40
   2  -5   7  151.18   11.50
   2   6  -7  332.37   20.20
  -2   6   7  308.97   16.70
  -2   6   7  278.37   16.40
  -2  -6   7  324.47   18.40
  -2   6   6   87.49    9.30
   2   6  -6   89.59    9.20
   2  -6  -6  106.99    5.30
  -2  -6   6  115.59   19.20
  -2  -6   6   88.99   10.10
   2  -6  -6   86.09    4.20
  -2  -6   6   83.19   17.30
  -2   6   5  204.58   13.80
   2   6  -5  206.18   13.40
  -2   6   5  239.38   14.70
   2  -6  -5  213.08    9.30
  -2  -6   5  226.08   14.90
  -2  -6   5  233.88   14.50
   2  -6  -5  219.78   10.10
  -2  -6   5  207.98   18.30
  -2   6   4   60.49    9.30
  -2   6   4   39.60    7.20
   2   6  -4   46.80    7.70
   2  -6  -4   53.19    5.80
  -2  -6   4   53.79    8.90
   2  -6  -4   45.60    5.20
  -2  -6   4   55.89   11.80
  -2   6   3   21.10    5.80
   2   6  -3   22.70    5.70
  -2   6   3   23.50    5.90
  -2  -6   3   19.30    5.70
   2  -6  -3   22.50    4.80
  -2  -6   3   26.10    5.70
   2  -6  -3   17.50    4.20
  -2  -6   3   16.50    7.10
  -2   6   2  491.65   21.90
  -2  -6   2  446.76   21.30
   2  -6  -2  452.15   21.10
   2  -6  -2  484.05   19.50
  -2  -6   2  449.86   22.70
   2   6  -1  391.76   18.00
  -2   6   1  360.16   18.80
  -2  -6   1  388.86   19.50
  -2  -6   1  396.36   19.30
   2  -6  -1  380.66   17.60
   2   6   0   11.00    4.60
   2  -6   0    5.70    4.10
   2  -6   0    7.60    4.00
  -2  -6   0    6.20    3.10
  -2  -6   0    6.00    4.40
  -2   6  -1 1148.59   34.20
  -2   6  -1 1175.88   37.70
   2   6   1 1149.78   36.50
   2  -6   1 1178.88   36.30
  -2  -6  -1 1074.99   35.40
  -2  -6  -1 1126.69   36.50
   2  -6   1 1177.98   36.60
   2   6   2  441.76   20.50
  -2   6  -2  471.55   19.10
  -2   6  -2  487.25   21.80
   2  -6   2  459.45   24.10
   2  -6   2  445.36   20.50
  -2  -6  -2  446.06   20.20
   2   6   3   26.30    6.00
  -2   6  -3   19.30    6.00
  -2   6  -3   11.30    3.70
  -2  -6  -3   25.20    5.80
   2  -6   3   19.00    5.40
   2  -6   3   26.00    5.90
  -2   6  -4    8.40    3.80
   2   6   4    7.60    4.10
  -2   6  -4    5.20    4.10
   2  -6   4    4.60    4.00
   2  -6   4    5.50    3.90
  -2  -6  -4    6.50    3.70
  -2   6  -5  168.88   11.50
  -2   6  -5  167.38   12.40
  -2  -6  -5  156.18    7.50
   2  -6   5  144.89   12.00
  -2  -6  -5  166.48   13.20
   2   7  -4  242.78   15.40
   2  -7  -4  251.17   12.60
  -2  -7   4  273.87   17.30
  -2  -7   4  234.28   24.50
   2  -7  -4  227.18   11.50
   2   7  -3   24.30    6.30
  -2  -7   3   24.60    6.80
  -2  -7   3   12.90    7.50
   2  -7  -3   10.20    4.00
   2  -7  -3   28.80    5.50
  -2  -7   2  346.67   21.00
   2  -7  -2  337.17   18.90
   2  -7  -2  350.56   17.20
  -2  -7   2  364.86   20.10
  -2   7   1  295.27   22.90
  -2  -7   1  261.87   15.50
   2  -7  -1  280.97   15.80
  -2  -7   1  283.37   18.80
   2  -7  -1  268.97   15.20
   2   7   0  102.79   10.40
  -2   7   0  126.89   22.30
  -2   7   0   96.89    9.10
   2  -7   0  121.99   10.70
   2  -7   0   94.19    9.70
  -2  -7   0   95.99    9.20
  -2  -7   0  108.29   11.20
  -2   7  -1  571.34   22.90
   2   7   1  600.44   25.50
  -2  -7  -1  575.04   22.00
  -2  -7  -1  597.14   25.50
   2  -7   1  573.14   25.90
  -2   7  -2  119.09    9.80
   2   7   2   88.29   10.00
  -2  -7  -2   98.19    8.20
  -2  -7  -2  105.89   10.20
   2  -7   2  106.99   10.40
  -2   7  -3  293.17   15.90
   2   7   3  283.97   17.70
  -2  -7  -3  298.87   16.70
  -2  -7  -3  288.27   13.00
   2  -7   3  295.87   19.00
  -3   0  11    4.50    1.70
  -3   0  11   -0.10    6.00
  -3   0  10   48.50   11.60
  -3   0  10   55.19    3.50
  -3   0  10   61.39   12.00
  -3   0   9    5.30    3.70
  -3   0   9    8.50    5.20
  -3   0   8 2123.39   52.19
  -3   0   7    0.40    2.00
  -3   0   7    0.60    4.40
  -3   0   6    8.30    5.00
  -3   0   6   10.40    2.60
  -3   0   5    1.40    1.70
  -3   0   5    0.00    3.60
   3   0  -4  276.97   14.00
   3   0  -4  321.17    9.70
  -3   0   4  286.17   14.40
  -3   0   4  316.67   10.10
  -3   0   3   -0.20    3.00
   3   0  -3   -0.10    1.20
   3   0  -3   -1.10    3.30
  -3   0   3   -0.90    0.80
  -3   0   2 1829.62   43.30
  -3   0   2 1798.72   38.00
  -3   0   2 1826.92   37.20
   3   0  -2 1797.02   37.30
   3   0  -2 1863.11   37.80
   3   0  -2 1840.42   43.70
   3   0  -1   -0.70    2.40
  -3   0   1   -1.40    0.90
   3   0  -1   -0.10    1.00
  -3   0   0  272.77    7.50
   3   0   0  278.77    7.40
  -3   0  -1    1.60    1.30
   3   0   1    0.10    1.20
   3   0   2 2550.24   52.79
  -3   0  -2 2533.25   53.49
   3   0   3    0.50    1.50
  -3   0  -3   -2.00    1.60
   3   0   4   13.50    2.80
   3   0   4   15.90    2.60
  -3   0  -4   14.70    3.00
  -3   0  -5   -0.60    1.90
   3   0   5    0.60    2.30
   3   0   5    1.50    1.70
   3   0   6 4472.05   96.79
   3   0   6 4420.86   91.79
  -3   0  -6 4371.76   91.19
   3   0   7    0.50    2.00
   3   0   8  140.49    7.10
   3   0   8  145.69   13.50
   3   0   9    6.00    2.50
  -3   1  11  111.09   13.90
  -3  -1  11  115.09    6.10
  -3  -1  11  115.29   14.60
  -3   1  10 1032.30   37.90
  -3   1  10  883.01   36.10
  -3  -1  10  955.40   32.00
  -3  -1  10  983.50   40.50
  -3  -1  10  924.71   24.10
  -3   1   9   68.29   11.60
  -3   1   9   53.39    6.30
  -3  -1   9   41.80    9.60
  -3  -1   9   40.70    4.40
  -3  -1   9   50.89    6.80
  -3   1   8   93.09    7.40
  -3   1   8  104.19   11.00
  -3  -1   8   91.69    7.90
  -3  -1   8  101.79   11.70
  -3  -1   8   89.49    5.40
  -3   1   7  152.08    8.50
   3   1  -7  153.28    8.50
  -3   1   7  169.68   12.50
  -3  -1   7  159.38    6.70
  -3  -1   7  144.89   13.40
   3   1  -6  144.99    7.70
  -3   1   6  153.58    7.60
  -3   1   6  148.09   10.80
  -3  -1   6  132.89    5.70
  -3  -1   6  150.58    8.50
  -3  -1   6  169.48   12.90
  -3   1   5  215.68    8.30
   3   1  -5  222.18    9.10
  -3   1   5  205.88   11.80
  -3  -1   5  225.98   13.90
   3  -1  -5  224.18   12.30
  -3  -1   5  206.68    9.40
  -3   1   4 1416.86   31.60
   3   1  -4 1449.06   33.20
  -3   1   4 1438.36   37.20
  -3  -1   4 1337.97   30.80
  -3  -1   4 1428.26   33.90
  -3  -1   4 1424.16   39.90
   3  -1  -4 1453.75   37.30
  -3   1   3 1030.40   22.50
   3   1  -3 1016.30   29.60
   3   1  -3 1020.50   24.60
  -3   1   3 1024.80   27.90
  -3   1   3 1044.30   21.60
   3  -1  -3 1029.00   28.30
  -3  -1   3  988.90   23.20
   3   1  -2 6310.77  125.69
   3   1  -2 6225.98  131.29
  -3  -1   2 6169.88  131.29
   3  -1  -2 6364.26  130.49
   3  -1  -2 6198.58  124.79
  -3   1   1  217.48    7.00
   3   1  -1  215.68    9.80
   3   1  -1  235.18    7.50
   3  -1  -1  223.88    6.50
  -3  -1   1  231.38    7.10
   3   1   0 1985.40   44.80
  -3   1   0 1969.60   42.50
  -3   1   0 2009.50   40.10
   3  -1   0 1974.90   41.90
  -3  -1   0 2001.80   41.50
   3  -1   0 1942.91   40.40
  -3   1  -1  103.59    5.50
   3   1   1  116.69    4.80
  -3  -1  -1  104.49    4.30
   3  -1   1  108.59    4.50
   3  -1   1  102.59    5.00
   3   1   2  223.98    7.30
  -3   1  -2  222.58    8.90
   3  -1   2  220.08    8.20
  -3  -1  -2  219.18    7.10
   3  -1   2  234.28    8.20
   3   1   3   68.39    4.00
  -3   1  -3   64.89    5.20
  -3  -1  -3   64.19    4.00
   3  -1   3   68.29    4.70
   3  -1   3   63.99    4.70
  -3   1  -4 3109.99   69.69
   3   1   4 3329.37   67.39
   3  -1   4 3296.07   70.59
   3  -1   4 3237.58   68.69
  -3  -1  -4 3169.48   67.49
   3   1   5 1302.97   29.30
  -3   1  -5 1256.47   31.20
  -3  -1  -5 1299.67   30.10
   3  -1   5 1213.28   32.80
  -3  -1  -5 1216.88   29.20
   3  -1   5 1278.67   30.50
  -3   1  -6 3822.32   80.29
   3   1   6 3799.22   84.09
   3   1   6 3812.82   79.29
  -3  -1  -6 3801.62   78.29
  -3  -1  -6 3765.22   78.09
   3  -1   6 3629.64   84.49
   3  -1   6 3854.41   80.79
   3   1   7  473.15   14.50
   3  -1   7  478.65   15.40
   3   1   8    9.90    2.60
   3   1   8    5.70    3.80
   3  -1   8    8.40    2.70
   3  -1   8    5.00    5.80
   3   1   9  280.67   11.50
   3   1   9  311.87   18.60
   3  -1   9  306.27   11.90
  -3   2  11   35.70    4.30
  -3   2  11   41.80    8.90
  -3  -2  11   55.99    5.40
  -3   2  10   73.19    5.00
  -3   2  10   83.79   10.40
  -3   2  10   77.39    7.90
  -3  -2  10   59.69    8.20
  -3  -2  10   72.99    6.00
  -3  -2  10   87.39   15.80
   3   2  -9  460.45   18.20
  -3   2   9  490.45   18.30
  -3   2   9  476.15   21.50
  -3   2   9  420.26   12.80
  -3  -2   9  462.35   26.50
  -3  -2   9  464.75   20.20
  -3  -2   9  423.06   15.50
   3   2  -8  189.98   10.80
  -3   2   8  207.88    7.50
  -3   2   8  220.48   13.70
  -3   2   8  202.88   10.50
  -3   2   8  191.68    7.70
  -3  -2   8  181.08    9.40
  -3  -2   8  200.28   16.90
  -3  -2   8  208.68   12.30
   3   2  -7   70.99    6.60
  -3   2   7   95.09    5.60
  -3   2   7   89.89    9.10
  -3   2   7   80.99    4.90
  -3   2   7   88.89    6.40
  -3  -2   7   85.89    7.80
  -3  -2   7   69.89    5.90
  -3  -2   7   85.69    5.80
  -3  -2   7   83.19   11.40
  -3   2   6  227.78    7.80
  -3   2   6  228.28   12.40
   3   2  -6  221.88   10.50
  -3   2   6  226.08    8.20
  -3  -2   6  210.08    8.90
  -3  -2   6  231.58    9.80
  -3  -2   6  223.08   15.60
  -3  -2   6  232.38   11.60
  -3   2   5   79.99    4.50
   3   2  -5   66.29    5.60
  -3   2   5   79.59    4.70
  -3  -2   5   79.39    5.50
  -3  -2   5   76.69    5.20
   3  -2  -5   74.99    7.30
  -3  -2   5   69.29    6.10
  -3  -2   5   60.39    8.80
  -3   2   4 3482.15   74.49
   3   2  -4 3564.04   77.49
  -3   2   4 3516.85   74.59
   3  -2  -4 3830.82   80.29
  -3  -2   4 3490.85   75.89
  -3  -2   4 3615.64   76.29
   3   2  -3  517.15   14.30
  -3   2   3  513.15   14.50
   3   2  -3  544.55   16.30
   3  -2  -3  496.75   12.80
   3  -2  -3  517.55   12.00
  -3  -2   3  508.85   15.30
  -3  -2   3  517.05   20.30
  -3  -2   3  509.15   15.20
  -3   2   2   17.10    3.40
   3   2  -2   22.40    3.60
  -3  -2   2   19.40    3.50
   3  -2  -2   20.10    3.20
  -3  -2   2   19.20    3.40
   3  -2  -2   22.40    2.90
  -3  -2   2    6.50    4.60
   3   2  -1 4401.96   90.79
  -3   2   1 4311.27   90.69
   3   2  -1 4355.26   93.29
  -3  -2   1 4458.05   91.09
   3  -2  -1 4341.67   89.29
  -3  -2   1 4317.27   90.09
   3  -2  -1 4348.56   90.19
  -3  -2   1 4210.58   93.19
  -3   2   0   24.60    4.00
   3   2   0   26.80    3.80
  -3   2   0   19.40    2.50
   3   2   0   17.40    4.00
  -3  -2   0   15.00    3.70
  -3  -2   0   19.80    3.00
   3  -2   0   19.70    3.20
   3   2   1 1674.43   37.50
  -3   2  -1 1633.94   35.80
  -3   2  -1 1615.34   38.70
  -3  -2  -1 1646.14   38.30
   3  -2   1 1651.23   37.70
  -3  -2  -1 1616.54   35.70
   3  -2   1 1595.84   36.30
  -3   2  -2 3263.37   73.39
  -3   2  -2 3382.96   70.89
   3   2   2 3439.46   71.59
   3  -2   2 3399.46   72.49
  -3  -2  -2 3383.36   69.49
  -3  -2  -2 3372.66   72.79
   3  -2   2 3364.76   71.69
   3   2   3  120.89    6.20
  -3   2  -3  107.09    7.20
  -3   2  -3   99.29    6.00
   3  -2   3  126.29    7.10
   3  -2   3  105.79    6.40
  -3  -2  -3  102.19    6.70
  -3  -2  -3  107.09    4.90
  -3   2  -4  712.83   20.60
  -3   2  -4  749.73   22.20
   3   2   4  764.02   19.90
   3  -2   4  717.83   21.80
  -3  -2  -4  724.33   18.20
   3  -2   4  749.23   21.30
  -3  -2  -4  775.92   21.20
  -3   2  -5 1061.19   29.10
   3   2   5 1101.79   27.20
  -3  -2  -5 1046.50   25.40
   3  -2   5 1066.89   28.70
  -3  -2  -5 1082.79   27.60
   3  -2   5 1180.68   39.70
  -3   2  -6   46.80    5.70
   3   2   6   44.50    4.70
  -3  -2  -6   42.70    4.10
   3  -2   6   51.89    5.60
   3  -2   6   52.29    6.30
  -3  -2  -6   45.40    3.70
  -3   2  -7    3.10    2.10
   3   2   7    1.90    3.20
   3  -2   7    5.70    2.70
   3  -2   7    3.20    4.00
   3   2   8  107.89    9.10
   3   2   8  118.29    7.50
   3  -2   8  105.19    9.60
   3  -2   8  115.79    7.60
   3   2   9    4.10    2.60
   3  -2   9    3.60    2.60
  -3   3  10   16.80    4.70
   3   3 -10   20.20    4.90
  -3   3  10   15.80    3.70
  -3  -3  10   13.20    4.40
  -3  -3  10   25.00    4.90
  -3   3   9   20.50    4.70
   3   3  -9   10.20    4.30
  -3   3   9   22.40    3.60
  -3  -3   9   16.60    5.90
  -3  -3   9   20.40    4.50
  -3  -3   9   17.70    8.00
  -3  -3   9   28.30    5.30
   3   3  -8  319.07   14.80
  -3   3   8  319.17   13.70
  -3   3   8  299.07   12.10
  -3   3   8  309.37   12.00
  -3  -3   8  292.37   32.10
  -3  -3   8  280.57   16.20
  -3  -3   8  312.67   13.60
  -3  -3   8  308.37   13.70
   3   3  -7  442.66   17.50
  -3   3   7  424.26   14.90
  -3   3   7  429.16   14.70
  -3  -3   7  448.86   16.90
  -3  -3   7  426.06   16.10
  -3   3   6   45.60    5.20
   3   3  -6   40.40    6.30
  -3   3   6   31.70    4.70
  -3  -3   6   32.50    5.30
  -3  -3   6   46.30   10.30
  -3  -3   6   36.00    5.40
  -3   3   5  221.48    9.80
  -3   3   5  214.58   10.00
   3   3  -5  224.78   11.20
  -3  -3   5  231.88   16.00
  -3  -3   5  218.08   10.50
  -3  -3   5  218.38   10.90
  -3   3   4  703.33   21.20
   3   3  -4  759.22   22.90
  -3   3   4  734.33   20.90
   3  -3  -4  822.62   23.60
  -3  -3   4  803.62   29.00
   3  -3  -4  715.73   17.30
  -3  -3   4  704.73   22.30
  -3  -3   4  711.93   21.80
   3  -3  -4  733.93   17.10
  -3   3   3   55.59    5.40
   3   3  -3   45.60    5.10
   3   3  -3   50.09    4.80
  -3   3   3   50.09    5.00
  -3  -3   3   52.89    5.40
  -3  -3   3   56.19    9.20
   3  -3  -3   42.70    4.10
   3  -3  -3   50.09    3.90
  -3  -3   3   49.50    5.50
   3   3  -2   26.90    4.40
  -3   3   2   26.60    4.70
   3  -3  -2   25.60    3.70
  -3  -3   2   26.80    4.40
  -3  -3   2   22.30    4.40
  -3  -3   2   31.20    6.40
   3  -3  -2   37.30    4.70
  -3   3   1  727.23   22.00
   3   3  -1  774.32   21.90
   3  -3  -1  730.63   21.10
  -3  -3   1  720.13   20.80
  -3  -3   1  742.83   22.20
  -3  -3   1  698.33   22.90
   3  -3  -1  758.72   20.60
  -3   3   0 9495.15  198.68
  -3   3   0 9999.00  195.18
   3   3   0 9665.03  197.98
  -3  -3   0 9830.82  196.18
   3  -3   0 9687.33  197.58
  -3  -3   0 9619.84  198.68
  -3  -3   0 9639.74  197.48
   3  -3   0 9588.34  197.08
   3   3   1 1349.36   35.20
  -3   3  -1 1466.65   33.50
  -3   3  -1 1400.86   36.60
  -3  -3  -1 1451.85   36.50
   3  -3   1 1424.86   35.40
  -3  -3  -1 1414.86   33.20
  -3   3  -2 1139.59   28.20
  -3   3  -2 1139.39   31.30
   3   3   2 1137.39   29.80
  -3  -3  -2 1123.49   30.50
   3  -3   2 1090.59   29.80
  -3  -3  -2 1127.39   26.70
   3   3   3   96.89    6.80
  -3   3  -3   86.79    6.20
  -3   3  -3   90.09    7.70
  -3  -3  -3   94.49    7.30
   3  -3   3   92.99    7.00
  -3  -3  -3   94.69    5.10
   3  -3   3   94.09    6.80
  -3   3  -4   40.60    5.00
  -3   3  -4   35.30    6.00
   3   3   4   49.10    5.90
   3  -3   4   42.50    5.40
  -3  -3  -4   52.19    6.40
   3  -3   4   44.70    6.30
  -3  -3  -4   44.60    3.80
   3   3   5    7.80    3.20
  -3   3  -5    9.60    3.60
  -3   3  -5    1.50    3.20
  -3  -3  -5    4.10    2.80
  -3  -3  -5    5.90    2.30
   3  -3   5    5.20    3.30
  -3   3  -6  318.47   13.70
   3   3   6  302.37   13.00
  -3  -3  -6  292.07    9.60
   3  -3   6  299.37   17.80
  -3  -3  -6  303.67   11.20
   3  -3   6  298.97   13.50
   3   3   7   21.70    4.80
  -3   3  -7   29.40    4.50
   3  -3   7   15.90    4.60
   3  -3   7   34.50    5.90
   3   3   8   -2.20    2.70
   3  -3   8    6.60    3.00
   3  -3   8    5.50    3.70
  -3   4   9   73.69    9.00
  -3   4   9   78.89    7.50
   3   4  -9   66.69    8.20
  -3  -4   9   71.69    9.20
  -3  -4   9   74.19    8.00
  -3   4   8  169.18   10.20
   3   4  -8  169.88   11.60
  -3   4   8  180.48   10.60
  -3  -4   8  188.78   11.60
  -3  -4   8  174.68   18.00
  -3  -4   8  161.38   11.00
  -3   4   7  116.69    8.00
   3   4  -7  114.99    9.40
  -3   4   7  109.29    8.60
  -3  -4   7  101.99    9.10
  -3  -4   7  111.29   13.80
  -3  -4   7   98.79    9.00
  -3   4   6    1.80    3.00
  -3   4   6    3.60    3.40
   3   4  -6   -0.90    2.80
  -3  -4   6   -1.70    2.60
  -3  -4   6   -0.50    3.00
  -3  -4   6   -1.50    4.50
   3   4  -5  330.97   15.00
  -3   4   5  308.07   13.60
  -3   4   5  315.97   14.50
  -3  -4   5  353.36   21.00
  -3  -4   5  295.67   14.70
   3  -4  -5  313.37    8.60
  -3  -4   5  317.47   16.40
   3  -4  -5  299.47    8.80
   3   4  -4  649.14   22.10
  -3   4   4  628.24   20.50
  -3   4   4  581.54   20.90
   3  -4  -4  588.94   16.90
  -3  -4   4  626.94   22.30
   3  -4  -4  615.04   17.00
  -3  -4   4  657.73   27.50
  -3  -4   4  613.84   21.60
  -3   4   3  189.28   10.80
  -3   4   3  194.18   10.20
  -3  -4   3  200.58   11.00
   3  -4  -3  191.08    9.10
  -3  -4   3  193.28   13.90
   3  -4  -3  178.98    8.70
  -3  -4   3  187.08   11.40
   3   4  -2  112.89    8.10
  -3   4   2  100.19    8.50
  -3  -4   2  113.19    8.80
  -3  -4   2  124.29   10.70
  -3  -4   2  117.29    8.40
   3  -4  -2  113.09    7.30
   3  -4  -2   99.49    7.40
  -3   4   1  149.59   10.00
   3   4  -1  147.19    9.40
  -3  -4   1  142.39    9.80
   3  -4  -1  149.69    9.10
  -3  -4   1  132.59    8.40
   3  -4  -1  149.09    8.70
  -3  -4   1  137.09   10.00
  -3   4   0  109.99    8.80
   3   4   0  117.19    8.50
  -3   4   0  119.39    7.10
  -3  -4   0  122.79    8.90
  -3  -4   0  114.59    7.40
   3  -4   0  113.79    8.20
   3  -4   0  111.99    7.90
  -3   4  -1  585.24   18.20
  -3   4  -1  606.24   22.10
   3   4   1  556.54   20.20
   3  -4   1  600.04   23.40
  -3  -4  -1  556.24   20.60
  -3  -4  -1  604.44   18.20
   3  -4   1  606.94   20.30
  -3   4  -2  193.08    9.40
   3   4   2  180.08   10.60
  -3   4  -2  161.78   10.90
  -3  -4  -2  184.08   10.90
   3  -4   2  168.58   10.20
   3  -4   2  159.88   10.20
  -3  -4  -2  174.48    8.20
  -3   4  -3 1136.29   33.80
  -3   4  -3 1151.28   30.90
   3   4   3 1156.88   32.80
   3  -4   3 1167.48   36.70
  -3  -4  -3 1140.69   32.80
  -3  -4  -3 1164.88   28.00
  -3   4  -4  739.03   25.10
   3   4   4  729.53   24.10
  -3   4  -4  710.33   22.70
   3  -4   4  723.53   24.30
  -3  -4  -4  754.42   23.90
  -3  -4  -4  751.82   19.20
   3   4   5   83.49    7.90
  -3   4  -5   96.69    7.70
  -3   4  -5   91.19    8.50
  -3  -4  -5   95.49    5.40
  -3  -4  -5   97.49    7.60
   3  -4   5   98.39    8.50
  -3   4  -6    4.20    3.40
  -3   4  -6    2.20    3.30
   3   4   6    1.20    3.00
   3  -4   6    4.50    2.90
  -3  -4  -6    1.00    1.80
  -3  -4  -6    3.20    2.80
   3   4   7  184.68   11.40
   3  -4   7  173.98   11.20
   3  -4   7  168.28   12.40
   3   5  -8   22.30    5.60
  -3   5   8   48.00    7.10
  -3   5   8   20.20    4.90
  -3  -5   8   35.00    8.40
  -3  -5   8   27.10    5.70
  -3   5   7  729.73   25.70
   3   5  -7  713.43   26.60
  -3   5   7  733.63   25.10
  -3  -5   7  671.53   25.90
  -3  -5   7  686.23   34.90
  -3  -5   7  732.63   27.40
  -3   5   6   13.50    4.70
   3   5  -6    5.00    3.10
  -3   5   6    3.00    4.10
  -3  -5   6   10.80    4.40
  -3  -5   6    7.30    4.40
  -3  -5   6    7.40    7.10
   3   5  -5   25.30    5.10
  -3   5   5   32.40    6.70
  -3   5   5   48.40    7.20
   3  -5  -5   37.10    3.60
   3  -5  -5   39.90    3.90
  -3  -5   5   37.80    7.00
  -3  -5   5   45.40    7.30
  -3   5   4  438.46   17.90
  -3   5   4  442.26   19.30
   3   5  -4  436.46   19.00
  -3  -5   4  431.76   19.60
  -3  -5   4  438.06   18.80
   3  -5  -4  449.46   14.90
   3  -5  -4  432.76   15.00
  -3  -5   4  452.75   24.20
  -3   5   3  348.97   16.90
   3   5  -3  345.67   16.40
  -3  -5   3  340.67   16.00
   3  -5  -3  332.57   13.80
  -3  -5   3  350.86   23.10
  -3  -5   3  357.36   17.40
   3  -5  -3  351.06   14.10
  -3   5   2   94.89    9.30
  -3  -5   2   92.59   11.50
  -3  -5   2  104.69    9.70
  -3  -5   2  119.29   11.60
   3  -5  -2   98.69    8.10
   3  -5  -2   83.59    7.40
  -3   5   1   27.50    6.30
   3   5  -1   27.30    5.80
   3  -5  -1   15.60    4.40
  -3  -5   1   24.60    6.40
   3  -5  -1   26.90    6.00
  -3  -5   1   25.80    6.00
  -3   5   0  338.27   14.10
   3   5   0  336.67   16.10
   3  -5   0  337.57   15.70
  -3  -5   0  348.77   14.60
   3  -5   0  353.86   16.00
  -3  -5   0  313.47   16.00
  -3   5  -1  600.04   32.60
  -3   5  -1  595.84   19.90
   3   5   1  568.24   22.10
  -3  -5  -1  554.64   22.30
  -3  -5  -1  585.04   19.40
   3  -5   1  593.94   21.70
  -3   5  -2  107.69    7.90
  -3   5  -2   89.69    9.30
   3   5   2  108.69    9.60
  -3  -5  -2  107.09   10.90
   3  -5   2  100.79    8.90
  -3  -5  -2  103.29    6.90
   3   5   3   81.69    8.50
  -3   5  -3   60.19    7.80
   3  -5   3   79.19    8.20
  -3  -5  -3   83.19    5.90
   3  -5   3   70.49    8.20
   3   5   4   92.09    9.00
  -3   5  -4   94.99    8.20
   3  -5   4  110.59    9.80
  -3  -5  -4   82.19    5.60
   3  -5   4   95.99    8.80
  -3  -5  -4   92.69    8.30
   3   5   5  624.84   24.50
  -3   5  -5  631.84   22.70
  -3  -5  -5  655.93   22.50
   3  -5   5  676.33   24.60
  -3  -5  -5  649.83   17.80
   3  -5   5  660.73   26.70
   3   5   6  170.18   12.10
  -3   5  -6  166.38   11.20
   3  -5   6  168.78   12.80
  -3  -5  -6  171.58    7.20
  -3  -5  -6  182.18    9.40
   3  -5   6  173.88   18.40
  -3   6   7   80.39    9.50
   3   6  -7   75.99   10.20
  -3   6   7   79.69   10.20
  -3  -6   7   75.99   10.70
   3   6  -6  157.38   12.00
  -3   6   6  162.68   13.40
  -3   6   6  159.58   11.90
  -3  -6   6  152.88   17.10
  -3  -6   6  154.68   12.50
  -3  -6   6  167.68   19.10
   3  -6  -6  138.79    5.70
   3  -6  -6  139.79    5.30
  -3   6   5  283.27   15.70
  -3   6   5  277.87   16.20
   3   6  -5  279.67   15.80
  -3  -6   5  264.97   16.50
   3  -6  -5  298.47   10.80
   3  -6  -5  274.57   11.00
  -3  -6   5  262.37   15.70
  -3  -6   5  274.67   21.40
   3   6  -4    5.50    3.60
  -3   6   4    9.20    4.50
   3  -6  -4    2.50    2.40
  -3  -6   4    7.60    4.10
   3  -6  -4    3.10    2.40
  -3   6   3   71.69   10.30
   3   6  -3   60.79    9.90
  -3  -6   3   52.79    8.80
   3  -6  -3   70.59    6.60
  -3  -6   3   54.39    8.00
  -3  -6   3   66.89   12.00
   3  -6  -3   69.29    6.70
  -3   6   2   85.39   11.30
  -3  -6   2   98.49   10.50
   3  -6  -2   73.89    7.70
  -3   6   1  182.78   13.50
   3   6  -1  186.98   12.60
   3  -6  -1  211.48   12.60
  -3  -6   1  195.68   13.70
  -3  -6   1  168.68   13.20
  -3  -6   1  182.78   12.10
  -3   6   0  462.75   18.40
   3   6   0  468.05   20.70
  -3  -6   0  434.66   21.00
   3  -6   0  458.55   19.70
   3  -6   0  460.65   20.30
  -3  -6   0  461.85   18.50
  -3   6  -1   68.29   10.50
   3   6   1   59.49    9.20
  -3   6  -1   46.20    6.10
   3  -6   1   59.59    8.80
  -3  -6  -1   58.59    9.00
   3  -6   1   53.49    7.90
  -3  -6  -1   57.89    7.60
  -3   6  -2   23.00    6.20
  -3   6  -2   20.30    5.60
   3   6   2   23.40    6.50
   3  -6   2   19.50    7.50
  -3  -6  -2   16.40    5.40
  -3  -6  -2   12.90    3.70
   3  -6   2   19.40    5.40
   3   6   3  500.35   22.60
  -3   6  -3  519.15   20.10
  -3  -6  -3  518.25   17.20
   3  -6   3  524.35   22.20
  -3  -6  -3  516.75   21.70
   3  -6   3  529.35   23.30
  -3   6  -4   34.10    5.70
  -3   6  -4   29.40    7.60
   3  -6   4   36.80    6.80
  -3  -6  -4   24.80    4.90
  -3  -6  -4   35.10    6.70
  -3   6  -5   21.00    6.10
   3   6   5   26.10    6.50
  -3   6  -5   21.80    5.30
  -3  -6  -5   24.40    4.90
   3  -6   5   19.90    5.00
   3   7  -4   43.60    7.90
   3  -7  -4   53.59    5.80
  -3  -7   4   27.40    6.70
   3  -7  -4   31.80    5.40
   3   7  -3   22.40    6.30
  -3  -7   3   23.70    7.30
   3  -7  -3   34.30    5.70
   3  -7  -3   29.80    5.60
   3  -7  -2   65.39    7.60
   3  -7  -2   93.89    8.70
  -3  -7   2   70.09   10.80
  -3  -7   2   82.29   13.10
   3   7  -1  183.58   13.40
   3  -7  -1  200.78   13.00
  -3  -7   1  221.48   15.30
   3  -7  -1  206.78   13.60
  -3  -7   1  220.98   15.70
   3   7   0   25.60    6.60
  -3   7   0   24.30    5.80
   3  -7   0   29.10    6.80
  -3  -7   0   17.60    8.70
   3  -7   0   43.70   11.50
  -3  -7   0   19.90    6.50
  -3   7  -1    3.20    3.40
   3   7   1    2.30    4.40
   3  -7   1   10.20    4.20
  -3  -7  -1   -4.00    2.80
  -3  -7  -1    5.50    5.70
  -3   7  -2   45.30    7.70
   3   7   2   18.30    6.20
   3  -7   2   47.40    8.50
  -3  -7  -2   33.60    7.50
  -3  -7  -2   22.70    5.00
  -4   0  11   -2.50    3.10
  -4   0  11    3.70    6.60
  -4   0  10  115.39    9.60
  -4   0  10   94.29   12.80
  -4   0   9    0.60    4.90
  -4   0   9    3.50    2.70
  -4   0   8   55.79   10.70
  -4   0   8   58.19    6.60
  -4   0   7    3.40    2.70
  -4   0   7   -1.80    4.60
  -4   0   6   27.70    4.40
  -4   0   6   13.10    5.70
  -4   0   5    1.40    1.70
  -4   0   5   -0.60    3.40
   4   0  -5    1.40    3.80
   4   0  -5    0.00    1.50
  -4   0   4  726.33   25.40
  -4   0   4  757.32   19.40
   4   0  -4  825.62   20.30
  -4   0   4  804.12   17.00
   4   0  -4  730.53   25.40
  -4   0   3   -2.40    3.70
  -4   0   3   -4.90    1.40
  -4   0   3   -3.80    1.10
   4   0  -3   -4.70    1.30
   4   0  -3   -7.50    3.30
   4   0  -2 1249.28   26.70
  -4   0   2 1224.48   26.30
   4   0  -2 1248.18   26.40
   4   0  -2 1235.38   33.40
   4   0  -1    3.90    1.30
  -4   0   1    2.20    1.20
  -4   0  -1   -2.40    1.60
   4   0   1   -0.70    1.50
  -4   0  -2 9112.49  183.78
   4   0   2 9202.28  182.78
  -4   0  -3    0.10    1.70
   4   0   3    0.80    1.60
   4   0   4  166.88    8.30
   4   0   4  177.38    7.10
  -4   0  -4  158.78    7.90
   4   0   5    0.20    2.40
   4   0   5   -1.00    1.70
  -4   0  -5   -2.80    2.00
  -4   0  -6  296.87   11.30
   4   0   6  327.77   14.00
   4   0   6  288.37   10.70
   4   0   7    2.80    2.90
   4   0   7    2.00    2.00
   4   0   8  118.29    7.10
   4   0   8  150.58   10.80
   4   0   9   -1.60    2.30
  -4   1  11    7.60    6.70
  -4   1  11    1.30    3.20
  -4  -1  11   -1.10    5.70
  -4  -1  11    6.10    2.40
  -4   1  10  910.71   29.80
  -4   1  10  935.01   37.40
  -4  -1  10  858.41   39.00
  -4  -1  10  940.21   23.80
  -4  -1  10 1101.19   47.10
  -4   1   9   12.70    6.50
  -4   1   9    4.00    2.70
  -4  -1   9   10.10    2.90
  -4  -1   9    3.70    3.10
  -4  -1   9    3.60    5.40
  -4   1   8  115.19   11.60
   4   1  -8  125.79    8.60
  -4   1   8  108.89    7.70
  -4  -1   8  120.59   13.80
  -4  -1   8  108.59    8.50
  -4  -1   8  101.89    5.90
   4   1  -7  164.38    8.70
  -4   1   7  146.29   12.10
  -4   1   7  143.39    8.10
  -4  -1   7  147.19    9.20
  -4  -1   7  160.68    6.30
  -4  -1   7  154.18    7.50
  -4   1   6  638.64   18.40
  -4   1   6  630.64   24.10
   4   1  -6  632.04   18.90
   4  -1  -6  677.23   24.70
  -4  -1   6  635.84   26.60
  -4  -1   6  642.44   16.10
  -4  -1   6  666.63   20.40
  -4   1   5 1060.69   25.40
   4   1  -5 1052.19   26.50
  -4   1   5 1035.70   31.70
  -4  -1   5 1047.20   27.50
   4  -1  -5 1061.09   32.30
  -4  -1   5 1058.99   24.40
  -4  -1   5 1048.20   34.40
  -4   1   4  381.66    8.60
  -4   1   4  345.67   10.00
  -4   1   4  339.97   15.30
   4   1  -4  351.66   11.50
   4   1  -4  286.27   15.80
  -4  -1   4  399.56   12.00
   4  -1  -4  330.67   15.60
  -4  -1   4  315.97   16.50
  -4  -1   4  376.56   12.30
  -4   1   3 2632.94   53.49
   4   1  -3 2554.74   62.69
   4   1  -3 2665.93   54.59
   4   1  -3 2622.04   56.29
   4  -1  -3 2624.04   53.29
  -4  -1   3 2590.44   54.99
   4  -1  -3 2579.94   61.79
  -4  -1   3 2601.94   63.19
   4  -1  -3 2729.63   52.59
   4   1  -2    8.40    4.60
   4   1  -2    5.30    2.10
  -4   1   2    5.50    1.90
  -4  -1   2    7.00    2.00
  -4  -1   2   12.50    4.40
   4   1  -1  721.53   17.70
  -4   1   1  688.63   17.30
   4  -1  -1  693.23   17.20
  -4  -1   1  705.43   16.80
  -4   1   0  424.06   12.50
   4   1   0  441.06   12.00
   4   1   0  414.16   15.20
   4  -1   0  413.46   11.50
  -4  -1   0  434.26   11.30
   4  -1   0  409.16   10.10
   4   1   1 1993.50   43.00
  -4   1  -1 1983.90   44.50
   4  -1   1 1997.90   42.40
   4  -1   1 1976.50   43.20
  -4  -1  -1 2039.80   42.60
   4   1   2 2995.50   61.39
  -4   1  -2 2856.61   63.39
  -4  -1  -2 2900.31   60.99
   4  -1   2 2928.61   61.99
   4  -1   2 2928.31   61.99
  -4   1  -3    5.70    2.50
   4   1   3    5.90    1.90
   4  -1   3    5.90    2.30
   4  -1   3    6.20    2.30
  -4  -1  -3    7.20    2.30
   4   1   4   63.69    4.50
  -4   1  -4   57.29    5.70
   4  -1   4   71.19    5.70
   4  -1   4   64.89    4.90
  -4  -1  -4   50.89    4.60
   4   1   5   51.29    4.40
  -4   1  -5   51.79    6.00
   4  -1   5   43.10    4.60
  -4  -1  -5   42.40    4.50
   4  -1   5   43.70    7.50
   4   1   6   16.70    3.30
   4   1   6   12.20    3.90
  -4   1  -6   20.60    4.40
  -4  -1  -6   19.30    3.50
   4  -1   6   24.90    4.30
   4  -1   6   14.20    4.50
  -4  -1  -6   16.70    3.20
   4   1   7    1.20    2.30
  -4   1  -7    2.80    2.00
   4   1   7    1.40    2.50
   4  -1   7    3.80    4.00
   4  -1   7    2.90    2.20
   4   1   8   11.30    4.60
   4   1   8   11.70    3.00
   4  -1   8   11.90    3.00
   4  -1   8    5.00    4.50
   4  -1   9  104.89    7.30
  -4   2  11  209.88   16.30
  -4  -2  11  233.68   10.70
  -4  -2  11  198.78   10.40
  -4   2  10   97.89   11.80
  -4   2  10  114.29    9.10
  -4  -2  10   98.49    6.80
  -4  -2  10  115.39   15.10
  -4  -2  10   97.59    6.70
  -4  -2  10  117.29   10.50
  -4   2   9  276.17   16.90
  -4   2   9  276.67   13.30
  -4   2   9  272.57    9.30
   4   2  -9  269.47   13.40
  -4   2   9  288.07    9.30
  -4  -2   9  263.17   20.70
  -4  -2   9  274.07   11.70
  -4  -2   9  268.67   11.10
  -4  -2   9  273.87   15.20
  -4   2   8   60.79    7.10
  -4   2   8   57.19    4.30
  -4   2   8   55.39    5.90
  -4   2   8   67.99    8.90
   4   2  -8   73.09    7.00
  -4  -2   8   60.39    5.70
  -4  -2   8   75.89   13.60
  -4  -2   8   51.09    5.00
  -4  -2   8   58.19    7.30
  -4   2   7   92.99    6.50
  -4   2   7   97.09    9.60
  -4   2   7   84.79    5.00
  -4   2   7   97.39    5.20
   4   2  -7   93.89    7.30
  -4  -2   7   93.69    6.60
  -4  -2   7   89.89   12.00
  -4  -2   7   94.69    8.10
  -4  -2   7   87.99    6.00
  -4   2   6  429.86   12.50
  -4   2   6  444.06   12.60
  -4   2   6  447.86   13.90
   4   2  -6  452.15   15.90
   4  -2  -6  440.36   18.90
  -4  -2   6  439.26   14.40
  -4  -2   6  421.56   14.00
  -4  -2   6  443.96   16.90
  -4  -2   6  445.76   22.70
  -4   2   5  818.62   20.30
   4   2  -5  805.92   23.20
  -4  -2   5  844.52   21.90
   4  -2  -5  822.52   26.70
  -4  -2   5  805.12   30.00
  -4  -2   5  804.42   21.70
   4   2  -4 7867.21  160.58
  -4   2   4 7796.72  157.38
   4  -2  -4 7914.71  164.98
  -4  -2   4 7720.83  168.88
  -4  -2   4 7731.63  158.88
   4   2  -3  397.16   13.70
   4   2  -3  396.66   12.50
  -4   2   3  404.66   12.30
   4   2  -3  361.56   17.20
   4  -2  -3  396.16   11.40
   4  -2  -3  391.16   16.20
  -4  -2   3  369.76   17.40
   4  -2  -3  409.46    9.90
  -4  -2   3  413.26   13.00
   4   2  -2  673.03   22.80
   4   2  -2  667.23   18.80
  -4   2   2  663.43   18.30
  -4  -2   2  666.13   18.30
  -4  -2   2  689.83   23.20
   4  -2  -2  666.23   18.00
   4  -2  -2  679.33   16.50
   4   2  -1  617.44   17.70
   4   2  -1  621.74   20.40
  -4   2   1  619.14   14.20
  -4   2   1  613.44   17.70
   4  -2  -1  629.54   16.20
  -4  -2   1  587.04   20.00
  -4  -2   1  617.84   16.80
   4   2   0 2460.15   54.99
  -4   2   0 2547.34   51.69
   4   2   0 2492.45   57.19
   4  -2   0 2521.75   54.19
  -4  -2   0 2487.15   53.49
  -4   2  -1   78.69    4.30
   4   2   1   78.49    5.40
  -4   2  -1   83.59    6.30
   4   2   1   86.19    6.50
   4  -2   1   77.59    4.60
   4  -2   1   83.39    5.50
  -4  -2  -1   82.09    4.60
  -4   2  -2  735.43   21.80
   4   2   2  743.93   20.00
  -4   2  -2  755.02   19.00
   4  -2   2  724.53   19.70
   4  -2   2  744.03   20.40
  -4  -2  -2  720.83   18.20
  -4   2  -3    8.10    3.20
   4   2   3   11.80    2.70
   4  -2   3   10.70    3.00
   4  -2   3    9.80    3.00
  -4  -2  -3   10.90    3.30
  -4  -2  -3   10.20    2.40
   4   2   4  443.76   14.30
  -4   2  -4  422.76   16.30
   4  -2   4  452.25   16.00
  -4  -2  -4  448.26   15.50
   4  -2   4  452.45   15.20
  -4  -2  -4  431.96   13.00
   4   2   5  161.88    8.10
  -4   2  -5  177.58   10.20
  -4  -2  -5  158.88    8.90
   4  -2   5  188.38   10.40
  -4  -2  -5  153.58    7.40
   4  -2   5  169.28    9.00
  -4   2  -6  316.97   13.60
   4   2   6  322.67   12.40
   4  -2   6  320.17   15.00
  -4  -2  -6  314.17   11.90
  -4  -2  -6  320.47   10.90
   4  -2   6  312.37   12.70
   4   2   7   31.70    4.60
  -4   2  -7   39.80    5.20
   4  -2   7   38.90    5.40
   4  -2   7   31.90    6.00
   4   2   8    0.00    2.20
   4  -2   8    0.00    3.40
   4  -2   8    9.30    2.50
   4   3 -10    2.50    3.20
  -4   3  10    7.40    2.80
  -4   3  10    0.60    3.00
  -4  -3  10    6.10    3.20
  -4  -3  10    8.20    3.50
  -4   3   9   62.39    5.40
  -4   3   9   59.79    5.60
   4   3  -9   55.99    7.00
  -4   3   9   47.50    6.10
  -4  -3   9   63.79    6.70
  -4  -3   9   65.79    9.10
  -4  -3   9   53.09   13.90
   4   3  -8    4.20    3.50
  -4   3   8    2.80    2.30
  -4   3   8    3.10    2.40
  -4   3   8    0.20    2.50
  -4  -3   8    4.40    2.70
  -4  -3   8    2.30    3.30
  -4   3   7  418.76   14.80
  -4   3   7  441.66   14.70
   4   3  -7  430.76   17.30
  -4  -3   7  411.36   16.40
  -4  -3   7  417.96   16.00
  -4   3   6 3802.82   79.69
  -4   3   6 3781.72   80.39
   4   3  -6 3643.04   83.09
  -4  -3   6 3737.43   82.59
   4  -3  -6 3700.83   85.09
  -4  -3   6 3442.76   93.59
  -4  -3   6 3712.03   81.59
  -4   3   5  381.26   13.40
  -4   3   5  363.76   13.70
   4   3  -5  369.06   15.00
  -4  -3   5  372.76   14.30
  -4  -3   5  359.36   20.20
  -4  -3   5  387.46   15.00
   4  -3  -5  404.86   17.00
   4   3  -4 1607.24   40.80
  -4   3   4 1622.24   39.10
   4  -3  -4 1600.04   35.10
   4  -3  -4 1599.34   42.50
   4  -3  -4 1627.54   33.90
  -4  -3   4 1558.04   39.30
  -4  -3   4 1617.24   40.30
  -4  -3   4 1550.04   46.90
  -4   3   3  371.76   13.80
   4   3  -3  386.96   13.60
  -4  -3   3  366.46   13.70
   4  -3  -3  385.96   11.20
  -4  -3   3  356.26   14.20
  -4  -3   3  375.26   18.10
   4  -3  -3  366.96   12.40
   4   3  -2    2.90    2.70
  -4   3   2    0.50    2.30
  -4  -3   2    5.20    2.50
  -4  -3   2    9.00    3.20
  -4  -3   2    8.80    4.40
   4  -3  -2    4.90    2.70
   4  -3  -2    2.30    2.00
  -4   3   1  863.91   25.50
   4   3  -1  936.21   25.70
  -4  -3   1  880.01   23.90
   4  -3  -1  904.81   23.60
  -4  -3   1  892.81   27.40
   4  -3  -1  913.41   24.80
  -4  -3   1  901.81   25.90
  -4   3   0   45.00    3.70
   4   3   0   52.79    5.50
  -4   3   0   36.50    5.80
  -4  -3   0   41.30    4.30
   4  -3   0   41.60    4.60
  -4  -3   0   39.70    5.90
  -4  -3   0   36.60    5.60
   4   3   1   16.30    3.90
  -4   3  -1    8.00    3.50
  -4   3  -1   11.70    2.60
   4  -3   1    8.50    2.90
  -4  -3  -1    7.30    3.20
  -4  -3  -1    7.20    2.40
   4   3   2  665.83   20.30
  -4   3  -2  624.14   21.30
  -4   3  -2  638.44   18.10
   4  -3   2  625.44   19.90
  -4  -3  -2  647.54   17.20
  -4  -3  -2  642.14   21.00
   4   3   3    5.30    3.00
  -4   3  -3    6.10    3.60
  -4   3  -3    0.60    2.20
   4  -3   3    2.40    2.50
  -4  -3  -3    1.20    1.70
   4  -3   3    3.20    2.80
  -4  -3  -3   -1.30    2.40
  -4   3  -4   -1.20    2.90
  -4   3  -4   -0.90    2.40
   4   3   4    1.80    2.70
  -4  -3  -4   -1.40    2.50
   4  -3   4   -3.40    2.50
   4  -3   4    0.30    2.50
  -4  -3  -4   -3.50    1.70
   4   3   5   38.70    5.50
   4  -3   5   35.60    5.80
   4  -3   5   48.60    6.20
  -4  -3  -5   46.00    4.20
  -4  -3  -5   46.60    6.10
   4   3   6   23.20    5.00
   4  -3   6   33.60    5.60
  -4  -3  -6   27.90    3.80
  -4  -3  -6   25.10    4.30
  -4   3  -7   30.20    5.30
   4   3   7   33.40    5.60
   4  -3   7   22.20    7.90
   4  -3   7   22.80    4.90
   4   3   8  130.29    9.50
  -4   4   9   54.89    6.20
   4   4  -9   56.19    7.50
  -4   4   9   62.29    6.60
  -4  -4   9   72.59    8.00
  -4  -4   9   68.49    8.70
  -4   4   8   37.40    5.80
   4   4  -8   32.60    6.50
  -4   4   8   30.90    5.60
  -4  -4   8   38.80   11.40
  -4  -4   8   30.00    5.70
  -4  -4   8   40.90    6.60
  -4   4   7   28.50    5.90
  -4   4   7   25.10    4.70
   4   4  -7   18.30    4.90
  -4  -4   7   21.10    5.30
  -4  -4   7   17.70    4.90
  -4  -4   7   23.00    8.80
  -4   4   6 1032.90   29.40
  -4   4   6 1080.89   30.90
   4   4  -6  991.10   31.70
  -4  -4   6 1021.40   40.60
  -4  -4   6 1066.19   31.30
  -4  -4   6 1079.29   32.60
   4   4  -5 1462.75   40.40
  -4   4   5 1513.65   39.60
  -4   4   5 1457.95   37.90
  -4  -4   5 1410.16   47.90
  -4  -4   5 1466.45   39.50
   4  -4  -5 1495.25   31.40
  -4  -4   5 1475.05   40.80
   4  -4  -5 1518.75   31.90
   4  -4  -5 1430.46   40.10
  -4   4   4 3545.45   80.69
   4   4  -4 3550.64   81.69
  -4  -4   4 3559.94   91.69
  -4  -4   4 3548.55   82.09
  -4  -4   4 3359.86   88.69
   4  -4  -4 3602.04   82.19
   4  -4  -4 3551.64   74.29
   4  -4  -4 3598.84   75.59
  -4   4   3   65.29    7.30
   4   4  -3   69.49    6.60
   4  -4  -3   70.19    6.10
  -4  -4   3   65.19    7.40
   4  -4  -3   69.69    5.50
  -4  -4   3   73.69    9.70
   4   4  -2  298.87   13.70
  -4   4   2  318.37   14.80
  -4  -4   2  308.77   14.80
  -4  -4   2  351.96   17.40
   4  -4  -2  304.17   12.10
   4  -4  -2  323.57   13.40
  -4  -4   2  286.37   16.60
  -4   4   1  119.29    9.30
   4   4  -1  104.29    8.30
  -4  -4   1  118.09    9.70
   4  -4  -1  106.49    7.50
   4  -4  -1  110.49    8.20
  -4  -4   1  103.79    8.80
   4   4   0  596.64   21.20
  -4   4   0  626.34   18.20
  -4   4   0  642.44   23.60
  -4  -4   0  610.54   25.20
   4  -4   0  637.04   24.80
   4  -4   0  601.24   20.00
  -4  -4   0  586.84   21.70
  -4   4  -1   37.10    4.50
   4   4   1   53.69    7.10
  -4   4  -1   37.10    6.50
   4  -4   1   44.30    6.50
  -4  -4  -1   34.20    4.80
   4  -4   1   44.40    6.60
  -4  -4  -1   49.99    7.30
  -4   4  -2    5.50    2.60
  -4   4  -2    4.70    3.80
  -4  -4  -2    3.40    2.20
   4  -4   2    6.00    4.00
  -4  -4  -2    4.60    3.60
  -4   4  -3   14.60    3.80
   4   4   3   13.20    4.30
  -4   4  -3   12.30    4.60
   4  -4   3   14.60    4.00
  -4  -4  -3    3.70    3.90
  -4  -4  -3   10.20    2.90
  -4   4  -4    2.20    3.40
  -4   4  -4    1.90    2.70
   4   4   4    4.30    3.10
  -4  -4  -4    1.80    1.90
   4  -4   4    6.00    3.20
  -4  -4  -4    0.80    3.00
   4   4   5   13.30    4.30
  -4   4  -5   25.60    5.70
  -4   4  -5   20.70    4.60
  -4  -4  -5   19.80    4.10
  -4  -4  -5   24.40    4.40
   4  -4   5   27.40    5.40
   4   4   6  100.69    8.80
  -4   4  -6  107.09    9.80
   4  -4   6  110.69    8.60
  -4  -4  -6  102.79    5.80
  -4  -4  -6   93.49    7.00
  -4   4  -7   44.40    6.80
   4   4   7   39.20    6.20
   4  -4   7   62.69    7.00
   4  -4   7   46.20    7.60
  -4   5   8    4.90    3.20
   4   5  -8    2.80    3.20
  -4   5   8    5.50    3.90
  -4  -5   8   -1.30    3.20
  -4  -5   8    2.40    2.30
   4   5  -7   89.59    9.10
  -4   5   7   83.29    8.80
  -4   5   7   77.99    7.90
  -4  -5   7   94.19   17.30
  -4  -5   7   84.69    9.00
  -4  -5   7  103.99   10.00
   4   5  -6   57.89    9.80
  -4   5   6   45.00    6.80
  -4   5   6   57.59    8.30
  -4  -5   6   44.10   12.20
  -4  -5   6   50.29    8.50
  -4  -5   6   48.00    7.60
   4   5  -5  107.39    9.40
  -4   5   5  107.49    9.60
  -4  -5   5  108.39    9.30
   4  -5  -5  109.09    5.70
   4  -5  -5  102.29    5.70
  -4  -5   5  112.39   10.20
  -4   5   4   23.80    6.20
   4   5  -4   19.60    5.10
  -4  -5   4   26.00    5.70
  -4  -5   4   15.80    5.40
  -4  -5   4   31.00    8.80
   4  -5  -4   30.90    6.90
   4  -5  -4   26.60    4.40
   4  -5  -4   22.70    3.90
  -4   5   3    2.40    3.90
  -4  -5   3    5.40    4.20
  -4  -5   3   -1.10    4.90
  -4  -5   3    5.70    3.40
   4  -5  -3    0.20    3.10
   4  -5  -3   -0.40    2.30
  -4   5   2  590.34   23.10
   4   5  -2  573.54   21.70
  -4  -5   2  589.34   23.40
   4  -5  -2  597.74   19.90
  -4  -5   2  588.24   24.90
   4  -5  -2  578.04   20.80
  -4   5   1 1233.18   37.40
   4   5  -1 1151.78   35.60
   4  -5  -1 1242.18   35.40
  -4  -5   1 1241.18   36.70
  -4  -5   1 1206.68   37.20
   4   5   0  257.97   14.30
  -4   5   0  246.08   11.40
   4  -5   0  240.38   13.40
  -4  -5   0  267.17   12.40
   4  -5   0  243.68   12.80
  -4  -5   0  252.57   14.50
  -4   5  -1  518.75   18.00
   4   5   1  528.55   21.40
   4  -5   1  540.05   20.30
  -4  -5  -1  544.95   22.00
  -4  -5  -1  529.45   18.00
  -4   5  -2   47.80    5.70
   4   5   2   55.59    8.10
  -4  -5  -2   36.50    4.90
   4  -5   2   43.00    6.90
  -4  -5  -2   56.69    8.70
   4   5   3  222.98   13.50
  -4   5  -3  214.18   12.90
  -4   5  -3  215.38   20.80
   4  -5   3  219.18   13.50
  -4  -5  -3  207.28    9.40
  -4  -5  -3  223.68   13.30
   4  -5   3  226.08   13.00
  -4   5  -4   49.30    6.30
   4   5   4   51.39    8.10
  -4   5  -4   59.69    8.60
  -4  -5  -4   56.19    5.00
   4  -5   4   64.69   12.40
   4  -5   4   56.89    8.20
  -4  -5  -4   63.79    7.30
  -4   5  -5   65.89    9.80
   4   5   5   50.29    7.70
  -4   5  -5   55.49    6.20
   4  -5   5   50.79    9.10
   4  -5   5   70.49    9.70
  -4  -5  -5   52.69    4.80
  -4   5  -6   49.40    6.80
  -4   5  -6   71.69    9.10
   4   5   6   69.19    9.60
   4  -5   6   80.59    7.80
  -4  -5  -6   70.59    5.20
  -4  -5  -6   84.39    6.70
  -4   6   7  124.79   11.60
  -4  -6   7  126.29   12.00
   4   6  -6   79.49    9.10
  -4   6   6   84.09   16.90
   4  -6  -6   79.99    3.90
   4  -6  -6   90.79    4.30
  -4  -6   6   86.19   10.00
  -4  -6   6  124.19   20.00
   4   6  -5   42.00    7.90
  -4   6   5   57.99    9.50
  -4  -6   5   45.30    7.60
   4  -6  -5   41.90    4.70
  -4  -6   5   62.99   12.90
   4  -6  -5   51.69    4.60
  -4  -6   5   54.39   10.00
   4   6  -4   26.80    6.50
  -4   6   4   32.60    7.10
  -4  -6   4   30.50    6.40
  -4  -6   4   31.70    7.20
   4  -6  -4   22.10    4.50
   4  -6  -4   20.50    4.10
  -4   6   3   -0.70    2.80
   4   6  -3   -1.30    2.10
  -4  -6   3   -0.50    3.80
  -4  -6   3    3.20    4.90
   4  -6  -3    0.80    2.60
  -4  -6   3    3.00    3.10
   4  -6  -3    3.30    2.50
  -4   6   2  158.58   12.70
   4   6  -2  124.09   10.50
  -4  -6   2  136.49   15.40
   4  -6  -2  140.49    9.60
  -4  -6   2  125.19   11.50
  -4  -6   2  139.79   10.60
   4   6  -1  296.17   16.40
  -4   6   1  308.17   17.40
  -4   6   1  298.17   13.90
   4  -6  -1  332.77   16.50
  -4  -6   1  303.77   15.00
   4  -6  -1  324.47   15.40
  -4  -6   1  312.77   17.60
   4   6   0 1516.35   44.60
  -4   6   0 1483.85   43.80
  -4   6   0 1459.75   47.70
  -4  -6   0 1516.85   40.70
  -4  -6   0 1458.05   45.00
   4  -6   0 1490.15   42.10
   4  -6   0 1510.25   43.90
   4   6   1   45.60    8.20
  -4   6  -1   67.79   13.90
  -4   6  -1   43.60    5.60
  -4  -6  -1   47.90    8.60
  -4  -6  -1   36.30    5.80
   4  -6   1   54.89    8.60
   4   6   2  154.18   12.70
  -4   6  -2  169.68   10.40
  -4   6  -2  183.48   13.40
   4  -6   2  162.98   11.70
  -4  -6  -2  189.48   13.40
  -4  -6  -2  168.98    9.70
   4  -6   2  190.38   13.30
  -4   6  -3   18.20    5.10
  -4   6  -3   28.30    6.90
   4  -6   3   16.80    5.70
  -4  -6  -3   23.00    5.80
   4  -6   3   28.20    7.50
  -4  -6  -3   20.40    3.90
  -4   6  -4   13.60    4.60
   4   6   4   21.10    5.90
  -4   6  -4   24.80    6.20
  -4  -6  -4   17.90    5.00
   4  -6   4   20.50    4.70
  -4  -6  -4   10.90    3.30
   4   7  -4  145.49   16.10
   4  -7  -4  117.19    8.80
   4  -7  -4  133.49    8.50
  -4  -7   4  137.59   23.00
   4   7  -3  129.19   11.60
   4  -7  -3  126.59    9.40
  -4  -7   3  158.48   13.90
  -4  -7   2   72.09   12.50
   4  -7  -2   49.40    7.60
  -4  -7   2   47.00    9.60
   4  -7  -2   53.09    8.50
   4   7  -1   13.40    5.50
  -4   7   1   13.20    4.50
   4  -7  -1   13.90    4.90
   4  -7  -1   13.00    4.70
  -4  -7   1   16.70    6.30
  -4   7   0   63.99    7.40
   4   7   0   55.29    9.10
   4  -7   0   49.40    8.30
  -4  -7   0   64.09   10.00
   4   7   1   91.09   12.00
  -4   7  -1   96.49    8.50
   4  -7   1   99.89    9.70
  -4  -7  -1  102.59   11.00
  -5   0  11    2.20    3.50
  -5   0  10  140.49   15.10
  -5   0  10  101.09    9.00
  -5   0   9    5.60    5.90
  -5   0   9    1.40    2.80
  -5   0   8  217.38   16.70
  -5   0   8  229.18   11.40
  -5   0   7   -1.00    4.70
  -5   0   7    1.90    2.30
   5   0  -6 2840.62   71.99
  -5   0   6 2784.62   61.99
  -5   0   6 2782.12   72.19
   5   0  -5   39.50    3.60
  -5   0   5   25.90    6.10
  -5   0   5   41.80    3.90
   5   0  -4  426.36   11.60
  -5   0   4  412.56   12.20
   5   0  -4  386.56   18.40
  -5   0   4  445.06   10.70
  -5   0   4  398.66   18.10
   5   0  -3    0.40    4.20
   5   0  -3   -1.00    1.30
  -5   0   3    1.10    1.40
  -5   0   3   -0.80    3.70
   5   0  -3   -0.20    1.40
  -5   0   2 5159.78  104.39
   5   0  -2 5019.80  113.39
   5   0  -2 5250.57  109.29
   5   0  -2 5346.17  104.19
  -5   0   1    1.60    1.70
   5   0  -1    0.60    1.60
  -5   0   0  383.46   11.20
   5   0   0  385.56   10.80
   5   0   1    0.00    1.60
  -5   0  -1    0.60    2.00
  -5   0  -2  565.34   16.10
   5   0   2  566.04   15.10
   5   0   3   -0.90    1.60
  -5   0  -3    0.80    2.00
   5   0   4  806.52   20.90
  -5   0  -4  801.42   22.70
   5   0   4  804.92   22.80
  -5   0  -5   20.30    4.00
   5   0   5   17.00    3.20
   5   0   5   14.60    3.90
   5   0   6   63.19    5.20
  -5   0  -6   60.19    5.90
   5   0   7    0.40    3.00
  -5   0  -7    1.20    2.10
   5   0   7   -0.70    2.20
   5   0   8 3312.27   70.99
   5   0   8 3048.50   87.69
  -5   1  11   -0.90    3.10
  -5   1  11    3.50    6.30
  -5  -1  11   -0.90    3.70
  -5  -1  11    1.90    2.00
  -5  -1  11    5.70    7.20
  -5   1  10 1105.89   32.90
  -5   1  10 1119.79   41.40
  -5  -1  10 1108.79   44.90
  -5  -1  10 1014.00   25.70
  -5  -1  10 1046.60   34.10
  -5   1   9   44.70    6.10
  -5   1   9   44.50    9.60
  -5  -1   9   39.60    6.80
  -5  -1   9   36.00    3.90
  -5  -1   9   45.50    3.80
  -5  -1   9   53.39   11.60
   5   1  -8  176.18   11.20
  -5   1   8  181.08   12.20
  -5  -1   8  159.18    6.70
  -5  -1   8  169.98   15.70
  -5  -1   8  166.18   10.30
  -5   1   7  313.27   12.10
  -5   1   7  308.47   17.60
   5   1  -7  309.97   12.40
  -5  -1   7  315.57   19.90
  -5  -1   7  296.87    9.70
  -5  -1   7  293.37   13.20
   5  -1  -7  323.47   18.10
  -5   1   6  535.25   22.40
  -5   1   6  553.04   16.20
  -5   1   6  535.55   12.10
   5   1  -6  539.85   16.80
  -5  -1   6  546.35   18.10
  -5  -1   6  571.54   25.10
   5  -1  -6  532.85   22.70
  -5  -1   6  544.85   14.60
  -5   1   5  356.26   16.90
  -5   1   5  344.37    8.70
   5   1  -5  341.57   18.00
   5   1  -5  346.97   12.00
  -5   1   5  362.76   11.00
  -5  -1   5  345.17   10.60
  -5  -1   5  354.86   18.70
   5  -1  -5  360.16   17.50
  -5   1   4 2640.34   58.09
  -5   1   4 2558.04   53.39
   5   1  -4 2640.94   53.29
   5   1  -4 2656.33   56.79
   5   1  -4 2641.14   65.79
  -5  -1   4 2468.85   65.39
  -5  -1   4 2643.64   55.19
   5  -1  -4 2573.14   64.29
   5   1  -3  340.07   10.70
   5   1  -3  354.86   16.90
  -5   1   3  352.16    9.80
   5   1  -3  373.56   11.60
  -5  -1   3  346.67   10.50
  -5  -1   3  344.47   16.60
   5  -1  -3  360.76    9.00
   5  -1  -3  363.56   16.50
   5   1  -2 2868.21   60.59
   5   1  -2 2871.21   67.99
  -5   1   2 2803.82   59.49
  -5  -1   2 2835.32   59.49
  -5  -1   2 2787.02   67.29
   5  -1  -2 2952.50   58.49
   5   1  -1   80.39    8.20
  -5   1   1   79.99    5.00
   5   1  -1   86.79    5.20
  -5  -1   1   85.79    4.60
   5  -1  -1   82.39    4.20
   5   1   0 2149.69   46.40
  -5   1   0 2161.38   47.20
   5   1   0 2029.90   51.59
   5  -1   0 2174.68   45.70
   5  -1   0 2096.89   44.00
  -5  -1   0 2188.48   45.60
   5   1   1  818.12   20.30
  -5   1  -1  794.92   21.60
   5  -1   1  809.02   20.10
  -5  -1  -1  814.32   19.80
   5  -1   1  810.92   19.40
  -5   1  -2   34.10    4.80
   5   1   2   35.40    3.50
   5  -1   2   27.60    3.20
  -5  -1  -2   37.00    3.60
   5  -1   2   30.20    3.50
   5   1   3  442.16   13.20
  -5   1  -3  444.26   15.40
   5  -1   3  415.36   13.90
  -5  -1  -3  420.16   13.20
   5  -1   3  435.16   13.40
   5   1   4 3828.42   78.99
  -5   1  -4 3635.44   81.89
   5  -1   4 3703.53   79.19
   5  -1   4 3699.33   81.19
  -5  -1  -4 3757.72   79.59
  -5   1  -5  496.85   17.90
   5   1   5  536.75   17.80
   5  -1   5  527.75   18.40
  -5  -1  -5  540.05   16.80
   5   1   6   99.29    6.60
  -5   1  -6  112.59    8.00
  -5  -1  -6  107.09    6.90
  -5  -1  -6  104.59    7.10
   5  -1   6  102.99    6.80
   5   1   7  301.87   17.40
   5   1   7  317.97   12.30
  -5   1  -7  287.97   12.10
   5  -1   7  275.67   14.60
  -5  -1  -7  291.27   10.80
  -5  -1  -7  316.87   10.80
   5  -1   7  303.67   12.00
   5   1   8    9.80    3.10
   5  -1   8    3.80    4.80
   5  -1   8    4.40    2.70
  -5   2  11  578.44   22.40
  -5   2  11  562.94   27.40
  -5  -2  11  543.45   18.20
  -5  -2  11  535.95   18.20
   5   2 -10   -0.20    3.10
  -5   2  10    2.20    5.00
  -5   2  10    1.50    3.20
  -5  -2  10    6.60    4.20
  -5  -2  10    3.70    2.60
  -5  -2  10    3.80    2.20
  -5  -2  10   -4.20    4.50
  -5   2   9    8.70    5.50
  -5   2   9   10.10    3.60
   5   2  -9    6.80    3.30
  -5   2   9   10.90    2.30
  -5  -2   9   11.40    3.50
  -5  -2   9   11.40    7.30
  -5  -2   9    5.40    3.10
  -5  -2   9   14.40    4.60
  -5   2   8  176.48    9.40
  -5   2   8  151.88    6.80
   5   2  -8  163.38    9.90
  -5   2   8  175.58   13.30
  -5  -2   8  159.08    8.70
  -5  -2   8  149.59    8.10
  -5  -2   8  179.68   11.60
  -5  -2   8  183.58   16.90
   5   2  -7  263.37   12.10
  -5   2   7  254.97   10.10
  -5   2   7  241.38    8.80
  -5   2   7  273.87   10.90
  -5  -2   7  257.37   10.70
   5  -2  -7  269.87   16.00
  -5  -2   7  269.77   19.00
  -5  -2   7  246.28   10.30
   5   2  -6   76.29    6.40
  -5   2   6   84.89    5.40
  -5   2   6   71.69    4.70
  -5  -2   6   75.79    5.70
   5  -2  -6   80.79    9.30
  -5  -2   6   74.99    5.80
   5   2  -5  794.42   22.80
  -5   2   5  799.72   19.50
  -5   2   5  768.32   19.70
  -5  -2   5  779.92   30.20
  -5  -2   5  760.22   21.00
   5  -2  -5  759.42   27.00
   5   2  -4  605.64   18.60
   5   2  -4  573.44   23.90
  -5   2   4  611.14   16.50
  -5   2   4  579.74   14.50
   5  -2  -4  607.04   13.10
   5  -2  -4  587.64   22.50
   5  -2  -4  599.04   14.10
  -5  -2   4  600.34   24.60
  -5  -2   4  603.64   17.40
  -5   2   3 5137.49  106.39
   5   2  -3 5203.58  107.09
   5   2  -3 5083.19  115.19
  -5  -2   3 5130.69  106.69
   5  -2  -3 5261.67  105.89
   5  -2  -3 5161.08  114.39
  -5  -2   3 5053.69  115.69
   5   2  -2 6398.16  136.39
  -5   2   2 6350.76  129.59
   5   2  -2 6264.47  129.99
   5  -2  -2 6426.16  126.79
  -5  -2   2 6054.89  135.69
  -5  -2   2 6279.07  128.79
   5   2  -1  298.97   11.20
  -5   2   1  288.97   11.20
   5   2  -1  269.07   13.60
  -5  -2   1  290.27    9.90
   5  -2  -1  297.97    9.60
   5   2   0   11.30    3.10
  -5   2   0   17.90    3.80
   5   2   0   14.70    4.90
  -5  -2   0   11.60    2.50
   5  -2   0   13.20    2.80
   5   2   1  653.73   18.80
   5   2   1  643.54   20.80
  -5   2  -1  631.24   19.90
  -5  -2  -1  658.13   17.10
   5  -2   1  653.43   17.00
   5  -2   1  654.13   18.10
   5   2   2 1347.97   33.00
  -5   2  -2 1362.16   35.30
   5   2   2 1357.96   35.30
   5  -2   2 1325.97   32.20
   5  -2   2 1320.37   32.60
  -5  -2  -2 1367.96   31.10
   5   2   3 1986.00   45.80
  -5   2  -3 1939.21   48.40
  -5  -2  -3 1988.20   44.10
   5  -2   3 1982.90   46.00
   5  -2   3 2036.80   46.70
   5   2   4 3850.41   84.49
  -5   2  -4 3963.20   88.09
  -5  -2  -4 3934.81   86.49
   5  -2   4 3956.80   86.69
  -5  -2  -4 3906.41   82.99
   5  -2   4 4016.40   87.59
  -5   2  -5  593.54   21.00
   5   2   5  553.44   17.80
  -5  -2  -5  541.15   18.60
  -5  -2  -5  551.14   16.70
   5  -2   5  562.64   18.10
   5  -2   5  541.25   19.80
  -5   2  -6   -0.40    2.70
   5   2   6    2.20    2.70
  -5  -2  -6    2.80    2.60
   5  -2   6    2.80    2.60
  -5  -2  -6    2.40    2.60
  -5   2  -7  290.37   12.70
   5   2   7  282.37   12.60
  -5  -2  -7  266.37    9.80
   5  -2   7  283.57   17.30
  -5  -2  -7  276.97   10.50
   5  -2   7  290.07   12.50
   5   2   8  237.58   12.20
  -5   3  10   24.70    5.20
   5   3 -10   10.00    3.60
  -5   3  10   15.20    3.60
  -5   3  10   14.20    3.40
  -5  -3  10   23.50    4.90
  -5   3   9   -1.90    2.30
  -5   3   9    2.10    2.70
  -5   3   9    1.10    2.70
   5   3  -9   -3.40    2.60
  -5  -3   9    3.40    6.30
  -5  -3   9    4.30    3.40
  -5  -3   9    5.40    3.20
  -5   3   8   61.49    6.20
  -5   3   8   64.29    5.70
   5   3  -8   67.69    7.30
  -5   3   8   72.29    6.20
  -5  -3   8   61.09    6.70
  -5  -3   8   69.99    6.90
  -5   3   7  541.15   16.80
  -5   3   7  526.75   17.00
  -5   3   7  535.85   17.50
   5   3  -7  555.94   20.20
  -5  -3   7  551.14   18.80
   5  -3  -7  548.35   22.70
  -5  -3   7  543.55   19.40
   5   3  -6 1869.11   46.60
  -5   3   6 1791.02   43.40
  -5  -3   6 1713.53   45.00
  -5  -3   6 1782.92   44.40
  -5  -3   6 1874.51   57.09
   5  -3  -6 1870.21   50.19
   5   3  -5   68.79    6.50
  -5   3   5   70.39    6.20
   5  -3  -5   80.69    9.50
  -5  -3   5   72.69    6.80
  -5  -3   5   76.89    6.50
   5   3  -4  233.38   11.40
   5   3  -4  250.57   10.10
  -5   3   4  214.58   10.30
  -5  -3   4  212.58   10.90
  -5  -3   4  237.78   10.80
   5  -3  -4  223.28    8.30
  -5  -3   4  225.48   15.50
   5  -3  -4  218.38   13.40
  -5   3   3    0.60    2.40
   5   3  -3    3.70    2.70
  -5  -3   3   -2.40    1.80
  -5  -3   3   -1.50    4.10
   5  -3  -3    0.40    1.80
  -5  -3   3   -0.40    1.90
   5  -3  -3    1.90    1.50
   5   3  -2  756.72   23.10
  -5   3   2  766.42   23.30
  -5  -3   2  798.42   22.30
  -5  -3   2  786.02   23.80
  -5  -3   2  793.82   27.20
   5  -3  -2  807.02   22.50
   5  -3  -2  788.62   20.30
  -5   3   1   16.00    2.40
  -5   3   1    8.50    3.50
   5   3  -1   22.30    5.50
   5   3  -1    9.80    3.40
  -5  -3   1   17.20    5.10
   5  -3  -1   15.10    3.40
  -5  -3   1    6.50    3.30
  -5  -3   1   12.60    3.00
  -5   3   0  524.95   18.80
   5   3   0  543.45   18.30
   5   3   0  549.15   19.10
  -5  -3   0  533.65   16.00
  -5  -3   0  542.55   18.90
   5  -3   0  548.25   16.90
  -5   3  -1 1917.51   48.50
  -5   3  -1 1967.30   43.00
   5   3   1 1958.70   47.20
  -5  -3  -1 1913.41   48.00
  -5  -3  -1 1956.50   43.80
   5  -3   1 1949.80   45.90
  -5   3  -2 3994.90   85.49
  -5   3  -2 4219.08   96.19
   5   3   2 3975.60   88.99
  -5  -3  -2 4136.09   85.19
   5  -3   2 4060.59   88.29
  -5  -3  -2 3992.60   90.19
   5   3   3    0.10    3.60
  -5   3  -3   11.10    3.80
  -5   3  -3    7.70    2.90
   5  -3   3    8.40    3.40
  -5  -3  -3    5.70    2.40
   5  -3   3    3.80    3.00
  -5  -3  -3    5.90    3.20
  -5   3  -4   15.80    4.90
   5   3   4   14.70    3.80
  -5  -3  -4   18.00    4.60
   5  -3   4   11.10    3.60
  -5  -3  -4   13.60    3.60
   5   3   5  194.58   10.80
  -5   3  -5  211.28   12.30
  -5  -3  -5  207.18    9.00
   5  -3   5  199.88   10.60
  -5  -3  -5  192.28   10.80
   5  -3   5  204.78   11.70
  -5   3  -6  153.28   10.70
   5   3   6  132.79    9.50
   5  -3   6  151.08   10.80
   5  -3   6  153.18    9.40
  -5  -3  -6  148.39    7.60
  -5  -3  -6  141.69    8.80
   5   3   7    5.20    3.60
  -5   3  -7   16.90    4.70
  -5  -3  -7    7.90    2.60
   5  -3   7    6.40    3.40
  -5  -3  -7   14.70    2.50
   5  -3   7    9.90    4.40
  -5   4   9  372.36   15.20
   5   4  -9  380.56   18.30
  -5   4   9  373.36   15.60
  -5  -4   9  411.46   17.60
  -5  -4   9  412.96   18.40
  -5   4   8    1.10    2.80
  -5   4   8    2.60    3.20
   5   4  -8   -0.30    2.60
  -5  -4   8    3.80    5.10
  -5  -4   8   -0.80    2.80
  -5  -4   8   -0.50    3.00
  -5   4   7   22.90    5.10
   5   4  -7   12.30    4.30
   5  -4  -7   15.80    5.70
  -5  -4   7   13.20    6.70
  -5  -4   7   18.00    4.80
  -5  -4   7   15.80    4.80
   5   4  -6   -2.80    2.30
  -5   4   6    1.20    3.00
   5  -4  -6   -0.90    4.30
  -5  -4   6   -3.00    2.80
  -5  -4   6   -0.80    5.50
   5   4  -5  119.09    9.10
  -5   4   5  111.59    8.80
  -5  -4   5  112.49    8.80
   5  -4  -5  115.39    5.80
   5  -4  -5  127.59   11.20
   5  -4  -5  119.39    5.20
  -5  -4   5  112.89    9.50
  -5  -4   5  125.69   13.60
   5   4  -4   76.89    6.80
  -5   4   4   66.59    7.40
   5  -4  -4   79.89    9.50
   5  -4  -4   65.69    4.60
   5  -4  -4   77.19    5.70
  -5  -4   4   75.59    7.30
  -5  -4   4   69.99    7.80
   5   4  -3  157.18    9.80
  -5   4   3  151.18   11.00
   5  -4  -3  153.18    7.60
  -5  -4   3  166.58   14.10
  -5  -4   3  157.38    9.70
   5  -4  -3  145.79    8.90
  -5  -4   3  162.48   10.90
  -5   4   2 2041.70   53.29
   5   4  -2 2062.69   50.89
  -5  -4   2 2070.69   54.99
  -5  -4   2 1999.40   51.89
  -5  -4   2 2008.30   49.10
   5  -4  -2 1992.70   47.10
   5  -4  -2 2047.40   49.60
  -5   4   1 1084.99   26.20
  -5   4   1  998.80   31.20
   5   4  -1 1077.99   31.20
  -5  -4   1 1052.49   32.00
  -5  -4   1 1038.00   28.50
   5  -4  -1 1048.60   33.50
  -5  -4   1 1009.10   31.40
   5  -4  -1  990.70   27.80
  -5   4   0  424.96   18.20
  -5   4   0  451.85   14.00
   5   4   0  420.76   17.40
  -5  -4   0  423.06   15.00
   5  -4   0  432.96   17.10
  -5  -4   0  433.86   18.20
   5  -4   0  431.66   15.90
  -5   4  -1  395.06   17.70
   5   4   1  383.76   16.60
  -5   4  -1  407.86   13.60
  -5  -4  -1  394.16   13.80
   5  -4   1  417.96   17.20
  -5  -4  -1  422.86   17.90
  -5   4  -2 1147.99   35.20
   5   4   2 1133.19   33.70
  -5   4  -2 1219.68   30.10
  -5  -4  -2 1181.28   29.20
  -5  -4  -2 1174.18   35.50
   5  -4   2 1121.49   32.30
  -5   4  -3  671.23   20.70
  -5   4  -3  688.83   25.30
   5   4   3  683.43   24.00
  -5  -4  -3  727.93   28.40
  -5  -4  -3  667.23   19.10
   5  -4   3  721.03   23.30
   5   4   4 1481.85   42.00
  -5   4  -4 1697.93   50.09
  -5  -4  -4 1508.95   36.00
  -5  -4  -4 1484.45   42.40
   5  -4   4 1476.05   40.80
   5   4   5  127.59    9.80
   5  -4   5  105.49    8.30
  -5  -4  -5  117.99    9.00
  -5  -4  -5  120.49    7.00
   5   4   6   32.60    6.30
   5  -4   6   35.10    8.90
  -5  -4  -6   42.10    4.70
  -5  -4  -6   33.50    5.50
   5   5  -8    6.70    4.10
  -5   5   8    9.40    3.80
  -5  -5   8    5.40    3.20
  -5  -5   8    2.10    5.00
  -5   5   7  148.39   11.50
   5   5  -7  143.19   11.00
  -5  -5   7  146.69   11.30
  -5  -5   7  157.38   12.10
  -5  -5   7  183.98   18.20
   5   5  -6  250.27   14.50
  -5   5   6  235.78   13.90
  -5  -5   6  264.07   20.70
  -5  -5   6  223.88   13.40
  -5  -5   6  242.58   15.00
  -5   5   5  250.37   14.20
   5   5  -5  231.08   13.90
   5  -5  -5  244.38    8.70
   5  -5  -5  274.37    9.90
  -5  -5   5  228.38   14.50
  -5  -5   5  250.77   13.40
   5  -5  -5  275.37   15.60
   5   5  -4   38.30    7.50
  -5   5   4   34.80    7.10
   5  -5  -4   37.70    4.70
   5  -5  -4   34.80    5.00
  -5  -5   4   26.10    6.10
  -5  -5   4   52.09   10.70
   5  -5  -4   51.39    9.50
  -5  -5   4   19.10    5.10
   5   5  -3   47.60    7.10
  -5   5   3   57.79    9.00
   5  -5  -3   64.19    8.00
   5  -5  -3   50.79    5.30
  -5  -5   3   60.19    7.80
  -5  -5   3   40.10    7.50
   5   5  -2   74.49    8.20
  -5   5   2   79.29    9.30
  -5  -5   2   78.89    9.20
  -5  -5   2   72.99   10.40
   5  -5  -2   79.29    6.90
   5  -5  -2   74.39    7.70
  -5   5   1  122.69    7.50
  -5   5   1  128.29   11.00
   5   5  -1  129.69   10.20
   5  -5  -1  119.19    8.50
   5  -5  -1  132.89    9.80
  -5  -5   1  123.89   10.80
  -5  -5   1  119.49   10.70
   5   5   0   14.50    5.30
  -5   5   0   14.00    3.60
   5  -5   0   13.60    4.00
  -5  -5   0   18.90    5.40
  -5   5  -1  376.36   13.90
   5   5   1  335.07   17.00
  -5  -5  -1  349.07   17.70
   5  -5   1  328.27   21.10
   5  -5   1  356.96   15.80
  -5   5  -2   61.79    6.00
  -5   5  -2   80.59    8.90
   5   5   2   77.39    8.40
  -5  -5  -2   85.99    8.90
   5  -5   2   72.89    7.60
   5   5   3  472.15   20.60
  -5   5  -3  463.55   21.20
  -5   5  -3  469.55   17.40
  -5  -5  -3  472.25   20.50
   5  -5   3  447.56   18.80
   5  -5   3  419.96   28.70
  -5   5  -4   36.80    6.00
   5   5   4   46.10    7.70
  -5   5  -4   54.09    8.90
  -5  -5  -4   44.00    6.80
   5  -5   4   46.50    7.30
   5   5   5  108.99   10.10
  -5   5  -5  102.89    8.60
  -5  -5  -5  106.79    9.10
   5  -5   5  124.09    9.90
  -5   6   7   31.90    6.70
  -5  -6   7   32.10    7.60
   5   6  -6  126.29   11.20
  -5   6   6  138.49   15.00
  -5  -6   6  139.39   17.30
  -5  -6   6  121.89   11.30
  -5  -6   6  122.99   12.60
   5   6  -5  494.35   28.30
  -5  -6   5  524.95   29.20
   5  -6  -5  506.95   15.10
   5  -6  -5  523.05   17.40
  -5  -6   5  482.75   23.50
  -5  -6   5  442.16   20.50
  -5   6   4   22.90    8.00
   5   6  -4   18.60    5.70
  -5  -6   4   20.80    5.80
   5  -6  -4   22.30    5.10
  -5  -6   4   12.40    5.20
   5  -6  -4   17.40    4.50
   5  -6  -4   32.60    7.70
   5   6  -3    2.10    3.60
  -5   6   3    0.30    3.70
  -5  -6   3    1.70    3.00
  -5  -6   3    6.80    6.00
   5  -6  -3    2.50    2.30
  -5  -6   3    6.60    3.90
   5   6  -2  234.28   14.20
  -5  -6   2  231.28   13.20
   5  -6  -2  216.68   13.10
   5  -6  -2  219.18   11.70
  -5  -6   2  235.08   15.60
  -5   6   1  383.36   22.10
   5   6  -1  402.96   19.40
  -5   6   1  401.06   15.80
   5  -6  -1  334.17   17.40
  -5  -6   1  408.26   20.50
  -5  -6   1  427.66   19.20
   5  -6  -1  391.86   17.00
  -5  -6   1  409.56   19.20
  -5   6   0  183.58   10.20
  -5   6   0  171.88   13.30
   5   6   0  172.38   12.70
   5  -6   0  163.58   11.10
  -5  -6   0  162.58   11.10
  -5  -6   0  160.18   12.80
  -5   6  -1   82.69    7.30
   5   6   1   80.39    9.40
  -5   6  -1  106.59   10.90
   5  -6   1   92.29    9.40
  -5  -6  -1   88.29    9.70
  -5  -6  -1   71.49    7.20
   5  -6   1  103.39    9.10
   5   6   2   11.60    6.20
  -5   6  -2   24.70    5.10
  -5   6  -2   24.80    6.20
   5  -6   2   36.00    7.40
  -5  -6  -2   24.90    6.40
   5  -6   2   21.50    9.00
  -5  -6  -2   18.30    4.10
   5   6   3  174.58   13.40
  -5   6  -3  202.18   15.70
  -5   6  -3  177.98   10.80
   5  -6   3  193.38   12.40
  -5  -6  -3  150.18    8.90
  -5  -6  -3  186.98   13.30
   5  -7  -3   37.90    6.80
   5  -7  -3   33.40    5.80
  -5  -7   3   24.90   11.60
  -5   7   2  160.38   10.80
   5   7  -2  162.98   13.10
  -5  -7   2  153.78   13.50
   5  -7  -2  183.88   11.20
   5  -7  -2  156.58   11.70
  -5  -7   2  179.38   15.60
  -5   7   1  194.48   11.70
   5   7  -1  211.78   14.80
   5  -7  -1  205.58   14.80
  -5  -7   1  211.08   15.50
   5   7   0    7.30    6.00
  -5   7   0   12.40    4.20
  -5  -7   0    4.80    4.10
   5  -7   0    8.60    4.20
  -6   0  11    0.00    2.90
  -6   0  11   10.00    6.90
  -6   0  10  121.39    9.70
  -6   0  10  163.18   16.70
  -6   0   9   -1.70    2.50
  -6   0   9    6.20    5.40
  -6   0   8  477.15   25.20
  -6   0   7    0.30    2.00
  -6   0   7    1.10    1.30
   6   0  -7   -2.00    4.40
  -6   0   6  819.22   31.30
   6   0  -6  843.52   21.80
  -6   0   6  843.82   23.10
  -6   0   6  855.81   19.10
   6   0  -6  850.91   31.70
   6   0  -5    1.00    1.60
  -6   0   5   -0.20    1.10
  -6   0   5   -0.60    1.40
  -6   0   5   -2.50    3.40
   6   0  -5    4.10    4.40
   6   0  -4 1022.00   23.10
   6   0  -4 1142.29   24.50
   6   0  -4 1043.70   34.20
  -6   0   4 1070.49   23.60
  -6   0   4 1006.00   33.70
   6   0  -3   -0.20    1.20
   6   0  -3   -1.70    3.70
  -6   0   3    0.70    1.50
   6   0  -3   -0.20    2.60
   6   0  -2 1057.19   24.00
  -6   0   2 1017.30   23.60
   6   0  -2  992.90   32.00
   6   0  -1    3.10    1.70
  -6   0   1    1.70    1.70
   6   0   0  771.92   19.00
  -6   0   0  746.23   19.50
   6   0   1    0.20    1.50
  -6   0  -1    1.30    1.90
  -6   0  -2   65.09    5.40
   6   0   2   65.09    4.60
   6   0   3    0.10    2.20
  -6   0  -3    3.10    2.50
   6   0   3    2.20    2.00
  -6   0  -4  101.89    7.70
   6   0   5    0.00    2.40
  -6   0  -5   -4.30    2.40
   6   0   5   -3.50    1.80
   6   0   6   79.59    7.70
   6   0   7    7.40    3.00
   6   0   7    3.20    3.60
  -6   0  -7    5.30    3.00
  -6   1  11    4.40    3.60
  -6   1  11    3.90    5.90
  -6  -1  11   15.20    8.40
  -6  -1  11    7.40    4.30
  -6   1  10   28.00    8.70
  -6   1  10   29.20    5.80
  -6  -1  10   22.50    5.60
  -6  -1  10   15.40    2.90
  -6  -1  10   53.09   13.50
  -6   1   9   44.10    6.60
  -6   1   9   43.50   10.70
  -6  -1   9   28.30    3.80
  -6  -1   9   27.60    8.10
  -6  -1   9   26.50    3.40
  -6  -1   9   30.00    6.10
  -6   1   8   68.39    6.30
  -6   1   8   86.49   13.50
   6   1  -8   64.09    6.10
   6  -1  -8   91.49   13.80
  -6  -1   8   53.49    4.40
  -6  -1   8   56.19    6.60
  -6  -1   8   85.89   15.10
   6   1  -7   53.59    5.40
  -6   1   7   55.89    3.00
  -6   1   7   65.39    5.60
  -6   1   7   59.49   10.40
  -6  -1   7   57.29    4.40
   6  -1  -7   57.19    9.90
  -6  -1   7   59.09   11.30
  -6  -1   7   56.59    6.00
   6   1  -6  295.27   11.10
  -6   1   6  285.67   16.80
  -6   1   6  273.37   10.30
  -6   1   6  270.97    7.70
   6   1  -6  288.47   17.80
   6  -1  -6  257.57   16.00
  -6  -1   6  274.67   18.10
  -6  -1   6  272.67    9.30
   6   1  -5  452.85   21.60
   6   1  -5  442.26   14.10
  -6   1   5  433.86   11.20
  -6   1   5  442.66   12.60
  -6  -1   5  425.26   12.50
   6  -1  -5  438.56   20.70
  -6  -1   5  427.06   21.40
  -6   1   4 2501.45   53.49
   6   1  -4 2588.64   65.89
   6   1  -4 2515.15   54.19
   6   1  -4 2652.53   56.19
  -6   1   4 2599.44   53.29
   6  -1  -4 2630.94   65.89
   6  -1  -4 2539.95   52.19
   6  -1  -4 2452.45   52.59
  -6  -1   4 2567.34   54.49
  -6  -1   4 2605.64   66.29
  -6   1   3   31.60    3.20
   6   1  -3   30.20    3.50
   6   1  -3   34.60    7.90
   6   1  -3   22.10    3.40
   6  -1  -3   26.90    3.30
   6  -1  -3   38.50    7.90
  -6  -1   3   26.70    3.20
  -6  -1   3   26.60    7.20
  -6   1   2 5412.16  111.19
   6   1  -2 5608.64  112.29
   6   1  -2 5241.18  120.79
  -6  -1   2 5391.96  110.59
   6  -1  -2 5570.34  109.89
  -6   1   1  373.66   11.90
   6   1  -1  370.46   12.00
   6   1  -1  358.86   16.80
  -6  -1   1  365.76   11.00
   6  -1  -1  379.36   10.80
  -6   1   0  416.66   13.50
   6   1   0  403.46   17.50
   6   1   0  409.16   12.70
  -6  -1   0  403.56   11.90
   6  -1   0  421.66   12.00
   6  -1   0  383.56   10.30
   6   1   1   40.20    3.90
  -6   1  -1   41.50    5.10
   6  -1   1   42.00    3.30
  -6  -1  -1   35.50    3.60
   6  -1   1   36.20    3.60
   6   1   2  745.93   20.00
  -6   1  -2  758.02   22.20
  -6  -1  -2  767.72   20.20
   6  -1   2  736.93   19.80
   6  -1   2  736.93   19.80
   6   1   3  122.59    6.70
  -6   1  -3  118.29    8.10
   6  -1   3  126.69    6.80
   6  -1   3  127.49    7.20
  -6  -1  -3  126.59    7.20
   6   1   4   67.59    5.40
   6  -1   4   61.29    5.90
   6  -1   4   49.90    4.90
  -6  -1  -4   47.50    5.50
   6   1   5    7.00    2.50
  -6   1  -5   12.80    4.30
  -6  -1  -5    8.30    3.40
   6  -1   5    5.30    3.50
   6  -1   5    7.50    2.70
  -6   1  -6    1.30    3.50
   6   1   6    3.70    3.10
   6   1   6    3.30    2.50
   6  -1   6    3.10    2.70
   6  -1   6    4.70    3.30
  -6  -1  -6    4.00    3.10
   6   1   7   -1.50    3.60
  -6   1  -7    8.20    3.50
   6   1   7    6.00    2.90
   6  -1   7    0.70    3.60
   6  -1   7   -1.50    2.20
  -6  -1  -7    7.20    2.80
  -6  -1  -7    3.00    3.00
  -6   2  11   55.39    7.30
  -6   2  11   39.40   10.40
  -6  -2  11   68.69    6.20
  -6  -2  11   53.39    5.90
  -6   2  10  215.38   17.20
   6   2 -10  198.98   11.80
  -6   2  10  220.98   12.10
  -6  -2  10  223.18   10.10
  -6  -2  10  230.08   14.50
  -6  -2  10  221.38   21.70
  -6  -2  10  205.18   10.20
  -6   2   9  151.68    9.30
   6   2  -9  137.99    9.60
  -6  -2   9  144.79   17.00
  -6  -2   9  156.98    8.80
  -6  -2   9  170.18    8.70
  -6   2   8  577.44   16.10
   6   2  -8  597.04   20.40
  -6   2   8  613.74   19.10
  -6  -2   8  604.74   18.20
  -6  -2   8  598.24   18.60
  -6  -2   8  509.15   32.00
   6  -2  -8  600.94   26.60
   6   2  -7  878.81   26.20
  -6   2   7  883.21   22.20
  -6   2   7  878.71   23.90
  -6  -2   7  959.60   24.90
   6  -2  -7  852.91   32.50
  -6  -2   7  918.11   24.20
  -6   2   6   17.40    3.00
   6   2  -6   15.90    3.60
  -6   2   6   15.70    3.10
  -6  -2   6   15.30    3.40
   6  -2  -6   10.00    5.70
  -6  -2   6   11.60    6.20
   6   2  -5  131.79   12.90
  -6   2   5  137.39    5.80
   6   2  -5  138.39    8.10
  -6   2   5  159.98    7.20
  -6  -2   5  164.08    7.90
  -6  -2   5  147.89   13.60
   6  -2  -5  141.29   12.10
   6   2  -4  344.47   13.10
   6   2  -4  334.07   18.20
   6   2  -4  348.27   11.80
  -6   2   4  330.97   11.50
   6  -2  -4  347.57    8.80
  -6  -2   4  334.27   11.80
  -6  -2   4  354.26   18.80
   6  -2  -4  363.76   18.00
   6  -2  -4  334.87   10.30
   6   2  -3  555.24   22.90
  -6   2   3  529.05   16.20
   6   2  -3  548.95   16.90
   6  -2  -3  553.14   15.90
   6  -2  -3  579.34   13.80
  -6  -2   3  536.35   16.00
  -6  -2   3  552.44   22.80
  -6   2   2  272.77   10.80
   6   2  -2  283.07   11.30
   6   2  -2  275.17   15.20
   6  -2  -2  287.87    8.90
  -6  -2   2  269.27    9.90
  -6  -2   2  270.27   14.80
   6   2  -1   55.09    7.40
  -6   2   1   51.09    5.30
   6   2  -1   51.89    5.10
   6  -2  -1   45.60    3.90
  -6  -2   1   47.80    4.20
  -6   2   0    0.10    2.30
   6   2   0    3.20    2.30
   6   2   0    5.40    4.00
  -6  -2   0    0.40    1.80
   6  -2   0    1.20    1.60
  -6   2  -1  159.28    9.20
   6   2   1  149.19    8.10
   6   2   1  140.29   10.20
   6  -2   1  150.68    6.50
   6  -2   1  152.38    7.50
  -6  -2  -1  145.59    6.80
  -6   2  -2  110.79    9.70
   6   2   2  104.89    9.10
   6   2   2  102.49    6.90
  -6  -2  -2  121.99    6.40
   6  -2   2  102.69    6.10
   6  -2   2  113.39    6.80
  -6   2  -3  125.89    9.10
   6   2   3  151.88   12.20
   6  -2   3  122.09    7.60
  -6  -2  -3  136.49   10.10
   6  -2   3  121.89    9.70
  -6   2  -4  161.18   10.30
   6   2   4  156.08    8.90
  -6  -2  -4  169.08    8.50
   6  -2   4  156.18    9.90
   6  -2   4  164.28    8.70
   6   2   5   68.89    6.30
  -6   2  -5   71.69    7.40
  -6  -2  -5   73.69    6.80
   6  -2   5   70.29    7.10
   6  -2   5   65.39    6.00
  -6  -2  -5   79.69    6.80
   6   2   6   84.49    7.20
  -6   2  -6   95.99    8.90
  -6  -2  -6   83.39    8.00
  -6  -2  -6   93.99    7.50
   6  -2   6   91.19    7.00
   6  -2   6   67.89    7.50
  -6   2  -7    3.30    3.10
   6   2   7    9.00    3.50
   6  -2   7    7.50    4.40
  -6  -2  -7    6.60    2.90
  -6  -2  -7    7.30    2.50
   6   3 -10   19.30    4.90
  -6   3  10   16.60    3.90
  -6   3  10   12.60    4.00
  -6  -3  10   18.00    4.30
   6   3  -9   17.40    4.70
  -6   3   9   21.70    4.30
  -6  -3   9   19.50   10.50
  -6  -3   9   37.10    5.90
  -6   3   8 1546.15   39.40
   6   3  -8 1562.74   42.40
  -6   3   8 1579.64   38.70
  -6  -3   8 1582.24   41.40
  -6  -3   8 1535.95   40.00
   6  -3  -8 1552.34   47.40
   6   3  -7   47.60    6.30
  -6   3   7   76.59    6.40
  -6   3   7   58.69    5.20
  -6  -3   7   80.49    7.00
   6  -3  -7   63.79   10.20
  -6  -3   7   71.59    8.30
   6   3  -6 1922.21   53.19
  -6   3   6 2011.40   46.50
  -6   3   6 1873.51   43.10
  -6  -3   6 1842.22   59.09
  -6  -3   6 2010.20   47.30
   6  -3  -6 1823.42   53.59
  -6  -3   6 2061.09   48.70
  -6   3   5   35.10    5.40
   6   3  -5   35.80    5.80
  -6  -3   5   32.80    5.50
  -6  -3   5   33.00    5.20
  -6  -3   5   18.80    7.50
   6  -3  -5   24.50    7.20
   6   3  -4   51.39    6.00
  -6   3   4   46.20    5.90
   6   3  -4   41.80    5.50
  -6  -3   4   55.79   10.10
   6  -3  -4   44.00    4.30
  -6  -3   4   51.09    6.50
  -6  -3   4   46.20    5.80
   6  -3  -4   42.70    3.10
   6  -3  -4   50.09    8.70
  -6   3   3  276.27   12.20
   6   3  -3  266.27   11.90
   6   3  -3  252.07   15.70
   6  -3  -3  287.57   11.30
  -6  -3   3  230.98   15.40
  -6  -3   3  257.57   11.10
   6  -3  -3  254.57    8.70
   6   3  -2  260.07   15.00
   6   3  -2  246.88   11.90
  -6   3   2  265.97   12.40
   6  -3  -2  288.17   11.80
  -6  -3   2  264.47   15.20
   6  -3  -2  265.77    9.60
  -6  -3   2  273.47   11.10
   6   3  -1   67.99    6.60
  -6   3   1   59.89    6.50
   6   3  -1   65.19    9.30
  -6  -3   1   65.99    5.30
   6  -3  -1   61.49    5.10
   6   3   0  194.88   11.80
  -6   3   0  201.78   13.10
   6   3   0  203.78   10.80
  -6   3   0  216.78    7.20
   6  -3   0  201.78    9.30
  -6   3  -1    7.40    3.80
  -6   3  -1    5.50    2.30
   6   3   1    3.10    2.90
   6   3   1    3.70    3.70
   6  -3   1    4.80    2.80
  -6  -3  -1    3.80    3.60
  -6  -3  -1    2.70    2.30
   6   3   2  819.92   25.00
  -6   3  -2  771.02   26.20
  -6  -3  -2  821.92   26.20
  -6  -3  -2  810.02   21.60
   6  -3   2  825.32   23.70
  -6   3  -3   79.79    8.20
   6   3   3   69.29    6.90
  -6  -3  -3   74.19    5.50
   6  -3   3   81.59    6.70
   6  -3   3   77.79    6.70
  -6  -3  -3   79.89    7.80
   6   3   4  175.78   10.70
  -6   3  -4  201.08   12.40
   6  -3   4  204.08   10.50
  -6  -3  -4  199.98    9.00
  -6  -3  -4  210.38   12.00
   6  -3   4  204.38   11.10
   6   3   5    7.20    3.40
  -6   3  -5    7.30    3.50
  -6  -3  -5    3.30    3.10
  -6  -3  -5    9.30    2.90
   6  -3   5    6.70    3.30
   6  -3   5    6.70    3.40
   6   3   6  237.28   13.40
  -6  -3  -6  300.27   11.70
  -6  -3  -6  306.67   13.70
   6  -3   6  281.97   15.00
   6  -3   6  282.27   13.70
  -6   4   9   89.69   10.40
  -6   4   9   83.89    7.20
   6   4  -9   84.19    8.90
  -6  -4   9   77.59    8.00
  -6  -4   9   90.69    8.70
  -6   4   8  155.68    8.70
   6   4  -8  158.98   11.30
  -6  -4   8  135.89   10.20
   6  -4  -8  137.49   11.70
  -6  -4   8  151.68   16.60
  -6  -4   8  158.68   11.40
   6   4  -7  171.78   11.50
  -6   4   7  152.28   13.80
  -6  -4   7  179.08   11.00
  -6  -4   7  159.68   11.20
  -6  -4   7  176.98   17.50
   6  -4  -7  148.59   12.60
   6   4  -6   11.80    4.40
  -6  -4   6   12.00    4.60
  -6  -4   6   16.80    5.30
   6  -4  -6   17.50    6.10
   6   4  -5  246.38   13.30
  -6   4   5  262.07   19.80
   6  -4  -5  213.68    8.10
  -6  -4   5  226.68   12.10
  -6  -4   5  247.68   18.60
   6  -4  -5  244.28   15.70
  -6  -4   5  231.08   13.10
   6  -4  -5  222.88    7.00
   6   4  -4  177.08   11.30
   6   4  -4  162.38    9.90
  -6   4   4  184.08   11.40
  -6  -4   4  185.88   12.50
  -6  -4   4  160.18   15.10
   6  -4  -4  191.28    9.30
   6  -4  -4  187.08    7.40
   6  -4  -4  174.38   13.80
  -6  -4   4  176.78   10.30
  -6   4   3 1579.34   43.30
   6   4  -3 1598.64   42.20
   6  -4  -3 1620.54   37.60
  -6  -4   3 1565.64   48.80
  -6  -4   3 1629.94   41.30
  -6  -4   3 1702.63   47.60
   6  -4  -3 1595.14   40.70
  -6   4   2   50.59    4.10
  -6   4   2   61.09    8.20
   6   4  -2   55.09    7.50
   6  -4  -2   64.89    9.00
  -6  -4   2   54.29    6.70
  -6  -4   2   54.39    7.90
  -6  -4   2   51.99    9.40
   6  -4  -2   50.19    5.10
  -6   4   1  824.82   27.90
  -6   4   1  872.41   21.50
   6  -4  -1  843.62   26.50
  -6  -4   1  887.91   29.20
   6  -4  -1  828.22   24.00
  -6  -4   1  864.71   28.40
   6   4   0   13.80    4.60
  -6   4   0   20.90    3.30
  -6  -4   0   12.70    4.60
  -6  -4   0   14.10    3.50
   6  -4   0   18.30    4.20
   6   4   1   20.30    5.20
  -6   4  -1   26.00    3.90
  -6  -4  -1   21.40    3.90
  -6  -4  -1   20.00    5.60
   6  -4   1   23.90    4.90
  -6   4  -2   53.79    5.10
   6   4   2   54.49    7.80
   6  -4   2   54.79    6.40
  -6  -4  -2   51.49    5.00
  -6  -4  -2   43.90    7.80
  -6   4  -3   -0.30    2.10
   6   4   3    3.90    3.50
  -6  -4  -3   -0.30    3.10
  -6  -4  -3    3.40    2.60
   6  -4   3   -1.10    2.50
  -6   4  -4   42.50    7.40
   6   4   4   43.80    7.20
  -6  -4  -4   57.39    8.00
  -6  -4  -4   37.70    5.30
   6  -4   4   37.70    6.40
   6   4   5  174.78   11.80
  -6   4  -5  164.18   12.00
  -6  -4  -5  157.48   11.10
  -6  -4  -5  168.38    8.70
   6   4   6   65.09    9.10
  -6   4  -6   70.19    9.60
   6  -4   6   74.89    6.90
  -6  -4  -6   88.49    5.90
   6   5  -8   -1.00    3.00
  -6   5   8    2.00    3.20
  -6  -5   8    3.30    6.70
  -6  -5   8   -0.10    3.60
  -6   5   7   32.40    6.20
   6   5  -7   39.10    6.50
  -6  -5   7   29.70    6.70
  -6  -5   7   68.69   16.00
   6  -5  -7   62.49    9.80
  -6  -5   7   42.30    6.80
   6   5  -6   30.80    6.10
  -6   5   6   54.19    8.20
  -6  -5   6   38.80    6.90
  -6  -5   6   50.79    8.50
  -6  -5   6   34.00   10.00
   6  -5  -6   60.99   10.20
   6   5  -5   39.40    6.80
  -6   5   5   38.10    7.40
   6  -5  -5   29.10    8.00
   6  -5  -5   41.40    4.30
  -6  -5   5   36.70    6.20
  -6  -5   5   33.70    7.40
   6  -5  -5   34.50    3.40
   6   5  -4  731.93   26.90
  -6   5   4  723.43   26.90
   6   5  -4  722.83   24.40
  -6  -5   4  721.33   27.50
  -6  -5   4  729.73   25.00
   6  -5  -4  718.93   20.00
   6  -5  -4  723.33   22.50
  -6  -5   4  707.03   31.60
  -6   5   3  135.39   11.30
   6   5  -3  126.79    9.90
   6  -5  -3  140.09    7.90
  -6  -5   3  131.19   13.20
  -6  -5   3  132.89   11.20
  -6  -5   3  116.69    9.10
   6  -5  -3  133.89    9.40
  -6   5   2 1608.24   38.40
   6   5  -2 1625.84   45.00
  -6   5   2 1598.34   46.20
  -6  -5   2 1607.54   47.90
   6  -5  -2 1563.04   43.30
  -6  -5   2 1559.94   46.30
   6  -5  -2 1665.53   40.60
  -6   5   1  299.17   11.40
   6   5  -1  302.27   15.90
  -6   5   1  292.27   16.60
   6  -5  -1  287.07   13.10
  -6  -5   1  277.97   16.20
  -6  -5   1  308.07   16.80
   6   5   0   99.19    9.50
  -6   5   0   97.59    6.50
   6  -5   0   91.09    7.80
  -6  -5   0   92.29    7.20
   6  -5   0  112.49   11.00
  -6  -5   0   83.89    9.50
   6   5   1   81.59   10.30
  -6   5  -1   72.89    6.10
  -6   5  -1   83.79    9.60
  -6  -5  -1   84.19    6.50
  -6  -5  -1  103.59    9.90
   6  -5   1   86.49    7.60
   6  -5   1   86.99    8.50
  -6   5  -2  172.58   13.40
   6   5   2  152.08   11.80
  -6   5  -2  192.28    9.60
  -6  -5  -2  160.98    8.80
  -6  -5  -2  173.78   12.90
   6  -5   2  178.08   11.00
   6  -5   2  157.18   14.10
   6   5   3   23.80    5.70
  -6   5  -3   23.30    6.40
  -6   5  -3   18.30    4.30
  -6  -5  -3   21.30    3.90
   6  -5   3   12.10    4.20
  -6  -5  -3   20.40    5.70
   6   5   4   -0.30    3.40
  -6   5  -4    1.00    3.00
  -6   5  -4   12.90    4.50
  -6  -5  -4   10.20    4.00
  -6  -5  -4    5.30    2.60
   6  -5   4    0.50    3.10
  -6   6   6   42.50    8.10
   6   6  -6   33.50    7.40
  -6  -6   6   39.70    8.10
  -6  -6   6   29.40    9.90
  -6   6   5   80.99    9.20
   6   6  -5   66.49    8.40
  -6  -6   5   61.59   12.90
   6  -6  -5   72.29    9.50
   6  -6  -5   68.49    4.80
  -6  -6   5   70.59    9.40
  -6  -6   5   71.39   14.90
   6   6  -4   96.99   18.00
  -6   6   4  105.29   10.90
   6  -6  -4   87.49    7.50
  -6  -6   4   93.39    9.30
  -6  -6   4  102.89   14.50
   6  -6  -4   96.69    6.60
  -6   6   3   50.29    8.90
   6   6  -3   61.09    9.30
  -6  -6   3   53.69    8.00
  -6  -6   3   53.09    9.30
   6  -6  -3   58.79    5.80
  -6  -6   3   90.29   15.10
  -6   6   2  150.98   12.90
  -6   6   2  142.59    8.50
   6   6  -2  141.29   11.80
   6  -6  -2  148.09    9.30
  -6  -6   2  143.99   14.30
  -6  -6   2  120.59   11.70
  -6  -6   2  147.49   10.40
   6  -6  -2  166.18   11.40
  -6   6   1  158.98   12.90
  -6   6   1  141.09    8.30
   6   6  -1  119.49   11.20
  -6  -6   1  139.29   10.00
  -6  -6   1  134.29   12.20
   6  -6  -1  134.39   14.30
   6  -6  -1  131.69    9.40
  -6   6   0   24.10    4.20
   6   6   0   34.00    7.40
  -6   6   0   25.50    6.80
   6  -6   0   32.60    6.10
  -6  -6   0   26.30    4.70
   6  -6   0   35.90    6.90
  -6  -6   0   35.70    7.90
   6   6   1    8.50    5.00
  -6   6  -1   17.30    6.70
  -6   6  -1    1.80    2.90
  -6  -6  -1    3.40    2.40
   6  -6   1    6.10    3.80
  -6  -6  -1    9.50    5.20
   6   6   2  184.18   14.00
  -6   6  -2  204.88   10.80
   6  -6   2  165.48   11.50
  -6  -6  -2  190.78   10.20
  -6  -6  -2  195.48   14.50
  -6   6  -3   31.30    5.30
  -6  -6  -3   26.20    4.40
  -6  -6  -3   37.50    7.20
  -7   0  11    8.90    8.60
  -7   0  11   -1.10    2.90
  -7   0  10   18.00    8.10
  -7   0  10   13.20    4.20
  -7   0   9   -5.00    2.10
  -7   0   9    0.70    5.70
  -7   0   8 1294.77   35.10
  -7   0   8 1331.97   46.30
  -7   0   8 1289.47   28.30
   7   0  -8 1327.77   46.40
  -7   0   7   95.99    6.90
   7   0  -6  821.62   21.10
  -7   0   6  853.71   19.30
   7   0  -6  797.12   31.90
  -7   0   5    2.00    1.40
  -7   0   5   -1.30    3.80
   7   0  -5    1.80    1.50
   7   0  -5    4.90    5.20
  -7   0   4 1398.86   30.80
   7   0  -4 1410.66   31.20
   7   0  -4 1333.37   42.70
   7   0  -4 1409.66   30.70
  -7   0   3   -2.90    1.20
   7   0  -3    0.10    1.70
   7   0  -3    0.80    1.10
   7   0  -3   -2.80    3.50
   7   0  -2  170.58   12.60
  -7   0   2  192.58    7.30
   7   0  -2  175.48    7.20
   7   0  -1    1.30    1.70
  -7   0   1   -0.20    1.70
   7   0   0 1975.50   43.00
  -7   0   0 1896.61   43.70
  -7   0  -1   -2.50    1.70
   7   0   1   -0.50    1.60
   7   0   2  615.14   17.50
   7   0   3   -1.60    1.90
  -7   0  -3   -1.30    2.60
   7   0   3   -1.80    1.90
  -7   0  -4  120.39    8.70
   7   0   4  118.09    8.10
   7   0   4  123.99    7.20
  -7   0  -5    3.90    2.80
   7   0   5   -0.90    2.10
  -7   0  -6 1167.48   33.00
   7   0   6 1135.19   34.10
   7   0   6 1161.98   30.90
   7   0   7   17.40    4.00
   7   0   7   26.80    7.20
  -7  -1  11    4.60    3.70
  -7   1  10  143.49   15.50
  -7   1  10  132.19    9.50
  -7  -1  10  135.49   10.40
  -7  -1  10  165.78   19.20
  -7  -1  10  115.09    6.00
  -7  -1  10  119.09    6.90
  -7   1   9   25.90    5.00
   7   1  -9   28.20    5.60
  -7   1   9   19.40    7.70
  -7  -1   9   19.60    5.30
  -7  -1   9   32.00   10.80
  -7  -1   9   32.50    3.80
  -7   1   8  716.63   21.80
  -7   1   8  661.83   16.40
  -7   1   8  757.12   31.50
   7   1  -8  703.73   21.80
  -7  -1   8  753.82   33.80
  -7  -1   8  689.33   23.70
   7  -1  -8  750.62   32.40
  -7  -1   8  696.23   18.50
  -7   1   7   49.60    4.90
   7   1  -7   40.70    4.80
  -7   1   7   42.30    3.20
   7   1  -7   49.30   11.40
  -7   1   7   59.49   11.20
  -7  -1   7   41.20    4.00
   7  -1  -7   48.30   10.20
  -7  -1   7   43.30   10.60
  -7   1   6   23.10    3.50
  -7   1   6   22.80    2.90
   7   1  -6   29.30    4.20
   7   1  -6   30.70    8.60
  -7  -1   6   23.30    3.30
  -7  -1   6   20.60    7.20
   7  -1  -6   35.70    8.50
  -7   1   5  703.43   17.20
  -7   1   5  701.43   17.50
   7   1  -5  686.63   28.60
   7   1  -5  713.03   19.50
   7  -1  -5  648.14   27.40
  -7  -1   5  670.63   28.30
  -7  -1   5  694.03   17.90
   7   1  -4 5194.48  104.49
   7   1  -4 4980.90  103.39
  -7   1   4 5014.40  102.49
   7   1  -4 4889.21  116.49
   7  -1  -4 5112.69  101.29
   7  -1  -4 4932.91  116.09
  -7  -1   4 5027.80  116.39
  -7  -1   4 4943.71  102.59
   7   1  -3  201.68    8.60
   7   1  -3  191.48   13.60
  -7   1   3  202.18    8.00
  -7  -1   3  201.18    7.60
   7  -1  -3  200.18   13.90
   7  -1  -3  210.68    7.10
  -7   1   2   99.99    5.80
   7   1  -2   79.09    9.20
   7   1  -2  104.19    6.10
   7  -1  -2  107.29    5.00
  -7  -1   2  101.79    5.40
  -7   1   1    7.50    2.70
   7   1  -1    6.60    2.40
   7   1  -1   12.00    5.10
  -7  -1   1    9.00    2.30
   7  -1  -1    7.60    2.10
   7   1   0   80.59    5.50
  -7   1   0   84.39    6.20
   7   1   0   98.69    9.70
   7  -1   0   89.29    4.50
   7  -1   0   81.59    5.00
  -7  -1   0   89.59    5.40
   7   1   1  116.49    6.60
  -7   1  -1  118.69    7.60
   7  -1   1  111.69    5.50
   7  -1   1  112.89    6.20
  -7  -1  -1  102.19    6.30
  -7   1  -2  512.05   18.10
   7   1   2  532.15   16.30
  -7  -1  -2  541.55   16.60
   7  -1   2  547.15   16.10
   7  -1   2  516.95   15.70
   7   1   3   14.40    3.60
  -7   1  -3   14.00    3.90
   7  -1   3   15.00    3.60
   7  -1   3   11.80    3.10
  -7  -1  -3   15.40    3.50
  -7   1  -4   62.19    6.90
   7   1   4   54.59    5.40
   7  -1   4   57.59    5.70
   7  -1   4   47.40    5.00
  -7  -1  -4   52.19    5.90
  -7   1  -5  149.09    9.90
   7   1   5  140.69   12.50
   7   1   5  123.69    8.00
   7  -1   5  139.59    8.10
   7  -1   5  145.89    9.50
  -7  -1  -5  146.69    9.10
   7   1   6 1926.11   47.60
  -7   1  -6 1994.10   50.49
   7   1   6 2002.20   52.29
   7  -1   6 2002.20   51.29
  -7  -1  -6 1946.61   48.30
   7  -1   6 1879.61   46.80
  -7   1  -7  340.97   14.70
   7   1   7  306.47   13.80
  -7  -1  -7  298.47   12.90
   7  -1   7  314.57   13.30
   7  -1   7  314.77   16.70
  -7  -2  11  113.29    7.60
  -7  -2  11   98.89    7.10
  -7   2  10   26.00    5.00
  -7  -2  10   36.40    5.30
  -7  -2  10   34.40    4.90
  -7  -2  10   40.80   12.40
  -7   2   9  743.63   22.80
  -7   2   9  687.73   18.80
   7   2  -9  713.93   23.70
  -7  -2   9  687.03   20.60
  -7  -2   9  696.93   21.60
  -7  -2   9  684.33   35.50
   7  -2  -9  736.33   31.90
   7   2  -8  302.17   13.60
  -7   2   8  310.17   12.50
  -7   2   8  322.87   10.90
  -7  -2   8  308.27   12.50
  -7  -2   8  317.17   12.20
  -7   2   7  506.35   15.10
  -7   2   7  526.75   16.00
   7   2  -7  515.15   18.20
   7  -2  -7  509.95   24.70
  -7  -2   7  519.35   16.40
  -7   2   6  224.18    8.90
   7   2  -6  217.98   10.60
  -7   2   6  209.38    8.10
  -7  -2   6  194.78   16.80
   7  -2  -6  196.68   15.40
  -7  -2   6  215.28    9.40
   7   2  -5  867.91   25.00
   7   2  -5  972.10   25.60
  -7   2   5  880.71   23.00
   7   2  -5  797.02   32.50
   7  -2  -5  845.52   32.20
  -7  -2   5  879.11   37.40
  -7  -2   5  875.71   23.40
   7   2  -4    8.80    3.20
   7   2  -4    5.70    5.30
   7   2  -4   14.20    3.90
  -7   2   4   11.90    3.10
   7  -2  -4   17.10    6.40
  -7  -2   4    5.90    5.50
  -7  -2   4   10.80    3.00
   7  -2  -4   12.90    2.10
   7  -2  -4    7.60    2.60
   7   2  -3  104.49   11.10
  -7   2   3  114.79    7.00
   7   2  -3  106.79    7.20
  -7  -2   3  110.49    6.30
   7  -2  -3  107.89    5.00
  -7  -2   3  100.19   10.80
   7   2  -2  125.59    7.70
  -7   2   2  119.69    7.60
   7   2  -2  112.59   10.80
   7  -2  -2  120.49    5.70
  -7  -2   2  122.99    6.50
  -7   2   1 2825.32   65.19
   7   2  -1 2886.81   64.89
   7   2  -1 2882.11   71.59
  -7  -2   1 2946.51   62.29
   7  -2  -1 2896.51   61.69
   7   2   0 1503.05   43.60
   7   2   0 1548.55   38.30
   7  -2   0 1587.44   36.20
   7   2   1 1888.41   51.19
   7   2   1 1968.20   46.40
  -7   2  -1 1949.01   48.30
  -7  -2  -1 1970.50   44.10
   7  -2   1 1965.50   44.60
   7  -2   1 1909.21   43.00
   7   2   2 1193.08   35.70
   7   2   2 1171.28   31.30
  -7   2  -2 1147.89   33.40
  -7  -2  -2 1166.08   29.30
   7  -2   2 1212.08   29.70
   7  -2   2 1187.98   30.10
  -7   2  -3  623.74   22.20
   7   2   3  624.44   19.90
   7  -2   3  605.74   19.30
  -7  -2  -3  600.54   18.50
   7  -2   3  618.64   19.00
   7   2   4   19.80    4.50
  -7   2  -4   21.90    5.40
  -7  -2  -4   21.70    4.20
   7  -2   4   18.70    4.00
   7  -2   4   17.70    4.20
   7   2   5  136.49    9.20
  -7   2  -5  143.49   15.10
  -7  -2  -5  125.79   14.00
  -7  -2  -5  153.98    8.90
   7  -2   5  153.18   10.20
   7  -2   5  153.58    8.90
   7   2   6   16.10    4.20
   7  -2   6   11.70    4.50
  -7  -2  -6   17.80    4.50
  -7  -2  -6   18.30    3.50
  -7   3  10   10.10    3.00
  -7   3  10    5.50    3.10
   7   3 -10    1.00    3.20
  -7  -3  10    3.20    2.90
  -7  -3  10    8.30    3.90
  -7   3   9    4.40    3.10
   7   3  -9    0.00    2.50
  -7   3   9    1.70    2.50
   7  -3  -9    4.00    5.90
  -7  -3   9   -3.30    2.90
  -7  -3   9   -8.90    7.10
  -7  -3   9   -1.20    2.70
   7   3  -8  171.88   11.10
  -7   3   8  181.08    9.10
  -7   3   8  170.98    9.40
  -7  -3   8  193.58   13.20
  -7  -3   8  202.48   22.30
  -7  -3   8  176.08   10.60
   7  -3  -8  182.08   15.00
  -7   3   7   23.20    4.90
   7   3  -7   23.70    5.40
  -7   3   7   24.30    3.90
  -7  -3   7   24.80    7.50
  -7  -3   7   30.20    5.70
   7  -3  -7   34.00    9.00
   7   3  -6  909.11   31.00
  -7   3   6  919.31   22.30
  -7   3   6  884.31   25.80
   7  -3  -6  870.51   33.30
  -7  -3   6  905.91   26.60
  -7  -3   6  902.21   27.30
  -7  -3   6  892.91   37.20
   7   3  -5  419.46   14.30
   7   3  -5  417.36   16.80
  -7   3   5  419.96   15.80
  -7   3   5  401.36   11.10
  -7  -3   5  427.66   23.80
  -7  -3   5  403.06   16.50
   7  -3  -5  434.06   11.60
   7  -3  -5  388.36   21.20
   7  -3  -5  427.16   10.20
  -7   3   4  370.26   15.00
   7   3  -4  362.06   15.40
   7   3  -4  379.56   14.40
   7   3  -4  367.86   20.50
   7  -3  -4  375.76   10.50
   7  -3  -4  367.36   13.00
   7  -3  -4  356.96   19.70
  -7   3   3    4.90    3.50
   7   3  -3    6.80    5.20
   7   3  -3   -2.90    2.30
   7  -3  -3    2.30    1.90
   7  -3  -3    1.00    2.50
  -7  -3   3    2.90    2.70
  -7  -3   3   -0.90    4.70
   7   3  -2  153.08    9.50
   7   3  -2  147.39   12.00
  -7   3   2  131.09   10.20
  -7  -3   2  148.79    8.00
   7  -3  -2  137.49    6.80
  -7   3   1  390.96   16.30
   7   3  -1  380.76   18.40
   7   3  -1  368.46   15.40
  -7  -3   1  380.36   13.20
   7  -3  -1  375.26   12.90
   7   3   0 5230.68  119.79
   7   3   0 5572.84  130.59
  -7   3   0 5390.76  118.19
  -7  -3   0 5373.16  112.49
   7  -3   0 5440.26  113.29
   7   3   1  126.39   10.60
  -7   3  -1  159.78   10.80
   7   3   1  161.58    9.90
  -7  -3  -1  149.19    7.60
   7  -3   1  156.18    8.60
  -7   3  -2 3483.35   82.49
   7   3   2 3420.66   80.89
   7   3   2 3482.55   80.09
  -7  -3  -2 3550.14   81.99
   7  -3   2 3572.94   77.89
  -7  -3  -2 3568.14   75.89
   7   3   3  179.68   10.90
   7  -3   3  193.78   10.10
  -7  -3  -3  189.98    9.10
   7  -3   3  184.88   10.00
  -7  -3  -3  188.18   11.90
  -7   3  -4  107.29   11.30
   7   3   4   98.59    8.20
   7  -3   4   93.89    7.30
   7  -3   4   98.49    7.90
  -7  -3  -4   89.29    8.70
  -7  -3  -4   97.19    6.90
  -7   3  -5   75.59    8.50
   7   3   5   58.89    6.80
  -7  -3  -5   59.59    8.10
  -7  -3  -5   55.19    7.90
   7  -3   5   64.39    7.20
  -7   3  -6   46.90    8.00
   7   3   6   41.10    7.00
   7  -3   6   47.70    5.60
  -7  -3  -6   39.30    6.20
  -7  -3  -6   55.79    5.60
  -7   4   9   45.10    6.20
  -7   4   9   57.29    6.60
   7   4  -9   34.40    6.70
  -7  -4   9   61.79    8.60
  -7  -4   9   46.60    6.90
   7  -4  -9   42.50    9.90
  -7   4   8   57.09    7.80
   7   4  -8   50.69    8.00
  -7   4   8   62.59    5.60
  -7  -4   8   53.39    7.60
   7  -4  -8   57.59   10.60
  -7  -4   8   55.99   13.20
  -7  -4   8   56.29    8.00
   7   4  -7  115.89    9.70
  -7   4   7  117.79    6.90
  -7   4   7  120.39    9.60
  -7  -4   7  133.79   16.10
  -7  -4   7  126.39    9.60
  -7  -4   7  113.39    9.80
   7  -4  -7  127.99   12.90
   7   4  -6   15.40    5.10
  -7   4   6   23.90    5.80
  -7   4   6   22.10    3.40
   7  -4  -6   16.30    7.30
  -7  -4   6   12.00    4.20
  -7  -4   6   13.10    4.30
   7   4  -5    1.00    2.40
   7   4  -5    0.00    2.90
  -7   4   5    4.70    3.70
  -7  -4   5    5.10    6.20
  -7  -4   5    2.80    3.40
   7  -4  -5    1.10    1.80
   7  -4  -5    3.30    5.20
   7  -4  -5    2.50    1.40
  -7  -4   5    1.00    3.20
  -7   4   4   77.89    8.20
   7   4  -4   89.29    7.80
   7   4  -4   97.19    8.70
  -7  -4   4   93.29   15.00
   7  -4  -4   89.89   11.70
   7  -4  -4   83.79    6.80
   7  -4  -4   88.09    5.00
  -7  -4   4   88.49    8.90
  -7  -4   4   85.39    7.50
  -7   4   3    7.20    3.90
   7   4  -3    3.90    3.50
  -7  -4   3    3.20    3.80
   7  -4  -3    7.50    2.60
  -7  -4   3    6.10    3.30
  -7  -4   3    8.20    7.40
   7  -4  -3   11.20    4.00
  -7   4   2  163.68   11.40
   7   4  -2  160.38   11.00
  -7  -4   2  165.78   13.70
   7  -4  -2  157.18    8.20
  -7  -4   2  155.28    9.10
  -7  -4   2  164.08   11.60
   7  -4  -2  178.08   10.30
  -7   4   1   46.30    7.80
   7   4  -1   34.70    6.40
  -7  -4   1   35.60    6.80
   7  -4  -1   42.40    5.50
   7  -4  -1   38.30    6.50
   7   4   0  165.28   11.80
   7   4   0  188.68   11.80
  -7   4   0  179.98    7.20
  -7  -4   0  197.38   12.70
   7  -4   0  201.28   10.20
   7   4   1  809.32   27.60
  -7  -4  -1  829.42   28.80
   7  -4   1  834.72   24.90
  -7   4  -2  242.78   14.80
   7   4   2  254.57   14.30
   7  -4   2  276.97   12.80
  -7  -4  -2  265.37   15.20
   7   4   3  472.25   20.20
  -7   4  -3  496.75   21.80
   7  -4   3  479.85   18.10
  -7  -4  -3  466.75   15.80
  -7  -4  -3  466.55   20.60
   7   4   4   55.59    9.30
  -7  -4  -4   50.19    5.20
  -7  -4  -4   58.29    8.80
   7  -4   4   58.39   11.10
   7   4   5  597.14   24.10
  -7   4  -5  646.34   25.80
  -7  -4  -5  598.34   23.30
  -7  -4  -5  617.84   19.40
   7  -4   5  593.04   21.80
   7   5  -8    1.20    3.50
  -7   5   8    6.50    3.90
  -7   5   8    4.10    2.70
  -7  -5   8    3.50    3.90
   7  -5  -8    0.00    5.50
  -7  -5   8   -3.90    3.50
   7   5  -7   40.20   11.10
  -7   5   7   68.99    9.40
   7  -5  -7   50.19   10.00
  -7  -5   7   61.39   15.90
  -7  -5   7   46.60    8.10
   7   5  -6  100.19    9.70
  -7   5   6  121.89   10.20
  -7  -5   6  113.59   14.80
  -7  -5   6  107.39   10.20
  -7  -5   6  108.39    9.40
   7  -5  -6  125.29   12.80
   7   5  -5   26.70    6.20
  -7   5   5   32.90    7.20
  -7  -5   5   23.70    4.90
  -7  -5   5   29.30    6.50
  -7  -5   5   39.00   17.10
   7  -5  -5   29.80    3.10
   7  -5  -5   32.10    4.60
  -7   5   4  236.58   14.70
   7   5  -4  247.08   13.40
   7   5  -4  242.58   14.50
  -7  -5   4  242.78   13.00
   7  -5  -4  244.98   12.00
  -7  -5   4  229.88   15.10
   7  -5  -4  255.57    9.70
  -7  -5   4  262.77   19.00
  -7   5   3  498.65   15.00
  -7   5   3  487.45   21.60
   7   5  -3  527.05   21.10
  -7  -5   3  473.85   22.00
  -7  -5   3  505.95   25.00
  -7  -5   3  495.65   19.20
   7  -5  -3  498.15   19.40
   7   5  -2   51.39    8.30
  -7   5   2   39.70    4.20
  -7   5   2   44.50    8.40
   7  -5  -2   40.50    5.50
  -7  -5   2   39.80    7.10
  -7  -5   2   52.39   10.10
  -7  -5   2   34.20    7.70
  -7   5   1   50.89    7.90
   7   5  -1   56.39    8.50
  -7   5   1   48.80    4.50
   7  -5  -1   57.19    8.60
  -7  -5   1   56.69    8.50
   7  -5  -1   52.99    5.80
  -7  -5   1   63.59   10.00
  -7   5   0  231.28    9.20
   7   5   0  193.48   13.30
  -7   5   0  229.58   16.50
  -7  -5   0  175.78   13.50
   7  -5   0  222.28   13.40
  -7  -5   0  214.28   10.80
   7  -5   0  213.18   11.30
   7   5   1    0.20    3.20
  -7   5  -1    0.20    2.10
  -7   5  -1   -5.90    2.70
   7  -5   1    2.70    3.30
  -7  -5  -1    1.80    4.10
   7  -5   1   -1.90    2.70
  -7  -5  -1    1.30    3.90
  -7   5  -2  476.65   15.60
   7   5   2  490.95   24.10
  -7   5  -2  465.65   22.50
  -7  -5  -2  508.55   22.60
   7  -5   2  469.85   19.00
  -7  -5  -2  415.06   17.90
  -7   5  -3   99.29   12.90
   7   5   3   83.19   10.80
   7  -5   3   75.59    7.80
  -7  -5  -3   73.79    6.00
  -7  -5  -3   84.09    9.40
  -7  -5  -4  279.47   16.60
  -7  -5  -4  290.67   12.00
   7   6  -6   65.39    8.90
  -7   6   6   98.89   11.10
   7  -6  -6   95.79   11.30
  -7  -6   6   75.99   15.10
  -7  -6   6   89.79   10.40
   7   6  -5   48.40    8.30
  -7   6   5   66.79   10.50
   7  -6  -5   49.50    4.20
   7  -6  -5   66.49   11.40
  -7  -6   5   52.39    9.60
   7  -6  -5   46.80    5.40
   7   6  -4   21.00    5.60
  -7   6   4   28.90    7.10
   7   6  -4   28.40    6.50
  -7  -6   4   15.00    8.20
   7  -6  -4   31.00    6.30
  -7  -6   4   22.30    6.30
   7  -6  -4   27.80    4.20
  -7   6   3   60.89    5.40
   7   6  -3   69.99    9.80
  -7   6   3   78.19    9.10
   7  -6  -3   64.69    5.80
  -7  -6   3   59.59    9.60
  -7  -6   3   71.39   12.90
   7  -6  -3   70.29    7.60
  -7  -6   3   63.29   13.70
  -7   6   2   24.60    4.10
  -7   6   2   31.40    7.60
   7   6  -2   24.00    5.70
  -7  -6   2   44.40   10.10
   7  -6  -2   22.80    4.70
  -7  -6   2   22.90    6.80
  -7  -6   2   25.00    9.00
   7  -6  -2   31.40    6.60
  -7   6   1   87.39    6.20
   7  -6  -1   79.59    9.00
  -7  -6   1   82.99   11.50
   7  -6  -1   61.79    6.90
  -7   6   0   10.80    3.30
   7   6   0   11.30    5.40
  -7  -6   0   13.00    5.40
   7  -6   0   17.10    5.00
   7   6   1  223.18   15.30
  -7   6  -1  224.08   10.60
   7  -6   1  247.18   13.30
  -7  -6  -1  217.88   16.00
  -8   0  11    6.40    7.60
  -8   0  11   -1.70    5.40
  -8   0  10   32.60    2.60
  -8   0  10   41.30    6.70
  -8   0   9    2.30    5.20
  -8   0   9    3.00    2.90
  -8   0   9    0.00    1.30
  -8   0   8  269.67   12.50
   8   0  -8  282.07   20.40
  -8   0   8  276.37   20.20
  -8   0   8  259.57    8.20
   8   0  -7    1.20    5.00
  -8   0   7   -1.40    4.70
  -8   0   7    0.40    1.80
  -8   0   6 3350.76   88.39
  -8   0   6 3339.67   70.79
   8   0  -6 3498.25   89.49
   8   0  -6 3520.85   72.29
   8   0  -5    0.50    1.40
  -8   0   5    0.80    1.70
   8   0  -5    0.20    4.90
   8   0  -5   -0.30    1.40
   8   0  -4 1198.98   28.20
  -8   0   4 1183.58   27.70
   8   0  -4 1192.68   26.70
   8   0  -4 1193.78   40.70
   8   0  -3   -1.90    1.50
   8   0  -3    1.90    1.30
  -8   0   3    0.80    2.00
   8   0  -3    4.30    4.50
   8   0  -2   68.39    9.90
  -8   0   2   70.39    4.90
   8   0  -2   70.79    4.90
  -8   0   1    0.00    2.10
   8   0  -1    0.40    1.70
  -8   0   0 1925.81   44.90
   8   0   0 1942.11   43.80
   8   0   1    0.80    2.10
  -8   0  -1   -0.60    2.20
   8   0   2  228.88    9.70
  -8   0  -2  224.88   11.00
   8   0   3    0.60    2.20
  -8   0  -3   -2.00    2.40
   8   0   4    1.20    2.50
  -8   0  -4   12.20    4.20
   8   0   4    3.70    2.70
   8   0   5   -0.50    2.40
   8   0   5    8.90    4.00
   8   0   6  108.59    9.10
   8   0   6   99.79    7.60
  -8   1  11   72.59   14.30
  -8   1  11   79.59    7.90
  -8  -1  11   82.19    9.20
  -8  -1  11   71.59    4.70
  -8   1  10  200.88   18.00
  -8   1  10  190.18   11.40
  -8  -1  10  204.98   19.90
  -8  -1  10  204.38    7.90
  -8   1   9   17.40    4.50
   8   1  -9   19.40    4.50
  -8   1   9   24.10    2.70
  -8   1   9   23.60    8.70
  -8  -1   9   13.90    7.70
   8  -1  -9   19.20    8.70
  -8  -1   9   23.30    3.20
  -8   1   8  270.97    8.70
   8   1  -8  279.37   11.90
  -8   1   8  275.57   11.80
  -8  -1   8  268.87   20.60
  -8  -1   8  267.47    9.50
   8  -1  -8  289.37   20.10
  -8   1   7  176.38    7.00
   8   1  -7  240.08   18.20
   8   1  -7  184.58    9.10
  -8   1   7  186.38    8.80
  -8  -1   7  204.58   19.60
   8  -1  -7  205.88   16.80
  -8  -1   7  188.28    7.70
  -8   1   6  168.98    7.10
   8   1  -6  173.48    8.40
  -8  -1   6  180.58   15.50
   8  -1  -6  179.78   15.40
  -8  -1   6  171.18    7.30
   8   1  -5   70.49   11.80
   8   1  -5   78.89    5.50
  -8   1   5   69.59    4.80
   8   1  -5   72.39    4.70
  -8  -1   5   81.89    5.10
   8  -1  -5   83.39   11.20
  -8  -1   5   65.29   10.80
   8   1  -4  569.04   26.30
   8   1  -4  607.34   17.60
   8   1  -4  611.04   17.50
  -8   1   4  616.94   16.90
  -8  -1   4  608.94   16.50
   8  -1  -4  612.04   26.80
   8  -1  -4  605.14   15.80
   8   1  -3  176.38    8.50
   8   1  -3  165.78   13.80
  -8   1   3  166.38    7.90
  -8  -1   3  168.28    7.30
   8  -1  -3  165.58   13.70
   8  -1  -3  171.38    6.90
   8   1  -2  627.74   26.00
  -8   1   2  532.65   17.10
   8   1  -2  581.14   17.70
  -8  -1   2  596.54   16.40
   8  -1  -2  589.74   15.90
   8   1  -1    4.90    2.60
  -8   1   1    6.30    3.00
   8   1  -1    4.50    4.80
   8  -1  -1    3.40    2.10
  -8  -1   1    1.40    2.70
   8   1   0   74.19    9.40
   8   1   0   70.69    5.70
  -8   1   0   55.19    6.00
   8  -1   0   73.29    3.90
   8  -1   0   66.59    4.90
  -8  -1   0   66.79    5.30
  -8   1  -1   -0.90    2.60
  -8  -1  -1   -1.60    2.00
   8  -1   1    1.70    1.70
   8   1   2   10.90    3.30
  -8   1  -2   18.70    4.80
   8  -1   2    8.20    2.80
  -8  -1  -2   16.40    4.00
   8  -1   2    9.30    2.80
  -8   1  -3  235.28   12.60
   8   1   3  221.18   10.50
   8  -1   3  252.67   10.50
  -8  -1  -3  234.98   11.20
   8  -1   3  235.68   10.60
   8   1   4  263.27   11.80
   8  -1   4  257.07   11.30
  -8  -1  -4  255.27   13.50
   8  -1   4  265.37   12.40
   8   1   5    6.50    3.10
   8   1   5    5.90    3.40
   8  -1   5    4.50    2.70
  -8   1  -6  237.68   14.10
   8   1   6  210.98   12.90
   8   1   6  230.28   11.70
   8  -1   6  217.88   11.10
   8  -1   6  218.18   13.10
  -8   2  10  395.66   16.10
  -8   2  10  357.96   12.30
   8   2 -10  358.86   16.10
  -8  -2  10  379.46   15.00
  -8  -2  10  365.76   13.40
   8   2  -9   61.29    6.60
  -8   2   9   73.59    5.30
  -8   2   9   50.99    6.80
   8  -2  -9   58.49   12.00
  -8  -2   9   65.19    5.60
  -8  -2   9   72.59    6.70
  -8  -2   9   61.29   14.00
  -8   2   8   10.70    3.30
  -8   2   8   16.30    3.40
   8   2  -8    5.90    3.30
   8  -2  -8   12.20    6.40
  -8  -2   8   12.40    3.50
  -8   2   7    9.40    2.60
  -8   2   7   10.30    3.20
   8   2  -7    9.00    3.70
  -8  -2   7    8.60    3.00
   8  -2  -7   14.70    7.30
   8   2  -6  722.23   22.20
   8   2  -6  709.03   32.00
  -8   2   6  690.23   19.90
  -8  -2   6  707.83   31.80
   8  -2  -6  689.63   30.20
  -8  -2   6  690.03   20.10
  -8   2   5  482.15   15.80
   8   2  -5  506.25   26.30
   8   2  -5  477.35   15.20
   8   2  -5  501.45   17.20
  -8  -2   5  493.75   15.50
   8  -2  -5  489.65   12.10
   8  -2  -5  500.75   24.80
  -8  -2   5  482.95   24.80
  -8   2   4 1188.58   31.00
   8   2  -4 1228.28   32.30
   8   2  -4 1222.28   41.40
   8   2  -4 1207.68   31.40
   8  -2  -4 1196.88   29.80
  -8  -2   4 1202.88   29.90
  -8  -2   4 1223.88   44.90
   8  -2  -4 1260.17   27.50
   8  -2  -4 1195.28   41.10
  -8   2   3    3.00    2.50
   8   2  -3   -1.60    2.40
   8   2  -3    6.50    5.30
  -8  -2   3    3.40    2.20
   8  -2  -3    4.00    2.00
   8   2  -2  262.77   11.90
   8   2  -2  275.27   16.90
  -8  -2   2  272.67   10.30
   8  -2  -2  266.97    9.50
  -8   2   1 1056.09   30.00
   8   2  -1 1060.69   35.80
   8   2  -1 1067.19   29.40
   8  -2  -1 1078.19   26.40
  -8  -2   1 1082.69   26.90
   8   2   0  756.22   26.20
   8   2   0  696.03   27.40
  -8   2   0  704.93   23.40
  -8  -2   0  718.83   20.10
   8  -2   0  733.83   20.00
   8   2   1  107.39    7.80
  -8   2  -1  120.49    9.10
   8   2   1  111.19   11.00
   8  -2   1  111.39    6.80
  -8  -2  -1  111.79    6.90
   8  -2   1  115.69    5.90
   8   2   2   27.50    6.90
  -8   2  -2   35.40    6.80
   8   2   2   33.10    5.60
   8  -2   2   36.00    4.90
   8  -2   2   30.30    4.10
  -8  -2  -2   29.60    4.60
   8   2   3  235.38   11.80
   8   2   3  245.38   15.30
   8  -2   3  248.18   11.00
   8  -2   3  252.87   11.30
  -8   2  -4  249.58   14.10
   8   2   4  232.28   12.10
   8  -2   4  236.48   11.90
   8  -2   4  230.68   11.00
  -8   2  -5   72.59    8.30
   8  -2   5   43.80    6.90
  -8  -2  -5   31.80    6.20
   8   3 -10   22.50    6.10
  -8   3  10   22.20    4.70
  -8   3  10   33.70    5.30
  -8  -3  10   44.60    6.80
  -8  -3  10   19.90    4.10
   8   3  -9   10.40    4.50
  -8   3   9   20.50    4.40
  -8   3   9   19.80    3.80
   8  -3  -9   18.30    6.90
  -8  -3   9   18.60    8.50
  -8  -3   9   17.50    3.90
  -8  -3   9   17.00    4.10
  -8   3   8   17.10    4.30
  -8   3   8   24.10    4.10
   8   3  -8   28.30    6.00
  -8  -3   8   14.50    4.10
  -8  -3   8   20.80    4.60
   8  -3  -8   22.20    7.80
  -8   3   7   20.20    3.40
  -8   3   7   23.80    5.00
   8   3  -7   23.50    5.40
   8  -3  -7   17.80    7.50
  -8  -3   7   30.40    9.70
  -8  -3   7   20.20    4.40
   8   3  -6 1860.21   47.70
  -8   3   6 1836.42   46.00
  -8  -3   6 1858.31   45.30
  -8   3   5   21.20    6.30
   8   3  -5   31.10    6.20
   8   3  -5   18.50    4.10
   8   3  -5   25.40    8.80
  -8  -3   5   14.70    6.80
  -8  -3   5   22.50    4.40
   8  -3  -5   21.20    2.90
   8  -3  -5   20.00    7.90
   8  -3  -5   22.30    3.40
  -8   3   4  203.88   11.20
   8   3  -4  202.98   15.90
   8   3  -4  192.88   10.70
   8   3  -4  221.38   11.80
   8  -3  -4  216.38   16.40
  -8  -3   4  209.38   10.20
   8  -3  -4  214.48    7.60
   8  -3  -4  211.08   10.00
  -8  -3   4  209.78   15.90
   8   3  -3  186.38   14.70
  -8   3   3  205.08   11.60
   8   3  -3  184.48   10.80
   8  -3  -3  194.68    7.80
   8  -3  -3  203.08   10.30
  -8  -3   3  199.48    9.70
   8   3  -2   12.80    6.20
   8   3  -2   17.30    4.50
  -8   3   2   14.80    4.90
  -8  -3   2   15.20    3.50
   8  -3  -2   14.00    3.10
   8   3  -1   20.50    6.80
  -8   3   1   17.30    5.30
   8   3  -1   24.40    5.20
   8  -3  -1   22.30    4.00
   8   3   0  349.27   15.40
   8   3   0  330.97   17.80
   8  -3   0  335.27   12.60
   8   3   1  247.48   15.00
   8   3   1  278.47   13.70
   8  -3   1  278.67   11.60
  -8   3  -2  297.37   15.70
   8   3   2  283.87   15.80
   8   3   2  287.37   14.40
   8  -3   2  330.87   13.10
  -8   3  -3   81.49    8.90
   8   3   3   83.59    8.00
   8  -3   3   82.19    6.90
   8  -3   3   75.89    6.80
  -8  -3  -3   84.19    6.40
  -8  -3  -3   74.79    8.40
   8   3   4   24.80    5.80
  -8   3  -4   19.10    5.70
  -8  -3  -4   27.00    4.70
   8  -3   4   24.00    7.10
  -8  -3  -4   19.20    5.00
   8  -3   4   18.00    4.80
  -8   3  -5   25.30    5.90
   8   3   5   15.40    4.80
  -8  -3  -5   23.10    5.40
  -8  -3  -5   25.20    4.50
   8  -3   5   13.30    4.00
   8  -3   5   14.30    4.50
  -8   4   9  420.96   15.30
   8   4  -9  398.66   19.20
  -8   4   9  414.16   17.60
  -8  -4   9  385.76   19.10
  -8  -4   9  396.76   17.10
   8  -4  -9  418.46   23.20
  -8   4   8   32.80    4.20
   8   4  -8   19.70    5.60
  -8  -4   8   22.80    9.60
   8  -4  -8   29.00    8.40
  -8  -4   8   35.20    6.10
   8   4  -7  133.49   10.50
  -8   4   7  148.09   10.80
  -8   4   7  155.58    7.20
  -8  -4   7  142.79   11.20
  -8  -4   7  153.88    9.90
   8  -4  -7  165.48   14.90
   8   4  -6   83.89    8.30
  -8   4   6   99.99    8.90
  -8  -4   6   82.29    7.40
  -8  -4   6   80.59    8.50
   8  -4  -6  108.79   12.70
  -8  -4   6  105.09   14.50
   8   4  -5  537.75   21.80
  -8   4   5  585.04   21.90
   8   4  -5  543.45   19.30
  -8  -4   5  576.84   20.10
   8  -4  -5  560.24   17.00
   8  -4  -5  565.44   14.30
   8  -4  -5  563.24   27.30
  -8  -4   5  543.15   22.10
  -8   4   4  321.07   16.10
   8   4  -4  345.27   15.30
   8  -4  -4  312.27   20.50
  -8  -4   4  341.77   16.80
   8  -4  -4  351.56   14.00
   8  -4  -4  312.47   10.50
  -8  -4   4  306.37   13.80
  -8  -4   4  300.97   20.20
   8   4  -3  294.77   14.80
  -8   4   3  263.97   14.70
   8  -4  -3  269.77   10.20
  -8  -4   3  278.67   15.20
   8  -4  -3  259.17   12.90
  -8  -4   3  269.07   18.40
  -8  -4   3  268.77   12.40
   8   4  -2  125.09   12.30
   8   4  -2  129.09   10.30
  -8   4   2  115.89   10.00
  -8  -4   2  129.79   10.80
   8  -4  -2  132.19    7.50
   8  -4  -2  122.19    9.40
  -8   4   1   51.49    8.10
   8   4  -1   55.89    7.90
   8   4  -1   61.39   10.10
  -8  -4   1   59.89    8.50
   8  -4  -1   54.59    5.60
   8   4   0  716.93   26.50
   8   4   0  701.23   25.70
   8  -4   0  720.23   22.20
  -8  -4   0  734.93   21.80
  -8  -4   0  771.32   27.50
   8   4   1  162.68   11.50
  -8   4  -1  174.48   12.80
   8  -4   1  153.78    9.20
  -8  -4  -1  148.29    8.50
  -8  -4  -1  149.99   11.80
   8   4   2   67.79    9.60
  -8   4  -2   51.19   10.10
  -8  -4  -2   45.10    5.10
   8  -4   2   44.10    6.40
  -8  -4  -2   49.20    8.60
   8   4   3    7.20    4.30
  -8   4  -3   18.30    4.90
   8  -4   3    3.20    2.90
  -8  -4  -3    8.30    4.40
   8   4   4  106.49   10.10
  -8   4  -4  106.19   11.00
   8  -4   4  115.69    8.70
  -8  -4  -4  119.49    8.20
  -8  -4  -4  103.49   10.40
   8   5  -7  359.56   18.70
  -8   5   7  362.16   18.60
  -8   5   7  368.36   12.50
  -8  -5   7  346.67   19.30
  -8  -5   7  401.36   28.30
  -8  -5   7  335.47   16.70
   8  -5  -7  410.46   22.60
  -8   5   6   17.20    2.80
   8   5  -6   23.00    6.00
  -8   5   6   28.30    6.60
  -8  -5   6   18.70    6.10
  -8  -5   6   42.30   18.10
   8  -5  -6   18.40    8.70
  -8  -5   6   23.30    5.50
   8   5  -5   67.29    8.10
  -8   5   5   76.39    8.90
   8   5  -5   64.79    7.10
   8  -5  -5   83.09   14.50
  -8  -5   5   78.79   15.70
  -8  -5   5   60.09    6.90
  -8  -5   5   57.49    9.20
   8  -5  -5   64.29    5.80
   8  -5  -5   60.49    4.10
   8   5  -4  201.68   13.40
  -8   5   4  211.28   14.00
   8   5  -4  201.88   12.40
  -8  -5   4  201.18   13.10
   8  -5  -4  198.58    8.50
   8  -5  -4  196.48   11.40
  -8  -5   4  203.38   14.30
  -8   5   3  252.97   15.50
   8   5  -3  255.87   14.70
   8  -5  -3  304.67   11.60
  -8  -5   3  275.37   14.10
   8  -5  -3  289.07   14.60
  -8  -5   3  260.97   18.60
  -8  -5   3  258.37   16.10
  -8   5   2   12.50    8.20
   8   5  -2   15.00    4.80
   8  -5  -2   15.70    4.70
   8  -5  -2   12.10    3.10
  -8  -5   2   10.70    4.00
  -8  -5   2    7.30    4.60
  -8   5   1    5.40    3.60
   8   5  -1    0.90    3.50
  -8  -5   1    0.00    3.30
   8  -5  -1   -0.60    2.90
   8  -5  -1    2.30    2.40
  -8  -5   1    0.40    2.60
   8   5   0   14.20    4.70
  -8   5   0    9.50    5.50
   8  -5   0   10.30    4.20
  -8  -5   0    8.80    3.00
  -8  -5   0   15.10    5.50
   8  -5   0    4.50    3.10
   8   5   1   19.30    6.10
  -8   5  -1    8.20    4.80
  -8  -5  -1   11.00    5.00
   8  -5   1   10.50    4.10
   8  -5   1    9.70    4.90
  -8  -5  -1    5.30    3.00
   8   5   2   20.60    6.20
   8  -5   2   15.10    4.00
  -8  -5  -2   18.80    6.30
  -8  -5  -2   13.90    3.60
   8   6  -5   21.10    6.10
  -8  -6   5   35.40   11.70
   8  -6  -5   20.40    3.00
  -8  -6   5   26.90    7.30
   8  -6  -5   37.90   10.30
   8  -6  -5   12.90    3.80
   8   6  -4   90.19    9.50
   8   6  -4   87.59    9.80
   8  -6  -4   96.29   16.50
  -8  -6   4   99.19   11.10
   8  -6  -4   84.89    6.00
  -8  -6   4  103.49   16.50
   8   6  -3   13.20    5.70
   8  -6  -3   21.40    4.40
   8  -6  -3   20.10    5.30
  -8  -6   3   15.00    5.90
   8   6  -2   13.50    4.90
   8  -6  -2   16.90    4.30
  -8  -6   2   24.60    7.30
   8  -6  -2   18.50    5.70
  -8   6   1   85.99    5.70
   8   6  -1  105.89   11.10
   8  -6  -1  103.19   13.80
  -8  -6   1   82.59   11.90
  -8   6   0  284.47   10.80
   8   6   0  297.07   19.80
  -8  -6   0  287.57   18.40
   8  -6   0  287.47   14.10
  -9   0  11    2.80    3.00
  -9   0  10   12.90    2.10
  -9   0  10   22.00    4.90
  -9   0  10   18.20   10.10
  -9   0   9    7.70    6.50
  -9   0   9    2.40    1.50
   9   0  -9   -3.70    4.30
  -9   0   8   11.50    2.50
  -9   0   8    9.40    7.20
   9   0  -8   14.60    7.20
  -9   0   7   -1.00    1.70
   9   0  -7    3.30    5.10
   9   0  -6 1943.01   60.69
  -9   0   6 1967.50   43.20
   9   0  -6 1985.80   43.20
   9   0  -5   -1.00    1.30
  -9   0   5    0.90    2.10
   9   0  -5   -2.00    9.20
   9   0  -4   18.40    3.50
   9   0  -4    4.80    7.00
  -9   0   4   20.60    3.30
   9   0  -3   -0.20    1.90
  -9   0   3    1.10    2.40
   9   0  -3    4.50    5.20
  -9   0   2  641.04   18.60
   9   0  -2  651.73   28.30
   9   0  -2  639.74   18.50
   9   0  -1    0.20    4.60
   9   0  -1   -0.10    2.00
  -9   0   1   -0.90    2.20
   9   0   0 1385.56   34.10
  -9   0  -1   -0.80    2.30
   9   0   1   -3.70    1.80
   9   0   2  186.08    8.90
   9   0   2  186.18    9.30
   9   0   3    1.40    2.70
  -9   0  -3    3.30    3.20
   9   0   3    3.40    2.60
  -9   0  -4  191.88   11.80
   9   0   4  195.98   10.30
   9   0   5   -2.10    2.40
  -9   0  -5   18.40    4.30
   9   0   5    2.90    3.20
  -9   1  11    4.90    3.60
  -9  -1  11    5.20    3.00
  -9  -1  11    5.30    2.10
  -9   1  10  626.04   21.80
  -9  -1  10  620.84   34.60
  -9  -1  10  580.74   16.30
   9   1  -9    8.20    3.20
  -9   1   9   12.90    2.50
  -9   1   9   16.20    4.30
  -9  -1   9   11.50    2.70
   9  -1  -9   13.40    7.60
   9   1  -8    8.10    6.90
   9   1  -8    6.10    2.70
  -9   1   8    1.70    2.10
  -9   1   8    6.80    3.00
   9  -1  -8    1.30    6.60
  -9  -1   8    8.10    8.30
  -9   1   7  269.77    9.70
   9   1  -7  291.57   20.50
   9   1  -7  256.87   10.90
  -9  -1   7  260.57    9.50
   9  -1  -7  258.87   19.50
  -9   1   6    9.10    2.90
   9   1  -6    9.50    3.00
   9  -1  -6    9.80    7.30
  -9  -1   6    4.10    2.40
  -9   1   5   59.19    5.20
   9   1  -5   56.99   11.00
   9   1  -5   57.29    5.00
   9   1  -5   61.49    5.00
   9  -1  -5   57.49   11.90
   9  -1  -5   54.79    4.80
  -9  -1   5   54.19    4.70
   9   1  -4  111.09    7.10
   9   1  -4  114.49    6.50
  -9   1   4  109.89    6.60
   9   1  -4  105.29   13.00
  -9  -1   4  105.49    6.20
   9  -1  -4  117.89    6.00
   9  -1  -4  101.39   14.40
   9   1  -3  267.07   11.30
   9   1  -3  252.67   17.70
  -9  -1   3  262.07   10.00
   9  -1  -3  258.67    9.50
   9  -1  -3  251.37   17.90
  -9   1   2 2154.48   50.29
   9   1  -2 2139.99   50.39
   9   1  -2 2110.09   61.39
   9  -1  -2 2185.18   48.10
  -9  -1   2 2243.38   49.00
   9   1  -1   56.49    5.60
   9   1  -1   49.20   10.10
  -9   1   1   49.60    6.50
   9  -1  -1   47.90    4.60
  -9  -1   1   47.90    5.00
   9   1   0    8.30    5.70
   9   1   0    9.90    3.30
   9  -1   0   14.80    2.50
   9  -1   0    7.00    2.60
  -9   1  -1    5.90    4.40
   9   1   1   10.60    3.50
  -9  -1  -1   10.30    3.50
   9  -1   1    7.90    2.80
   9  -1   1    9.10    2.60
   9   1   2   17.20    4.20
   9  -1   2   27.10    4.30
   9  -1   2   26.50    4.30
  -9   1  -3  106.89    9.00
   9   1   3  108.59    7.80
  -9  -1  -3   92.49    8.00
   9  -1   3  105.29    8.70
   9  -1   3   99.59    7.10
   9   1   4  458.95   17.10
  -9   1  -4  462.05   19.60
   9   1   4  453.15   17.50
   9  -1   4  443.26   16.20
  -9  -1  -4  417.46   17.30
   9  -1   4  448.86   17.30
   9   1   5  141.59   10.30
  -9   1  -5  187.78   14.50
   9   1   5  151.78   10.00
  -9  -1  -5  174.88   10.70
   9  -1   5  134.39    8.80
   9  -1   5  148.69   10.30
  -9   2  10    0.60    2.90
   9   2 -10    4.10    2.80
  -9   2  10    6.30    2.60
   9  -2 -10   -2.70    6.20
  -9  -2  10    8.00    3.00
  -9   2   9  410.76   15.00
   9   2  -9  380.96   15.90
  -9   2   9  364.76   13.40
  -9  -2   9  367.96   18.80
  -9  -2   9  418.46   27.90
   9  -2  -9  397.36   25.00
  -9   2   8   88.09    6.10
   9   2  -8   94.09    7.40
  -9   2   8   95.59    6.70
   9  -2  -8   95.29   15.10
  -9  -2   8  108.69   18.70
  -9  -2   8   83.09    8.40
  -9   2   7    8.20    2.20
   9   2  -7    3.70    6.10
  -9   2   7    9.70    3.40
   9   2  -7    7.80    3.10
   9  -2  -7    2.50    6.50
   9   2  -6  224.28   18.70
   9   2  -6  239.48   11.40
   9   2  -6  251.37    8.90
  -9   2   6  242.28   10.80
  -9  -2   6  245.88   11.10
   9  -2  -6  241.38   18.20
   9   2  -5    4.10    2.70
   9   2  -5    1.80    6.40
   9   2  -5    7.60    2.60
  -9   2   5    1.10    2.70
  -9  -2   5    4.90    2.60
   9  -2  -5    2.70    2.20
  -9  -2   5   -0.10    5.50
   9  -2  -5    6.80    5.40
   9  -2  -5    2.60    1.80
  -9   2   4   65.09    6.30
   9   2  -4   74.39    6.40
   9   2  -4   66.69    6.30
   9  -2  -4   65.89    4.50
  -9  -2   4   72.79    5.70
   9  -2  -4   81.79   11.60
  -9   2   3  899.01   26.60
   9   2  -3  944.21   27.00
   9   2  -3  891.91   35.30
  -9  -2   3  951.30   24.60
   9  -2  -3  925.81   23.00
   9  -2  -3  938.91   36.90
   9   2  -2 1799.42   45.10
  -9   2   2 1774.42   45.30
   9   2  -2 1807.02   54.09
   9  -2  -2 1821.92   41.10
  -9  -2   2 1853.01   42.30
   9   2  -1 1575.44   39.90
   9   2  -1 1465.15   47.20
  -9   2   1 1554.24   40.80
   9   2   0  734.83   23.50
   9   2   0  721.83   29.40
   9  -2   0  753.12   20.90
   9   2   1    4.10    5.00
   9   2   1   -1.40    2.60
   9  -2   1    3.10    1.90
   9  -2   1    4.50    2.60
   9   2   2   22.80    6.90
   9   2   2   33.50    5.60
  -9   2  -2   41.40    7.00
  -9  -2  -2   35.00    5.30
   9  -2   2   37.30    4.50
   9  -2   2   33.20    4.80
   9   2   3  223.58   12.00
  -9   2  -3  211.08   13.40
   9   2   3  218.78   15.60
   9  -2   3  220.78   10.80
  -9  -2  -3  231.98   11.40
   9  -2   3  236.08   11.00
  -9   2  -4 1000.90   36.70
   9   2   4  923.41   29.60
   9  -2   4  941.71   27.40
  -9  -2  -4  949.31   28.40
   9  -2   4  933.51   28.40
  -9   2  -5  173.28   11.80
   9   2   5  135.19   12.20
   9  -2   5  133.69   10.00
  -9  -2  -5  140.09   11.10
  -9   3  10   69.69    6.70
   9   3 -10   57.99    9.00
  -9   3  10   60.79    6.80
   9  -3 -10   62.19   13.00
  -9  -3  10   54.79    6.80
  -9   3   9    3.60    2.40
   9   3  -9    2.80    3.10
   9  -3  -9    7.80    6.70
  -9  -3   9    6.80    3.60
  -9  -3   9    5.70    2.90
  -9   3   8  271.67   10.30
   9   3  -8  264.97   13.70
  -9   3   8  288.57   15.00
  -9  -3   8  276.17   12.60
   9  -3  -8  250.17   19.50
  -9  -3   8  258.67   21.90
  -9  -3   8  262.87   13.90
   9   3  -7   52.29    6.20
  -9   3   7   59.49    6.80
   9  -3  -7   57.99   11.40
  -9  -3   7   54.89    6.10
  -9  -3   7   51.79   12.30
   9   3  -6   67.99    7.00
   9   3  -6   88.89    6.00
  -9   3   6   83.59    7.70
  -9  -3   6   84.09    6.80
  -9  -3   6   52.29   13.50
   9  -3  -6   54.09   11.70
   9   3  -5  109.69    7.90
   9   3  -5  116.89   13.20
  -9   3   5  108.79    8.80
   9  -3  -5  114.99    5.10
   9  -3  -5   97.79   13.40
   9  -3  -5  110.79    6.60
  -9  -3   5  111.29    7.70
   9   3  -4   77.49   13.30
   9   3  -4   64.59    6.80
  -9   3   4   62.59    7.30
  -9  -3   4   68.29    6.20
   9  -3  -4   81.59   13.90
   9  -3  -4   65.39    4.40
   9  -3  -4   66.39    6.00
  -9  -3   4   71.89   12.70
   9   3  -3    8.00    6.50
  -9   3   3   12.50    4.30
   9   3  -3   21.30    5.40
   9  -3  -3   19.90    3.30
  -9  -3   3   12.80    3.40
   9   3  -2  147.79   10.20
  -9   3   2  173.28   11.50
   9   3  -2  168.98   13.70
  -9  -3   2  152.48    8.50
   9  -3  -2  161.58    9.10
   9   3  -1   16.50    6.80
   9   3  -1   26.50    5.70
  -9   3   1   23.30    5.60
   9  -3  -1   19.70    3.60
   9   3   0  756.22   25.90
   9   3   0  778.32   30.00
   9  -3   0  779.02   22.40
  -9  -3   0  811.32   26.70
   9   3   1  296.57   17.30
  -9   3  -1  286.97   15.90
   9   3   1  295.17   14.80
  -9  -3  -1  292.07   12.20
   9  -3   1  298.77   12.30
   9   3   2  573.44   24.30
   9   3   2  600.44   22.30
  -9  -3  -2  568.64   18.80
   9  -3   2  563.84   19.00
  -9   3  -3  168.08   12.60
   9   3   3  155.08   11.80
   9   3   3  138.49   16.00
   9  -3   3  184.58   12.90
   9  -3   3  162.38   11.20
  -9  -3  -3  166.08   12.30
  -9   3  -4  263.47   16.10
   9   3   4  220.78   13.50
  -9  -3  -4  219.08   14.20
   9  -3   4  249.97   12.10
  -9  -3  -4  238.28   11.70
   9  -3   4  230.48   12.40
  -9   4   8   86.49    8.60
  -9   4   8   83.89    5.60
   9   4  -8   81.89    8.50
   9  -4  -8   83.29   15.00
  -9  -4   8   85.69    8.00
  -9  -4   8   93.39    9.60
  -9   4   7   63.49    8.80
   9   4  -7   32.10    6.00
  -9  -4   7   39.00    6.30
  -9  -4   7   51.09   13.00
  -9  -4   7   51.09    8.70
   9  -4  -7   36.70    9.80
  -9   4   6   12.80    4.60
   9   4  -6    8.00    3.80
  -9  -4   6    8.70    8.50
   9  -4  -6    7.90    7.30
  -9  -4   6    5.90    4.20
  -9  -4   6    7.30    3.20
  -9   4   5   95.19    9.00
   9   4  -5   81.59    7.60
   9   4  -5   80.19    8.20
   9  -4  -5  101.39   13.30
  -9  -4   5  105.89   23.60
  -9  -4   5   81.69    7.20
   9  -4  -5   82.09    4.60
  -9  -4   5   92.69    9.10
   9  -4  -5   85.49    6.40
  -9   4   4    6.10    3.70
   9   4  -4   -5.60    2.40
   9  -4  -4   -0.30    2.90
  -9  -4   4    1.30    3.00
  -9  -4   4   -2.10    6.60
   9  -4  -4   -1.10    5.90
   9  -4  -4    0.20    1.50
  -9  -4   4   -0.60    3.00
  -9   4   3   99.49    9.30
   9   4  -3   84.29   11.50
   9   4  -3   77.89    8.40
  -9  -4   3   83.79    9.10
   9  -4  -3   92.09    8.00
   9  -4  -3   86.59    7.20
  -9  -4   3   84.29    7.20
   9   4  -2  605.94   23.40
  -9   4   2  629.94   24.80
   9   4  -2  595.64   26.80
   9  -4  -2  608.94   18.50
  -9  -4   2  610.64   19.90
  -9  -4   2  623.44   24.80
   9   4  -1  127.79   10.60
  -9   4   1  139.09   11.30
   9   4  -1  156.38   12.90
  -9  -4   1  123.49   11.30
   9  -4  -1  142.49    8.10
  -9  -4   1  132.59    8.40
   9   4   0  400.36   18.40
   9   4   0  392.56   19.60
  -9   4   0  392.76   19.70
   9  -4   0  390.76   14.90
  -9  -4   0  406.66   19.50
  -9  -4   0  352.56   18.00
   9   4   1   36.80    6.70
  -9   4  -1   36.70    7.30
  -9  -4  -1   30.40    6.80
   9  -4   1   32.80    5.50
  -9  -4  -1   28.70    4.80
  -9   4  -2  245.68   15.60
   9   4   2  195.28   13.50
  -9  -4  -2  192.88   14.10
  -9  -4  -2  226.18   11.10
   9  -4   2  216.48   11.30
   9   4   3  981.50   34.60
   9  -4   3 1050.29   31.90
  -9  -4  -3 1064.29   29.20
  -9  -4  -3  965.50   34.80
   9   5  -7   71.99    8.70
  -9   5   7   92.19   13.20
  -9  -5   7   62.69    9.90
  -9  -5   7   53.59    9.50
   9  -5  -7   78.19   13.70
   9   5  -6   10.30    5.40
  -9   5   6   20.60    7.10
   9  -5  -6   14.20    8.20
  -9  -5   6    6.60    4.10
  -9  -5   6   13.80    6.80
  -9  -5   6   11.80    7.60
  -9   5   5   17.50    5.70
   9   5  -5   15.00    5.60
   9   5  -5   10.90    4.20
   9  -5  -5   20.70    8.80
  -9  -5   5   12.90    4.50
  -9  -5   5   -0.10    6.40
   9  -5  -5   15.10    2.50
  -9  -5   5   13.30    7.20
   9   5  -4   20.90    4.90
  -9   5   4   32.10    7.20
  -9  -5   4   16.70    4.80
   9  -5  -4   18.20    3.30
   9  -5  -4   13.60    8.40
  -9  -5   4   14.70    6.30
  -9  -5   4   29.10   10.60
   9  -5  -4   20.30    4.90
  -9   5   3   -1.70    3.00
   9   5  -3    3.40    4.00
   9  -5  -3    7.70    4.10
  -9  -5   3   10.90    5.20
  -9  -5   3    4.80    3.10
   9  -5  -3    1.70    2.20
   9   5  -2  135.49   11.50
  -9   5   2  134.09   12.60
  -9  -5   2  150.48    9.60
   9  -5  -2  139.69    8.10
   9  -5  -2  142.49   10.90
  -9   5   1   48.90   11.90
   9   5  -1   35.80    7.80
  -9  -5   1   32.80    8.30
   9  -5  -1   44.90    6.30
  -9  -5   1   36.80    6.80
   9  -5  -1   41.40    7.50
   9   5   0   71.69   10.50
  -9  -5   0   71.19   10.90
   9  -5   0   55.99    8.60
   9   5   1  219.88   15.10
  -9  -5  -1  249.88   16.80
   9  -5   1  244.38   12.50
 -10   0  10    2.10    1.70
 -10   0  10   -9.40    6.40
 -10   0   9    2.10    1.80
  10   0  -9   -1.70    5.70
 -10   0   8   23.50    3.30
  10   0  -8   37.00   11.00
 -10   0   7    1.90    2.20
  10   0  -7   -1.40    4.70
  10   0  -6  438.16   12.30
  10   0  -6  415.66   25.10
 -10   0   6  429.16   14.10
  10   0  -5    0.60    6.00
 -10   0   5   -0.40    2.20
  10   0  -5    2.70    2.30
  10   0  -4 1041.70   40.20
  10   0  -4  987.10   26.30
 -10   0   4 1007.80   26.10
 -10   0   3    1.90    2.50
  10   0  -3   -3.10    2.00
  10   0  -3    4.60    4.80
  10   0  -2   -1.60    4.50
 -10   0   2   -2.20    2.40
  10   0  -2    2.70    2.60
  10   0  -1   -3.70    4.70
  10   0  -1   -0.30    2.20
  10   0   0  247.18   10.80
  10   0   1    0.00    1.90
  10   0   1   -0.60    2.50
 -10   0  -1   -0.20    2.50
 -10   0  -2 1261.97   35.90
  10   0   2 1265.77   33.50
  10   0   3   -1.30    2.60
 -10   0  -3    1.50    5.60
  10   0   3    1.40    2.60
 -10   0  -4  517.85   21.10
  10   0   4  488.55   18.70
  10   0   4  501.65   18.40
 -10   1  10   45.30    4.10
 -10  -1  10   34.80    3.90
 -10   1   9  250.37    9.70
  10   1  -9  277.67   22.40
  10   1  -9  263.97   11.70
 -10  -1   9  264.77    9.60
  10  -1  -9  256.77   21.70
 -10  -1   9  268.47   22.60
 -10   1   8  415.86   13.60
  10   1  -8  435.46   15.20
  10   1  -8  446.56   27.70
 -10  -1   8  425.86   13.70
  10  -1  -8  464.65   26.90
 -10  -1   8  420.26   33.50
  10   1  -7  289.07   21.80
 -10   1   7  286.17   10.80
  10   1  -7  278.37   11.20
  10  -1  -7  300.67   21.40
  10   1  -6  129.29   14.80
  10   1  -6  136.19    7.40
  10  -1  -6  139.69   14.90
 -10  -1   6  132.99    7.10
 -10   1   5   30.70    4.60
  10   1  -5   29.10    4.20
  10   1  -5   37.30   10.10
  10   1  -5   33.10    4.50
 -10  -1   5   26.30    3.90
  10  -1  -5   25.20    3.50
  10  -1  -5   39.50   10.60
 -10   1   4  421.96   15.10
  10   1  -4  459.95   25.00
  10   1  -4  433.86   15.60
  10   1  -4  460.85   14.50
 -10  -1   4  447.66   14.40
  10  -1  -4  454.95   25.20
  10  -1  -4  427.26   13.80
 -10   1   3  226.98   10.70
  10   1  -3  224.68   10.90
  10   1  -3  233.58   18.30
 -10  -1   3  232.48    9.90
  10  -1  -3  202.18   17.40
  10  -1  -3  225.38    9.40
  10   1  -2 2388.16   68.79
  10   1  -2 2410.66   59.99
 -10   1   2 2426.26   56.59
 -10  -1   2 2353.16   54.39
  10  -1  -2 2429.76   53.89
  10  -1  -2 2458.15   70.69
  10   1  -1   51.59    6.30
  10   1  -1   40.90    9.20
  10  -1  -1   48.80    4.90
  10   1   0   71.19    6.50
  10   1   0   69.39   12.20
  10  -1   0   74.39    5.90
  10   1   1  516.85   18.10
 -10   1  -1  470.55   19.10
  10   1   1  485.25   25.30
 -10  -1  -1  514.45   18.10
  10  -1   1  497.45   16.70
  10  -1   1  513.35   15.20
  10   1   2  145.59    9.40
 -10   1  -2  149.09   10.80
 -10  -1  -2  152.48    9.60
  10  -1   2  148.39    8.00
  10  -1   2  150.08    8.80
 -10   1  -3    6.10    3.60
  10  -1   3    4.10    2.80
 -10  -1  -3    4.00    3.00
  10   1   4   77.09    7.60
 -10   1  -4   98.09    9.50
  10   1   4   88.29    8.20
 -10  -1  -4  110.99    8.80
  10  -1   4   85.39    7.50
 -10   2  10  206.98    9.80
  10   2 -10  174.58   11.00
 -10   2  10  199.98   10.40
 -10  -2  10  189.58    9.10
  10  -2 -10  179.88   21.00
  10   2  -9  125.29    8.80
 -10   2   9  131.89    7.70
 -10   2   9  142.59    8.30
  10  -2  -9  137.09   16.50
 -10  -2   9  124.19    7.50
  10   2  -8  697.33   22.90
  10   2  -8  731.63   36.70
 -10  -2   8  723.93   20.90
  10  -2  -8  759.32   35.60
 -10   2   7  198.88   10.10
  10   2  -7  183.78   10.20
  10   2  -7  156.78   17.50
  10  -2  -7  178.18   17.70
 -10  -2   7  183.98    8.90
 -10  -2   7  175.48   17.50
  10   2  -6  125.79    8.20
 -10   2   6  121.89    8.30
  10   2  -6  139.49   15.40
  10   2  -6  117.79    6.60
 -10  -2   6  117.79    7.40
  10  -2  -6  134.39   15.10
 -10  -2   6  130.19   14.60
  10   2  -5   58.39    5.80
 -10   2   5   57.19    6.40
  10   2  -5   41.30   10.00
  10   2  -5   54.99    5.70
  10  -2  -5   57.29    4.30
 -10  -2   5   62.79    5.50
  10  -2  -5   62.79    5.10
  10  -2  -5   53.19   11.30
  10   2  -4  266.77   12.00
 -10   2   4  247.58   12.20
  10   2  -4  251.67   18.70
  10   2  -4  240.18   11.90
 -10  -2   4  251.97   10.50
  10  -2  -4  266.17   19.70
  10  -2  -4  257.77    9.40
  10   2  -3  610.44   21.30
 -10   2   3  606.64   21.30
  10   2  -3  653.53   29.90
  10  -2  -3  648.24   17.90
  10  -2  -3  675.73   31.50
 -10  -2   3  624.94   18.90
 -10   2   2   63.99    7.50
  10   2  -2   57.79    6.50
  10   2  -2   74.49   13.00
 -10  -2   2   60.29    5.50
  10  -2  -2   55.49    5.00
  10   2  -1  104.89    8.20
 -10   2   1  102.09    9.40
  10  -2  -1  108.99    6.80
  10   2   0   20.40    4.90
  10  -2   0   19.70    4.00
  10   2   1   33.30    8.80
  10   2   1   36.40    6.30
 -10   2  -1   42.00    7.20
 -10  -2  -1   36.70    5.60
  10  -2   1   37.80    3.70
  10  -2   1   37.80    5.20
  10   2   2  140.49   13.20
  10   2   2  121.69    9.60
 -10   2  -2  149.88   11.20
  10  -2   2  127.29    7.50
  10  -2   2  137.79    8.40
 -10  -2  -2  124.79   11.60
  10   2   3   12.40    4.00
 -10   2  -3   12.20    5.10
  10   2   3   16.90    7.50
  10  -2   3   15.60    4.00
  10  -2   3   17.40    4.20
 -10  -2  -3   23.90    4.90
  10   2   4   29.00    8.80
 -10  -2  -4   42.30    6.40
  10   3  -9   -1.30    2.60
 -10   3   9   10.20    3.40
  10  -3  -9    0.40    6.80
 -10  -3   9    4.80    3.50
 -10  -3   9    6.20    3.60
 -10   3   8 1259.57   35.30
  10   3  -8 1244.08   36.50
  10  -3  -8 1252.77   48.30
 -10  -3   8 1252.17   52.69
 -10  -3   8 1277.57   33.70
 -10   3   7  125.49    9.50
  10   3  -7  114.89    9.00
 -10  -3   7  147.69   16.80
 -10  -3   7  136.49    8.40
  10  -3  -7  122.29   14.80
 -10   3   6  561.34   21.10
  10   3  -6  559.84   30.70
  10   3  -6  607.74   18.50
  10   3  -6  614.84   21.90
  10  -3  -6  585.64   30.70
 -10  -3   6  607.44   31.60
 -10  -3   6  608.34   19.50
 -10   3   5    8.00    3.70
  10   3  -5    5.10    3.10
  10   3  -5    6.20    3.30
  10   3  -5    6.40    6.20
  10  -3  -5   -1.00    5.50
  10  -3  -5    4.70    2.80
 -10  -3   5    3.70    3.10
  10  -3  -5    0.10    1.70
 -10   3   4   32.80    6.40
  10   3  -4   45.00   10.30
  10   3  -4   39.70    7.30
  10  -3  -4   35.70    9.80
 -10  -3   4   30.50    4.80
  10  -3  -4   32.00    4.00
 -10   3   3  408.86   17.80
  10   3  -3  352.66   16.40
  10   3  -3  366.56   22.00
  10  -3  -3  379.56   14.50
 -10  -3   3  388.16   14.40
  10   3  -2   60.99    8.20
  10   3  -2   50.79   10.20
 -10   3   2   82.99   10.60
 -10  -3   2   48.00    5.60
  10  -3  -2   53.19    5.00
 -10   3   1   41.00    7.30
  10   3  -1   40.90    7.10
  10  -3  -1   40.30    5.20
  10   3   0  164.18   14.10
  10   3   0  168.28   11.40
 -10   3   0  180.18   14.50
  10  -3   0  181.58    9.40
 -10   3  -1  422.66   20.20
  10   3   1  440.96   19.10
  10   3   1  397.56   21.20
  10  -3   1  415.26   15.60
 -10  -3  -1  432.66   15.80
  10   3   2  146.89   13.30
 -10   3  -2  172.48   13.10
  10   3   2  152.68   11.50
 -10  -3  -2  178.38    9.80
  10  -3   2  148.69    9.20
  10   3   3   31.10    7.60
  10   3   3   12.60    5.20
  10  -3   3   12.40    4.30
 -10  -3  -3   29.20    5.10
 -10   4   8  798.12   28.00
 -10  -4   8  835.12   26.70
 -10  -4   8  817.72   30.40
  10  -4  -8  842.22   38.70
  10   4  -7  258.97   14.90
 -10   4   7  294.47   15.70
 -10  -4   7  305.27   24.30
  10  -4  -7  327.87   23.10
 -10  -4   7  287.67   14.70
 -10  -4   7  281.57   16.30
  10   4  -6   14.10    4.60
 -10   4   6   21.30    5.80
  10   4  -6   10.80    3.50
 -10  -4   6   12.20    5.90
 -10  -4   6    9.00    8.40
  10  -4  -6   25.00   10.40
 -10  -4   6   15.70    5.10
  10   4  -5  243.18   14.10
  10   4  -5  242.98   12.70
 -10   4   5  232.38   14.40
 -10  -4   5  255.47   17.00
  10  -4  -5  268.57   20.90
  10  -4  -5  241.08   11.20
 -10  -4   5  259.97   21.10
  10  -4  -5  244.18    8.70
 -10  -4   5  246.08   14.90
 -10   4   4   77.29   10.30
  10   4  -4   87.89   14.70
  10   4  -4   74.99    9.30
  10  -4  -4   71.89    5.10
  10  -4  -4   78.69    7.50
 -10  -4   4   82.89    7.30
  10  -4  -4   81.29   15.60
 -10  -4   4   92.89    9.40
  10   4  -3   56.49   11.50
  10   4  -3   67.99    7.80
 -10  -4   3   71.49   10.00
  10  -4  -3   54.19    4.80
 -10  -4   3   42.30    6.00
 -10   4   2  204.18   13.80
  10   4  -2  184.48   12.70
  10   4  -2  201.88   15.60
 -10  -4   2  173.78   13.30
 -10  -4   2  186.98   10.10
  10  -4  -2  200.78    9.50
  10  -4  -2  199.78   12.30
 -10   4   1  175.58   13.10
  10   4  -1  164.08   12.00
 -10  -4   1  147.39   12.10
  10  -4  -1  152.78    8.70
 -10  -4   1  146.39    9.00
  10   4   0  249.48   16.50
 -10   4   0  286.87   18.90
  10  -4   0  249.78   11.80
 -10  -4   0  268.27   12.10
  10   4   1   88.39    9.40
  10  -4   1   88.39    7.20
 -10  -4  -1   61.39    9.40
 -10  -4  -2   30.50    6.60
  10   5  -6   -0.90    2.90
 -10   5   6    0.00    4.30
  10  -5  -6   -2.30    7.30
 -10  -5   6   -2.10    9.90
 -10  -5   6    3.80    4.70
 -10   5   5    4.00    4.50
  10   5  -5   12.40    4.10
  10   5  -5    5.80    3.90
  10  -5  -5    8.00    3.30
  10  -5  -5    4.70    2.00
 -10  -5   5    6.00    4.30
  10  -5  -5   15.50    8.40
 -10  -5   5   -3.80    7.80
  10   5  -4   25.80    6.20
 -10  -5   4   16.80    6.10
  10  -5  -4   23.80   10.40
  10  -5  -4   21.30    3.50
  10   5  -3   87.89    9.60
 -10  -5   3   92.49   12.80
  10  -5  -3   97.49    8.90
  10  -5  -3   90.69    6.50
  10   5  -2  202.88   16.50
  10  -5  -2  211.88   10.30
 -10  -5   2  210.98   15.80
  10  -5  -2  209.58   13.50
  10   5  -1  196.88   14.20
  10  -5  -1  197.38   12.40
 -10  -5   1  223.18   15.90
 -11   0  10   48.60    6.50
  11   0 -10   33.90   12.50
  11   0  -9   10.30    9.60
  11   0  -8    9.80    6.70
  11   0  -7    3.20    7.00
 -11   0   7   -0.70    2.30
  11   0  -6  436.06   26.90
 -11   0   6  450.85   14.70
  11   0  -5   -2.80    5.40
 -11   0   5    2.50    2.60
  11   0  -5    1.10    2.60
  11   0  -4  686.73   33.60
  11   0  -4  765.72   22.00
 -11   0   4  765.82   21.80
 -11   0   3    3.30    2.60
  11   0  -3    8.80    6.60
  11   0  -3   -3.10    2.00
 -11   0   2   29.60    5.10
  11   0  -2   44.40    5.80
  11   0  -2   49.50   11.70
  11   0  -1   -3.60    2.00
  11   0  -1    0.30    4.30
  11   0   0  199.48    8.20
 -11   0   0  178.18   10.60
  11   0   0  192.78   10.10
  11   0   0  184.58   17.20
  11   0   1    2.10    2.40
 -11   0  -1    6.60    3.50
  11   0   1    1.40    2.50
  11   0   2   14.40    3.70
  11   0   2   14.00    3.80
 -11   0  -2   16.20    4.50
  11   0   3    2.60    3.20
  11  -1 -10   36.30   10.70
 -11  -1  10   41.00    4.40
  11   1  -9   26.70    9.80
  11   1  -9   33.90    4.40
 -11   1   9   42.90    4.70
 -11  -1   9   39.70    4.40
 -11   1   8   13.10    3.20
  11   1  -8   15.80    8.60
  11   1  -8   15.60    3.50
  11  -1  -8   11.60    7.00
 -11  -1   8    8.90    2.90
  11   1  -7    2.10    2.10
 -11   1   7    6.70    3.00
  11   1  -7    1.70    6.50
  11  -1  -7   -2.00    5.90
 -11  -1   7    2.20    2.30
  11   1  -6   74.89    5.40
 -11   1   6   58.09    6.10
  11   1  -6   66.49   14.10
  11   1  -6   61.49    4.80
  11  -1  -6   92.29   13.30
 -11  -1   6   59.29    5.50
  11   1  -5  260.27   10.10
 -11   1   5  260.77   11.60
  11   1  -5  242.38   20.10
  11   1  -5  241.58   10.80
  11  -1  -5  231.68   19.70
  11  -1  -5  255.07    9.90
 -11  -1   5  251.27   10.50
  11   1  -4 1112.39   43.20
 -11   1   4 1079.09   30.10
  11   1  -4 1100.79   27.90
  11   1  -4 1114.49   30.50
 -11  -1   4 1092.39   28.60
  11  -1  -4 1105.59   28.30
  11   1  -3   70.29    7.70
 -11   1   3   56.39    6.20
  11   1  -3   67.39   13.00
  11  -1  -3   59.79   12.50
 -11  -1   3   59.19    5.80
  11  -1  -3   55.69    5.40
  11   1  -2  640.34   21.50
 -11   1   2  630.34   21.80
  11   1  -2  652.53   31.10
  11  -1  -2  662.83   19.70
  11  -1  -2  679.63   32.80
 -11  -1   2  672.43   20.50
  11   1  -1  113.79    8.50
  11   1  -1  114.49   13.70
 -11   1   1  123.59    9.30
  11  -1  -1  120.99    7.70
  11   1   0  224.48   17.90
 -11   1   0  177.88   17.60
  11   1   0  230.18   11.70
  11  -1   0  202.88   10.10
 -11  -1   0  213.68   15.80
  11   1   1   15.80    7.70
 -11   1  -1   25.50    5.80
  11   1   1   10.50    3.80
  11  -1   1   11.00    3.20
 -11  -1  -1   12.70    4.10
  11  -1   1    7.40    2.60
  11   1   2  139.59    9.80
 -11   1  -2  136.99   10.90
  11   1   2  134.89   15.30
  11  -1   2  140.49    8.90
  11  -1   2  135.99    7.90
 -11  -1  -2  137.89    9.60
  11   1   3  132.99    9.20
  11   1   3  178.28   16.50
  11  -1   3  111.39    8.10
  11  -1   3  120.99   10.70
 -11   2   9    3.00    2.50
  11   2  -9    1.30    2.80
 -11  -2   9    0.00    2.90
 -11   2   8   35.30    5.00
  11   2  -8   18.40   14.70
  11   2  -8   18.80    4.50
 -11  -2   8   19.30    3.90
 -11  -2   8   22.30   10.20
  11  -2  -8   24.30    9.80
  11   2  -7   14.30    9.10
 -11   2   7   17.60    4.40
  11  -2  -7   13.70    8.10
 -11  -2   7   15.70    3.60
  11   2  -6    3.10    2.20
  11   2  -6    3.80    6.80
 -11   2   6   10.90    3.80
  11   2  -6    5.00    2.90
 -11  -2   6    7.50    3.10
  11  -2  -6    6.20    6.40
  11   2  -5  101.19    7.20
  11   2  -5   91.69    7.10
 -11   2   5   91.39    7.80
  11   2  -5   86.39   14.40
 -11  -2   5   89.89    6.70
  11  -2  -5   75.79   14.80
  11  -2  -5   97.19    5.80
  11  -2  -5   97.29    6.80
  11   2  -4    3.70    2.90
  11   2  -4    3.60    6.10
  11   2  -4    2.70    2.60
 -11   2   4    8.00    3.90
 -11  -2   4    0.10    2.50
  11  -2  -4    3.70    2.30
  11  -2  -4    7.70    7.20
  11   2  -3  248.08   19.20
 -11   2   3  247.88   13.10
  11   2  -3  269.77   13.40
  11  -2  -3  236.78   20.00
 -11  -2   3  256.07   11.20
  11  -2  -3  249.58   10.20
  11   2  -2   13.00    4.20
  11   2  -2   14.50    7.30
 -11   2   2   11.80    4.20
  11  -2  -2   14.80    3.60
 -11  -2   2   14.70    3.60
  11   2  -1   41.90   10.20
  11   2  -1   26.50    5.60
  11  -2  -1   29.00    4.60
  11   2   0  253.37   13.40
  11   2   0  230.88   18.10
 -11   2   0  249.08   14.20
  11  -2   0  241.08   11.10
 -11  -2   0  253.07   12.00
  11   2   1  624.24   32.10
 -11   2  -1  570.54   23.70
  11   2   1  566.04   27.80
 -11  -2  -1  565.34   20.10
  11  -2   1  542.45   19.20
  11   2   2   44.70    7.20
  11   2   2   55.89   11.20
  11  -2   2   57.19    5.10
  11  -2   2   49.10    6.60
 -11   3   8    7.40    3.40
  11   3  -8   -1.30    2.50
 -11  -3   8   -5.10    2.80
  11  -3  -8   -0.20    6.70
  11   3  -7   29.10    5.50
 -11   3   7   46.60    6.60
 -11  -3   7   29.30    5.00
  11  -3  -7   35.70   10.20
 -11  -3   7   36.70   11.90
  11   3  -6    4.10    3.00
  11   3  -6    4.70    3.20
 -11   3   6   13.10    4.30
  11   3  -6    5.40    6.90
  11  -3  -6    7.40    7.10
 -11  -3   6   10.00    3.60
  11   3  -5   19.00    4.50
  11   3  -5   42.30   11.40
  11   3  -5   33.50    6.10
  11  -3  -5   28.40    3.60
 -11  -3   5   26.60    4.70
  11  -3  -5   30.50    4.80
  11  -3  -5   47.30   12.90
  11   3  -4    5.20    5.70
  11   3  -4    6.50    3.60
  11   3  -4    4.50    3.10
 -11   3   4    7.00    3.80
 -11  -3   4    4.50    3.20
  11  -3  -4    4.30    3.40
  11  -3  -4    2.80    2.20
  11  -3  -4   10.80    7.00
 -11   3   3    8.10    5.20
  11   3  -3    1.00    4.40
  11   3  -3   -0.20    2.90
  11  -3  -3    0.10    2.10
 -11  -3   3    0.90    2.60
  11   3  -2   37.20    9.60
 -11   3   2   29.10    6.50
  11   3  -2   41.10    7.20
 -11  -3   2   32.40    5.10
  11  -3  -2   41.80    4.80
 -11   3   1   37.20    7.20
  11   3  -1   29.50    8.30
  11   3  -1   30.10    6.40
 -11  -3   1   30.80    5.20
  11  -3  -1   35.70    5.30
  11   3   0 1214.48   43.30
 -11   3   0 1178.88   44.80
  11  -3   0 1184.58   32.00
 -11  -3   0 1209.78   33.10
  11   3   1   90.99    9.20
  11   3   1   96.29   12.00
  11  -3   1   89.29    7.20
 -11   4   7   14.50    5.10
  11   4  -7    2.80    3.60
  11  -4  -7   -0.90    9.60
 -11  -4   7    0.40    4.00
 -11  -4   7    6.90    3.70
  11   4  -6   39.90    7.00
  11   4  -6   30.90    5.40
 -11   4   6   48.20    7.60
 -11  -4   6   34.30    6.10
  11  -4  -6   53.99   13.40
 -11  -4   6   35.90   12.50
 -11  -4   6   38.30    7.90
 -11   4   5   86.79    9.00
  11   4  -5   71.79    7.70
  11   4  -5   63.99    7.90
 -11  -4   5   62.59    6.90
  11  -4  -5   58.99    4.60
  11  -4  -5   58.19   13.50
 -11  -4   5   57.19   10.30
  11  -4  -5   74.39    7.50
  11   4  -4   11.20    7.00
  11   4  -4   11.00    4.30
 -11   4   4   14.50    4.80
  11  -4  -4    9.10    8.40
 -11  -4   4    5.90    3.40
  11  -4  -4    8.80    2.80
  11  -4  -4    5.80    3.50
  11   4  -3  180.58   12.40
  11   4  -3  163.98   15.30
 -11   4   3  174.58   12.70
  11  -4  -3  148.89   10.70
  11  -4  -3  142.69    7.90
  11   4  -2   11.90    6.50
  11   4  -2   10.10    4.40
  11  -4  -2   14.70    3.70
  11   4  -1    3.20    3.80
  11   4  -1   10.50    5.50
  11  -4  -1    6.70    2.90
 -11  -4   1    0.40    3.90
  11   4   0   69.29   10.10
  11   4   0   91.49    9.50
 -11  -4   0   92.99   10.90
  11  -4   0   98.39    7.50
 -12   0   9    4.90    2.40
  12   0  -9   -1.50    7.10
 -12   0   8    7.70    2.80
  12   0  -8    1.50    6.60
 -12   0   7    4.30    2.70
  12   0  -7    2.90    5.80
  12   0  -6  575.44   32.20
 -12   0   6  510.35   17.30
  12   0  -6  529.25   15.50
  12   0  -5    1.40    2.40
 -12   0   5    6.10    2.90
  12   0  -5    3.50    6.50
 -12   0   4 1907.41   46.70
  12   0  -4 1909.81   64.39
  12   0  -4 1929.41   46.80
 -12   0   3    2.50    2.80
  12   0  -3    0.20    2.60
  12   0  -3   -1.20    5.60
 -12   0   2   26.20    7.20
  12   0  -2   26.50    4.90
  12   0  -2   26.80    9.20
  12   0  -1    7.80    6.80
  12   0  -1   -1.10    2.30
 -12   0   1    1.70    2.70
  12   0  -1   -0.50    1.50
  12   0   0  703.43   34.80
  12   0   0  723.43   19.40
  12   0   0  702.53   23.00
 -12   0   0  680.33   24.30
  12   0   1    0.20    3.00
  12   0   1    1.40    2.30
  12   0   2  341.47   13.60
  12   1  -9  147.79   20.30
 -12   1   9  173.08    9.10
  12  -1  -9  182.98   20.40
 -12  -1   9  170.78    8.30
  12   1  -8   70.99    5.60
  12   1  -8   78.19   15.40
 -12   1   8   80.99    6.20
  12  -1  -8   84.19   16.40
 -12  -1   8   61.09    5.50
 -12   1   7    3.10    2.80
  12   1  -7    4.80    2.10
  12   1  -7   10.40    8.50
  12  -1  -7   11.60    8.10
 -12  -1   7    3.00    2.50
  12   1  -6   70.99    5.60
 -12   1   6   76.39    6.50
  12   1  -6   77.39    5.30
  12   1  -6   83.19   15.30
  12  -1  -6   77.79    5.60
 -12  -1   6   70.69    5.90
  12  -1  -6   66.29    4.50
  12  -1  -6   99.49   17.90
  12   1  -5  272.57   21.60
 -12   1   5  224.88   11.50
  12   1  -5  237.28    9.50
  12   1  -5  240.08   11.40
  12  -1  -5  236.88   10.10
 -12  -1   5  249.28   11.10
  12  -1  -5  249.38   21.10
  12   1  -4  356.76   12.40
  12   1  -4  352.86   15.40
  12   1  -4  354.06   24.30
 -12   1   4  362.06   15.20
  12  -1  -4  374.06   25.60
  12  -1  -4  338.87   13.20
 -12  -1   4  355.76   13.70
 -12   1   3  133.49    9.20
  12   1  -3  118.49    8.70
  12   1  -3  132.39   15.60
 -12  -1   3  120.79    8.60
  12  -1  -3  125.59    7.80
  12  -1  -3  106.49   17.70
  12   1  -2    0.40    6.00
 -12   1   2   13.90    3.80
  12   1  -2    0.00    2.70
 -12  -1   2    2.00    2.70
  12  -1  -2    3.30    2.60
  12  -1  -2    4.90    6.80
  12   1  -1   83.09    7.80
  12   1  -1   78.89   14.30
 -12   1   1   82.89    8.30
 -12  -1   1   92.69    8.00
  12  -1  -1   84.39   15.40
  12  -1  -1   86.29    6.90
  12   1   0  463.05   18.80
  12   1   0  483.45   27.30
 -12   1   0  453.85   20.90
 -12  -1   0  455.85   18.60
  12  -1   0  439.46   16.80
  12   1   1    1.30    3.00
  12   1   1    4.90    6.00
  12  -1   1   -0.50    2.00
  12  -1   1   -1.20    2.50
  12   2  -8   37.90    5.00
  12   2  -8   48.80   12.30
 -12   2   8   58.49    6.10
 -12  -2   8   39.90    5.30
  12  -2  -8   56.19   15.40
 -12   2   7   61.99    6.50
  12   2  -7   50.49    5.70
  12   2  -7   48.90   13.70
 -12  -2   7   43.80    5.70
  12   2  -6    7.30    8.10
  12   2  -6    3.70    2.70
  12   2  -6    4.70    2.90
 -12   2   6    4.70    3.00
  12  -2  -6    6.00    6.50
 -12  -2   6    5.10    2.80
  12   2  -5  129.29   15.40
 -12   2   5  111.79    8.80
  12   2  -5  113.69    7.70
  12   2  -5   92.49    7.80
 -12  -2   5  105.09    8.40
  12  -2  -5  104.69    6.40
  12  -2  -5  110.09   15.20
  12   2  -4  410.66   15.90
 -12   2   4  434.36   20.60
  12   2  -4  445.06   27.00
  12   2  -4  412.56   17.20
 -12  -2   4  390.86   16.60
  12  -2  -4  413.96   27.30
 -12   2   3   91.59    8.60
  12   2  -3   96.49   15.90
  12   2  -3   82.09    8.20
  12  -2  -3   84.69    6.30
 -12  -2   3   88.09    6.90
  12  -2  -3  100.39   14.60
 -12   2   2  112.99    9.90
  12   2  -2  116.89    9.80
  12   2  -2  152.58   15.20
  12  -2  -2  124.09    7.80
  12  -2  -2  126.59   17.10
 -12  -2   2  124.89    8.50
  12   2  -1  312.47   15.60
 -12   2   1  322.37   18.00
  12   2  -1  331.07   22.20
 -12  -2   1  318.87   14.30
  12  -2  -1  321.47   13.20
  12   2   0  149.88   15.40
  12   2   0  169.58   11.50
  12  -2   0  171.18   10.10
  12   2   1   89.79    8.90
  12   2   1   90.99   15.40
  12  -2   1   98.09    7.80
  12   3  -7  221.18   20.90
  12   3  -7  213.58   12.30
 -12  -3   7  214.28   11.10
  12  -3  -7  242.88   21.20
  12   3  -6  674.43   23.70
  12   3  -6  676.23   22.00
 -12   3   6  721.93   27.80
  12   3  -6  649.74   41.80
 -12  -3   6  660.33   21.50
  12  -3  -6  732.33   40.50
 -12   3   5   85.89    8.60
  12   3  -5   75.59    7.60
  12   3  -5   63.39    7.00
  12   3  -5   67.59   13.00
 -12  -3   5   73.09    6.80
  12  -3  -5   66.89    5.10
  12  -3  -5   65.09    6.50
  12   3  -4   54.09   11.80
  12   3  -4   48.80    7.60
 -12   3   4   54.69    8.70
  12   3  -4   54.09    6.60
  12  -3  -4   42.60    4.60
 -12  -3   4   38.40    5.60
  12  -3  -4   45.40    7.60
  12   3  -3   43.70    7.10
  12   3  -3   54.39   12.00
 -12   3   3   53.79    8.50
  12  -3  -3   35.40    4.90
  12  -3  -3   38.40   12.60
  12   3  -2   10.20    6.90
  12   3  -2    6.60    4.20
  12  -3  -2    7.80    3.10
  12   3  -1   12.80    7.30
  12   3  -1    6.20    4.70
  12  -3  -1    8.50    4.70
  12   3   0   15.90    5.10
  12   3   0   13.90    8.60
  12  -3   0   13.60    4.10
  12   4  -5  364.96   18.00
  12   4  -5  376.16   30.70
  12  -4  -5  394.46   27.80
  12   4  -4    6.90    6.60
  12   4  -4    1.00    3.30
  12   4  -4    0.00    3.50
  12  -4  -4   -3.50    2.80
  12  -4  -4    6.50    8.30
  12  -4  -4   -0.60    2.00
  12   4  -3   19.80    8.00
  12  -4  -3   24.20    6.00
  12  -4  -3   16.30    3.80
 -13   0   8  258.47   11.50
  13   0  -8  312.77   28.70
  13   0  -7    4.70    6.90
 -13   0   7    1.70    2.70
  13   0  -6  389.56   27.70
  13   0  -6  361.56   13.00
  13   0  -5    1.20    2.30
 -13   0   5    1.60    2.70
 -13   0   4   17.30    4.60
  13   0  -4    7.90    3.20
  13   0  -4   10.70   10.40
  13   0  -3   -0.70    2.40
  13   0  -3    0.90    6.00
 -13   0   3   -1.80    2.80
  13   0  -2   35.80    6.00
  13   0  -1    4.90    7.10
  13   0   0  241.78   21.20
  13   0   0  240.38    9.50
  13   0   0  257.47   13.10
 -13   1   8  227.48   11.10
  13   1  -8  191.68    8.60
  13  -1  -8  201.98   25.90
  13   1  -7  135.09    6.80
 -13   1   7  149.59    9.50
  13  -1  -7  141.39   17.90
  13   1  -6    4.00    2.10
  13   1  -6    2.60    2.20
  13   1  -6    3.20    6.10
  13  -1  -6   18.10    8.70
  13  -1  -6    5.70    2.50
 -13  -1   6   15.70    3.80
 -13   1   5    6.50    3.10
  13   1  -5    8.50    5.50
  13   1  -5    8.20    2.30
  13  -1  -5   11.50    3.30
 -13  -1   5   10.40    3.10
  13  -1  -5   10.40    8.70
  13   1  -4   38.40    3.80
  13   1  -4   29.90    5.40
 -13   1   4   32.30    5.20
  13   1  -4   40.60   11.90
  13  -1  -4   31.70    5.20
  13  -1  -4   29.00   11.00
 -13  -1   4   40.90    5.60
  13   1  -3  293.47   11.30
  13   1  -3  280.57   14.30
  13   1  -3  312.17   23.80
 -13   1   3  324.07   15.20
 -13  -1   3  294.87   13.70
  13  -1  -3  298.37   13.00
  13  -1  -3  321.67   24.70
  13   1  -2   35.00   11.20
  13   1  -2   42.30    6.90
  13  -1  -2   40.70    5.90
  13  -1  -2   39.30   11.50
  13   1  -1  149.69   17.20
  13   1  -1  131.79   10.10
  13  -1  -1  122.49   12.90
  13  -1  -1  131.89   16.80
  13   1   0    5.20    3.90
  13  -1   0    7.40    3.80
 -13   2   7   17.30    4.40
  13   2  -7   13.90    3.40
  13   2  -7   14.10    8.90
  13  -2  -7   24.40   10.30
 -13  -2   7    9.10    3.60
  13   2  -6   24.70    9.50
  13   2  -6    4.00    2.80
 -13   2   6   23.30    5.10
  13   2  -6    8.40    3.10
  13  -2  -6    6.80    6.70
 -13  -2   6    9.40    3.50
  13  -2  -6    9.90    2.60
  13  -2  -6   10.60    2.70
 -13   2   5  121.39    9.60
  13   2  -5  107.49    7.40
  13   2  -5  123.59   16.10
  13   2  -5  103.59    8.50
  13  -2  -5   99.29    6.70
  13  -2  -5  110.99   15.60
 -13  -2   5  102.89    7.90
 -13   2   4  137.59   11.80
  13   2  -4  140.59    8.70
  13   2  -4  164.38   22.80
  13   2  -4  139.79   10.20
  13  -2  -4  141.19    8.40
  13  -2  -4  166.48   19.10
  13   2  -3   -1.60    2.90
  13   2  -3    4.30    6.40
  13  -2  -3   -1.90    7.60
  13  -2  -3   -1.20    2.40
  13   2  -2 1078.79   44.70
  13   2  -2 1054.49   35.40
  13  -2  -2 1119.79   48.40
  13  -2  -2 1087.09   30.10
  13   2  -1   87.59   15.20
  13   2  -1   76.89    8.90
  13  -2  -1   72.39    6.90
  13   3  -5   78.09    7.80
  13   3  -5   82.69    7.80
  13   3  -5   94.19   17.00
  13  -3  -5   86.29    7.20
  13  -3  -5   76.79   18.70
  13   3  -4  296.27   25.20
  13   3  -4  262.27   14.70
  13   3  -4  260.87   13.70
  13  -3  -4  249.08   11.00
  13  -3  -4  263.07   30.10
  13   3  -3    8.00    6.90
  14   0  -6  421.26   14.80
  14   0  -5    3.60    2.80
  14   0  -5    7.00    6.80
  14   0  -4   55.89   14.00
  14   0  -4   61.09    7.10
  14   0  -3    2.60    7.00
  14   0  -3    0.30    3.00
  14   1  -5  104.49    8.10
  14   1  -5   97.89   18.30
  14  -1  -5   87.89    7.10
  14   1  -4   -1.10    3.10
  14   1  -4    9.50    8.00
  14  -1  -4   -2.90    2.60
   0   0   0    0.00    0.00

_computing_structure_solution     'SHELXT 2014/5 (Sheldrick, 2014)'
;
_shelx_hkl_checksum              10660
loop_
_space_group_symop_operation_xyz
'x, y, z'
'-x, y+1/2, -z+1/2'
'-x, -y, -z'
'x, -y-1/2, z-1/2'
loop_
_atom_site_type_symbol
_atom_site_label
_atom_site_fract_x
_atom_site_fract_y
_atom_site_fract_z
_atom_site_U_iso_or_equiv
_atom_site_adp_type
_atom_site_calc_flag
_atom_site_refinement_flags_adp
_atom_site_refinement_flags_occupancy
_atom_site_refinement_flags_posn
_atom_site_occupancy
_atom_site_disorder_assembly
_atom_site_disorder_group
O O1 0.36719(8) 0.27542(15) 0.69796(11) 0.0215(2) Uani d . . . 1.0 . .
N N1 0.39034(10) 0.59506(17) 0.57175(12) 0.0162(3) Uani d . . . 1.0 . .
H H1 0.4657(17) 0.623(3) 0.654(2) 0.024(4) Uiso d . . . 1.0 . .
C C1 0.32486(11) 0.4100(2) 0.58397(14) 0.0159(3) Uani d . . D 1.0 . .
C C5 0.34256(12) 0.7759(2) 0.45148(15) 0.0195(3) Uani d . . D 1.0 . .
H H5A 0.4142 0.8199 0.4154 0.023 Uiso calc U P R 0.893(5) A 1
H H5B 0.32 0.9104 0.5019 0.023 Uiso calc U P R 0.893(5) A 1
H H5C 0.3922 0.7723 0.3795 0.023 Uiso calc U P R 0.107(5) A 2
H H5D 0.3579 0.9251 0.5061 0.023 Uiso calc U P R 0.107(5) A 2
C C2 0.19446(16) 0.3625(3) 0.4426(2) 0.0165(4) Uani d U P D 0.893(5) A 1
H H2 0.2135 0.2654 0.3627 0.02 Uiso calc U P R 0.893(5) A 1
F F1 0.11473(12) 0.2391(3) 0.50409(16) 0.0266(4) Uani d U P D 0.893(5) A 1
C C3 0.12489(15) 0.5743(3) 0.3582(2) 0.0183(4) Uani d U P D 0.893(5) A 1
H H3A 0.0976 0.6676 0.4319 0.022 Uiso calc U P R 0.893(5) A 1
H H3B 0.0451 0.5342 0.2631 0.022 Uiso calc U P R 0.893(5) A 1
C C4 0.22223(16) 0.7053(3) 0.3062(2) 0.0176(4) Uani d U P D 0.893(5) A 1
H H4A 0.2503 0.609 0.2346 0.021 Uiso calc U P R 0.893(5) A 1
H H4B 0.1783 0.8419 0.2449 0.021 Uiso calc U P R 0.893(5) A 1
C C2A 0.1740(15) 0.397(2) 0.4835(18) 0.028(4) Uani d U P D 0.107(5) A 2
H H2A 0.1235 0.4761 0.5404 0.033 Uiso calc U P R 0.107(5) A 2
F F1A 0.1419(12) 0.1681(18) 0.4652(17) 0.035(3) Uani d U P D 0.107(5) A 2
C C3A 0.1485(15) 0.505(2) 0.3236(16) 0.028(4) Uani d U P D 0.107(5) A 2
H H3A1 0.1963 0.4221 0.2664 0.033 Uiso calc U P R 0.107(5) A 2
H H3A2 0.0529 0.5011 0.2563 0.033 Uiso calc U P R 0.107(5) A 2
C C4A 0.1957(12) 0.746(2) 0.353(2) 0.024(3) Uani d U P D 0.107(5) A 2
H H4A1 0.1455 0.8255 0.408 0.029 Uiso calc U P R 0.107(5) A 2
H H4A2 0.1747 0.8205 0.2469 0.029 Uiso calc U P R 0.107(5) A 2
loop_
_atom_site_aniso_label
_atom_site_aniso_U_11
_atom_site_aniso_U_22
_atom_site_aniso_U_33
_atom_site_aniso_U_12
_atom_site_aniso_U_13
_atom_site_aniso_U_23
O1 0.0179(4) 0.0200(5) 0.0216(5) 0.0022(3) 0.0019(3) 0.0063(4)
N1 0.0131(5) 0.0174(5) 0.0151(5) -0.0011(4) 0.0019(4) -0.0013(4)
C1 0.0137(5) 0.0153(6) 0.0176(6) 0.0019(4) 0.0046(4) -0.0012(4)
C5 0.0219(6) 0.0168(6) 0.0199(6) -0.0023(5) 0.0081(5) 0.0022(5)
C2 0.0148(7) 0.0165(8) 0.0164(8) -0.0039(5) 0.0039(6) 0.0009(6)
F1 0.0180(5) 0.0309(8) 0.0272(6) -0.0097(5) 0.0044(4) 0.0088(5)
C3 0.0128(7) 0.0219(8) 0.0175(7) 0.0018(6) 0.0027(5) 0.0031(6)
C4 0.0197(7) 0.0179(7) 0.0149(7) 0.0013(5) 0.0064(6) 0.0025(6)
C2A 0.027(6) 0.028(6) 0.023(6) -0.002(5) 0.004(5) -0.005(5)
F1A 0.022(5) 0.025(5) 0.046(6) -0.004(4) -0.001(4) -0.002(4)
C3A 0.018(5) 0.030(6) 0.030(6) 0.006(4) 0.002(4) -0.010(5)
C4A 0.019(5) 0.033(6) 0.020(6) 0.007(4) 0.005(4) 0.005(4)
loop_
_atom_type_symbol
_atom_type_description
_atom_type_scat_dispersion_real
_atom_type_scat_dispersion_imag
_atom_type_scat_source
C C 0.0033 0.0016 'International Tables Vol C Tables 4.2.6.8 and 6.1.1.4'
H H 0.0000 0.0000 'International Tables Vol C Tables 4.2.6.8 and 6.1.1.4'
N N 0.0061 0.0033 'International Tables Vol C Tables 4.2.6.8 and 6.1.1.4'
O O 0.0106 0.0060 'International Tables Vol C Tables 4.2.6.8 and 6.1.1.4'
F F 0.0171 0.0103 'International Tables Vol C Tables 4.2.6.8 and 6.1.1.4'
loop_
_geom_angle_atom_site_label_1
_geom_angle_atom_site_label_2
_geom_angle_atom_site_label_3
_geom_angle_site_symmetry_1
_geom_angle_site_symmetry_3
_geom_angle
_geom_angle_publ_flag
C1 N1 C5 . . 127.17(10) ?
C1 N1 H1 . . 116.1(11) ?
C5 N1 H1 . . 115.9(11) ?
O1 C1 N1 . . 123.33(11) ?
O1 C1 C2 . . 120.37(11) ?
N1 C1 C2 . . 116.22(11) ?
O1 C1 C2A . . 115.4(5) ?
N1 C1 C2A . . 118.7(5) ?
N1 C5 C4 . . 112.58(11) ?
N1 C5 C4A . . 110.3(5) ?
N1 C5 H5A . . 109.1 ?
C4 C5 H5A . . 109.1 ?
N1 C5 H5B . . 109.1 ?
C4 C5 H5B . . 109.1 ?
H5A C5 H5B . . 107.8 ?
N1 C5 H5C . . 109.6 ?
C4A C5 H5C . . 109.6 ?
N1 C5 H5D . . 109.6 ?
C4A C5 H5D . . 109.6 ?
H5C C5 H5D . . 108.1 ?
F1 C2 C3 . . 110.94(17) ?
F1 C2 C1 . . 106.96(13) ?
C3 C2 C1 . . 113.45(14) ?
F1 C2 H2 . . 108.5 ?
C3 C2 H2 . . 108.5 ?
C1 C2 H2 . . 108.5 ?
C2 C3 C4 . . 107.17(15) ?
C2 C3 H3A . . 110.3 ?
C4 C3 H3A . . 110.3 ?
C2 C3 H3B . . 110.3 ?
C4 C3 H3B . . 110.3 ?
H3A C3 H3B . . 108.5 ?
C5 C4 C3 . . 110.75(13) ?
C5 C4 H4A . . 109.5 ?
C3 C4 H4A . . 109.5 ?
C5 C4 H4B . . 109.5 ?
C3 C4 H4B . . 109.5 ?
H4A C4 H4B . . 108.1 ?
F1A C2A C3A . . 110.8(14) ?
F1A C2A C1 . . 106.5(11) ?
C3A C2A C1 . . 107.7(12) ?
F1A C2A H2A . . 110.6 ?
C3A C2A H2A . . 110.6 ?
C1 C2A H2A . . 110.6 ?
C4A C3A C2A . . 108.2(13) ?
C4A C3A H3A1 . . 110.1 ?
C2A C3A H3A1 . . 110.1 ?
C4A C3A H3A2 . . 110.1 ?
C2A C3A H3A2 . . 110.1 ?
H3A1 C3A H3A2 . . 108.4 ?
C3A C4A C5 . . 115.4(11) ?
C3A C4A H4A1 . . 108.4 ?
C5 C4A H4A1 . . 108.4 ?
C3A C4A H4A2 . . 108.4 ?
C5 C4A H4A2 . . 108.4 ?
H4A1 C4A H4A2 . . 107.5 ?
loop_
_geom_bond_atom_site_label_1
_geom_bond_atom_site_label_2
_geom_bond_site_symmetry_2
_geom_bond_distance
_geom_bond_publ_flag
O1 C1 . 1.2372(15) ?
N1 C1 . 1.3323(16) ?
N1 C5 . 1.4648(16) ?
N1 H1 . 0.890(17) ?
C1 C2 . 1.5321(19) ?
C1 C2A . 1.553(14) ?
C5 C4 . 1.5169(19) ?
C5 C4A . 1.522(11) ?
C5 H5A . 0.99 ?
C5 H5B . 0.99 ?
C5 H5C . 0.99 ?
C5 H5D . 0.99 ?
C2 F1 . 1.4008(19) ?
C2 C3 . 1.508(2) ?
C2 H2 . 1.0 ?
C3 C4 . 1.525(2) ?
C3 H3A . 0.99 ?
C3 H3B . 0.99 ?
C4 H4A . 0.99 ?
C4 H4B . 0.99 ?
C2A F1A . 1.386(15) ?
C2A C3A . 1.498(14) ?
C2A H2A . 1.0 ?
C3A C4A . 1.498(13) ?
C3A H3A1 . 0.99 ?
C3A H3A2 . 0.99 ?
C4A H4A1 . 0.99 ?
C4A H4A2 . 0.99 ?
loop_
_geom_hbond_atom_site_label_D
_geom_hbond_atom_site_label_H
_geom_hbond_atom_site_label_A
_geom_hbond_site_symmetry_A
_geom_hbond_distance_DH
_geom_hbond_distance_HA
_geom_hbond_distance_DA
_geom_hbond_angle_DHA
_geom_hbond_publ_flag
N1 H1 O1 2_656 0.890(17) 2.016(17) 2.8756(14) 162.1(15) ?
loop_
_geom_torsion_atom_site_label_1
_geom_torsion_atom_site_label_2
_geom_torsion_atom_site_label_3
_geom_torsion_atom_site_label_4
_geom_torsion_site_symmetry_1
_geom_torsion_site_symmetry_2
_geom_torsion_site_symmetry_3
_geom_torsion_site_symmetry_4
_geom_torsion
_geom_torsion_publ_flag
C5 N1 C1 O1 . . . . -172.91(11) ?
C5 N1 C1 C2 . . . . 10.27(19) ?
C5 N1 C1 C2A . . . . -12.2(8) ?
C1 N1 C5 C4 . . . . -17.00(19) ?
C1 N1 C5 C4A . . . . 8.9(8) ?
O1 C1 C2 F1 . . . . 30.2(2) ?
N1 C1 C2 F1 . . . . -152.92(15) ?
O1 C1 C2 C3 . . . . 152.81(15) ?
N1 C1 C2 C3 . . . . -30.3(2) ?
F1 C2 C3 C4 . . . . 176.03(13) ?
C1 C2 C3 C4 . . . . 55.6(2) ?
N1 C5 C4 C3 . . . . 42.65(19) ?
C2 C3 C4 C5 . . . . -62.2(2) ?
O1 C1 C2A F1A . . . . -41.5(16) ?
N1 C1 C2A F1A . . . . 156.2(11) ?
O1 C1 C2A C3A . . . . -160.4(9) ?
N1 C1 C2A C3A . . . . 37.3(14) ?
F1A C2A C3A C4A . . . . -175.3(12) ?
C1 C2A C3A C4A . . . . -59.2(19) ?
C2A C3A C4A C5 . . . . 61.(2) ?
N1 C5 C4A C3A . . . . -33.4(17) ?
