#------------------------------------------------------------------------------
#$Date: 2021-01-28 01:02:02 +0200 (Thu, 28 Jan 2021) $
#$Revision: 261274 $
#$URL: file:///home/coder/svn-repositories/cod/cif/4/51/84/4518428.cif $
#------------------------------------------------------------------------------
#
# This file is available in the Crystallography Open Database (COD),
# http://www.crystallography.net/
#
# All data on this site have been placed in the public domain by the
# contributors.
#
data_4518428
loop_
_publ_author_name
'Nag, Abhijit'
'Islam, Md Rabiul'
'Pradeep, Thalappil'
_publ_section_title
;
 Selective Extraction of Gold by Niacin
;
_journal_name_full               'ACS Sustainable Chemistry &amp; Engineering'
_journal_paper_doi               10.1021/acssuschemeng.0c07409
_journal_year                    2021
_chemical_formula_moiety         'C12 H16 Cu N2 O8'
_chemical_formula_sum            'C12 H16 Co Cu N2 O8'
_chemical_formula_weight         438.74
_space_group_crystal_system      triclinic
_space_group_IT_number           2
_space_group_name_Hall           '-P 1'
_space_group_name_H-M_alt        'P -1'
_atom_sites_solution_hydrogens   mixed
_atom_sites_solution_primary     dual
_audit_creation_date             2019-02-18
_audit_creation_method
;
Olex2 1.2-ac3
(compiled 2017.02.24 svn.r3390 for Rigaku Oxford Diffraction, GUI svn.r5318)
;
_cell_angle_alpha                68.407(5)
_cell_angle_beta                 68.867(7)
_cell_angle_gamma                62.662(7)
_cell_formula_units_Z            1
_cell_length_a                   6.9970(6)
_cell_length_b                   7.1062(4)
_cell_length_c                   8.7084(5)
_cell_measurement_reflns_used    4295
_cell_measurement_temperature    293(2)
_cell_measurement_theta_max      28.7970
_cell_measurement_theta_min      2.5600
_cell_volume                     347.90(5)
_computing_cell_refinement       'CrysAlisPro 1.171.39.32a (Rigaku OD, 2017)'
_computing_data_collection       'CrysAlisPro 1.171.39.32a (Rigaku OD, 2017)'
_computing_data_reduction        'CrysAlisPro 1.171.39.32a (Rigaku OD, 2017)'
_computing_molecular_graphics    'Olex2 (Dolomanov et al., 2009)'
_computing_publication_material  'Olex2 (Dolomanov et al., 2009)'
_computing_structure_refinement  'ShelXL (Sheldrick, 2015)'
_computing_structure_solution    'ShelXT (Sheldrick, 2015)'
_diffrn_ambient_temperature      293(2)
_diffrn_detector                 'CCD plate'
_diffrn_measured_fraction_theta_full 1.000
_diffrn_measured_fraction_theta_max 1.000
_diffrn_measurement_details
;
List of Runs (angles in degrees, time in seconds):

  # Type    Start    End  Width  t~exp~   \w     \q     \k     \f   Frames
--------------------------------------------------------------------------
  1  \w   -104.00  23.00   1.00    4.00    --  -14.30 -70.00   8.00  127
  2  \w    -52.00  75.00   1.00    4.00    --  -14.30  70.00 140.00  127
  3  \w   -104.00  24.00   1.00    4.00    --  -14.30 -72.00  60.00  128
  4  \w    -48.00  75.00   1.00    4.00    --  -14.30  38.00-120.00  123
  5  \w   -104.00  21.00   1.00    4.00    --  -14.30 -57.00-150.00  125
  6  \w    -50.00  75.00   1.00    4.00    --  -14.30  57.00  60.00  125
  7  \w    -50.00  75.00   1.00    4.00    --  -14.30  57.00   0.00  125
;
_diffrn_measurement_device       'four-circle diffractometer'
_diffrn_measurement_device_type  'XtaLAB AFC12 (RCD3): Kappa single'
_diffrn_measurement_method       '\w scans'
_diffrn_orient_matrix_type
'CrysAlisPro convention (1999,Acta A55,543-557)'
_diffrn_orient_matrix_UB_11      -0.0657436000
_diffrn_orient_matrix_UB_12      -0.0643514000
_diffrn_orient_matrix_UB_13      0.0350680000
_diffrn_orient_matrix_UB_21      0.0971564000
_diffrn_orient_matrix_UB_22      -0.0962778000
_diffrn_orient_matrix_UB_23      -0.0004902000
_diffrn_orient_matrix_UB_31      -0.0011647000
_diffrn_orient_matrix_UB_32      -0.0040997000
_diffrn_orient_matrix_UB_33      0.0829417000
_diffrn_radiation_monochromator  graphite
_diffrn_radiation_probe          x-ray
_diffrn_radiation_type           MoK\a
_diffrn_radiation_wavelength     0.71073
_diffrn_reflns_av_R_equivalents  0.0418
_diffrn_reflns_av_unetI/netI     0.0292
_diffrn_reflns_Laue_measured_fraction_full 1.000
_diffrn_reflns_Laue_measured_fraction_max 1.000
_diffrn_reflns_limit_h_max       8
_diffrn_reflns_limit_h_min       -8
_diffrn_reflns_limit_k_max       8
_diffrn_reflns_limit_k_min       -8
_diffrn_reflns_limit_l_max       10
_diffrn_reflns_limit_l_min       -10
_diffrn_reflns_number            6510
_diffrn_reflns_point_group_measured_fraction_full 1.000
_diffrn_reflns_point_group_measured_fraction_max 1.000
_diffrn_reflns_theta_full        24.998
_diffrn_reflns_theta_max         24.998
_diffrn_reflns_theta_min         2.586
_diffrn_source                   'fine-focus sealed X-ray tube'
_diffrn_source_type              'Enhance (Mo) X-ray Source'
_exptl_absorpt_coefficient_mu    2.770
_exptl_absorpt_correction_T_max  1.00000
_exptl_absorpt_correction_T_min  0.88139
_exptl_absorpt_correction_type   multi-scan
_exptl_absorpt_process_details
;
CrysAlisPro 1.171.39.32a (Rigaku Oxford Diffraction, 2017)
Empirical absorption correction using spherical harmonics,
 implemented in SCALE3 ABSPACK scaling algorithm.
;
_exptl_crystal_density_diffrn    2.094
_exptl_crystal_F_000             222
_refine_diff_density_max         0.708
_refine_diff_density_min         -0.747
_refine_diff_density_rms         0.078
_refine_ls_extinction_method     none
_refine_ls_goodness_of_fit_ref   1.092
_refine_ls_hydrogen_treatment    constr
_refine_ls_matrix_type           full
_refine_ls_number_parameters     110
_refine_ls_number_reflns         1231
_refine_ls_number_restraints     0
_refine_ls_restrained_S_all      1.092
_refine_ls_R_factor_all          0.0306
_refine_ls_R_factor_gt           0.0300
_refine_ls_shift/su_max          0.017
_refine_ls_shift/su_mean         0.000
_refine_ls_structure_factor_coef Fsqd
_refine_ls_weighting_details
'w=1/[\s^2^(Fo^2^)+(0.0280P)^2^+0.6010P] where P=(Fo^2^+2Fc^2^)/3'
_refine_ls_weighting_scheme      calc
_refine_ls_wR_factor_gt          0.0734
_refine_ls_wR_factor_ref         0.0739
_reflns_Friedel_coverage         0.000
_reflns_number_gt                1203
_reflns_number_total             1231
_reflns_threshold_expression     'I > 2\s(I)'
_iucr_refine_instructions_details
;
TITL t-pradeep-abhijit_a.res in P-1
    t-pradeep-abhijit.res
    created by SHELXL-2017/1 at 10:43:55 on 18-Feb-2019
REM Old TITL T-PRADEEP-ABHIJIT in P-1
REM SHELXT solution in P-1
REM R1 0.086, Rweak 0.019, Alpha 0.068, Orientation as input
REM Formula found by SHELXT: C14 O8 Co
CELL 0.71073 6.996965 7.106159 8.708425 68.4069 68.867 62.6621
ZERR 1 0.000611 0.000424 0.000485 0.0054 0.0065 0.0073
LATT 1
SFAC C H Co N O Cu
UNIT 12 16 1 2 8 1

L.S. 10
PLAN  20
BOND $H
list 4
fmap 2
acta
OMIT -3 50
REM <olex2.extras>
REM <HklSrc "%.\\T-PRADEEP-ABHIJIT.hkl">
REM </olex2.extras>

WGHT    0.028000    0.601000
FVAR       9.47344
CU01  6    0.500000    0.500000    1.000000    10.50000    0.01137    0.01232 =
         0.00724   -0.00142   -0.00173   -0.00369
O002  5    0.673577    0.898417    0.170797    11.00000    0.01611    0.01218 =
         0.00667    0.00015   -0.00310   -0.00548
AFIX   6
O003  5    0.701587    0.736641    0.911928    11.00000    0.01419    0.01471 =
         0.00941   -0.00228   -0.00410   -0.00510
H00F  2    0.708365    0.758809    0.999136    11.00000   -1.50000
H00G  2    0.608625    0.850714    0.862766    11.00000   -1.50000
AFIX   0

O004  5    0.911632    0.748989    0.338699    11.00000    0.01007    0.02178 =
         0.00993   -0.00116   -0.00102   -0.00597
O005  5    0.763950    0.245139    0.928158    11.00000    0.01413    0.01256 =
         0.01198    0.00100    0.00124   -0.00476
AFIX   7
H00A  2    0.766482    0.128387    1.006103    11.00000   -1.50000
H00B  2    0.882014    0.265841    0.910313    11.00000   -1.50000
AFIX   0
N006  4    0.439140    0.620245    0.767066    11.00000    0.01021    0.00936 =
         0.01053   -0.00239   -0.00097   -0.00420
C007  1    0.547959    0.754103    0.465091    11.00000    0.01283    0.00730 =
         0.01022   -0.00198   -0.00226   -0.00326
C008  1    0.590932    0.663018    0.627341    11.00000    0.00959    0.00954 =
         0.01386   -0.00469   -0.00113   -0.00314
AFIX  43
H008  2    0.730663    0.630892    0.638545    11.00000   -1.20000
AFIX   0
C009  1    0.726805    0.803376    0.313439    11.00000    0.01340    0.00606 =
         0.01087   -0.00219   -0.00283   -0.00167
C00A  1    0.340197    0.793565    0.449473    11.00000    0.01618    0.00866 =
         0.01056   -0.00047   -0.00567   -0.00421
AFIX  43
H00C  2    0.307083    0.851001    0.343307    11.00000   -1.20000
AFIX   0
C00B  1    0.183507    0.746341    0.593743    11.00000    0.01032    0.01051 =
         0.01630   -0.00249   -0.00504   -0.00338
AFIX  43
H00D  2    0.044943    0.769867    0.585605    11.00000   -1.20000
AFIX   0
C00C  1    0.237625    0.663337    0.750369    11.00000    0.01056    0.00968 =
         0.01299   -0.00256   -0.00002   -0.00358
AFIX  43
H00E  2    0.131026    0.636411    0.847439    11.00000   -1.20000
AFIX   0
HKLF 4




REM  t-pradeep-abhijit_a.res in P-1
REM R1 =  0.0300 for    1203 Fo > 4sig(Fo)  and  0.0306 for all    1231 data
REM    110 parameters refined using      0 restraints

END  
     
WGHT      0.0263      0.5215 

REM Highest difference peak  0.708,  deepest hole -0.747,  1-sigma level  0.078
Q1    1   0.8586  0.2615  0.8269  11.00000  0.05    0.71
Q2    1   0.6115  0.9354  0.0844  11.00000  0.05    0.41
Q3    1   0.2604  0.9382  0.2053  11.00000  0.05    0.34
Q4    1   0.8582  0.4961  0.8816  11.00000  0.05    0.32
Q5    1   0.4401  0.6013  0.8433  11.00000  0.05    0.28
Q6    1   0.2903  0.5554  0.9903  11.00000  0.05    0.28
Q7    1   0.6138  0.7772  0.3957  11.00000  0.05    0.27
Q8    1   0.4720  0.7495  0.4617  11.00000  0.05    0.26
Q9    1   0.7867  0.2448  0.9633  11.00000  0.05    0.26
Q10   1   0.3288  0.4640  1.1406  11.00000  0.05    0.25
Q11   1   0.8596  0.8025  0.3429  11.00000  0.05    0.24
Q12   1   0.9877  0.7328  0.2576  11.00000  0.05    0.24
Q13   1   0.8203  0.5195  0.6188  11.00000  0.05    0.22
Q14   1   0.8249  0.5773  0.7241  11.00000  0.05    0.22
Q15   1   0.3805  0.5984  0.7602  11.00000  0.05    0.22
Q16   1   0.9535 -0.0535  0.9614  11.00000  0.05    0.22
Q17   1   0.6510  0.3071  0.9029  11.00000  0.05    0.21
Q18   1   0.7177  0.1887  0.9463  11.00000  0.05    0.21
Q19   1   0.5873  1.0370  0.9207  11.00000  0.05    0.21
Q20   1   0.1987  0.7507  0.6797  11.00000  0.05    0.21

  REM The information below was added by Olex2.
  REM
  REM R1 = 0.0300 for 1203 Fo > 4sig(Fo) and 0.0306 for all 7634 data
  REM n/a parameters refined using n/a restraints
  REM Highest difference peak 0.71, deepest hole -0.75
  REM Mean Shift 0, Max Shift 0.017.

  REM +++ Tabular Listing of Refinement Information +++
  REM R1_all = 0.0306
  REM R1_gt = 0.0300
  REM wR_ref = 0.0739
  REM GOOF = 1.092
  REM Shift_max = 0.017
  REM Shift_mean = 0
  REM Reflections_all = 7634
  REM Reflections_gt = 1203
  REM Parameters = n/a
  REM Hole = -0.75
  REM Peak = 0.71
  REM Flack = n/a

  
;
_cod_data_source_file            sc0c07409_si_003.cif
_cod_data_source_block           t-pradeep-abhijit
_cod_database_code               4518428
_shelx_shelxl_version_number     2017/1
_chemical_oxdiff_formula         CoCOF
_shelx_space_group_comment
;
The symmetry employed for this shelxl refinement is uniquely defined
by the following loop, which should always be used as a source of
symmetry information in preference to the above space-group names.
They are only intended as comments.
;
_reflns_odcompleteness_completeness 100.00
_reflns_odcompleteness_iscentric 1
_reflns_odcompleteness_theta     26.32
_olex2_refinement_description
;
1. Fixed Uiso
 At 1.2 times of:
  All C(H) groups
 At 1.5 times of:
  All O(H,H) groups
2.a Free rotating group:
 O003(H00F,H00G)
2.b Rotating group:
 O005(H00A,H00B)
2.c Aromatic/amide H refined with riding coordinates:
 C008(H008), C00A(H00C), C00B(H00D), C00C(H00E)
;
_olex2_submission_special_instructions 'No special instructions were received'
_oxdiff_exptl_absorpt_empirical_details
;
Empirical correction (ABSPACK) includes:
- Absorption correction using spherical harmonics
- Frame scaling
;
_oxdiff_exptl_absorpt_empirical_full_max 2.045
_oxdiff_exptl_absorpt_empirical_full_min 0.535
loop_
_space_group_symop_operation_xyz
'x, y, z'
'-x, -y, -z'
loop_
_atom_site_label
_atom_site_type_symbol
_atom_site_fract_x
_atom_site_fract_y
_atom_site_fract_z
_atom_site_U_iso_or_equiv
_atom_site_adp_type
_atom_site_occupancy
_atom_site_site_symmetry_order
_atom_site_calc_flag
_atom_site_refinement_flags_posn
_atom_site_refinement_flags_adp
_atom_site_refinement_flags_occupancy
_atom_site_disorder_assembly
_atom_site_disorder_group
Cu01 Cu 0.500000 0.500000 1.000000 0.01107(16) Uani 1 2 d S T P . .
O002 O 0.6736(3) 0.8984(3) 0.1708(2) 0.0122(4) Uani 1 1 d . . . . .
O003 O 0.7016(3) 0.7366(3) 0.9119(2) 0.0127(4) Uani 1 1 d . . . . .
H00F H 0.708365 0.758809 0.999136 0.019 Uiso 1 1 d G . . . .
H00G H 0.608625 0.850714 0.862766 0.019 Uiso 1 1 d G . . . .
O004 O 0.9116(3) 0.7490(3) 0.3387(2) 0.0152(4) Uani 1 1 d . . . . .
O005 O 0.7640(3) 0.2451(3) 0.9282(2) 0.0156(4) Uani 1 1 d . . . . .
H00A H 0.766482 0.128387 1.006103 0.023 Uiso 1 1 d GR . . . .
H00B H 0.882014 0.265841 0.910313 0.023 Uiso 1 1 d GR . . . .
N006 N 0.4391(3) 0.6202(3) 0.7671(3) 0.0103(4) Uani 1 1 d . . . . .
C007 C 0.5480(4) 0.7541(4) 0.4651(3) 0.0105(5) Uani 1 1 d . . . . .
C008 C 0.5909(4) 0.6630(4) 0.6273(3) 0.0111(5) Uani 1 1 d . . . . .
H008 H 0.730663 0.630892 0.638545 0.013 Uiso 1 1 calc R . . . .
C009 C 0.7268(4) 0.8034(4) 0.3134(3) 0.0109(5) Uani 1 1 d . . . . .
C00A C 0.3402(4) 0.7936(4) 0.4495(3) 0.0118(5) Uani 1 1 d . . . . .
H00C H 0.307083 0.851001 0.343307 0.014 Uiso 1 1 calc R . . . .
C00B C 0.1835(4) 0.7463(4) 0.5937(3) 0.0122(5) Uani 1 1 d . . . . .
H00D H 0.044943 0.769867 0.585605 0.015 Uiso 1 1 calc R . . . .
C00C C 0.2376(4) 0.6633(4) 0.7504(3) 0.0121(5) Uani 1 1 d . . . . .
H00E H 0.131026 0.636411 0.847439 0.014 Uiso 1 1 calc R . . . .
loop_
_atom_site_aniso_label
_atom_site_aniso_U_11
_atom_site_aniso_U_22
_atom_site_aniso_U_33
_atom_site_aniso_U_23
_atom_site_aniso_U_13
_atom_site_aniso_U_12
Cu01 0.0114(3) 0.0123(2) 0.0072(2) -0.00142(16) -0.00173(17) -0.00369(18)
O002 0.0161(9) 0.0122(8) 0.0067(8) 0.0001(7) -0.0031(7) -0.0055(7)
O003 0.0142(9) 0.0147(9) 0.0094(9) -0.0023(7) -0.0041(7) -0.0051(7)
O004 0.0101(9) 0.0218(9) 0.0099(9) -0.0012(7) -0.0010(7) -0.0060(7)
O005 0.0141(9) 0.0126(9) 0.0120(9) 0.0010(7) 0.0012(7) -0.0048(7)
N006 0.0102(10) 0.0094(10) 0.0105(10) -0.0024(8) -0.0010(9) -0.0042(8)
C007 0.0128(13) 0.0073(11) 0.0102(12) -0.0020(9) -0.0023(10) -0.0033(10)
C008 0.0096(12) 0.0095(11) 0.0139(13) -0.0047(10) -0.0011(10) -0.0031(10)
C009 0.0134(13) 0.0061(11) 0.0109(13) -0.0022(9) -0.0028(10) -0.0017(10)
C00A 0.0162(13) 0.0087(11) 0.0106(12) -0.0005(9) -0.0057(10) -0.0042(10)
C00B 0.0103(12) 0.0105(11) 0.0163(13) -0.0025(10) -0.0050(11) -0.0034(10)
C00C 0.0106(12) 0.0097(11) 0.0130(13) -0.0026(10) 0.0000(10) -0.0036(10)
loop_
_atom_type_symbol
_atom_type_description
_atom_type_scat_dispersion_real
_atom_type_scat_dispersion_imag
_atom_type_scat_source
C C 0.0033 0.0016 'International Tables Vol C Tables 4.2.6.8 and 6.1.1.4'
H H 0.0000 0.0000 'International Tables Vol C Tables 4.2.6.8 and 6.1.1.4'
Co Co 0.3494 0.9721 'International Tables Vol C Tables 4.2.6.8 and 6.1.1.4'
N N 0.0061 0.0033 'International Tables Vol C Tables 4.2.6.8 and 6.1.1.4'
O O 0.0106 0.0060 'International Tables Vol C Tables 4.2.6.8 and 6.1.1.4'
Cu Cu 0.3201 1.2651 'International Tables Vol C Tables 4.2.6.8 and 6.1.1.4'
loop_
_geom_angle_atom_site_label_1
_geom_angle_atom_site_label_2
_geom_angle_atom_site_label_3
_geom_angle
_geom_angle_site_symmetry_1
_geom_angle_site_symmetry_3
_geom_angle_publ_flag
O003 Cu01 O003 180.0 2_667 . ?
O005 Cu01 O003 85.12(7) 2_667 . ?
O005 Cu01 O003 85.12(7) . 2_667 ?
O005 Cu01 O003 94.88(7) . . ?
O005 Cu01 O003 94.88(7) 2_667 2_667 ?
O005 Cu01 O005 180.0 . 2_667 ?
O005 Cu01 N006 91.21(8) 2_667 2_667 ?
O005 Cu01 N006 88.78(8) . 2_667 ?
O005 Cu01 N006 91.22(8) . . ?
O005 Cu01 N006 88.79(8) 2_667 . ?
N006 Cu01 O003 87.57(7) . . ?
N006 Cu01 O003 92.43(7) . 2_667 ?
N006 Cu01 O003 92.43(7) 2_667 . ?
N006 Cu01 O003 87.57(7) 2_667 2_667 ?
N006 Cu01 N006 180.0 . 2_667 ?
Cu01 O003 H00F 109.5 . . ?
Cu01 O003 H00G 97.4 . . ?
H00F O003 H00G 109.5 . . ?
Cu01 O005 H00A 109.8 . . ?
Cu01 O005 H00B 109.6 . . ?
H00A O005 H00B 109.3 . . ?
C008 N006 Cu01 122.18(17) . . ?
C008 N006 C00C 118.6(2) . . ?
C00C N006 Cu01 119.19(16) . . ?
C008 C007 C009 119.6(2) . . ?
C00A C007 C008 118.0(2) . . ?
C00A C007 C009 122.4(2) . . ?
N006 C008 C007 122.7(2) . . ?
N006 C008 H008 118.6 . . ?
C007 C008 H008 118.6 . . ?
O002 C009 C007 116.7(2) . . ?
O004 C009 O002 125.7(2) . . ?
O004 C009 C007 117.7(2) . . ?
C007 C00A H00C 120.3 . . ?
C00B C00A C007 119.5(2) . . ?
C00B C00A H00C 120.3 . . ?
C00A C00B H00D 120.6 . . ?
C00C C00B C00A 118.7(2) . . ?
C00C C00B H00D 120.6 . . ?
N006 C00C C00B 122.5(2) . . ?
N006 C00C H00E 118.8 . . ?
C00B C00C H00E 118.8 . . ?
loop_
_geom_bond_atom_site_label_1
_geom_bond_atom_site_label_2
_geom_bond_distance
_geom_bond_site_symmetry_2
_geom_bond_publ_flag
Cu01 O003 2.4197(17) 2_667 ?
Cu01 O003 2.4197(17) . ?
Cu01 O005 2.0027(17) . ?
Cu01 O005 2.0028(17) 2_667 ?
Cu01 N006 2.010(2) . ?
Cu01 N006 2.010(2) 2_667 ?
O002 C009 1.274(3) . ?
O003 H00F 0.8513 . ?
O003 H00G 0.8512 . ?
O004 C009 1.246(3) . ?
O005 H00A 0.8544 . ?
O005 H00B 0.8547 . ?
N006 C008 1.339(3) . ?
N006 C00C 1.350(3) . ?
C007 C008 1.400(3) . ?
C007 C009 1.518(3) . ?
C007 C00A 1.397(4) . ?
C008 H008 0.9300 . ?
C00A H00C 0.9300 . ?
C00A C00B 1.388(4) . ?
C00B H00D 0.9300 . ?
C00B C00C 1.388(4) . ?
C00C H00E 0.9300 . ?
loop_
_refln_index_h
_refln_index_k
_refln_index_l
_refln_F_squared_meas
_refln_F_squared_sigma
_refln_scale_group_code
0 -1 -1 34843.5 1536.86 4
0 -1 -1 38229.5 1810.07 7
0 1 1 33512.1 1573.82 5
0 -1 -1 35155.9 1581.96 5
0 1 1 33181.6 1531.14 4
0 -1 -1 33027 1528.48 3
0 1 1 36829.9 1564.55 3
0 -2 -2 1429.69 338.621 7
0 2 2 2402.97 274.63 3
0 2 2 2097.45 237.538 4
0 2 2 1342.21 220.439 5
0 -2 -2 1264.03 224.477 5
0 -2 -2 1999.46 226.981 4
0 -2 -2 2254.28 233.561 3
0 -3 -3 14810.6 1096.87 5
0 3 3 15246.5 997.631 4
0 -3 -3 16394.3 964.99 3
0 3 3 17305.9 1102.67 3
0 -3 -3 16060.7 1008.13 4
0 3 3 16115.3 1103.99 5
0 -3 -3 15204.3 1459.08 7
0 -4 -4 109.309 50.9492 3
0 -4 -4 -61.3362 77.1616 5
0 4 4 191.067 106.28 4
0 -5 -5 16595.2 1454.69 5
0 5 5 15111.9 1203.65 4
0 -5 -5 16206.9 1240.87 6
0 -6 -6 1746.93 405.416 6
0 -6 -6 921.949 336.968 5
0 6 6 1487.15 374.115 4
0 -7 -7 16401.9 1450.45 6
0 7 7 12918 1338.4 4
0 7 6 8425.95 1029.85 4
0 -7 -6 9005.68 1030.53 6
0 -7 -6 9846.52 1307.31 5
0 6 5 24199 1766.53 4
0 -6 -5 23888.4 1705.39 6
0 -6 -5 24654.2 1976.29 5
0 5 4 1249.81 301.064 4
0 5 4 1501.28 397.78 3
0 -5 -4 2568.97 420.042 6
0 -5 -4 2581.39 484.807 5
0 -4 -3 39477.2 2045.43 3
0 -4 -3 41781.8 2136.3 6
0 -4 -3 38426.3 2279.49 5
0 4 3 38345.1 2151.41 4
0 4 3 40167.2 2265.36 3
0 -3 -2 20240.2 1142.03 3
0 3 2 19275 1188.62 4
0 -3 -2 18155.2 1133.34 6
0 3 2 21149.3 1256.8 5
0 3 2 20378.7 886.499 1
0 -3 -2 21662.7 1644.49 7
0 -3 -2 20460.5 1278.64 5
0 3 2 22470.4 1258.15 3
0 -3 -2 18835.2 1174.97 4
0 -2 -1 633790 24764.6 1
0 -2 -1 624861 24942.4 3
0 2 1 609825 24761.4 1
0 -2 -1 593969 25023.2 5
0 2 1 633633 24838.4 2
0 2 1 607367 25005.9 5
0 2 1 612442 24975.4 4
0 -2 -1 604085 24936 6
0 2 1 585474 24963.9 3
0 -2 -1 591793 24964.6 4
0 1 0 74497.5 3162.1 5
0 1 0 72174.3 3088.45 1
0 -1 0 73109.1 3147.26 4
0 1 0 69373.2 3139 3
0 1 0 74873.6 3140.53 6
0 -1 0 73076.4 3141.23 3
0 -1 0 77421.1 3177.83 5
0 1 0 81005.2 3186.08 2
0 -1 0 73305.7 3089.98 1
0 -1 0 74548.5 3148.4 6
0 1 0 76206.5 3152.22 4
0 0 1 22640.8 357.554 3
0 0 1 24363.1 735.117 7
0 0 -1 23919.4 711.765 7
0 0 -1 22528 644.656 6
0 0 -1 24040.4 594.723 2
0 0 1 22881.5 424.578 1
0 0 1 24667.2 697.786 6
0 1 2 60884.9 2652.84 5
0 1 2 58193.4 2528.47 4
0 -1 -2 58013.2 2479.95 1
0 -1 -2 57899.1 2524.51 4
0 -1 -2 61836.7 2585.84 2
0 1 2 56742.4 2941.47 7
0 1 2 60343.1 2488.03 1
0 -1 -2 57420.3 2650.25 5
0 -1 -2 58911 2992.78 7
0 -1 -2 63516.6 2913.33 6
0 2 3 165.759 65.9228 4
0 -2 -3 165.359 45.1837 2
0 2 3 252.453 128.554 7
0 -2 -3 247.605 78.1735 4
0 -2 -3 188.571 101.546 5
0 -2 -3 155.361 77.479 3
0 -2 -3 263.496 41.4666 1
0 -2 -3 291.669 176.042 7
0 2 3 32.2608 72.2623 5
0 3 4 64566.1 3093.79 4
0 -3 -4 63695.1 3062.47 4
0 -3 -4 70333 3072.06 3
0 -3 -4 63900.7 3291.37 5
0 4 5 1407.63 291.755 4
0 -4 -5 1541.2 369.934 5
0 -4 -5 1690.7 263.538 3
0 5 6 10991 959.831 4
0 -5 -6 10080.7 1113.47 5
0 -6 -7 24017.3 1730.26 6
0 -6 -7 21184 1945.92 5
0 6 7 22013.9 1667.14 4
0 -7 -8 2753.32 585.71 6
0 -8 -6 2331 526.173 6
0 7 5 4026.4 697.703 4
0 -7 -5 4373.67 812.384 5
0 -7 -5 5000.74 725.389 6
0 -6 -4 36266.5 2287.43 6
0 -6 -4 37609.3 2594.16 5
0 6 4 39639.8 2594.1 3
0 6 4 39448.1 2410.96 4
0 5 3 14016.2 1235.17 3
0 -5 -3 14180.7 1240.16 5
0 5 3 14116.6 1145.77 4
0 -5 -3 14016.3 1093.84 6
0 -4 -2 238676 10245.1 3
0 -4 -2 237112 10498.5 5
0 4 2 240419 10422.6 3
0 4 2 236200 9974.66 2
0 -4 -2 243273 10310.5 6
0 4 2 240605 10373.2 4
0 4 2 244641 9909.09 1
0 3 1 71492.6 3391.34 5
0 3 1 71822.6 3113.72 1
0 3 1 70438.4 3370.14 3
0 -3 -1 71221.7 3324 6
0 -3 -1 70380.6 3296.18 3
0 -3 -1 73569.6 3369.26 4
0 3 1 71645.2 3368.23 4
0 -3 -1 75984.1 3124.58 1
0 -3 -1 72565.1 3451.4 5
0 3 1 71857.9 3239.52 2
0 -2 0 229546 9593.14 3
0 2 0 229385 9493.7 1
0 2 0 224381 9612.02 3
0 -2 0 230493 9500.71 1
0 2 0 246070 9655.07 5
0 -2 0 237859 9620.59 4
0 2 0 205086 9624.85 2
0 -2 0 229207 9666.5 5
0 2 0 233112 9597.08 6
0 -2 0 230005 9615.02 6
0 2 0 236331 9618.23 4
0 1 -1 55107.6 2354.81 7
0 -1 1 54385.2 2371.06 7
0 -1 1 55146.4 2342.59 1
0 -1 1 52822 2338.55 3
0 1 -1 49515 2325.06 1
0 1 -1 51664.4 2396.24 6
0 1 -1 57914.3 2410.49 5
0 -1 1 50246.4 2417.14 6
0 1 -1 51548.8 2477.62 2
0 -1 1 53259.7 2444.86 5
0 1 -1 54180.1 2311 4
0 1 -1 52554.2 2344.1 3
0 0 2 40287.6 2041 6
0 0 -2 43101.4 2027.91 6
0 0 -2 40593.5 1940.47 2
0 0 2 37364.2 2044.58 7
0 0 2 39697.4 1778.82 1
0 0 2 38177.7 1724.63 3
0 0 -2 39062.8 1769.59 1
0 0 -2 39193.6 2056.34 7
0 0 -2 39531.9 1728.9 3
0 -1 -3 48496.1 2514.41 2
0 1 3 51756.6 2317.95 4
0 -1 -3 52200.7 2359.55 1
0 -1 -3 56485.6 2334.95 3
0 -1 -3 56046.2 3009.82 7
0 1 3 49700.9 2894.66 7
0 -1 -3 56409.4 2318.1 4
0 -1 -3 55031.2 2535.31 5
0 -1 -3 58631.4 2884.91 6
0 1 3 54871.1 2381.56 1
0 -2 -4 53383.5 3251.1 7
0 2 4 46153.3 3023.07 7
0 -2 -4 57471 2434.19 2
0 -2 -4 53075.4 2482.88 3
0 -2 -4 46792.2 2924.98 6
0 -2 -4 52161.5 2254.82 1
0 -2 -4 52953.3 2597.2 5
0 2 4 48939.9 2351.14 4
0 -2 -4 48647.2 2331.14 4
0 -3 -5 38990.2 1712.22 2
0 -3 -5 37059.7 1662.48 1
0 3 5 36442.1 1921.47 4
0 3 5 35963.4 2705.73 7
0 -3 -5 37539.2 2188.11 5
0 -3 -5 38824.9 1954.43 3
0 4 6 9592.32 808.611 4
0 -4 -6 9846.29 996.397 5
0 -4 -6 9732.33 755.592 3
0 -5 -7 2875.84 596.382 5
0 5 7 3581.25 541.683 4
0 -6 -8 20170.2 1900.65 5
0 -8 -5 1813.21 524.12 6
0 7 4 11984 1210.39 4
0 7 4 9346.13 1283.09 3
0 -7 -4 9262.83 1204.38 5
0 -7 -4 10319 1096.66 6
0 6 3 52373.3 2978.87 4
0 -6 -3 50966.9 3163.9 5
0 -6 -3 53555 2912.16 6
0 6 3 45229.5 3033.83 3
0 5 2 31035.8 1899.26 4
0 5 2 29329.1 1440.7 1
0 5 2 28595.6 1929.71 3
0 5 2 30422.7 1536.2 2
0 -5 -2 27174.6 1950.29 5
0 -5 -2 30491.8 1828.63 6
0 -4 -1 1528.5 313.935 5
0 4 1 994.555 240.225 5
0 -4 -1 1428.21 277.356 6
0 4 1 1083.82 227.674 2
0 -4 -1 1246.56 239.946 3
0 4 1 982.948 255.632 4
0 4 1 1446.45 195.498 1
0 4 1 1096.48 260.191 3
0 3 0 24869.2 1354.73 6
0 -3 0 24450.6 1232.78 1
0 3 0 28110.8 1468.65 2
0 3 0 22482.5 1212.71 1
0 3 0 22544.5 1368.41 3
0 -3 0 25189.7 1454.66 5
0 -3 0 22771.9 1320.18 3
0 -3 0 23305.7 1375.51 6
0 -3 0 23583.2 1353.34 4
0 3 0 22886.4 1352.08 4
0 3 0 25524 1406.91 5
0 -2 1 2056.93 233.275 1
0 -2 1 1627.54 235.707 7
0 2 -1 2330.74 330.4 2
0 -2 1 1784.44 283.998 6
0 2 -1 2538.12 287.916 5
0 2 -1 2214.46 249.101 4
0 2 -1 1371.67 204.634 6
0 2 -1 1598.01 235.339 3
0 -2 1 1491.62 216.653 3
0 -2 1 1637.31 253.586 5
0 2 -1 2155.59 237.472 1
0 1 -2 10638.6 763.292 5
0 -1 2 10279.4 740.557 7
0 1 -2 10051.7 563.414 4
0 -1 2 10053.6 617.591 3
0 1 -2 9818.19 673.923 7
0 -1 2 11330.9 662.472 1
0 -1 2 10731.4 782.626 6
0 1 -2 10831.3 636.935 3
0 1 -2 9726.57 723.977 6
0 1 -2 10656.6 652.477 1
0 1 -2 8922.72 760.873 2
0 0 3 62054.5 3181.76 6
0 0 3 60165.1 2710.67 3
0 0 -3 64028.5 2793.53 1
0 0 3 60692.5 2784.77 1
0 0 -3 67428.8 3224.65 7
0 0 -3 63465.9 3130.12 6
0 0 3 61817.1 3249.88 7
0 0 -3 63376.6 3035.78 2
0 0 -3 61921.7 2725.46 3
0 -1 -4 40172 2604.03 7
0 -1 -4 40754.5 1874.74 3
0 -1 -4 41951.9 1788.69 4
0 1 4 40024.5 1946.66 1
0 1 4 39891.8 2465.26 6
0 1 4 40330.7 2580.69 7
0 -1 -4 43313.4 2533.44 6
0 1 4 41525.6 1791.63 4
0 -1 -4 40859.4 1933.33 1
0 -1 -4 41748.8 2099.24 5
0 -1 -4 45206.3 2223.69 2
0 -2 -5 96556.9 5133.17 6
0 2 5 90302.6 5255.93 7
0 -2 -5 97038.3 4285.97 1
0 2 5 97257.8 4284.47 4
0 -2 -5 100995 4261.91 3
0 -2 -5 107072 4558.58 2
0 -2 -5 102108 4669.15 5
0 -3 -6 47264.7 2610.78 5
0 -3 -6 44695.8 2040.91 1
0 3 6 43108.1 2193.3 4
0 -3 -6 45583.1 2166.44 2
0 -3 -6 44398.8 2288.64 3
0 3 6 37664.7 3060.3 7
0 4 7 8104.14 716.989 4
0 -4 -7 7238.06 903.099 5
0 -5 -8 38557.8 2719.77 5
0 -8 -4 3782.71 688.68 6
0 8 4 3882.33 886.023 3
0 -7 -3 9686.5 1081.72 6
0 7 3 8209.41 1009.86 4
0 -7 -3 10966.4 1315.18 5
0 7 3 8998.68 1193.68 3
0 6 2 -14.4298 78.7574 4
0 -6 -2 379.666 265.788 5
0 6 2 223.472 133.363 1
0 -6 -2 82.1037 122.488 6
0 6 2 -36.2759 122.646 3
0 5 1 10820.8 964.944 4
0 -5 -1 11013.5 980.883 6
0 5 1 10768.2 731.636 1
0 5 1 10288.8 987.737 3
0 5 1 8285.18 808.859 2
0 -5 -1 12682.3 1125.61 5
0 4 0 89767.3 4066.21 1
0 -4 0 89731.8 4074.8 1
0 4 0 88777.6 4302.73 4
0 -4 0 93605.7 4459.8 5
0 4 0 101992 4422.76 2
0 4 0 89187.5 4353.44 3
0 4 0 89509.8 4301.45 5
0 -4 0 92396.2 4360.16 6
0 3 -1 7466.14 653.86 6
0 3 -1 8989.41 636.669 1
0 3 -1 8395.34 704.813 3
0 3 -1 9206.76 863.546 2
0 -3 1 8672.86 641.641 1
0 -3 1 9209.64 730.929 7
0 3 -1 8975.46 695.032 4
0 -3 1 8192.98 746.72 5
0 -3 1 9759.11 782.299 6
0 3 -1 9451.82 734.304 5
0 -3 1 8554.07 677.394 3
0 -2 2 2631.61 315.384 3
0 2 -2 3883.85 496.102 2
0 2 -2 2895.84 319.826 4
0 2 -2 2952.21 344.831 3
0 2 -2 3609.26 359.556 7
0 -2 2 3324.9 361.477 1
0 2 -2 3278.11 388.537 5
0 -2 2 3259.1 436.686 5
0 2 -2 2653.13 319.147 1
0 2 -2 3306.03 390.743 6
0 -2 2 2491.02 377.084 6
0 -2 2 3340.95 379.944 7
0 -1 3 113350 4855.65 3
0 1 -3 118306 5272.82 5
0 1 -3 117661 4895.37 3
0 -1 3 111300 5252.59 7
0 -1 3 107938 5251.2 6
0 1 -3 108841 5116.58 6
0 -1 3 106603 4951.26 1
0 1 -3 113197 4919.58 1
0 1 -3 116863 5053.52 7
0 1 -3 117030 4725.74 4
0 0 4 8661.72 909.287 6
0 0 4 7746.76 912.798 7
0 0 4 8305.59 621.931 1
0 0 -4 8515 848.417 6
0 0 -4 7952.83 880.641 7
0 0 4 8618.64 556.636 3
0 0 -4 8606.9 569.916 3
0 0 -4 8035.4 604.737 1
0 0 -4 8622.98 812.933 2
0 -1 -5 58601.2 2786.71 1
0 -1 -5 58865.4 3060.29 2
0 -1 -5 61231.8 3655.78 7
0 1 5 52751.7 3498.21 7
0 1 5 57819.1 3443.16 6
0 -1 -5 60543.3 2700.01 3
0 -1 -5 63771.6 3504.78 6
0 1 5 63770.8 2829.97 1
0 -1 -5 60251.7 2960.78 5
0 -2 -6 76293.1 3857.54 5
0 2 6 74542.6 4605.11 7
0 -2 -6 74759.1 3507.58 1
0 -2 -6 78241.3 3813.07 2
0 -2 -6 77966.2 3437.3 3
0 2 6 80733.5 3385.74 4
0 3 7 79156 3551.46 4
0 -3 -7 81372.7 3491.36 3
0 -3 -7 72788.1 4041.3 5
0 3 7 78873.3 4986.94 7
0 -3 -7 76189.8 3507.43 1
0 -4 -8 1977.19 519.54 5
0 -5 -9 5346.89 912.859 5
0 -8 -3 1190.85 685.265 5
0 -8 -3 322.901 270.561 6
0 8 3 537.001 350.238 3
0 -7 -2 4366.74 861.028 5
0 7 2 5895.25 834.433 4
0 -7 -2 5063.49 772.268 6
0 7 2 5040.97 834.328 3
0 6 1 3712.56 593.497 4
0 -6 -1 4351.91 677.106 6
0 6 1 3881.13 430.474 1
0 6 1 2991.64 569.797 3
0 -6 -1 3909.28 704.136 5
0 5 0 14137.4 942.06 1
0 5 0 11511.6 1096.44 2
0 5 0 13295.9 1112.47 4
0 -5 0 14681.8 1261.84 5
0 -5 0 13204.9 1162.04 6
0 5 0 13386.6 1167.15 3
0 4 -1 42282.5 2272.76 5
0 -4 1 41192.9 2379.89 6
0 4 -1 41848.8 2311.47 3
0 4 -1 41182.2 2247.52 4
0 -4 1 43179.7 2314.65 7
0 4 -1 34908.4 2311.34 2
0 -4 1 41037.7 2106.84 1
0 4 -1 41554.5 2122.28 1
0 -4 1 41462.8 2419.19 5
0 3 -2 136953 6010.08 3
0 -3 2 140870 6263.83 5
0 -3 2 124078 5928.69 1
0 3 -2 140180 5931.13 1
0 3 -2 141444 5928.69 4
0 -3 2 136135 6025.64 7
0 -3 2 136152 6211.33 6
0 3 -2 138188 6012.05 5
0 2 -3 14457.6 1036.98 5
0 -2 3 12358.4 945.943 1
0 -2 3 15477.5 1191.75 6
0 2 -3 12592.1 939.851 1
0 2 -3 13740.6 1038.31 6
0 -2 3 14754.2 1098.92 7
0 -2 3 15178.5 945.561 3
0 2 -3 14253.2 951.058 3
0 -2 3 13241.8 1163.51 5
0 2 -3 14222.1 858.539 4
0 2 -3 15254.4 980.044 7
0 2 -3 15364.7 1283.5 2
0 1 -4 90093.2 4355.71 2
0 1 -4 87097.3 3849.62 3
0 1 -4 85879.6 4177.84 6
0 -1 4 86786.1 4427.79 6
0 -1 4 82966.5 4405.69 7
0 1 -4 90264.6 4138.03 7
0 1 -4 83469.8 4315.86 5
0 -1 4 84182.5 3906.87 1
0 -1 4 80884.3 3786.02 3
0 1 -4 84524.3 3611.43 4
0 1 -4 84845.6 3900.75 1
0 0 -5 19058.1 1075.98 3
0 0 5 17958.8 1151.71 1
0 0 -5 20427.4 1542.66 6
0 0 -5 19516.2 1164.11 1
0 0 5 20072.1 1658.46 6
0 0 5 18579.7 1051.83 3
0 0 5 18868.3 1684.91 7
0 0 -5 19379.8 1549.78 7
0 0 -5 16212.4 1369.76 2
0 -1 -6 26613.8 1734.38 2
0 -1 -6 26085.3 1322.35 3
0 1 6 24405.7 1420.88 1
0 1 6 22633.5 1966.49 6
0 -1 -6 23315.2 1385.5 1
0 -1 -6 24936 1554.07 5
0 1 6 21903.7 2042.37 7
0 2 7 40179.2 3213.59 7
0 -2 -7 43690 2586.37 5
0 -2 -7 46011.1 2175.19 3
0 2 7 45456.5 1958.94 4
0 -2 -7 42022.7 2577.7 2
0 -2 -7 50217.6 2334.44 1
0 -3 -8 11912.7 1189.39 5
0 -3 -8 12429.1 850.561 1
0 3 8 11989.5 1697.89 7
0 -4 -9 12787.4 1366.39 5
0 -8 -2 3396.84 760.823 5
0 8 2 2547.88 677.986 3
0 -8 -2 2491.57 628.43 6
0 7 1 3510.16 713.035 3
0 -7 -1 4661.43 838.318 5
0 -7 -1 5467.85 832.36 6
0 7 1 3714.34 683.284 4
0 6 0 -2.10521 58.0457 3
0 6 0 48.2972 52.3334 1
0 -6 0 111.04 212.002 5
0 6 0 138.484 147.672 4
0 -6 0 170.741 167.946 6
0 -5 1 85110.4 4278.22 7
0 5 -1 81195.8 4290.11 3
0 -5 1 87244.8 4510.71 5
0 5 -1 84390.1 4230.15 4
0 5 -1 82660.9 4003.11 1
0 -5 1 88391.8 4463.16 6
0 4 -2 62625.3 3062.99 4
0 4 -2 61294.2 3160.23 3
0 4 -2 54947.1 2950.92 1
0 -4 2 61723.5 3151.21 7
0 -4 2 58539.4 3294.65 6
0 -4 2 60175 3349.92 5
0 3 -3 28524.3 1590.56 1
0 -3 3 24937.3 1852.71 5
0 -3 3 23632.9 1647.22 7
0 3 -3 25591.4 1476.01 4
0 3 -3 26214.8 1602.38 3
0 -3 3 26230.3 1823.93 6
0 3 -3 24479.8 1569.83 5
0 -2 4 92094.7 4603.11 7
0 2 -4 93214.5 4173.87 3
0 2 -4 88747.2 4173.65 1
0 2 -4 96033.1 4428.78 5
0 2 -4 96119.7 4244.8 7
0 2 -4 78279.6 3902.84 4
0 -2 4 99578.9 4772.75 6
0 1 -5 15855 777.475 4
0 1 -5 13756 1189.96 7
0 -1 5 13815 1443.76 7
0 1 -5 16564.8 1047.48 3
0 1 -5 14714.6 1063.79 1
0 1 -5 14200.1 1365.21 5
0 -1 5 14882.9 975.5 3
0 -1 5 15417.7 1471.79 6
0 1 -5 16482.3 783.757 4
0 0 -6 9815.67 803.875 1
0 0 6 8418.83 1132.53 6
0 0 -6 9925.85 727.718 3
0 0 6 10341 1280.16 7
0 0 6 9766.53 706.23 3
0 -1 -7 29980.7 1579.59 3
0 1 7 28901.7 2557.69 7
0 -1 -7 30194.8 1711.27 1
0 -1 -7 28335.2 1844.65 5
0 1 7 30548.1 2470.94 6
0 2 8 23155.6 2407.62 7
0 -2 -8 26645.7 1871.69 5
0 -2 -8 27947 1591.21 1
0 -2 -8 25678.2 1411.57 3
0 3 9 32032.8 3122.64 7
0 -3 -9 33835.6 2353.73 5
0 -4 -10 9478.74 1173.64 5
0 -8 -1 5880.31 1065.5 5
0 -8 -1 5340.29 883.537 7
0 8 1 5685.68 996.951 3
0 7 0 25499 2028.54 4
0 7 0 27775.3 2239.59 3
0 -7 0 32274.5 2268.98 7
0 7 0 26579.6 1715.34 1
0 -7 0 25508.3 2157.38 6
0 -7 0 27591.9 2328.03 5
0 6 -1 5440.72 764.829 4
0 -6 1 5912.82 887.636 6
0 6 -1 7821.88 750.085 1
0 6 -1 6165.82 863.737 3
0 -6 1 5793.46 815.781 7
0 -6 1 7054.56 976.912 5
0 -5 2 5237.25 693.911 7
0 -5 2 4928.11 790.257 5
0 5 -2 5058.8 713.429 3
0 -5 2 6006.77 825.703 6
0 5 -2 6231.72 659.748 1
0 5 -2 6588.9 739.898 4
0 4 -3 54741.3 2949.59 1
0 -4 3 56020.5 3435.69 5
0 4 -3 57699.4 3104.03 3
0 -4 3 54584.1 3141.8 7
0 4 -3 61078.1 2980.9 4
0 -4 3 57197.7 3375.68 6
0 3 -4 3171.73 467.034 5
0 3 -4 2513.27 419.326 3
0 3 -4 3543.86 468.831 1
0 -3 4 2433.87 554.862 6
0 3 -4 3117.72 386.951 4
0 -3 4 3598.8 589.142 7
0 2 -5 55467.3 2858.63 1
0 2 -5 59644.1 2861.29 3
0 -2 5 48021.9 3298.22 7
0 2 -5 53474.7 2531.68 4
0 2 -5 54570 3140.49 5
0 -2 5 55821.1 3474.76 6
0 1 -6 775.607 206.308 3
0 1 -6 995.963 266.263 1
0 -1 6 342.73 305.95 6
0 -1 6 376.602 256.158 7
0 0 7 826.011 426.638 7
0 0 -7 2541.09 400.89 1
0 0 7 1314.4 517.495 6
0 0 -7 2191.92 329.902 3
0 1 8 54133.2 4085.64 7
0 -1 -8 58350.9 2844.88 3
0 -1 -8 59245.9 3027.51 1
0 1 8 58009.4 4038.39 6
0 -1 -8 59384.2 3222.47 5
0 -2 -9 7054.15 895.49 5
0 -2 -9 8052.43 749.934 1
0 3 10 14988.3 2111.5 7
0 -3 -10 16207.2 1578.57 5
0 -8 0 22740.6 2034.25 7
0 -8 0 17982.1 2033.9 5
0 -7 1 1123.53 445.076 7
0 7 -1 569.991 275.296 4
0 7 -1 189.593 169.729 1
0 -7 1 474.898 400.83 5
0 -7 1 137.03 263.193 6
0 7 -1 523.65 339.694 3
0 6 -2 5682.22 840.981 3
0 -6 2 4361.33 722.509 7
0 -6 2 5597.23 924.857 6
0 -6 2 4755.15 838.075 5
0 6 -2 4686.97 702.958 4
0 6 -2 5294.61 661.334 1
0 -5 3 3235.85 687.468 5
0 5 -3 3287.01 516.281 1
0 5 -3 3058.83 573.316 3
0 -5 3 2482.7 592.309 6
0 5 -3 3628.19 535.695 4
0 -5 3 3749.92 639.097 7
0 4 -4 9078.65 940.99 3
0 -4 4 9635.63 1194.88 5
0 -4 4 8586.74 1029.78 7
0 4 -4 9039.25 884.154 1
0 4 -4 8341.73 786.444 4
0 -4 4 10326.8 1233.94 6
0 3 -5 502.043 154.557 4
0 3 -5 446.514 225.35 3
0 -3 5 147.64 234.426 6
0 3 -5 304.295 186.043 1
0 2 -6 28312.6 1456.59 4
0 -2 6 32633.6 2585.58 6
0 -2 6 26795.2 2374.5 7
0 2 -6 31497.6 1848.47 3
0 2 -6 29725.4 1869.64 1
0 1 -7 97900.2 4735.33 1
0 1 -7 99496 4597.18 3
0 -1 7 89862.5 5617.72 7
0 -1 7 91280.5 5628.42 6
0 0 -8 3600.99 453.247 3
0 0 8 2402.84 695.379 7
0 0 8 4373.7 956.714 6
0 0 -8 2846.14 473.788 1
0 -1 -9 19477.8 1542.76 5
0 1 9 16662.8 2078.82 7
0 -1 -9 18022.6 1353.58 1
0 -2 -10 7403.45 966.545 5
0 2 10 6888.3 1438.51 7
0 -8 1 7830.54 1344.89 5
0 -8 1 9355.89 1279.53 7
0 -7 2 2038.95 587.431 6
0 7 -2 905.884 305.559 1
0 -7 2 1982.46 509.155 7
0 7 -2 2258.53 607.56 3
0 7 -2 2308.64 523.549 4
0 -7 2 1865.23 602.065 5
0 -6 3 2743.44 725.873 5
0 6 -3 5683.88 775.161 4
0 -6 3 4538.02 879.098 6
0 6 -3 3825.3 590.479 1
0 -6 3 3307.26 696.622 7
0 6 -3 5565.33 847.151 3
0 -5 4 5997.44 1011.49 5
0 5 -4 5266.93 668.242 4
0 -5 4 2471.67 676.58 6
0 -5 4 4373.11 764.182 7
0 5 -4 4973.41 769.074 3
0 5 -4 3320.58 599.041 1
0 -4 5 2434.8 619.975 7
0 4 -5 2936.27 541.954 3
0 4 -5 3948.07 510.591 4
0 4 -5 2474.81 487.192 1
0 -4 5 2144.33 626.557 6
0 3 -6 42660.1 2251.45 4
0 3 -6 48779 2709.9 1
0 -3 6 43168.2 3217.02 7
0 3 -6 47804.3 2687.55 3
0 -3 6 42454.6 3297.27 6
0 2 -7 29215 1980.91 1
0 -2 7 28843.1 2665.06 6
0 2 -7 30571.8 1921.27 3
0 -2 7 28174.2 2594.96 7
0 1 -8 19152.9 1473.36 1
0 -1 8 19696 2169.35 6
0 1 -8 19116.1 1354.39 3
0 -1 8 16887.6 2041.38 7
0 0 -9 14493.5 1270.51 5
0 0 9 14552.4 1951.58 7
0 0 -9 13763.4 1223.37 1
0 0 9 15879.2 1969.73 6
0 -1 -10 5903.01 746.247 1
0 -1 -10 7432.3 947.27 5
0 1 10 5940.09 1306.15 7
0 -2 -11 764.523 421.367 5
0 2 11 295.749 184.19 7
0 7 -3 3277.03 629.202 4
0 7 -3 3621.68 617.423 1
0 -7 3 3349.85 766.58 7
0 -6 4 6576.63 1002.22 7
0 6 -4 6267.85 954.844 3
0 6 -4 6619.87 816.179 4
0 -6 4 7424.85 1281.2 6
0 -6 4 6469.39 1117.22 5
0 6 -4 7266.59 886.278 1
0 5 -5 21976.8 1850.57 3
0 5 -5 23509.9 1635.22 4
0 -5 5 21071.1 2246.33 6
0 -5 5 20488.7 2010.21 7
0 5 -5 24110.7 1793.57 1
0 -4 6 1698.04 566.647 6
0 4 -6 1188.5 378.107 3
0 -4 6 698.653 461.431 7
0 4 -6 1340.76 400.746 1
0 3 -7 9714.13 1006.55 3
0 3 -7 10733.3 1065.36 1
0 -3 7 7928.46 1319.6 6
0 -3 7 7520.58 1303.45 7
0 -2 8 28574.1 2820.41 6
0 2 -8 30049 1997.7 3
0 -2 8 24023.5 2574.85 7
0 2 -8 31281.2 2120.54 1
0 -1 9 9158.15 1564.88 7
0 1 -9 11449.6 1029.35 3
0 -1 9 9899.44 1620.6 6
0 1 -9 10032 1069.42 1
0 0 10 760.085 565.429 6
0 0 -10 823.052 366.404 5
0 0 -10 1031.37 325.665 1
0 0 10 1188.06 653.146 7
0 1 11 604.892 852.859 7
0 7 -4 3652.87 702.352 4
0 -6 5 4611.61 972.088 7
0 -5 6 12361.9 1618.06 7
0 5 -6 14197.1 1433.88 3
0 5 -6 12757 1291.57 1
0 -4 7 2892.14 889.57 6
0 4 -7 1545.35 466.689 3
0 4 -7 1881.6 481.519 1
0 -4 7 2466.45 802.015 7
0 3 -8 9360.95 1027.28 3
0 -3 8 5725.95 1320.19 6
0 3 -8 8935.85 1051.38 1
0 -3 8 6809.06 1319.35 7
0 2 -9 226.127 237.068 3
0 -2 9 1092.57 654.485 6
0 -2 9 450.745 458.538 7
0 2 -9 189.94 202.601 1
0 3 -9 542.653 307.687 3
1 -1 10 3990.43 1061.49 6
-1 1 -10 2694.08 539.645 3
-1 2 -9 8062.37 957.909 1
-1 2 -9 6523.75 893.613 3
1 -2 9 6226.92 1338.86 6
-1 3 -8 401.716 257.937 3
-1 3 -8 83.4302 100.383 1
-1 4 -7 10315.6 1154.95 1
1 -4 7 10494.9 1568.94 6
-1 4 -7 11483 1277.57 3
-1 5 -6 11021.1 1193.11 1
-1 6 -5 1778.8 471.445 4
-1 -1 -11 545.481 258.335 1
-1 0 -10 90.5813 119.978 1
-1 0 -10 289.071 213.123 3
1 0 10 508.401 404.471 6
1 -1 9 7783.06 1361.87 6
-1 1 -9 6986.05 815.457 3
-1 1 -9 6681.95 888.534 1
1 -1 9 7164.86 1216.67 7
-1 2 -8 27099.5 1877.19 3
1 -2 8 23495.3 2287.61 7
1 -2 8 19386.4 2249.2 6
-1 2 -8 24172 1808.69 1
1 -3 7 20128 2044.44 7
-1 3 -7 20162.1 1621.4 1
-1 3 -7 19903.7 1641.17 3
1 -3 7 23304.8 2262.88 6
-1 4 -6 5571.12 668.913 4
1 -4 6 6925.39 1156.61 6
1 -4 6 4629.41 912.789 7
-1 4 -6 6642.01 887.901 3
-1 4 -6 4973.63 729.515 1
-1 5 -5 8268.11 900.71 4
1 -5 5 5758.69 928.752 7
-1 5 -5 5685.68 810.575 1
1 -5 5 6027.13 1126.38 6
-1 5 -5 6261.12 917.104 3
-1 6 -4 1299.44 373.266 1
1 -6 4 951.325 404.766 7
-1 6 -4 2234.12 508.98 4
-1 7 -3 10115.8 1088.28 1
1 2 11 -245.306 204.051 7
1 1 10 1190.93 642.718 7
-1 -1 -10 1184.99 368.235 5
1 1 10 1320.75 496.739 6
-1 -1 -10 1541.73 346.796 1
-1 0 -9 4101.89 575.502 5
1 0 9 5745.14 1136.54 6
-1 0 -9 6177.56 697.515 3
1 0 9 3235.72 837.283 7
-1 0 -9 4766.36 660.953 1
1 -1 8 29997.3 2776.53 6
1 -1 8 35584.5 2835.8 7
-1 1 -8 32945.4 2156.01 1
-1 1 -8 36460.1 2159.41 3
1 -2 7 8106.84 1275.6 6
1 -2 7 10402.7 1333.8 7
-1 2 -7 11498.9 1049.03 1
-1 2 -7 11727.4 1058.58 3
-1 3 -6 17306.9 1178.57 4
-1 3 -6 15322.8 1330.08 3
1 -3 6 15485.4 1687.47 6
1 -3 6 15218.6 1566.5 7
-1 3 -6 16507.5 1341.13 1
-1 4 -5 8660.85 928.727 1
1 -4 5 7842.19 1022.05 7
-1 4 -5 9012.14 1011.18 3
1 -4 5 6892.94 1098.35 6
-1 5 -4 12287.8 1149.98 4
1 -5 4 13140.6 1299.37 7
1 -5 4 12678.3 1451.47 6
1 -5 4 11554.2 1416.57 5
-1 5 -4 11098.4 1073.38 1
-1 5 -4 10299.5 1179.72 3
1 -6 3 5056 901.355 5
-1 6 -3 5828.54 726.651 1
-1 6 -3 6452.93 942.605 3
-1 6 -3 3148.35 637.438 4
1 -6 3 3526.81 782.757 6
1 -6 3 5076.17 806.987 7
1 -7 2 5023.28 888.555 7
-1 7 -2 4880.05 685.023 1
1 3 11 4048.76 1106.02 7
-1 -3 -11 4413.03 756.708 5
-1 -2 -10 25196.8 1645 1
1 2 10 19682.9 2304.01 7
-1 -2 -10 23653.7 1807.01 5
1 1 9 6962.62 1206.03 7
1 1 9 5154.45 1085.7 6
-1 -1 -9 6526.09 775.057 5
-1 -1 -9 6522.61 678.883 3
-1 -1 -9 7022.12 756.688 1
-1 0 -8 2952.63 432.929 3
1 0 8 2639.51 701.403 7
-1 0 -8 3005.56 525.39 1
1 0 8 3646.09 855.776 6
-1 0 -8 3630.02 480.922 5
1 -1 7 24548.2 1993.32 6
-1 1 -7 29250.9 840.101 4
-1 1 -7 29392.2 1457.48 1
1 -1 7 27114.5 1992.79 7
-1 1 -7 26033.1 1325.11 3
-1 2 -6 6064.9 770.131 1
-1 2 -6 8570.59 661.319 4
-1 2 -6 8279.75 819.557 3
1 -2 6 7259.6 1055.75 6
-1 2 -6 7748.29 788.648 5
1 -2 6 7042.8 996.431 7
1 -3 5 25983.3 2085.11 6
1 -3 5 26000.3 1938.57 7
-1 3 -5 21874.5 1534.26 5
-1 3 -5 26519.4 1769.41 3
-1 3 -5 28557.4 1615.65 4
-1 3 -5 25795.2 1713.84 1
1 -4 4 49913.6 2893.26 7
-1 4 -4 48246.5 2736.57 1
1 -4 4 44013.1 3044.43 5
-1 4 -4 55175.6 2785.54 4
1 -4 4 47286.8 3143.27 6
-1 4 -4 46903.6 2833 3
-1 5 -3 8563.94 863.101 1
-1 5 -3 9296.11 958.479 4
-1 5 -3 8186.47 984.908 3
1 -5 3 9189.06 972.42 7
1 -5 3 6125.08 964.483 6
1 -5 3 8475.26 1084.97 5
1 -6 2 798.072 336.169 5
-1 6 -2 774.768 290.631 1
1 -6 2 1902.12 476.207 7
-1 6 -2 782.525 335.272 4
1 -6 2 776.333 427.612 6
-1 6 -2 2223.76 532.739 3
-1 7 -1 297.399 163.917 4
1 -7 1 150.821 177.156 7
1 -7 1 604.603 379.627 5
1 -7 1 512.707 361.358 6
-1 7 -1 741.073 374.049 3
-1 -4 -11 10033.8 1226.41 5
1 3 10 18467.8 2208.01 7
-1 -3 -10 17052.2 1527.51 5
-1 -2 -9 20117.2 1291.31 3
-1 -2 -9 18330.1 1501.25 5
1 2 9 17305.9 1999.04 7
-1 -2 -9 21277.7 1380.94 1
-1 -1 -8 26945.6 1705.03 5
1 1 8 25438.8 2281.54 6
-1 -1 -8 25362.7 1560.18 3
1 1 8 30798.7 2487.43 7
-1 -1 -8 26210.7 1660.26 1
1 0 7 6317.02 985.437 6
-1 0 -7 5363.5 331.53 4
1 0 7 4879.46 837.26 7
-1 0 -7 6114.92 603.158 3
-1 0 -7 5724.69 620.544 1
-1 0 -7 5404.66 323.461 4
-1 1 -6 28673.1 1710.81 3
-1 1 -6 29954 1805.73 1
1 -1 6 25455.9 2161.57 6
-1 1 -6 30654.6 1465.97 4
-1 1 -6 28126.7 1750.38 7
-1 1 -6 27131 1445.97 4
1 -1 6 29712.9 2187.16 7
-1 1 -6 29458.8 1938.82 5
-1 2 -5 6613.24 655.715 5
-1 2 -5 6697.17 630.618 7
-1 2 -5 6550.5 695.351 1
1 -2 5 7233.79 852.641 7
1 -2 5 6553.17 888.789 6
-1 2 -5 7268.82 599.98 4
-1 2 -5 6746.98 690.769 3
1 -3 4 21512.3 1749.23 5
-1 3 -4 27468.1 1694 3
-1 3 -4 25041.6 1599.08 1
1 -3 4 20713.5 1766.51 6
-1 3 -4 28219.6 1590.27 4
-1 3 -4 24366.9 1502.89 5
1 -3 4 25849.1 1717.88 7
1 -4 3 32837.1 2070.76 7
-1 4 -3 36248.9 2098.65 4
-1 4 -3 32882.8 2130.98 3
1 -4 3 34926.2 2341.78 6
1 -4 3 35321.2 2311 5
-1 4 -3 34066.3 2021.19 1
-1 5 -2 390.37 225.301 4
-1 5 -2 162.286 152.281 3
1 -5 2 309.257 203.718 6
-1 5 -2 231.129 143.72 1
1 -5 2 216.507 173.952 7
1 -5 2 452.195 291.912 5
-1 6 -1 11975.4 1010.88 1
1 -6 1 13771.5 1264.02 7
-1 6 -1 12657.3 1295.16 3
-1 6 -1 12282.8 1230.23 4
1 -6 1 13960.6 1385.58 5
1 -6 1 13927.9 1426.47 6
1 -7 0 13680.2 1410.23 7
1 -7 0 14059.4 1518.91 5
-1 7 0 10442 1302.21 3
1 -7 0 13662.2 1482.49 6
-1 7 0 13565.7 1394.34 4
1 -8 -1 2185.59 631.948 5
-1 -4 -10 1136.85 417.382 5
-1 -3 -9 74793.5 3612.06 1
-1 -3 -9 75318.1 4070.65 5
-1 -3 -9 76186.2 3579.38 3
1 3 9 77063.1 5021.55 7
-1 -2 -8 20519.7 1469.08 5
-1 -2 -8 19734.2 1225.03 3
-1 -2 -8 19387.6 1266.23 1
1 2 8 20926.9 2037.63 7
-1 -1 -7 12249.1 973.789 1
1 1 7 12171.1 1366.38 6
-1 -1 -7 12536.3 608.324 4
-1 -1 -7 14988.7 957.913 3
-1 -1 -7 14334.4 1025.51 5
1 1 7 12774 1436.2 7
1 0 6 13658.1 1415.46 6
-1 0 -6 16672.4 822.134 4
-1 0 -6 13571.4 1189.38 7
1 0 6 14866.5 1448.77 7
-1 0 -6 14902.1 1026.82 3
-1 0 -6 14887 1094.47 1
-1 1 -5 10052.1 642.428 4
-1 1 -5 10239.9 899.091 5
-1 1 -5 8262.43 732.045 3
1 -1 5 8531.39 960.344 6
1 -1 5 10151.5 1035.23 7
-1 1 -5 8662.66 743.458 7
-1 1 -5 8902.41 774.09 1
-1 2 -4 4556.18 462.192 4
1 -2 4 5029.88 598.775 7
-1 2 -4 4500.6 524.919 3
-1 2 -4 4795.82 527.505 1
-1 2 -4 5449.9 519.869 5
1 -2 4 4612.21 660.32 6
-1 3 -3 198.338 99.1394 5
-1 3 -3 105.245 96.5399 4
-1 3 -3 275.206 143.418 3
-1 3 -3 165.627 86.8807 1
1 -3 3 294.801 170.647 5
1 -3 3 269.838 136.93 7
1 -3 3 137.736 153.684 6
-1 4 -2 95747.3 4336.77 1
1 -4 2 91951.8 4664.89 6
1 -4 2 91230.6 4420.38 7
1 -4 2 94230.6 4599.06 5
-1 4 -2 95369.2 4479.1 4
-1 4 -2 90629.1 4496.1 3
-1 4 -2 85400 4300.53 5
-1 5 -1 26731.5 1622.88 1
1 -5 1 30036.3 2003.6 5
1 -5 1 28168.3 1976.26 6
-1 5 -1 23658.1 1790.46 3
-1 5 -1 29698.6 1914.82 4
-1 6 0 23149.2 1780.96 4
-1 6 0 22632.4 1435.1 1
-1 6 0 22341.5 1835.39 3
1 -6 0 23416.3 1869.55 6
1 -6 0 26174.9 1952.3 5
1 -7 -1 2379.41 628.317 6
-1 7 1 4466.57 786.674 3
1 -7 -1 3315.26 815.558 5
-1 7 1 3089.31 649.846 4
-1 8 2 -100.677 174.398 3
-1 -5 -10 28166.2 2289.66 5
-1 -4 -9 2172.11 493.277 5
-1 -3 -8 7919.07 661.26 3
-1 -3 -8 9043 925.721 5
1 3 8 6557.02 1121.16 7
1 3 8 9396.99 624.601 4
-1 -3 -8 8390.57 669.744 1
-1 -2 -7 30523.6 1598.86 3
1 2 7 30120.4 2397.12 7
-1 -2 -7 31147.8 1836.11 5
-1 -2 -7 25619.1 1799.99 2
-1 -2 -7 28472 1387.78 4
-1 -2 -7 27957.4 1602.55 1
1 2 7 30917.3 1418.84 4
-1 -1 -6 2851.17 544.312 6
-1 -1 -6 3349.52 370.178 3
-1 -1 -6 2423.52 471.554 2
1 1 6 4022.54 724.707 7
-1 -1 -6 3581.13 263.332 4
-1 -1 -6 1982.71 471.493 7
-1 -1 -6 4300.4 445.379 1
1 1 6 3016.69 568.844 6
-1 -1 -6 3169.26 408.723 5
-1 0 -5 107336 4962.45 2
1 0 5 96132.3 4982.55 7
-1 0 -5 102522 4474.84 3
1 0 5 108709 5114.13 6
-1 0 -5 97687.3 4764.09 7
-1 0 -5 97747.8 4717.86 6
-1 0 -5 96684.7 4252.75 4
1 0 5 97446 4429.7 3
1 0 5 101528 4947.25 2
-1 0 -5 102478 4528.72 1
-1 1 -4 4084.24 602.139 2
-1 1 -4 4396.57 469.61 5
-1 1 -4 3550.07 462.461 1
-1 1 -4 4556.91 512.16 6
1 -1 4 3961.74 514.108 7
1 -1 4 3931.43 560.827 6
-1 1 -4 4842.77 470.663 3
-1 1 -4 4316.58 420.634 7
1 -1 4 4458.23 441.298 3
1 -1 4 3834.83 583.216 2
-1 2 -3 34171.9 2265.45 2
1 -2 3 33520.6 2305.1 2
-1 2 -3 38318.8 2080.61 6
-1 2 -3 39346 2031.6 1
1 -2 3 40570.9 2193.8 5
-1 2 -3 39777.2 1959.44 5
1 -2 3 38946.9 2223.95 6
-1 2 -3 39996.9 2067.47 3
1 -2 3 38010.9 2027.14 7
-1 2 -3 42356.9 2017.72 4
-1 3 -2 94445.9 4301.65 1
-1 3 -2 91714.8 4406.75 3
1 -3 2 93348.1 4334.42 7
1 -3 2 90392.4 4511.46 6
-1 3 -2 90545.5 4272.41 5
-1 3 -2 90819.7 4608.92 2
1 -3 2 94216.6 4432.8 5
-1 3 -2 94748.9 4387.71 4
-1 4 -1 44077.8 2239.74 1
1 -4 1 43740.9 2468.67 5
1 -4 1 47344.3 2561.55 6
-1 4 -1 37473.6 2418.1 2
-1 4 -1 43298.4 2432.16 3
-1 4 -1 44879.4 2446.77 4
-1 4 -1 43910.9 2338.87 5
-1 5 0 8855.95 931.678 2
-1 5 0 13885.8 1162.83 3
1 -5 0 12875.9 1152.12 6
-1 5 0 12606.9 887.195 1
1 -5 0 13351.8 1210.74 5
-1 5 0 12951.1 1139.2 4
-1 6 1 5096.12 754.646 4
-1 6 1 5076.96 780.511 3
-1 6 1 5293.04 511.685 1
1 -6 -1 6611.67 912.676 5
1 -6 -1 6351.24 843.639 6
1 -7 -2 10726.6 1223.92 6
1 -7 -2 11952.9 1406.37 5
-1 7 2 9053.46 1135.16 4
-1 -5 -9 3488.89 679.984 5
1 4 8 2589.91 375.907 4
-1 -4 -8 3308.41 384.175 3
-1 -4 -8 2855.53 549.731 5
-1 -3 -7 5060.22 646.832 5
-1 -3 -7 5150.05 540.827 2
1 3 7 5092.58 465.161 4
-1 -3 -7 5895.1 476.34 1
1 3 7 4674.19 870.022 7
-1 -3 -7 6032.4 510.907 3
-1 -3 -7 4381.8 426.986 4
-1 -2 -6 71753.2 3532.78 5
-1 -2 -6 77757.1 3602.44 2
-1 -2 -6 70580.5 3320 3
-1 -2 -6 67968 3906.35 6
-1 -2 -6 63023.7 4147.14 7
1 2 6 73293.2 4193 7
-1 -2 -6 71710.7 3211.21 4
1 2 6 75004.3 3224.14 4
-1 -2 -6 75802.5 3341.11 1
-1 -1 -5 11117.2 1073.69 7
-1 -1 -5 9427.63 668.763 1
-1 -1 -5 8638.18 829.605 6
1 1 5 8436.83 818.592 2
1 1 5 8254.21 898.094 6
-1 -1 -5 9332.19 535.478 4
-1 -1 -5 8643.2 631.877 3
1 1 5 8266.99 941.902 7
-1 -1 -5 10419.5 868.027 2
-1 -1 -5 9210.49 681.618 5
-1 0 -4 219421 9030.06 7
-1 0 -4 218760 8878.43 1
1 0 4 201539 8789.65 3
1 0 4 206939 9202.28 7
-1 0 -4 206623 8806.23 3
-1 0 -4 203134 8997.02 6
1 0 4 205976 9218.43 2
-1 0 -4 208653 8667.48 4
1 0 4 197574 9166.87 6
-1 0 -4 227204 9244.01 2
1 -1 3 166031 7091.91 6
-1 1 -3 170801 6963.93 6
-1 1 -3 166892 6784.25 7
-1 1 -3 166405 6884.14 3
-1 1 -3 167592 6815.87 5
1 -1 3 171592 6874.91 3
1 -1 3 143999 7182.03 2
1 -1 3 163634 6933.71 7
-1 1 -3 158356 6887.39 1
1 -2 2 478.97 152.073 6
-1 2 -2 639.674 152.192 4
-1 2 -2 429.041 208.98 2
1 -2 2 628.012 140.527 7
1 -2 2 338.296 131.245 3
-1 2 -2 505.288 150.681 6
-1 2 -2 563.657 135.659 5
1 -2 2 398.683 189.12 2
1 -2 2 553.967 158.322 5
-1 2 -2 391.469 117.839 1
-1 2 -2 425.983 125.944 3
-1 3 -1 44054.4 2319.82 2
1 -3 1 43145.8 2296.16 6
-1 3 -1 40870.5 2196.38 3
1 -3 1 37548 2113.6 3
-1 3 -1 41070.3 2215.71 4
-1 3 -1 44118.9 2153.49 5
1 -3 1 45303.3 2425.44 2
1 -3 1 45105 2254.82 5
-1 3 -1 41486.2 2098.74 1
-1 4 0 1355.4 280.171 2
-1 4 0 1321.82 271.672 3
-1 4 0 1101.41 208.314 1
-1 4 0 1222.62 295.143 4
1 -4 0 666.108 220.683 6
1 -4 0 473.653 194.862 5
-1 5 1 24817.4 1333.29 1
-1 5 1 26079.7 1746.16 4
-1 5 1 23807.8 1423.34 2
-1 5 1 24004.2 1685.52 3
1 -5 -1 24303.4 1776.12 5
1 -5 -1 22316.6 1653.81 6
1 -6 -2 25386.2 1818.07 6
-1 6 2 21699.2 1761.92 3
1 -6 -2 26702.1 2003.24 5
-1 6 2 21012 1728.68 4
1 -7 -3 14885.2 1409.03 6
1 -7 -3 13466.9 1539.89 5
-1 7 3 12196.7 1458.39 3
-1 7 3 16069.5 1491.45 4
-1 -6 -9 7056.36 1072.19 5
1 5 8 1214.17 334.942 4
-1 -5 -8 1711.01 468.247 5
-1 -4 -7 15469.3 1293.19 3
-1 -4 -7 18918.3 1487.83 5
1 4 7 20480.7 1237.4 4
-1 -4 -7 19236.9 951.553 1
-1 -4 -7 15085.6 1127.5 4
-1 -3 -6 24775.5 1278.28 1
-1 -3 -6 24367.9 1357.33 4
1 3 6 27327.9 1415.88 4
-1 -3 -6 24578.2 1915.44 6
-1 -3 -6 24246.3 1617.46 5
-1 -3 -6 25898.8 1402.31 2
1 2 5 22455.8 1181.47 4
-1 -2 -5 21882.2 1198.61 3
-1 -2 -5 23570.6 1623.79 6
-1 -2 -5 24387.6 1364.6 2
-1 -2 -5 22998.2 1820.24 7
-1 -2 -5 22844 1179.66 4
1 2 5 21443.6 1712.81 7
-1 -2 -5 23317.4 1367.62 5
-1 -2 -5 23029.4 1195.46 1
1 2 5 21402.9 1367.36 2
-1 -1 -4 316579 13088.5 4
-1 -1 -4 304660 13159.8 3
-1 -1 -4 306238 13214.5 5
1 1 4 322435 13680.9 7
-1 -1 -4 334546 13452.4 2
-1 -1 -4 314467 13730.9 7
-1 -1 -4 331856 13505.5 6
1 1 4 314449 13595.3 6
1 1 4 322837 13083.2 4
-1 -1 -4 314806 13194.6 1
1 1 4 347205 13530.3 2
-1 0 -3 128850 5940.87 2
1 0 3 137423 5916.15 6
-1 0 -3 140922 5819.41 6
-1 0 -3 130504 5723.03 1
-1 0 -3 134233 5624.01 4
1 0 3 132383 5693.05 3
-1 0 -3 137746 5704.56 3
1 0 3 130361 5889.94 7
-1 0 -3 138065 5775.91 7
1 0 3 125448 5949.5 2
-1 1 -2 15763.1 1145.1 2
1 -1 2 21024.7 1256.44 2
1 -1 2 19598.4 987.725 7
-1 1 -2 18729 1043.91 3
-1 1 -2 19041.1 939.409 5
1 -1 2 18645.7 1096.71 6
1 -1 2 19589 1024.59 5
-1 1 -2 17975.2 1034.3 1
-1 1 -2 20057.8 1069.22 6
1 -1 2 20008.2 1047.09 3
1 -2 1 836.862 178.544 6
1 -2 1 784.586 154.078 3
-1 2 -1 302.135 106.408 3
-1 2 -1 892.503 180.688 4
-1 2 -1 626.87 133.903 5
-1 2 -1 595.429 157.081 2
1 -2 1 690.255 159.557 5
1 -2 1 1076.06 239.553 2
-1 2 -1 622.9 149.897 6
-1 2 -1 250.752 120.997 1
-1 3 0 36099.6 1783.29 1
1 -3 0 37772.1 1998.9 6
1 -3 0 34623.3 1981.41 2
-1 3 0 39197.5 1955.72 2
-1 3 0 35536.6 1933.31 3
1 -3 0 39986.1 2034.95 5
-1 3 0 36555 1997.43 4
1 -3 0 36906.1 1893.81 3
-1 3 0 37556.2 1944.58 5
-1 4 1 3729.6 350.074 1
1 -4 -1 4549.67 538.021 6
-1 4 1 3963.5 522.243 4
-1 4 1 4831.35 556.362 3
1 -4 -1 4768.2 590.764 5
-1 4 1 4375.92 425.652 2
-1 5 2 17805.7 957.051 1
-1 5 2 18384.8 975.589 2
1 -5 -2 18092 1484.71 5
-1 5 2 19301.8 1432.33 4
1 -5 -2 17625.8 1365.94 6
-1 5 2 19548.2 1436.58 3
-1 6 3 21842.3 1768.74 3
-1 6 3 22161.9 1712.36 4
1 -6 -3 21907.7 1684.05 6
1 -6 -3 19750.9 1783.43 5
1 -7 -4 2500.9 584.826 6
1 -7 -4 2474.65 647.193 5
-1 7 4 1164.15 364.428 4
-1 7 4 1689.75 560.834 3
-1 -6 -8 21862.8 1945.53 5
1 6 8 22593.5 1651.99 4
1 5 7 11653.1 1009.75 4
-1 -5 -7 14336.8 1321.11 5
-1 -4 -6 16003.3 772.004 1
-1 -4 -6 16812.5 865.942 1
-1 -4 -6 15753.8 1193.29 3
-1 -4 -6 17579.9 790.491 2
1 4 6 14034.6 1069.16 4
-1 -4 -6 13422.6 1019.46 4
-1 -4 -6 15754.7 1302.4 5
1 3 5 79449.3 3693.2 2
-1 -3 -5 82570.1 4291.63 6
-1 -3 -5 84928.9 3993.96 5
-1 -3 -5 82512.6 3534.22 1
-1 -3 -5 80414.1 4651.36 7
-1 -3 -5 78942.6 3726.11 4
1 3 5 84369.9 3758.41 4
-1 -3 -5 85748.5 4034.94 3
-1 -3 -5 84377.6 3603.4 2
-1 -2 -4 3838.17 360.823 2
1 2 4 4087.45 583.911 7
1 2 4 4037.99 350.771 4
1 2 4 3337.91 368.677 2
-1 -2 -4 3652.17 606.627 7
-1 -2 -4 4096.79 419.874 5
-1 -2 -4 4272.87 528.513 6
-1 -2 -4 3802.54 306.011 1
-1 -2 -4 3939.93 341.33 4
1 2 4 3658.57 385.76 5
1 1 3 38222.7 1996 7
-1 -1 -3 36910 1860.18 6
1 1 3 35697.4 1872.97 2
1 1 3 38726 1935.91 6
-1 -1 -3 37905.4 1691.9 4
-1 -1 -3 36235.6 1712.69 3
-1 -1 -3 41188.6 2083.26 7
-1 -1 -3 37830.3 1740.14 5
-1 -1 -3 35308.3 1724.59 1
1 1 3 37685 1695.4 4
-1 -1 -3 36468 1835.43 2
1 0 2 217487 8979.61 3
-1 0 -2 228210 9166.81 2
1 0 2 211777 9022.76 6
1 0 2 225065 8995.32 7
-1 0 -2 217022 8980.3 3
-1 0 -2 219281 8998.16 6
-1 0 -2 226395 8913.73 7
1 -1 1 24405.6 1203.37 3
-1 1 -1 23094.8 1200.58 3
-1 1 -1 27209.2 1346.03 2
1 -1 1 23320.6 1224.59 6
-1 1 -1 24385.3 1224.22 6
-1 1 -1 25790.1 1147.67 5
1 -1 1 24690.4 1159.72 5
1 -1 1 22639.9 1352.57 2
1 -2 0 6932.62 568.004 2
1 -2 0 8093.1 530.261 3
1 -2 0 6960.76 556.3 6
-1 2 0 7653.22 586.498 4
-1 2 0 6941.47 515.919 3
-1 2 0 6385.41 455.803 1
-1 2 0 7631.85 543.612 5
1 -2 0 7735.87 570.598 5
-1 2 0 5511.74 486.699 2
-1 3 1 27968.2 1671.33 4
1 -3 -1 29404.7 2132.07 7
-1 3 1 30492.8 1695.37 5
-1 3 1 26796.1 1596.44 3
1 -3 -1 31717 1762.61 5
1 -3 -1 33347.3 1641.25 2
1 -3 -1 32282.4 1594.39 3
-1 3 1 29113.4 1432.69 1
1 -3 -1 30788.8 1696.69 6
-1 3 1 31928.9 1507.39 2
-1 4 2 1961.24 342.919 3
1 -4 -2 1185.92 300.261 5
1 -4 -2 1494.19 252.032 3
-1 4 2 1919.61 184.004 2
-1 4 2 1784.32 344.787 4
1 -4 -2 1002 273.544 6
-1 4 2 1600.49 168.119 1
-1 5 3 10738.3 1041.51 3
-1 5 3 10735.2 1024.26 4
1 -5 -3 11403.4 1141.79 5
1 -5 -3 12222 1073.37 6
1 -6 -4 21221.7 1639.71 6
1 -6 -4 19383.3 1758.89 5
-1 6 4 22515.8 1688.5 4
1 -7 -5 6972.2 945.187 6
1 -7 -5 6778.25 1059.57 5
-1 7 5 5605.42 849.352 4
-1 -7 -8 14957.3 1278.97 6
1 7 8 12929.5 1293.58 4
-1 -6 -7 24537.5 2010.91 5
1 6 7 22372.5 1696.96 4
-1 -6 -7 26766.5 1699.18 6
-1 -5 -6 20147.9 1637.89 5
1 5 6 20928.3 1422.34 4
-1 -4 -5 38460.5 2390.88 5
-1 -4 -5 46162 2371.83 3
1 4 5 43321 2260.16 4
-1 -4 -5 41550.4 2197.88 4
1 3 4 1495.43 184.803 2
-1 -3 -4 1951.62 257.173 4
-1 -3 -4 1190.41 277.846 3
1 3 4 1475.09 235.307 4
1 3 4 2038.81 319.425 5
-1 -3 -4 1847.73 156.652 1
-1 -3 -4 947.529 350.713 7
-1 -3 -4 1391.78 281.642 5
-1 -3 -4 1687.46 203.583 1
-1 -3 -4 1874.55 163.348 2
-1 -2 -3 225.351 96.3725 5
-1 -2 -3 309.924 87.3498 4
1 2 3 233.263 94.8272 5
-1 -2 -3 149.966 57.4174 2
1 2 3 405.903 103.906 4
-1 -2 -3 284.445 101.849 7
1 1 2 116339 4771.44 6
-1 -1 -2 115290 4741.1 5
-1 -1 -2 113810 4747.49 6
1 1 2 110033 4728.01 4
-1 -1 -2 113571 4770 2
1 1 2 112301 4793.53 2
1 1 2 108831 4722.98 5
-1 -1 -2 110265 4728.75 4
-1 -1 -2 116881 4925.45 7
1 0 1 209.556 64.5636 2
-1 0 -1 331.342 57.723 6
-1 0 -1 274.88 55.8226 3
-1 0 -1 297.975 78.5706 2
1 0 1 238.478 54.2345 3
1 0 1 256.182 53.5843 6
1 -1 0 77852.4 3524.37 2
1 -1 0 83074.2 3536.24 6
-1 1 0 80492.1 3462.62 3
-1 1 0 80744.3 3490.58 2
1 -1 0 78771.6 3745.75 7
-1 1 0 83873.5 3499.16 5
1 -1 0 82091.6 3459.42 3
1 -1 0 82108.6 3505.68 5
-1 2 1 101223 4492.47 4
-1 2 1 99071.1 4375.43 3
-1 2 1 95854.8 4263.56 2
1 -2 -1 104652 4353.31 3
1 -2 -1 101695 4518.59 5
1 -2 -1 106937 4384.68 2
1 -2 -1 103265 4990.2 7
-1 2 1 104870 4502.79 5
1 -3 -2 37012.9 2147.25 5
1 -3 -2 44317.9 1865.41 2
-1 3 2 38424.5 1730.11 2
-1 3 2 39255.4 1797.9 1
1 -3 -2 39709.9 1936.48 3
-1 3 2 42048.8 1745.98 1
1 -3 -2 37002.9 2667.28 7
-1 3 2 38193.3 2138.52 5
-1 3 2 40687.2 2044.98 3
-1 3 2 38006.3 2081.73 4
1 -4 -3 6461.36 693.199 6
-1 4 3 6506.69 680.704 3
1 -4 -3 6873.17 759.911 5
1 -4 -3 5871.52 524.351 3
-1 4 3 6826.38 685.819 4
-1 5 4 8762 988.413 3
1 -5 -4 12295.3 1050.55 6
1 -5 -4 11931.1 1182.07 5
-1 5 4 9142.77 945.218 4
1 -6 -5 37247.5 2532.07 6
1 -6 -5 41134.8 2846.19 5
-1 6 5 39789.1 2537.04 4
1 -7 -6 473.512 257.401 6
-1 7 6 1094.18 406.102 4
1 8 8 1428.97 487.806 4
-1 -7 -7 11580.1 1388.92 5
-1 -7 -7 10142.3 1026.83 6
1 7 7 10760.8 1141.09 4
1 6 6 16697.9 1370.05 4
-1 -6 -6 18299.6 1324.84 6
-1 -6 -6 16641.7 1559.33 5
-1 -5 -5 13193.5 987.959 6
1 5 5 12448.3 1056.22 4
-1 -5 -5 14412.2 1257.62 5
-1 -4 -4 30240.7 1807.47 3
-1 -4 -4 33704.5 1713.47 6
1 4 4 31776.7 1795.21 4
-1 -4 -4 33365.3 1974.89 5
-1 -4 -4 30783.3 1763.02 4
-1 -3 -3 45839.8 2710.14 7
-1 -3 -3 49419.1 2333.94 3
1 3 3 40474.3 2161.08 4
-1 -3 -3 44889 1919.59 1
-1 -3 -3 43061.8 2294.37 5
1 3 3 42687.1 2246.96 5
-1 -3 -3 42362.7 2160.52 4
1 3 3 45595.8 1945.54 2
1 2 2 286330 12336.7 4
-1 -2 -2 303312 12186.5 2
-1 -2 -2 314217 12532.6 3
-1 -2 -2 294337 12342 4
1 2 2 287516 12390.2 5
-1 -2 -2 292802 12414.7 5
-1 -2 -2 303633 12249.2 1
1 2 2 299010 12212.1 2
-1 -1 -1 143915 5676.11 2
-1 -1 -1 133463 5751.29 1
-1 -1 -1 136519 5726.55 5
1 1 1 136125 5710.88 4
1 1 1 131904 5769.63 1
1 1 1 141273 5724.48 5
1 1 1 131320 5670.11 2
-1 -1 -1 140577 5714.26 4
-1 0 0 264394 11590 7
1 0 0 264208 11486.7 1
1 0 0 284991 11405.2 2
-1 0 0 282957 11477.9 1
-1 0 0 262329 11342.1 3
-1 0 0 272141 11393.8 2
-1 1 1 99866.2 4371.34 1
1 -1 -1 104223 4301.49 3
1 -1 -1 105219 4488.4 5
1 -1 -1 104666 4333.37 2
-1 1 1 106876 4882.57 7
-1 1 1 105233 4317.71 3
1 -1 -1 104057 4893.67 7
-1 1 1 102406 4307.33 2
-1 2 2 275306 11163.9 1
-1 2 2 273952 11317.4 3
-1 2 2 279275 11523.9 5
-1 2 2 274537 11124.5 2
1 -2 -2 267644 11230.3 3
-1 2 2 271468 11419.5 4
1 -2 -2 261107 12145.1 7
1 -2 -2 260996 11521.5 5
-1 2 2 292126 12162.1 7
1 -2 -2 271841 11184.5 2
-1 3 3 6454.09 619.842 3
1 -3 -3 6884.55 499.314 3
1 -3 -3 7250.58 722.372 5
-1 3 3 7974.39 669.849 4
-1 4 4 34673.1 2129.34 3
-1 4 4 38596.4 2114.07 4
1 -4 -4 35116.5 1817.9 3
1 -4 -4 37609.8 2283.93 5
-1 5 5 1165.74 318.763 4
1 -5 -5 1659.01 429.42 5
1 -6 -6 242.979 267.165 5
1 -6 -6 106.156 124.303 6
-1 6 6 258.101 209.886 4
-1 7 7 1918.48 523.876 4
1 8 7 -67.6034 107.753 4
-1 -8 -7 290.531 210.043 6
1 7 6 8367.95 1044.95 4
-1 -7 -6 11196.3 1382.95 5
-1 -7 -6 11955 1108.93 6
-1 -6 -5 809.071 257.354 6
1 6 5 952.761 294.35 4
-1 -6 -5 455.161 274.489 5
-1 -5 -4 46933.5 2459.35 6
-1 -5 -4 49005.1 2801.53 5
1 5 4 46029.8 2579.48 4
1 4 3 67.148 31.4215 2
-1 -4 -3 97.2841 92.8887 4
1 4 3 7.09368 14.155 3
-1 -4 -3 74.2766 111.166 5
1 4 3 -17.6943 48.4093 4
-1 -4 -3 53.873 75.0442 6
-1 -4 -3 205.49 102.555 3
-1 -4 -3 85.6453 33.0831 1
1 4 3 100.834 52.2493 1
-1 -3 -2 20325.4 1067.78 6
-1 -3 -2 19947.6 1197.17 3
1 3 2 20680.3 1298.69 3
1 3 2 19536.9 992.391 1
-1 -3 -2 19832.3 945.284 1
-1 -3 -2 19095.3 1235.16 5
1 3 2 17376.3 1164.11 5
1 3 2 20248.3 933.061 2
-1 -3 -2 20366.6 1159.59 4
1 3 2 20258.8 1163.24 4
1 2 1 334733 13516.9 2
1 2 1 328436 13555.4 6
1 2 1 348744 13815.8 3
-1 -2 -1 321590 13742.4 5
-1 -2 -1 326983 13659.7 4
1 2 1 317133 13709.2 5
-1 -2 -1 323870 13546.1 1
-1 -2 -1 345990 13745.3 3
-1 -2 -1 324586 13571.9 6
1 2 1 331256 13670 4
1 2 1 342352 13577.5 1
-1 -1 0 68028.6 3265.48 6
-1 -1 0 82418.9 3251.5 3
1 1 0 74696.1 3209.38 1
1 1 0 81529.1 3274.72 6
1 1 0 77728.5 3256.91 7
-1 -1 0 77635.8 3275.85 7
1 1 0 80382.7 3277.39 3
1 1 0 77251.1 3163.34 2
-1 -1 0 76678.3 3379.07 5
-1 -1 0 75856.3 3205.56 1
-1 -1 0 75350.8 3184.36 4
1 1 0 74746.6 3178.92 4
1 0 -1 181841 8414.78 6
-1 0 1 198373 8095.54 1
1 0 -1 177624 8449.84 7
-1 0 1 181907 8474.97 7
1 0 -1 196620 8110.32 1
1 0 -1 205168 8060.54 2
1 -1 -2 3335.96 268.162 1
-1 1 2 2930.98 237.442 1
1 -1 -2 2636.01 325.916 5
-1 1 2 3008.06 499.545 7
1 -1 -2 3762.18 240.813 2
1 -1 -2 3464.02 571.086 7
-1 2 3 265952 10762.6 1
-1 2 3 258438 11905.3 7
1 -2 -3 256009 11194.7 5
1 -2 -3 268820 10792.2 3
1 -2 -3 254778 10848.7 1
-1 2 3 271161 11006 4
1 -2 -3 260460 10757 2
1 -2 -3 242535 11925.6 7
1 -3 -4 7240.52 774.362 5
-1 3 4 9764.04 1219.17 7
1 -3 -4 7973.84 541.087 3
-1 3 4 9283.17 721.584 4
1 -4 -5 980.567 305.981 5
1 -4 -5 1389.02 213.426 3
1 -5 -6 14837.1 1468.61 5
-1 5 6 15966 1267.73 4
-1 6 7 1703.39 435.075 4
1 -6 -7 1768.74 554.516 5
1 -6 -7 2534.36 541.2 6
1 8 6 14.937 148.373 4
-1 -8 -6 74.6091 48.6884 6
-1 -7 -5 9117.49 954.823 6
-1 -7 -5 7755.43 1107.02 5
1 7 5 7780.57 943.096 4
-1 -6 -4 2049.85 384.816 6
-1 -6 -4 1240.82 397.771 5
1 6 4 1054.52 319.791 3
1 6 4 1411.93 337.841 4
1 5 3 15564.9 905.847 2
1 5 3 18478.3 1424.99 3
-1 -5 -3 16589.8 814.953 1
-1 -5 -3 15764.9 1312.96 5
1 5 3 16443.4 889.196 1
1 5 3 16143.6 806.823 2
-1 -5 -3 16883.1 1138.2 6
1 5 3 15589.6 1203.34 4
1 4 2 562482 23284.5 2
1 4 2 577413 23697.6 4
1 4 2 573807 23766.9 5
1 4 2 572915 23370.2 1
1 4 2 550383 23845.8 3
-1 -4 -2 561039 23851.1 5
-1 -4 -2 581693 23577.7 6
-1 -4 -2 553857 23657.5 4
-1 -4 -2 569393 23668.8 3
-1 -4 -2 586944 23311 1
-1 -3 -1 33921.7 1784.63 5
-1 -3 -1 32111.8 1491.71 1
1 3 1 31011.3 1644.05 4
1 3 1 30513.4 1556.01 6
1 3 1 33885.7 1763.62 3
1 3 1 31821.8 1510.47 1
1 3 1 34602.7 1741.13 5
-1 -3 -1 29727.8 1584.22 6
-1 -3 -1 26854.3 1588.04 4
-1 -3 -1 32908.5 1681.38 3
-1 -2 0 147159 5951.59 1
-1 -2 0 137585 6152.78 5
1 2 0 146980 6076.69 3
1 2 0 131931 5939.38 1
-1 -2 0 143974 6022.17 3
1 2 0 135266 6094.71 5
-1 -2 0 150227 6065.28 7
1 2 0 142740 5995.33 6
1 2 0 138141 5975.27 4
-1 -2 0 141996 6047.72 6
-1 -2 0 139038 5979.65 4
-1 -1 1 248.865 110.946 7
-1 -1 1 442.897 90.3319 3
1 1 -1 439.23 77.5907 4
1 1 -1 277.22 121.186 7
1 1 -1 390.407 90.9603 1
-1 -1 1 397.412 69.5978 4
-1 -1 1 230.268 68.6018 1
-1 -1 1 219.319 125.124 6
1 1 -1 623.298 103.454 3
1 1 -1 239.788 109.797 6
1 1 -1 375.298 143.548 5
-1 0 2 4835.27 355.376 1
1 0 -2 4379.61 347.546 1
-1 0 2 3466.39 529.086 7
1 0 -2 4360.65 575.098 7
-1 0 2 3818.97 525.86 6
1 0 -2 4942.36 595.441 6
1 0 -2 4580.57 257.545 3
-1 0 2 4975.46 250.069 3
-1 0 2 4157.8 268.27 4
-1 1 3 46726.3 2033.71 1
-1 1 3 45555.6 2828.07 7
1 -1 -3 45534.5 2833.88 7
1 -1 -3 45553.6 2048.41 1
-1 1 3 43056.4 2014.54 4
1 -1 -3 40050.4 2635.66 6
1 -2 -4 4302.57 515.982 5
1 -2 -4 3567.11 252.195 3
1 -2 -4 2913.32 289.813 1
-1 2 4 3549.8 286.664 1
-1 2 4 3289.29 691.298 7
1 -2 -4 3504.21 375.47 2
1 -2 -4 3619.61 270.219 2
-1 2 4 3425.41 345.368 4
1 -3 -5 49998.2 2228.9 2
1 -3 -5 48349.1 2761.76 5
1 -3 -5 46725.4 2183.56 3
1 -3 -5 49993.6 2103.1 2
1 -3 -5 47570.2 2196.77 1
-1 3 5 50071.7 2457.65 4
-1 3 5 43252.8 3365.44 7
1 -4 -6 8803.27 1025.12 5
-1 4 6 10959.3 902.589 4
1 -5 -7 12702.1 1357.68 5
-1 5 7 11723 1055.52 4
1 8 5 627.065 303.626 4
-1 -8 -5 943.877 321.267 6
-1 -7 -4 1191.41 346.421 6
1 7 4 777.384 362.333 3
-1 -7 -4 1435.78 456.656 5
1 7 4 988.049 336.08 4
1 6 3 117188 5865.44 3
1 6 3 101298 4918.32 2
1 6 3 120074 4915.94 1
-1 -6 -3 120808 5406.35 6
-1 -6 -3 123166 5845.83 5
1 6 3 111167 4778.36 2
1 6 3 113469 5503.24 4
-1 -5 -2 52461.5 2639.4 6
1 5 2 49766.5 2859.56 3
-1 -5 -2 51954.1 2899.78 5
1 5 2 44296.3 2488.31 2
1 5 2 50625.6 2342.93 1
-1 -5 -2 50813.1 2295.19 1
1 5 2 47089.6 2660.21 4
-1 -4 -1 69847.3 3355.57 3
1 4 1 67369 3263.25 6
-1 -4 -1 78703.1 3612.03 5
1 4 1 69156.2 3367.78 4
1 4 1 70554.5 3152.86 1
1 4 1 68774.2 3431.97 5
1 4 1 69411.2 3486.58 3
-1 -4 -1 71836.8 3356.13 6
-1 -4 -1 67708.4 3340.78 4
-1 -4 -1 68569.7 3125.88 1
-1 -3 0 12076.2 763.357 1
1 3 0 13325.3 926.542 5
1 3 0 13347.3 834.674 6
-1 -3 0 12233.7 849.047 3
-1 -3 0 13770.8 916.746 7
1 3 0 12032.3 830.456 4
1 3 0 12561.7 897.492 3
1 3 0 13094.1 788.191 1
-1 -3 0 12478.1 831.919 4
-1 -3 0 12092.7 874.954 6
-1 -3 0 13253.7 980.227 5
-1 -2 1 24198.5 1468.36 5
-1 -2 1 23802.6 1172.07 1
1 2 -1 21828.3 1123.88 4
1 2 -1 21850.5 1262.37 6
1 2 -1 21962.8 1195.82 3
-1 -2 1 23643.7 1183.02 3
-1 -2 1 22028.4 1122.75 4
-1 -2 1 18092.7 1219.16 7
-1 -2 1 18955.5 1274.84 6
1 2 -1 22605.5 1339.75 5
1 2 -1 23346.9 1251.48 7
1 2 -1 19194.9 1130.57 1
-1 -1 2 66205.7 2843.32 1
1 1 -2 64504.6 2665.73 4
-1 -1 2 57261.3 3171.56 7
1 1 -2 53550.3 2797.66 1
1 1 -2 56060.1 3206.53 5
-1 -1 2 63340 2744.48 3
1 1 -2 64334.9 3163.48 6
1 1 -2 66138.5 3107.36 7
1 1 -2 64510.9 2768.35 3
-1 -1 2 62877 2662.65 4
-1 -1 2 63299.2 3248.66 6
-1 0 3 71454.8 3172.34 1
1 0 -3 78485.2 3891.1 7
1 0 -3 71173.3 3016.36 3
-1 0 3 71251 2997.74 3
-1 0 3 77425.6 3952.78 7
-1 0 3 72785.3 3769.65 6
1 0 -3 64484.6 3151.87 1
1 0 -3 73916.7 3800.95 6
1 -1 -4 65791.8 3995.19 7
1 -1 -4 70600.2 2866.13 3
-1 1 4 67764.7 4007.29 7
1 -1 -4 64403.6 3831.24 6
-1 1 4 69126.5 3060.48 1
-1 1 4 69784.1 2940.37 4
1 -1 -4 59618.4 3032.92 1
-1 2 5 68879 3114.97 4
-1 2 5 64555.9 4218.23 7
-1 2 5 66653.2 3087 1
1 -2 -5 70799.6 2970.71 3
1 -2 -5 67592.3 3120.08 1
1 -2 -5 72034.4 2914.76 3
1 -2 -5 59050.8 3293.23 2
1 -2 -5 67677 3519.56 5
-1 3 6 12922.7 887.882 4
1 -3 -6 13682.6 660.032 3
1 -3 -6 12753.2 1181.3 5
-1 3 6 12884.1 1632.46 7
1 -3 -6 12557 696.278 2
1 -3 -6 11038.3 769.654 1
1 -4 -7 27479.9 2110.41 5
-1 4 7 29598.2 1732.63 4
1 -5 -8 19497.9 1829.22 5
1 8 4 66532.7 4472.9 3
-1 -8 -4 70585.6 4463.66 5
-1 -8 -4 70976.8 4006.48 6
1 8 4 67578 4045.34 4
-1 -7 -3 16375.8 1624.95 5
-1 -7 -3 14568.9 1303.66 6
1 7 3 13938.3 1306.15 4
1 7 3 15046.2 1590.73 3
-1 -6 -2 639.074 345.661 5
1 6 2 565.066 215.02 2
-1 -6 -2 672.67 247.155 6
1 6 2 1022.13 197.143 1
1 6 2 806.36 328.947 3
1 6 2 816.882 293.801 4
-1 -6 -2 598.183 149.713 1
1 5 1 20487.1 1377.61 2
1 5 1 19030.6 1146.4 1
-1 -5 -1 22367.7 1427.77 6
-1 -5 -1 18865.7 1107.54 1
1 5 1 20257.4 1497.47 3
-1 -5 -1 17307.8 1445.01 5
1 5 1 18189 1320.73 4
-1 -4 0 9102.64 876.847 5
1 4 0 10057.8 778.924 4
1 4 0 9007.94 713.32 6
-1 -4 0 9029.07 656.905 1
1 4 0 7334.31 759.471 3
-1 -4 0 9461.81 823.786 6
1 4 0 9190.62 818.874 5
-1 -4 0 8352.75 771.498 7
1 4 0 8573.82 649.489 1
1 4 0 7725.76 851.819 2
-1 -4 0 8800.55 739.561 4
-1 -3 1 46503.2 2295.19 3
1 3 -1 45177.1 2242.81 1
1 3 -1 43421 2334.41 6
-1 -3 1 47346.4 2483.43 6
1 3 -1 48470.3 2382.83 3
1 3 -1 45799.8 2435 5
-1 -3 1 42262.5 2522.92 5
-1 -3 1 44843.1 2387.45 7
-1 -3 1 45703.4 2255.21 4
1 3 -1 46708.4 2266.77 4
-1 -3 1 49537.5 2261.32 1
1 2 -2 39424.1 2009.1 3
-1 -2 2 37018.9 2389.13 5
-1 -2 2 40534.5 2011.23 1
-1 -2 2 39650.6 1973.95 3
-1 -2 2 43156 2370.38 6
1 2 -2 46470 2384.11 5
-1 -2 2 41815.8 1905.33 4
1 2 -2 42435.5 2231.29 6
1 2 -2 41510.9 2143.32 7
-1 -2 2 40813.1 2254.94 7
1 2 -2 38659.5 1893.52 4
1 2 -2 41076.7 2025.95 1
-1 -1 3 41115.4 2040.82 1
-1 -1 3 42616.7 1936.42 3
1 1 -3 38355.9 2509.67 5
1 1 -3 40773.6 1950.98 3
1 1 -3 39158.2 2032.44 1
-1 -1 3 40763.3 2518.33 6
-1 -1 3 43013.6 2609.71 7
1 1 -3 38229.2 2313.63 7
1 1 -3 41215.3 2384.18 6
-1 -1 3 42212.7 1786.22 4
1 1 -3 41936.2 1786.13 4
-1 0 4 12372.8 1362.51 7
-1 0 4 15161.2 782.394 3
1 0 -4 14624.5 934.174 1
1 0 -4 12489.6 1281.37 6
1 0 -4 16350.7 818.993 3
-1 0 4 13616.2 1352.69 6
1 0 -4 14686.2 1412.27 7
-1 0 4 14902.7 936.86 1
1 -1 -5 13980.2 738.38 3
-1 1 5 12091.9 1459.37 7
-1 1 5 16187.3 700.758 4
1 -1 -5 14367.3 923.613 1
1 -1 -5 13277.8 1105.27 2
-1 1 5 12933.5 882.324 1
-1 1 5 14383.9 693.865 4
1 -2 -6 34374.7 2246.44 2
1 -2 -6 42726.5 2466.83 5
1 -2 -6 42627.1 1810.46 3
-1 2 6 37933.8 3144.8 7
-1 2 6 43505.4 1941.21 4
-1 2 6 40249.1 2030.79 1
1 -2 -6 39265.1 1878.33 3
1 -2 -6 41915.9 2068.02 1
-1 3 7 44209.4 2193.19 4
-1 3 7 42785.5 3547.59 7
1 -3 -7 45321.9 2766.01 5
1 -4 -8 14555.1 1473.68 5
1 8 3 868.221 326.989 4
-1 -8 -3 609.739 283.559 6
-1 -8 -3 987.166 391.897 5
1 8 3 761.246 452.143 3
-1 -7 -2 549.469 234.32 5
1 7 2 883.438 184.79 2
1 7 2 749.625 284.772 4
1 7 2 1140.6 421.98 3
-1 -7 -2 857.561 326.309 6
1 7 2 995.967 227.951 1
-1 -6 -1 281.147 205.095 6
1 6 1 492.468 211.573 4
-1 -6 -1 831.797 326.483 5
-1 -6 -1 359.108 158.8 1
1 6 1 871.779 280.447 2
1 6 1 1099.73 250.122 1
1 6 1 985.038 318.36 3
1 5 0 10850.2 1060.49 2
1 5 0 12351.5 882.484 1
-1 -5 0 11193.9 1137.8 5
-1 -5 0 12578.6 1089.18 6
1 5 0 12399.5 1009.61 4
1 5 0 11618.6 1061.75 3
-1 -5 0 12568.9 1068.73 7
-1 -5 0 9761.21 807.115 1
1 4 -1 12043.8 875.216 1
-1 -4 1 13759.3 1102.64 6
-1 -4 1 12287.2 997.357 7
-1 -4 1 11642.9 1117.9 5
1 4 -1 9662.88 1081.87 2
1 4 -1 12726.5 929.637 4
1 4 -1 11607.5 987.996 3
-1 -4 1 11266.7 856.315 1
1 3 -2 35729.3 1991.68 3
1 3 -2 34434.8 2047.7 6
-1 -3 2 35032.4 1918.91 3
-1 -3 2 37903.4 2168.15 7
-1 -3 2 33580.1 2328.92 5
1 3 -2 36821.2 1949.84 1
1 3 -2 41845.2 2099.31 7
1 3 -2 36139.1 1875.57 4
-1 -3 2 37418.8 1882.85 4
-1 -3 2 37061.5 2243.35 6
1 3 -2 39715.8 2184.08 5
-1 -3 2 36965.4 1944.32 1
1 2 -3 141017 6243.49 1
1 2 -3 142226 6212.18 3
1 2 -3 140346 6540.79 6
-1 -2 3 126216 6245.37 1
-1 -2 3 146079 6160.83 3
-1 -2 3 145967 6017.92 4
-1 -2 3 126875 6634.51 7
1 2 -3 142572 6016.13 4
-1 -2 3 158733 6897.46 6
1 2 -3 147130 6722.73 5
1 2 -3 148420 6452.17 7
1 1 -4 34224.6 2239.36 7
-1 -1 4 35840 2483.32 6
-1 -1 4 38092.2 1774.47 3
-1 -1 4 32979.2 2481.71 7
1 1 -4 37961.4 1818.05 3
1 1 -4 36427 2259.96 2
1 1 -4 36377.2 1926.43 1
1 1 -4 31340.7 2407.24 5
-1 -1 4 35154.7 1913.14 1
-1 0 5 7556.19 1067.57 7
1 0 -5 9085.52 710.447 1
1 0 -5 8494.89 560.022 3
-1 0 5 7344.08 1004.13 6
-1 0 5 7892.62 523.342 3
1 0 -5 7849.31 882.686 2
-1 0 5 7667.96 664.753 1
1 -1 -6 99718.5 5246.52 2
1 -1 -6 112862 4925.93 1
-1 1 6 96149.6 6020.74 7
1 -1 -6 108126 5197.41 5
1 -1 -6 114528 4636.39 3
-1 1 6 100084 4853.27 1
-1 2 7 5408.01 1111.34 7
1 -2 -7 4844.58 457.48 1
1 -2 -7 5378.53 688.445 5
-1 3 8 160.835 351.663 7
1 -3 -8 616.848 321.294 5
1 -4 -9 9956.67 1247.43 5
-1 -8 -2 15811 1590.47 6
1 8 2 12368.8 1366.63 4
1 8 2 16010.7 1752.45 3
-1 -8 -2 15910.6 1766.73 5
1 7 1 606.364 257.894 4
1 7 1 781.388 326.373 3
-1 -7 -1 767.869 365.113 6
-1 -7 -1 457.448 222.753 7
1 7 1 1106.71 283.593 1
-1 -7 -1 891.082 378.471 5
-1 -6 0 6140.66 796.297 7
-1 -6 0 4148.16 742.046 5
-1 -6 0 4676.53 732.692 6
1 6 0 5785.77 603.863 1
1 6 0 5612.49 725.403 4
1 6 0 4843.12 744.987 3
-1 -5 1 28903.8 1990.14 6
1 5 -1 25613.1 1839.34 3
1 5 -1 28794.2 1778.82 4
-1 -5 1 29825.6 1928.64 7
1 5 -1 27937 1668.35 1
-1 -5 1 25111.3 2021.51 5
1 4 -2 4753.47 522.063 1
-1 -4 2 3234.5 590.386 6
-1 -4 2 4452.92 606.763 7
1 4 -2 4708.12 513.266 4
-1 -4 2 3500.71 661.055 5
1 4 -2 4787.43 585.77 3
-1 -3 3 62458.5 3454.9 7
-1 -3 3 65142.5 3577.15 6
-1 -3 3 51024.6 3521.1 5
1 3 -3 62336.1 3340.16 5
1 3 -3 62842.8 3130.17 3
1 3 -3 66839.4 3123.84 1
1 3 -3 61597.2 2935.38 4
1 2 -4 66708.5 3010.55 3
-1 -2 4 58516 3644.51 6
-1 -2 4 61179.8 3623.22 7
-1 -2 4 58565.9 2896.35 3
1 2 -4 62676.6 3534.56 5
1 2 -4 60364.2 3022.33 1
1 2 -4 60125.3 2703.11 4
-1 -1 5 147247 7653.42 7
1 1 -5 153617 6490.75 3
-1 -1 5 146725 6408.39 3
1 1 -5 146821 6642.45 1
-1 -1 5 153775 7590.48 6
-1 0 6 10122.9 1390.15 7
1 0 -6 10522.4 708.66 3
-1 0 6 8529.83 1250.35 6
1 0 -6 11409.6 881.535 1
-1 1 7 325.825 367.481 7
1 -1 -7 515.244 184.816 1
1 -1 -7 521.918 120.106 3
1 -1 -7 190.247 136.703 5
1 -2 -8 2656.72 538.224 5
1 -2 -8 2714.66 398.239 1
-1 3 9 810.232 599.566 7
1 -3 -9 630.131 350.167 5
-1 -8 -1 7070.5 1073.72 7
-1 -8 -1 8571.06 1160.74 6
1 8 1 6894.76 1140.1 3
-1 -8 -1 8828.74 1344.52 5
1 8 1 8758.25 1057.91 4
1 7 0 19069.3 1805.72 3
-1 -7 0 20994.1 1845.03 6
-1 -7 0 21603.2 2030.17 5
-1 -7 0 21198.9 1799.49 7
1 7 0 22134.8 1726.08 4
1 7 0 20517.1 1464.1 1
-1 -6 1 8053.59 1112.21 5
-1 -6 1 6420.39 931.948 6
1 6 -1 9798.28 1081.98 3
1 6 -1 6822.82 742.086 1
1 6 -1 7607.16 861.27 4
-1 -6 1 7466.06 929.624 7
1 5 -2 35828.6 2073.66 1
1 5 -2 33684 2224.71 3
-1 -5 2 31343.8 2217.87 7
-1 -5 2 38064.6 2672.7 5
-1 -5 2 34321 2436.26 6
1 5 -2 35323.1 2084.06 4
1 4 -3 1607.89 326.74 1
1 4 -3 2181.95 348.062 4
-1 -4 3 2047.74 456.013 7
1 4 -3 2094.21 405.31 3
-1 -4 3 2169.14 536.215 6
-1 -4 3 1801.79 519.365 5
1 3 -4 96255.9 4676.07 1
-1 -3 4 94964 5210.98 7
-1 -3 4 96838.6 5320.21 6
1 3 -4 97727.4 4663.08 3
1 3 -4 101274 4402.48 4
1 2 -5 62056.2 3127.76 1
-1 -2 5 61410.4 3906.16 6
1 2 -5 61446.3 3029.46 3
-1 -2 5 57988.2 3848.56 7
1 2 -5 59925.9 2645.86 4
1 1 -6 15856 995.416 3
-1 -1 6 12551 869.471 3
1 1 -6 12567.6 1063.84 1
-1 -1 6 11829.7 1529.49 7
-1 -1 6 11728.9 1510.25 6
-1 0 7 19754.6 2264.57 7
1 0 -7 26092.4 1418.22 3
-1 0 7 19910.3 2135.13 6
1 0 -7 25455.9 1621.44 1
1 -1 -8 4463.03 564.875 1
1 -1 -8 3694.11 628.301 5
-1 1 8 3625.38 952.373 7
-1 2 9 6254.89 1434.22 7
1 -2 -9 9634.67 1101.35 5
-1 -8 0 8442.6 1292.83 5
-1 -8 0 8620.22 1162.68 7
-1 -8 0 7588.28 1146.67 6
1 8 0 6594.23 960.857 4
1 8 0 5899.41 1059.21 3
-1 -7 1 15622.5 1597.79 6
1 7 -1 14720.1 1531.23 3
1 7 -1 13814.3 1202.98 1
-1 -7 1 16136.2 1815.03 5
-1 -7 1 13080.9 1437.81 7
1 7 -1 14419.8 1371.49 4
-1 -6 2 25523.9 2023.42 7
-1 -6 2 29612.3 2330.1 6
-1 -6 2 22755.6 2201.59 5
1 6 -2 25205.7 1768.04 1
1 6 -2 26218.8 2014.02 3
1 6 -2 28094.9 1875.19 4
1 5 -3 25232.1 1865.41 3
1 5 -3 26043.1 1730.14 1
-1 -5 3 24723.3 1972.18 7
-1 -5 3 27461.7 2187.19 6
1 5 -3 26822.6 1690.41 4
-1 -4 4 9401.98 1162.49 7
1 4 -4 11434.7 1046.65 3
-1 -4 4 9280.69 1260.25 6
1 4 -4 8881.72 891.95 1
1 4 -4 9622.91 804.183 4
1 3 -5 22949 1551.68 1
-1 -3 5 17771.9 1914.34 6
1 3 -5 21292.5 1485.15 3
-1 -3 5 22744.5 2070.45 7
1 3 -5 21525.7 1220.65 4
1 2 -6 23033.2 1512.28 3
-1 -2 6 21201 2182.29 6
-1 -2 6 26626.1 2407.5 7
1 2 -6 24548.8 1642.44 1
-1 -1 7 10480.3 1566.49 7
1 1 -7 12349.6 1076.37 1
1 1 -7 12932.5 958.517 3
-1 -1 7 11801.2 1617.08 6
1 0 -8 37076.3 2159.61 1
-1 0 8 27226.1 2817.24 6
-1 0 8 29373.2 2981.87 7
1 -1 -9 23085.4 1880.34 5
-1 1 9 24737.2 2783.61 7
1 -1 -9 25317.6 1700.65 1
-1 2 10 372.004 296.225 7
1 -2 -10 495.363 290.418 5
-1 -8 1 5893.76 1222.27 5
-1 -8 1 8187.21 1179.38 7
1 7 -2 8529.3 962.512 1
-1 -7 2 8095.34 1250.76 6
-1 -7 2 7540.17 1102.5 7
-1 -7 2 10383.2 1519.84 5
1 7 -2 11118.5 1109.54 4
1 7 -2 9460.21 1254.78 3
1 6 -3 32071.5 2146.94 1
-1 -6 3 32543.3 2693.89 6
-1 -6 3 31897 2849.95 5
-1 -6 3 31724.2 2469.89 7
1 6 -3 31382.5 2368.69 3
1 6 -3 33249 2131.21 4
1 5 -4 14641.7 1252.3 1
1 5 -4 14053 1341.3 3
-1 -5 4 10200.7 1487.69 5
-1 -5 4 14502.4 1686.84 6
1 5 -4 14890.6 1154.53 4
-1 -5 4 10446.3 1350.23 7
1 4 -5 869.192 279.372 1
-1 -4 5 265.043 320.669 7
-1 -4 5 164.366 273.12 6
1 4 -5 619.467 265.585 3
1 4 -5 559.854 176.449 4
1 3 -6 35680.6 2208.34 3
-1 -3 6 34246.1 2961.93 7
-1 -3 6 29606.9 2846.5 6
1 3 -6 39784.4 2337.07 1
1 2 -7 13145.3 1051.63 3
1 2 -7 10735.1 1074.5 1
-1 -2 7 12231.4 1695.01 6
-1 -2 7 11009.9 1635.22 7
1 1 -8 27793.1 1690.54 3
-1 -1 8 27114.8 2740.67 6
-1 -1 8 26241.4 2745.83 7
1 1 -8 25918.9 1864 1
-1 0 9 13860.9 2023.55 7
1 0 -9 13990.9 1352.16 5
1 0 -9 15500.3 1299.93 1
-1 0 9 11618.4 1796.41 6
-1 1 10 24264.9 2913.17 7
1 -1 -10 25986.4 2076.09 5
-1 -8 2 3584.86 1074.7 5
1 8 -2 2704.4 602.078 1
1 7 -3 1052.18 323.104 1
1 7 -3 1122.14 342.455 4
-1 -7 3 494.407 291.158 7
-1 -7 3 898.367 609.917 5
1 6 -4 13103.9 1243.59 1
-1 -6 4 8456.65 1271.25 7
1 6 -4 11541.5 1325.17 3
-1 -6 4 13309.2 1684.32 6
1 6 -4 12467.6 1133.75 4
-1 -6 4 11012.8 1617.64 5
1 5 -5 36185.5 2455.41 3
-1 -5 5 36902 3083.45 6
-1 -5 5 28873.3 2680.24 7
1 5 -5 32751 2268.78 1
-1 -4 6 4360.07 942.448 7
-1 -4 6 4608.43 1081.75 6
1 4 -6 6074.74 813.91 3
1 4 -6 6507.56 811.983 1
1 3 -7 22540.8 1721.46 3
-1 -3 7 22350.5 2482.13 6
-1 -3 7 27833.7 2721.23 7
1 3 -7 28114.7 1951.85 1
-1 -2 8 3378.68 912.451 7
1 2 -8 4883.76 639.468 3
-1 -2 8 3030.83 889.356 6
1 2 -8 2788.2 568.017 1
-1 -1 9 6080.51 1419.92 7
-1 -1 9 5864.94 1315.2 6
1 0 -10 15016.7 1338.76 1
-1 0 10 12376.2 2040.1 7
1 0 -10 11307 1297.3 5
-1 -7 4 21082.3 2165.6 7
1 6 -5 20744.2 1898.7 3
-1 -6 5 18641 2078.16 7
1 6 -5 18627 1682.31 1
-1 -5 6 10044.9 1554.51 7
1 5 -6 9969.52 1157.2 3
1 5 -6 7367.55 1016.56 1
-1 -5 6 8485.37 1582.36 6
1 4 -7 12839.5 1330.93 1
-1 -4 7 16053.5 2126.57 6
-1 -4 7 11540.3 1851.98 7
1 4 -7 12058.2 1275.67 3
-1 -3 8 9460.12 1646.26 6
-1 -3 8 8083.23 1466.4 7
1 3 -8 8134.56 971.996 3
1 3 -8 11559 1190.69 1
-1 -2 9 542.371 446.79 7
-1 -1 10 1020.42 716.519 7
-1 -6 6 412.814 832.935 7
-1 -5 7 7033.4 1428.52 7
-1 -4 8 3467.53 1309.44 7
1 4 -8 1263.51 439.852 3
2 0 11 2093.25 741.653 6
2 -1 10 9842.92 1583.39 6
-2 1 -10 7865.42 964.926 3
-2 2 -9 5574.25 831.622 3
2 -2 9 4791.76 1102.81 6
-2 3 -8 7522.76 992.852 3
2 -3 8 8728.64 1432.7 6
2 -4 7 14056.7 1867.12 6
2 1 11 9.68566 46.7185 6
-2 -1 -11 1321.67 369.061 1
2 0 10 3580.96 899.382 6
-2 0 -10 3469.3 596.489 3
-2 0 -10 3986.54 662.018 1
-2 1 -9 1261.07 363.579 3
2 -1 9 2264.49 729.352 6
-2 1 -9 1413.87 412.112 1
-2 2 -8 13710.4 1284.06 1
-2 2 -8 13364.4 1268.3 3
2 -2 8 10039.3 1568.9 6
-2 3 -7 14561.2 1326.09 1
-2 3 -7 13823.3 1339.11 3
2 -3 7 11590.3 1569.61 6
2 -4 6 44479.8 3499.29 6
-2 4 -6 44981.2 3080.69 3
-2 4 -6 52183 2957.87 4
-2 5 -5 1034.27 351.676 4
-2 5 -5 1013.44 416.468 3
2 -5 5 775.573 401.437 6
-2 5 -5 1348.99 409.095 1
-2 6 -4 292.443 185.615 4
-2 6 -4 320.158 255.948 1
-2 -2 -11 7962.69 887.048 1
-2 -1 -10 143.061 169.676 3
2 1 10 512.029 220.203 6
-2 -1 -10 245.192 177.781 1
-2 0 -9 20681.1 1556.82 1
-2 0 -9 18988.5 1480.11 3
2 0 9 20259.2 2112.53 6
2 -1 8 10577.1 1232.96 7
-2 1 -8 11071.3 1043.11 3
2 -1 8 10539.5 1451.81 6
-2 1 -8 9665.59 1010.82 1
-2 2 -7 15359 1298.76 1
2 -2 7 14898.5 1454.39 7
-2 2 -7 15476.6 1281.14 3
2 -2 7 15290.9 1650.33 6
-2 2 -7 12003.3 986.091 4
2 -3 6 18873.8 1834.94 6
-2 3 -6 16156.7 1450.48 1
-2 3 -6 17282.5 1484.59 3
2 -3 6 19428.1 1627.97 7
-2 3 -6 20039.3 1384.83 4
-2 4 -5 1630.78 392.561 4
2 -4 5 1005.12 334.73 7
-2 4 -5 1219.51 421.231 3
2 -4 5 613.99 241.105 6
-2 4 -5 652.547 271.123 1
-2 5 -4 16409.3 1352.19 1
2 -5 4 11995.6 1479.77 6
-2 5 -4 14454.8 1458.25 3
-2 5 -4 15215.2 1373.93 4
-2 6 -3 1392.56 451.873 4
-2 6 -3 1114.7 392.473 3
-2 6 -3 1005.77 306.187 1
-2 -2 -10 20154.9 1448.06 1
2 2 10 16918.9 1922.17 7
-2 -2 -10 18889 1383.54 3
-2 -2 -10 18884.1 1456.58 5
-2 -1 -9 22750.1 1627.7 1
-2 -1 -9 22366.4 1538.06 3
-2 -1 -9 22171 1478.71 5
2 1 9 23136.5 2057.18 7
2 1 9 20232.9 2063.17 6
-2 0 -8 22551.3 1564.94 3
2 0 8 22733.7 2116.28 6
2 0 8 22362.1 1913.01 7
-2 0 -8 22833.3 1381.65 5
-2 0 -8 25944.9 1681.22 1
2 -1 7 9998.76 1105.46 7
2 -1 7 12003.5 1356.83 6
-2 1 -7 9985.98 937.191 3
-2 1 -7 11006.5 794.761 4
-2 1 -7 9561.4 940.963 1
-2 2 -6 2789.75 410.181 4
2 -2 6 3508.44 634.067 7
-2 2 -6 3311.86 507.555 3
2 -2 6 1858.15 540.538 6
-2 2 -6 2978.08 501.457 1
2 -2 6 3300.48 757.942 2
-2 3 -5 38295.1 2389.14 3
2 -3 5 38561.9 2654.73 6
2 -3 5 36376.9 2345.84 7
-2 3 -5 40270.4 2279.11 4
-2 3 -5 39753.8 2349.66 1
2 -4 4 10650 1022.48 7
-2 4 -4 11022.2 1123.3 3
2 -4 4 14429.8 1285.14 5
2 -4 4 10314 1194.01 6
-2 4 -4 12873 1126.77 4
-2 4 -4 9395.97 1004.46 1
-2 5 -3 12478.5 1116.48 1
2 -5 3 11173.9 1113.39 7
-2 5 -3 13397.7 1322.88 3
2 -5 3 12894.5 1401.44 6
2 -5 3 12292.2 1274.02 5
-2 5 -3 14536.2 1298 4
-2 6 -2 14467.2 1218.48 1
2 -6 2 14445.1 1380.79 7
-2 6 -2 14194.5 1473.18 3
2 -6 2 16916.4 1694.05 6
-2 6 -2 13009.6 1385.44 4
2 -7 1 3728.9 707.352 7
-2 -4 -11 4798.67 786.264 5
-2 -3 -10 25168.3 1634.74 1
-2 -3 -10 25844 1638.4 3
-2 -3 -10 26906.6 1895.38 5
-2 -2 -9 14279.4 1174.31 5
-2 -2 -9 16084.5 1143.28 3
2 2 9 13130.8 1563.05 6
2 2 9 15382.1 1663.47 7
-2 -2 -9 14234.9 1123.4 1
-2 -1 -8 23112.2 1554.13 3
2 1 8 22009.1 2044.34 6
-2 -1 -8 27702.9 1566 5
-2 -1 -8 26130.6 1646.65 1
2 1 8 26441.9 2069.58 7
2 0 7 6829.39 988.352 6
-2 0 -7 6725.22 552.125 5
-2 0 -7 6994.28 691.4 3
-2 0 -7 5992.23 675.455 1
2 0 7 7145.67 879.707 7
2 0 7 7396.72 996.139 2
-2 0 -7 6359.58 770.851 5
-2 0 -7 5557.9 501.25 4
-2 0 -7 5489.93 622.626 7
2 -1 6 13572.1 1427.43 2
-2 1 -6 13470.4 900.765 7
2 -1 6 13573.8 1204.19 7
2 -1 6 12261.5 1250.1 6
-2 1 -6 14457.1 911.761 5
-2 1 -6 15453.8 1115.28 3
-2 1 -6 12505.1 1057.33 1
-2 1 -6 12363.2 907.34 4
2 -2 5 7394.77 779.795 7
-2 2 -5 8315.17 732.994 4
-2 2 -5 7954.22 784.043 3
2 -2 5 7184.09 896.551 6
-2 2 -5 7412.64 558.664 5
2 -2 5 7059.54 997.302 2
-2 2 -5 5986.42 762.048 1
2 -3 4 20998.8 1958.28 2
2 -3 4 24287.8 1594.41 7
-2 3 -4 25828.1 1420.81 5
-2 3 -4 25758.9 1721.81 3
2 -3 4 24267.1 1855.06 6
2 -3 4 25362.3 1735.09 5
-2 3 -4 26426.1 1662.78 4
-2 3 -4 27388.8 1685.28 1
2 -4 3 18112.3 1309.8 7
2 -4 3 15625.1 1473.7 6
-2 4 -3 18585.7 1451.95 3
2 -4 3 17621.9 1400.77 5
-2 4 -3 17984.5 1388.63 4
-2 4 -3 17256.2 1292.36 1
2 -5 2 8252.2 1026.83 6
2 -5 2 8229.04 914.31 7
-2 5 -2 8045.66 963.094 3
-2 5 -2 9451.17 852.946 1
2 -5 2 9850.52 1048.52 5
-2 5 -2 8935.84 1000.36 4
-2 6 -1 34041.6 2092.57 1
-2 6 -1 34759.3 2500.06 3
2 -6 1 35734.8 2537.27 5
2 -6 1 37526.1 2688.94 6
-2 6 -1 39317.8 2575.79 4
-2 7 0 1086.71 368.244 3
2 -7 0 1762.75 536.258 5
-2 -5 -11 1554.4 510.087 5
-2 -4 -10 5175.23 772.152 5
-2 -3 -9 12066.5 987.231 1
-2 -3 -9 13242.3 1178.96 5
-2 -3 -9 14872.6 1056.26 3
2 2 8 2392.09 537.508 6
-2 -2 -8 2764.18 398.937 3
-2 -2 -8 2628.08 422.198 5
-2 -2 -8 3052.99 420.416 1
2 2 8 2073.14 497.142 2
2 2 8 2702.12 607.128 7
2 1 7 44458.5 2841.98 7
2 1 7 46331 2941.89 2
2 1 7 43938.2 2942.62 6
-2 -1 -7 47549.2 2452.37 3
-2 -1 -7 47230.5 2794.44 7
-2 -1 -7 51593.9 2401.52 5
-2 -1 -7 44084.7 2210.69 4
-2 -1 -7 48079.7 2496.65 1
2 0 6 57055.8 3406.84 2
2 0 6 61845.1 3216.53 7
-2 0 -6 56882.1 2822.71 7
2 0 6 57521.1 3352.22 6
-2 0 -6 62003.3 2683.66 5
-2 0 -6 55714.2 3003.52 5
-2 0 -6 56808 2939.04 1
-2 0 -6 54722.8 2724.24 4
-2 0 -6 59277.4 2923.39 3
2 -1 5 18452.4 1676.67 2
-2 1 -5 22915.7 1152.04 5
-2 1 -5 22843.7 1438.7 1
2 -1 5 20224 1556.62 6
2 -1 5 20950.8 1462.94 7
-2 1 -5 21517.4 1391.65 3
2 -2 4 9002.34 755.193 7
-2 2 -4 9492.85 841.702 3
2 -2 4 10013.4 947.373 6
2 -2 4 9704 1076.72 2
-2 2 -4 9596 625.636 5
-2 2 -4 10095.2 851.557 1
2 -3 3 8671.74 744.527 7
2 -3 3 7364.46 863.147 6
-2 3 -3 8404.71 654.605 5
2 -3 3 10785.5 867.378 5
-2 3 -3 9489.48 856.829 3
2 -3 3 8340.06 1024.81 2
-2 3 -3 9152.66 833.985 4
-2 3 -3 7405.19 771.284 1
2 -4 2 9568.13 886.007 7
2 -4 2 10186.5 1047.92 6
-2 4 -2 9922.73 950.099 3
2 -4 2 11031.5 988.143 5
-2 4 -2 8239.14 768.116 5
2 -4 2 9859.74 1123.25 2
-2 4 -2 9869.58 962.555 4
-2 4 -2 10437.8 864.156 1
2 -5 1 16062.8 1373.59 5
-2 5 -1 15442.9 1309.32 3
-2 5 -1 12373.3 1232.94 4
-2 5 -1 15279.2 1075.19 1
2 -6 0 26802.9 2019.64 5
2 -6 0 21752.9 1874.6 6
-2 6 0 21958.5 1788.13 3
-2 6 0 20343.4 1771.29 4
2 -7 -1 3674.34 826.356 5
-2 7 1 3305.93 707.12 3
-2 -5 -10 5812.76 909.612 5
-2 -4 -9 2352.22 356.549 3
-2 -4 -9 1226.76 369.095 5
-2 -3 -8 20997.3 1332.83 3
-2 -3 -8 20852.8 1504.14 5
2 3 8 22091.8 1255.92 4
-2 -3 -8 21318.8 1315.52 1
-2 -2 -7 8415.07 735.143 5
2 2 7 8799.25 961.341 2
2 2 7 8645.2 1024.44 7
-2 -2 -7 9413.02 732.878 3
-2 -2 -7 6512.07 985.778 7
-2 -2 -7 7500.18 851.909 6
2 2 7 8376.81 613.387 4
2 2 7 7880.31 963.529 6
-2 -2 -7 8096.56 699.646 1
-2 -2 -7 7569.78 580.179 4
2 1 6 95106.8 4742.28 2
2 1 6 89236.3 4685.72 6
-2 -1 -6 93294.5 4239.1 3
-2 -1 -6 86035.2 4333.44 6
-2 -1 -6 95485.6 4596.04 7
-2 -1 -6 91854.5 4079.88 4
-2 -1 -6 90549.3 4120.63 5
-2 -1 -6 97863.7 4303.31 1
2 1 6 93278 4601.73 7
2 0 5 36867.3 2524.48 2
2 0 5 44720.3 2383.53 7
-2 0 -5 45350.7 2250.75 3
2 0 5 40618.6 2457.46 6
-2 0 -5 44227.5 1978.33 5
-2 0 -5 42784.5 2207.92 5
-2 0 -5 46898 2120.66 7
-2 0 -5 42184.6 2294.71 1
-2 0 -5 44724.8 2262.88 6
-2 0 -5 42265.6 2123.17 4
2 -1 4 1364.83 243.924 7
-2 1 -4 1604.14 283.147 6
2 -1 4 633.532 213.564 6
2 -1 4 1648.91 389.411 2
-2 1 -4 1539.27 278.373 1
-2 1 -4 1169.59 236.444 3
-2 1 -4 1507.72 156.741 5
2 -2 3 35484.1 2373.01 2
2 -2 3 38761.5 1911.82 7
-2 2 -3 35327.1 2036.84 3
-2 2 -3 40321.4 1816.96 5
2 -2 3 37266.1 1966.78 5
-2 2 -3 39994.2 2088.1 1
2 -2 3 36274.5 2149.25 6
-2 3 -2 15194.3 1112.99 3
-2 3 -2 14255.5 959.178 5
2 -3 2 14597.7 1175.61 6
2 -3 2 16373.7 1099.91 5
-2 3 -2 15038.5 1135.56 4
-2 3 -2 13680.9 1058.21 1
2 -4 1 14194 1242.88 2
2 -4 1 11996.1 1108.82 6
-2 4 -1 13334.7 1093.85 3
2 -4 1 13616 1117.91 5
-2 4 -1 11598.4 1084.21 4
-2 4 -1 13948 983.662 1
2 -5 0 11725.4 1160.04 6
-2 5 0 9620.8 1016.34 3
2 -5 0 11798.7 1144.94 5
-2 5 0 12198.5 1169.3 4
-2 5 0 10534 824.133 1
-2 6 1 11188.4 1188.5 4
2 -6 -1 11130.5 1207.97 6
-2 6 1 10928.5 1151.36 3
2 -6 -1 8855.13 1154.2 5
2 -7 -2 708.61 548.183 5
-2 7 2 478.357 287.065 3
-2 -6 -10 2974.2 673.141 5
-2 -5 -9 14528.3 1073.61 3
2 5 9 13415.1 1087.61 4
-2 -5 -9 15246.2 1446.65 5
-2 -4 -8 9331.85 772.758 3
-2 -4 -8 9309.98 971.768 5
2 4 8 9623.63 769.714 4
-2 -4 -8 8667.9 662.041 1
2 3 7 9726.18 1004.76 2
-2 -3 -7 13382.5 1005.02 2
-2 -3 -7 10940.3 1125.37 6
-2 -3 -7 14811.4 1102.75 5
-2 -3 -7 13622.1 936.914 3
-2 -3 -7 12986.1 886.968 4
-2 -3 -7 13455.8 896.091 1
2 3 7 14505.2 919.268 4
-2 -2 -6 3761.96 657.318 7
-2 -2 -6 3963.61 423.736 3
-2 -2 -6 3360.79 471.465 6
2 2 6 2807.64 490.751 6
-2 -2 -6 4223.88 452.953 5
2 2 6 2320.62 441.809 2
-2 -2 -6 3725.98 408.94 1
-2 -2 -6 3678.01 373.719 4
-2 -2 -6 3963.6 511.682 2
2 2 6 3304.33 356.672 4
2 1 5 6802.4 736.019 2
2 1 5 5731.53 629.632 7
-2 -1 -5 5714.67 650.374 2
2 1 5 8054.18 760.539 6
-2 -1 -5 6399.5 552.644 3
-2 -1 -5 6832.3 570.967 6
-2 -1 -5 6360.66 477.361 5
-2 -1 -5 6839.91 586.115 1
-2 -1 -5 5828.88 654.603 7
-2 -1 -5 6697.44 517.707 4
-2 0 -4 122018 6247.66 2
2 0 4 137892 6437.45 2
-2 0 -4 140328 5811.37 7
2 0 4 137232 5998.3 7
2 0 4 134733 6180.02 6
-2 0 -4 135168 6098.16 1
2 0 4 139826 6049.75 3
-2 0 -4 138484 6058.21 3
-2 0 -4 138114 6028.92 6
-2 0 -4 145346 5848.77 5
-2 0 -4 143788 5743.2 5
-2 0 -4 130889 5990.18 4
-2 1 -3 22787 1574.93 2
2 -1 3 21756.7 1623.95 2
2 -1 3 24977.6 1273.61 7
2 -1 3 26591.5 1436.77 3
-2 1 -3 24934.8 1422.35 6
2 -1 3 25309.1 1495.59 6
-2 1 -3 26329.3 1455.72 3
-2 1 -3 28308.6 1171.74 5
2 -1 3 25189.3 1274.01 5
-2 1 -3 25426.1 1460.91 1
-2 2 -2 153486 6873.9 2
2 -2 2 167298 7088.21 2
2 -2 2 144660 6635.04 3
-2 2 -2 153401 6700.82 6
2 -2 2 149436 6761.16 6
-2 2 -2 149671 6689.62 3
-2 2 -2 152417 6483.45 5
2 -2 2 159231 6574.53 5
-2 2 -2 153007 6665.93 1
-2 3 -1 3603.42 482.095 4
2 -3 1 3596.15 469.011 6
2 -3 1 3246.04 576.691 7
-2 3 -1 3506.76 473.301 2
-2 3 -1 2692.71 392.825 3
-2 3 -1 3316.82 379.191 1
-2 3 -1 3034.32 385.403 5
2 -3 1 2911.83 508.632 2
2 -3 1 3402.22 431.006 5
-2 4 0 118.849 124.709 4
-2 4 0 57.9319 85.7276 2
-2 4 0 25.5292 17.9058 3
-2 4 0 52.8374 72.3332 1
2 -4 0 109.22 76.04 5
2 -4 0 218.432 136.392 2
2 -4 0 113.806 115.569 6
-2 5 1 3887.53 604.726 4
2 -5 -1 4494.34 639.338 6
-2 5 1 4172.9 419.651 1
2 -5 -1 4303.49 653.608 5
-2 5 1 4914.04 646.27 3
2 -6 -2 16232.1 1479.97 6
-2 6 2 13959.7 1394.72 3
2 -6 -2 19150.6 1673.18 5
-2 6 2 15117.5 1441.49 4
2 -7 -3 19759.9 1932.71 5
2 6 9 7026.9 784.749 4
-2 -6 -9 7270.72 1024.5 5
-2 -5 -8 9491.73 1069.58 5
2 5 8 9627.27 878.098 4
-2 -4 -7 26696 2102.48 6
2 4 7 32209.6 1870.64 2
-2 -4 -7 34098 2091.41 5
-2 -4 -7 31860.7 1683.34 2
-2 -4 -7 33039 1632.62 1
2 4 7 33803.3 1848.37 4
2 3 6 12342.7 985.051 2
-2 -3 -6 13164.7 1364.43 7
-2 -3 -6 13370.7 1083.12 6
2 3 6 12871.9 954.246 5
-2 -3 -6 12875.6 984.381 5
-2 -3 -6 12099.1 807.273 1
-2 -3 -6 11520.3 834.793 4
2 3 6 12663.5 866.243 4
-2 -3 -6 11845.6 858.989 2
2 2 5 45933.9 2381.49 2
-2 -2 -5 42461.3 2189.68 6
2 2 5 41887.1 2323.84 6
2 2 5 43451.1 2123.69 5
-2 -2 -5 39046.5 2125 5
-2 -2 -5 43073 2122.57 3
-2 -2 -5 45706.6 2615.22 7
-2 -2 -5 43608.2 2092.36 4
2 2 5 43430.2 2097.99 4
-2 -2 -5 44941.7 2252.7 2
-2 -1 -4 105083 4559.31 2
2 1 4 98229.3 4634.18 2
-2 -1 -4 96348.1 4469.64 7
-2 -1 -4 99071.5 4351.21 3
-2 -1 -4 98648.1 4294.84 6
-2 -1 -4 97040.3 4207.74 5
2 1 4 97597 4473.45 6
-2 -1 -4 97400.3 4312.22 4
2 1 4 100219 4319.75 4
-2 0 -3 172114 7099.7 2
2 0 3 142683 7102.28 2
-2 0 -3 163008 6860.72 3
2 0 3 157941 6843.56 3
-2 0 -3 166596 6797.48 6
2 0 3 153722 6852.29 6
-2 0 -3 165171 6867.84 4
-2 1 -2 42538.1 2259.96 2
2 -1 2 45975.9 2412.09 2
2 -1 2 42846.7 2108.11 3
-2 1 -2 43900.8 2118.34 6
2 -1 2 44350.6 2159.83 6
-2 1 -2 43284.1 1922 5
2 -1 2 43708.6 1946.75 5
2 -1 2 47868.6 2174.68 7
-2 1 -2 42635.3 2121.25 3
2 -2 1 32950.8 1921.63 2
2 -2 1 31681.6 1658.72 3
-2 2 -1 30905.9 1684.09 3
2 -2 1 30593.5 1739.14 6
-2 2 -1 33155 1627.83 5
2 -2 1 30579.4 1963.5 7
2 -2 1 32057.6 1661.65 5
-2 2 -1 36017.6 1813.12 2
2 -3 0 11845.8 949.332 2
2 -3 0 10642.7 882.207 6
-2 3 0 10245.3 813.424 5
2 -3 0 10085.3 1153.64 7
-2 3 0 11557.2 802.838 2
2 -3 0 10506.4 767.008 3
-2 3 0 9835.07 799.852 3
2 -3 0 11337.4 884.72 5
-2 3 0 10283.6 885.584 4
-2 3 0 10766.4 739.346 1
-2 4 1 2264.01 403.022 4
-2 4 1 1835.77 262.227 2
2 -4 -1 1605.61 361.271 6
-2 4 1 2559.59 294.943 1
-2 4 1 2868.75 420.046 3
2 -4 -1 2499.75 443.225 5
2 -4 -1 2840.37 414.041 2
-2 5 2 51070.9 3013.5 3
2 -5 -2 55400 3165.75 6
2 -5 -2 57994.3 3313.02 5
-2 5 2 59678.2 3217.18 4
2 -6 -3 3771.08 726.806 5
-2 6 3 2889.4 587.689 4
2 -6 -3 2297.51 550.309 6
-2 6 3 1235.26 452.34 3
2 7 9 1660.68 456.259 4
-2 -7 -9 905.204 388.107 5
-2 -6 -8 14950.8 1132.75 6
-2 -6 -8 16811.3 1580.64 5
2 6 8 15424.5 1274.92 4
2 5 7 1553.14 312.698 4
-2 -5 -7 1879.81 455.336 5
-2 -5 -7 1634.63 175.015 1
2 4 6 75641.7 3481.57 2
-2 -4 -6 74814 3277.01 2
2 4 6 71159.9 3530.83 4
-2 -4 -6 76029.6 3510.4 1
-2 -4 -6 66756.7 3823.63 6
-2 -4 -6 77596.6 3793.03 5
-2 -4 -6 74847.6 3254.68 1
-2 -4 -6 66360.5 3461.45 4
2 3 5 42257.8 2184.56 2
-2 -3 -5 41407.3 2267.28 6
-2 -3 -5 40514.1 2632.9 7
2 3 5 41674.5 2179.31 5
-2 -3 -5 41475.9 2220.37 5
-2 -3 -5 41689.8 2106.85 4
2 3 5 42556.7 2123.03 4
-2 -3 -5 42026.9 2044.31 2
2 2 4 36888.5 1926.1 2
-2 -2 -4 36425.4 1756.17 6
2 2 4 36637.1 1796.94 5
-2 -2 -4 37245.9 1829.29 5
-2 -2 -4 36664.4 2112.35 7
-2 -2 -4 35482.8 1798.18 4
2 2 4 36226.8 1799.37 4
-2 -2 -4 35928.5 1841.42 2
2 1 3 76586.5 3601.56 2
-2 -1 -3 76795.2 3292.15 6
-2 -1 -3 78245.9 3430.58 3
2 1 3 74940.4 3362.02 6
2 1 3 79961.3 3288.27 5
-2 -1 -3 84343 3450.74 7
-2 -1 -3 74657.8 3303.01 5
-2 -1 -3 77450.2 3443.13 4
-2 -1 -3 78834.9 3546.4 2
2 1 3 74431.4 3428.74 4
2 0 2 6863.5 583.248 2
-2 0 -2 5244.54 428.214 3
-2 0 -2 6814.73 434.555 6
2 0 2 6200.66 456.59 3
2 0 2 6189.23 433.581 6
-2 0 -2 5678.09 509.657 2
2 -1 1 114097 5051.48 2
2 -1 1 106988 5073.78 7
-2 1 -1 110008 4846.95 3
2 -1 1 111008 4899.91 6
2 -1 1 114453 4792.94 5
2 -1 1 113755 4844.75 3
-2 1 -1 114984 4958.5 2
2 -2 0 91258.9 4393.54 2
2 -2 0 101540 4892 7
2 -2 0 94571.3 4225.63 3
-2 2 0 95919 4272.24 3
-2 2 0 97380.4 4308.96 5
2 -2 0 98245.7 4351.09 5
2 -2 0 95777 4389.48 6
-2 2 0 99417.1 4283.56 2
2 -3 -1 77998.9 3389.5 2
2 -3 -1 71352.3 3201.56 3
2 -3 -1 73736.9 3470.17 6
-2 3 1 69860 3280.55 3
-2 3 1 66916.8 3317.25 1
-2 3 1 64332.5 3369.45 5
2 -3 -1 74847.6 3487.52 5
-2 3 1 73305.4 3464.01 4
-2 3 1 61682.4 3079.61 1
-2 3 1 69566.5 3124.53 2
-2 4 2 3000.79 478.089 4
2 -4 -2 3749.03 439.352 2
2 -4 -2 3470.26 527.625 6
-2 4 2 4278.33 345.744 1
2 -4 -2 3158.67 536.381 5
-2 4 2 3700.23 476.261 3
-2 4 2 4027.56 327.007 2
2 -4 -2 3357.04 396.27 3
-2 4 2 3729.11 390.04 1
2 -5 -3 7427.9 889.829 6
-2 5 3 6972.16 833.582 4
2 -5 -3 5236.26 814.601 5
-2 5 3 6017.99 759.432 3
-2 6 4 1450.44 421.024 4
2 -6 -4 1416.49 418.688 6
2 -6 -4 901.537 355.398 5
-2 -7 -8 651.005 391.97 5
2 7 8 1488.98 405.882 4
-2 -6 -7 9721.1 875.472 6
-2 -6 -7 10564.8 1194.47 5
2 6 7 10462.3 1020.8 4
-2 -5 -6 98734.1 4298.26 6
2 5 6 89100 4072.24 2
-2 -5 -6 88235.5 3950.11 1
-2 -5 -6 100636 4831.6 5
-2 -5 -6 96793.4 3938.55 1
2 5 6 95571.2 4505.93 4
2 4 5 74826.3 3520.61 2
-2 -4 -5 80709.5 3520.79 1
-2 -4 -5 81066.2 4038.82 3
-2 -4 -5 74991.5 3852 5
-2 -4 -5 81280.5 3391.63 2
-2 -4 -5 74954.1 3676.46 4
2 4 5 72471.2 3676.61 4
2 3 4 14833.1 892.137 2
-2 -3 -4 15169.3 1265.94 7
-2 -3 -4 15027.6 957.47 1
-2 -3 -4 14015.7 945.251 6
2 3 4 13464.5 930.811 5
2 3 4 14053.1 924.394 4
-2 -3 -4 14280.1 990.732 5
-2 -3 -4 12651.3 890.601 4
-2 -3 -4 13245.1 791.784 2
-2 -2 -3 464.11 155.668 1
-2 -2 -3 683.369 148.713 4
2 2 3 421.266 110.385 4
-2 -2 -3 674.377 128.044 2
2 2 3 424.021 113.749 2
2 2 3 574.078 123.645 5
-2 -2 -3 652.124 143.357 5
-2 -1 -2 40515 1723.89 7
2 1 2 39926.5 1764.57 5
2 1 2 38732.7 1676.58 6
-2 -1 -2 40623.4 1820.26 5
-2 -1 -2 37877.4 1858.89 4
-2 -1 -2 39939.4 1884.86 2
2 1 2 36314.4 1895.45 2
2 1 2 39465.1 1865.48 4
-2 0 -1 3770.94 305.173 3
2 0 1 3830.55 374.681 7
-2 0 -1 4713.4 415.279 7
2 0 1 3974.45 311.211 3
-2 0 -1 3949.19 356.284 2
2 0 1 3790.26 378.029 2
2 -1 0 173405 8251.44 7
-2 1 0 183378 7742.43 3
-2 1 0 185436 8007.12 1
2 -1 0 191487 7743.33 3
2 -1 0 190907 7838.94 5
-2 1 0 198716 8278.54 7
-2 1 0 188710 7804.31 2
2 -1 0 170948 7853.89 2
2 -2 -1 86126.1 3938 2
2 -2 -1 87409.4 4668.56 7
2 -2 -1 90785.6 3816.87 3
-2 2 1 84467.3 3842.88 3
-2 2 1 88406.8 3975.59 1
2 -2 -1 88252 4052.61 5
-2 2 1 87294.2 3804.5 2
2 -3 -2 7195.95 587.718 2
-2 3 2 7635.79 554.962 1
2 -3 -2 7855.02 555.813 3
2 -3 -2 7181.07 746.675 5
-2 3 2 6909.35 597.278 3
-2 3 2 9041.83 782.953 4
-2 3 2 7998.74 485.976 2
2 -4 -3 9267.79 931.687 6
2 -4 -3 7136.02 524.464 2
2 -4 -3 9846.99 994.22 5
-2 4 3 8715 476.282 1
2 -4 -3 9705.35 667.772 3
-2 4 3 7290.86 783.474 3
-2 4 3 8033.84 823.49 4
-2 4 3 8905.11 468.79 1
-2 5 4 6867.11 822.852 4
2 -5 -4 8674.42 956.123 6
2 -5 -4 8908.01 1052.64 5
-2 6 5 5987.11 813.103 4
2 -6 -5 5421.47 843.263 6
2 -6 -5 4943.7 896.812 5
2 8 8 4499.57 786.976 4
-2 -7 -7 18963.5 1405.84 6
-2 -7 -7 18754.7 1815.69 5
2 7 7 19227 1583.88 4
-2 -6 -6 10005.7 846.547 6
2 6 6 8822.35 965.575 4
2 5 5 23955.2 1257.07 2
-2 -5 -5 24148.2 1173.32 1
-2 -5 -5 27242.9 1438.93 6
2 5 5 25044.6 1604.12 4
-2 -5 -5 25982.1 1785.56 5
-2 -4 -4 56346.8 2521.44 1
-2 -4 -4 55434.2 2543.94 6
-2 -4 -4 52488.1 2890.66 5
-2 -4 -4 57215.7 2443.91 2
-2 -4 -4 52537.3 2747.83 4
2 4 4 54460.1 2770.05 4
2 4 4 53717 2530.98 2
-2 -4 -4 58275 3029.53 3
-2 -3 -3 17840.3 995.016 1
-2 -3 -3 17327.8 839.642 6
2 3 3 14026.2 1018.51 5
-2 -3 -3 15647.5 1082.3 5
-2 -3 -3 17965.3 897.405 2
-2 -3 -3 17996.8 1058.03 4
2 3 3 16730.8 1042.6 4
2 3 3 15946.1 922.552 2
-2 -3 -3 16257.4 1221.76 3
2 2 2 52723.6 2739.48 1
-2 -2 -2 60602.4 2724.16 1
2 2 2 54083.4 2639.28 5
-2 -2 -2 60329 2710.67 5
-2 -2 -2 59746.6 2569.92 2
-2 -2 -2 58455.4 2650.89 4
2 2 2 56604.8 2584.89 2
2 2 2 56610.5 2641.93 4
2 1 1 48174.9 2579.66 1
2 1 1 53921.2 2407.9 7
-2 -1 -1 52953.2 2560.21 1
2 1 1 53603.2 2501.03 6
2 1 1 53060.3 2529.66 5
-2 -1 -1 49752.6 2584.77 5
-2 -1 -1 57155.7 2492.52 7
-2 -1 -1 55584.1 2436.42 2
2 1 1 56456 2460.59 2
-2 -1 -1 55686.7 2464.15 4
2 1 1 54614.6 2451.54 4
2 0 0 5868.99 624.907 7
-2 0 0 6049.7 632.163 7
-2 0 0 6435.62 385.07 3
2 0 0 6217.58 564.701 1
-2 0 0 6905.46 538.066 1
-2 0 0 6404.26 442.77 2
2 0 0 6706.13 469.824 2
2 -1 -1 72566.6 3914.16 7
-2 1 1 71516.6 3314.21 1
2 -1 -1 75278.6 3131.84 3
-2 1 1 71845.7 3135.03 3
-2 1 1 70527.5 3845.56 7
2 -1 -1 72522.3 3376.48 5
-2 1 1 73460.8 3201.4 2
2 -1 -1 77223.9 3264.34 2
-2 2 2 41104.9 2751.68 7
2 -2 -2 39820.5 2839.82 7
-2 2 2 41173.8 1988.09 1
-2 2 2 42532.9 1962.52 3
2 -2 -2 41006.2 2246.01 5
-2 2 2 42882.3 1907.63 2
2 -2 -2 42205.7 1893.31 3
2 -2 -2 42938.9 1999.22 2
2 -3 -3 23748.4 1263.05 2
-2 3 3 24606.6 1191.81 1
2 -3 -3 25451.7 1682.63 5
-2 3 3 25086.3 1404.81 3
-2 3 3 25275.5 1543.58 4
2 -3 -3 25662.4 1246.95 3
2 -4 -4 52447.7 2777.45 5
-2 4 4 54534.2 2539.48 4
-2 5 5 5691.83 745.216 4
2 -5 -5 5007.02 817.564 5
-2 6 6 412.155 210.313 4
2 -6 -6 46.01 99.0606 6
2 8 7 14394.4 1403.51 4
-2 -7 -6 187.056 122.806 6
-2 -7 -6 296.446 252.319 5
2 7 6 139.227 163.779 4
2 6 5 5364.82 332.186 2
2 6 5 4196.35 322.616 2
-2 -6 -5 6657.38 618.038 6
2 6 5 4288.35 656.05 4
-2 -6 -5 6276.38 827.814 5
-2 -5 -4 36032.1 1747.16 1
-2 -5 -4 38186.6 2353.12 5
-2 -5 -4 39545.7 1973.63 6
2 5 4 38946.2 2190.09 4
2 5 4 38688.6 1792.53 2
-2 -4 -3 5428.73 626.898 5
-2 -4 -3 5938.66 466.821 6
2 4 3 5737.82 522.403 1
2 4 3 6086.84 611.807 5
-2 -4 -3 6238.89 649.052 3
-2 -4 -3 5282.52 423.854 1
-2 -4 -3 6298.46 586.419 4
2 4 3 4643.64 521.993 4
2 4 3 5222.83 408.233 2
2 3 2 102146 4197.36 6
-2 -3 -2 97554.3 4235.85 6
2 3 2 90345.6 4378.97 1
-2 -3 -2 111188 4656.25 3
2 3 2 91912.1 4459.13 5
-2 -3 -2 96953.9 4531.06 5
-2 -3 -2 100178 4310.62 1
-2 -3 -2 100203 4224.86 2
2 3 2 97475.2 4253.77 2
-2 -3 -2 103455 4440.38 4
2 3 2 96610.5 4411.34 4
-2 -2 -1 56880.9 2619.55 7
2 2 1 55231.1 2647.37 1
-2 -2 -1 54043.6 2586.5 6
2 2 1 55367.5 2501.82 6
-2 -2 -1 48351.1 2766.4 3
2 2 1 56221.7 2690.59 5
-2 -2 -1 61895.5 2813.75 5
-2 -2 -1 58733.2 2613.69 1
-2 -2 -1 59096.6 2519.95 2
2 2 1 57728.8 2530.27 2
-2 -2 -1 55592.6 2597.84 4
2 2 1 57354 2596.82 4
2 1 0 33687.1 1935.86 6
2 1 0 36605.9 1877.39 7
-2 -1 0 33308.7 1929.08 7
2 1 0 36976.6 1840.46 1
-2 -1 0 37636.1 1830.04 3
2 1 0 39395.9 2085.88 5
-2 -1 0 37511.5 1974.6 6
-2 -1 0 39343.1 1722.04 2
2 1 0 36209.8 1720.2 2
-2 -1 0 36319.5 1737.89 4
2 1 0 34393.1 1717.07 4
-2 -1 0 40718.4 1829.19 1
-2 0 1 2835.55 319.166 1
-2 0 1 2643.29 491.327 7
2 0 -1 2814.29 354.072 1
-2 0 1 3601.96 214.357 3
2 0 -1 2697.66 455.346 6
2 0 -1 3558.95 535.851 7
-2 0 1 4016.78 307.821 2
2 0 -1 3439.22 303.09 2
-2 0 1 3850.14 327.449 4
-2 1 2 65863 3790.03 7
2 -1 -2 62386.4 3786.73 7
-2 1 2 68390.8 3002.1 1
2 -1 -2 68352.3 3133.65 1
2 -1 -2 68132.9 3207.08 5
2 -1 -2 65101.3 2961.68 2
-2 2 3 132069 5592.27 1
2 -2 -3 135845 5431.67 3
-2 2 3 124943 6786.78 7
2 -2 -3 113084 5735.18 1
-2 2 3 132096 5814.93 4
2 -2 -3 130648 6013.83 5
2 -2 -3 133812 5605.4 2
-2 3 4 6703.26 405.664 1
-2 3 4 5917.57 1015.5 7
2 -3 -4 6473.17 396.159 3
2 -3 -4 5641.35 734.943 5
-2 3 4 7201.29 673.848 4
2 -3 -4 6239.27 442.749 2
2 -4 -5 25495.7 1861.62 5
-2 4 5 20280.3 1483.75 4
-2 5 6 1370.22 356.963 4
2 -5 -6 1181.36 446.09 5
2 8 6 4233.11 826.801 4
-2 -8 -6 7720.51 866.286 6
-2 -8 -6 6388.05 1147.42 5
2 7 5 7657.43 901.054 4
-2 -7 -5 9292.57 1174.03 5
-2 -7 -5 7229.55 795.105 6
-2 -6 -4 7738.12 717.582 6
-2 -6 -4 7365.68 923.868 5
2 6 4 6924.75 830.283 4
2 6 4 7463.72 513.017 2
-2 -6 -4 7751.19 496.224 1
-2 -5 -3 46364.7 2216.3 1
2 5 3 49628.7 2384.86 1
-2 -5 -3 54081.6 2845.71 5
-2 -5 -3 54512.1 2471.08 6
2 5 3 51051.3 2931.6 3
2 5 3 51047.5 2617.52 4
-2 -4 -2 11267.7 955.241 5
-2 -4 -2 10309.4 690.103 1
2 4 2 12032 727.72 6
-2 -4 -2 10504.5 744.699 6
-2 -4 -2 10811.5 874.619 3
2 4 2 10422.2 996.536 3
2 4 2 11336.4 763.933 1
2 4 2 10493.4 874.937 5
2 4 2 10195.1 653.425 2
-2 -4 -2 10657.4 833.216 4
2 4 2 9945.01 828.869 4
2 3 1 116728 5252.37 1
-2 -3 -1 115769 5345.35 7
2 3 1 122003 5185.71 6
-2 -3 -1 125947 5299.82 6
-2 -3 -1 127509 5428.26 3
2 3 1 115770 5546.06 3
-2 -3 -1 126269 5226.35 1
2 3 1 126794 5471.17 5
-2 -3 -1 115747 5501.71 5
2 3 1 115948 5138.48 2
-2 -3 -1 119825 5304.7 4
2 3 1 120871 5300.62 4
2 2 0 229900 9599.84 7
-2 -2 0 222402 9662.75 7
-2 -2 0 240148 9528.43 1
-2 -2 0 238149 9946.28 5
-2 -2 0 235977 9766.47 6
-2 -2 0 225337 9595.39 3
2 2 0 201402 9505.86 1
2 2 0 249699 9828.47 5
2 2 0 198948 9700.95 3
2 2 0 208130 9410.28 2
2 2 0 239710 9639.13 6
-2 -2 0 238578 9498.87 4
2 2 0 240865 9500.69 4
2 1 -1 3308.32 347.715 1
-2 -1 1 3708.78 535.53 7
-2 -1 1 4339.76 371.38 1
-2 -1 1 3881.01 313.035 3
2 1 -1 4485.78 555.878 6
2 1 -1 3698.42 466.62 7
-2 -1 1 3893.88 538.41 6
2 1 -1 4396.28 574.345 5
2 1 -1 3243.89 298.477 2
-2 -1 1 3341.25 295.46 4
2 1 -1 3316.09 292.215 4
-2 0 2 138913 7007.44 7
2 0 -2 132930 6880.51 6
2 0 -2 156086 7042.01 7
2 0 -2 135495 6268.72 1
2 0 -2 137137 6153.83 2
-2 0 2 165330 6271.81 1
-2 0 2 151444 6174.43 4
2 -1 -3 2788.7 634.7 7
2 -1 -3 2028.84 317.812 1
-2 1 3 2988.41 303.385 1
-2 1 3 3213.71 649.772 7
2 -1 -3 3418.99 303.312 2
-2 2 4 6019.5 457.535 1
2 -2 -4 7515.8 604.157 1
-2 2 4 5104.36 948.699 7
-2 2 4 7113.06 588.671 4
2 -2 -4 5962.86 690.229 5
2 -2 -4 6325.38 464.128 2
-2 3 5 4163 486.494 4
2 -3 -5 3836.99 610.766 5
-2 3 5 3789.07 934.365 7
-2 3 5 3866.54 304.943 1
2 -3 -5 4080.77 329.963 2
2 -4 -6 25819.3 2048.81 5
-2 4 6 26910.5 1720.34 4
2 -5 -7 19246.9 1846.96 5
2 8 5 264.169 231.853 4
-2 -8 -5 617.371 291.523 6
-2 -8 -5 600.044 478.996 5
2 7 4 2831.29 566.858 4
-2 -7 -4 3864.51 589.749 6
-2 -7 -4 4104.62 801.392 5
2 7 4 2483.86 615.746 3
-2 -6 -3 25570.9 1580.37 6
2 6 3 24957.8 1417.27 1
2 6 3 25004.9 1964.3 3
-2 -6 -3 26795.9 1938.65 5
2 6 3 22772.7 1248.74 2
2 6 3 20682.3 1580.12 4
-2 -6 -3 23066.2 1256.22 1
2 5 2 31651.4 2119.24 3
-2 -5 -2 31264.8 1573.92 1
2 5 2 29176 1647.02 6
2 5 2 28702.8 1629.97 1
-2 -5 -2 32754.8 1794.72 6
-2 -5 -2 31047.9 2054.09 5
2 5 2 29280.9 1521.42 2
2 5 2 31562.9 1852.82 4
-2 -4 -1 61799.2 2813.71 1
-2 -4 -1 66613.2 3095.75 7
2 4 1 60264.8 2858.7 1
-2 -4 -1 58656.2 2956.19 6
-2 -4 -1 57030.9 2992.53 3
2 4 1 57249.9 3064.55 5
-2 -4 -1 57121.8 3180.23 5
2 4 1 66603.2 3252.61 3
2 4 1 58572.6 2737.58 2
-2 -4 -1 60262.1 2960.23 4
2 4 1 59783.8 2832.89 6
2 4 1 61469.4 2966.3 4
-2 -3 0 19890.8 1258.87 7
-2 -3 0 19598.9 1130.29 1
2 3 0 19255.3 1163.4 6
-2 -3 0 18873.1 1259.23 6
-2 -3 0 20121.3 1215.88 3
2 3 0 20076.1 1298.17 3
2 3 0 18510.3 1295.53 5
-2 -3 0 18817.6 1400.26 5
-2 -3 0 20682.7 1163.1 4
2 3 0 19728.5 1142.17 4
2 3 0 18840.2 1140.85 1
-2 -2 1 508922 22424.4 7
-2 -2 1 525350 22592.1 6
2 2 -1 535321 22304.8 7
-2 -2 1 544102 22071.7 3
2 2 -1 523934 22170.6 3
2 2 -1 566840 22402.1 6
-2 -2 1 557744 22135.7 1
2 2 -1 544446 22604.5 5
-2 -2 1 504494 22696.8 5
2 2 -1 552425 22157.2 1
-2 -2 1 547540 22038.9 4
2 2 -1 515334 22009.4 4
-2 -1 2 171.876 62.9658 4
-2 -1 2 154.375 123.942 7
2 1 -2 115.576 107.609 6
2 1 -2 103.794 52.1589 4
-2 -1 2 100.223 132.069 6
-2 -1 2 63.9568 39.2959 1
-2 -1 2 115.878 57.3414 3
2 1 -2 44.1217 49.6676 1
2 1 -2 126.456 80.6675 3
2 1 -2 104.571 119.148 7
2 0 -3 135.674 249.157 7
2 0 -3 368.478 98.5161 2
-2 0 3 423.444 96.0867 4
-2 0 3 188.6 170.484 7
-2 0 3 191.323 87.6479 1
2 0 -3 91.5745 76.5413 1
2 0 -3 590.676 238.926 6
-2 1 4 16791.4 995.716 1
-2 1 4 17398.9 1816.02 7
2 -1 -4 17318.3 1080.04 1
2 -1 -4 17107.5 960.716 2
-2 1 4 16504.6 958.847 4
-2 2 5 2036.68 287.913 4
2 -2 -5 2114.87 249.755 2
2 -2 -5 2493.41 337.258 1
2 -2 -5 1649.39 390.088 5
-2 2 5 1462.27 220.488 1
-2 3 6 33575.3 3097.94 7
2 -3 -6 39136.4 2488.69 5
-2 3 6 36284.6 2016.13 4
2 -4 -7 15853.2 1592.79 5
-2 -8 -4 49879.3 3035.34 6
2 8 4 47354.1 3556.25 3
-2 -8 -4 49535.6 3512.35 5
2 8 4 53230.8 3228.42 4
2 7 3 9653.4 812.97 1
-2 -7 -3 10146.6 1020.59 6
-2 -7 -3 9686.13 1215.7 5
2 7 3 9463.8 1242.19 3
2 7 3 9883.56 691.678 2
2 7 3 11720 1140.76 4
-2 -6 -2 56704.2 3074.17 6
2 6 2 56301.8 2833.13 1
2 6 2 60772.6 3515.1 3
-2 -6 -2 60239 3473.81 5
2 6 2 58623 2700.1 2
2 6 2 59253.9 3136.05 4
-2 -6 -2 53525.1 2722.42 1
2 5 1 642.145 198.498 4
-2 -5 -1 553.907 210.843 7
-2 -5 -1 535.126 184.7 6
2 5 1 515.639 170.313 1
2 5 1 398.245 217.458 3
-2 -5 -1 303.217 186.178 5
-2 -5 -1 648.027 168.27 1
-2 -4 0 39378.6 2017.07 1
-2 -4 0 39396.8 2235.75 7
2 4 0 37735 2072.72 6
-2 -4 0 42931.9 2306.82 6
2 4 0 41962.4 2300.94 3
-2 -4 0 39718.6 2450.7 5
2 4 0 40165.4 2057.91 1
-2 -4 0 38300.2 2080.89 4
2 4 0 37865.6 2088.36 4
-2 -3 1 38657.4 1876.59 1
2 3 -1 36914.7 2001.06 7
2 3 -1 32856.8 1847.24 1
2 3 -1 32878.1 1957.6 6
-2 -3 1 32486 2096.7 6
-2 -3 1 36246 1880.65 3
2 3 -1 35018.7 1951.56 3
2 3 -1 33489.7 2094.8 5
-2 -3 1 36173 2356.6 5
-2 -3 1 35540.9 2083.31 7
-2 -3 1 38092.3 1839.1 4
2 3 -1 34463.9 1805.56 4
-2 -2 2 3674.08 412.48 1
-2 -2 2 4141.59 633.491 7
2 2 -2 4586.12 460.888 1
-2 -2 2 4238.35 393.266 3
2 2 -2 4026.46 434.702 3
2 2 -2 3605.53 503.624 7
-2 -2 2 4552.9 666.843 6
2 2 -2 3599.28 584.369 6
2 2 -2 3479.16 573.834 5
-2 -2 2 3953.98 349.256 4
2 2 -2 4612.16 370.956 4
-2 -1 3 42090.2 2115.57 1
-2 -1 3 41222.9 2816.74 7
-2 -1 3 40658.7 1889.34 3
2 1 -3 38917.9 2589.83 6
-2 -1 3 38067.8 2652.08 6
2 1 -3 39783.9 1974.92 3
2 1 -3 40944.4 2548.71 7
2 1 -3 41909 2128.63 1
-2 -1 3 43692.9 1874.2 4
-2 0 4 18908 1151.62 1
2 0 -4 20218.2 1198.56 1
2 0 -4 16925.2 906.126 3
-2 0 4 16699 1766.85 7
-2 0 4 21450.1 949.864 4
-2 1 5 52066.6 2677.39 1
-2 1 5 53481.3 3852.38 7
2 -1 -5 58303.2 2644.28 2
-2 1 5 54995.9 2517.4 4
2 -1 -5 56285.8 2770.98 1
-2 1 5 58328.3 2533.62 4
-2 2 6 1712.82 246.675 4
2 -2 -6 2263.9 289.02 2
-2 2 6 1598.69 267.244 1
2 -2 -6 1717.74 292.414 1
-2 2 6 1955.4 748.638 7
2 -2 -6 1882.73 431.55 5
-2 3 7 6298.65 1336.07 7
2 -3 -7 9998.85 1129.04 5
2 -4 -8 5717.51 920.9 5
-2 -9 -4 12465.4 1364.36 6
2 9 4 11666 1633.41 3
-2 -8 -3 21848 1747.42 6
2 8 3 20805.8 2070.27 3
-2 -8 -3 20837.7 2024.9 5
2 8 3 14526.8 1464.04 4
2 7 2 3332.93 382.555 2
2 7 2 2992.97 555.937 4
-2 -7 -2 3911.69 672.645 7
-2 -7 -2 3418.16 582.899 6
-2 -7 -2 2680.9 651.561 5
2 7 2 2783.37 628.516 3
2 7 2 3783.98 479.943 1
-2 -6 -1 27820.6 1976.48 7
2 6 1 27994.1 1692.53 1
-2 -6 -1 29954.6 1982.64 6
2 6 1 28458.8 2136.4 3
-2 -6 -1 30594.9 2223.84 5
2 6 1 27751.7 1870.48 4
2 5 0 8981.88 971.022 3
2 5 0 8895.24 772.466 1
-2 -5 0 10091.6 1117.91 5
-2 -5 0 8706.29 921.194 6
-2 -5 0 8458.5 896.04 7
2 5 0 10727.1 896.545 4
-2 -4 1 20132.9 1488.41 7
-2 -4 1 22024.3 1600.45 6
2 4 -1 21714.3 1466.11 3
2 4 -1 21008.2 1330.89 1
-2 -4 1 18816.2 1672.96 5
-2 -4 1 20163.5 1272.97 4
2 4 -1 20387.6 1288.19 4
-2 -3 2 53945.8 3113.03 7
2 3 -2 54789 2762.63 1
-2 -3 2 56341.9 3231.91 6
-2 -3 2 55607.8 2705.27 3
2 3 -2 55418.9 2813.99 3
-2 -3 2 47045.2 3266.44 5
-2 -3 2 57192.7 2634.87 4
2 3 -2 54550.4 2607.13 4
-2 -2 3 52628.3 3349.64 7
2 2 -3 54530.5 2764.69 1
-2 -2 3 47003.4 3250.46 6
2 2 -3 57461.6 2718.21 3
-2 -2 3 55697.2 2605.29 3
-2 -2 3 57133.7 2523.24 4
2 2 -3 55322.2 2494.78 4
-2 -1 4 40976.5 3092.38 7
-2 -1 4 44090.6 2104.83 3
-2 -1 4 45235.4 3079 6
2 1 -4 48389.6 2428.87 1
2 1 -4 45430 2201.29 3
-2 -1 4 47387.5 1990.99 4
-2 0 5 55342.4 3939.31 7
2 0 -5 59647.2 2931.38 1
2 0 -5 58433.8 2579.04 3
-2 1 6 18537.6 2157.84 7
2 -1 -6 19302.2 1502.01 5
-2 1 6 22694.4 897.348 4
2 -1 -6 21677.6 1327.96 1
-2 1 6 16399.1 869.037 4
2 -2 -7 712.249 229.72 1
2 -2 -7 1120.15 232.049 2
-2 2 7 1809.26 725.808 7
2 -2 -7 1197.82 405.751 5
-2 3 8 8236.99 1540.58 7
2 -3 -8 9041.34 1141.76 5
-2 -9 -3 3453.11 723.13 6
2 8 2 1841.77 499.651 4
-2 -8 -2 3174.19 626.048 6
-2 -8 -2 2306.86 580.451 7
-2 -8 -2 3001.48 758.268 5
2 8 2 1661.58 565.492 3
2 7 1 11291.4 999.843 1
-2 -7 -1 10865.1 1198.29 6
-2 -7 -1 12903.4 1329.67 7
2 7 1 10916 1305.21 3
-2 -7 -1 11932 1412.11 5
2 7 1 13385.9 1212.23 4
2 6 0 5784.87 745.18 4
-2 -6 0 6621.33 867.731 7
2 6 0 7094.51 728.229 1
-2 -6 0 6424.81 844.653 6
2 6 0 5619.6 841.386 3
-2 -6 0 7442.54 1026.92 5
2 5 -1 5361.86 626.921 1
-2 -5 1 6218.88 798.816 7
-2 -5 1 7475.04 916.09 6
2 5 -1 4376.95 657.724 3
-2 -5 1 5731.15 917.905 5
2 5 -1 6583.69 675.116 4
-2 -4 2 16099.3 1411.52 7
2 4 -2 18279.7 1312.98 3
-2 -4 2 16397.7 1513.46 6
-2 -4 2 16215 1644.92 5
2 4 -2 16781.6 1194.69 1
-2 -4 2 15075.5 1062.1 4
2 4 -2 16519.8 1117.03 4
2 3 -3 21938.1 1447.27 1
-2 -3 3 19959.6 1780.39 7
2 3 -3 21109.9 1418.85 3
-2 -3 3 23016.4 1255.99 4
-2 -3 3 21867.9 1880.68 6
2 3 -3 23611 1269.49 4
-2 -2 4 30246.3 2564.35 7
-2 -2 4 39007.1 2748.21 6
2 2 -4 34900.7 2005.73 1
2 2 -4 33424.4 1865.66 3
-2 -2 4 31341.3 1755.3 3
-2 -2 4 36367.2 1626.98 4
2 2 -4 35679.2 1622.42 4
-2 -1 5 48031 3579.26 7
-2 -1 5 47944.2 2334.62 3
2 1 -5 53225.5 2471.64 3
2 1 -5 54196.6 2718.34 1
-2 -1 5 50215.8 3523.48 6
-2 0 6 33190.9 3063.7 7
2 0 -6 36340.2 1742.83 3
2 0 -6 38906.7 2134.77 1
2 -1 -7 20121.9 1375.35 1
-2 1 7 15796.4 2136.32 7
2 -1 -7 20086.9 1593.5 5
-2 2 8 583.27 631.142 7
2 -2 -8 1173.76 410.737 5
-2 -9 -2 1495.42 558.161 6
2 8 1 840.732 313.523 4
-2 -8 -1 673.053 377.146 7
-2 -8 -1 423.918 267.623 6
2 8 1 1143.52 478.402 3
-2 -8 -1 1179.35 522.977 5
2 7 0 9293.26 955.704 1
-2 -7 0 9854.9 1167.78 6
2 7 0 9198.52 1197.09 3
-2 -7 0 9992.38 1367.41 5
2 7 0 11165.8 1113.67 4
-2 -7 0 8775.22 1119.39 7
-2 -6 1 47986.1 3104.67 7
-2 -6 1 54220.4 3603.96 5
2 6 -1 52299.7 3185.4 3
-2 -6 1 49596.7 3222.77 6
2 6 -1 54967.8 2877.94 1
2 6 -1 48803.5 2859.86 4
2 5 -2 5578.78 629.811 4
-2 -5 2 5673.62 903.523 6
-2 -5 2 5209.41 789.023 7
2 5 -2 6028.43 778.362 3
2 5 -2 5742.65 656.136 1
-2 -5 2 3521.98 803.921 5
-2 -4 3 5865.64 920.581 7
2 4 -3 9723.88 908.086 3
2 4 -3 7579.04 772.643 1
-2 -4 3 7830.52 1087.6 6
-2 -4 3 6325.06 1013.48 5
-2 -4 3 6919.97 645.996 4
2 4 -3 7734.63 667.281 4
-2 -3 4 88940.3 5200.51 7
-2 -3 4 92487.3 5272.05 6
2 3 -4 92729.7 4382.68 3
-2 -3 4 90347.7 4044.74 4
2 3 -4 97598.8 4477.51 1
2 3 -4 87889.8 4044.43 4
2 2 -5 2994.38 463.45 1
-2 -2 5 3606.18 863.864 6
-2 -2 5 3254.25 376.09 3
-2 -2 5 3016.26 862.918 7
2 2 -5 2948.22 418.182 3
2 2 -5 2917.28 205.891 4
2 1 -6 20824.8 1433.26 1
-2 -1 6 16753.5 1049.39 3
-2 -1 6 22007.8 2205.76 6
2 1 -6 22262.4 1233.2 3
-2 -1 6 17996.2 2100.51 7
-2 0 7 22544.8 2524.91 7
2 0 -7 23635.2 1592.41 1
-2 1 8 7682.35 1500.94 7
2 -1 -8 5930.7 852.968 5
2 -1 -8 5798.03 696.797 1
-2 2 9 4708.41 1288.39 7
2 -2 -9 4684.63 844.414 5
-2 -8 0 3888.63 774.617 7
-2 -8 0 3947.96 849.348 6
2 8 0 2822.57 613.873 4
2 8 0 4241.15 686.291 1
2 8 0 5612.38 994.744 3
-2 -8 0 4026.77 944.032 5
-2 -7 1 16446.7 1652.56 7
2 7 -1 19814.5 1478.35 1
-2 -7 1 16905.3 1783.51 6
2 7 -1 17422.7 1694.34 3
-2 -7 1 15957.2 1901.84 5
2 7 -1 16545.3 1461.54 4
-2 -6 2 14558 1474.12 7
2 6 -2 15248.3 1247.89 1
-2 -6 2 13934.9 1588 6
-2 -6 2 12891.4 1676.46 5
2 6 -2 12101.9 1155.11 4
2 6 -2 16982.7 1511.95 3
-2 -5 3 76877.9 4654.63 7
2 5 -3 82850.2 4222.64 1
-2 -5 3 86008.5 4933.1 6
2 5 -3 86772.5 4432.7 3
-2 -5 3 79977.6 5128.81 5
2 5 -3 81057 4029.03 4
-2 -4 4 9897.2 1332.48 7
2 4 -4 11815 1065.05 1
2 4 -4 11302.7 1055.58 3
-2 -4 4 11688.3 1523.64 6
2 4 -4 11503.3 862.976 4
2 3 -5 4629.04 624.877 1
2 3 -5 4203.69 556.273 3
-2 -3 5 4380 927.614 7
2 3 -5 4170.51 377.897 4
2 2 -6 693.987 251.201 1
-2 -2 6 673.599 342.566 6
2 2 -6 780.951 227.951 3
-2 -2 6 887.975 607.232 7
-2 -1 7 1306.09 631.661 7
2 1 -7 1884.36 398.766 1
-2 -1 7 750.356 497.522 6
-2 0 8 35730.7 3521.79 7
2 0 -8 38348.8 2350.49 1
-2 1 9 675.11 689.426 7
2 -1 -9 342.75 268.847 5
2 8 -1 105.513 84.1758 4
-2 -8 1 204.291 189.541 7
-2 -8 1 220.332 376.502 6
2 8 -1 769.389 450.559 1
-2 -8 1 470.16 576.106 5
-2 -7 2 65256.1 4168.69 7
-2 -7 2 62828.9 4346.43 6
2 7 -2 63475.7 3674.1 1
2 7 -2 72882.4 4214.9 3
-2 -7 2 64813.5 4679.17 5
2 7 -2 67933.2 3740.67 4
-2 -6 3 19417.8 2098.21 6
-2 -6 3 22012 2031.15 7
2 6 -3 21414.4 1663.19 1
2 6 -3 25175.8 1954.1 3
-2 -6 3 16328.4 2105.91 5
2 6 -3 21061.2 1584.03 4
2 5 -4 475.481 177.822 4
-2 -5 4 332.708 307.286 7
-2 -5 4 152.421 138.344 6
2 5 -4 522.48 290.333 3
2 5 -4 461.838 223.236 1
2 4 -5 15909.7 1388.92 1
-2 -4 5 15450.7 1859.62 7
2 4 -5 16507.1 1378.57 3
-2 -4 5 17221.5 1988.39 6
2 3 -6 228.586 170.779 1
-2 -3 6 408.476 400.415 6
2 3 -6 -63.291 42.6261 3
-2 -2 7 9828.22 1667.45 7
-2 -2 7 9944.46 1599.96 6
2 2 -7 11577.2 979.629 3
2 2 -7 11354.4 1123.8 1
-2 -1 8 617.697 474.235 7
2 1 -8 832.424 314.177 1
-2 -1 8 -210.864 386.666 6
2 0 -9 15386.3 1347.35 1
2 0 -9 15773.6 1532.18 5
-2 0 9 12711.1 2164.38 7
2 8 -2 4056.26 677.591 4
2 8 -2 5687.9 868.764 1
-2 -8 2 6257.6 1258.51 5
2 7 -3 3249.78 648.837 1
-2 -7 3 2072.82 707.522 6
-2 -7 3 3059.31 810.218 7
2 7 -3 2398.53 641.212 3
-2 -7 3 2805.72 910.685 5
2 7 -3 1885.81 447.078 4
-2 -6 4 5375.12 1055.2 7
2 6 -4 5195.71 796.288 1
-2 -6 4 5087.67 1157.44 6
2 6 -4 5562.8 890.68 3
2 6 -4 5078.89 673.933 4
-2 -5 5 1131.58 552.517 7
2 5 -5 989.882 339.935 1
-2 -5 5 1662.27 667.602 6
2 5 -5 885.503 334.95 3
2 4 -6 39808.8 2592.2 1
-2 -4 6 44567.1 3676 6
2 4 -6 41022.5 2563.65 3
2 3 -7 6288.71 832.961 1
-2 -3 7 5606.96 1220.74 6
2 3 -7 5792.83 715.861 3
2 2 -8 1556.01 447.389 1
-2 -2 8 1357.63 736.234 7
-2 -2 8 421.3 281.582 6
-2 -1 9 31371.3 3536.18 7
2 1 -9 36180.4 2417.86 1
-2 -7 4 2288.16 673.226 7
-2 -6 5 6842.5 1282.33 7
2 6 -5 10118.6 1248.17 3
-2 -5 6 15170.9 2039.95 7
2 5 -6 13579.3 1434.33 3
-2 -4 7 15699.6 2264.58 7
2 4 -7 12719.3 1277.37 3
-2 -3 8 26831.2 3026.42 7
2 5 -7 11900.9 1388 3
3 -1 10 2274.67 731.693 6
3 -2 9 4307.11 1027.13 6
3 -3 8 12903.8 1770.45 6
-3 -1 -11 637.963 288.694 3
-3 -1 -11 472.986 261.498 1
3 0 10 8293.69 1360.02 6
-3 0 -10 8004.74 934.146 3
-3 0 -10 6669.2 900.502 1
-3 1 -9 6046.13 813.247 3
-3 1 -9 6006.44 842.455 1
3 -1 9 4327.04 984.471 6
3 -2 8 467.688 359.724 6
-3 2 -8 930.684 341.07 3
-3 2 -8 1024.76 365.849 1
-3 3 -7 15422.2 1460.77 3
3 -3 7 11091.5 1536.64 6
-3 3 -7 14449.2 1266.48 4
-3 3 -7 15154.8 1406.7 1
3 -4 6 16846.1 1919.84 6
-3 4 -6 19305.7 1588.42 4
-3 4 -6 17472.7 1559.06 1
-3 5 -5 5481.61 841.472 4
-3 5 -5 4083.17 707.223 1
-3 -2 -11 3531.13 573.065 3
-3 -2 -11 2880.63 540.267 1
-3 -1 -10 20240 1554.82 3
3 1 10 19643.4 2047.36 6
-3 -1 -10 20026.2 1655.88 1
-3 0 -9 11891.6 1118.06 3
3 0 9 11476.3 1487.92 6
-3 0 -9 10183.9 1121.6 1
-3 1 -8 2878.4 535.399 3
3 -1 8 1683.87 525.374 6
-3 1 -8 3567.47 599.21 1
3 -1 8 2350.99 691.899 2
3 -2 7 42122.5 3147.93 2
-3 2 -7 35941.4 2391.36 3
3 -2 7 33652.4 2685.93 6
-3 2 -7 35476.5 2180.04 4
-3 2 -7 38082.2 2397.33 1
-3 3 -6 3429.12 545.098 4
-3 3 -6 2760.39 566.76 3
3 -3 6 1616.02 519.122 6
-3 3 -6 3223.22 564.775 1
3 -3 6 3305.69 825.247 2
-3 4 -5 9740.89 1052.5 4
3 -4 5 8731.55 1207.39 6
-3 4 -5 10884.8 1201.01 3
-3 4 -5 9752.6 1101.56 1
3 -5 4 9356.65 1266.9 6
-3 5 -4 8478.32 1113.57 3
-3 5 -4 6997.76 960.847 1
-3 -3 -11 2899.65 488.372 3
-3 -3 -11 2196.6 444.543 1
-3 -2 -10 9112.5 941.693 3
3 2 10 8541.19 1237.51 6
-3 -2 -10 12046.5 1061.95 1
3 1 9 15912.6 1736.56 2
-3 -1 -9 16774.1 1323.51 3
3 1 9 15223.6 1669.53 6
-3 -1 -9 16728.5 1338.19 1
3 0 8 78046.5 4740.43 2
-3 0 -8 78895 4041.56 3
3 0 8 79908.1 4667.5 6
-3 0 -8 78543.6 4081.64 1
-3 1 -7 1665.27 357.744 3
-3 1 -7 1109.19 300.95 1
3 -1 7 994.301 441.89 2
3 -1 7 1462.79 422.123 6
-3 2 -6 10220.9 1014.72 3
3 -2 6 12396.6 1255.23 6
3 -2 6 9950.73 1347.34 2
-3 2 -6 7975.46 968.034 1
-3 3 -5 10336 1063.46 3
3 -3 5 9356.52 1117.22 6
3 -3 5 9555.36 1318.14 2
-3 3 -5 9512.61 979.47 4
-3 3 -5 10158.6 986.614 1
-3 4 -4 81.5014 97.8868 4
3 -4 4 -76.4042 116.255 6
-3 4 -4 434.976 255.03 3
-3 4 -4 113.764 153.868 1
3 -4 4 32.6095 230.025 2
-3 5 -3 8180.09 1042.36 4
3 -5 3 10493.7 1250.83 6
-3 5 -3 9133.81 1096.04 3
-3 5 -3 9138.17 924.854 1
-3 6 -2 274.5 232.357 3
-3 -3 -10 1984.15 368.541 3
-3 -3 -10 1676.1 365.984 1
3 2 9 35868 2729.12 6
-3 -2 -9 40661.3 2302.01 3
-3 -2 -9 38549.5 2163.28 5
-3 -2 -9 43218.5 2359.41 1
3 1 8 23832.7 2102.31 2
-3 -1 -8 26055.2 1674.75 3
3 1 8 24419.8 2042.71 6
-3 -1 -8 25482.5 1384.12 5
-3 -1 -8 24213.9 1667.71 1
3 0 7 5540.67 829.05 6
3 0 7 5614.58 586.714 7
-3 0 -7 7062.25 743.367 3
-3 0 -7 7102.49 395.661 5
-3 0 -7 5074.16 736.476 1
3 0 7 5353.8 900.734 2
3 -1 6 29262.5 2307.17 2
3 -1 6 30775 1606.56 7
3 -1 6 28986.5 2054.45 6
-3 1 -6 25856.8 1790.4 3
-3 1 -6 30094.6 1895.6 1
3 -2 5 1533.24 403.724 6
3 -2 5 2700.47 394.974 7
-3 2 -5 2198.52 414.177 1
3 -2 5 2598.39 637.634 2
-3 3 -4 7144.64 800.316 4
3 -3 4 6854.58 654.638 7
3 -3 4 8120.66 941.288 6
-3 3 -4 5929.94 755.012 3
3 -3 4 7750.7 1117.09 2
3 -3 4 7271.85 710.584 5
-3 3 -4 7868.55 798.462 1
-3 4 -3 2111.77 466.68 4
3 -4 3 1807.66 470.39 6
-3 4 -3 3158.67 569.221 3
-3 4 -3 2981.33 468.523 1
3 -4 3 1874.67 385.402 5
3 -4 3 1082.49 455.787 2
3 -4 3 1782.04 369.543 7
3 -5 2 36748.7 2669.27 6
-3 5 -2 36755.9 2484.93 3
3 -5 2 36091.1 2352.63 7
-3 5 -2 42943.6 2680.17 4
-3 5 -2 37906 2261.73 1
-3 6 -1 38022.9 2639.51 3
-3 -5 -11 8020.9 1040.39 5
-3 -4 -10 27329.3 1752.57 3
-3 -4 -10 25220.2 1881.22 5
-3 -3 -9 2831.17 446.034 1
-3 -3 -9 3475.01 520.706 5
3 3 9 2471.59 554.724 2
-3 -3 -9 2451.17 423.977 3
-3 -2 -8 258.981 129.275 3
3 2 8 40.1859 131.496 6
-3 -2 -8 166.665 127.112 1
-3 -2 -8 135.721 89.0979 5
3 2 8 406.806 265.148 2
3 1 7 53243.1 3244.31 2
-3 -1 -7 51688.4 2548.89 7
-3 -1 -7 52813.3 2723.24 3
-3 -1 -7 47167.2 2585.67 6
3 1 7 50990.2 3090.5 6
-3 -1 -7 56296.5 2408.67 5
-3 -1 -7 53824.8 2785.33 1
-3 -1 -7 44689.2 2519.45 4
-3 0 -6 3364.04 450.758 4
3 0 6 4246.72 623.626 6
-3 0 -6 4161.74 550.223 1
-3 0 -6 4866.5 561.953 3
3 0 6 4154.89 730.758 2
3 0 6 5382.53 399.161 7
3 -1 5 34665.5 1672.7 7
3 -1 5 35383.7 2136.96 6
-3 1 -5 35604.7 2007.82 3
-3 1 -5 36285.2 2032.62 1
3 -2 4 19548.3 1747.33 2
3 -2 4 21805.4 1207.84 7
3 -2 4 19476.7 1337.99 7
3 -2 4 19993.3 1494.58 6
-3 2 -4 19453.6 1398.99 3
3 -2 4 20651.3 1168.59 5
-3 2 -4 21508.7 1444.16 1
3 -3 3 15593.8 1515.17 2
3 -3 3 14991 1041.72 7
3 -3 3 14489.6 1303.84 6
-3 3 -3 14277.2 1188.15 3
3 -3 3 16679.4 1118.11 5
-3 3 -3 17162.9 1223.58 1
3 -4 2 39763.6 2750.56 2
-3 4 -2 35751.3 2347.88 3
3 -4 2 38608.9 2535.73 6
3 -4 2 40924.2 2351.39 5
-3 4 -2 43008.8 2554.44 4
-3 4 -2 38808.4 2244.99 1
-3 5 -1 3766.82 662.833 4
3 -5 1 5014.73 770.848 6
-3 5 -1 3927.11 650.682 3
-3 5 -1 4046.17 536.112 1
3 -5 1 5153.45 756.589 5
3 -5 1 4500.5 753.637 2
-3 6 0 5552.18 890.146 3
3 -6 0 8618.66 1140.23 5
-3 -6 -11 13484.1 1527.34 5
-3 -5 -10 12182.2 1027.7 3
-3 -5 -10 11519.7 1255.12 5
-3 -4 -9 1220.9 294.26 3
-3 -4 -9 1107.18 246.35 1
-3 -4 -9 1264.45 346.191 5
3 4 9 1293.6 367.88 2
3 4 9 972.3 232.022 4
-3 -3 -8 4467.07 509.875 3
-3 -3 -8 4640.36 500.654 1
-3 -3 -8 6231.94 617.085 5
3 3 8 6309.85 812.675 2
3 3 8 6055.69 524.738 4
-3 -2 -7 4138.8 669.921 7
-3 -2 -7 5326.19 583.34 3
-3 -2 -7 4793.65 572.062 1
3 2 7 6449.22 761.162 6
-3 -2 -7 6445.59 555.774 5
-3 -2 -7 4748.01 504.529 6
3 2 7 5864.66 782.203 2
-3 -2 -7 5654.65 546.006 4
3 1 6 33453.2 2284.27 2
-3 -1 -6 34063.6 1924.77 3
-3 -1 -6 33108.2 1805.39 6
3 1 6 33288.1 2122.85 6
-3 -1 -6 34040.1 1727.97 7
-3 -1 -6 37466.1 1646.59 5
-3 -1 -6 37489 2023.24 1
-3 -1 -6 32883.2 1848.94 4
3 0 5 18586.2 1523.51 2
-3 0 -5 17101.7 1080.1 6
-3 0 -5 19051.9 1202.46 3
3 0 5 17228.5 1245.35 6
-3 0 -5 17625.7 1215.35 1
-3 0 -5 16054.9 1130.37 4
3 -1 4 55819.6 3349.04 2
3 -1 4 59543.3 2635.05 7
3 -1 4 58888.1 2657.93 7
3 -1 4 64472.4 3118.07 6
-3 1 -4 59366.7 2994.66 3
-3 1 -4 59254.2 3016.16 1
3 -2 3 125821 6035.24 2
3 -2 3 121618 5249.87 7
3 -2 3 119529 5610.23 7
3 -2 3 117984 5617.1 6
-3 2 -3 115341 5510.61 3
3 -2 3 125280 5283.24 5
-3 2 -3 117163 5504.7 1
3 -3 2 3251.23 624.786 7
3 -3 2 3639.51 563.519 6
-3 3 -2 3563.05 482.111 1
-3 3 -2 3881.84 526.257 3
-3 3 -2 3860.57 428.271 5
3 -3 2 3324.64 647.386 2
3 -3 2 4491.27 513.931 5
-3 4 -1 4277.6 624.381 4
3 -4 1 3934.56 646.16 6
-3 4 -1 3821.83 485.769 1
-3 4 -1 4376.84 612.935 3
3 -4 1 3632.2 548.503 5
3 -4 1 4730.35 749.949 2
3 -5 0 14385.3 1372.85 6
3 -5 0 14353.8 1341.27 5
-3 5 0 13451.5 1245.25 3
-3 5 0 13758 1336.97 4
-3 5 0 13027.6 997.405 1
-3 6 1 604.7 260.275 4
3 -6 -1 81.8754 124.823 6
-3 6 1 916.987 373.855 3
3 -6 -1 281.86 246.28 5
-3 -6 -10 437.332 358.56 5
-3 -5 -9 23882.2 1585.43 3
-3 -5 -9 26865.7 1927.01 5
3 5 9 22936.8 1575.18 4
3 4 8 23070.5 1695.38 2
-3 -4 -8 23823.2 1501.06 3
-3 -4 -8 23809.6 1662.63 5
-3 -4 -8 23577.4 1405.49 1
3 4 8 23146.6 1475.15 4
3 3 7 14314.4 1239.87 2
-3 -3 -7 13927.1 962.096 6
-3 -3 -7 15051.7 1442.63 7
-3 -3 -7 13173.1 1023.24 5
-3 -3 -7 14425.5 1026.88 3
-3 -3 -7 15460.3 1032.33 1
-3 -3 -7 12480 960.543 4
3 3 7 14752.2 1011.69 4
3 2 6 13908.6 1213.81 2
3 2 6 15394.7 1119.28 6
-3 -2 -6 14080.3 1187.93 7
-3 -2 -6 14136.4 860.512 6
-3 -2 -6 10668.8 822.185 5
-3 -2 -6 14746.6 997.842 3
-3 -2 -6 12741.8 927.606 4
3 2 6 16626.8 998.256 4
3 1 5 26983.2 1909.59 2
-3 -1 -5 32586.1 1375.7 7
-3 -1 -5 27476.4 1627.58 3
-3 -1 -5 29666.3 1510.18 6
3 1 5 22511.8 1598.4 6
-3 -1 -5 31593.7 1362.22 5
-3 -1 -5 25911.1 1588.65 4
3 0 4 21951.6 1341.23 6
-3 0 -4 19981.7 1302.51 3
-3 0 -4 24227.4 1277.95 6
-3 0 -4 22321.3 1362.35 4
3 -1 3 77016.9 3787.69 2
3 -1 3 69960.4 3004.31 7
3 -1 3 67483.9 3210.48 7
-3 1 -3 64622.9 3292.56 3
-3 1 -3 65142.5 3270.07 6
3 -1 3 64737.5 3325.26 6
3 -1 3 73762.9 2973.91 5
3 -2 2 49251.3 2902.04 2
3 -2 2 45660.9 2808.17 7
3 -2 2 50455.8 2653.59 6
-3 2 -2 50880.1 2592.27 3
3 -2 2 52628.4 2456.91 5
3 -3 1 11993.6 1196.96 2
3 -3 1 13508.2 1468.21 7
-3 3 -1 15397.4 1146.99 3
3 -3 1 17393.4 1299.95 6
3 -3 1 19907.5 1241.17 5
-3 3 -1 17418.2 1141.31 1
-3 4 0 6345.57 797.394 4
-3 4 0 7397.63 748.499 3
3 -4 0 6569.95 802.763 6
3 -4 0 7921.25 835.313 5
3 -4 0 6506.39 823.737 2
-3 4 0 6314.27 636.193 1
-3 5 1 219.347 190.108 4
3 -5 -1 160.147 175.275 6
-3 5 1 364.409 221.703 3
3 -5 -1 -19.409 30.7084 5
-3 6 2 3266.61 631.266 4
3 -6 -2 2456.14 574.284 5
3 6 9 4319.45 643.751 4
-3 -6 -9 5497.02 877.278 5
3 5 8 52956.6 2877.19 2
-3 -5 -8 49445.4 3062.01 5
-3 -5 -8 52110.7 2540.95 1
3 5 8 55538.7 2878.36 4
3 4 7 14877.7 1236.58 2
-3 -4 -7 14920.2 1136.46 6
-3 -4 -7 16353.8 1341.8 1
-3 -4 -7 16935.7 1282.25 5
-3 -4 -7 16346.5 1066.33 1
-3 -4 -7 15943.7 1073.28 2
3 4 7 18106.7 1194.94 4
3 3 6 11212.5 998.266 2
-3 -3 -6 11658.2 1168.27 7
-3 -3 -6 12020.7 750.353 6
3 3 6 11873.9 860.772 5
-3 -3 -6 11233.8 883.005 5
-3 -3 -6 11279.6 863.766 4
-3 -3 -6 11485.3 876.015 2
3 3 6 11825.3 873.463 4
3 2 5 36348.1 2161.54 2
-3 -2 -5 37952.4 2115.6 7
-3 -2 -5 36998.5 1939.14 3
-3 -2 -5 37960.8 1704.47 6
3 2 5 35813 1914.98 6
3 2 5 38488.4 1805.73 5
-3 -2 -5 37347.3 1841.41 5
-3 -2 -5 34213.6 1922.16 4
-3 -2 -5 36862.6 2034.23 2
3 2 5 36733.9 1937.76 4
3 1 4 8610.22 833.018 2
-3 -1 -4 8634.89 669.264 3
-3 -1 -4 9209.32 555.076 6
3 1 4 7972.34 600.163 6
-3 -1 -4 8913.13 501.486 5
-3 -1 -4 8209.13 682.606 4
-3 -1 -4 8797.68 759.018 2
3 0 3 18308.8 1313.47 2
3 0 3 18005.2 1099.59 3
-3 0 -3 17933.8 1100.67 3
3 0 3 18012.1 1072.38 6
-3 0 -3 18496.8 1236.39 2
-3 0 -3 20375.9 1189.93 4
3 -1 2 54353.2 2779.91 2
3 -1 2 51647.6 2617.15 7
3 -1 2 49066.1 2426.47 3
3 -1 2 49470 2481.7 6
-3 1 -2 48965.3 2444.94 3
3 -1 2 51181.2 2283.46 5
-3 1 -2 47059.7 2550.45 2
3 -2 1 51077.2 2765.93 2
3 -2 1 49310.8 2968.19 7
3 -2 1 47134.7 2427.39 3
3 -2 1 48906.9 2590.77 6
-3 2 -1 49745.7 2494.28 3
3 -2 1 50982.6 2485.44 5
-3 2 -1 51961.4 2551.42 2
-3 3 0 738.142 176.876 2
3 -3 0 912.263 256.952 6
-3 3 0 249.881 132.564 3
3 -3 0 385.315 168.158 2
3 -3 0 574.588 210.657 5
3 -4 -1 31056.7 1932.69 2
3 -4 -1 30460.5 2019.68 6
-3 4 1 28309.4 1791.19 3
3 -4 -1 30317.2 2007.73 5
-3 4 1 29290.9 2000.4 4
-3 4 1 29925.4 1628.09 1
-3 5 2 8318.42 975.595 4
3 -5 -2 6446.08 877.182 6
3 -5 -2 7345.31 957.311 5
-3 5 2 7396.61 846.548 3
-3 6 3 564.801 282.8 4
3 -6 -3 227.494 229.737 5
3 7 9 6136.89 834.384 4
-3 -7 -9 8214.66 1168.83 5
3 6 8 1781.92 413.926 4
-3 -6 -8 2965.9 607.784 5
3 5 7 14136.5 1065.47 2
-3 -5 -7 13115.4 827.372 6
-3 -5 -7 11356.7 1158.73 5
3 5 7 13433.3 1068.12 4
3 4 6 32756 1961.98 2
-3 -4 -6 35117.4 1853.75 6
-3 -4 -6 31955.6 2012.04 1
-3 -4 -6 35943.9 2076.26 5
-3 -4 -6 32981.3 1767.66 2
3 4 6 35623.9 1952.82 4
3 3 5 16853 1213.89 2
-3 -3 -5 19840.7 1499.32 7
-3 -3 -5 18946.2 874.071 6
-3 -3 -5 15520.7 1283.93 1
3 3 5 18922.2 1142.57 5
-3 -3 -5 17729.1 1180.51 5
-3 -3 -5 18367 1172.5 4
-3 -3 -5 17705.6 1125.14 2
3 3 5 18396.3 1165.47 4
3 2 4 169465 7457.03 2
-3 -2 -4 180766 7423.19 7
3 2 4 171392 7025.87 6
3 2 4 174067 7152.04 5
-3 -2 -4 163054 7198.59 5
-3 -2 -4 161019 7302.53 4
-3 -2 -4 166716 7336.17 2
3 2 4 165060 7307.7 4
3 1 3 807.788 221.02 2
-3 -1 -3 349.625 126.457 2
3 1 3 616.692 112.635 6
3 1 3 439.488 81.6385 5
-3 -1 -3 591.603 150.954 4
3 0 2 9626.1 783.264 2
-3 0 -2 7523.55 592.101 3
3 0 2 8758.92 607.988 6
3 0 2 9750.23 628.917 7
3 0 2 8657.71 498.899 5
-3 0 -2 9088.11 622.86 7
-3 0 -2 7952.51 674.647 2
-3 0 -2 8391.46 688.561 4
3 -1 1 698.035 254.47 7
-3 1 -1 510.142 150.351 2
3 -1 1 478.713 153.112 6
3 -1 1 377.955 109.467 3
3 -1 1 658.568 201.076 2
-3 1 -1 388.419 111.679 3
3 -1 1 550.565 139.167 5
3 -2 0 33053.1 1969.4 2
3 -2 0 29942.9 2335.44 7
3 -2 0 34868.6 1969.73 6
3 -2 0 36445.4 1780.41 3
-3 2 0 35191.8 1803.65 3
-3 2 0 33361.4 2057.24 1
3 -2 0 35752.2 1917.29 5
-3 2 0 35185.6 1824.01 2
3 -3 -1 61698.5 3003.29 2
3 -3 -1 53120.3 2682.99 3
3 -3 -1 62401.4 3090.01 6
-3 3 1 54873.6 2906.36 1
-3 3 1 58972.7 2818.18 3
3 -3 -1 58278.9 3055.69 5
-3 3 1 62134.4 3112.35 4
-3 3 1 52245.5 2663.38 2
3 -4 -2 17063.2 1187.43 2
3 -4 -2 17550.6 1443.91 6
-3 4 2 16612.2 1210.75 3
3 -4 -2 17669.4 1455.47 5
-3 4 2 17841 1422.6 4
-3 4 2 16948.6 1013.91 1
3 -5 -3 20950.7 1681.33 6
3 -5 -3 17158.1 1618.36 5
-3 5 3 17035.8 1509.34 4
-3 6 4 1371.17 382.115 4
3 -6 -4 932.55 426.966 5
3 8 9 2803.81 632.927 4
-3 -7 -8 814.332 371.437 5
3 7 8 581.935 254.008 4
3 6 7 7043.25 815.707 4
-3 -6 -7 8388.7 661.908 6
-3 -6 -7 8069.96 1014.81 5
3 5 6 20477.6 1322.01 2
-3 -5 -6 20922.7 1255.99 1
-3 -5 -6 21894.3 1144.03 6
-3 -5 -6 17935.5 1422.23 6
-3 -5 -6 22425.2 1627.99 5
-3 -5 -6 21175.1 1151.52 2
3 5 6 20345.7 1461.99 4
3 4 5 87166.9 4074.03 2
-3 -4 -5 89361.8 3711.63 6
-3 -4 -5 85000.7 4114.67 1
-3 -4 -5 88674.6 3942.24 6
-3 -4 -5 91953.3 4305.77 5
-3 -4 -5 83412.3 3915.93 2
3 4 5 85186.9 4146.78 4
-3 -3 -4 39960.8 2190.96 1
3 3 4 36153.6 1969.38 5
-3 -3 -4 38592.9 2068.32 5
-3 -3 -4 39293 1933.96 2
-3 -3 -4 38770.7 2037.01 4
3 3 4 39202.4 2028.3 4
3 3 4 37615.6 2011.55 2
-3 -2 -3 78243.6 3713.48 1
-3 -2 -3 72050 3276.8 7
3 2 3 74943.4 3350.35 5
-3 -2 -3 73179.2 3438.47 5
-3 -2 -3 76108.1 3421.81 2
-3 -2 -3 75675.1 3461.59 4
3 2 3 76174.3 3452.7 4
3 2 3 72721.9 3483.06 2
3 1 2 8163.25 504.128 7
-3 -1 -2 8004.18 619.341 7
3 1 2 8881.21 507.95 6
-3 -1 -2 7161.72 802.614 1
3 1 2 8138.88 599.928 5
-3 -1 -2 8887.59 639.092 2
3 1 2 6811.2 631.296 2
-3 -1 -2 7917.75 636.979 4
3 1 2 8110.48 636.642 4
-3 0 -1 1897.94 354.872 1
3 0 1 2664.38 383.316 7
-3 0 -1 2314.73 381.426 7
-3 0 -1 1621.54 277.769 4
3 0 1 2201.94 333.349 2
-3 0 -1 2836.43 315.917 2
-3 0 -1 2554.08 264.482 3
3 -1 0 181209 8351.83 7
-3 1 0 178137 7543.49 3
-3 1 0 184274 7925.67 1
3 -1 0 187088 7545.98 3
3 -1 0 178049 7696.9 5
-3 1 0 174024 8230.47 7
-3 1 0 167781 7614.76 2
3 -1 0 181044 7784.29 2
3 -2 -1 4542.67 393.192 3
-3 2 1 4645.68 418.145 3
-3 2 1 3453.21 683.974 7
3 -2 -1 3925.68 500.779 5
3 -2 -1 4502.84 497.564 2
-3 2 1 5220.12 562.256 1
-3 2 1 5176.31 438.688 2
3 -3 -2 50965.5 2664.32 2
-3 3 2 49802.5 2574.2 1
3 -3 -2 52197.8 2469.2 3
-3 3 2 55670.4 2618.17 3
-3 3 2 55197.2 2899.38 4
-3 3 2 51169.3 2435.38 2
3 -4 -3 26078.1 1787.63 6
3 -4 -3 24978 1837.51 5
-3 4 3 23539.9 1664.59 4
3 -5 -4 13704.2 1320.39 6
3 -5 -4 11817.7 1327.6 5
-3 5 4 12279.4 1221.66 4
-3 6 5 199.627 207.64 4
3 8 8 7468.99 1005.72 4
3 7 7 4626.02 735.934 4
-3 -7 -7 6685.14 986.948 5
3 6 6 25255 1490.43 2
-3 -6 -6 28060.3 1498.54 6
-3 -6 -6 25688.1 1977.1 5
3 6 6 24708.3 1777.62 4
-3 -5 -5 20294.7 1179.85 1
-3 -5 -5 20656.7 1103.16 6
-3 -5 -5 19406.6 1490.4 5
-3 -5 -5 19211.9 1078.88 2
3 5 5 19605.4 1387.2 4
3 5 5 19277.7 1194.57 2
-3 -4 -4 1994.46 246.69 2
-3 -4 -4 1026.38 230.57 1
3 4 4 1718.31 261.889 2
3 4 4 1601.08 297.197 4
-3 -4 -4 1661.84 173.54 6
3 4 4 1191.08 257.764 5
-3 -4 -4 1559.31 347.1 5
-3 -3 -3 55875.3 2661.48 7
-3 -3 -3 56809.3 2781.34 1
3 3 3 57235.5 2735.69 5
-3 -3 -3 51594.3 2780.55 5
-3 -3 -3 56949.9 2594.97 2
-3 -3 -3 56083 2743.74 4
3 3 3 53999.4 2637.36 2
3 3 3 54734.3 2709.99 4
-3 -2 -2 91870 4001.95 7
-3 -2 -2 92132.4 4207.94 1
3 2 2 89625 3891.71 6
3 2 2 75302.5 4206.67 1
3 2 2 91897.4 4062.6 5
-3 -2 -2 93116.8 4245.58 5
-3 -2 -2 92840 3983.49 2
3 2 2 87178.9 4017.67 2
-3 -2 -2 92253.3 4064.52 4
3 2 2 84749.3 4016.13 4
3 1 1 153095 6368.99 7
-3 -1 -1 134988 6516.17 7
-3 -1 -1 157385 6529.69 1
3 1 1 130896 6543.84 1
3 1 1 147696 6579.79 5
-3 -1 -1 146845 6268.07 2
3 1 1 141168 6306.07 2
-3 -1 -1 154149 6353.85 4
3 1 1 144331 6306.14 4
3 0 0 14409.7 1142.79 7
-3 0 0 11290 665.333 3
-3 0 0 10888.3 874.973 1
-3 0 0 9972.73 1018.8 7
-3 0 0 12702.1 770.616 2
3 0 0 12537.1 819.937 2
-3 0 0 10724.9 807.785 4
3 -1 -1 41468.3 2765.86 7
-3 1 1 41623.6 2152.21 1
-3 1 1 40915.3 1888 3
3 -1 -1 41868.3 2182.55 5
-3 1 1 43539.8 2010.53 2
3 -1 -1 39475.1 2071.03 2
-3 1 1 40491.9 2703.32 7
-3 2 2 6247.29 557.416 1
-3 2 2 4280.87 813.542 7
-3 2 2 5406.6 437.955 3
3 -2 -2 6029.27 413.471 3
3 -2 -2 5377.45 633.443 5
-3 2 2 6187.63 464.142 2
3 -2 -2 6659.83 563.541 2
3 -3 -3 21439.1 1273.08 2
-3 3 3 22347.8 1199.6 1
-3 3 3 19226.6 1221.76 3
3 -3 -3 23687.7 1684.02 5
-3 3 3 23016.7 1536.84 4
-3 3 3 21548 2216.79 7
3 -4 -4 20377.1 1710.91 5
-3 4 4 20335.9 1531.61 4
-3 5 5 433.134 273.679 4
3 -5 -5 73.4644 166.522 6
3 -5 -5 73.9987 141.485 5
-3 -8 -7 19518.3 1965.93 5
3 8 7 18485.6 1649.38 4
3 7 6 4842.91 709.516 4
-3 -7 -6 5072.46 569.81 6
-3 -7 -6 5861.83 915.361 5
-3 -6 -5 4320.32 409.589 1
3 6 5 4145.19 614.212 4
-3 -6 -5 4973.13 517.179 6
-3 -6 -5 5060 747.161 5
3 6 5 4643.71 461.517 2
3 5 4 2270.32 401.408 4
3 5 4 3027.42 344.057 2
-3 -5 -4 2497.72 301.873 6
-3 -5 -4 2765.9 331.782 1
-3 -5 -4 2790.22 517.497 5
-3 -4 -3 8794.5 677.693 1
3 4 3 7982.27 756.307 1
3 4 3 7748.99 734.38 5
-3 -4 -3 7923.68 797.042 5
-3 -4 -3 8828.97 596.953 2
3 4 3 8260.93 618.863 2
3 4 3 8090.89 724.209 4
-3 -4 -3 7289.96 549.097 6
-3 -3 -2 235514 9867.71 7
3 3 2 228363 9573.13 6
-3 -3 -2 217174 9741.85 6
3 3 2 227809 10021.9 1
-3 -3 -2 272940 10282.1 3
-3 -3 -2 251551 9898.48 1
3 3 2 209538 9907.08 5
-3 -3 -2 241005 10123.4 5
-3 -3 -2 243517 9732.89 2
3 3 2 221144 9745.87 2
-3 -3 -2 211719 9829.64 4
3 3 2 252241 9902.28 4
3 2 1 111399 4845.98 7
-3 -2 -1 101316 4932.59 7
-3 -2 -1 112219 4925.43 1
3 2 1 111141 4926.43 6
3 2 1 107911 5023.71 1
-3 -2 -1 108123 5015.25 3
3 2 1 112211 5072.26 5
-3 -2 -1 108371 5228.72 5
-3 -2 -1 114608 4990.94 6
-3 -2 -1 110811 4760.58 2
3 2 1 108450 4795.15 2
-3 -2 -1 107168 4831.92 4
3 2 1 106166 4812.24 4
3 1 0 22432.7 1507.3 7
-3 -1 0 25098 1428.09 1
3 1 0 23993.6 1519.93 1
3 1 0 22331.5 1617.47 6
-3 -1 0 24613.8 1713.29 7
3 1 0 23366.7 1713.56 5
-3 -1 0 27537.9 1331.82 2
3 1 0 24635.5 1331.8 2
-3 -1 0 26193.2 1377.69 4
3 1 0 23304.6 1331.81 4
3 0 -1 31314.7 2179.72 7
-3 0 1 26903.7 2150.81 7
-3 0 1 32097.6 1705.21 1
-3 0 1 30831 1426.16 3
3 0 -1 30278.7 2193.22 6
3 0 -1 30950.3 1837.29 1
-3 0 1 32059 1586.85 2
3 0 -1 31169.5 1631.18 2
-3 0 1 35999.3 1717.17 4
-3 1 2 15840.7 1577.12 7
3 -1 -2 16029.6 1140.71 5
-3 1 2 16015 753.416 3
3 -1 -2 14126.7 1130.02 1
3 -1 -2 15455.8 964.185 2
-3 1 2 15081.3 990.033 1
-3 2 3 3669.21 833.431 7
3 -2 -3 3907.55 396.105 2
-3 2 3 3662.59 384.594 1
3 -2 -3 3380.81 526.203 5
-3 3 4 8528.62 1379.12 7
3 -3 -4 6959.28 851.501 5
-3 3 4 7833.89 772.749 4
3 -3 -4 6781.8 580.628 2
3 -4 -5 25292.9 1972 5
-3 4 5 21637.7 1622.58 4
-3 5 6 2496.7 499.955 4
3 8 6 8329 1034.66 4
-3 -8 -6 7875.62 1179.52 5
-3 -7 -5 3804.38 510.642 6
-3 -7 -5 3532.82 719.233 5
3 7 5 3119.5 555.957 4
-3 -6 -4 19446.7 1216.07 1
-3 -6 -4 22774.5 1396.21 6
3 6 4 22936.7 1497.36 1
-3 -6 -4 25331.8 1846.67 5
3 6 4 24125.2 1642.67 4
3 6 4 22245.6 1265 2
3 5 3 26092 1379.01 6
3 5 3 23977.6 1583.04 1
-3 -5 -3 26551.4 1460.22 1
-3 -5 -3 27017.6 1505.4 6
-3 -5 -3 26384.7 1842.11 5
3 5 3 26743.4 1421.91 2
3 5 3 22725.6 1618.07 4
3 4 2 1369.58 282.444 4
3 4 2 1412.47 217.33 2
3 4 2 1735.71 219.014 6
-3 -4 -2 1621.08 268.151 6
-3 -4 -2 1643.62 257.189 1
-3 -4 -2 1006.56 244.975 7
3 4 2 1487.64 281.365 1
3 4 2 1409.36 295.309 5
-3 -4 -2 803.09 287.502 5
3 3 1 93300.4 4012.65 7
3 3 1 85074 4008.13 1
3 3 1 82710 3844.76 6
-3 -3 -1 85112.5 4038.84 7
-3 -3 -1 82928.2 4054.23 6
-3 -3 -1 90479.4 4124.64 3
3 3 1 83424.5 4112.42 5
-3 -3 -1 89250.9 4353.08 5
-3 -3 -1 84555.7 3915.01 1
3 3 1 82070.5 3815.73 2
-3 -3 -1 87266.8 3940.67 4
3 3 1 83246.9 3904.67 4
3 2 0 27302.8 1526.55 7
-3 -2 0 24260.9 1625.67 7
-3 -2 0 26032.9 1425.34 1
3 2 0 24458.2 1456.78 1
3 2 0 25204.4 1602.69 6
-3 -2 0 21544.6 1572.77 6
-3 -2 0 19300.7 1444.77 3
3 2 0 24787.1 1680.78 5
3 2 0 25663.8 1336.66 2
-3 -2 0 25889.6 1369.49 4
3 2 0 22736.6 1318.61 4
3 1 -1 64204.4 3299.14 7
-3 -1 1 55814.7 3401.09 7
3 1 -1 56368.2 2938.32 1
3 1 -1 61154.6 3395.17 6
-3 -1 1 52345.5 2774.32 3
-3 -1 1 63781.9 2896.79 1
3 1 -1 60785.6 2789.67 2
-3 -1 1 64384.9 2808.8 4
3 0 -2 78215.1 4361.26 7
-3 0 2 76510 3176.81 3
3 0 -2 67190.6 3650.72 1
-3 0 2 78169.4 3212.55 3
-3 0 2 76066.5 3551.32 1
-3 0 2 78612.7 4472.77 7
3 0 -2 75193.9 3478.83 2
-3 0 2 81286.9 3535.29 4
-3 1 3 7674.27 1186.02 7
3 -1 -3 7753.33 760.088 1
-3 1 3 9622.42 696.476 1
3 -1 -3 8530.24 643.223 2
-3 2 4 4185.18 494.46 4
-3 2 4 4356.93 413.76 1
3 -2 -4 4080.67 602.736 5
3 -2 -4 5676.07 624.468 1
3 -2 -4 3998.76 431.06 2
-3 3 5 9766.93 1545.81 7
3 -3 -5 7357.38 948.704 5
-3 3 5 7229.24 740.143 4
-3 4 6 6595.17 783.298 4
3 -4 -6 9092.57 1146.44 5
3 8 5 2039.11 573.708 4
-3 -8 -5 3266.22 534.692 6
-3 -8 -5 1910.14 610.348 5
-3 -7 -4 33378.8 2002.19 6
3 7 4 28001.5 1882.55 1
-3 -7 -4 33388 2485.71 5
3 7 4 31712.3 2131.46 4
3 7 4 31893 1678.95 2
-3 -6 -3 12124.2 841.914 1
-3 -6 -3 13155.9 1028.26 6
3 6 3 10540.9 1274.26 3
3 6 3 11626.8 985.666 1
-3 -6 -3 13791.6 1309.89 5
3 6 3 11902.8 828.022 2
3 6 3 10732.8 1030.66 4
-3 -5 -2 13365.3 1079.46 7
-3 -5 -2 11475.3 859.796 1
3 5 2 13721.1 994.935 1
3 5 2 12374.5 831.369 6
-3 -5 -2 11344.2 924.797 6
3 5 2 10620.1 1179.38 3
-3 -5 -2 11121.3 1140.53 5
3 5 2 11309.2 801.909 2
3 5 2 12918.4 1018.25 4
-3 -4 -1 1237.42 288.557 7
3 4 1 968.344 241.135 4
-3 -4 -1 1018.38 219.499 1
3 4 1 817.114 174.93 6
-3 -4 -1 683.676 214.4 6
3 4 1 433.79 180.858 1
-3 -4 -1 1718.92 412.118 5
3 4 1 541.358 276.785 3
3 4 1 1035.37 198.641 2
-3 -3 0 68771.8 3515.31 7
-3 -3 0 66763.1 3238.78 1
3 3 0 69077 3355.86 7
3 3 0 66611.2 3300.66 1
3 3 0 67354.5 3352.89 6
-3 -3 0 69983.8 3596.36 6
-3 -3 0 70252.1 3317.73 3
3 3 0 72858.6 3530.17 3
3 3 0 67195.8 3563.99 5
-3 -3 0 59056 3705.54 5
3 3 0 68384.6 3152.73 2
-3 -3 0 69196.2 3235.41 4
3 3 0 68337.2 3208.57 4
3 2 -1 97375.3 4580.45 7
-3 -2 1 87030.3 4763.88 7
-3 -2 1 94630.4 4304.84 1
3 2 -1 95311.6 4383.51 1
3 2 -1 98869.1 4744.77 6
-3 -2 1 76203.2 4639.79 6
-3 -2 1 101315 4240.42 3
3 2 -1 91764 4865.88 5
3 2 -1 96032.3 4203.62 2
-3 -2 1 94600.7 4198.87 4
3 2 -1 91078.6 4172.13 4
3 1 -2 31548.7 2221.61 7
-3 -1 2 37090.1 2554.55 7
-3 -1 2 33067.7 1802.25 1
3 1 -2 34497.2 1889.78 1
3 1 -2 33441.6 2368.27 6
-3 -1 2 32521.8 1559.95 3
3 1 -2 33939 1728.74 2
-3 -1 2 34295.9 1696.6 4
-3 0 3 77989.3 4972.06 7
-3 0 3 85102.1 3989.29 1
3 0 -3 87245.6 4115.15 1
3 0 -3 86070.9 3912.51 2
-3 0 3 89548.4 3906.25 4
-3 1 4 139.541 91.3672 1
3 -1 -4 94.878 84.9081 2
-3 1 4 68.8195 64.606 7
-3 1 4 74.2709 60.959 4
3 -1 -4 178.111 135.99 1
-3 2 5 8804.79 1439.46 7
3 -2 -5 6496.4 720.686 1
3 -2 -5 6409.99 825.724 5
-3 2 5 6914.42 637.798 4
3 -2 -5 6492.06 570.443 2
-3 3 6 14950.1 2135.04 7
3 -3 -6 16955.7 1529.59 5
-3 3 6 15437.2 1158.55 4
3 8 4 719.912 330.684 4
-3 -8 -4 922.704 280.752 6
-3 -8 -4 729.389 386.944 5
-3 -7 -3 33185.1 2265.49 7
3 7 3 30730.7 1889.19 1
-3 -7 -3 29425.1 2025.2 6
3 7 3 30215.6 2534.79 3
-3 -7 -3 26258.5 2243.51 5
3 7 3 32180 1693.26 2
3 7 3 28034.2 2038.09 4
-3 -6 -2 18724.6 1479.85 7
-3 -6 -2 18437.6 1401.67 6
3 6 2 19231.7 1313.73 1
3 6 2 19165.1 1709.84 3
3 6 2 21220.7 1187.46 2
3 6 2 16104.7 1329.79 4
3 5 1 5463.59 602.053 1
3 5 1 5504.74 556.879 6
-3 -5 -1 4395.35 631.636 7
-3 -5 -1 4911.61 649.777 6
-3 -5 -1 7659.98 935.067 5
3 5 1 5588.01 793.015 3
3 5 1 6526.99 559.724 2
3 5 1 5619.32 672.616 4
-3 -4 0 84854.9 4422.24 7
3 4 0 92547.1 4254.99 1
3 4 0 91326 4234.85 6
-3 -4 0 89441.4 4538.67 6
3 4 0 90875.2 4510.73 3
-3 -4 0 91118.8 4845.56 5
3 4 0 86206.9 4047.13 2
-3 -4 0 86880.4 4162.3 4
3 4 0 91932.2 4188.21 4
3 3 -1 6138.38 619.271 1
-3 -3 1 6789.3 822.23 7
-3 -3 1 6459.56 598.514 3
3 3 -1 6306.33 725.96 6
-3 -3 1 7780.21 924.844 6
3 3 -1 4626.03 617.375 3
3 3 -1 6767.22 567.99 2
-3 -3 1 6225.69 941.599 5
-3 -3 1 5675.77 540.205 4
3 3 -1 6257 551.42 4
-3 -2 2 23556.2 1927.18 7
-3 -2 2 24289 1919.4 6
-3 -2 2 20452.2 1240.63 3
3 2 -2 22839.9 1494.62 3
3 2 -2 24031.6 1472.06 1
3 2 -2 25391.3 1360.12 2
-3 -2 2 24211.8 1290.44 4
3 2 -2 22954.4 1252.37 4
-3 -1 3 3069.14 754.506 7
-3 -1 3 3219.9 269.366 3
-3 -1 3 3016.93 658.795 6
3 1 -3 3916.24 415.516 2
3 1 -3 3784.96 481.448 1
-3 -1 3 3696.07 355.931 4
3 0 -4 71779 3577.55 1
3 0 -4 72707.4 3381.23 2
-3 0 4 74660.9 3269.63 4
-3 1 5 22426 2377.78 7
3 -1 -5 24802.8 1553.85 1
3 -1 -5 21085.3 1645.58 5
-3 1 5 23154.9 1284.73 4
3 -1 -5 22812.7 1313.35 2
-3 1 5 20781.8 1254.29 4
-3 2 6 11358.2 1829.16 7
3 -2 -6 16452 1480.44 5
-3 3 7 10274.8 1785.71 7
3 -3 -7 8534.9 1159.45 5
3 8 3 5935.74 863.665 4
-3 -8 -3 5656.53 919.588 7
-3 -8 -3 8073.22 981.557 6
-3 -8 -3 6863.52 1150.55 5
3 8 3 6712.21 1137.72 3
-3 -7 -2 13866.7 1364.16 7
3 7 2 15533.9 1214.32 1
-3 -7 -2 14108.7 1326.76 6
-3 -7 -2 17280.8 1715.92 5
3 7 2 11570.5 1464.99 3
3 7 2 15449.1 1036.89 2
3 7 2 13012.8 1288.31 4
-3 -6 -1 111450 5685.03 7
3 6 1 113368 5400.89 1
3 6 1 120636 6023.32 3
-3 -6 -1 117540 5694.15 6
-3 -6 -1 122216 6176.89 5
3 6 1 110481 5168.25 2
3 6 1 117151 5516.15 4
3 5 0 2184.39 324.438 2
3 5 0 1969.9 356.552 4
-3 -5 0 2141.85 437.863 7
-3 -5 0 2134.69 472.103 6
3 5 0 2164.57 370.045 1
3 5 0 3146.07 580.597 3
-3 -5 0 2565.44 595.042 5
3 4 -1 15458.7 1134.49 1
-3 -4 1 16901.9 1476.08 6
3 4 -1 15933.3 1315.47 3
-3 -4 1 13779.9 1525.39 5
-3 -4 1 15625.2 1053.82 4
3 4 -1 15851.2 1062.22 4
-3 -3 2 307.766 116.789 4
3 3 -2 104.295 87.8757 4
-3 -3 2 125.711 183.346 7
-3 -3 2 143.8 66.4425 6
-3 -3 2 382.968 159.72 3
3 3 -2 55.1571 81.979 1
3 3 -2 54.4809 68.5185 3
-3 -2 3 2363.09 274.913 4
-3 -2 3 1605.89 521.205 7
3 2 -3 1794.6 238.886 4
-3 -2 3 2706.44 625.397 6
-3 -2 3 1791.24 254.917 3
3 2 -3 2119.33 376.481 1
3 2 -3 1867.53 340.147 3
-3 -1 4 70009.3 4472.85 7
3 1 -4 77904.8 3390.88 1
-3 -1 4 69199.8 2781.22 3
-3 -1 4 76816.1 4364.69 6
3 1 -4 73932 3146.88 2
-3 -1 4 75171.2 2899.11 4
3 0 -5 44552.7 2438.34 1
3 0 -5 45486.2 2244.22 2
-3 0 5 41975.7 1978.06 4
-3 0 5 41964.9 1972.51 4
-3 1 6 12240 1930.46 7
3 -1 -6 16880.5 1264.39 1
3 -1 -6 15810.9 1403.8 5
3 -1 -6 15608.7 1063.85 2
-3 2 7 278.951 539.548 7
3 -2 -7 141.6 218.343 5
-3 -9 -3 426.186 328.465 6
-3 -8 -2 23183.8 1933.79 7
3 8 2 20149.8 1550.55 1
-3 -8 -2 21689.3 1846.31 6
3 8 2 19163.2 2112.2 3
-3 -8 -2 19277.3 2090.55 5
3 8 2 20521.7 1352.84 2
3 8 2 19457 1715.4 4
-3 -7 -1 14935.6 1475.97 7
3 7 1 16417.1 1308.08 1
-3 -7 -1 13727.6 1413.95 6
3 7 1 12538.3 1653.12 3
-3 -7 -1 15849.3 1744.06 5
3 7 1 17061.3 1153.81 2
3 7 1 17301.5 1458.81 4
3 6 0 2915.15 540.167 4
-3 -6 0 5275.46 811.388 6
-3 -6 0 4624.17 729.195 7
3 6 0 4201.14 581.087 1
3 6 0 4291.78 766.065 3
-3 -6 0 3371.9 765.867 5
3 5 -1 6709.97 752.211 1
-3 -5 1 6821.21 942.007 6
-3 -5 1 6064.01 830.899 7
3 5 -1 7234.42 878.083 3
-3 -5 1 4543.12 937.31 5
3 5 -1 6575.07 694.656 4
-3 -4 2 16763.8 1597.61 7
-3 -4 2 19295.3 1752.02 6
-3 -4 2 15111.8 1737.38 5
-3 -4 2 16267.3 1141.93 4
3 4 -2 16282.4 1136.01 4
3 4 -2 18932.8 1332.66 1
-3 -3 3 38329.9 2817.57 7
3 3 -3 40046 2239.24 1
-3 -3 3 38693.5 2827.54 6
-3 -3 3 35804.6 1985.42 3
3 3 -3 37732.9 2199.34 3
-3 -3 3 37088.7 1927.02 4
3 3 -3 38159.7 1915.45 4
-3 -2 4 4614.15 952.174 7
-3 -2 4 2693.05 707.102 6
-3 -2 4 3337.93 350.329 3
3 2 -4 3039.23 470.251 1
3 2 -4 2988.89 441.208 3
-3 -2 4 3698.73 332.089 4
-3 -1 5 28332.5 2628.53 7
3 1 -5 27142.4 1656.81 1
-3 -1 5 21010.3 1078.73 3
-3 -1 5 28110 2484.37 6
-3 -1 5 27503.6 1063.56 4
-3 0 6 5311.1 1174.79 7
3 0 -6 6752.03 664.934 2
3 0 -6 6393.35 759.482 1
3 -1 -7 5464.26 725.596 1
-3 1 7 6870.97 1485.74 7
3 -1 -7 7171.11 970.263 5
3 -1 -7 7761.69 717.75 2
-3 -9 -2 1636.02 551.517 6
3 8 1 428.844 212.664 2
3 8 1 171 184.857 4
-3 -8 -1 611.98 364.209 7
-3 -8 -1 530.977 379.997 6
3 8 1 496.89 304.946 3
-3 -8 -1 891.744 455.831 5
3 8 1 254.163 251.74 1
3 7 0 9369.6 967.141 1
-3 -7 0 9887.01 1191.26 7
-3 -7 0 10922.4 1283.9 6
3 7 0 9288.64 1253.64 3
-3 -7 0 8917.67 1382.22 5
3 7 0 8773.43 830.424 2
3 7 0 9859.84 1037.01 4
3 6 -1 11447.1 1089.9 1
3 6 -1 12335.7 1371.29 3
-3 -6 1 12479 1396.27 6
-3 -6 1 9388.4 1152.77 7
-3 -6 1 12384.5 1596.68 5
3 6 -1 11095.9 1022.88 4
-3 -5 2 32294.6 2420.23 7
3 5 -2 33657.3 2033.87 1
-3 -5 2 28693.1 2425.43 6
3 5 -2 29302.6 2108.05 3
-3 -5 2 24935.2 2495.76 5
3 5 -2 30371.8 1844.17 4
-3 -4 3 44283.2 3257.74 7
-3 -4 3 53138.5 3502.25 6
3 4 -3 52912.8 2790.29 3
3 4 -3 48907.7 2711.61 1
-3 -4 3 43732.4 2365.24 4
3 4 -3 43951.1 2371.74 4
-3 -3 4 7227.73 1211.19 7
3 3 -4 7495.69 803.969 3
-3 -3 4 10344.7 1379.53 6
3 3 -4 9609 919.272 1
-3 -3 4 7746.6 609.885 4
3 3 -4 9024.63 636.146 4
-3 -2 5 1125.65 687.706 7
-3 -2 5 1223.13 526.413 6
3 2 -5 716.382 276.064 1
3 2 -5 262.165 129.241 3
3 1 -6 14205.1 1237.58 1
-3 -1 6 13235.4 1934.08 7
-3 -1 6 16790.2 2034.84 6
3 0 -7 16304.6 1284.03 1
-3 0 7 11903.3 1926.85 7
3 0 -7 12614.6 1036.21 2
-3 1 8 14740.1 2298.42 7
3 -1 -8 18073.5 1689.17 5
-3 -9 -1 717.372 566.971 6
3 8 0 5400.92 668.511 2
3 8 0 5566.15 832.351 4
-3 -8 0 4471.65 854.066 7
-3 -8 0 4689.15 1020.79 6
3 8 0 7517.53 1242.41 3
-3 -8 0 6052.46 1206.21 5
3 8 0 5508.03 793.258 1
3 7 -1 7292.47 863.246 4
-3 -7 1 7190.97 1097.64 7
-3 -7 1 7525.41 1190.65 6
3 7 -1 7065.55 872.633 1
3 7 -1 6924.95 1111.06 3
-3 -7 1 6115.84 1275.96 5
-3 -6 2 13134.3 1504.24 7
3 6 -2 13116.6 1218.16 1
-3 -6 2 12995.6 1620.35 6
3 6 -2 12738.1 1350.61 3
-3 -6 2 11441.9 1647.1 5
3 6 -2 13033.7 1145.06 4
-3 -5 3 25506.4 2322.17 7
3 5 -3 27065.4 1886.25 1
-3 -5 3 29009.1 2536.06 6
3 5 -3 25327.4 1948.58 3
3 5 -3 27290 1687.34 4
-3 -4 4 25689.4 2387.14 7
3 4 -4 23154.5 1706.33 1
-3 -4 4 22275.6 2302.11 6
3 4 -4 22539.7 1705.06 3
3 4 -4 22813.5 1363.7 4
3 3 -5 14447.3 1272.98 1
-3 -3 5 15994.4 1962.69 7
3 3 -5 14274.3 1200.98 3
-3 -3 5 12871.4 1761.95 6
-3 -2 6 2488.52 883.958 7
-3 -2 6 2879.23 907.685 6
3 2 -6 2709.03 514.091 1
3 1 -7 27250.5 1921.74 1
-3 -1 7 23236.6 2861.03 7
3 0 -8 1216.67 305.835 2
-3 0 8 1771.48 868.949 7
3 0 -8 1492.17 368.397 1
3 8 -1 3611.06 654.002 4
-3 -8 1 5160.6 928.061 7
-3 -8 1 4986.41 1053.52 6
3 8 -1 4999.46 763.183 1
-3 -8 1 3669.72 1004.81 5
-3 -7 2 18532.5 1980.83 7
3 7 -2 22810.1 1785.13 1
3 7 -2 21687.2 2028.4 3
-3 -7 2 18578.2 2087.3 6
-3 -7 2 18582.2 2370.08 5
3 7 -2 21622.6 1671.22 4
-3 -6 3 416.463 348.177 7
3 6 -3 797.333 289.445 4
-3 -6 3 1590.95 585.363 6
3 6 -3 961.045 357.4 1
3 6 -3 970.388 416.594 3
-3 -6 3 484.167 397.682 5
3 5 -4 34242.6 2271.31 1
-3 -5 4 29292.9 2819.71 6
3 5 -4 35670 2355.87 3
3 5 -4 30425.7 1857.48 4
-3 -4 5 14944 1948.82 7
3 4 -5 15581.8 1359.46 3
-3 -4 5 13341.9 1856.63 6
3 4 -5 13156.7 1298.23 1
3 3 -6 13431.2 1298.84 1
-3 -3 6 14098 2080.75 7
3 3 -6 12798 1190.47 3
-3 -3 6 15552.8 2014.71 6
-3 -2 7 5245.8 1303.17 7
-3 -2 7 6594.75 1425.66 6
3 2 -7 8862.6 986.183 1
-3 -1 8 769.019 653.29 7
3 1 -8 252.812 220.485 1
3 8 -2 3823.14 716.347 4
3 8 -2 3988.01 750.171 1
3 7 -3 7339.29 901.991 4
-3 -7 3 5725.01 1137.51 7
-3 -7 3 5946.3 1178.23 6
3 7 -3 6093.89 957.493 1
3 7 -3 3018.92 818.626 3
-3 -7 3 2884.38 832.732 5
-3 -6 4 604.549 446.024 7
-3 -6 4 154.317 217.301 6
3 6 -4 608.903 367.523 1
3 6 -4 47.5187 76.3673 3
-3 -5 5 10122.1 1582.67 7
-3 -5 5 8914.98 1522.54 6
3 5 -5 9066.16 1118.64 1
3 5 -5 8607.96 1109.86 3
-3 -4 6 24221.8 2815.67 7
3 4 -6 23633.6 1793.82 3
-3 -4 6 21653 2587.31 6
3 4 -6 21566.7 1809.38 1
-3 -3 7 1579.96 710.299 7
-3 -3 7 1175.66 561.436 6
3 3 -7 495.357 265.402 1
3 2 -8 21160.6 1781.67 1
3 6 -5 6013.74 961.261 3
-3 -5 6 -182.699 205.557 7
3 5 -6 337.628 332.989 3
4 -2 9 121.846 234.509 6
4 -1 9 3294.66 867.407 6
-4 1 -9 2838.78 580.293 3
4 -2 8 6316.1 1111.4 6
-4 3 -7 337.105 237.07 4
4 -3 7 1460.46 701.138 6
-4 4 -6 4230.3 702.003 4
-4 -2 -11 3280.85 571.161 3
-4 -2 -11 2456.68 563.339 1
4 2 11 2250.58 565.987 2
-4 -1 -10 13924.7 1300.98 3
4 1 10 13308.9 1756.05 2
-4 -1 -10 15729 1405.99 1
4 0 9 3585.28 861.377 6
-4 0 -9 5413.75 746.697 3
-4 0 -9 4920.06 763.618 1
4 0 9 6115.21 1110.72 2
-4 1 -8 14366 1346.57 3
4 -1 8 14788.3 1619.24 6
4 -1 8 16659.9 1903.24 2
-4 1 -8 14779.2 1383.63 1
4 -2 7 17029.6 1754.57 6
-4 2 -7 15829.3 1436.74 3
4 -2 7 16713.7 1947.53 2
-4 2 -7 15285.8 1395.47 1
-4 3 -6 7613.36 917.439 4
4 -3 6 7372.37 1036.01 6
-4 3 -6 5096.44 799.543 3
-4 3 -6 5681.78 810.979 1
4 -3 6 3509.86 989.686 2
-4 4 -5 4163.25 726.883 4
4 -4 5 2631.52 699.175 6
-4 4 -5 4314.58 708.026 1
4 -4 5 4831.02 999.831 2
-4 5 -4 7503.85 962.383 1
-4 -3 -11 4163.12 645.733 3
-4 -3 -11 5786.46 757.717 1
4 3 11 4002.41 864.331 2
-4 -2 -10 1005.03 303.21 3
-4 -2 -10 1102.99 343.709 1
4 2 10 1817.28 607.489 2
4 1 9 19881.2 1824.92 6
4 1 9 14810.2 1755.57 2
-4 -1 -9 15328.7 1340.36 3
-4 -1 -9 17632.3 1438.3 1
4 0 8 18926.1 1983.63 2
-4 0 -8 18323 1483.68 3
4 0 8 20160.5 1814.44 6
-4 0 -8 19809 1543.64 1
4 -1 7 26739.3 2283.82 2
4 -1 7 24230.6 1920.55 6
-4 1 -7 23257.4 1651.19 3
4 -2 6 33790.4 2815.4 2
4 -2 6 27861.1 2276.32 6
-4 2 -6 31423.8 2193.15 3
4 -3 5 1022.33 358.477 6
-4 3 -5 1565.33 421.145 3
-4 3 -5 2050.35 457.051 1
4 -3 5 1587.94 544.66 2
-4 3 -5 1727.75 410.436 4
4 -4 4 23750.8 2319.24 2
4 -4 4 29837.1 2314.25 6
-4 4 -4 21521.5 1850.5 3
-4 4 -4 26046.1 2024.6 4
-4 4 -4 28254.4 1938.07 1
-4 5 -3 458.544 342.264 3
-4 5 -3 43.8089 169.561 1
-4 -4 -11 2561.04 473.168 3
-4 -3 -10 2044.97 469.597 1
4 3 10 1797.58 561.263 2
4 2 9 30067.4 2446.83 2
-4 -2 -9 29526.9 1921.1 3
4 2 9 26319 2138.82 6
-4 -2 -9 30262.2 1963.86 1
4 1 8 5012.83 762.31 6
-4 -1 -8 4106.93 577.695 3
-4 -1 -8 3674.44 574.814 1
4 1 8 3482.63 744.958 2
4 0 7 34656.5 2612.95 2
-4 0 -7 32662.3 2036.45 3
4 0 7 26426.4 2084.27 6
-4 0 -7 33267.3 2115.6 1
4 -1 6 17894.5 1858.35 2
4 -1 6 23082.4 1702.14 6
-4 1 -6 18431.9 1437.07 3
-4 1 -6 21316.7 1572.24 1
4 -2 5 50287.9 3379.37 2
4 -2 5 46696.6 2919.14 6
-4 2 -5 46034.3 2769.66 3
-4 2 -5 50795.6 2840.65 1
4 -3 4 312.98 214.937 6
-4 3 -4 50.9547 131.9 1
-4 3 -4 20.0807 127.061 3
-4 4 -3 8151.66 983.476 4
4 -4 3 7171.68 983.656 6
-4 4 -3 8953.11 998.197 3
-4 4 -3 5683.59 767.943 1
4 -4 3 6257.43 1120.58 2
-4 5 -2 12415.1 1265.06 3
-4 5 -2 11411.4 1103.95 1
-4 -5 -11 10278.9 1020.73 3
4 4 10 39439.5 2841 2
-4 -4 -10 45089.5 2507.56 3
-4 -4 -10 38051.6 2371.22 1
-4 -3 -9 923.67 298.849 3
-4 -3 -9 1964.46 370.652 1
4 3 9 1611.31 541.118 2
4 2 8 26036.3 2120.62 2
-4 -2 -8 29432.9 1790.33 3
4 2 8 25433.6 1900.09 6
-4 -2 -8 25215.1 1737.28 1
-4 -1 -7 2717.29 399.64 6
-4 -1 -7 3848.55 564.261 1
4 1 7 4118.77 635.578 6
-4 -1 -7 4683.97 569.514 3
4 1 7 2356.9 598.406 2
-4 0 -6 8596.4 819.02 3
4 0 6 7725.74 839.736 6
4 0 6 8644.14 1133.49 2
-4 0 -6 8008.9 840.813 1
4 -1 5 20163.2 1811.12 2
4 -1 5 19384.4 1481.16 6
-4 1 -5 21374.2 1468.04 3
-4 1 -5 20852.2 1486.5 1
4 -2 4 6750.1 523.675 7
4 -2 4 7869.64 878.139 6
-4 2 -4 6977.82 769.446 3
-4 2 -4 8231.96 842.16 1
4 -3 3 34081.9 2646.04 2
4 -3 3 39073 2483.47 6
-4 3 -3 36874.6 2305.55 3
-4 3 -3 38374.2 2282.47 1
4 -4 2 25044.6 2097.72 2
4 -4 2 25465.8 1979.14 6
-4 4 -2 24567.3 1794.91 3
-4 4 -2 24648.2 1920.01 4
-4 4 -2 22892.1 1642.71 1
-4 5 -1 8365.18 1045.5 4
4 -5 1 7710.07 1039.82 6
-4 5 -1 7858.67 962.991 3
-4 -6 -11 21632.9 1633.84 3
-4 -5 -10 9831.64 959.471 3
-4 -5 -10 8618.86 1015.04 5
-4 -4 -9 13013.6 1099.8 3
-4 -4 -9 12313.7 1108.63 5
4 4 9 10326.1 1200.96 2
-4 -4 -9 13891.8 1076.58 1
4 4 9 12453.6 1032.85 4
4 3 8 19422.8 1695.08 2
-4 -3 -8 20085.1 1390.59 3
-4 -3 -8 18174.8 1252.31 5
-4 -3 -8 19490.1 1370.31 1
4 3 8 18744.4 1320.69 4
-4 -2 -7 5410.12 521.983 7
-4 -2 -7 6241.43 670.487 3
-4 -2 -7 5089.06 462.854 6
4 2 7 6358.61 718.198 6
-4 -2 -7 6818.36 508.633 5
4 2 7 7833.75 979.449 2
-4 -1 -6 2835.26 341.86 6
4 1 6 2759.76 450.289 6
-4 -1 -6 2181.65 375.764 3
4 1 6 3766.93 657.503 2
-4 0 -5 19458.2 1299.68 3
4 0 5 17240.8 1271.79 6
-4 0 -5 17882.8 1149.49 6
4 -1 4 82651.7 4475.6 2
4 -1 4 82527.3 3996.29 6
-4 1 -4 77289 3916.88 3
4 -2 3 59734.9 3755.24 2
4 -2 3 54600.8 3372.64 7
4 -2 3 71560.5 3504.64 6
-4 2 -3 67849.8 3369.44 3
4 -2 3 66572.8 3013.45 5
4 -3 2 19760.9 1754.53 2
4 -3 2 19401 1571.54 6
-4 3 -2 22627.6 1529.11 3
4 -3 2 21027.6 1397.75 5
-4 3 -2 22257 1486.34 1
4 -4 1 32419.3 2301.66 2
4 -4 1 29886.3 2137.32 6
-4 4 -1 27821 1917.21 3
4 -4 1 27885.3 1922.44 5
-4 4 -1 28243.5 2082.66 4
-4 4 -1 28281.6 1792.84 1
-4 5 0 583.476 337.079 4
4 -5 0 660.26 324.07 6
-4 5 0 420.374 218.059 3
4 -5 0 860.002 360.423 5
-4 -6 -10 1100.98 313.953 3
-4 -6 -10 924.745 436.978 5
4 5 9 17903.4 1518.01 2
-4 -5 -9 19972.5 1418.59 3
-4 -5 -9 17937.9 1519.02 5
-4 -5 -9 18598 1257.01 1
4 5 9 18012.1 1369.43 4
4 4 8 4135.31 525.189 4
-4 -4 -8 2923.19 462.121 3
4 4 8 3280.13 596.054 2
-4 -4 -8 3527.28 517.469 5
4 3 7 28768.5 1986.12 2
-4 -3 -7 27680.1 1926.45 7
-4 -3 -7 28486.2 1668.51 3
-4 -3 -7 23474.7 1229.86 6
4 3 7 26359.6 1485.92 5
-4 -3 -7 30294.8 1615.12 5
4 3 7 27760.9 1651.52 4
-4 -2 -6 741.103 109.599 7
-4 -2 -6 878.937 216.208 7
-4 -2 -6 610.036 118.837 6
-4 -2 -6 528.012 175.697 3
4 2 6 809.157 188.297 6
4 2 6 154.27 167.418 2
-4 -2 -6 606.18 136.346 5
-4 -1 -5 19582.3 985.331 6
4 1 5 17758.8 1099.41 6
4 0 4 86316.2 4669.14 2
-4 0 -4 90430.1 4287.55 3
4 0 4 95860 4272.66 6
4 -1 3 24170.8 1819.25 2
4 -1 3 23597.8 1509.72 6
-4 1 -3 21826.8 1457.76 3
4 -1 3 24885.8 1457.2 7
4 -1 3 25533.2 1207.76 5
4 -2 2 26273.2 1905.82 2
4 -2 2 20873.8 1756.48 7
4 -2 2 23190.2 1577.43 6
-4 2 -2 23208.7 1500.98 3
4 -2 2 24832.9 1408.88 5
4 -3 1 21716.2 1791.74 2
4 -3 1 23529.8 1673.74 6
-4 3 -1 21502.1 1461.86 3
4 -3 1 21075.9 1468.99 5
4 -4 0 16764.4 1523.61 2
-4 4 0 21125.8 1474.88 3
4 -4 0 21841.6 1680.76 6
4 -4 0 18457.7 1527.87 5
-4 4 0 20430.6 1671.76 4
-4 4 0 18847.7 1306.89 1
-4 5 1 949.934 363.464 4
4 -5 -1 443.937 277.466 6
4 -5 -1 577.816 272.941 5
4 -6 -2 -3.09552 0.1252 5
-4 -7 -10 923.018 440.243 5
4 6 9 1924.9 410.457 4
-4 -6 -9 2907.42 595.453 5
4 5 8 11398.5 1105.03 2
-4 -5 -8 10719.9 1087.83 5
4 5 8 11378.4 1021.62 4
4 4 7 2657.97 430.421 4
-4 -4 -7 2039.07 530.272 7
4 4 7 2882.75 527.176 2
-4 -4 -7 3663.55 526.836 5
4 3 6 70127.5 3753.19 2
-4 -3 -6 69386.2 3737.82 7
4 3 6 69465.2 3322.37 5
-4 -3 -6 75256.8 3468.05 5
4 3 6 73370.5 3540.66 4
4 2 5 138015 6340.4 2
-4 -2 -5 136734 5607.86 7
-4 -2 -5 137881 5818.79 7
-4 -2 -5 130980 5976.74 3
4 2 5 129122 5745.3 6
4 2 5 130568 5669.6 5
-4 -2 -5 136814 5859.94 5
4 2 5 130411 6012.61 4
4 1 4 9631.47 927.789 2
4 1 4 9009.78 645.728 6
-4 -1 -4 9371.2 756.732 3
4 0 3 21876.8 1560.56 2
4 0 3 20544 1008.28 7
-4 0 -3 19745.9 1257.66 3
4 0 3 20640.8 1239.29 6
4 0 3 21308.9 999.737 5
4 0 3 20920 1100.31 5
4 -1 2 31546.7 1998.14 2
4 -1 2 27628 1864.24 7
4 -1 2 29547.5 1719.54 6
-4 1 -2 28110.8 1642.41 3
4 -1 2 30460.8 1547.62 5
4 -2 1 3450.45 689.253 7
4 -2 1 3439.33 498.538 6
4 -2 1 4076.47 616.931 2
-4 2 -1 3600.75 447.217 3
4 -2 1 3277.22 426.816 5
4 -3 0 13186.1 1237.92 2
4 -3 0 16248.2 1304.86 6
-4 3 0 15359 1119.72 3
4 -3 0 15236.4 1225.51 5
4 -4 -1 14142.9 1266.38 6
-4 4 1 10522.7 972.376 3
4 -4 -1 11440.4 1184.27 5
-4 4 1 12011.2 1209.65 4
-4 5 2 1121.6 391.957 4
4 -5 -2 737.492 322.501 6
4 -5 -2 1125.23 396.061 5
4 7 9 3990.43 640.482 4
-4 -7 -9 3599.71 753.447 5
4 6 8 2115.84 458.784 4
4 6 8 2106.64 434.486 2
-4 -6 -8 3390.46 630.033 5
4 5 7 15682.6 1264.32 2
-4 -5 -7 17064.9 1388.11 5
4 5 7 15228.9 1223.19 4
4 4 6 36935.1 2201.31 2
-4 -4 -6 33844.1 2430.72 7
-4 -4 -6 39309.6 2189.3 5
4 4 6 34240.4 2070.62 4
4 3 5 97126.8 4514.28 2
-4 -3 -5 89840.6 4112.97 7
4 3 5 93331.7 4187.01 5
-4 -3 -5 92245.5 4309.67 5
4 3 5 90671.5 4338.91 4
-4 -2 -4 28740.1 1453.08 7
4 2 4 28449.3 1341.2 6
4 2 4 28727 1458.41 5
-4 -2 -4 27456.7 1644.76 5
4 2 4 29135.4 1681.16 4
4 2 4 31839.6 1852.83 2
4 1 3 43459.1 1876.18 7
-4 -1 -3 40762 2073.92 7
-4 -1 -3 39840.3 2116.91 3
4 1 3 42650 2001.48 6
4 1 3 42478.9 2013.81 5
4 1 3 40352.8 2358.75 2
4 0 2 24876.4 1626.64 2
4 0 2 24211 1476.98 7
-4 0 -2 24364 1543.76 7
4 0 2 25651 1411.7 6
-4 0 -2 22857.6 1361.16 3
4 0 2 25729.7 1292.95 5
4 -1 1 480.141 301.672 7
4 -1 1 596.156 175.016 6
4 -1 1 528.866 230.775 2
-4 1 -1 852.252 183.949 3
4 -1 1 480.194 150.835 5
4 -2 0 6744.01 578.427 3
4 -2 0 7238.21 746.855 6
-4 2 0 7556.01 625.02 3
4 -2 0 5289.55 676.614 2
4 -2 0 6063.87 653.171 5
4 -3 -1 9372.96 967.036 6
-4 3 1 10096.8 806.23 3
4 -3 -1 9302.15 945.312 5
4 -3 -1 8318.41 900.876 2
4 -4 -2 15180.7 1410.32 6
4 -4 -2 14636.4 1406.04 5
-4 4 2 17568.6 1480.78 4
-4 5 3 751.016 311.068 4
4 -5 -3 578.908 373.839 5
4 8 9 2660.26 613.047 4
4 7 8 9953.72 1096.56 4
-4 -7 -8 9910.55 1269.8 5
4 6 7 15410.5 1170.67 2
-4 -6 -7 15372.1 1436.15 5
4 6 7 13122.7 1208.56 4
4 5 6 6350.57 688.577 2
4 5 6 6037.78 696.419 4
-4 -5 -6 6037.03 769.432 5
4 4 5 7642.39 729.72 5
-4 -4 -5 8454.34 834.374 5
4 4 5 9384.44 830.437 4
4 4 5 8895.98 810.2 2
-4 -3 -4 79138.9 3512.64 7
-4 -3 -4 76363 3925.38 1
4 3 4 75325.7 3562.62 5
-4 -3 -4 80968 3775.05 5
4 3 4 70980.2 3636.79 4
4 3 4 74350.3 3697.22 2
-4 -2 -3 56218.8 2799.06 7
4 2 3 58597.2 2542.66 6
4 2 3 60466 2797.91 6
-4 -2 -3 60743.1 3213.92 1
4 2 3 62112.6 2815.61 5
-4 -2 -3 57552.1 3062.95 5
-4 -2 -3 57018.4 2856.03 2
-4 -2 -3 58978.5 2924.87 4
4 2 3 54914.8 2946.39 2
4 2 3 57978.6 2905.81 4
4 1 2 4771.91 438.213 7
-4 -1 -2 4153.2 547.876 7
-4 -1 -2 4226.84 453.347 2
-4 -1 -2 4218.84 411.715 3
4 1 2 3729.59 487.9 2
-4 -1 -2 4034.24 574.587 1
4 1 2 5229.57 560.858 5
4 0 1 77031.6 3780.61 7
-4 0 -1 78222.5 3892.55 7
-4 0 -1 69216.7 3264.13 3
-4 0 -1 71464.4 3737.51 1
4 0 1 70389.2 3534.3 2
4 -1 0 385.372 303.184 7
-4 1 0 2.32002 107.334 7
4 -1 0 36.7094 86.1686 2
-4 1 0 215.203 88.7151 3
4 -1 0 208.372 130.232 5
4 -2 -1 8162.14 772.333 2
-4 2 1 6373.62 1025.26 7
-4 2 1 5737.07 517.211 3
4 -2 -1 5377.87 648.531 5
4 -3 -2 14309.4 1121.31 2
-4 3 2 13893 962.085 3
4 -3 -2 15593.1 1323.79 5
-4 3 2 14856.4 1259.45 4
4 -4 -3 23690.9 1920.55 6
4 -4 -3 26950 2016.91 5
-4 4 3 22291.6 1782.75 4
-4 5 4 47448.5 3039.09 4
4 8 8 5340.56 847.571 4
-4 -8 -8 5859.35 1050.95 5
4 7 7 8324.51 981.245 4
-4 -7 -7 10221.9 1238.14 5
-4 -6 -6 24518.8 1275.53 6
-4 -6 -6 25304.5 1916.32 5
4 6 6 23074.9 1703.65 4
4 6 6 22959.9 1516.61 2
-4 -5 -5 360.616 147.057 2
4 5 5 975.109 267.272 4
4 5 5 700.129 199.345 2
-4 -5 -5 698.111 111.724 6
-4 -5 -5 827.705 128.277 6
-4 -5 -5 918.14 269.425 1
-4 -5 -5 1250.77 326.642 5
-4 -4 -4 22721.6 1449.57 7
-4 -4 -4 22546.3 1543.96 1
4 4 4 25798.3 1555.47 5
-4 -4 -4 25170.2 1664.3 5
-4 -4 -4 22669.8 1359.89 2
4 4 4 24758.5 1532.44 4
4 4 4 25038.2 1489.08 2
-4 -3 -3 1154.96 216.336 2
4 3 3 634.446 195.386 4
-4 -3 -3 708.373 181.284 7
4 3 3 734.399 188.645 2
4 3 3 1134.46 108.436 6
-4 -3 -3 890.606 259.245 1
4 3 3 1410.8 289.047 5
-4 -3 -3 1268.93 317.131 5
4 2 2 45471.6 2074.69 7
-4 -2 -2 42645.4 2270.13 7
-4 -2 -2 41841.9 2342.86 1
4 2 2 43682.8 2234.5 6
4 2 2 34685 2349.42 1
4 2 2 41408.9 2226.85 5
-4 -2 -2 42085.1 2100.72 2
-4 -2 -2 42033.5 2174.51 4
4 2 2 41860.7 2148.68 4
4 1 1 66570.6 3247.87 7
-4 -1 -1 68874.6 3594.44 7
-4 -1 -1 60792.8 2947.94 3
-4 -1 -1 64774.3 3316.12 1
4 1 1 65938.1 3537.96 5
-4 -1 -1 61878.6 3062.1 2
4 1 1 67517.2 3189.68 2
-4 -1 -1 70895.3 3225.41 4
4 0 0 46532.9 2842.7 7
-4 0 0 46472.3 2939.99 7
-4 0 0 49748.9 2556.66 1
-4 0 0 44289.3 2133.95 3
-4 0 0 44298.8 2275.73 2
4 0 0 47069.3 2417 2
-4 1 1 21127.9 1902.78 7
-4 1 1 21496.5 1400.54 1
-4 1 1 18238.1 1062.23 3
4 -1 -1 23460 1442.56 5
-4 1 1 20808.1 1206.55 2
4 -1 -1 21350.7 1356.88 2
-4 2 2 6623.56 699.951 1
-4 2 2 6613.19 1117.64 7
-4 2 2 8668.77 581.611 3
4 -2 -2 8948.93 892.012 5
-4 2 2 6887.71 593.275 2
4 -2 -2 8497.63 769.686 2
4 -3 -3 85238.9 4718.43 5
-4 3 3 95779.8 4635.33 4
-4 4 4 176.924 195.164 4
4 -4 -4 61.5987 56.0793 5
-4 5 5 453.665 320.782 4
4 8 7 12447.7 1309.03 4
-4 -8 -7 16828.4 1746.41 5
-4 -7 -6 15698.9 1615.97 5
4 7 6 19215.1 1523.72 4
4 7 6 16354.6 1172.36 2
-4 -6 -5 25064.1 1249.77 6
-4 -6 -5 23631.7 1797.36 5
4 6 5 22906 1588.34 4
4 6 5 23567 1360.6 2
-4 -5 -4 8284.44 804.455 7
-4 -5 -4 8600.55 627.515 6
-4 -5 -4 8057.51 926.929 5
4 5 4 6995.88 829.376 1
4 5 4 8098 709.213 2
4 5 4 8434.24 822.414 4
-4 -4 -3 10385.1 868.384 7
-4 -4 -3 9439.33 849.699 1
4 4 3 10980.6 582.137 6
-4 -4 -3 10859.5 745.626 6
4 4 3 9981.43 1008.62 1
-4 -4 -3 11080.6 1052.8 5
4 4 3 10590.8 818.556 2
4 4 3 10773.2 894.875 4
-4 -3 -2 85122.1 4038.34 7
-4 -3 -2 88570.3 4055.74 1
4 3 2 80723.3 3761.69 6
4 3 2 78566.3 4181.76 1
-4 -3 -2 91098.8 4300.96 3
4 3 2 79360.1 4041.05 5
-4 -3 -2 84654.3 4355.65 5
-4 -3 -2 84800.4 3828.76 2
4 3 2 84130.7 3891.33 2
4 3 2 79993.3 3911.15 4
4 2 1 6706.15 635.952 7
-4 -2 -1 6984.22 788.339 7
-4 -2 -1 7417.86 718.233 1
4 2 1 8023.15 816.39 6
4 2 1 7414.36 809.038 5
4 2 1 5564.12 724.255 1
-4 -2 -1 6988.16 591.971 2
4 2 1 6270.69 600.031 2
-4 -2 -1 7915.21 667.553 4
4 2 1 6873.42 622.779 4
4 1 0 162008 7124.96 7
-4 -1 0 147290 7361.76 7
-4 -1 0 155353 6823.11 1
4 1 0 146406 7035.01 1
4 1 0 138060 7287.98 5
-4 -1 0 147104 6588.09 2
4 1 0 156475 6702.56 2
-4 -1 0 147668 6695.46 4
-4 0 1 51081.8 3470.41 7
-4 0 1 55558.3 2424.25 3
4 0 -1 47100.4 2956.03 1
4 0 -1 57265.6 2747.63 2
-4 1 2 60931.9 2605.94 3
-4 1 2 58467.4 3939.92 7
4 -1 -2 59907.9 3177.99 5
4 -1 -2 57776.3 2955.4 2
-4 2 3 889.94 469.748 7
4 -2 -3 340.51 178.159 2
4 -2 -3 883.317 284.931 5
-4 3 4 128.544 164.069 4
-4 3 4 884.713 647.134 7
4 -3 -4 271.218 220.333 5
-4 4 5 3128.97 566.786 4
4 -4 -5 2583.23 582.509 5
4 8 6 4204.73 732.274 4
-4 -8 -6 2510.64 682.321 5
4 7 5 5573.37 781.761 4
4 7 5 4731.89 518.236 2
-4 -7 -5 4141.85 520.711 6
-4 -6 -4 17482.8 1408.97 7
-4 -6 -4 18795.5 1212.82 6
4 6 4 17345 1431.65 1
-4 -6 -4 17005.2 1571.65 5
4 6 4 17229.6 1158.08 2
4 6 4 16129.8 1341.12 4
-4 -5 -3 47001.2 2586.02 7
4 5 3 46411 2124.05 6
-4 -5 -3 49805.4 2439.32 6
4 5 3 40989.5 2576.37 1
-4 -5 -3 46881.6 2863.14 5
4 5 3 41538.2 2307.42 2
4 5 3 43857.5 2490.27 4
-4 -4 -2 17070.5 1266.53 7
4 4 2 16416.8 997.95 6
4 4 2 16739.7 1311.66 1
-4 -4 -2 19457 1274 6
-4 -4 -2 15745.2 1427.11 5
4 4 2 17754.6 1125.62 2
4 4 2 16468.6 1176.03 4
4 3 1 41955 2219.24 7
-4 -3 -1 41491 2397.3 7
4 3 1 40127.9 2353.3 1
4 3 1 38779.3 2192.66 6
-4 -3 -1 40227.1 2369.69 6
-4 -3 -1 42182.7 2362.16 3
4 3 1 40313.3 2402.16 5
-4 -3 -1 40802.9 2700.44 5
4 3 1 39772.4 2104.02 2
-4 -3 -1 39629.3 2163.76 4
4 3 1 40198.6 2138.55 4
4 2 0 10166.5 938.535 7
-4 -2 0 7770.22 1011 7
4 2 0 11403.5 993.821 1
4 2 0 11428.2 1126 6
-4 -2 0 11046 886.497 3
4 2 0 9198.47 1078.44 5
4 2 0 11390.3 829.791 2
-4 -2 0 11104.5 840.559 4
4 2 0 10779.7 806.438 4
-4 -1 1 104644 5905.61 7
4 1 -1 117819 5433 1
-4 -1 1 106292 5010.51 3
4 1 -1 116865 5091.95 2
-4 -1 1 114193 5089.45 4
-4 0 2 24947.7 2312.64 7
-4 0 2 28403.4 1235.66 3
4 0 -2 26023.4 1824.26 1
-4 0 2 25713.1 1299.93 3
4 0 -2 27835.1 1598.96 2
-4 0 2 29058.9 1650.92 4
-4 1 3 1252.42 554.519 7
4 -1 -3 1108.62 247.926 2
4 -1 -3 1006.68 316.949 1
4 -1 -3 880.543 277.565 5
-4 2 4 21263 2311.86 7
4 -2 -4 20259 1587.63 5
-4 2 4 16731.1 1278.14 4
4 -2 -4 16656.3 1163.78 2
-4 3 5 2299.28 440.868 4
-4 3 5 3013.06 992.236 7
4 -3 -5 1999.52 519.733 5
4 8 5 4577.54 775.852 4
-4 -8 -5 5024.53 816.91 7
-4 -8 -5 3746.61 832.3 5
-4 -7 -4 58406.4 3313.69 7
-4 -7 -4 54755.4 2964.04 6
4 7 4 52390 3103.25 1
-4 -7 -4 51987.3 3513.52 5
4 7 4 53371.9 2761.04 2
4 7 4 58609.5 3229.42 4
-4 -6 -3 27215.3 1854.31 7
4 6 3 24891.5 1414.39 6
-4 -6 -3 24298.6 1654.75 6
4 6 3 25266.4 1776.56 1
-4 -6 -3 23982.4 2009.52 5
4 6 3 26344.8 1537.57 2
4 6 3 26298.8 1760.21 4
-4 -5 -2 28208 1852.61 7
4 5 2 27676 1508.46 6
4 5 2 24988.1 1782.27 1
-4 -5 -2 26293.4 1773.63 6
-4 -5 -2 29769.5 2157.46 5
4 5 2 28135.5 1607.11 2
4 5 2 28484.3 1754.46 4
-4 -4 -1 26899.8 1798.02 7
4 4 1 24848.3 1678.41 1
4 4 1 24470.3 1505.7 6
-4 -4 -1 28041.4 1837 6
-4 -4 -1 27053.4 2104.72 5
4 4 1 23462.4 1456.14 2
4 4 1 25925.7 1569.44 4
-4 -3 0 17444.4 1443.15 7
4 3 0 11244.2 1082.59 1
4 3 0 16459.1 1272.47 6
-4 -3 0 16818.9 1406.95 6
-4 -3 0 14970.6 1097.53 3
4 3 0 12964.2 956.461 2
-4 -3 0 15189.3 1049.86 4
4 3 0 15527.4 1040.32 4
-4 -2 1 567.417 158.34 4
4 2 -1 1103.49 229.588 2
-4 -2 1 762.458 346.175 7
4 2 -1 1126.03 233.819 4
4 2 -1 550.726 220.937 1
-4 -2 1 260.793 172.98 3
-4 -1 2 13460 1600.79 7
4 1 -2 14002 1193.61 1
-4 -1 2 14613.4 840.826 3
4 1 -2 14891.7 1028.93 2
-4 -1 2 17945.6 1072.83 4
-4 0 3 32295.7 2844.66 7
4 0 -3 33917.5 2131.01 1
4 0 -3 37728.7 1926.67 2
-4 0 3 30928.1 1839.51 4
-4 1 4 10479.9 1625.11 7
4 -1 -4 12626.6 1198.79 1
4 -1 -4 14005.3 1252.23 5
4 -1 -4 12835.1 944.565 2
-4 2 5 14633.4 2049.8 7
4 -2 -5 14503.2 1389.58 5
-4 2 5 12388.3 1035.17 4
-4 3 6 7970.11 1646.23 7
4 -3 -6 7337.05 1036.18 5
-4 -8 -4 4334.67 785.597 7
4 8 4 2946.5 654.796 4
-4 -8 -4 4291.76 662.819 6
-4 -8 -4 4873.49 992.213 5
-4 -7 -3 21384.8 1752.98 7
4 7 3 19302.6 1630.99 1
-4 -7 -3 21214.9 1624.21 6
-4 -7 -3 23102.7 2046.43 5
4 7 3 22568.6 1411.33 2
4 7 3 23140.1 1724.02 4
-4 -6 -2 4056.29 652.108 7
4 6 2 5316.48 670.326 4
4 6 2 3672.84 467.274 2
-4 -6 -2 4196.93 654.437 6
4 6 2 4225.01 590.659 1
-4 -6 -2 4427.2 802.829 5
4 6 2 2554.19 693.061 3
-4 -5 -1 43763.7 2665.96 7
4 5 1 45282.4 2560.82 1
4 5 1 42938.6 2320.74 6
-4 -5 -1 51785.3 2850.73 6
-4 -5 -1 45363.1 3078.23 5
4 5 1 44491.8 2319.56 2
4 5 1 46356.5 2474.6 4
-4 -4 0 23563.7 1823 7
4 4 0 25150.3 1653.76 1
4 4 0 24215.5 1608.18 6
-4 -4 0 23091.1 1853.59 6
4 4 0 19291.8 1786.9 3
-4 -4 0 22124.2 2054.07 5
4 4 0 26192.9 1495.08 2
4 4 0 25660.4 1524.94 4
-4 -3 1 1956.3 325.143 4
4 3 -1 2685.76 452.5 1
4 3 -1 2664.25 361.281 4
4 3 -1 1928.52 320.772 2
-4 -3 1 1369.29 460.593 6
-4 -3 1 2115.01 337.152 3
-4 -3 1 1044.31 394.181 7
-4 -2 2 6091.44 1025.37 7
4 2 -2 3661.18 629.543 1
-4 -2 2 4934.86 473.529 3
-4 -2 2 7199.12 1021.69 6
4 2 -2 6716.16 605.972 2
-4 -2 2 6533.33 577.963 4
4 2 -2 5537.52 529.056 4
-4 -1 3 23922.5 2365.92 7
4 1 -3 26552.8 1756.63 1
-4 -1 3 24898.7 1182.86 3
4 1 -3 27556.1 1555.4 2
-4 -1 3 25717 1467.24 4
-4 0 4 14620.1 1898.5 7
4 0 -4 15935.3 1285.51 1
4 0 -4 16287 1096.6 2
-4 0 4 13347 986.023 4
-4 1 5 16749.4 2155.41 7
4 -1 -5 14761 1324.68 1
4 -1 -5 14093.9 1371.47 5
-4 1 5 15108.4 1066.45 4
4 -1 -5 16654.3 1121.05 2
-4 2 6 42420.8 3974.82 7
4 -2 -6 45982.3 3044.6 5
4 8 3 413.033 339.661 4
4 8 3 341.906 186.59 2
-4 -8 -3 706.292 323.888 6
-4 -8 -3 477.858 366.298 7
-4 -8 -3 3.74892 179.449 5
4 8 3 425.708 290.444 1
-4 -7 -2 17269.7 1582.68 7
4 7 2 21634.6 1562.65 1
-4 -7 -2 17407.7 1535.09 6
4 7 2 16887.5 1831.8 3
-4 -7 -2 16302.4 1804.81 5
4 7 2 17701.4 1221.27 2
4 7 2 14527.9 1362.81 4
-4 -6 -1 11325.9 1194.52 7
4 6 1 14106 1173.48 1
-4 -6 -1 10248.2 1158.73 6
-4 -6 -1 10203.8 1366.43 5
4 6 1 11559.3 1351.76 3
4 6 1 11582.1 925.67 2
4 6 1 12310.4 1092.68 4
-4 -5 0 28822.3 2186.17 7
4 5 0 31318.2 2040 1
-4 -5 0 37521.3 2447.64 6
4 5 0 31165.3 2292.23 3
-4 -5 0 35302.1 2707.49 5
4 5 0 32137.9 1846.57 2
4 5 0 30759.2 1922.27 4
-4 -4 1 59512.2 3571.3 7
4 4 -1 54963.4 3063.41 1
-4 -4 1 60409.1 3612.14 6
4 4 -1 60542.7 2901.41 2
4 4 -1 58679.9 2875.81 4
4 3 -2 97.3589 120.063 1
-4 -3 2 268.241 156.451 4
4 3 -2 138.241 94.5966 2
-4 -3 2 72.7065 141.188 7
4 3 -2 182.049 101.922 4
-4 -3 2 567.549 386.027 6
-4 -3 2 324.743 167.07 3
4 3 -2 37.4784 87.875 3
-4 -2 3 12655.9 1614.42 7
4 2 -3 11599.7 1085.75 1
-4 -2 3 13043.8 822.652 3
-4 -2 3 13605.3 1566.76 6
4 2 -3 13733.8 996.883 2
-4 -2 3 12161.7 880.281 4
-4 -1 4 11548 1675.1 7
4 1 -4 13568.2 1186.1 1
4 1 -4 14446.2 1037.96 2
-4 -1 4 13135.3 897.651 4
-4 0 5 34844.7 3312.03 7
4 0 -5 35173.3 2373.67 1
4 0 -5 37781 2069.06 2
-4 1 6 8708.51 1659.43 7
4 -1 -6 11519.6 1230.16 5
4 -1 -6 6731.39 902.445 1
4 -1 -6 9675.5 822.551 2
-4 -8 -2 15826.5 1635.7 7
4 8 2 15827.3 1432.12 1
-4 -8 -2 18581 1715.94 6
-4 -8 -2 15068.3 1898.46 5
4 8 2 16140 1194.82 2
4 8 2 16535.2 1539.62 4
4 7 1 5064.68 741.215 4
4 7 1 5524.3 617.841 2
-4 -7 -1 5146.94 876.962 7
4 7 1 5858.13 754.734 1
-4 -7 -1 4590.1 793.627 6
-4 -7 -1 6084.21 1120.41 5
4 7 1 4323.97 975.11 3
-4 -6 0 14896.8 1491.89 7
4 6 0 13550.1 1254.01 1
4 6 0 16681.2 1628.34 3
-4 -6 0 13899.8 1496.54 6
-4 -6 0 15092.5 1790.58 5
4 6 0 14936.8 1129.91 2
4 6 0 16763 1298.56 4
-4 -5 1 7332.09 1021.33 7
4 5 -1 6304.54 697.363 4
-4 -5 1 8245.2 1115.16 6
4 5 -1 7770.75 1004.49 3
-4 -5 1 6456.06 1149.99 5
4 5 -1 7058.08 701.385 2
4 5 -1 7706.07 838.195 1
-4 -4 2 38872.9 2954.1 7
-4 -4 2 40947.5 3007.58 6
4 4 -2 43257.1 2660.39 3
4 4 -2 45118.1 2285.47 2
4 4 -2 40865.5 2150.1 4
-4 -3 3 5608.07 1086.76 7
-4 -3 3 7773.34 649.968 3
-4 -3 3 6134.65 1100.83 6
4 3 -3 7244.51 712.531 2
4 3 -3 7168.07 822.62 1
-4 -3 3 6445.69 600.665 4
4 3 -3 7854.28 626.49 4
-4 -2 4 43365.2 3549.12 7
4 2 -4 43392.1 2569.91 1
-4 -2 4 42540.9 3336.91 6
4 2 -4 39903.9 2276.06 2
-4 -1 5 14908 1970.65 7
4 1 -5 13081.6 1001.3 2
4 0 -6 74.0452 94.1093 2
-4 0 6 421.113 502.752 7
4 0 -6 396.456 240.466 1
-4 1 7 9274.28 1868.35 7
4 -1 -7 14107.5 1447 5
-4 -9 -2 4165.8 931.517 6
4 8 1 12261.1 1238.44 4
-4 -8 -1 11037.3 1372.25 7
4 8 1 11129.7 1181.17 1
-4 -8 -1 8806.72 1286.37 6
-4 -8 -1 9629.63 1599.05 5
4 8 1 8793.25 1393.82 3
4 8 1 10814 973.039 2
4 7 0 185.239 131.928 2
4 7 0 242.355 227.304 4
-4 -7 0 198.712 205.247 7
-4 -7 0 344.775 283.904 6
4 7 0 318.139 392.765 3
-4 -7 0 -40.8122 162.33 5
4 7 0 90.149 159.766 1
4 6 -1 2104.76 378.87 2
4 6 -1 2827.08 488.906 4
-4 -6 1 1803.07 535.216 7
-4 -6 1 3204.45 741.742 6
4 6 -1 1776 544.058 3
-4 -6 1 2197.49 787.297 5
4 6 -1 2703.39 509.837 1
-4 -5 2 34423.2 2808.33 7
4 5 -2 39767.8 2439.08 1
-4 -5 2 41650.9 3094.7 6
4 5 -2 33811.5 2626.18 3
4 5 -2 38288.3 2196.84 2
4 5 -2 37328.6 2154.58 4
-4 -4 3 47439.2 3496.55 7
4 4 -3 42585.3 2600.39 1
-4 -4 3 46027.7 3379.13 6
4 4 -3 36814.6 2614.5 3
4 4 -3 43609.3 2396.46 2
4 4 -3 41755.6 2223.45 4
-4 -3 4 18898.3 2236.7 7
4 3 -4 19749.1 1527.55 1
-4 -3 4 18732.7 2091.17 6
4 3 -4 20441.4 1385.68 2
4 3 -4 19283.5 1123.3 4
4 2 -5 2142.32 374.933 2
-4 -2 5 553.358 546.025 7
-4 -2 5 1802.45 709.859 6
4 2 -5 2405.69 468.384 1
4 1 -6 5729.41 807.841 1
-4 -1 6 5953.4 1391.59 7
4 1 -6 7514.7 766.693 2
4 0 -7 216.628 191.324 2
-4 0 7 434.757 446.617 7
4 0 -7 492.009 266.141 1
-4 -9 -1 345.323 430.592 6
4 8 0 3365.26 658.542 1
4 8 0 4362.48 609.979 2
4 8 0 4662.81 762.413 4
-4 -8 0 5642.74 1035.95 7
-4 -8 0 4013.9 939.715 6
-4 -8 0 4510.84 1172.8 5
4 7 -1 4633.37 649.141 2
4 7 -1 6227.55 815.577 4
-4 -7 1 7076.06 1136.7 7
-4 -7 1 7259.97 1169.74 6
4 7 -1 4626.59 976.168 3
-4 -7 1 3880.66 1076.07 5
4 7 -1 7273.82 921.649 1
-4 -6 2 9404.23 1367.06 7
-4 -6 2 11922.3 1610.51 6
4 6 -2 9079.59 1071.43 1
4 6 -2 8920.65 1273.09 3
4 6 -2 9721 928.563 2
-4 -6 2 7235.54 1377.52 5
4 6 -2 11424.4 1003.29 4
-4 -5 3 22876.1 2331.63 7
4 5 -3 23727.3 1776.48 1
-4 -5 3 25933.5 2447.52 6
4 5 -3 21685.8 1441.04 4
-4 -4 4 1142.23 546.932 7
-4 -4 4 1616.41 658.229 6
4 4 -4 1621.6 427.292 1
4 4 -4 824.888 375.985 3
-4 -3 5 9998.75 1847.59 7
-4 -3 5 6167.37 1292.77 6
4 3 -5 7857.77 995.128 1
4 3 -5 9937.76 933.912 2
-4 -2 6 12198 2013.25 7
4 2 -6 16948.3 1512.35 1
-4 -2 6 13153.1 1936.75 6
4 2 -6 16754.1 1295.27 2
4 1 -7 5924.39 832.876 1
4 1 -7 5377.65 704.94 2
-4 -1 7 5194.21 1384.49 7
4 9 0 1594.43 693.642 1
4 9 0 3945.89 603.965 2
4 8 -1 19719.2 1746.41 1
-4 -8 1 16576.6 2112.31 6
4 8 -1 17241.9 1463.12 2
4 8 -1 19904.7 1664.77 4
4 7 -2 1145.13 341.982 2
4 7 -2 1147.53 344.43 4
-4 -7 2 879.472 448.92 6
-4 -7 2 1132.47 481.524 7
4 7 -2 631.838 441.002 3
4 7 -2 1477.78 468.686 1
-4 -7 2 353.116 352.437 5
4 6 -3 289.479 174.933 4
-4 -6 3 63.2755 215.815 7
-4 -6 3 276.549 230.662 6
4 6 -3 479.208 243.192 1
4 6 -3 244.364 192.578 3
-4 -5 4 5871.82 1230.15 7
-4 -5 4 8435.98 1481.43 6
4 5 -4 6944.5 912.435 1
4 5 -4 6495.81 985.15 3
-4 -4 5 4475.84 1239.08 7
-4 -4 5 7321.54 1437.96 6
4 4 -5 6131.27 892.371 1
4 4 -5 5135.86 815.164 3
4 3 -6 23638.6 1891.57 1
-4 -3 6 20218.9 2723.37 7
-4 -3 6 18661.2 2478.49 6
4 3 -6 23287.2 1648.94 2
4 2 -7 13652.9 1367.61 1
4 2 -7 11908.3 1138.64 2
4 1 -8 3340.61 640.583 1
4 1 -8 3325.29 588.378 2
4 8 -2 3477.87 690.01 4
-4 -7 3 3953.68 977.911 6
4 7 -3 2077.81 707.79 3
-4 -6 4 1765.42 745.184 7
-4 -6 4 2897.28 914.168 6
4 6 -4 2871.16 603.426 1
4 6 -4 1815.7 627.049 3
4 5 -5 20560.7 1851.74 1
4 5 -5 18819.5 1833.02 3
-4 -5 5 17704.9 2320.88 6
-4 -4 6 1833.54 922.099 7
4 6 -5 4552.28 926.926 3
5 -2 8 2145.18 845.46 6
-5 2 -8 1494.58 470.683 4
-5 0 -9 3090.59 576.318 3
-5 0 -9 2300.98 553.405 1
5 0 9 1472.71 598.329 2
5 -1 8 4017.74 848.37 6
-5 1 -8 2177.14 524.992 3
-5 1 -8 1956.72 527.774 1
5 -1 8 2874.79 862.936 2
5 -2 7 14334.4 1501.01 6
5 -2 7 10570.4 1601.77 2
-5 2 -7 12350.4 1328.52 1
-5 3 -6 8405.2 1046.27 4
5 -3 6 7567.36 1117.04 6
-5 -3 -11 3023.69 547.173 3
-5 -3 -11 2048.46 510.774 1
5 3 11 2128.21 717.39 2
-5 -2 -10 3716.2 623.44 3
-5 -2 -10 3674.85 663.34 1
5 2 10 2799.79 806.388 2
-5 -1 -9 -51.15 45.1721 3
-5 -1 -9 192.751 174.164 1
5 1 9 527.716 502.414 2
5 0 8 7614.34 1039.65 6
-5 0 -8 9228.31 1003.35 3
5 0 8 9912.37 1392.27 2
-5 0 -8 10228.1 1105.74 1
5 -1 7 31735.8 2801.2 2
5 -1 7 31493.2 2381.74 6
-5 1 -7 34712.8 2305.23 3
-5 1 -7 34583.8 2334.42 1
5 -2 6 5614.82 859.747 6
-5 2 -6 5680.68 816.44 1
-5 2 -6 6687.74 858.877 3
5 -2 6 7328.86 1239.68 2
-5 3 -5 15170.8 1398.52 3
5 -3 5 11587.3 1381.66 6
5 -3 5 14478.9 1788.01 2
-5 3 -5 13291.1 1308.34 1
5 -4 4 15113.4 1897.21 2
-5 4 -4 16801.4 1516.84 1
-5 -4 -11 2805.22 512.495 3
-5 -4 -11 1752.6 454.588 1
-5 -3 -10 11166.5 1077.77 3
-5 -3 -10 8554.84 997.829 1
5 3 10 9590.37 1343.19 2
-5 -2 -9 5671.12 793.974 1
-5 -2 -9 7327.89 846.452 3
5 2 9 6040.89 1073.69 2
-5 -1 -8 11561.4 1099.26 3
5 1 8 9848.04 1103.66 6
5 1 8 13394 1521.55 2
-5 -1 -8 11217.6 1143.94 1
5 0 7 5541.92 791.994 6
-5 0 -7 7282.66 901.507 1
-5 0 -7 6878.55 814.237 3
5 0 7 5731.87 1064.9 2
5 -1 6 15916.7 1462.84 6
-5 1 -6 18034.7 1436.58 3
5 -1 6 17492.2 1837.88 2
-5 1 -6 19068.6 1516.12 1
5 -2 5 42072.9 3174.48 2
5 -2 5 38071.2 2634.38 6
-5 2 -5 42463.3 2600.93 3
-5 2 -5 42967.7 2627.76 1
5 -3 4 3168.57 628.589 6
-5 3 -4 2841.66 553.239 1
-5 3 -4 2483.05 500.254 3
5 -3 4 3863.61 838.259 2
5 -4 3 4701.92 811.628 6
-5 4 -3 5044.71 702.07 1
-5 4 -3 5470.56 821.036 3
5 -4 3 4571.36 994.147 2
-5 -5 -11 8739.49 985.258 3
-5 -4 -10 8464.54 932.569 3
-5 -4 -10 8435.57 898.855 1
5 4 10 7863.2 1100.13 2
5 3 9 29699.5 2491.69 2
-5 -3 -9 37220.3 2228.19 3
-5 -3 -9 30971.4 2117.26 1
5 2 8 21232.9 1973.25 2
-5 -2 -8 18379.2 1469.13 3
-5 -2 -8 23557.7 1652.12 1
-5 -1 -7 2071.37 427.438 3
5 1 7 1938.54 544.624 2
5 0 6 74340.6 4476.55 2
-5 0 -6 74240 3798.04 3
5 0 6 71317.1 3802.96 6
5 -1 5 80.1959 110.977 6
-5 1 -5 160.559 155.223 3
5 -1 5 383.887 260.638 2
5 -2 4 309.438 226.379 6
-5 2 -4 281.168 206.028 1
-5 2 -4 222.172 192.467 3
5 -2 4 471.26 342.22 2
-5 3 -3 9998.81 1029.65 3
5 -3 3 10694.1 1165.56 6
-5 3 -3 9601.02 990.791 1
5 -3 3 8887.3 1225.65 2
5 -4 2 5029.79 871.716 6
-5 4 -2 5237.3 718.233 1
-5 4 -2 6883.54 870.12 3
5 -4 2 5449.71 996.378 2
-5 -6 -11 6085.44 791.938 3
5 5 10 3430.99 561.56 4
-5 -5 -10 3313.38 574.084 3
-5 -5 -10 2776.62 514.28 1
5 5 10 2586.57 612.215 2
5 4 9 27954 2247.53 2
-5 -4 -9 26806.4 1865.41 3
-5 -4 -9 27594.7 1845.08 1
5 4 9 29354.5 1880.85 4
5 3 8 17308.2 1637.15 2
-5 -3 -8 15403.9 1262.48 3
5 2 7 86219.7 4838.95 2
-5 -2 -7 93826.7 4339 3
5 2 7 80160.8 4151.71 6
5 1 6 57.2405 75.5923 6
-5 -1 -6 123.05 120.824 3
5 1 6 353.296 237.882 2
5 0 5 1757.69 361.895 6
-5 0 -5 1878.23 362.458 3
5 0 5 2320.83 586.52 2
5 -1 4 6458.59 728.992 6
-5 1 -4 4610.61 605.946 3
5 -1 4 7725.94 1057.52 2
5 -2 3 761.91 267.791 6
-5 2 -3 1067.6 280.923 3
5 -2 3 1079.47 392.339 2
5 -3 2 49721.5 3297.27 2
5 -3 2 56088.8 3142.43 6
-5 3 -2 50004.5 2846.48 3
-5 3 -2 46606.5 2803.42 1
-5 4 -1 3785.66 760.867 4
5 -4 1 3432.48 662.771 6
-5 4 -1 4033.61 646.286 3
-5 -6 -10 13104.2 1244.08 3
5 6 10 17292.5 1412.38 4
5 5 9 917.924 294.986 4
-5 -5 -9 638.097 266.848 3
5 5 9 272.701 252.027 2
-5 -5 -9 480.379 268.104 5
5 4 8 43277.7 2761.27 2
-5 -4 -8 40311.2 2361.91 3
-5 -4 -8 38563.6 2294.28 5
5 4 8 37877.3 2336.17 4
5 3 7 16328.6 1488.62 2
-5 -3 -7 14330.4 859.144 7
-5 -3 -7 16867.9 1223.66 3
-5 -3 -7 16651.5 1119.87 5
5 3 7 15533.5 1207.55 4
5 2 6 10170 1149.79 2
-5 -2 -6 9665.38 883.072 3
5 2 6 11317.2 808.019 6
5 1 5 31607.1 2366.82 2
-5 -1 -5 37113.3 2094.27 3
5 1 5 37752.2 1968.2 6
5 0 4 15512.1 1461.99 2
-5 0 -4 17502.8 1231.99 3
5 0 4 16657.1 1170.96 6
5 -1 3 28844.3 2136.61 2
5 -1 3 26811.5 1716.58 6
-5 1 -3 24758.2 1646.15 3
5 -1 3 27429.9 1401.14 5
5 -2 2 5815.15 729.542 6
-5 2 -2 5333.16 620.211 3
5 -2 2 4277.93 778.662 2
5 -2 2 5735.39 584.494 5
5 -3 1 20267.2 1830.59 2
5 -3 1 22877.9 1761.89 6
-5 3 -1 21986.2 1560.47 3
5 -3 1 24556.5 1643.98 5
5 -4 0 25864.1 2053.08 6
-5 4 0 27057.7 2126.77 4
5 7 10 4533.03 734.85 4
-5 -7 -10 3808.94 853.414 5
5 6 9 10337.5 1089.09 4
5 6 9 11153.2 1199.53 2
-5 -6 -9 11600.7 1246.34 5
5 5 8 321.26 186.829 4
5 5 8 282.136 192.484 2
-5 -5 -8 132.524 98.0982 5
5 4 7 17858.8 1386.95 2
-5 -4 -7 16207.5 929.268 7
-5 -4 -7 14519.8 1065.51 5
5 4 7 15582.6 1125.87 4
5 3 6 49412.7 3024.13 2
-5 -3 -6 55069.6 2462.17 7
-5 -3 -6 47793.1 2690.41 7
-5 -3 -6 51190.4 2750.28 3
5 3 6 51173.7 2482.47 5
-5 -3 -6 51486.8 2735 5
5 3 6 53801.4 2841.66 4
5 2 5 33181.1 2338.99 2
-5 -2 -5 36629 2103.08 3
5 2 5 38249.9 1862.5 6
5 2 5 39652 1782.28 5
5 1 4 75892.3 4055.32 2
-5 -1 -4 68748.9 3615.59 3
5 1 4 75432.4 3497 6
5 1 4 77837.3 3268.5 5
5 0 3 44361.6 2807.89 2
5 0 3 47272.2 2264.48 7
5 0 3 44432.6 2422.38 6
-5 0 -3 45880.9 2452.52 3
5 0 3 50032.7 2209.15 5
5 0 3 45942.8 2418.23 5
5 -1 2 1372.68 418.488 7
5 -1 2 839.471 229.143 6
5 -1 2 855.536 315.363 2
-5 1 -2 1319.1 271.15 3
5 -1 2 1360.71 252.395 5
5 -2 1 24859.2 1886.67 2
5 -2 1 23081.3 1695.78 6
-5 2 -1 24406.3 1537.92 3
5 -2 1 25850.6 1613.98 5
5 -3 0 4025.98 662.24 6
5 -3 0 3766.37 655.769 2
-5 3 0 4873.13 600.413 3
5 -3 0 4080.95 616.516 5
-5 4 1 1862.65 487.64 4
5 -4 -1 1702.71 485.627 6
5 -4 -1 1979 500.284 5
5 7 9 6499.81 861.68 4
-5 -7 -9 7781.45 1127.37 5
5 6 8 4613.77 667.852 4
5 6 8 3862.65 635.668 2
-5 -6 -8 3688.54 682.574 5
5 5 7 5181.22 676.633 4
5 5 7 4733.38 708.567 2
-5 -5 -7 5332.3 724.292 5
5 4 6 55876.9 3129.52 2
-5 -4 -6 59342.4 2779.68 7
-5 -4 -6 61754.7 3086.11 5
5 4 6 53269.1 2956.62 4
-5 -3 -5 37260.7 1915.02 7
5 3 5 33882.2 1892.25 5
-5 -3 -5 38411.8 2217.16 5
5 3 5 38614 2163.46 4
5 3 5 36040.8 2270.53 2
-5 -2 -4 37154.7 1995.33 7
-5 -2 -4 36117.5 2007.05 3
5 2 4 37353.8 1749.52 6
5 2 4 36361.8 1864.39 5
5 2 4 33871.2 2224.55 2
5 1 3 50761.6 2397.64 7
-5 -1 -3 52161.6 2715.6 7
-5 -1 -3 52479.5 2613.63 3
5 1 3 52278.2 2510.85 6
5 1 3 56400 2651.23 5
5 1 3 45009.5 2843.1 2
5 0 2 49014 2588.62 7
-5 0 -2 44274 2648.77 7
5 0 2 47963.1 2411.05 6
-5 0 -2 44144.8 2309.66 3
5 0 2 48075 2281.1 5
5 0 2 41113.7 2664.94 5
5 0 2 38445.4 2572.24 2
5 -1 1 1873.66 523.379 7
-5 1 -1 3256.3 626.894 7
5 -1 1 2516.19 432.456 6
5 -1 1 2269.85 460.512 2
-5 1 -1 2562.47 362.461 3
5 -1 1 2553 377.259 5
5 -2 0 1594.82 373.048 6
5 -2 0 1170.01 334.779 2
-5 2 0 1443.58 263.654 3
5 -2 0 1701.4 355.122 5
5 -3 -1 13624.3 1291.48 6
5 -3 -1 11822.3 1179.17 5
-5 4 2 329.92 245.491 4
5 -4 -2 45.1239 52.4485 5
5 8 9 292.947 232.265 4
-5 -8 -9 -38.1042 158.261 5
-5 -7 -8 22994.4 1987.05 5
5 7 8 21589.1 1773.93 4
5 6 7 43975.1 2735.68 2
-5 -6 -7 48612.7 3031.91 5
5 6 7 50783 2871.56 4
-5 -5 -6 12606.5 1030.77 7
-5 -5 -6 13109.5 1214.75 5
5 5 6 11162.8 1057.19 4
5 5 6 14142.7 1171.21 2
-5 -4 -5 16908.7 1155.92 7
5 4 5 15301.7 1162.54 5
-5 -4 -5 19348.5 1434.34 5
5 4 5 17176.8 1288.39 4
5 4 5 16968.9 1333.68 2
-5 -3 -4 23319.5 1480.49 7
5 3 4 24394.6 1474.38 5
-5 -3 -4 23920.3 1741.33 5
5 3 4 25942.3 1677.38 2
5 3 4 24591.1 1587.8 4
5 2 3 8803.34 654.886 7
-5 -2 -3 6914.88 792.548 7
5 2 3 9598.28 611.277 6
5 2 3 7647.71 815.966 6
5 2 3 8852.83 770.466 5
5 2 3 9858.4 911.563 2
5 1 2 54679 2771.08 7
-5 -1 -2 56709.2 3155.76 7
-5 -1 -2 54055.6 2677.37 3
5 1 2 55155 3064 5
5 1 2 53443.7 2947.7 2
5 0 1 13225.1 1264.07 7
-5 0 -1 14934.5 1413.4 7
-5 0 -1 14406.1 934.965 3
5 0 1 12343.4 1101.37 2
-5 1 0 8733.33 1157.82 7
-5 1 0 6868.76 587.052 3
5 -1 0 7314.9 822.173 2
5 -1 0 6455.88 703.82 5
-5 2 1 7952.36 1279.38 7
-5 2 1 9350.83 710.437 3
5 -2 -1 7721.63 871.785 2
5 -2 -1 8565.29 912.115 5
-5 3 2 2379.92 523.697 4
5 -3 -2 1964.91 485.643 6
5 -3 -2 1687.03 430.975 5
-5 4 3 12096.6 1278.26 4
5 -4 -3 10428.4 1248.41 5
-5 -8 -8 19267 1987.8 5
5 8 8 20947.1 1798.25 4
5 7 7 31298.3 2034.84 2
-5 -7 -7 30655.6 2455.28 5
5 7 7 34111 2279.01 4
-5 -6 -6 6187.6 778.187 7
5 6 6 6904.02 810.492 4
5 6 6 6577.06 759.452 2
-5 -6 -6 7178.58 958.464 5
-5 -5 -5 27677 1772 7
-5 -5 -5 27563.2 2033.8 5
5 5 5 29751.7 1879.32 4
5 5 5 28130.9 1822.93 2
-5 -4 -4 12919.1 1050.15 7
-5 -4 -4 13899.9 1284.81 5
5 4 4 14950.6 1133.74 2
5 4 4 14321 1139.02 4
-5 -3 -3 149.887 124.642 7
5 3 3 124.901 120.603 4
5 3 3 186.122 94.4543 2
5 3 3 334.317 122.078 6
5 3 3 229.832 120.32 5
-5 -3 -3 98.3596 164.385 5
5 2 2 9558.9 776.955 7
-5 -2 -2 9725.22 1043.02 7
5 2 2 7992.5 919.501 6
5 2 2 8247.5 891.15 5
5 2 2 10119.5 883.226 2
5 1 1 20306.6 1457.52 7
-5 -1 -1 15500.2 1579.15 7
-5 -1 -1 21467.9 1184.84 3
5 1 1 19145.2 1666.43 5
5 1 1 18690.7 1359.94 2
-5 0 0 29837.2 2477.12 7
-5 0 0 36212.9 1774.55 3
5 0 0 34459.5 2093.77 2
-5 1 1 431.217 347.153 7
5 -1 -1 1042 267.502 2
-5 1 1 674.074 149.395 3
5 -1 -1 583.638 284.772 5
5 -2 -2 50890.2 2989.91 5
5 -2 -2 47078.4 2784.3 2
5 -3 -3 33557.2 2347.68 5
-5 3 3 26537 2014.56 4
-5 4 4 639.62 371.174 4
5 8 7 2588.54 554.775 4
-5 -8 -7 1263.68 559.909 5
-5 -7 -6 30051.5 2064.85 7
-5 -7 -6 26042.4 2229.83 5
5 7 6 29685.3 2081.29 4
5 7 6 25613 1752.39 2
-5 -6 -5 13918.7 1210.48 7
-5 -6 -5 14648.3 1466.13 5
5 6 5 15545.8 1283.91 4
5 6 5 13109.4 1107.51 2
-5 -5 -4 1207.57 325.712 7
5 5 4 1460.35 344.446 4
5 5 4 1271.25 339.716 1
5 5 4 1639.2 322.21 2
-5 -5 -4 1430.62 447.513 5
-5 -4 -3 36606.4 2165.9 7
5 4 3 35532.9 1687.9 6
5 4 3 35029 2399.26 1
-5 -4 -3 32186.4 2410.8 5
5 4 3 35770.1 2056.04 2
5 4 3 34736.8 2079.03 4
5 3 2 2580.63 396.378 7
-5 -3 -2 2834.88 536.237 7
5 3 2 3809.78 486.466 4
5 3 2 3722.68 497.767 2
5 3 2 3205.15 466.516 6
5 3 2 2343.23 519.735 1
5 2 1 21204.4 1479.85 7
-5 -2 -1 23644.7 1891.92 7
5 2 1 20873.5 1709.77 6
5 2 1 20255.7 1719.92 1
5 2 1 21576.3 1423.02 2
-5 -1 0 3374.27 733.785 7
-5 -1 0 5199.66 428.652 3
5 1 0 3600.83 501.513 2
5 1 0 3603.02 675.507 1
-5 0 1 39466.5 3185.66 7
-5 0 1 45282 2084.83 3
5 0 -1 44870.5 2489.51 2
-5 1 2 127739 7300.13 7
5 -1 -2 128710 6231.36 5
5 -1 -2 132106 6066.93 2
-5 2 3 11447 1692.53 7
5 -2 -3 7647.46 952.243 5
-5 3 4 2829.56 547.706 4
-5 3 4 1974.5 785.557 7
5 -3 -4 2888.69 619.227 5
-5 -8 -6 7588.22 1005.35 7
5 8 6 5211.27 884.128 4
-5 -8 -6 7042.98 1153.11 5
-5 -7 -5 69.365 166.263 7
5 7 5 28.1928 110.978 4
5 7 5 204.24 129.22 2
-5 -7 -5 226.054 235.628 5
-5 -6 -4 18025 1507.45 7
-5 -6 -4 22576.9 1373.4 6
5 6 4 19067.6 1654.61 1
-5 -6 -4 22831.2 1904.74 5
5 6 4 17873.3 1324.92 2
5 6 4 19662.1 1519.03 4
-5 -5 -3 14516.7 1283.23 7
5 5 3 16241.7 925.666 6
-5 -5 -3 16180.5 1187.97 6
5 5 3 18070.9 1535.89 1
-5 -5 -3 14436.9 1517.8 5
5 5 3 16329.6 1187.15 2
5 5 3 17555.4 1300.9 4
-5 -4 -2 35961.9 2233.07 7
5 4 2 31414.4 1831.82 6
5 4 2 34696.3 2312.14 1
-5 -4 -2 31251.2 2477.46 5
5 4 2 32032.6 1935.28 2
5 4 2 36606.3 2046.73 4
-5 -3 -1 255.951 224.276 7
5 3 1 930.003 245.379 4
5 3 1 759.221 239.317 2
5 3 1 380.497 278.239 1
-5 -2 0 14630.5 1587.3 7
5 2 0 17640.3 1477.19 1
5 2 0 17540.7 1176.27 2
-5 -1 1 181909 8671.37 7
-5 -1 1 194811 6968.44 3
5 1 -1 186199 7967.9 1
5 1 -1 198088 7465.56 2
-5 0 2 520.547 320.236 7
5 0 -2 527.553 187.559 2
-5 0 2 735.057 100.543 3
5 0 -2 305.714 311.044 1
-5 1 3 13434.2 1809.81 7
5 -1 -3 12154.8 1183.13 5
5 -1 -3 12196.7 1029.34 2
-5 2 4 3322.22 563.079 4
-5 2 4 4628.25 1201.51 7
5 -2 -4 5621.05 833.598 5
-5 -8 -5 4102.14 755.456 7
5 8 5 6376.69 872.734 4
5 8 5 5315.48 638.392 2
-5 -8 -5 4766.23 971.808 5
5 7 4 5918.73 836.85 1
-5 -7 -4 6586.85 898.744 7
5 7 4 5275.16 764.075 4
5 7 4 5643.73 645.313 2
-5 -7 -4 6537.66 1059.22 5
-5 -6 -3 8238.23 959.884 7
5 6 3 6931.58 844.915 4
5 6 3 7986.33 633.327 6
5 6 3 11153.6 1133.44 1
-5 -6 -3 8949.3 922.75 6
-5 -6 -3 8711.83 1201.87 5
5 6 3 9998.46 860.697 2
-5 -5 -2 50058.6 3064.27 7
5 5 2 50102.9 2580.69 6
5 5 2 49129.4 3055.8 1
-5 -5 -2 53637.9 3035.87 6
-5 -5 -2 52207.2 3514.08 5
5 5 2 54413.5 2789.57 2
5 5 2 55657.4 2895.7 4
-5 -4 -1 35851.3 2451.97 7
5 4 1 36162 2146.85 6
5 4 1 37623.7 2371.36 1
-5 -4 -1 38972.2 2432.44 6
-5 -4 -1 33973.5 2740.2 5
5 4 1 33225.5 2007.84 2
5 4 1 35848.8 2077.43 4
5 3 0 107496 5651.08 1
5 3 0 113160 5263.94 2
5 3 0 112338 5248.9 4
5 2 -1 2299.34 476.904 1
-5 -2 1 2753.4 768.176 7
5 2 -1 3603.87 469.472 2
-5 -2 1 2812.87 426.551 3
5 1 -2 137.407 129.538 2
5 1 -2 14.5364 104.067 1
-5 -1 2 57.7393 42.7565 3
-5 -1 2 29.9539 20.9854 3
-5 0 3 1705.33 702.332 7
5 0 -3 1423.58 299.037 2
5 0 -3 643.177 320.694 1
-5 1 4 4898.75 1217.04 7
5 -1 -4 7835.64 1044.91 1
5 -1 -4 6975.49 732.315 2
5 -1 -4 7665.01 946.346 5
-5 2 5 16285.6 2358.92 7
5 -2 -5 16215.3 1607.65 5
-5 -8 -4 6049.64 947.897 7
5 8 4 5240.43 882.089 4
5 8 4 7978.77 777.513 2
-5 -8 -4 7795.01 1271.11 5
5 8 4 7276.69 988.517 1
-5 -7 -3 5920.27 879.702 7
5 7 3 5595.96 791.716 4
5 7 3 6487.31 921.458 1
-5 -7 -3 6909.15 881.687 6
-5 -7 -3 6014.89 1078.22 5
5 7 3 7338.92 736.376 2
-5 -6 -2 10416.5 1167.05 7
5 6 2 10378.9 1135.36 1
-5 -6 -2 10200.2 1120.67 6
-5 -6 -2 11011.5 1438.63 5
5 6 2 12556.6 1003.19 2
5 6 2 10333.8 1030.39 4
-5 -5 -1 116736 6045.82 7
5 5 1 116687 5885.75 1
-5 -5 -1 127087 6102.93 6
-5 -5 -1 125364 6708.37 5
5 5 1 111294 5458.83 2
5 5 1 121916 5613.96 4
-5 -4 0 15488.6 1562.67 7
5 4 0 14955.6 1328.8 1
-5 -4 0 11998.1 1358.21 6
5 4 0 13774.2 1074.4 2
5 4 0 14690.8 1106.03 4
5 3 -1 452.718 163.896 2
-5 -3 1 132.824 227.664 7
5 3 -1 329.604 155.844 4
5 3 -1 294.598 214.528 1
-5 -3 1 317.746 170.567 3
-5 -2 2 13170 1730.21 7
5 2 -2 13927.5 1275.7 1
-5 -2 2 11877.8 860.999 3
5 2 -2 14701.5 1080.01 2
5 1 -3 1863.49 345.474 2
-5 -1 3 857.664 487.793 7
5 1 -3 648.057 322.91 1
5 0 -4 2829.21 443.622 2
-5 0 4 2886.49 958.799 7
5 0 -4 2134.49 503.454 1
-5 1 5 15705.2 2183.47 7
5 -1 -5 11930.9 1340.44 5
5 8 3 7345.6 991.039 1
-5 -8 -3 7780.03 1093.84 7
5 8 3 5756.61 870.132 4
5 8 3 8251.5 806.719 2
-5 -8 -3 7119.32 1299.07 5
-5 -7 -2 14061 1458.53 7
5 7 2 13508.6 1341.63 1
-5 -7 -2 15428.9 1487.86 6
-5 -7 -2 12716.3 1671.78 5
5 7 2 15837.4 1182.3 2
5 7 2 12006.5 1205.47 4
-5 -6 -1 1061.1 395.05 7
5 6 1 2127.39 383.181 2
5 6 1 1909.64 387.812 4
-5 -6 -1 1379.82 422.18 6
5 6 1 1359.72 373.577 1
-5 -6 -1 2259.74 755.631 5
5 5 0 3471.93 495.415 2
-5 -5 0 3327.46 730.464 7
5 5 0 3759.73 517.765 4
5 5 0 3477.33 609.133 1
-5 -5 0 4202.5 768.771 6
-5 -5 0 4463.02 1020.19 5
-5 -4 1 12008 1514.67 7
5 4 -1 11403.2 1194.42 1
-5 -4 1 11989.3 1464.56 6
5 4 -1 13055.8 1041.01 2
5 4 -1 14655.4 1078.44 4
-5 -3 2 18470.8 2079.59 7
5 3 -2 22059.4 1672.41 1
-5 -3 2 18890.7 1925.37 6
-5 -3 2 15259.1 1211.56 3
5 3 -2 21117.1 1401.94 2
5 3 -2 20751.8 1306.05 4
-5 -2 3 15072 2008.33 7
5 2 -3 13634 1322.82 1
5 2 -3 15469.2 1169.12 2
5 1 -4 6020.69 669.043 2
5 1 -4 5495.02 786.884 1
5 0 -5 7714.41 976.272 1
5 0 -5 7670.11 771.668 2
-5 0 5 6304.41 1413.17 7
-5 -8 -2 2125.71 664.23 7
5 8 2 1664.84 472.995 4
5 8 2 3462.88 522.396 2
-5 -8 -2 1851.19 564.032 6
5 8 2 1659.63 481.605 1
-5 -8 -2 1914.56 739.513 5
-5 -7 -1 113.092 200.722 7
5 7 1 191.637 153.527 4
5 7 1 165.021 132.722 2
5 7 1 -31.848 38.7419 1
-5 -7 -1 291.344 281.394 6
-5 -7 -1 9.14397 31.9444 5
5 6 0 3599.92 525.099 2
-5 -6 0 3571.17 768.642 7
5 6 0 3710.73 569.348 4
5 6 0 3332.86 619.78 1
-5 -6 0 4370.34 850.74 6
-5 -6 0 5636.55 1098.76 5
-5 -5 1 19442.3 1974.18 7
5 5 -1 18828.6 1624.02 1
-5 -5 1 19477.1 1935.77 6
5 5 -1 21804.5 1443.23 2
5 5 -1 17338 1332.47 4
5 4 -2 5947.97 699.145 2
-5 -4 2 8062.77 1367.34 7
5 4 -2 7557.75 928.824 1
-5 -4 2 5752.38 1108.6 6
5 4 -2 7947.96 722.633 4
-5 -3 3 23748.2 2550.05 7
5 3 -3 19259.4 1736.98 1
-5 -3 3 25384 2433.32 6
5 3 -3 24759.9 1604.15 2
-5 -2 4 49586.4 4236.7 7
5 2 -4 56034.4 3316.17 1
5 2 -4 53414.2 2921.43 2
5 1 -5 2664.84 441.116 2
-5 -1 5 2444.92 896.689 7
5 1 -5 1940.27 571.537 1
5 0 -6 7215.85 776.151 2
-5 0 6 7931.48 1613.84 7
5 0 -6 4798.67 930.04 1
5 9 2 5705.08 731.148 2
5 9 2 6279.71 957.068 1
-5 -8 -1 6733.91 1142.88 7
5 8 1 8389.63 995.44 4
5 8 1 8396.03 895.414 2
5 8 1 9538.28 1135.69 1
-5 -8 -1 6176.03 1121.46 6
-5 -8 -1 7562.45 1594.21 5
5 8 1 5924.18 1258.91 3
5 7 0 1712.25 385.886 2
-5 -7 0 592.2 377.228 7
5 7 0 1434.07 406.91 4
5 7 0 2310.45 542.405 1
-5 -7 0 2518.95 622.268 6
5 7 0 647.249 419.361 3
-5 -7 0 1477.44 668.565 5
5 6 -1 5351.87 674.956 2
5 6 -1 5093.47 768.065 1
-5 -6 1 6169.05 1072.08 7
5 6 -1 7058.09 798.139 4
-5 -6 1 5822.38 1078.15 6
5 6 -1 2901.45 860.598 3
-5 -6 1 3765.41 1029.55 5
5 5 -2 3069.35 632.841 1
5 5 -2 4972.89 636.609 2
-5 -5 2 4710.99 1040.73 7
5 5 -2 5191.82 620.666 4
-5 -5 2 5145.13 1041.6 6
5 5 -2 2341.08 689.755 3
-5 -4 3 29809.1 3012.53 7
5 4 -3 39283.2 2521.55 1
-5 -4 3 33450.7 2964.69 6
5 4 -3 36898 2165.42 2
5 4 -3 32738.1 1943.79 4
-5 -3 4 14561.8 2137.35 7
5 3 -4 13055.2 1497.07 1
-5 -3 4 16637.7 2016.92 6
5 3 -4 18329.3 1351.56 2
5 2 -5 24996.6 2092.67 1
5 2 -5 28725.8 1837.33 2
5 1 -6 3609.28 568.694 2
-5 -1 6 3892.34 1171.23 7
5 1 -6 5132.77 805.918 1
5 9 1 5105.68 735.915 2
5 9 1 5062.23 859.665 1
5 8 0 7423.67 868.205 2
5 8 0 4855.64 794.522 4
5 8 0 7495.21 1016.37 1
-5 -8 0 6209.11 1116.46 6
5 7 -1 1915.4 502.31 1
5 7 -1 1950.31 431.04 2
-5 -7 1 1486.58 574.765 7
5 7 -1 2032.37 465.669 4
-5 -7 1 1057.6 408.162 6
5 7 -1 674.411 443.266 3
-5 -7 1 1603.14 677.463 5
-5 -6 2 32205.3 3038.9 7
5 6 -2 30814.7 2398.04 1
-5 -6 2 31550 2950.22 6
5 6 -2 29054.3 2674.62 3
5 6 -2 38401.6 2275.82 2
5 6 -2 34437.5 2141.67 4
5 5 -3 4602.44 788.143 1
5 5 -3 3257.8 577.881 2
-5 -5 3 1554.58 634.556 7
5 5 -3 3514.58 490.357 4
-5 -5 3 5443.18 1067.8 6
5 5 -3 1126.74 633.517 3
5 4 -4 1796.38 485.049 1
5 4 -4 1524.88 390.811 2
-5 -4 4 1471.38 806.101 7
-5 -4 4 1365.98 670.253 6
-5 -3 5 17018.9 2566.95 7
5 3 -5 20838.7 1815.14 1
-5 -3 5 20731.7 2474.25 6
5 3 -5 20804.9 1570.34 2
5 2 -6 9446.26 957.92 2
5 2 -6 6515.44 1000.07 1
5 1 -7 2033.48 459.067 2
5 1 -7 1545.23 548.392 1
-5 -8 1 18026.4 2236.98 6
5 8 -1 19985.3 1707.21 4
5 7 -2 9770.34 1233.5 1
5 7 -2 7727.09 913.391 2
5 7 -2 7600.2 906.478 4
-5 -7 2 9093.46 1505.26 6
5 6 -3 4396.21 658.719 2
-5 -6 3 2732.85 881.17 7
-5 -6 3 3710.11 984.285 6
5 6 -3 1488.08 669.281 3
5 6 -3 3050.5 716.983 1
5 5 -4 1948.02 453.942 2
-5 -5 4 2151.44 778.921 7
-5 -5 4 2300.42 828.541 6
5 5 -4 2074.59 578.348 1
5 4 -5 308.477 228.234 1
5 4 -5 497.757 232.292 2
-5 -4 5 1296.78 825.161 7
-5 -4 5 856.059 602.394 6
5 3 -6 8697.79 979.008 2
5 7 -3 3158.21 949.909 3
-6 -1 -9 124.016 197.337 1
6 1 9 306.299 297.19 2
-6 0 -8 2067.79 535.246 1
-6 0 -8 2583.55 547.555 3
6 0 8 2780.85 808.8 2
6 -1 7 4526.59 787.562 6
-6 1 -7 5391.31 856.401 1
-6 1 -7 5979.58 827.979 3
6 -1 7 4734.01 999.151 2
6 -2 6 11242.4 1297.49 6
-6 -4 -11 903.013 380.616 1
6 4 11 3172.65 870.132 2
-6 -3 -10 1237.68 456.131 1
-6 -3 -10 1339.52 396.093 3
6 3 10 1338.39 625.484 2
-6 -2 -9 9308.23 1076.86 1
-6 -2 -9 6749.55 881.61 3
6 2 9 7721.49 1252.48 2
-6 -1 -8 14761.6 1340.93 3
6 1 8 14035.6 1752.81 2
-6 -1 -8 14639.4 1412.41 1
-6 0 -7 9295.82 1064.24 1
6 0 7 9759.05 1069.91 6
-6 0 -7 9461.48 1037.06 3
6 0 7 11291.3 1502.15 2
6 -1 6 1831.07 451.263 6
-6 1 -6 2417.78 539.385 1
-6 1 -6 1833.17 441.438 3
6 -1 6 1646.78 601.708 2
6 -2 5 4353.2 744.864 6
-6 2 -5 3697.7 695.449 1
-6 2 -5 4379.6 685.887 3
6 -2 5 4089.08 920.146 2
6 -3 4 2932.96 665.696 6
-6 3 -4 3911.7 731.821 1
6 -3 4 3740.39 868.202 2
6 5 11 1201.77 555.655 2
-6 -4 -10 4961.84 807.382 1
-6 -4 -10 5549.63 779.684 3
6 4 10 5664.08 1028.43 2
6 3 9 28313.8 2431.58 2
-6 -3 -9 26116.4 1898.22 3
-6 -2 -8 7295.22 864.979 3
6 2 8 9524.62 1283.87 2
6 1 7 22379.3 2196.44 2
-6 -1 -7 25399.4 1788.54 3
-6 0 -6 12132.3 1147.99 3
6 0 6 12303 1132.06 6
6 0 6 12958.6 1543.71 2
6 -1 5 478.94 255.282 6
-6 1 -5 667.316 273.181 3
6 -1 5 498.312 322.511 2
-6 2 -4 10370.7 1079.6 3
6 -2 4 11442.2 1202.29 6
-6 2 -4 9633.25 1114.32 1
6 -2 4 12179.5 1562.73 2
6 -3 3 5660.19 885.62 6
-6 3 -3 4164.14 695.718 1
-6 3 -3 4162.22 675.747 3
6 -3 3 6721.53 1121.15 2
6 5 10 10798 1094.57 4
-6 -5 -10 7645.79 966.104 3
6 5 10 8395.65 1231.06 2
-6 -4 -9 3568.91 595.636 3
6 4 9 1988.08 602.871 2
-6 -3 -8 16496.4 1347.65 3
6 3 8 12399 1484.66 2
6 2 7 36699.3 2732.07 2
-6 -2 -7 34158.3 2184.05 3
-6 -1 -6 11913.8 1072.33 3
6 1 6 12410.4 1007.44 6
6 1 6 10307.4 1317.83 2
6 0 5 21480.5 1995.93 2
6 0 5 21306.2 1523.79 6
-6 0 -5 20623 1520.81 3
6 -1 4 69.7251 147.914 6
-6 1 -4 89.4706 110.854 3
6 -1 4 15.5811 160.497 2
6 -2 3 8229.01 971.601 6
-6 2 -3 7949.51 866.669 3
6 -2 3 10236.2 1326.19 2
6 -3 2 1351.51 419.737 6
-6 3 -2 1842.83 441.22 1
-6 3 -2 1063.68 328.735 3
6 -3 2 865.449 389.78 2
6 6 10 2822.21 596.299 4
-6 -6 -10 2415.59 538.577 3
6 5 9 2338.49 467.254 4
-6 -5 -9 1828.37 451.572 3
6 5 9 1975.3 572.25 2
6 4 8 52579.9 3413.67 2
-6 -4 -8 52996.3 2986.34 3
6 4 8 50627.2 2994.09 4
-6 -3 -7 304.421 178.193 3
6 3 7 311.619 272.267 2
-6 -2 -6 16906.4 1256.45 3
6 2 6 13839.5 975.487 6
6 2 6 12957.4 1431.27 2
-6 -1 -5 9624.86 901.822 3
6 1 5 9736.6 828.149 6
6 1 5 10096.1 1202.89 2
6 0 4 10912.2 973.476 6
-6 0 -4 11512.3 1002.7 3
6 0 4 12070.1 1321.33 2
6 -1 3 7642.43 844.149 6
-6 1 -3 7110.56 757.697 3
6 -1 3 6687.16 1000.15 2
6 -2 2 -5.95681 43.3224 6
6 -2 2 233.698 309.484 2
-6 2 -2 97.0424 110.71 3
6 -3 1 17327.2 1586.8 6
6 7 10 6937.71 915.657 4
6 6 9 49306.2 3218.83 2
6 6 9 48277.9 2984.91 4
6 5 8 186.009 170.507 4
6 5 8 588.526 318.983 2
-6 -5 -8 258.002 159.112 5
6 4 7 456.126 213.011 4
-6 -4 -7 655.199 271.533 3
6 4 7 271.582 242.87 2
-6 -4 -7 612.458 243.841 5
-6 -3 -6 253.648 175.571 3
6 3 6 293.343 217.068 2
6 2 5 3404.52 378.886 6
-6 -2 -5 4178.3 538.355 3
6 2 5 3409.12 648.165 2
6 1 4 64269.1 3764.33 2
-6 -1 -4 65696.4 3329.87 3
6 1 4 63821.6 3173.12 6
6 1 4 66084.6 2923.1 5
6 0 3 832.262 240.302 6
6 0 3 720.665 326.495 2
-6 0 -3 724.746 216.88 3
6 0 3 1003.9 202.287 5
6 -1 2 36091.2 2584.6 2
6 -1 2 35922.7 2260.52 6
-6 1 -2 35431.3 2106.97 3
6 -1 2 39980.1 2103.12 5
6 -2 1 20794.6 1665.06 6
-6 2 -1 23218.2 1486.34 3
6 -3 0 1528.64 429.408 6
6 7 9 3150.78 620.742 4
-6 -7 -9 3781.56 789.097 5
-6 -6 -8 1008.98 310.35 7
6 6 8 602.283 270.423 4
6 6 8 883.503 332.587 2
-6 -6 -8 1086.29 376.3 5
-6 -5 -7 7590.19 747.528 7
6 5 7 6772.48 845.503 4
6 5 7 6976.83 933.171 2
-6 -5 -7 7865.48 952.314 5
-6 -4 -6 3038.56 426.008 7
6 4 6 2050.78 419.726 4
6 4 6 2363.04 526.661 2
-6 -4 -6 2516.39 529.196 5
-6 -3 -5 21472.9 1473.61 7
-6 -3 -5 21924.1 1503.57 3
6 3 5 22528.8 1043.68 6
6 3 5 23267 1139.22 6
6 3 5 21194.1 1332.81 5
6 3 5 21549.9 1737.81 2
6 3 5 22107.2 1607.69 4
-6 -2 -4 3121.58 488.732 7
6 2 4 4674.48 434.328 6
6 2 4 2731.94 568.306 2
-6 -2 -4 3485.04 474.78 3
6 2 4 4418.2 497.641 5
6 1 3 43837.6 2300.85 7
-6 -1 -3 44606.7 2656.94 7
-6 -1 -3 45756.7 2452.41 3
6 1 3 51000.7 2455.05 6
6 1 3 45527.5 2566.67 5
6 1 3 46002.4 2868.67 2
6 0 2 39714.5 2650.87 2
-6 0 -2 45185 2761.01 7
6 0 2 45805 2391.95 6
-6 0 -2 37905.1 2206.59 3
6 0 2 39920 2183.75 5
6 -1 1 10236.5 996.474 6
-6 1 -1 9088.88 809.337 3
6 -1 1 11437.9 1189.03 2
6 -1 1 9863.88 905.458 5
6 -2 0 11475.1 1147.31 6
6 -2 0 10995.8 1202.43 2
6 -2 0 9413.64 1008.57 5
6 -3 -1 138.07 188.927 5
-6 -8 -9 2534.39 764.894 5
-6 -7 -8 6308.93 826.221 7
6 7 8 6677.18 879.115 4
6 7 8 4877.45 764.391 2
-6 -7 -8 6452.86 1023.67 5
-6 -6 -7 8127.14 887.076 7
6 6 7 9061.23 1019.79 4
6 6 7 8371.06 1013.62 2
-6 -6 -7 9736.09 1149.45 5
-6 -5 -6 50080.7 2753.06 7
-6 -5 -6 49060.3 3121.45 5
6 5 6 49374.3 2900.6 4
6 5 6 50346.1 2995.02 2
-6 -4 -5 15236.8 1207.67 7
-6 -4 -5 16215 1511.05 5
6 4 5 16036.4 1389.11 2
6 4 5 18031.2 1381.47 4
-6 -3 -4 4546.52 655.67 7
6 3 4 3058.4 532.208 4
6 3 4 5445.72 387.153 6
6 3 4 4723.02 679.956 2
6 3 4 4473.4 526.113 6
6 3 4 4231.58 552.393 5
6 2 3 40976.2 2168.59 7
-6 -2 -3 41225.8 2643.03 7
-6 -2 -3 41554.9 2267.12 3
6 2 3 46198.2 2174.38 6
6 2 3 40924.6 2662.61 6
6 2 3 41956.4 2426.17 5
6 2 3 39635.7 2534.19 2
6 1 2 6568.19 735.094 7
-6 -1 -2 8355.94 1053.21 7
-6 -1 -2 8043.94 707.481 3
6 1 2 7956.54 917.15 2
-6 0 -1 6319.66 974.68 7
-6 0 -1 6460.68 615.635 3
6 0 1 6800.33 844.386 2
6 0 1 6507.9 686.997 5
-6 1 0 23211.6 2180.4 7
-6 1 0 23177.7 1368.52 3
6 -1 0 22678.7 1608.89 5
6 -1 0 18958.6 1665.22 2
6 -2 -1 5213.86 788.792 6
6 -2 -1 5666.54 801.375 2
6 -2 -1 6023.35 785.172 5
-6 3 2 486.542 284.728 4
6 -3 -2 449.374 313.449 5
-6 -8 -8 8598.92 1125.56 7
6 8 8 10427.8 1202.8 4
-6 -8 -8 11823 1498.72 5
-6 -7 -7 15078 1397.53 7
-6 -7 -7 13663 1584.74 5
6 7 7 19244.1 1588.84 4
6 7 7 15474.2 1417.29 2
-6 -6 -6 20128.6 1550.45 7
-6 -6 -6 19445.2 1806.91 5
6 6 6 22262.9 1683.32 4
6 6 6 19095.1 1565.02 2
-6 -5 -5 32339.4 2115.94 7
-6 -5 -5 38366.4 2623.99 5
6 5 5 33024.3 2200 2
6 5 5 35123.8 2216.63 4
-6 -4 -4 27162.8 1905.79 7
6 4 4 29592 1273.91 6
6 4 4 28878.4 1300.87 6
-6 -4 -4 29318.3 2287.49 5
6 4 4 29886.4 1985.17 2
6 4 4 31502.1 1960.13 4
6 3 3 4881.85 531.831 7
-6 -3 -3 5078.95 749.783 7
6 3 3 4444.49 600.968 4
6 3 3 3911.98 596.934 2
6 3 3 5402.51 656.297 6
6 2 2 3181.62 467.834 7
-6 -2 -2 3513.71 679.806 7
6 2 2 3655.38 562.902 2
-6 -2 -2 3295.49 413.264 3
6 2 2 2005.35 546.683 6
-6 -1 -1 18840.7 1794.14 7
-6 -1 -1 16958.9 1112.43 3
6 1 1 18682.8 1435.99 2
-6 0 0 1375.54 532.943 7
6 0 0 1095.61 345.434 2
-6 0 0 1410.74 243.832 3
-6 1 1 8683.33 1368.48 7
6 -1 -1 9733.52 1024.93 2
6 -1 -1 6414.86 829.353 5
-6 2 2 12777.4 1856.65 7
6 -2 -2 14248.2 1382.46 5
-6 3 3 832.186 387.33 4
-6 -8 -7 7253.05 966.608 7
6 8 7 5932.34 915.109 4
-6 -8 -7 4411.92 968.906 5
-6 -7 -6 7680.96 965.227 7
6 7 6 7066.42 916.831 4
6 7 6 7476.8 858.161 2
-6 -7 -6 7289 1136 5
-6 -6 -5 11913.7 1147.69 7
-6 -6 -5 12897.5 1423.14 5
6 6 5 9062.72 963.923 2
6 6 5 10607.9 1083.72 4
-6 -5 -4 37542 2404.11 7
-6 -5 -4 37851.7 2817.27 5
6 5 4 38565 2337.63 2
6 5 4 39532.5 2385.87 4
6 4 3 2327.79 559.47 1
6 4 3 4068.36 555.345 4
6 4 3 4009.95 584.383 2
6 4 3 3775.26 448.79 6
-6 -4 -3 3795.5 633.494 7
-6 -4 -3 1619.14 583.497 5
-6 -3 -2 17860.7 1654.68 7
6 3 2 18052 1484.54 6
6 3 2 13074 1529.78 1
6 3 2 17896.7 1369.37 2
6 3 2 19050.6 1358.53 4
-6 -2 -1 8983.48 1237.3 7
-6 -2 -1 9191.37 744.448 3
6 2 1 7833.97 1113.9 1
6 2 1 8348.85 893.163 2
-6 -1 0 3033.49 763.531 7
-6 -1 0 4068.51 423.55 3
6 1 0 4670.9 639.352 2
-6 0 1 20945.2 2221.66 7
6 0 -1 20084.4 1552.59 2
6 -1 -2 18433.3 1554.69 5
6 -1 -2 16368.7 1406.37 2
-6 2 3 21181.7 2481.83 7
6 -2 -3 16904.9 1629.83 5
-6 -8 -6 2400.83 586.333 7
6 8 6 2290.58 535.633 4
6 8 6 1421.36 361.088 2
-6 -8 -6 1911.78 676.206 5
-6 -7 -5 797.801 327.789 7
6 7 5 1006.84 365.32 4
6 7 5 1121.7 294.363 2
-6 -7 -5 1328.34 547.345 5
-6 -6 -4 3312.97 624.977 7
6 6 4 4566.51 649.802 4
6 6 4 3128.86 521.134 2
6 6 4 2666.44 621.049 1
-6 -6 -4 4060.69 833.696 5
-6 -5 -3 19266.7 1638.45 7
6 5 3 20170.4 1820.15 1
-6 -5 -3 21168 2051.14 5
6 5 3 19167.4 1451.53 2
6 5 3 19524.8 1487.16 4
-6 -4 -2 21848.5 1852.25 7
6 4 2 22164.2 1547.28 6
6 4 2 20653.8 1874.55 1
6 4 2 22429.8 1580.02 2
6 4 2 21760 1557.31 4
-6 -3 -1 2920.11 647.186 7
6 3 1 1458.98 481.019 1
6 3 1 2062.16 414.195 4
6 3 1 3242.49 506.63 2
-6 -2 0 51511.8 3753.43 7
6 2 0 55368.7 3527.01 1
6 2 0 53523.8 2955.42 2
-6 -1 1 14031.1 1779.77 7
6 1 -1 12731.2 1461.74 1
-6 -1 1 13661.4 824.009 3
6 1 -1 10085.6 1047.09 2
-6 0 2 14425.3 1917 7
6 0 -2 17465.4 1398.6 2
-6 1 3 23661.7 2687.8 7
6 -1 -3 24843.1 1910.16 5
6 -1 -3 18382.5 1547.02 2
-6 -8 -5 3222.67 697.387 7
6 8 5 2128.37 514.17 4
6 8 5 2986.34 509.283 2
-6 -8 -5 3025.52 863.163 5
-6 -7 -4 214.488 275.68 7
6 7 4 2.0961 72.2225 4
6 7 4 110.633 149.504 2
6 7 4 135.088 254.091 1
-6 -7 -4 -89.6071 38.1083 5
-6 -6 -3 16549.6 1562.13 7
-6 -6 -3 14792.6 1323.56 6
6 6 3 15055 1558.7 1
-6 -6 -3 14043.8 1734.45 5
6 6 3 17636.3 1332.31 2
6 6 3 17180.9 1388.99 4
-6 -5 -2 1421.16 435.272 7
6 5 2 1360.18 349.465 4
6 5 2 769.746 257.234 2
6 5 2 1646.78 467.611 1
-6 -5 -2 1514.61 600.482 5
-6 -4 -1 39481.8 2836.81 7
6 4 1 38213.5 2649.81 1
6 4 1 34288 2196.09 2
6 4 1 37644.9 2230.61 4
-6 -3 0 105506 6216.94 7
6 3 0 110284 5789.66 1
6 3 0 109752 5262.06 2
6 3 0 108961 5208.33 4
-6 -2 1 24036.6 2472.53 7
6 2 -1 24641.9 2064.99 1
6 2 -1 25910.4 1730.75 2
6 1 -2 12124.1 1363.44 1
-6 -1 2 8271.9 1477.7 7
6 1 -2 11150.8 1040.74 2
-6 0 3 179.258 308.386 7
6 0 -3 147.935 147.221 2
6 0 -3 469.353 295.447 1
-6 1 4 15187.6 2185.84 7
6 -1 -4 17236.9 1656.33 5
-6 -8 -4 6134.46 1006.78 7
6 8 4 8902.69 1060.91 4
6 8 4 8441.59 1186.26 1
6 8 4 9345.31 939.971 2
-6 -8 -4 6729.85 1289.67 5
-6 -7 -3 1942.79 563.794 7
6 7 3 2289.01 513.195 4
6 7 3 3149.61 503.197 2
6 7 3 1916.36 523.036 1
-6 -7 -3 2399.73 748.624 5
-6 -6 -2 16502 1638.22 7
6 6 2 15416.8 1582.06 1
-6 -6 -2 13149.7 1390.5 6
-6 -6 -2 16687.8 1979.75 5
6 6 2 16675.3 1309.49 2
6 6 2 14974.7 1325.7 4
-6 -5 -1 103801 5703.77 7
6 5 1 93516.9 5322.94 1
-6 -5 -1 94762.3 5371.27 6
6 5 1 102249 4927.92 2
6 5 1 103306 4953.97 4
6 4 0 8216.17 1085.61 1
-6 -4 0 10551.2 1422.57 7
6 4 0 8937.03 892.311 2
6 4 0 9900.86 928.548 4
-6 -3 1 36835.7 3215.69 7
6 3 -1 35887.2 2710.45 1
6 3 -1 40843.9 2354.68 2
-6 -2 2 1611.09 695.051 7
6 2 -2 1641.03 362.267 2
6 2 -2 838.039 349.002 1
-6 -1 3 2103.48 805.647 7
6 1 -3 3697.07 553.064 2
6 1 -3 3036.35 682.113 1
-6 0 4 3694.56 1098.58 7
6 0 -4 3175 525.787 2
6 0 -4 1886.13 587.267 1
-6 -8 -3 10602.1 1328.63 7
6 8 3 7777.93 1015.3 4
6 8 3 8820.09 937.957 2
6 8 3 9500.55 1244.73 1
-6 -8 -3 6699.3 1350.9 5
-6 -7 -2 62751.1 4140.37 7
6 7 2 64967.7 4052.37 1
-6 -7 -2 66341.5 4822.86 5
6 7 2 68308.9 3601.94 2
6 7 2 70621 3817.49 4
-6 -6 -1 6033.35 1025.52 7
6 6 1 8888.55 924.933 4
6 6 1 7728.85 845.189 2
-6 -6 -1 8430 1141.71 6
6 6 1 6932.01 995.574 1
-6 -6 -1 7192.95 1348.06 5
-6 -5 0 835.409 376.354 7
6 5 0 1096.82 281.443 2
6 5 0 656.179 232.7 4
-6 -5 0 816.47 420.502 6
6 5 0 1153.47 430.155 1
-6 -4 1 104.169 250.069 7
6 4 -1 57.8046 82.481 2
6 4 -1 469.491 195.094 4
6 4 -1 35.6811 152.176 1
-6 -3 2 13373.6 1941.37 7
6 3 -2 16989.9 1599.28 1
6 3 -2 14253.9 1209.05 2
6 2 -3 11071.7 1413.31 1
-6 -2 3 9057.43 1718.4 7
6 2 -3 13716.7 1172.47 2
6 1 -4 124.693 162.24 2
-6 -1 4 683.93 410.441 7
6 1 -4 180.572 231.463 1
6 9 3 48800.2 3493.17 1
6 9 3 50138.8 2961.04 2
-6 -8 -2 7794.68 1197.83 7
6 8 2 6693.15 911.985 4
6 8 2 5354.46 731.383 2
-6 -8 -2 4371.47 1077.72 5
6 8 2 6007.82 940.308 1
-6 -7 -1 585.236 321.813 7
6 7 1 734.863 303.069 4
6 7 1 263.882 245.379 2
-6 -7 -1 250.294 235.389 6
6 7 1 279.722 269.262 1
-6 -7 -1 420.717 471.277 5
-6 -6 0 1503.51 603.187 7
6 6 0 2257.91 449.981 2
6 6 0 2111.14 460.122 4
-6 -6 0 1921.62 623.045 6
6 6 0 3419.36 646.192 1
6 5 -1 197.624 131.264 2
-6 -5 1 433.74 307.678 7
6 5 -1 55.6006 114.686 4
-6 -5 1 357.379 379.606 6
6 5 -1 209.583 182.243 1
6 4 -2 3830.75 582.175 2
-6 -4 2 2309.62 818.911 7
6 4 -2 4258.55 555.857 4
6 4 -2 4342.15 796.025 1
-6 -3 3 13144.3 1963.45 7
6 3 -3 12353.4 1374.68 1
6 3 -3 12116.2 1114.63 2
-6 -2 4 11031.7 1950.56 7
6 2 -4 10345.1 1291.79 1
6 2 -4 13906.4 1208.77 2
6 1 -5 11216.5 1461.7 1
6 1 -5 16048 1324.61 2
6 9 2 596.729 276.531 2
6 9 2 470.788 346.564 1
6 8 1 364.668 230.089 4
6 8 1 623.497 329.344 2
6 8 1 801.973 405.929 1
-6 -7 0 7550.35 1348.03 7
6 7 0 9138.09 1000.31 2
6 7 0 9634.93 1037.54 4
6 7 0 9660.42 1242.42 1
-6 -7 0 8352.57 1333.65 6
-6 -7 0 6975.03 1524.48 5
6 6 -1 5827.01 747.603 2
-6 -6 1 4485.23 1098.97 7
6 6 -1 5035.15 698.579 4
6 6 -1 4699.13 920.985 1
-6 -6 1 5678.81 1078.56 6
6 5 -2 1506.55 425.586 2
-6 -5 2 2073.44 694.513 7
6 5 -2 1520.04 324.295 4
6 5 -2 345.764 296.062 1
-6 -5 2 2148.06 780.15 6
6 4 -3 7459.27 851.726 2
-6 -4 3 6549.08 1562.24 7
6 4 -3 6552.4 985.44 1
-6 -3 4 21770.6 2782.63 7
6 3 -4 19581.5 1859.38 1
6 3 -4 22053.9 1621.54 2
6 2 -5 4540.03 665.09 2
6 2 -5 3546.55 749.485 1
6 8 0 1985.41 473.821 4
6 7 -1 9263.55 1082.66 2
6 7 -1 12710.8 1497.9 1
-6 -7 1 15043.6 1877.27 6
6 7 -1 13379.9 1221.18 4
-6 -6 2 16804.9 2201.42 7
6 6 -2 17911.4 1774.87 1
-6 -6 2 19487.1 2226.11 6
6 6 -2 18840.5 1500.99 2
6 6 -2 14357.1 1300.26 4
6 5 -3 3177.59 582.764 2
-6 -5 3 1032.65 663.151 7
6 5 -3 2245.43 618.537 1
-6 -5 3 3297.01 1020.43 6
6 4 -4 8503.51 982.929 2
6 4 -4 9548.8 1263.95 1
6 8 -1 -2.29843 0.05237 4
-6 -8 1 5.31544 36.5778 6
-6 -7 2 8850.09 1555.24 6
-6 -6 3 10197.8 1707.26 6
7 -2 5 -2.76241 0.11172 6
7 3 9 3860.18 853.752 2
-7 -2 -8 19280.6 1590.83 3
7 2 8 17415.6 2002.56 2
7 1 7 23409.4 2293.53 2
-7 -1 -7 20421.3 1643.25 3
-7 0 -6 2642.81 507.359 3
7 0 6 2144.62 702.019 2
7 -1 5 26.6213 59.2655 6
-7 1 -5 122.191 200.579 3
7 -1 5 245.497 379.885 2
7 -2 4 7452.67 1025.19 6
-7 2 -4 6604.63 863.27 3
7 5 10 5189.36 1007.92 2
-7 -4 -9 7584.22 950.529 3
7 4 9 8388.18 1274.2 2
-7 -3 -8 3341.49 594.929 3
7 3 8 3978.1 858.582 2
-7 -2 -7 2798.27 543.018 3
7 2 7 2922.99 739.712 2
-7 -1 -6 4791.23 682.891 3
7 1 6 6063.58 1039.88 2
7 0 5 10693.5 1059.47 6
-7 0 -5 11260.4 1081.94 3
7 0 5 11573.5 1494.41 2
7 -1 4 15098.9 1353.01 6
-7 1 -4 13018.7 1215.12 3
7 -1 4 14939.5 1793.09 2
7 -2 3 10459.6 1184.58 6
-7 2 -3 10079.7 1055.16 3
7 -2 3 9400.22 1410.59 2
7 6 10 4190.74 713.348 4
7 6 10 3708.09 871.559 2
-7 -5 -9 19530.5 1590.29 3
7 5 9 16770.5 1805.92 2
7 5 9 17451.3 1557.78 4
-7 -4 -8 849.61 328.453 3
7 4 8 2002.29 609.87 2
-7 -3 -7 824.296 285.108 3
7 3 7 674.172 390.226 2
-7 -2 -6 15347.2 1299.68 3
7 2 6 16869.4 1677.21 2
-7 -1 -5 13525.5 1150.16 3
7 1 5 11531.1 1002.3 6
7 1 5 11607.5 1433.23 2
7 0 4 20488.5 2032.42 2
7 0 4 21027.7 1573.41 6
-7 0 -4 23495.3 1612.37 3
7 -1 3 4357.76 693.315 6
7 -1 3 5455.01 986.967 2
-7 1 -3 4199.37 587.208 3
7 -2 2 3275.73 642.378 6
7 -2 2 2110.6 661.649 2
7 6 9 11202.9 1199.57 4
7 6 9 10653.4 1330.45 2
7 5 8 9032.76 1045.68 4
-7 -5 -8 7488.2 946.884 3
7 5 8 10241.8 1273.14 2
7 4 7 16074.2 1628.57 2
-7 -4 -7 14865.9 1297.63 3
-7 -3 -6 489.456 212.852 3
7 3 6 1182.25 456.452 2
7 2 5 26143.2 2136.9 2
-7 -2 -5 25476.7 1744.39 3
7 1 4 414.994 161.592 6
7 1 4 323.767 332.232 2
-7 -1 -4 180.53 160.458 3
7 0 3 1894.49 407.009 6
7 0 3 1863.15 529.788 2
-7 0 -3 1714.51 350.682 3
7 -1 2 23240.9 2038.04 2
7 -1 2 22719.6 1723.25 6
-7 1 -2 19418.7 1462.04 3
7 -2 1 5968.17 825.756 6
7 -2 1 3208.59 777.408 2
7 7 9 599.453 265.696 4
7 6 8 17457.5 1741.72 2
7 6 8 17215.5 1559.62 4
7 5 7 5312.13 797.957 4
7 5 7 5606.43 931.399 2
7 4 6 14917.4 1498.3 2
-7 -4 -6 14087.6 1239.42 3
7 4 6 14623.5 1336.04 4
7 3 5 1643.98 513.84 2
-7 -3 -5 1765.17 383.665 3
7 2 4 219.056 145.917 6
7 2 4 441.211 311.184 2
-7 -2 -4 269 182.555 3
7 1 3 11899.6 986.042 6
-7 -1 -3 11059.9 964.704 3
7 1 3 10676.1 1286.83 2
7 0 2 8195.54 859.213 6
7 0 2 7035.75 1043.6 2
-7 0 -2 6397.95 687.175 3
7 -1 1 37759.2 2747.2 2
7 -1 1 37593.1 2478.71 6
7 7 8 -22.0772 135.669 4
-7 -7 -8 99.4951 167.45 5
7 6 7 7312.45 918.771 4
7 6 7 7139.63 1014.6 2
-7 -6 -7 6625.51 1035.83 5
-7 -5 -6 21175.3 1960.14 5
7 5 6 21107.7 1689.46 4
7 5 6 19800.8 1735.14 2
-7 -4 -5 173.851 230.845 7
7 4 5 -59.5587 119.729 4
7 4 5 48.4115 200.668 2
-7 -3 -4 35109 2528.37 7
-7 -3 -4 39667.4 2258.8 3
7 3 4 38838.9 1926.48 6
7 3 4 37684 2572.52 2
-7 -2 -3 14577.8 1491.19 7
-7 -2 -3 15535.3 1191.91 3
7 2 3 16664.5 1129.48 6
7 2 3 16495.3 1525.02 2
-7 -1 -2 9451.99 1207.43 7
7 1 2 8902.96 870.076 6
-7 -1 -2 9738.58 858.669 3
7 1 2 9327.1 1135.91 2
-7 0 -1 3851.2 840.828 7
7 0 1 4735.07 664.719 6
7 0 1 5889.37 869.979 2
-7 0 -1 4115.13 496.686 3
7 0 1 4775.79 642.169 5
7 -1 0 1681.93 453.98 6
7 -1 0 2488.14 584.74 2
7 -1 0 2763.12 502.669 5
-7 -8 -8 299.479 223.56 5
-7 -7 -7 4694.52 742.647 7
7 7 7 3653.99 731.938 4
7 7 7 3991.61 729.655 2
-7 -7 -7 4528.17 905.391 5
-7 -6 -6 1057.17 369.868 7
7 6 6 879.334 356.135 4
7 6 6 239.607 148.916 2
-7 -6 -6 694.417 411.471 5
-7 -5 -5 33707.7 2308.12 7
-7 -5 -5 34199.5 2715.57 5
7 5 5 31970.5 2290.96 2
7 5 5 32851.2 2242.26 4
-7 -4 -4 32129.8 2278.73 7
7 4 4 30148 2005.4 4
-7 -3 -3 28116.8 2250.59 7
-7 -3 -3 25233.8 1640.32 3
7 3 3 25951.8 1942.12 2
-7 -2 -2 8576.56 1210.36 7
-7 -2 -2 9440.25 837.567 3
7 2 2 10693.8 1164.18 2
-7 -1 -1 67.8873 201.493 7
7 1 1 413.262 256.469 2
-7 -1 -1 211.99 122.088 3
-7 0 0 3931.57 942.956 7
7 0 0 4620.89 756.404 2
7 0 0 4657.9 688.382 5
7 -1 -1 10498.7 1202.2 2
7 -1 -1 11127.9 1185.67 5
7 -2 -2 -2.65317 25.8204 5
-7 -8 -7 670.801 333.956 7
7 8 7 345.371 223.713 2
-7 -8 -7 282.588 349.108 5
-7 -7 -6 3536.32 688.202 7
7 7 6 3946.71 721.824 4
7 7 6 4432.73 713.313 2
-7 -7 -6 5285.61 1001.14 5
-7 -6 -5 25432.9 2014.5 7
-7 -6 -5 26193.9 2450 5
7 6 5 25890.9 1960.34 2
7 6 5 26820.1 1974.68 4
-7 -5 -4 8107.85 1028.99 7
7 5 4 9038.75 987.494 4
7 5 4 7200.89 917.354 2
-7 -5 -4 8970.83 1338.65 5
-7 -4 -3 9778.03 1262.33 7
7 4 3 6807.85 906.643 2
7 4 3 10873 1054.65 4
-7 -3 -2 16019.7 1796.79 7
7 3 2 19237.6 1561.58 2
-7 -2 -1 4219.55 894.353 7
-7 -2 -1 5998.76 607.24 3
7 2 1 4545.8 729.173 2
-7 -1 0 4739.97 1035.84 7
7 1 0 7503.9 908.477 2
-7 0 1 7288.12 1366.86 7
7 0 -1 6911.46 940.914 2
7 0 -1 9256.81 1021.49 5
-7 1 2 2022.64 882.626 7
7 -1 -2 2704.18 603.174 5
-7 -8 -6 12709.3 1441.03 7
7 8 6 11886.3 1257.22 2
-7 -8 -6 13614.7 1793.19 5
-7 -7 -5 2953.87 630.883 7
7 7 5 3380.46 668.641 4
7 7 5 4045.53 660.182 2
-7 -7 -5 2886.71 845.195 5
-7 -6 -4 917.716 356.153 7
7 6 4 1162.7 359.449 4
7 6 4 572.5 245.786 2
-7 -6 -4 1198.63 554.943 5
-7 -5 -3 7840.85 1106.53 7
7 5 3 6488.79 1048.75 1
7 5 3 7043.51 885.666 2
7 5 3 8697.69 958.152 4
-7 -4 -2 2691.86 695.084 7
7 4 2 2064.95 444.77 4
7 4 2 2313.22 487.847 2
7 4 2 930.388 510.567 1
-7 -3 -1 18106.1 2072.56 7
7 3 1 16875.1 1913.43 1
7 3 1 22323.9 1660.76 2
-7 -2 0 13155.4 1742.03 7
-7 -2 0 11550.6 895.943 3
7 2 0 12068.4 1531.21 1
7 2 0 13919.1 1260.24 2
-7 -1 1 399.737 397.104 7
7 1 -1 774.331 311.485 2
-7 0 2 11369.4 1812.05 7
7 0 -2 10272.9 1135.15 2
7 0 -2 10196.1 1181.79 5
-7 -8 -5 567.673 363.841 7
7 8 5 435.379 218.31 2
-7 -8 -5 197.564 298.96 5
-7 -7 -4 12506.7 1440.18 7
7 7 4 11846.7 1286.76 4
7 7 4 10968.7 1490.25 1
-7 -7 -4 16259.6 2036.02 5
7 7 4 12938.1 1250.28 2
-7 -6 -3 1730.33 570.575 7
7 6 3 2908.32 549.86 4
7 6 3 1897.92 436.541 2
7 6 3 1724.56 554.391 1
-7 -6 -3 2124.9 753.008 5
-7 -5 -2 433.297 434.024 7
7 5 2 661.873 361.968 1
7 5 2 377.136 227.985 4
7 5 2 436.451 218.09 2
7 4 1 14736.7 1750.07 1
-7 -4 -1 18739 2025.31 7
7 4 1 17404.5 1452.39 2
7 4 1 17479 1415.15 4
-7 -3 0 11556.7 1686.83 7
7 3 0 8735.16 1327.54 1
7 3 0 9899.99 1063.33 2
-7 -2 1 26262 2797.73 7
7 2 -1 28249.3 2453.67 1
7 2 -1 25259.3 1921.83 2
7 1 -2 1620.01 657.46 1
-7 -1 2 3057.01 928.977 7
7 1 -2 2814.8 545.515 2
-7 0 3 13981.6 2100.3 7
7 0 -3 15331.8 1529.89 5
-7 -8 -4 5162.76 947.116 7
7 8 4 5037.03 811.259 4
7 8 4 4431.04 690.552 2
-7 -8 -4 3872.01 1063.53 5
7 8 4 7144.68 1137.83 1
7 7 3 38.8408 197.864 1
-7 -7 -3 736.715 383.045 7
7 7 3 33.7063 144.038 4
7 7 3 476.983 268.411 2
-7 -7 -3 679.434 430.759 5
-7 -6 -2 17295.3 1887.28 7
7 6 2 15487.4 1757.61 1
7 6 2 16015.8 1405.7 2
7 6 2 17295.1 1457.23 4
-7 -5 -1 408.845 421.133 7
7 5 1 556.84 211.265 4
7 5 1 417.285 227.087 2
7 5 1 729.655 399.278 1
-7 -4 0 29311.3 2865.97 7
7 4 0 25837 2374.18 1
7 4 0 31135.6 2064.25 2
7 4 0 26495 1884.8 4
-7 -3 1 14006.4 2014.86 7
7 3 -1 15445.3 1753.43 1
7 3 -1 14335.4 1328.87 2
7 2 -2 6081.75 1098.74 1
-7 -2 2 7070.97 1417.74 7
7 2 -2 5619.66 783.019 2
7 1 -3 28066.2 2765.28 1
7 1 -3 36741.9 2459.52 2
7 9 4 1796.07 452.784 2
7 9 4 1588.92 597.065 1
-7 -8 -3 11773.8 1548.34 7
7 8 3 10107.4 1210.63 4
7 8 3 14489 1678.59 1
-7 -8 -3 8997.35 1703.2 5
7 8 3 12155.7 1218.08 2
-7 -7 -2 23785.2 2350.13 7
7 7 2 28157.5 2413.23 1
-7 -7 -2 24731.2 2775.07 5
7 7 2 26659.1 1924.87 2
7 7 2 24575.5 1939.27 4
-7 -6 -1 18824.6 2138.14 7
7 6 1 19085.1 1999.95 1
7 6 1 20040.2 1605.49 2
7 6 1 21615.3 1664.22 4
-7 -5 0 5911.88 1285.32 7
7 5 0 8844.6 1269.66 1
7 5 0 8282.27 943.926 2
7 5 0 8239.22 906.338 4
-7 -4 1 892.19 600.518 7
7 4 -1 1460.07 400.856 2
7 4 -1 782.694 419.916 1
-7 -3 2 25716.7 3046.98 7
7 3 -2 30486.2 2630.83 1
-7 -2 3 616.456 636.42 7
7 2 -3 396.676 227.158 2
7 2 -3 346.26 323.877 1
7 1 -4 2972.67 546.67 2
7 1 -4 2313.5 742.163 1
7 8 2 11972 1232.81 2
7 8 2 11377.5 1483.88 1
-7 -7 -1 28724 2704.7 7
7 7 1 23489.7 2380.19 1
7 7 1 26002.3 1944.81 2
7 7 1 24441.7 1928.56 4
7 6 0 437.549 337.84 1
-7 -6 0 847.402 574.515 7
7 6 0 599.073 306.221 2
7 6 0 244.127 235.296 4
-7 -6 0 -15.8706 63.2618 6
-7 -5 1 10633.2 1800.92 7
7 5 -1 9308.14 1013.56 2
7 5 -1 9014.31 963.863 4
7 5 -1 7981.29 1311.93 1
7 4 -2 827.251 502.43 1
-7 -4 2 1736.05 1074.57 7
7 4 -2 1313.41 370.489 2
7 3 -3 812.41 417.412 1
7 3 -3 362.341 212.184 2
-7 -3 3 385.5 517.823 7
7 2 -4 4330.99 667.953 2
7 2 -4 2674.93 684.714 1
7 7 0 9738.22 1100.97 4
-7 -6 1 716.46 469.426 7
7 6 -1 2251.54 463.577 4
-7 -6 1 1978.07 695.323 6
-7 -5 2 1049.06 714.827 7
-7 -6 2 2554.37 935.059 6
-8 -2 -7 149.279 127.103 3
-8 -1 -6 258.801 172.269 3
-8 0 -5 5338.86 745.806 3
8 4 8 1366.4 524.964 2
-8 -3 -7 329.97 218.409 3
8 3 7 246.404 277.96 2
-8 -2 -6 2176.37 512.388 3
8 2 6 2305 698.431 2
-8 -1 -5 349.032 210.611 3
8 1 5 122.56 188.192 2
-8 0 -4 6223.93 791.227 3
8 -1 3 -2.3278 0.09415 6
8 5 8 1444.83 554.621 2
-8 -4 -7 5377.16 778.037 3
8 4 7 6288.28 1065.66 2
-8 -3 -6 13340 1262.27 3
8 3 6 15867.9 1717.85 2
-8 -2 -5 7266.65 885.169 3
8 2 5 8153.08 1237.3 2
8 1 4 572.012 370.268 2
-8 -1 -4 456.565 220.645 3
-8 0 -3 11993.4 1071.97 3
8 0 3 9714.25 1081.65 6
8 0 3 9038.94 1348.24 2
8 -1 2 8781.63 1064.9 6
8 7 9 3.36518 320.876 2
8 6 8 4476.76 886.851 2
8 5 7 6731.07 931.855 4
-8 -5 -7 6950.84 905.231 3
8 5 7 9382.36 1324.35 2
8 4 6 19537 1957.04 2
-8 -4 -6 21249.2 1620.1 3
8 3 5 6052.06 1015 2
-8 -3 -5 7106.04 837.863 3
8 2 4 9406.87 1289.38 2
-8 -2 -4 8173.35 876.45 3
8 1 3 976.307 467.606 2
-8 -1 -3 809.86 290.614 3
8 0 2 3003.5 572.71 6
8 0 2 2509.75 660.465 2
8 -1 1 -3.40039 0.13753 2
8 7 8 1596.55 654.631 2
8 6 7 19055.4 1673.53 4
8 6 7 16359 1781.27 2
8 5 6 157.353 204.587 4
8 5 6 283.024 323.662 2
-8 -4 -5 10947.7 1035.83 3
8 4 5 7162.87 1113.66 2
-8 -3 -4 10965.8 1063.22 3
8 3 4 13860.9 1496.02 2
8 2 3 3594.37 819.667 2
-8 -2 -3 4751.9 632.036 3
8 1 2 10586.9 1041.1 6
8 1 2 9962.08 1334.2 2
8 0 1 2899.15 541.351 6
8 0 1 1756.58 610.387 2
8 7 7 319.747 416.46 2
8 6 6 284.591 205.988 4
8 6 6 262.401 237.927 2
8 5 5 2239.09 571.371 4
8 5 5 2149.72 527.635 2
8 4 4 6778.96 997.467 2
-8 -4 -4 7398.08 827.371 3
-8 -3 -3 36421.5 2148.61 3
8 3 3 33168.2 2522.1 2
8 2 2 3227.35 720.737 2
-8 -2 -2 3768.11 506.125 3
8 1 1 3412.05 740.928 2
8 0 0 963.126 511.637 2
8 8 7 47.263 142.326 2
-8 -8 -7 768.007 527.385 5
8 7 6 9688.77 1180.98 2
-8 -7 -6 7832.45 1440.61 5
8 6 5 4047.1 705.898 4
8 6 5 3221.69 686.452 2
-8 -6 -5 3256.64 938.053 5
-8 -5 -4 13430.3 1594.43 7
8 5 4 11607.8 1254.45 4
8 5 4 13135 1371.24 2
-8 -4 -3 5707.96 1117.78 7
8 4 3 6216.14 972.366 2
-8 -3 -2 3121.65 834.799 7
8 3 2 3833.06 712.707 2
-8 -3 -2 3128.46 497.375 3
-8 -2 -1 582.832 433.858 7
8 2 1 1446.25 483.967 2
8 1 0 11625.2 1319.74 2
8 0 -1 1572.01 836.75 2
8 0 -1 12822.5 1273.56 5
8 8 6 10160.5 1236.84 2
-8 -8 -6 6286.05 1389.05 5
-8 -7 -5 16120.1 1718.78 7
-8 -7 -5 14814.6 2067.95 5
8 7 5 18615.5 1678.66 2
-8 -6 -4 2718.73 712.53 7
8 6 4 3885.5 691.404 4
8 6 4 3480.61 686.325 2
-8 -5 -3 630.912 461.065 7
8 5 3 199.363 173.461 4
8 5 3 123.394 183.385 2
-8 -4 -2 3165.38 968.854 7
8 4 2 1514.4 464.304 2
-8 -3 -1 8497.96 1412.8 7
-8 -3 -1 9776.88 880.181 3
8 3 1 10418.1 1230.31 2
-8 -2 0 16701.1 2147.11 7
8 2 0 14372.9 1500.98 2
-8 -1 1 14216.5 1935.52 7
8 1 -1 9682.92 1214.78 2
-8 -8 -5 4893.85 939.929 7
8 8 5 5469 842.756 2
-8 -7 -4 5657.66 1019.09 7
8 7 4 4105.47 734.802 4
8 7 4 4620.08 798.891 2
-8 -7 -4 6236.14 1370.73 5
-8 -6 -3 685.725 431.64 7
8 6 3 689.4 293.884 4
8 6 3 809.136 282.849 1
8 6 3 818.679 393.17 2
8 5 2 6962.77 899.78 4
8 5 2 6404.33 918.751 2
8 5 2 5804.69 1112.44 1
-8 -4 -1 13071.7 1868.62 7
8 4 1 9130.85 1527.89 1
8 4 1 12543.2 1307.04 2
-8 -3 0 1998.57 905.823 7
8 3 0 3272.16 689.716 2
8 3 0 3738.81 1050.2 1
-8 -2 1 2215.79 855.276 7
8 2 -1 2690.45 575.632 2
-8 -8 -4 190.856 145.788 7
-8 -7 -3 13881.1 1796.26 7
8 7 3 17584.5 1559.31 2
8 7 3 14962.7 1880.95 1
8 7 3 15999.6 1530.22 4
8 6 2 7684.67 953.479 4
8 6 2 5958.3 867.109 2
8 6 2 5059.23 1083.89 1
-8 -5 -1 3577.88 1009.43 7
8 5 1 2859.35 570.877 4
8 5 1 2846.36 609.655 2
8 5 1 2865.7 895.265 1
-8 -4 0 5920.82 1431.08 7
8 4 0 5918.47 860.39 2
8 4 0 4367.54 1093.02 1
8 3 -1 558.716 399.911 1
-8 -3 1 645.462 421.632 7
8 3 -1 482.04 252.594 2
-8 -7 -2 1482.25 679.525 7
8 7 2 2386.43 559.93 4
-8 -6 -1 8624.61 1493.65 7
8 6 1 9643.1 1099.07 4
-8 -5 0 1184.81 844.793 7
-8 -4 1 14208.4 2065.65 7
8 6 0 8483.95 1040.65 4
-9 -2 -5 865.499 321.101 3
-9 -3 -5 930.919 339.261 3
-9 -2 -4 17300.1 1438.11 3
-9 -4 -5 15442.2 1388.28 3
-9 -3 -4 12876.6 1211.21 3
-9 -5 -5 3205.26 588.99 3
-9 -4 -4 3417.09 602.699 3
-9 -3 -3 435.634 240.463 3
-9 -4 -3 3171.08 561.938 3
-9 -6 -2 6234.15 1463.89 7
-9 -5 -1 7363.69 1708.07 7
