#------------------------------------------------------------------------------
#$Date: 2020-10-10 00:33:23 +0300 (Sat, 10 Oct 2020) $
#$Revision: 258268 $
#$URL: file:///home/coder/svn-repositories/cod/cif/4/51/81/4518130.cif $
#------------------------------------------------------------------------------
#
# This file is available in the Crystallography Open Database (COD),
# http://www.crystallography.net/
#
# All data on this site have been placed in the public domain by the
# contributors.
#
data_4518130
loop_
_publ_author_name
'Ge, Hangming'
'Wu, Botao'
'Liu, Yafei'
'Wang, Haoyang'
'Shen, Qilong'
_publ_section_title
;
 Synergistic Lewis Acid and Photoredox-Catalyzed Trifluoromethylative
 Difunctionalization of Alkenes with Selenium Ylide-Based
 Trifluoromethylating Reagent
;
_journal_name_full               'ACS Catalysis'
_journal_page_first              12414
_journal_page_last               12424
_journal_paper_doi               10.1021/acscatal.0c03776
_journal_year                    2020
_chemical_formula_sum            'C11 H12 F3 N O2 S'
_chemical_formula_weight         279.28
_space_group_crystal_system      triclinic
_space_group_IT_number           2
_space_group_name_Hall           '-P 1'
_space_group_name_H-M_alt        'P -1'
_atom_sites_solution_hydrogens   mixed
_audit_creation_method           SHELXL-2013
_cell_angle_alpha                77.1750(10)
_cell_angle_beta                 89.3000(10)
_cell_angle_gamma                74.0700(10)
_cell_formula_units_Z            2
_cell_length_a                   7.1106(3)
_cell_length_b                   8.8828(3)
_cell_length_c                   9.8984(3)
_cell_measurement_reflns_used    7495
_cell_measurement_temperature    296(2)
_cell_measurement_theta_max      54.966
_cell_measurement_theta_min      4.897
_cell_volume                     585.40(4)
_computing_cell_refinement       'Bruker SAINT'
_computing_data_collection       'Bruker APEX2'
_computing_data_reduction        'Bruker SAINT'
_computing_molecular_graphics    'Bruker SHELXTL'
_computing_publication_material  'Bruker SHELXTL'
_computing_structure_refinement  'SHELXL-2013 (Sheldrick, 2013)'
_computing_structure_solution    'SHELXS-97 (Sheldrick 2008)'
_diffrn_ambient_temperature      296(2)
_diffrn_measured_fraction_theta_full 0.984
_diffrn_measured_fraction_theta_max 0.985
_diffrn_measurement_device_type  'Bruker APEX-II CCD'
_diffrn_measurement_method       '\f and \w scans'
_diffrn_radiation_type           MoK\a
_diffrn_radiation_wavelength     0.71073
_diffrn_reflns_av_R_equivalents  0.0235
_diffrn_reflns_av_unetI/netI     0.0185
_diffrn_reflns_Laue_measured_fraction_full 0.984
_diffrn_reflns_Laue_measured_fraction_max 0.985
_diffrn_reflns_limit_h_max       8
_diffrn_reflns_limit_h_min       -8
_diffrn_reflns_limit_k_max       10
_diffrn_reflns_limit_k_min       -10
_diffrn_reflns_limit_l_max       12
_diffrn_reflns_limit_l_min       -12
_diffrn_reflns_number            10249
_diffrn_reflns_point_group_measured_fraction_full 0.984
_diffrn_reflns_point_group_measured_fraction_max 0.985
_diffrn_reflns_theta_full        25.242
_diffrn_reflns_theta_max         25.991
_diffrn_reflns_theta_min         2.983
_exptl_absorpt_coefficient_mu    0.309
_exptl_absorpt_correction_T_max  0.7456
_exptl_absorpt_correction_T_min  0.6694
_exptl_absorpt_correction_type   multi-scan
_exptl_absorpt_process_details   sadabs
_exptl_crystal_colour            colorless
_exptl_crystal_density_diffrn    1.584
_exptl_crystal_description       prismatic
_exptl_crystal_F_000             288
_exptl_crystal_size_max          0.200
_exptl_crystal_size_mid          0.160
_exptl_crystal_size_min          0.120
_refine_diff_density_max         0.395
_refine_diff_density_min         -0.317
_refine_diff_density_rms         0.041
_refine_ls_extinction_method     none
_refine_ls_goodness_of_fit_ref   1.040
_refine_ls_hydrogen_treatment    mixed
_refine_ls_matrix_type           full
_refine_ls_number_parameters     168
_refine_ls_number_reflns         2263
_refine_ls_number_restraints     0
_refine_ls_restrained_S_all      1.040
_refine_ls_R_factor_all          0.0379
_refine_ls_R_factor_gt           0.0356
_refine_ls_shift/su_max          0.001
_refine_ls_shift/su_mean         0.000
_refine_ls_structure_factor_coef Fsqd
_refine_ls_weighting_details
'w=1/[\s^2^(Fo^2^)+(0.0441P)^2^+0.3173P] where P=(Fo^2^+2Fc^2^)/3'
_refine_ls_weighting_scheme      calc
_refine_ls_wR_factor_gt          0.0931
_refine_ls_wR_factor_ref         0.0955
_reflns_Friedel_coverage         0.000
_reflns_number_gt                2138
_reflns_number_total             2263
_reflns_threshold_expression     'I > 2\s(I)'
_cod_data_source_file            cs0c03776_si_002.cif
_cod_data_source_block           mo_d8v18350_0m
_cod_database_code               4518130
_shelx_space_group_comment
; 
The symmetry employed for this shelxl refinement is uniquely defined 
by the following loop, which should always be used as a source of 
symmetry information in preference to the above space-group names. 
They are only intended as comments. 
;
_shelx_estimated_absorpt_t_min   0.941
_shelx_estimated_absorpt_t_max   0.964
_shelxl_version_number           2013-4
_shelx_res_file
; 
TITL mo_d8v18350_0m_a.res in P-1 
CELL 0.71073 7.1106 8.8828 9.8984 77.175 89.3 74.07 
ZERR 2 0.0003 0.0003 0.0003 0.001 0.001 0.001 
LATT 1 
SFAC C  H  F  N  O  S 
UNIT 22 24 6 2 4 2 
OMIT  -3.00  52.00 
L.S. 8 
ACTA 
BOND $H 
FMAP 2 
PLAN 20 
LIST 4 
conf 
htab 
mpla c1 > c6 
wpdb -1 
size 0.20 0.16 0.12 
TEMP 23 
WGHT    0.044100    0.317300 
FVAR       2.21569 
S1    6    0.317141    0.845834    0.032768    11.00000    0.03301    0.03505 = 
         0.02825   -0.00542   -0.00645   -0.00368 
F1    3    1.037517    0.422866    0.176768    11.00000    0.06028    0.10438 = 
         0.09498   -0.06299   -0.00966    0.02298 
F2    3    0.996082    0.379984    0.394159    11.00000    0.05639    0.04449 = 
         0.08851    0.01922   -0.01233   -0.00156 
F3    3    1.182170    0.522655    0.306141    11.00000    0.03273    0.07009 = 
         0.08116    0.00079   -0.01216   -0.00634 
O1    5    0.174852    0.764102    0.016084    11.00000    0.03880    0.05190 = 
         0.04944   -0.01394   -0.01005   -0.01182 
O2    5    0.292315    1.003889   -0.052215    11.00000    0.05092    0.03992 = 
         0.03384    0.00266   -0.00822   -0.00455 
N1    4    0.530635    0.734121    0.005662    11.00000    0.03571    0.04316 = 
         0.03194   -0.01077   -0.00220   -0.00534 
C1    1    0.336180    0.851438    0.208928    11.00000    0.03045    0.03142 = 
         0.02809   -0.00455   -0.00209   -0.00578 
C2    1    0.199078    0.971162    0.255311    11.00000    0.03405    0.03722 = 
         0.03795   -0.00468   -0.00091    0.00049 
AFIX  43 
H2    2    0.102811    1.046557    0.193844    11.00000   -1.20000 
AFIX   0 
C3    1    0.206454    0.977645    0.392989    11.00000    0.04004    0.03999 = 
         0.04229   -0.01320    0.00873   -0.00321 
AFIX  43 
H3    2    0.116554    1.059512    0.423346    11.00000   -1.20000 
AFIX   0 
C4    1    0.346736    0.863247    0.487415    11.00000    0.04158    0.04140 = 
         0.03303   -0.01083    0.00469   -0.01568 
C5    1    0.482509    0.745935    0.437566    11.00000    0.03575    0.03549 = 
         0.03058   -0.00375   -0.00437   -0.00702 
AFIX  43 
H5    2    0.577152    0.669631    0.499667    11.00000   -1.20000 
AFIX   0 
C6    1    0.483500    0.737263    0.298816    11.00000    0.02972    0.02829 = 
         0.03110   -0.00515   -0.00222   -0.00689 
C7    1    0.642629    0.606639    0.253939    11.00000    0.03292    0.02584 = 
         0.03354   -0.00500   -0.00448   -0.00311 
AFIX  13 
H7    2    0.650054    0.505785    0.321381    11.00000   -1.20000 
AFIX   0 
C8    1    0.593935    0.581905    0.112065    11.00000    0.03766    0.03382 = 
         0.04099   -0.01469   -0.00459   -0.00153 
AFIX  23 
H8A   2    0.708574    0.511773    0.081746    11.00000   -1.20000 
H8B   2    0.490597    0.528772    0.120713    11.00000   -1.20000 
AFIX   0 
C9    1    0.843649    0.640056    0.263129    11.00000    0.03330    0.03110 = 
         0.03784   -0.00386   -0.00639   -0.00373 
AFIX  23 
H9A   2    0.858277    0.714960    0.178703    11.00000   -1.20000 
H9B   2    0.846411    0.691071    0.339875    11.00000   -1.20000 
AFIX   0 
C10   1    1.012891    0.492869    0.282943    11.00000    0.03621    0.04380 = 
         0.04938   -0.00709   -0.00526   -0.00106 
C11   1    0.350975    0.866735    0.638614    11.00000    0.05844    0.06080 = 
         0.03655   -0.01761    0.00649   -0.01800 
AFIX 137 
H11A  2    0.318078    0.976234    0.647582    11.00000   -1.50000 
H11B  2    0.479752    0.810735    0.679871    11.00000   -1.50000 
H11C  2    0.257800    0.815460    0.684859    11.00000   -1.50000 
AFIX   0 
H1    2    0.608900    0.788226   -0.002795    11.00000    0.04189 
HKLF 4 
  
REM  mo_d8v18350_0m_a.res in P-1 
REM R1 =  0.0356 for    2138 Fo > 4sig(Fo)  and  0.0379 for all    2263 data 
REM    168 parameters refined using      0 restraints 
  
END 
  
WGHT      0.0437      0.3187 
  
REM Instructions for potential hydrogen bonds 
HTAB C8 F1 
EQIV $1 -x+1, -y+2, -z 
HTAB C9 O2_$1 
HTAB N1 O2_$1 
  
REM Highest difference peak  0.395,  deepest hole -0.317,  1-sigma level  0.041 
Q1    1   0.9829  0.3660  0.3075  11.00000  0.05    0.40 
Q2    1   0.3288  0.8428  0.1324  11.00000  0.05    0.31 
Q3    1   1.0027  0.5011  0.1163  11.00000  0.05    0.27 
Q4    1   0.9586  0.3786  0.2092  11.00000  0.05    0.24 
Q5    1   0.7471  0.6152  0.2545  11.00000  0.05    0.21 
Q6    1   0.9297  0.5743  0.2637  11.00000  0.05    0.20 
Q7    1   0.4087  0.7823  0.2572  11.00000  0.05    0.20 
Q8    1   0.2164  0.9176  0.6705  11.00000  0.05    0.20 
Q9    1   0.4390  0.7937  0.0274  11.00000  0.05    0.19 
Q10   1   0.6218  0.6037  0.1778  11.00000  0.05    0.19 
Q11   1   0.5608  0.6772  0.2706  11.00000  0.05    0.17 
Q12   1   0.3091  0.9313  0.4359  11.00000  0.05    0.17 
Q13   1   0.4999  0.7600  0.3625  11.00000  0.05    0.16 
Q14   1   0.3842  0.7934  0.4629  11.00000  0.05    0.16 
Q15   1   0.4459  0.9122  0.6537  11.00000  0.05    0.16 
Q16   1   0.1335  0.8345  0.0503  11.00000  0.05    0.16 
Q17   1   0.2263  0.9801  0.3244  11.00000  0.05    0.15 
Q18   1   0.3491  0.8603  0.5586  11.00000  0.05    0.15 
Q19   1   0.2544  0.8823  0.2374  11.00000  0.05    0.15 
Q20   1   0.5694  0.6607  0.0617  11.00000  0.05    0.14 
;
_shelx_res_checksum              6137
_shelx_hkl_file
; 
  -1   0   0 1379.06   32.80 
  -1   0   0 1395.76   32.10 
   1   0   0 1499.15   33.30 
  -2   0   0  299.37    9.30 
  -2   0   0  309.57   10.40 
  -2   0   0  293.57   10.10 
   2   0   0  282.27   10.50 
   2   0   0  305.97   10.30 
   2   0   0  324.67    9.30 
  -3   0   0 1428.06   37.30 
  -3   0   0 1457.85   37.30 
  -3   0   0 1438.46   35.40 
   3   0   0 1385.76   37.00 
   3   0   0 1410.06   38.10 
  -4   0   0  299.57   11.80 
  -4   0   0  310.27   13.40 
  -4   0   0  292.67   12.80 
   4   0   0  316.77   11.30 
   4   0   0  298.37   13.20 
   4   0   0  305.67   14.20 
  -5   0   0   50.39    5.80 
  -5   0   0   61.89    5.50 
  -5   0   0   48.70    5.50 
   5   0   0   53.29    6.50 
   5   0   0   59.59    4.80 
   5   0   0   61.99    6.40 
  -6   0   0 4813.42  118.79 
  -6   0   0 4970.70  117.69 
  -6   0   0 4819.42  115.09 
   6   0   0 4657.43  121.19 
   6   0   0 4936.51  119.49 
   6   0   0 4677.73  112.39 
  -7   0   0   26.70    5.60 
  -7   0   0   19.50    5.00 
   7   0   0   26.60    4.80 
   7   0   0   28.10    6.40 
   7   0   0   12.70    4.60 
  -8   0   0  201.18   14.30 
  -8   0   0  208.98   16.00 
   8   0   0  178.68   11.30 
   8   0   0  204.08   15.40 
   8  -1   0    5.20    4.70 
   8  -1   0   16.80    4.00 
  -8   1   0    1.10    4.10 
   7  -1   0  941.21   38.30 
   7  -1   0  946.21   36.50 
   7  -1   0  917.11   30.90 
  -7   1   0 1000.40   35.20 
  -7   1   0 1000.70   37.40 
   6  -1   0   41.10    7.00 
   6  -1   0   38.90    7.60 
   6  -1   0   40.20    6.20 
  -6   1   0   45.80    5.80 
  -6   1   0   47.90    6.00 
   5  -1   0  300.67   16.20 
   5  -1   0  356.66   16.60 
  -5   1   0  329.27   15.70 
  -5   1   0  327.37   16.80 
  -5   1   0  317.27   18.80 
   4  -1   0 1281.07   37.10 
   4  -1   0 1215.88   37.00 
   4  -1   0 1318.17   34.00 
  -4   1   0 1225.68   36.20 
  -4   1   0 1317.57   36.10 
  -4   1   0 1256.37   34.10 
   3  -1   0 2173.58   53.99 
   3  -1   0 2132.69   51.59 
   3  -1   0 2190.58   54.19 
  -3   1   0 2194.48   52.99 
  -3   1   0 2105.09   51.19 
  -3   1   0 2081.49   53.39 
  -1  -1   0   21.20    1.90 
  -1  -1   0   25.00    1.60 
  -1  -1   0   25.30    1.90 
   1   1   0   22.10    1.80 
   1   1   0   28.10    2.10 
  -3  -1   0  283.47   11.60 
  -3  -1   0  303.47   10.60 
  -3  -1   0  313.97   12.50 
   3   1   0  290.17   12.40 
   3   1   0  321.17   10.20 
   3   1   0  295.67   11.40 
  -4  -1   0  152.78    7.80 
  -4  -1   0  157.18    9.00 
  -4  -1   0  152.58    9.10 
   4   1   0  162.28    8.80 
   4   1   0  168.48    7.40 
   4   1   0  144.49    9.70 
  -5  -1   0 4831.72  118.19 
  -5  -1   0 4882.21  114.99 
   5   1   0 5086.99  117.59 
   5   1   0 5012.50  113.09 
   5   1   0 4847.61  120.29 
  -6  -1   0   52.79    6.40 
  -6  -1   0   52.69    6.40 
  -6  -1   0   45.70    5.50 
   6   1   0   56.39    6.60 
   6   1   0   51.39    8.10 
   6   1   0   43.70    4.60 
  -7  -1   0  184.98   12.90 
  -7  -1   0  175.08   13.30 
   7   1   0  190.68   10.60 
   7   1   0  184.68   13.10 
   7   1   0  196.18   15.00 
  -8  -1   0  561.94   27.50 
  -8  -1   0  543.05   25.50 
   8   1   0  535.85   21.30 
   8   1   0  554.34   26.50 
  -9  -1   0    7.20    3.90 
   9   1   0   -2.90    4.40 
   9   1   0   -0.60    2.10 
   8  -2   0    2.70    3.60 
   8  -2   0    3.20    3.20 
  -8   2   0    4.20    4.30 
   7  -2   0  285.67   17.60 
   7  -2   0  225.38   17.50 
   7  -2   0  254.77   14.10 
  -7   2   0  270.57   16.10 
  -7   2   0  256.47   16.40 
   6  -2   0  162.48   12.70 
   6  -2   0  146.09   11.80 
   6  -2   0  131.89    9.40 
  -6   2   0  165.08   11.30 
  -6   2   0  132.69   11.10 
   5  -2   0 3825.82   98.99 
   5  -2   0 3939.21   98.39 
   5  -2   0 4030.00   93.49 
  -5   2   0 4038.40   97.79 
  -5   2   0 3883.21   93.39 
  -5   2   0 3618.74   98.69 
   4  -2   0  940.01   30.60 
   4  -2   0  940.71   31.00 
  -4   2   0  969.40   27.60 
  -4   2   0  972.20   30.40 
  -4   2   0  959.30   29.30 
   3  -2   0  297.87   13.10 
   3  -2   0  289.87   12.20 
   3  -2   0  294.87   11.00 
  -3   2   0  280.87   12.50 
  -3   2   0  261.67   10.60 
  -3   2   0  292.77   12.00 
   2  -2   0  680.43   18.60 
   2  -2   0  625.44   18.80 
   2  -2   0  645.04   20.10 
  -2   2   0  622.84   19.60 
  -2   2   0  581.44   18.60 
  -2   2   0  635.84   18.90 
   1  -2   0 1816.32   45.50 
   1  -2   0 1905.71   44.10 
   1  -2   0 1868.91   44.50 
  -1   2   0 1877.51   45.50 
  -1   2   0 1906.41   45.00 
  -1   2   0 1882.61   43.50 
   0  -2   0  857.91   22.20 
   0  -2   0  861.51   21.70 
   0   2   0  870.41   22.70 
   0   2   0  869.51   21.40 
   0   2   0  850.91   22.40 
  -3  -2   0 3941.31   94.39 
  -3  -2   0 3994.90   91.09 
  -3  -2   0 3942.91   93.19 
   3   2   0 3846.42   94.49 
   3   2   0 4078.79   92.59 
   3   2   0 4114.79   90.39 
  -4  -2   0 2223.78   57.29 
  -4  -2   0 2080.69   55.59 
  -4  -2   0 2134.99   53.29 
   4   2   0 2181.28   54.99 
   4   2   0 2162.08   54.99 
  -5  -2   0   21.40    4.40 
  -5  -2   0   25.80    4.90 
  -5  -2   0   35.90    4.10 
   5   2   0   36.70    5.20 
   5   2   0   27.00    3.20 
   5   2   0   23.30    4.20 
  -6  -2   0  117.89   11.40 
  -6  -2   0  136.99   10.60 
  -6  -2   0  119.39    9.70 
   6   2   0  132.59    9.70 
   6   2   0  133.39   11.20 
   6   2   0  124.69    7.60 
  -7  -2   0  725.83   28.60 
  -7  -2   0  736.83   29.60 
   7   2   0  682.53   30.90 
   7   2   0  620.24   32.40 
  -8  -2   0   86.09    9.50 
  -8  -2   0  110.09   11.60 
   8   2   0   89.69    7.50 
   8   2   0   97.69   10.30 
  -9  -2   0   -3.20    3.70 
   9   2   0    2.60    2.90 
   9   2   0    2.10    4.80 
   7  -3   0    7.90    3.90 
   7  -3   0    2.40    3.60 
  -7   3   0    6.20    3.70 
   6  -3   0  219.48   12.80 
   6  -3   0  237.08   15.70 
   6  -3   0  232.08   15.80 
  -6   3   0  219.18   15.30 
  -6   3   0  269.07   15.30 
   5  -3   0  480.05   21.10 
   5  -3   0  437.26   21.00 
   5  -3   0  445.16   21.20 
  -5   3   0  456.55   20.30 
  -5   3   0  440.86   19.40 
   4  -3   0  186.18   15.40 
   4  -3   0  221.78   12.10 
   4  -3   0  222.68   11.00 
  -4   3   0  217.88   11.80 
  -4   3   0  213.38   11.20 
  -4   3   0  213.88   12.20 
   3  -3   0  408.66   14.80 
   3  -3   0  401.06   17.00 
   3  -3   0  379.06   15.30 
  -3   3   0  416.46   14.20 
  -3   3   0  366.56   16.00 
  -3   3   0  412.16   16.00 
   2  -3   0 1271.67   33.70 
   2  -3   0 1224.98   35.30 
   2  -3   0 1249.38   33.00 
  -2   3   0 1237.68   34.90 
  -2   3   0 1262.87   34.30 
  -2   3   0 1233.28   31.80 
   1  -3   0  852.11   25.60 
   1  -3   0  851.61   24.10 
  -1   3   0  884.21   25.30 
  -1   3   0  873.61   24.90 
  -1   3   0  869.01   23.00 
   0  -3   0 1147.49   29.30 
   0  -3   0 1115.39   30.80 
   0  -3   0 1100.89   29.60 
   0   3   0 1132.59   30.20 
   0   3   0 1159.08   30.50 
   0   3   0 1125.19   28.40 
  -1  -3   0  975.50   25.60 
  -1  -3   0  944.91   27.10 
  -1  -3   0  960.30   26.30 
   1   3   0  941.81   26.80 
   1   3   0  935.01   26.30 
   1   3   0 1001.80   25.30 
  -2  -3   0   25.10    3.20 
  -2  -3   0   28.60    3.10 
   2   3   0   29.80    2.70 
   2   3   0   27.80    3.40 
   2   3   0   27.80    2.80 
  -3  -3   0 7222.28  163.98 
  -4  -3   0 1412.06   37.40 
  -4  -3   0 1478.95   40.40 
  -4  -3   0 1440.76   41.50 
   4   3   0 1430.06   39.00 
   4   3   0 1235.88   39.30 
   4   3   0 1384.16   41.20 
  -5  -3   0   68.49    5.80 
  -5  -3   0   64.89    6.50 
  -5  -3   0   68.19    7.20 
   5   3   0   66.59    5.00 
   5   3   0   65.29    7.10 
   5   3   0   68.89    6.40 
  -6  -3   0  848.52   31.40 
  -6  -3   0  849.22   28.40 
  -6  -3   0  845.42   31.80 
   6   3   0  850.61   33.10 
   6   3   0  870.01   25.90 
   6   3   0  870.31   29.80 
  -7  -3   0   55.99    7.50 
  -7  -3   0   64.39    7.80 
   7   3   0   51.69    9.20 
   7   3   0   61.09    7.50 
   7   3   0   51.69    5.30 
  -8  -3   0   29.80    6.50 
  -8  -3   0   23.80    5.20 
   8   3   0   16.80    3.70 
   8   3   0   19.80    5.00 
  -9  -3   0  196.38   15.50 
  -9  -3   0  196.78   17.90 
   9   3   0  182.28   11.60 
   9   3   0  193.48   15.20 
   7  -4   0   32.90    6.60 
   7  -4   0   34.30    7.50 
  -7   4   0   31.80    6.90 
   6  -4   0  443.66   23.70 
   6  -4   0  445.86   23.50 
   6  -4   0  435.66   20.50 
  -6   4   0  452.15   22.20 
  -6   4   0  438.66   24.60 
   5  -4   0  129.19    9.60 
   5  -4   0  132.29   10.60 
   5  -4   0  144.09   12.10 
  -5   4   0  144.29   10.90 
  -5   4   0  132.79   10.30 
   4  -4   0 1848.22   52.39 
   4  -4   0 1884.51   50.99 
   4  -4   0 1838.62   54.69 
  -4   4   0 1796.92   52.99 
  -4   4   0 1947.91   53.09 
   3  -4   0 8453.45  194.38 
   3  -4   0 8589.24  192.58 
   3  -4   0 8594.54  196.28 
  -3   4   0 8500.35  193.88 
  -3   4   0 8384.46  194.68 
  -3   4   0 8365.96  189.98 
   2  -4   0   58.59    5.10 
   2  -4   0   55.69    5.80 
   2  -4   0   53.59    5.00 
  -2   4   0   57.59    5.60 
  -2   4   0   55.19    4.30 
  -2   4   0   58.69    5.50 
   1  -4   0  479.85   16.70 
   1  -4   0  487.85   18.50 
   1  -4   0  482.25   16.80 
  -1   4   0  472.35   15.10 
  -1   4   0  478.05   17.60 
  -1   4   0  503.75   18.00 
   0  -4   0  105.39    7.30 
   0  -4   0  112.19    6.50 
   0  -4   0  104.29    6.40 
   0   4   0   97.19    6.60 
   0   4   0   91.59    7.40 
   0   4   0  105.69    6.80 
  -1  -4   0 1489.45   40.60 
  -1  -4   0 1402.46   38.60 
  -1  -4   0 1483.15   38.20 
   1   4   0 1478.15   39.50 
   1   4   0 1441.16   39.60 
   1   4   0 1481.35   37.30 
  -2  -4   0  158.68    8.20 
  -2  -4   0  161.08    9.60 
  -2  -4   0  161.88    8.80 
   2   4   0  158.48    7.90 
   2   4   0  159.58    9.20 
   2   4   0  165.38    8.80 
  -3  -4   0 9435.56  216.38 
   3   4   0 9789.82  218.38 
  -4  -4   0 1128.09   35.10 
  -4  -4   0 1041.40   37.80 
   4   4   0 1203.48   34.50 
   4   4   0 1169.88   31.40 
   4   4   0 1129.19   33.40 
   4   4   0 1158.28   36.70 
  -5  -4   0  958.80   33.80 
  -5  -4   0  947.91   29.50 
  -5  -4   0  958.10   32.70 
   5   4   0  955.90   31.10 
   5   4   0  999.80   28.10 
   5   4   0  936.71   33.50 
  -6  -4   0  104.69    8.20 
  -6  -4   0  106.59    9.70 
  -6  -4   0  100.09   10.10 
   6   4   0   99.09    8.80 
   6   4   0  114.29    7.30 
   6   4   0   96.69    9.90 
  -7  -4   0  363.46   20.10 
  -7  -4   0  374.36   20.60 
   7   4   0  335.97   14.60 
   7   4   0  378.06   18.90 
   7   4   0  336.67   20.70 
  -8  -4   0   16.20    5.50 
  -8  -4   0   16.20    4.70 
   8   4   0    8.10    2.60 
   8   4   0   17.30    5.30 
  -9  -4   0   75.89   10.00 
  -9  -4   0   68.59   11.20 
   9   4   0   50.19    6.10 
   9   4   0   72.09    9.90 
   6  -5   0   68.39    9.60 
   6  -5   0   64.49    7.50 
   6  -5   0   66.39   10.40 
  -6   5   0   87.79    9.30 
   5  -5   0    9.40    4.20 
   5  -5   0   16.90    4.80 
   5  -5   0    2.20    2.40 
  -5   5   0    3.30    3.30 
  -5   5   0   -1.40    2.60 
   4  -5   0 2218.88   63.89 
   4  -5   0 2122.39   60.29 
   4  -5   0 2185.98   59.89 
  -4   5   0 2127.49   61.59 
   3  -5   0  715.23   28.00 
   3  -5   0  660.93   24.40 
   3  -5   0  686.73   24.70 
  -3   5   0  731.93   26.80 
  -3   5   0  691.23   26.00 
  -3   5   0  682.13   22.40 
   2  -5   0 4136.09  104.19 
   2  -5   0 4239.48  100.49 
   2  -5   0 4249.98  100.89 
  -2   5   0 4204.88   97.79 
  -2   5   0 4102.89  102.19 
  -2   5   0 4162.18  102.49 
   1  -5   0  721.53   23.70 
   1  -5   0  693.13   23.20 
  -1   5   0  708.93   21.20 
  -1   5   0  678.93   24.40 
  -1   5   0  692.63   24.30 
   0  -5   0 1473.95   42.40 
   0  -5   0 1389.66   39.60 
   0  -5   0 1449.15   39.70 
   0   5   0 1467.45   37.50 
   0   5   0 1419.86   41.00 
   0   5   0 1450.95   40.80 
  -1  -5   0   15.70    3.50 
  -1  -5   0   17.10    3.10 
   1   5   0   15.70    3.50 
   1   5   0   23.00    4.30 
   1   5   0   22.10    2.70 
  -2  -5   0 3063.49   76.29 
  -2  -5   0 3130.59   78.89 
  -2  -5   0 2965.50   74.69 
   2   5   0 3116.59   77.59 
   2   5   0 3048.50   73.89 
   2   5   0 3107.49   76.69 
  -3  -5   0  147.69   10.30 
  -3  -5   0  146.09    9.50 
   3   5   0  141.09    8.40 
   3   5   0  153.58    8.60 
   3   5   0  154.68   10.30 
   3   5   0  135.79    9.10 
  -4  -5   0 4562.44  113.69 
  -4  -5   0 4556.94  111.49 
   4   5   0 4679.83  106.69 
   4   5   0 4517.15  110.29 
   4   5   0 4578.24  108.79 
   4   5   0 4515.15  113.09 
  -5  -5   0  324.07   16.90 
  -5  -5   0  322.17   18.00 
   5   5   0  303.17   17.30 
   5   5   0  314.37   15.30 
   5   5   0  337.57   16.20 
   5   5   0  337.87   13.70 
  -6  -5   0   36.80    7.60 
  -6  -5   0   36.90    8.90 
  -6  -5   0   35.10    6.60 
   6   5   0   25.50    5.60 
   6   5   0   33.70    5.80 
   6   5   0   31.40    4.70 
   6   5   0   21.50    7.20 
  -7  -5   0    5.10    3.90 
  -7  -5   0   11.80    4.20 
   7   5   0    3.50    2.60 
   7   5   0    4.60    2.20 
  -8  -5   0   19.70    5.40 
  -8  -5   0   27.90    7.20 
   8   5   0   13.70    4.20 
   8   5   0   21.00    4.20 
  -9  -5   0    6.70    9.30 
  -9  -5   0    3.10    4.40 
   9   5   0   -3.90    4.30 
   9   5   0    3.10    2.40 
   6  -6   0   19.40    5.70 
   6  -6   0   24.80    5.80 
  -6   6   0   23.10    6.70 
   5  -6   0  478.25   23.40 
   5  -6   0  534.35   27.40 
   5  -6   0  479.15   23.70 
  -5   6   0  484.25   24.80 
   4  -6   0   96.59    9.20 
   4  -6   0   91.49   10.50 
   4  -6   0  102.49    9.30 
  -4   6   0  107.99    9.60 
  -4   6   0   89.09    9.40 
   3  -6   0  863.71   31.00 
   3  -6   0  882.11   34.30 
   3  -6   0  904.21   31.00 
  -3   6   0  892.21   32.70 
   2  -6   0 4764.32  117.29 
   2  -6   0 4637.34  113.19 
   2  -6   0 4542.55  111.59 
  -2   6   0 4520.35  113.89 
  -2   6   0 4610.74  114.69 
  -2   6   0 4652.53  108.19 
   1  -6   0  909.41   29.80 
   1  -6   0  900.81   32.40 
   1  -6   0  899.81   29.30 
  -1   6   0  891.01   30.90 
  -1   6   0  914.51   30.90 
  -1   6   0  869.11   26.30 
   0  -6   0  461.85   18.50 
   0  -6   0  456.35   18.40 
   0  -6   0  458.15   20.50 
   0   6   0  434.96   19.20 
   0   6   0  442.06   16.00 
   0   6   0  444.26   18.90 
  -1  -6   0  213.98   13.00 
  -1  -6   0  210.58   11.60 
  -1  -6   0  194.58   11.00 
   1   6   0  203.48    9.90 
   1   6   0  187.08   11.70 
   1   6   0  207.48   12.00 
  -2  -6   0  715.93   25.30 
  -2  -6   0  705.13   27.20 
  -2  -6   0  706.23   24.30 
   2   6   0  716.33   25.80 
   2   6   0  707.13   26.20 
   2   6   0  719.23   23.20 
  -3  -6   0 1405.96   42.50 
   3   6   0 1421.06   39.30 
   3   6   0 1430.46   43.70 
   3   6   0 1411.36   39.80 
   3   6   0 1394.66   42.30 
  -4  -6   0  880.71   31.30 
  -4  -6   0  876.21   32.70 
   4   6   0  867.81   32.10 
   4   6   0  891.11   30.80 
   4   6   0  871.61   27.30 
   4   6   0  884.41   28.80 
  -5  -6   0  263.67   16.60 
  -5  -6   0  247.28   15.10 
   5   6   0  235.88   13.40 
   5   6   0  261.77   14.60 
   5   6   0  258.97   16.50 
   5   6   0  257.27   12.30 
  -6  -6   0  324.77   19.70 
  -6  -6   0  294.57   17.80 
   6   6   0  314.67   14.30 
   6   6   0  312.87   16.50 
   6   6   0  327.07   19.80 
   6   6   0  315.27   17.20 
  -7  -6   0    6.50    3.80 
  -7  -6   0    4.30    3.80 
   7   6   0    3.40    2.70 
   7   6   0    1.80    2.20 
  -8  -6   0   94.29   11.70 
  -8  -6   0   93.89   11.40 
   8   6   0   72.59   11.40 
   8   6   0   77.89    7.00 
   5  -7   0   82.09   14.10 
   5  -7   0  109.69   10.80 
  -5   7   0   93.89   10.80 
   4  -7   0   13.70    4.10 
   4  -7   0   11.80    4.70 
   4  -7   0   22.70    5.00 
  -4   7   0   15.40    4.30 
   3  -7   0  656.33   26.40 
   3  -7   0  675.63   30.50 
   3  -7   0  618.74   26.70 
  -3   7   0  626.54   34.30 
   2  -7   0   52.49    6.50 
   2  -7   0   49.60    6.50 
   2  -7   0   63.59    9.80 
  -2   7   0   58.99    7.70 
  -2   7   0   63.19    7.50 
   1  -7   0 2975.90   78.59 
   1  -7   0 3061.89   83.29 
   1  -7   0 2984.30   77.59 
  -1   7   0 2999.00   80.59 
  -1   7   0 2978.80   79.89 
  -1   7   0 2972.80   73.59 
   0  -7   0 1286.37   39.30 
   0  -7   0 1237.48   39.40 
   0  -7   0 1296.27   43.30 
   0   7   0 1266.27   41.30 
   0   7   0 1287.07   40.60 
  -1  -7   0  316.47   15.90 
  -1  -7   0  351.06   18.80 
  -1  -7   0  323.57   16.00 
   1   7   0  332.47   16.90 
   1   7   0  330.47   14.00 
   1   7   0  324.07   17.00 
  -2  -7   0  721.53   25.90 
  -2  -7   0  677.73   26.00 
  -2  -7   0  727.93   29.20 
   2   7   0  698.43   27.30 
   2   7   0  721.93   24.00 
   2   7   0  690.83   27.00 
  -3  -7   0  576.44   22.50 
  -3  -7   0  575.14   26.00 
  -3  -7   0  558.74   23.60 
   3   7   0  553.34   23.80 
   3   7   0  595.54   25.00 
   3   7   0  567.84   21.10 
   3   7   0  573.74   21.20 
  -4  -7   0    6.40    3.10 
  -4  -7   0    7.80    3.10 
   4   7   0   10.10    4.60 
   4   7   0    6.20    2.60 
   4   7   0   14.90    3.70 
   4   7   0    5.60    3.10 
  -5  -7   0 1124.99   41.40 
  -5  -7   0 1120.29   39.30 
   5   7   0 1091.99   33.30 
   5   7   0 1028.90   39.20 
   5   7   0  952.90   46.20 
   5   7   0 1073.59   37.30 
  -6  -7   0  197.68   14.80 
  -6  -7   0  209.38   16.00 
   6   7   0  177.28   10.80 
   6   7   0  197.88   13.70 
   6   7   0  175.38   12.40 
  -7  -7   0   34.50    8.20 
  -7  -7   0   40.10    8.20 
   7   7   0   38.10    4.90 
   7   7   0   37.90    7.00 
  -8  -7   0  117.29   13.70 
  -8  -7   0  120.19   13.50 
   8   7   0  117.29    8.90 
   8   7   0  107.39   12.70 
   4  -8   0    5.50    3.90 
   4  -8   0    6.70    4.70 
   4  -8   0   -1.80    3.90 
  -4   8   0   22.00    6.00 
   3  -8   0  114.99   16.40 
   3  -8   0  111.19   10.50 
   3  -8   0  136.59   12.00 
  -3   8   0  122.79   12.40 
   2  -8   0  122.39   10.80 
   2  -8   0   99.59   11.10 
   2  -8   0   91.19    8.90 
  -2   8   0  119.49   11.30 
   1  -8   0  473.75   21.30 
   1  -8   0  496.85   22.80 
   1  -8   0  466.25   24.80 
  -1   8   0  518.75   24.50 
  -1   8   0  412.46   24.00 
   0  -8   0 1811.42   52.59 
   0  -8   0 1757.72   53.39 
   0  -8   0 1789.32   57.69 
   0   8   0 1831.42   54.69 
   0   8   0 1761.82   55.39 
  -1  -8   0  245.08   14.40 
  -1  -8   0  246.68   16.80 
  -1  -8   0  235.48   14.20 
   1   8   0  246.48   15.30 
   1   8   0  235.88   15.20 
   1   8   0  225.98   12.00 
  -2  -8   0   94.49   10.10 
  -2  -8   0   99.89    8.80 
  -2  -8   0   81.89   10.30 
   2   8   0   90.09    7.20 
   2   8   0   85.59    9.20 
   2   8   0   77.19    8.60 
  -3  -8   0   51.79    9.10 
  -3  -8   0   32.30   10.00 
  -3  -8   0   43.50    6.80 
   3   8   0   32.30    5.30 
   3   8   0   30.50    5.70 
   3   8   0   31.50    5.90 
  -4  -8   0  707.63   31.30 
  -4  -8   0  692.43   29.20 
   4   8   0  690.33   28.80 
   4   8   0  708.93   30.40 
   4   8   0  671.93   25.40 
   4   8   0  702.93   25.60 
  -5  -8   0  125.19   11.60 
  -5  -8   0  146.49   13.70 
   5   8   0  135.19   10.40 
   5   8   0  135.19   11.70 
   5   8   0  140.59   10.00 
  -6  -8   0  255.17   17.60 
  -6  -8   0  276.87   21.70 
   6   8   0  244.68   13.70 
   6   8   0  277.67   17.40 
  -7  -8   0   75.29   10.50 
  -7  -8   0   64.29   10.90 
   7   8   0   67.99    7.10 
   7   8   0   75.69    9.60 
  -8  -8   0   10.10    5.50 
   8   8   0   21.20    4.20 
   8   8   0   21.30    6.10 
   3  -9   0  129.69   12.60 
   3  -9   0  117.39   13.70 
   3  -9   0  123.29   12.30 
  -3   9   0  136.89   14.00 
   2  -9   0   24.90    6.30 
   2  -9   0   21.90    5.80 
   2  -9   0   40.10    7.10 
  -2   9   0   22.50    6.60 
   1  -9   0  227.98   15.90 
   1  -9   0  243.08   28.40 
   1  -9   0  258.77   15.40 
  -1   9   0  217.48   16.40 
   0  -9   0  393.86   20.10 
   0  -9   0  414.36   21.50 
   0  -9   0  434.16   24.70 
   0   9   0  417.86   22.80 
  -1  -9   0  890.31   33.60 
  -1  -9   0  930.01   38.60 
  -1  -9   0  882.91   34.10 
   1   9   0  933.21   36.40 
  -2  -9   0  433.76   22.20 
  -2  -9   0  478.15   25.80 
  -2  -9   0  474.95   22.70 
   2   9   0  494.05   24.30 
  -3  -9   0  236.18   17.80 
  -3  -9   0  221.78   15.20 
  -3  -9   0  214.18   14.40 
   3   9   0  229.28   16.00 
  -4  -9   0   -1.20    2.00 
  -4  -9   0   -0.60    2.50 
   4   9   0   -0.60    1.90 
   4   9   0   -1.20    1.70 
  -5  -9   0   11.40    4.70 
  -5  -9   0   -1.50    3.30 
   5   9   0    7.90    4.60 
   5   9   0    6.30    3.20 
  -6  -9   0   49.90    9.00 
  -6  -9   0   36.50    7.90 
   6   9   0   59.89    6.80 
   6   9   0   60.59    8.60 
  -7  -9   0  143.69   15.90 
  -7  -9   0  126.69   14.80 
   7   9   0  128.49   10.00 
   7   9   0  123.29   13.20 
   1 -10   0   22.80    7.30 
   1 -10   0   38.20    8.20 
   1 -10   0   42.40    9.30 
  -1  10   0   26.40    6.60 
   0 -10   0  219.38   18.10 
   0 -10   0  205.58   15.60 
   0 -10   0  222.38   15.40 
   0  10   0  205.88   17.20 
  -1 -10   0  206.08   15.00 
  -1 -10   0  225.08   18.90 
  -1 -10   0  212.58   15.40 
   1  10   0  215.98   16.90 
  -2 -10   0   81.39   10.90 
  -2 -10   0   76.49    9.40 
  -2 -10   0   80.49    9.10 
   2  10   0   82.99   10.30 
  -3 -10   0    1.50    3.30 
  -3 -10   0    6.00    3.20 
   3  10   0    5.50    3.20 
  -4 -10   0   10.70    5.80 
  -4 -10   0    9.40    4.10 
   4  10   0    0.50    2.40 
   4  10   0    4.20    2.90 
  -5 -10   0   43.60    8.00 
  -5 -10   0   42.70    9.10 
   5  10   0   60.69    7.40 
   5  10   0   46.70    8.40 
  -6 -10   0   43.90    8.80 
  -6 -10   0   52.99   13.60 
   6  10   0   60.99    7.40 
   6  10   0   79.59   10.40 
  -1 -11   0   27.90    6.90 
  -1 -11   0   32.00    7.80 
   1  11   0   30.20   11.80 
  -2 -11   0  289.07   22.00 
  -2 -11   0  228.18   18.30 
  -2 -11   0  276.07   18.70 
   2  11   0  264.17   19.90 
  -3 -11   0  104.09   13.60 
  -3 -11   0  119.39   13.80 
  -3 -11   0  109.79   11.10 
   3  11   0  159.88   14.70 
  -4 -11   0   10.00    6.50 
   4  11   0   27.20    5.80 
   4  11   0   17.20    5.20 
  -3 -11   1  132.29   13.10 
  -3 -11   1  125.49   14.40 
   6  10  -1    8.00    4.00 
  -6 -10   1    2.20    4.50 
   5  10  -1   23.50    5.50 
  -5 -10   1   12.80    5.30 
  -5 -10   1   16.50    5.10 
   4  10  -1  119.99   10.70 
   4  10  -1  100.79   11.50 
  -4 -10   1   99.29   12.70 
  -4 -10   1  114.99   11.90 
   3  10  -1   92.99   10.70 
  -3 -10   1   82.49    9.90 
  -3 -10   1   98.19   10.80 
  -3 -10   1   96.69   12.40 
   2  10  -1  496.05   26.00 
  -2 -10   1  492.15   24.60 
  -2 -10   1  476.45   25.10 
  -2 -10   1  509.55   28.30 
   1  10  -1  293.27   19.70 
  -1 -10   1  282.77   20.90 
  -1 -10   1  272.27   18.30 
  -1 -10   1  278.17   17.40 
   0  10  -1   47.50    9.50 
   0 -10   1   46.60    8.60 
   0 -10   1   40.50    9.20 
  -1  10  -1   26.70    6.30 
   1 -10   1   21.20    5.60 
   1 -10   1   19.60    6.40 
   7   9  -1    5.10    3.30 
  -7  -9   1    7.50    4.30 
   6   9  -1   68.39    9.50 
   6   9  -1  110.79    9.70 
  -6  -9   1   87.59   11.10 
  -6  -9   1  117.19   13.20 
   5   9  -1   16.50    4.50 
   5   9  -1   19.60    5.40 
  -5  -9   1   16.20    4.90 
  -5  -9   1   14.60    5.10 
   4   9  -1   35.60    6.50 
   4   9  -1   46.10    7.60 
  -4  -9   1   36.90    8.40 
  -4  -9   1   51.09    9.80 
   3   9  -1   23.00    5.90 
  -3  -9   1   20.90    4.90 
  -3  -9   1   22.00    5.00 
  -3  -9   1   16.70    5.50 
   2   9  -1  130.39   11.50 
  -2  -9   1  118.69   11.00 
  -2  -9   1  127.79   12.80 
  -2  -9   1  132.89   11.20 
   1   9  -1  134.79   12.20 
  -1  -9   1  132.19   11.90 
  -1  -9   1  123.69   12.90 
  -1  -9   1  115.39   11.70 
   0   9  -1  264.57   17.70 
   0  -9   1  270.07   16.10 
   0  -9   1  263.57   17.60 
   0  -9   1  266.07   19.00 
  -1   9  -1   40.80    7.30 
   1  -9   1   32.60    7.40 
   1  -9   1   42.90    7.20 
   1  -9   1   30.80    7.30 
  -2   9  -1  239.38   18.00 
   2  -9   1  276.47   20.10 
   2  -9   1  222.08   15.40 
   2  -9   1  265.27   17.90 
   7   8  -1  329.17   16.80 
   7   8  -1  325.47   19.30 
  -7  -8   1  328.07   22.70 
  -7  -8   1  325.37   21.90 
   6   8  -1  152.08   12.70 
   6   8  -1  168.58   11.50 
  -6  -8   1  145.69   14.00 
  -6  -8   1  138.89   13.10 
   5   8  -1   14.80    4.20 
  -5  -8   1    8.40    4.20 
  -5  -8   1    8.80    4.30 
   4   8  -1  163.48   12.50 
   4   8  -1  158.48   11.20 
   4   8  -1  129.79   11.40 
  -4  -8   1  145.89   13.20 
  -4  -8   1  147.69   12.30 
   3   8  -1  375.26   19.70 
   3   8  -1  377.86   18.00 
  -3  -8   1  392.46   22.10 
  -3  -8   1  391.16   19.70 
  -3  -8   1  403.86   19.90 
   2   8  -1  319.47   18.00 
   2   8  -1  347.27   16.40 
  -2  -8   1  370.46   20.80 
  -2  -8   1  324.97   17.80 
  -2  -8   1  339.17   17.80 
   1   8  -1  258.77   15.70 
  -1  -8   1  239.68   14.90 
  -1  -8   1  240.48   14.30 
  -1  -8   1  211.68   15.80 
   0   8  -1  388.86   20.30 
   0  -8   1  382.36   21.70 
   0  -8   1  354.66   18.00 
   0  -8   1  364.46   19.60 
  -1   8  -1   18.90    5.60 
   1  -8   1   16.30    5.40 
   1  -8   1   24.20    5.10 
   1  -8   1   25.10    5.40 
  -2   8  -1    2.70    2.70 
   2  -8   1    3.60    3.20 
   2  -8   1   -1.00    1.70 
   2  -8   1    3.50    3.00 
  -3   8  -1    1.80    2.80 
   3  -8   1    1.90    4.20 
   3  -8   1   -6.60    2.50 
   3  -8   1    7.60    3.60 
  -4   8  -1  152.88   13.90 
   4  -8   1  165.58   13.80 
   4  -8   1  177.38   16.20 
   4  -8   1  142.69   16.70 
   8   7  -1   51.29    8.30 
   8   7  -1   61.29    6.90 
  -8  -7   1   71.19   12.30 
  -8  -7   1   70.99   11.30 
   7   7  -1  261.57   16.80 
   7   7  -1  312.17   15.80 
  -7  -7   1  286.27   19.30 
  -7  -7   1  291.87   20.40 
   6   7  -1   75.19    8.40 
  -6  -7   1   78.79    9.10 
  -6  -7   1   52.49   10.50 
   5   7  -1  634.64   23.80 
   5   7  -1  636.84   25.60 
   5   7  -1  612.54   25.50 
  -5  -7   1  568.34   26.30 
  -5  -7   1  598.84   28.40 
   4   7  -1  263.87   15.50 
   4   7  -1  283.87   15.20 
   4   7  -1  264.47   14.00 
   4   7  -1  275.87   16.50 
  -4  -7   1  271.17   15.80 
  -4  -7   1  283.77   17.30 
   3   7  -1  748.83   28.40 
   3   7  -1  766.32   29.30 
   3   7  -1  750.42   27.10 
  -3  -7   1  769.42   28.50 
  -3  -7   1  762.02   28.60 
  -3  -7   1  757.42   30.90 
   2   7  -1  103.49   10.40 
   2   7  -1  121.59    8.60 
   2   7  -1  112.39    9.50 
  -2  -7   1  124.79   10.80 
  -2  -7   1  115.89    9.30 
  -2  -7   1  109.19    8.90 
   1   7  -1  116.79    9.70 
   1   7  -1  116.79    8.20 
   1   7  -1  122.89   13.10 
  -1  -7   1  118.39    9.70 
  -1  -7   1  121.59   10.60 
  -1  -7   1  128.69    9.40 
   0   7  -1  390.56   16.40 
   0   7  -1  411.06   19.10 
   0   7  -1  400.46   19.50 
   0  -7   1  386.26   20.40 
   0  -7   1  410.96   19.50 
   0  -7   1  392.76   18.00 
  -1   7  -1  926.41   33.20 
  -1   7  -1  938.41   34.10 
   1  -7   1  975.90   34.10 
   1  -7   1  927.01   31.70 
   1  -7   1  951.90   35.90 
  -2   7  -1  345.47   18.90 
   2  -7   1  355.56   17.40 
   2  -7   1  360.66   19.00 
   2  -7   1  405.76   21.80 
  -3   7  -1  220.88   15.30 
   3  -7   1  242.48   16.90 
   3  -7   1  205.68   14.50 
   3  -7   1  220.88   13.90 
  -4   7  -1   77.09    9.90 
   4  -7   1   82.19    9.40 
   4  -7   1   70.79    8.50 
   4  -7   1   71.09    9.70 
  -5   7  -1  142.19   13.30 
   5  -7   1  137.39   12.30 
   5  -7   1  113.39   13.40 
   5  -7   1  141.19   14.60 
   8   6  -1   71.79    7.10 
   8   6  -1   90.19    9.60 
  -8  -6   1   45.70    9.40 
  -8  -6   1   72.79   10.20 
   7   6  -1   44.80    5.60 
   7   6  -1   58.29    7.60 
  -7  -6   1   52.29    9.40 
  -7  -6   1   50.79    8.50 
   6   6  -1  649.54   26.10 
   6   6  -1  588.04   26.20 
   6   6  -1  655.73   23.80 
  -6  -6   1  655.93   28.20 
  -6  -6   1  662.13   29.70 
   5   6  -1 2006.40   57.19 
   5   6  -1 2027.80   60.59 
   5   6  -1 2058.89   54.79 
   5   6  -1 2028.80   58.19 
  -5  -6   1 1946.31   58.89 
  -5  -6   1 2117.89   61.99 
   4   6  -1   33.10    5.60 
   4   6  -1   47.10    5.60 
   4   6  -1   53.99    6.30 
   4   6  -1   59.59    5.80 
  -4  -6   1   51.99    7.00 
  -4  -6   1   47.60    6.00 
   3   6  -1 1622.54   46.80 
   3   6  -1 1643.64   45.10 
   3   6  -1 1596.34   45.60 
   3   6  -1 1608.34   47.80 
  -3  -6   1 1553.84   46.60 
  -3  -6   1 1651.93   46.90 
   2   6  -1   39.10    6.30 
   2   6  -1   33.60    4.30 
   2   6  -1   39.70    5.20 
  -2  -6   1   30.70    5.20 
  -2  -6   1   35.80    6.50 
  -2  -6   1   31.60    5.10 
   1   6  -1   -0.60    0.90 
   1   6  -1   -0.80    0.80 
  -1  -6   1    3.00    1.70 
  -1  -6   1    1.30    1.80 
  -1  -6   1   -0.30    1.00 
   0   6  -1  159.98   10.40 
   0   6  -1  141.29   10.20 
   0   6  -1  165.78    9.10 
   0  -6   1  154.58   10.30 
   0  -6   1  154.38    9.70 
   0  -6   1  171.28   11.70 
  -1   6  -1  515.85   21.80 
  -1   6  -1  524.45   18.80 
  -1   6  -1  537.65   21.60 
   1  -6   1  543.65   21.90 
   1  -6   1  550.44   23.50 
   1  -6   1  520.05   20.20 
  -2   6  -1    8.00    2.30 
  -2   6  -1    3.10    2.10 
  -2   6  -1   -0.10    2.60 
   2  -6   1   -0.10    2.10 
   2  -6   1    4.80    2.40 
   2  -6   1    4.60    2.80 
  -3   6  -1  476.95   21.80 
  -3   6  -1  494.05   22.30 
   3  -6   1  457.95   21.30 
   3  -6   1  497.65   20.90 
   3  -6   1  435.56   22.70 
  -4   6  -1  383.56   20.30 
   4  -6   1  384.76   20.00 
   4  -6   1  385.36   19.30 
   4  -6   1  382.26   22.00 
  -5   6  -1  369.26   21.20 
   5  -6   1  379.76   20.80 
   5  -6   1  381.96   20.90 
   5  -6   1  387.76   23.00 
   9   5  -1    1.50    2.30 
   9   5  -1   -4.50    3.80 
  -9  -5   1    7.50    5.00 
   8   5  -1   11.80    3.30 
   8   5  -1    4.30    3.10 
  -8  -5   1   18.80    6.20 
   7   5  -1   74.69    6.80 
   7   5  -1   59.29    7.40 
  -7  -5   1   59.39    9.30 
  -7  -5   1   67.99    9.10 
   6   5  -1  345.27   18.30 
   6   5  -1  376.76   16.00 
   6   5  -1  359.06   17.90 
   6   5  -1  370.76   20.40 
  -6  -5   1  371.66   20.40 
  -6  -5   1  365.06   19.40 
   5   5  -1  346.47   16.70 
   5   5  -1  376.66   19.20 
   5   5  -1  375.96   17.40 
   5   5  -1  353.96   15.30 
  -5  -5   1  365.16   18.00 
  -5  -5   1  352.16   18.80 
   4   5  -1 1696.43   45.90 
   4   5  -1 1739.53   48.10 
   4   5  -1 1713.73   50.09 
   4   5  -1 1632.34   47.30 
  -4  -5   1 1736.13   49.10 
  -4  -5   1 1718.03   50.69 
   3   5  -1  896.31   27.50 
   3   5  -1  908.81   28.50 
   3   5  -1  927.21   28.90 
   3   5  -1  876.31   29.70 
  -3  -5   1  861.11   30.20 
  -3  -5   1  869.61   28.90 
   2   5  -1   21.10    4.20 
   2   5  -1   21.70    4.30 
   2   5  -1   15.30    3.30 
  -2  -5   1   18.10    3.30 
  -2  -5   1   21.30    4.10 
  -2  -5   1   13.80    3.40 
   1   5  -1 1866.51   50.19 
   1   5  -1 1878.81   48.70 
   1   5  -1 1920.51   50.59 
  -1  -5   1 1924.71   50.49 
  -1  -5   1 1868.61   51.69 
  -1  -5   1 1795.02   49.30 
   0   5  -1  137.29    7.70 
   0   5  -1  128.09    8.70 
   0   5  -1  132.29    8.50 
   0  -5   1  138.19    9.40 
   0  -5   1  119.39    7.80 
   0  -5   1  128.29    8.60 
  -1   5  -1  854.61   25.30 
  -1   5  -1  814.72   27.70 
  -1   5  -1  862.11   27.90 
   1  -5   1  829.52   26.40 
   1  -5   1  841.12   27.70 
   1  -5   1  852.61   29.20 
  -2   5  -1 2679.93   70.29 
  -2   5  -1 2433.56   75.59 
  -2   5  -1 2757.32   70.69 
   2  -5   1 2749.82   68.49 
   2  -5   1 2792.62   70.49 
   2  -5   1 2781.72   72.39 
  -3   5  -1  834.72   29.70 
  -3   5  -1  794.32   25.60 
  -3   5  -1  833.12   29.50 
   3  -5   1  834.82   31.00 
   3  -5   1  836.82   28.10 
  -4   5  -1   51.49    6.80 
  -4   5  -1   63.09    7.80 
   4  -5   1   59.69    6.50 
   4  -5   1   55.89    7.70 
   4  -5   1   53.09    6.70 
  -5   5  -1  224.58   21.20 
   5  -5   1  195.38   13.90 
   5  -5   1  224.28   16.00 
  -6   5  -1   69.49    9.00 
   6  -5   1  104.09   11.00 
   6  -5   1   64.49   10.20 
   6  -5   1   63.69   11.60 
   9   4  -1   36.30    5.70 
   9   4  -1   34.40   10.20 
  -9  -4   1   29.60    9.90 
  -9  -4   1   27.40    7.60 
   8   4  -1   91.99    9.50 
   8   4  -1   95.99    7.80 
  -8  -4   1   71.29    9.50 
  -8  -4   1   80.19    9.50 
   7   4  -1    2.60    2.00 
   7   4  -1   -0.20    1.80 
  -7  -4   1    0.80    2.60 
  -7  -4   1   -1.00    2.60 
   6   4  -1  523.75   24.60 
   6   4  -1  562.14   20.10 
   6   4  -1  544.35   22.30 
  -6  -4   1  571.24   25.10 
  -6  -4   1  553.54   24.10 
  -6  -4   1  544.35   21.90 
   5   4  -1  121.79    8.80 
   5   4  -1  124.29    7.90 
  -5  -4   1  124.99   10.10 
  -5  -4   1  117.69    8.30 
  -5  -4   1  111.89    9.10 
   4   4  -1 3775.72   94.89 
   4   4  -1 3827.42   92.99 
   4   4  -1 3747.62   91.79 
   4   4  -1 3820.12   90.19 
  -4  -4   1 3685.13   93.09 
  -4  -4   1 3944.51   95.59 
   3   4  -1 1633.84   42.30 
   3   4  -1 1610.44   43.50 
   3   4  -1 1585.04   43.00 
   3   4  -1 1599.34   44.80 
  -3  -4   1 1661.13   45.50 
  -3  -4   1 1541.85   43.50 
   2   4  -1  716.23   22.80 
   2   4  -1  742.93   23.70 
   2   4  -1  683.93   22.50 
  -2  -4   1  736.83   23.30 
  -2  -4   1  755.42   24.60 
  -2  -4   1  707.43   22.90 
   1   4  -1   14.30    2.80 
   1   4  -1   17.10    3.30 
   1   4  -1   17.70    3.20 
  -1  -4   1   13.20    2.40 
  -1  -4   1   15.80    3.00 
  -1  -4   1   12.30    2.60 
   0   4  -1  254.57   11.30 
   0   4  -1  238.98   10.80 
   0   4  -1  242.38   10.30 
   0  -4   1  224.88   13.50 
   0  -4   1  249.38   10.70 
   0  -4   1  248.48   11.70 
  -1   4  -1  283.27   12.40 
  -1   4  -1  265.47   12.10 
  -1   4  -1  265.07   10.70 
   1  -4   1  270.47   13.40 
   1  -4   1  267.57   11.40 
   1  -4   1  261.27   12.10 
  -2   4  -1 1005.70   30.60 
  -2   4  -1  980.50   30.70 
  -2   4  -1  985.00   27.90 
   2  -4   1  989.60   30.10 
   2  -4   1 1007.90   31.80 
   2  -4   1 1020.60   29.60 
  -3   4  -1  153.48   10.30 
  -3   4  -1  155.48   10.00 
   3  -4   1  148.49    9.40 
   3  -4   1  145.29   10.40 
  -4   4  -1  627.24   24.80 
  -4   4  -1  647.84   24.70 
   4  -4   1  628.14   26.10 
   4  -4   1  672.83   24.90 
  -5   4  -1   17.90    4.50 
  -5   4  -1   25.80    5.60 
   5  -4   1   15.00    4.10 
   5  -4   1   17.50    4.00 
   5  -4   1   15.30    4.00 
  -6   4  -1  451.75   22.60 
   6  -4   1  484.95   24.70 
   6  -4   1  450.95   21.50 
   6  -4   1  462.65   24.40 
  -7   4  -1   50.29    8.60 
   7  -4   1   63.19    8.10 
   7  -4   1   55.79   10.00 
   9   3  -1   20.60    7.20 
   9   3  -1    8.80    5.10 
  -9  -3   1   10.60   11.40 
  -9  -3   1   10.90    5.10 
   8   3  -1    3.00    3.50 
   8   3  -1    3.20    2.30 
  -8  -3   1   17.80    5.50 
  -8  -3   1    6.90    4.50 
   7   3  -1   84.09    8.50 
   7   3  -1   83.69    6.80 
  -7  -3   1   79.09    9.10 
  -7  -3   1  105.69   10.00 
   6   3  -1  629.44   30.10 
   6   3  -1  691.13   22.60 
   6   3  -1  633.44   24.70 
  -6  -3   1  700.73   27.10 
  -6  -3   1  660.23   24.60 
  -6  -3   1  716.23   27.80 
   5   3  -1  534.35   19.90 
   5   3  -1  515.15   17.80 
   5   3  -1  518.25   22.00 
  -5  -3   1  503.65   19.30 
  -5  -3   1  504.05   21.60 
  -5  -3   1  481.65   20.40 
   4   3  -1  546.95   17.90 
   4   3  -1  544.05   18.90 
   4   3  -1  507.95   20.30 
  -4  -3   1  516.45   19.60 
  -4  -3   1  541.85   20.90 
  -4  -3   1  524.55   18.60 
   3   3  -1   99.39    6.00 
   3   3  -1   99.79    6.40 
   3   3  -1  106.29    6.90 
   3   3  -1   99.29    7.20 
  -3  -3   1   99.69    7.20 
  -3  -3   1  115.59    7.10 
   2   3  -1 1590.14   40.70 
   2   3  -1 1644.04   40.60 
   2   3  -1 1618.04   41.90 
   2   3  -1 1601.84   41.30 
  -2  -3   1 1565.74   41.00 
   1   3  -1 3283.77   78.39 
   1   3  -1 3374.96   78.19 
   1   3  -1 3347.87   77.99 
  -1  -3   1 3257.47   78.59 
  -1  -3   1 3487.35   79.39 
   0   3  -1  617.64   18.70 
   0   3  -1  625.64   18.60 
   0   3  -1  620.84   18.80 
   0  -3   1  600.04   18.30 
   0  -3   1  639.44   19.20 
   0  -3   1  611.74   19.30 
  -1   3  -1 5282.97  117.29 
  -1   3  -1 5011.60  118.19 
  -1   3  -1 5078.69  118.39 
   1  -3   1 5287.27  118.59 
   1  -3   1 5231.48  117.59 
   1  -3   1 5251.97  119.49 
  -2   3  -1 5706.03  128.69 
  -2   3  -1 5813.62  130.99 
  -2   3  -1 5547.75  131.49 
   2  -3   1 5776.12  130.39 
   2  -3   1 5772.52  130.69 
   2  -3   1 5703.23  132.49 
  -3   3  -1   20.90    3.90 
  -3   3  -1   26.90    3.00 
  -3   3  -1   22.90    3.90 
   3  -3   1   21.60    3.50 
   3  -3   1   22.70    4.10 
   3  -3   1   18.40    3.30 
  -4   3  -1  789.52   26.60 
  -4   3  -1  773.92   27.30 
  -4   3  -1  795.82   24.40 
   4  -3   1  775.42   28.40 
   4  -3   1  767.62   25.70 
   4  -3   1  815.12   27.40 
  -5   3  -1  470.55   20.10 
  -5   3  -1  422.56   20.00 
   5  -3   1  436.56   21.20 
   5  -3   1  439.66   19.90 
   5  -3   1  461.65   21.10 
  -6   3  -1    8.40    3.80 
  -6   3  -1    7.00    2.60 
   6  -3   1    6.70    3.40 
   6  -3   1    5.80    3.20 
   6  -3   1    3.10    3.30 
  -7   3  -1   22.40    4.90 
   7  -3   1   43.10    6.70 
   7  -3   1   30.60    6.80 
   7  -3   1   37.80    9.00 
   9   2  -1  480.15   20.90 
   9   2  -1  468.65   25.90 
  -9  -2   1  501.55   25.60 
  -9  -2   1  505.55   28.10 
   8   2  -1  416.66   18.10 
   8   2  -1  453.15   22.80 
  -8  -2   1  432.16   30.70 
  -8  -2   1  461.05   24.00 
   7   2  -1  375.26   22.00 
   7   2  -1  430.36   17.10 
   7   2  -1  433.06   20.30 
  -7  -2   1  440.66   21.20 
  -7  -2   1  413.36   21.10 
   6   2  -1  131.59    8.00 
   6   2  -1  127.49    9.60 
   6   2  -1  118.39   10.90 
  -6  -2   1  133.79   10.10 
  -6  -2   1  137.09    9.50 
  -6  -2   1  136.39   10.50 
   5   2  -1  276.47   13.40 
   5   2  -1  273.97   15.00 
   5   2  -1  292.57   11.90 
  -5  -2   1  279.57   14.60 
  -5  -2   1  276.87   13.10 
  -5  -2   1  298.27   14.40 
   4   2  -1  723.03   21.40 
   4   2  -1  708.63   24.90 
   4   2  -1  727.33   22.80 
  -4  -2   1  673.63   28.80 
  -4  -2   1  725.43   22.60 
  -4  -2   1  730.03   23.60 
   3   2  -1  435.76   14.10 
   3   2  -1  403.96   14.30 
   3   2  -1  430.96   15.90 
  -3  -2   1  434.26   16.00 
  -3  -2   1  411.96   14.80 
  -3  -2   1  416.36   14.40 
   2   2  -1 4030.80   93.99 
   2   2  -1 4073.69   93.79 
  -2  -2   1 4124.79   94.09 
   1   2  -1  115.79    5.30 
   1   2  -1  110.69    5.70 
  -1  -2   1  114.19    5.70 
   0   2  -1  868.91   22.60 
   0   2  -1  876.01   22.40 
   0   2  -1  830.82   24.40 
   0  -2   1  856.81   22.70 
   0  -2   1  868.81   23.10 
  -2   2  -1 2442.06   58.39 
  -2   2  -1 2334.47   56.99 
  -2   2  -1 2474.55   59.49 
   2  -2   1 2442.26   59.79 
   2  -2   1 2494.55   58.29 
   2  -2   1 2434.86   58.39 
  -3   2  -1   17.30    3.20 
  -3   2  -1   16.00    2.80 
  -3   2  -1   12.80    2.20 
   3  -2   1   15.10    2.80 
   3  -2   1   16.20    3.40 
   3  -2   1   12.50    2.50 
  -4   2  -1  474.35   16.70 
  -4   2  -1  498.05   18.50 
  -4   2  -1  484.75   19.10 
   4  -2   1  495.25   17.60 
   4  -2   1  497.45   19.50 
   4  -2   1  491.15   19.90 
  -5   2  -1   79.19    7.80 
  -5   2  -1   88.39    6.60 
  -5   2  -1   89.69    7.80 
   5  -2   1   82.09    8.10 
   5  -2   1   89.79    8.50 
   5  -2   1   91.79    7.20 
  -6   2  -1  553.14   23.20 
  -6   2  -1  560.74   24.50 
   6  -2   1  535.25   25.30 
   6  -2   1  545.25   21.60 
   6  -2   1  562.74   25.20 
  -7   2  -1  436.86   21.30 
   7  -2   1  394.96   18.70 
   7  -2   1  382.76   22.80 
   7  -2   1  414.06   22.60 
  -8   2  -1   60.39    8.50 
   8  -2   1   47.20    8.40 
   8  -2   1   34.00    7.00 
   9   1  -1   90.39    8.60 
   9   1  -1   87.99   11.40 
  -9  -1   1   97.29   11.00 
  -9  -1   1   86.79   13.60 
   8   1  -1   38.70    7.90 
   8   1  -1   24.40    4.80 
  -8  -1   1   38.80    7.90 
  -8  -1   1   26.70   10.50 
   7   1  -1  464.45   22.10 
   7   1  -1  471.45   24.70 
   7   1  -1  463.15   18.40 
  -7  -1   1  499.05   22.40 
  -7  -1   1  498.45   23.30 
   6   1  -1   13.90    3.10 
   6   1  -1    9.50    3.20 
   6   1  -1   17.00    4.80 
  -6  -1   1   16.60    3.80 
  -6  -1   1   25.50    5.30 
  -6  -1   1    6.50    2.90 
   5   1  -1 2020.20   53.89 
   5   1  -1 2030.80   50.59 
   5   1  -1 2033.80   56.89 
  -5  -1   1 1969.80   52.69 
  -5  -1   1 1937.61   54.39 
  -5  -1   1 2101.49   55.09 
   4   1  -1 1684.43   47.00 
   4   1  -1 1716.93   44.90 
   4   1  -1 1718.13   42.80 
  -4  -1   1 1694.93   44.20 
  -4  -1   1 1715.33   45.90 
  -4  -1   1 1713.63   45.40 
   3   1  -1  664.13   19.70 
   3   1  -1  669.13   21.40 
   3   1  -1  678.43   18.90 
  -3  -1   1  667.93   20.90 
  -3  -1   1  661.23   19.60 
  -3  -1   1  627.74   19.80 
   2   1  -1   17.00    1.90 
   2   1  -1   15.50    2.20 
   2   1  -1   18.50    2.00 
  -2  -1   1   15.60    1.90 
  -2  -1   1   15.70    1.80 
   0   1  -1 1401.36   32.00 
   0   1  -1 1374.16   32.00 
   0   1  -1 1426.06   32.90 
   0  -1   1 1413.76   33.20 
   0  -1   1 1371.26   32.10 
  -1   1  -1  143.09    5.60 
  -1   1  -1  130.19    5.10 
   1  -1   1  131.59    5.60 
  -2   1  -1   29.90    2.90 
  -2   1  -1   28.10    2.70 
  -2   1  -1   27.80    2.30 
   2  -1   1   26.50    2.40 
   2  -1   1   26.60    2.90 
   2  -1   1   29.70    2.80 
  -3   1  -1 8673.93  194.28 
  -4   1  -1  175.08    8.40 
  -4   1  -1  192.28    9.80 
  -4   1  -1  170.38    9.80 
   4  -1   1  168.08   10.00 
   4  -1   1  166.78   10.20 
  -5   1  -1  919.51   38.20 
  -5   1  -1 1028.40   32.60 
  -5   1  -1 1108.49   34.60 
   5  -1   1 1115.89   35.10 
   5  -1   1 1099.09   31.00 
   5  -1   1 1070.69   35.60 
  -6   1  -1   66.79    7.30 
  -6   1  -1   58.19    7.20 
   6  -1   1   68.49    6.50 
   6  -1   1   46.90    7.50 
   6  -1   1   61.89    7.90 
  -7   1  -1  145.09   11.40 
  -7   1  -1  123.99   11.50 
   7  -1   1  144.39   10.00 
   7  -1   1  142.09   13.70 
   7  -1   1  134.59   12.20 
  -8   1  -1    2.80    4.20 
   8  -1   1    6.80    2.60 
   8  -1   1    5.40    3.40 
   8   0  -1  549.85   22.20 
   8   0  -1  583.84   27.40 
  -8   0   1  554.94   27.40 
   7   0  -1 1238.28   44.80 
   7   0  -1 1186.88   41.80 
   7   0  -1 1224.88   36.90 
  -7   0   1 1255.67   42.60 
  -7   0   1 1293.47   41.50 
   6   0  -1  187.18   10.30 
   6   0  -1  193.08   12.50 
   6   0  -1  207.78   14.10 
  -6   0   1  183.78   11.20 
  -6   0   1  206.88   12.70 
  -6   0   1  209.38   12.90 
   5   0  -1  349.17   17.20 
   5   0  -1  342.97   15.80 
  -5   0   1  332.07   14.50 
  -5   0   1  351.46   15.60 
  -5   0   1  348.47   16.00 
   4   0  -1  347.37   15.20 
   4   0  -1  325.07   13.90 
  -4   0   1  339.77   14.10 
  -4   0   1  324.17   13.00 
  -4   0   1  363.46   14.30 
   3   0  -1   80.69    5.70 
   3   0  -1   76.99    5.30 
   3   0  -1   82.29    4.60 
  -3   0   1   83.89    5.50 
  -3   0   1   75.69    5.30 
  -3   0   1   76.89    5.20 
   2   0  -1   14.50    2.30 
   2   0  -1   13.80    1.80 
   2   0  -1   13.20    1.60 
  -2   0   1   15.40    1.90 
  -2   0   1   14.80    1.90 
  -2   0   1   14.20    1.70 
   1   0  -1  101.69    3.90 
   1   0  -1  110.19    4.20 
  -1   0   1  108.09    4.10 
  -3   0  -1 1584.94   40.00 
  -3   0  -1 1548.55   40.30 
  -3   0  -1 1513.65   37.60 
   3   0   1 1527.75   41.10 
   3   0   1 1588.44   37.70 
   3   0   1 1548.15   40.20 
  -4   0  -1    0.10    1.20 
  -4   0  -1   -0.30    0.90 
  -4   0  -1    1.10    2.10 
   4   0   1    0.40    1.40 
   4   0   1    1.40    1.50 
   4   0   1    2.40    1.30 
  -5   0  -1 2278.17   58.09 
  -5   0  -1 2101.59   54.39 
  -5   0  -1 2146.49   58.49 
   5   0   1 2093.59   60.09 
   5   0   1 2206.18   53.99 
  -6   0  -1   34.50    6.00 
  -6   0  -1   29.00    5.70 
  -6   0  -1   24.40    4.60 
   6   0   1   25.20    5.40 
   6   0   1   33.90    4.20 
   6   0   1   27.40    5.70 
  -7   0  -1   79.29    9.30 
  -7   0  -1   88.29    9.00 
   7   0   1   83.89    9.10 
   7   0   1   85.19    7.10 
   7   0   1   93.39   10.80 
  -8   0  -1  144.79   12.30 
   8   0   1  145.89   13.20 
   8   0   1  155.98   10.70 
   8  -1  -1  356.06   21.70 
   8  -1  -1  347.77   17.30 
  -8   1   1  363.16   21.80 
  -8   1   1  402.66   21.70 
   7  -1  -1   56.59    8.90 
   7  -1  -1   61.49    6.10 
  -7   1   1   47.40    7.60 
  -7   1   1   50.49    7.20 
   6  -1  -1 1054.09   36.10 
   6  -1  -1 1008.20   37.10 
  -6   1   1 1034.40   35.60 
  -6   1   1 1052.19   34.30 
   5  -1  -1  393.06   15.10 
   5  -1  -1  415.06   18.20 
   5  -1  -1  394.26   18.50 
  -5   1   1  365.16   19.00 
  -5   1   1  399.16   17.60 
  -5   1   1  422.66   17.30 
   4  -1  -1  856.11   24.30 
   4  -1  -1  856.81   27.40 
   4  -1  -1  843.12   27.70 
  -4   1   1  829.42   25.30 
  -4   1   1  875.31   27.30 
  -4   1   1  865.71   26.40 
   3  -1  -1  791.02   24.00 
   3  -1  -1  804.32   24.00 
  -3   1   1  779.42   22.20 
  -3   1   1  783.12   23.60 
  -3   1   1  784.92   23.10 
   1  -1  -1 2151.28   48.80 
   1  -1  -1 2147.69   49.70 
  -1   1   1 2161.68   48.40 
  -1   1   1 2131.59   49.60 
  -1  -1  -1 1935.31   44.40 
  -1  -1  -1 1848.32   43.80 
   1   1   1 2007.70   44.60 
   1   1   1 1817.72   43.70 
  -2  -1  -1    4.40    1.50 
  -2  -1  -1    6.20    1.10 
  -2  -1  -1    3.30    1.10 
   2   1   1    5.60    1.00 
   2   1   1    4.10    1.30 
   2   1   1    6.00    1.40 
  -3  -1  -1 1763.42   44.90 
  -3  -1  -1 1710.73   41.50 
  -3  -1  -1 1673.53   44.10 
   3   1   1 1752.82   43.90 
   3   1   1 1770.92   41.00 
   3   1   1 1746.23   45.70 
  -4  -1  -1  697.83   23.00 
  -4  -1  -1  695.03   22.80 
  -4  -1  -1  655.43   19.80 
   4   1   1  653.43   23.80 
   4   1   1  639.44   21.60 
   4   1   1  701.03   22.40 
  -5  -1  -1 1769.22   50.69 
  -5  -1  -1 1871.11   50.79 
  -5  -1  -1 1843.82   47.40 
   5   1   1 1788.52   52.79 
   5   1   1 1809.32   45.70 
   5   1   1 1881.11   50.39 
  -6  -1  -1  739.23   25.20 
  -6  -1  -1  721.83   28.20 
  -6  -1  -1  776.52   28.00 
   6   1   1  770.52   28.00 
   6   1   1  746.53   30.30 
   6   1   1  754.62   23.60 
  -7  -1  -1  428.16   20.70 
  -7  -1  -1  436.76   22.10 
   7   1   1  406.96   23.20 
   7   1   1  446.86   21.50 
   7   1   1  441.76   17.20 
  -8  -1  -1   28.30    5.80 
  -8  -1  -1   18.90    7.20 
   8   1   1   22.60    4.40 
   8   1   1   14.60    5.60 
  -9  -1  -1  123.59   12.00 
   9   1   1   81.69    8.10 
   9   1   1  122.89   12.80 
   8  -2  -1   27.90    5.60 
   8  -2  -1   20.00    6.50 
  -8   2   1   34.40    7.70 
   7  -2  -1   22.50    4.60 
   7  -2  -1   12.60    4.10 
  -7   2   1   17.80    5.00 
  -7   2   1   22.30    5.00 
   6  -2  -1  369.56   23.40 
   6  -2  -1  360.06   16.10 
  -6   2   1  411.86   19.70 
  -6   2   1  391.66   18.60 
   5  -2  -1  148.49   10.70 
   5  -2  -1  167.18   11.40 
  -5   2   1  159.08   10.50 
  -5   2   1  160.08    9.50 
  -5   2   1  178.18   11.40 
   4  -2  -1    2.50    1.40 
   4  -2  -1   16.10    3.80 
   4  -2  -1    3.30    1.90 
  -4   2   1    0.70    1.30 
  -4   2   1    5.80    2.10 
  -4   2   1    2.60    1.50 
   3  -2  -1 3238.08   76.39 
   3  -2  -1 3105.99   72.59 
   3  -2  -1 3063.19   74.69 
  -3   2   1 3060.79   72.69 
  -3   2   1 3055.69   74.19 
  -3   2   1 3092.59   75.39 
   1  -2  -1  607.54   16.60 
   1  -2  -1  586.74   17.60 
  -1   2   1  592.44   17.40 
  -1   2   1  604.44   15.60 
  -1   2   1  578.24   16.80 
   0  -2  -1 1126.59   28.40 
   0  -2  -1 1148.29   26.00 
   0  -2  -1 1073.59   27.40 
   0   2   1 1108.49   25.50 
   0   2   1 1107.09   27.80 
   0   2   1 1074.29   28.00 
  -1  -2  -1  276.77    9.60 
  -1  -2  -1  285.47    8.00 
   1   2   1  282.97    9.70 
  -2  -2  -1  980.20   27.00 
  -2  -2  -1 1000.90   24.40 
  -2  -2  -1 1012.90   28.00 
   2   2   1  994.70   27.90 
   2   2   1 1012.10   26.90 
   2   2   1 1024.90   24.00 
   3   2   1 7563.44  171.98 
  -4  -2  -1 8491.45  188.48 
  -4  -2  -1 7926.21  186.88 
   4   2   1 8140.09  189.18 
   4   2   1 8391.66  186.38 
  -5  -2  -1  337.27   16.00 
  -5  -2  -1  342.07   13.70 
  -5  -2  -1  343.27   16.40 
   5   2   1  325.87   12.20 
   5   2   1  361.86   15.70 
   5   2   1  332.77   17.30 
  -6  -2  -1 1742.03   48.50 
  -6  -2  -1 1860.81   53.19 
  -6  -2  -1 1869.61   53.49 
   6   2   1 1769.62   46.10 
   6   2   1 1785.12   51.49 
   6   2   1 1765.42   55.39 
  -7  -2  -1  127.49   10.90 
  -7  -2  -1  128.49   11.40 
   7   2   1  118.79   10.40 
   7   2   1  123.39   12.20 
   7   2   1  122.89    8.00 
  -8  -2  -1    8.80    4.00 
  -8  -2  -1    5.80    2.90 
   8   2   1    8.70    3.20 
   8   2   1    9.30    3.90 
  -9  -2  -1   -1.60    3.70 
   9   2   1    0.10    3.70 
   9   2   1   -0.10    2.30 
   7  -3  -1  245.88   17.50 
   7  -3  -1  251.57   14.60 
  -7   3   1  274.67   16.80 
  -7   3   1  281.77   18.10 
   6  -3  -1   21.70    4.60 
   6  -3  -1   25.30    5.60 
   6  -3  -1   18.40    5.00 
  -6   3   1   22.60    5.70 
  -6   3   1   25.20    5.20 
   5  -3  -1  378.76   19.20 
   5  -3  -1  377.06   16.10 
   5  -3  -1  379.56   18.60 
  -5   3   1  354.06   17.50 
  -5   3   1  381.96   17.50 
   4  -3  -1 1875.21   51.89 
   4  -3  -1 1991.40   49.80 
   4  -3  -1 1920.01   53.89 
  -4   3   1 1901.31   51.49 
  -4   3   1 1756.92   58.89 
  -4   3   1 1935.31   52.79 
   3  -3  -1  947.61   28.90 
   3  -3  -1  983.40   31.00 
   3  -3  -1  992.20   27.50 
  -3   3   1  975.00   27.20 
  -3   3   1  950.90   30.00 
  -3   3   1  992.30   29.40 
   2  -3  -1 1129.19   30.20 
   2  -3  -1 1081.59   31.70 
   2  -3  -1 1091.69   29.10 
  -2   3   1 1041.80   30.30 
  -2   3   1 1085.59   31.30 
  -2   3   1 1094.09   28.30 
   1  -3  -1 1783.22   45.10 
   1  -3  -1 1945.31   44.20 
   1  -3  -1 1799.12   46.90 
  -1   3   1 1808.92   43.10 
  -1   3   1 1845.32   46.50 
  -1   3   1 1829.52   45.90 
   0  -3  -1 1734.23   39.60 
   0  -3  -1 1626.54   41.00 
   0  -3  -1 1657.03   42.50 
   0   3   1 1578.54   41.40 
   0   3   1 1650.13   42.00 
   0   3   1 1686.73   38.60 
  -1  -3  -1 1215.08   32.60 
  -1  -3  -1 1175.58   29.10 
  -1  -3  -1 1182.88   31.30 
   1   3   1 1184.48   28.60 
   1   3   1 1161.98   32.00 
   1   3   1 1192.78   31.60 
  -3  -3  -1  276.47   12.10 
  -3  -3  -1  260.17    9.60 
  -3  -3  -1  262.27   12.60 
   3   3   1  270.27   11.70 
   3   3   1  257.97   12.50 
   3   3   1  271.47    9.10 
  -4  -3  -1  351.36   15.60 
  -4  -3  -1  325.57   15.30 
  -4  -3  -1  374.16   16.90 
   4   3   1  390.46   12.50 
   4   3   1  415.66   15.90 
   4   3   1  397.96   17.30 
  -5  -3  -1  218.48   10.60 
  -5  -3  -1  243.18   13.90 
  -5  -3  -1  216.78   12.90 
   5   3   1  224.78   12.20 
   5   3   1  240.48    9.60 
   5   3   1  230.78   14.00 
  -6  -3  -1 1612.24   50.79 
  -6  -3  -1 1775.22   52.09 
  -6  -3  -1 1677.43   46.60 
   6   3   1 1612.74   49.70 
   6   3   1 1758.52   53.99 
   6   3   1 1739.83   43.80 
  -7  -3  -1  163.88   12.80 
  -7  -3  -1  157.98   10.80 
  -7  -3  -1  163.78   13.10 
   7   3   1  160.48    9.10 
   7   3   1  155.68   13.90 
   7   3   1  162.98   12.00 
  -8  -3  -1    6.90    3.40 
   8   3   1   -0.20    2.80 
   8   3   1    0.40    2.00 
  -9  -3  -1    6.10    5.50 
   9   3   1    1.80    2.50 
   9   3   1    6.40    4.40 
   7  -4  -1  325.67   17.90 
   7  -4  -1  301.37   20.80 
  -7   4   1  329.57   19.90 
   6  -4  -1   10.40    5.10 
   6  -4  -1   11.50    4.10 
   6  -4  -1    8.70    3.00 
  -6   4   1   13.00    4.60 
  -6   4   1    9.80    3.60 
   5  -4  -1   13.00    3.70 
   5  -4  -1   13.50    3.60 
   5  -4  -1   20.70    4.70 
  -5   4   1    9.30    3.10 
  -5   4   1   19.00    5.20 
   4  -4  -1   -0.60    1.50 
   4  -4  -1   -0.40    1.50 
   4  -4  -1   -2.80    1.30 
  -4   4   1    1.80    2.40 
  -4   4   1    0.20    1.40 
  -4   4   1   -1.00    1.60 
   3  -4  -1  314.27   13.30 
   3  -4  -1  322.57   14.30 
   3  -4  -1  331.07   16.10 
  -3   4   1  315.77   14.70 
  -3   4   1  322.07   15.30 
  -3   4   1  310.27   12.50 
   2  -4  -1 1174.08   32.70 
   2  -4  -1 1139.69   35.20 
   2  -4  -1 1161.68   31.70 
  -2   4   1 1174.98   33.90 
  -2   4   1 1133.89   30.40 
  -2   4   1 1124.89   34.10 
  -1   4   1 8656.13  190.78 
   0  -4  -1  669.23   22.50 
   0  -4  -1  666.73   20.90 
   0   4   1  680.83   22.00 
   0   4   1  681.83   18.50 
   0   4   1  671.33   21.70 
  -1  -4  -1  188.18    8.00 
  -1  -4  -1  171.58    9.60 
  -1  -4  -1  172.28    8.80 
   1   4   1  176.88    9.40 
   1   4   1  173.38    7.10 
   1   4   1  187.38    9.40 
  -2  -4  -1   67.99    5.50 
  -2  -4  -1   65.39    4.40 
  -2  -4  -1   68.29    6.10 
   2   4   1   68.29    5.60 
   2   4   1   69.19    5.90 
   2   4   1   69.39    4.40 
  -3  -4  -1    1.70    1.80 
  -3  -4  -1    4.60    2.00 
   3   4   1    4.90    1.90 
   3   4   1    4.30    1.60 
   3   4   1    4.10    1.40 
   3   4   1    2.30    1.70 
  -4  -4  -1 2002.40   50.79 
  -4  -4  -1 2036.90   55.39 
  -4  -4  -1 2005.90   56.69 
   4   4   1 2101.89   49.70 
   4   4   1 2057.79   54.39 
  -5  -4  -1  823.92   32.80 
  -5  -4  -1  816.82   29.40 
  -5  -4  -1  800.32   25.40 
   5   4   1  802.42   30.50 
   5   4   1  844.42   23.70 
   5   4   1  821.12   28.00 
  -6  -4  -1   11.80    4.30 
  -6  -4  -1   10.10    3.10 
  -6  -4  -1   13.00    4.20 
   6   4   1   11.50    2.50 
   6   4   1    9.90    3.30 
   6   4   1    4.10    3.20 
  -7  -4  -1  269.47   14.40 
  -7  -4  -1  263.67   17.20 
  -7  -4  -1  303.27   18.00 
   7   4   1  261.17   12.00 
   7   4   1  261.77   15.70 
   7   4   1  286.87   18.80 
  -8  -4  -1  212.88   16.20 
  -8  -4  -1  182.38   14.90 
   8   4   1  184.08   10.40 
   8   4   1  203.78   14.60 
  -9  -4  -1   31.40    7.00 
   9   4   1   24.70    6.30 
   9   4   1   26.90    4.60 
   6  -5  -1  127.49   10.50 
   6  -5  -1  127.99   13.00 
  -6   5   1  124.19   11.80 
   5  -5  -1  162.68   13.10 
   5  -5  -1  147.09   11.80 
   5  -5  -1  144.59   10.40 
  -5   5   1  126.79   10.80 
   4  -5  -1  313.97   16.40 
   4  -5  -1  340.67   15.90 
   4  -5  -1  322.67   18.50 
  -4   5   1  340.27   17.50 
  -4   5   1  342.97   17.80 
   3  -5  -1  364.96   16.60 
   3  -5  -1  402.66   20.00 
   3  -5  -1  395.56   16.50 
  -3   5   1  396.46   15.10 
  -3   5   1  383.76   18.20 
  -3   5   1  400.26   22.40 
   2  -5  -1  476.75   18.00 
   2  -5  -1  489.85   21.10 
   2  -5  -1  484.05   18.50 
  -2   5   1  502.15   20.10 
  -2   5   1  491.55   16.50 
  -2   5   1  501.45   20.10 
   1  -5  -1   18.20    3.90 
   1  -5  -1   35.10    4.00 
   1  -5  -1   32.90    3.80 
  -1   5   1   30.60    3.10 
  -1   5   1   30.20    4.00 
  -1   5   1   32.20    6.30 
   0  -5  -1 1440.26   40.90 
   0  -5  -1 1354.26   38.60 
   0  -5  -1 1361.16   41.00 
   0   5   1 1422.86   40.20 
   0   5   1 1415.76   40.20 
   0   5   1 1394.66   35.30 
  -1  -5  -1 1483.45   43.30 
  -1  -5  -1 1484.35   39.40 
  -1  -5  -1 1511.65   41.50 
   1   5   1 1492.65   37.80 
   1   5   1 1528.65   42.50 
   1   5   1 1515.45   42.70 
  -2  -5  -1   14.30    3.30 
  -2  -5  -1   13.90    2.70 
  -2  -5  -1   15.00    3.80 
   2   5   1   16.10    3.60 
   2   5   1   12.20    2.30 
   2   5   1   15.90    3.60 
  -3  -5  -1  121.39    8.70 
  -3  -5  -1  125.49    9.40 
   3   5   1  128.89    6.80 
   3   5   1  136.69    9.80 
   3   5   1  112.79    8.40 
   3   5   1  129.59    7.30 
  -4  -5  -1  164.18   10.80 
  -4  -5  -1  163.08   11.90 
   4   5   1  154.38   10.30 
   4   5   1  159.38   11.50 
   4   5   1  155.98    8.70 
   4   5   1  167.68    9.10 
  -5  -5  -1   45.60    6.40 
  -5  -5  -1   47.10    6.60 
   5   5   1   47.90    5.60 
   5   5   1   45.50    4.30 
   5   5   1   34.00    6.20 
   5   5   1   39.00    4.80 
  -6  -5  -1  399.36   20.50 
  -6  -5  -1  421.56   22.00 
  -6  -5  -1  390.06   16.90 
   6   5   1  416.16   19.40 
   6   5   1  412.66   15.20 
  -7  -5  -1  302.27   15.80 
  -7  -5  -1  320.47   19.70 
  -7  -5  -1  338.07   20.10 
   7   5   1  335.37   13.70 
   7   5   1  318.27   20.50 
   7   5   1  325.67   17.90 
  -8  -5  -1   48.10    9.60 
  -8  -5  -1   34.30    8.40 
   8   5   1   34.50    6.80 
   8   5   1   51.19    5.30 
  -9  -5  -1    1.00    3.50 
   9   5   1    0.80    2.40 
   9   5   1    5.50    4.20 
   6  -6  -1  149.19   14.90 
   6  -6  -1  133.89   11.90 
  -6   6   1  144.39   13.50 
   5  -6  -1  557.34   28.30 
   5  -6  -1  558.74   26.30 
   5  -6  -1  594.94   25.40 
  -5   6   1  543.25   26.40 
   4  -6  -1   40.20    6.90 
   4  -6  -1   50.39    6.20 
   4  -6  -1   36.90    7.40 
  -4   6   1   59.19    9.40 
  -4   6   1   43.20    7.40 
   3  -6  -1   55.19    7.50 
   3  -6  -1   53.79    8.40 
   3  -6  -1   48.30    5.90 
  -3   6   1   49.10    6.50 
  -3   6   1   52.09    7.10 
   2  -6  -1 1494.75   43.30 
   2  -6  -1 1440.16   46.90 
   2  -6  -1 1484.75   42.90 
  -2   6   1 1447.26   39.60 
  -2   6   1 1515.65   45.40 
  -2   6   1 1534.25   46.00 
   1  -6  -1    2.80    1.50 
   1  -6  -1    6.80    2.30 
   1  -6  -1    2.80    2.10 
  -1   6   1    1.00    1.40 
  -1   6   1    8.40    2.80 
  -1   6   1    4.00    1.80 
   0  -6  -1   83.49    7.00 
   0  -6  -1   88.79    8.30 
   0  -6  -1   79.79    6.50 
   0   6   1   99.89    6.00 
   0   6   1   91.99    8.00 
   0   6   1   88.79    7.70 
  -1  -6  -1 1059.39   35.30 
  -1  -6  -1 1014.50   31.00 
  -1  -6  -1  999.30   32.30 
   1   6   1 1062.59   34.10 
   1   6   1 1074.49   29.00 
   1   6   1 1053.69   34.00 
  -2  -6  -1  169.18   12.00 
  -2  -6  -1  181.98   11.00 
  -2  -6  -1  178.68   10.70 
   2   6   1  178.58   11.30 
   2   6   1  193.58   11.90 
   2   6   1  176.48    8.70 
  -3  -6  -1 1606.24   46.80 
  -3  -6  -1 1637.14   49.00 
   3   6   1 1630.44   48.30 
   3   6   1 1663.33   42.70 
   3   6   1 1672.33   47.40 
   3   6   1 1375.86   46.10 
  -4  -6  -1  226.18   14.40 
  -4  -6  -1  199.38   14.20 
   4   6   1  186.88   12.20 
   4   6   1  194.58    9.60 
   4   6   1  204.28   13.70 
   4   6   1  195.58   10.50 
  -5  -6  -1  357.46   18.60 
  -5  -6  -1  348.97   19.80 
   5   6   1  359.46   16.00 
   5   6   1  394.16   14.70 
   5   6   1  376.46   20.10 
   5   6   1  363.66   18.00 
  -6  -6  -1    4.40    2.80 
  -6  -6  -1   -0.30    1.80 
   6   6   1   -1.40    1.60 
   6   6   1   -0.40    1.30 
   6   6   1   -4.20    1.60 
   6   6   1    0.00    2.20 
  -7  -6  -1    3.90    3.20 
  -7  -6  -1   -0.30    3.30 
   7   6   1   -0.70    2.60 
   7   6   1    9.00    4.20 
   7   6   1    6.00    2.10 
  -8  -6  -1   12.10    5.30 
  -8  -6  -1    8.00    3.90 
   8   6   1   15.50    5.20 
   8   6   1   11.00    3.20 
   5  -7  -1   29.90    6.70 
   5  -7  -1   36.10    7.90 
  -5   7   1   64.79    9.00 
   4  -7  -1   -1.20    2.00 
   4  -7  -1   -1.30    2.40 
   4  -7  -1    4.10    3.90 
  -4   7   1   -0.80    2.20 
   3  -7  -1  112.59    9.80 
   3  -7  -1  115.99    9.80 
   3  -7  -1  131.89   12.30 
  -3   7   1  139.29   11.70 
  -3   7   1  121.29   11.30 
   2  -7  -1   19.20    5.30 
   2  -7  -1   23.50    4.50 
   2  -7  -1   29.00    5.60 
  -2   7   1   20.30    5.00 
  -2   7   1   27.10    5.40 
   1  -7  -1  195.28   14.30 
   1  -7  -1  189.68   11.80 
   1  -7  -1  225.78   12.60 
  -1   7   1  202.58   13.50 
  -1   7   1  205.38   10.00 
  -1   7   1  200.88   13.00 
   0  -7  -1 1154.48   39.90 
   0  -7  -1 1102.59   35.10 
   0  -7  -1 1133.09   35.80 
   0   7   1 1131.69   31.70 
   0   7   1 1143.99   38.20 
   0   7   1 1112.79   37.20 
  -1  -7  -1   38.60    6.50 
  -1  -7  -1   51.39    6.00 
  -1  -7  -1   43.00    6.20 
   1   7   1   44.50    6.20 
   1   7   1   40.80    4.10 
   1   7   1   44.50    6.30 
  -2  -7  -1 1846.82   54.99 
  -2  -7  -1 1714.03   50.99 
  -2  -7  -1 1804.72   48.90 
   2   7   1 1751.12   52.19 
   2   7   1 1726.63   52.29 
   2   7   1 1747.43   46.10 
  -3  -7  -1 1159.78   40.50 
  -3  -7  -1 1143.59   37.70 
  -3  -7  -1 1140.09   34.50 
   3   7   1 1116.49   32.80 
   3   7   1 1110.09   37.80 
   3   7   1 1108.79   38.70 
   3   7   1 1135.39   33.10 
  -4  -7  -1  317.77   18.70 
  -4  -7  -1  325.87   17.60 
   4   7   1  322.37   14.50 
   4   7   1  315.57   18.10 
   4   7   1  335.17   13.90 
   4   7   1  316.57   17.10 
  -5  -7  -1   10.30    3.70 
  -5  -7  -1    7.50    3.30 
   5   7   1   10.80    2.90 
   5   7   1    5.30    2.60 
   5   7   1    6.80    2.60 
  -6  -7  -1    1.40    2.40 
  -6  -7  -1    4.30    3.40 
   6   7   1    0.80    3.70 
   6   7   1    1.00    2.50 
   6   7   1   -2.30    1.30 
   6   7   1   -0.80    3.10 
  -7  -7  -1  102.49   11.10 
  -7  -7  -1  101.29   12.10 
   7   7   1   81.99    9.50 
   7   7   1   93.09   11.80 
   7   7   1   96.69    7.30 
  -8  -7  -1  271.07   20.50 
  -8  -7  -1  273.17   20.60 
   8   7   1  285.37   18.20 
   8   7   1  265.27   13.20 
   4  -8  -1  387.76   24.60 
   4  -8  -1  315.77   23.90 
  -4   8   1  419.76   24.20 
   3  -8  -1   95.09    9.80 
   3  -8  -1  110.59   12.60 
   3  -8  -1   99.39   10.20 
  -3   8   1  134.19   12.10 
   2  -8  -1   27.10    5.70 
   2  -8  -1   21.60    4.70 
   2  -8  -1   24.00    6.30 
  -2   8   1   28.30    6.20 
  -2   8   1   37.80    6.40 
   1  -8  -1  453.05   24.50 
   1  -8  -1  469.05   21.00 
  -1   8   1  450.75   23.10 
  -1   8   1  458.85   22.40 
   0  -8  -1   90.59    8.50 
   0  -8  -1   79.29    9.80 
   0  -8  -1   62.19    7.50 
   0   8   1   83.69    8.70 
   0   8   1   85.89    6.40 
   0   8   1   83.39    9.20 
  -1  -8  -1   22.40    4.80 
  -1  -8  -1   27.00    7.00 
  -1  -8  -1   34.60    6.10 
   1   8   1   27.70    4.80 
   1   8   1   26.50    5.70 
   1   8   1   28.50    5.90 
  -2  -8  -1  727.83   28.40 
  -2  -8  -1  749.42   31.60 
  -2  -8  -1  715.73   26.50 
   2   8   1  710.33   29.30 
   2   8   1  721.93   29.50 
   2   8   1  734.43   23.90 
  -3  -8  -1    5.30    3.40 
  -3  -8  -1   12.00    3.70 
  -3  -8  -1   14.70    4.80 
   3   8   1    7.80    3.40 
   3   8   1   10.00    3.20 
   3   8   1   17.20    3.20 
  -4  -8  -1  652.43   29.90 
  -4  -8  -1  603.14   27.10 
   4   8   1  636.74   23.10 
   4   8   1  652.53   23.10 
   4   8   1  626.74   28.60 
   4   8   1  663.23   28.00 
  -5  -8  -1  468.45   25.60 
  -5  -8  -1  473.55   24.00 
   5   8   1  497.55   23.90 
   5   8   1  477.55   20.00 
   5   8   1  461.45   18.60 
   5   8   1  462.05   24.50 
  -6  -8  -1   18.90    5.20 
  -6  -8  -1   19.60    4.60 
   6   8   1   26.70    5.30 
   6   8   1   12.60    4.40 
   6   8   1   26.80    4.50 
  -7  -8  -1   11.50    4.50 
  -7  -8  -1   15.00    6.10 
   7   8   1    2.20    2.90 
   7   8   1    6.60    3.90 
  -8  -8  -1    8.10    5.50 
  -8  -8  -1   18.40    8.90 
   8   8   1    8.40    2.90 
   8   8   1   19.80    6.00 
   3  -9  -1  132.99   21.50 
   3  -9  -1  164.58   15.90 
  -3   9   1  140.99   14.00 
   2  -9  -1    6.40    4.70 
   2  -9  -1   10.70    4.30 
   2  -9  -1    1.60    3.40 
  -2   9   1   18.40    5.00 
   1  -9  -1   -1.80    2.30 
   1  -9  -1    2.70    3.40 
   1  -9  -1    2.60    3.30 
  -1   9   1    2.10    3.00 
   0  -9  -1   94.59    9.20 
   0  -9  -1  110.19   11.80 
   0  -9  -1  102.79    9.80 
   0   9   1  102.69   10.70 
  -1  -9  -1  233.08   14.90 
  -1  -9  -1  221.28   14.90 
  -1  -9  -1  263.47   18.50 
   1   9   1  239.28   16.10 
  -2  -9  -1   24.30    5.30 
  -2  -9  -1   34.40    6.20 
  -2  -9  -1   20.80    5.30 
   2   9   1   31.50    4.80 
   2   9   1   26.40    5.80 
   2   9   1   31.20    6.60 
  -3  -9  -1  499.65   21.90 
  -3  -9  -1  485.25   26.60 
  -3  -9  -1  478.55   23.40 
   3   9   1  467.95   19.00 
   3   9   1  489.45   25.40 
   3   9   1  502.05   24.70 
  -4  -9  -1  226.58   16.00 
  -4  -9  -1  216.38   17.10 
   4   9   1  208.88   15.70 
   4   9   1  218.78   12.60 
   4   9   1  224.88   12.60 
  -5  -9  -1    4.60    3.50 
  -5  -9  -1    7.10    4.90 
   5   9   1    5.00    2.80 
   5   9   1    4.60    2.90 
   5   9   1    0.40    2.60 
  -6  -9  -1    2.00    3.40 
  -6  -9  -1    2.70    4.80 
   6   9   1   -3.80    3.40 
   6   9   1    3.20    2.30 
  -7  -9  -1   11.00    5.30 
  -7  -9  -1   15.60    7.60 
   7   9   1   20.00    4.20 
   7   9   1   24.40    6.70 
   2 -10  -1  120.59   12.80 
   2 -10  -1  127.79   12.00 
  -2  10   1  103.89   13.40 
   1 -10  -1   13.50    5.30 
   1 -10  -1   13.30    6.70 
  -1  10   1   11.60    4.60 
   0 -10  -1   43.60    8.10 
   0 -10  -1   34.20   11.30 
   0 -10  -1   24.60   10.30 
   0  10   1   43.20    9.00 
  -1 -10  -1   25.20    6.20 
  -1 -10  -1   21.10    5.00 
  -1 -10  -1    7.40    5.00 
   1  10   1   25.70    6.90 
  -2 -10  -1    1.20    3.20 
  -2 -10  -1    9.20    4.20 
  -2 -10  -1    9.30    4.80 
   2  10   1    4.20    3.80 
  -3 -10  -1    6.00    4.00 
  -3 -10  -1    5.10    4.20 
  -3 -10  -1    4.20    3.70 
   3  10   1    2.80    3.80 
  -4 -10  -1    9.20    4.20 
  -4 -10  -1   16.30    5.70 
   4  10   1    7.60    4.20 
   4  10   1    9.10    3.30 
  -5 -10  -1  100.09   12.00 
  -5 -10  -1  100.79   11.80 
   5  10   1   81.09   10.70 
   5  10   1  100.69    9.30 
  -6 -10  -1  154.88   16.80 
  -6 -10  -1  116.69   15.20 
   6  10   1  165.28   15.10 
   6  10   1  149.49   10.70 
  -1 -11  -1   26.70    6.00 
  -1 -11  -1   40.30    8.20 
  -1 -11  -1   39.20    7.70 
   1  11   1   29.90    7.70 
  -2 -11  -1    0.70    4.70 
  -2 -11  -1    3.60    3.60 
  -2 -11  -1    0.60    3.50 
   2  11   1    0.80    3.50 
  -3 -11  -1    3.40    3.70 
  -3 -11  -1    4.80    3.70 
  -3 -11  -1    8.10    5.50 
   3  11   1    7.10    4.30 
  -4 -11  -1   59.19    9.70 
  -4 -11  -1   63.59   11.50 
   4  11   1   96.79   14.20 
   4  11   1   63.59    7.90 
   5  10  -2   95.79    9.70 
  -5 -10   2   98.29   12.10 
   4  10  -2   17.20    5.10 
   4  10  -2   30.50    6.60 
  -4 -10   2   22.10    6.70 
  -4 -10   2   10.40    5.80 
   3  10  -2    5.70    3.60 
  -3 -10   2   11.20    4.40 
  -3 -10   2   13.70    4.10 
  -3 -10   2   -2.90    3.30 
   2  10  -2   35.00    7.50 
  -2 -10   2   47.90    8.20 
  -2 -10   2   49.50    9.10 
  -2 -10   2   32.80    7.40 
   1  10  -2    4.10    3.50 
  -1 -10   2   -4.30    4.10 
  -1 -10   2   -3.30    3.10 
  -1 -10   2    1.90    2.80 
   0  10  -2   37.70   11.10 
   0 -10   2   65.79   10.50 
   0 -10   2   61.19   12.40 
   0 -10   2   50.49    9.50 
   6   9  -2   14.00    5.30 
   6   9  -2   13.30    4.30 
  -6  -9   2   22.60    6.70 
  -6  -9   2   21.10    6.90 
   5   9  -2   34.50    7.30 
   5   9  -2   30.00    6.30 
  -5  -9   2   26.00    6.80 
  -5  -9   2   19.60    5.40 
   4   9  -2    3.40    3.00 
   4   9  -2   -0.10    2.20 
  -4  -9   2   -1.70    2.40 
  -4  -9   2   -2.90    2.30 
   3   9  -2  136.29   12.10 
  -3  -9   2  139.89   11.90 
  -3  -9   2  141.49   13.80 
  -3  -9   2  157.08   13.20 
   2   9  -2   28.00    5.80 
  -2  -9   2   33.00    7.00 
  -2  -9   2   32.50    6.90 
  -2  -9   2   45.00    7.40 
   1   9  -2    1.40    2.60 
  -1  -9   2    7.90    3.40 
  -1  -9   2    7.40    4.30 
  -1  -9   2    4.70    3.00 
   0   9  -2   11.80    5.00 
   0  -9   2    5.80    2.80 
   0  -9   2    9.00    4.30 
   0  -9   2    2.40    3.30 
  -1   9  -2   -2.30    2.80 
   1  -9   2    1.00    2.40 
   1  -9   2   -2.60    3.00 
   1  -9   2    2.60    2.60 
  -2   9  -2    4.30    4.20 
   2  -9   2    2.10    3.30 
   2  -9   2    0.00    3.70 
   2  -9   2   -5.10    2.90 
   7   8  -2    4.90    3.00 
   7   8  -2    5.40    4.20 
  -7  -8   2    1.30    3.30 
  -7  -8   2    7.30    7.60 
   6   8  -2    3.20    2.80 
   6   8  -2    3.30    2.50 
  -6  -8   2   -0.90    2.30 
  -6  -8   2   -2.40    3.10 
   5   8  -2  223.38   14.60 
   5   8  -2  217.78   13.80 
  -5  -8   2  202.88   15.00 
  -5  -8   2  235.78   17.20 
   4   8  -2  786.52   30.00 
   4   8  -2  752.32   30.10 
  -4  -8   2  769.72   31.10 
  -4  -8   2  775.32   33.20 
   3   8  -2  120.39   10.20 
  -3  -8   2  106.59   10.60 
  -3  -8   2  112.59   11.60 
  -3  -8   2   97.69    9.30 
   2   8  -2  232.58   14.80 
  -2  -8   2  221.68   15.00 
  -2  -8   2  228.38   14.20 
   1   8  -2   46.20    7.90 
  -1  -8   2   49.90    6.50 
  -1  -8   2   34.80   10.90 
  -1  -8   2   56.79    7.30 
   0   8  -2   31.60    6.20 
   0  -8   2   49.99    8.80 
   0  -8   2   42.70    5.90 
   0  -8   2   43.90    7.90 
  -1   8  -2   42.00    7.70 
   1  -8   2   33.20    5.70 
   1  -8   2   43.30    7.70 
   1  -8   2   35.40    7.60 
  -2   8  -2  324.57   19.40 
   2  -8   2  302.37   20.00 
   2  -8   2  285.27   18.80 
   2  -8   2  306.87   17.00 
  -3   8  -2   56.29    9.50 
   3  -8   2   75.79    9.10 
   3  -8   2   59.89   10.10 
   3  -8   2   52.89    9.40 
   8   7  -2   79.79    8.20 
  -8  -7   2   58.39   10.80 
   7   7  -2  143.19   12.20 
   7   7  -2  154.18   11.10 
  -7  -7   2  139.79   13.10 
  -7  -7   2  158.98   14.60 
   6   7  -2    3.10    2.20 
   6   7  -2    2.20    2.10 
  -6  -7   2    5.20    2.90 
  -6  -7   2    0.60    3.00 
   5   7  -2   43.10    7.40 
  -5  -7   2   44.00    7.80 
  -5  -7   2   38.00    7.70 
   4   7  -2  356.26   17.40 
   4   7  -2  365.16   17.80 
   4   7  -2  344.97   17.80 
  -4  -7   2  351.76   19.60 
  -4  -7   2  329.47   17.90 
   3   7  -2  268.97   14.90 
   3   7  -2  245.48   13.90 
   3   7  -2  237.58   14.50 
  -3  -7   2  248.38   14.50 
  -3  -7   2  253.47   15.40 
  -3  -7   2  266.87   16.70 
   2   7  -2  700.43   26.10 
   2   7  -2  635.04   25.40 
   2   7  -2  653.73   24.80 
  -2  -7   2  656.33   25.50 
  -2  -7   2  670.33   28.00 
  -2  -7   2  671.63   26.80 
   1   7  -2    4.40    2.40 
   1   7  -2    3.00    2.40 
   1   7  -2    7.60    2.50 
  -1  -7   2    0.30    2.20 
  -1  -7   2    5.80    2.90 
  -1  -7   2    3.60    2.30 
   0   7  -2  889.71   31.30 
   0   7  -2  898.31   32.30 
   0  -7   2  878.61   33.70 
   0  -7   2  888.01   30.20 
   0  -7   2  843.82   32.50 
  -1   7  -2  164.48   12.20 
   1  -7   2  144.09   12.00 
   1  -7   2  162.28   10.90 
   1  -7   2  176.48   12.70 
  -2   7  -2    2.70    2.90 
   2  -7   2    5.40    2.20 
   2  -7   2    0.80    2.90 
   2  -7   2    4.10    2.70 
  -3   7  -2  135.79   11.90 
   3  -7   2  124.49   12.40 
   3  -7   2  119.99   11.50 
   3  -7   2  140.69   10.70 
  -4   7  -2  285.87   18.70 
   4  -7   2  272.57   17.10 
   4  -7   2  275.27   19.50 
   8   6  -2   60.79    7.00 
   8   6  -2   60.09    8.40 
  -8  -6   2   60.69   10.30 
  -8  -6   2   79.99   10.70 
   7   6  -2    7.00    3.20 
   7   6  -2    4.10    2.90 
  -7  -6   2    5.50    3.80 
  -7  -6   2    4.60    3.90 
   6   6  -2   34.30    6.10 
   6   6  -2   32.70    5.80 
  -6  -6   2   20.90    6.00 
  -6  -6   2   39.60    8.00 
   5   6  -2  952.60   34.70 
   5   6  -2  978.30   33.10 
   5   6  -2 1012.10   32.80 
  -5  -6   2  993.30   36.90 
  -5  -6   2  966.20   34.90 
   4   6  -2  642.34   24.30 
   4   6  -2  644.44   25.90 
   4   6  -2  646.44   25.50 
   4   6  -2  685.33   24.70 
  -4  -6   2  626.64   25.20 
  -4  -6   2  669.33   27.20 
   3   6  -2 2820.42   72.69 
   3   6  -2 2597.84   77.29 
   3   6  -2 2876.71   72.09 
   3   6  -2 2411.46   77.29 
  -3  -6   2 2818.72   72.39 
  -3  -6   2 2936.71   75.89 
  -3  -6   2 2877.71   74.19 
   2   6  -2 1627.24   47.20 
   2   6  -2 1680.23   47.80 
   2   6  -2 1572.54   58.29 
  -2  -6   2 1781.62   50.79 
  -2  -6   2 1667.23   47.30 
  -2  -6   2 1734.03   49.50 
   1   6  -2  663.23   24.90 
   1   6  -2  704.93   24.50 
   1   6  -2  729.03   25.10 
  -1  -6   2  675.83   24.30 
  -1  -6   2  706.03   26.40 
  -1  -6   2  709.83   26.90 
   0   6  -2    6.00    2.60 
   0   6  -2    3.20    2.20 
   0   6  -2    8.00    2.30 
   0  -6   2    9.30    2.70 
   0  -6   2   10.00    3.40 
   0  -6   2    7.00    2.70 
  -1   6  -2  892.91   28.00 
  -1   6  -2  876.81   30.60 
  -1   6  -2  830.62   29.40 
   1  -6   2  875.61   31.30 
   1  -6   2  854.91   31.90 
   1  -6   2  915.61   29.10 
  -2   6  -2  344.37   17.20 
  -2   6  -2  346.57   17.70 
   2  -6   2  339.67   19.30 
   2  -6   2  360.46   18.90 
   2  -6   2  350.56   16.20 
  -3   6  -2  198.68   13.90 
   3  -6   2  246.08   13.80 
   3  -6   2  249.58   16.40 
   3  -6   2  257.97   15.70 
  -4   6  -2   -3.90    1.50 
   4  -6   2    6.90    3.20 
   4  -6   2    3.10    2.70 
   4  -6   2   -4.10    2.40 
  -5   6  -2  190.18   14.50 
   5  -6   2  170.88   14.30 
   5  -6   2  170.68   16.60 
   5  -6   2  191.88   15.70 
   8   5  -2    4.80    2.70 
   8   5  -2    8.40    3.80 
  -8  -5   2    2.60    4.90 
  -8  -5   2    3.40    3.50 
   7   5  -2   52.49    5.90 
   7   5  -2   38.70    6.20 
  -7  -5   2   36.20    7.10 
  -7  -5   2   49.70    8.20 
   6   5  -2  797.42   29.00 
   6   5  -2  816.22   27.70 
  -6  -5   2  806.62   32.40 
  -6  -5   2  785.62   31.30 
   5   5  -2   19.10    3.90 
   5   5  -2   21.30    4.30 
   5   5  -2   22.10    4.70 
   5   5  -2   20.70    4.70 
  -5  -5   2   17.50    4.40 
  -5  -5   2   23.00    5.00 
   4   5  -2  107.09    8.70 
   4   5  -2   99.89    7.70 
   4   5  -2   94.99    8.40 
   4   5  -2  107.29    7.80 
  -4  -5   2  106.59    8.40 
  -4  -5   2  105.99    9.10 
   3   5  -2  480.75   18.60 
   3   5  -2  475.05   19.30 
   3   5  -2  476.35   19.40 
   3   5  -2  474.05   18.30 
  -3  -5   2  464.75   19.80 
  -3  -5   2  451.15   18.60 
   2   5  -2  843.72   27.10 
   2   5  -2  832.22   27.20 
   2   5  -2  804.52   26.30 
  -2  -5   2  819.82   27.90 
  -2  -5   2  850.21   28.60 
  -2  -5   2  805.02   26.50 
   1   5  -2 1001.50   30.50 
   1   5  -2  979.50   30.30 
   1   5  -2 1018.90   30.40 
  -1  -5   2  956.10   31.40 
  -1  -5   2  970.80   29.80 
  -1  -5   2 1010.50   32.00 
   0   5  -2 2789.12   70.99 
   0   5  -2 2806.32   70.29 
   0   5  -2 2824.02   69.89 
   0  -5   2 2883.31   69.89 
   0  -5   2 2850.91   72.69 
   0  -5   2 2700.43   71.99 
  -1   5  -2 2195.68   58.09 
  -1   5  -2 2252.27   56.59 
  -1   5  -2 2187.58   58.69 
   1  -5   2 2292.57   60.59 
   1  -5   2 2242.38   60.49 
   1  -5   2 2125.39   56.69 
  -2   5  -2  987.00   31.80 
  -2   5  -2  990.80   29.40 
  -2   5  -2  936.91   31.60 
   2  -5   2  937.61   32.80 
   2  -5   2  977.80   30.20 
   2  -5   2  948.91   32.20 
  -3   5  -2   14.10    3.90 
  -3   5  -2   18.90    4.20 
   3  -5   2    9.20    2.90 
   3  -5   2   11.90    4.50 
   3  -5   2    4.90    2.70 
  -4   5  -2  436.86   20.50 
   4  -5   2  336.67   24.80 
   4  -5   2  418.26   20.40 
   4  -5   2  424.16   21.30 
  -5   5  -2  214.28   14.60 
   5  -5   2  219.88   16.00 
   5  -5   2  230.58   15.30 
   5  -5   2  202.58   14.20 
   6  -5   2   34.30    7.40 
   6  -5   2   24.40    8.00 
   6  -5   2   25.10    5.60 
   9   4  -2    0.80    2.30 
  -9  -4   2    6.60    4.00 
   8   4  -2  174.18   13.10 
   8   4  -2  178.98   11.20 
  -8  -4   2  195.18   14.90 
  -8  -4   2  158.18   14.20 
   7   4  -2  501.15   20.40 
   7   4  -2  501.35   22.50 
  -7  -4   2  542.75   25.10 
  -7  -4   2  536.85   27.40 
   6   4  -2    8.60    3.30 
  -6  -4   2   15.00    4.30 
  -6  -4   2   14.10    3.60 
  -6  -4   2   14.00    4.50 
   5   4  -2    5.70    2.80 
   5   4  -2    3.60    1.90 
   5   4  -2    1.80    2.90 
   5   4  -2    3.60    2.00 
  -5  -4   2    2.40    2.00 
  -5  -4   2    0.00    1.40 
  -5  -4   2    4.80    2.00 
   4   4  -2 1030.90   32.80 
   4   4  -2 1037.90   30.80 
   4   4  -2  968.30   32.50 
   4   4  -2  994.80   30.80 
  -4  -4   2 1002.70   31.80 
  -4  -4   2  990.60   33.10 
   3   4  -2   83.69    6.90 
   3   4  -2   79.49    6.50 
   3   4  -2   77.69    6.20 
   3   4  -2   87.99    6.30 
  -3  -4   2   74.29    6.10 
  -3  -4   2   84.49    7.00 
   2   4  -2  382.16   15.20 
   2   4  -2  403.56   16.00 
   2   4  -2  375.16   14.60 
  -2  -4   2  388.96   16.10 
  -2  -4   2  427.16   16.60 
   1   4  -2 9999.00  222.78 
   0   4  -2  582.24   19.40 
   0   4  -2  585.94   19.80 
   0   4  -2  595.64   19.70 
   0  -4   2  593.44   20.60 
  -1   4  -2  851.81   25.30 
  -1   4  -2  842.62   26.40 
  -1   4  -2  884.91   26.50 
   1  -4   2  837.62   27.30 
   1  -4   2  857.71   25.40 
   1  -4   2  827.52   27.10 
  -2   4  -2  593.74   21.20 
  -2   4  -2  616.84   21.60 
  -2   4  -2  581.74   19.70 
   2  -4   2  592.74   22.00 
   2  -4   2  593.74   20.40 
   2  -4   2  600.04   22.30 
  -3   4  -2  479.45   19.70 
  -3   4  -2  486.15   17.90 
  -3   4  -2  515.05   20.40 
   3  -4   2  502.85   19.30 
   3  -4   2  525.75   20.70 
   3  -4   2  510.25   21.30 
  -4   4  -2  153.48   10.80 
  -4   4  -2  161.48   10.90 
   4  -4   2  141.39   14.90 
   4  -4   2  152.88   10.60 
   4  -4   2  152.98   11.80 
  -5   4  -2   19.70    5.20 
   5  -4   2   13.50    4.20 
   5  -4   2   19.50    4.70 
   5  -4   2   27.10    6.40 
  -6   4  -2   35.60    6.20 
   6  -4   2   34.80    6.90 
   6  -4   2   39.90    7.00 
   6  -4   2   34.80    7.20 
  -7   4  -2  416.76   23.00 
   7  -4   2  383.06   21.40 
   7  -4   2  397.66   24.20 
   9   3  -2   28.10    8.50 
   9   3  -2   33.50    5.60 
  -9  -3   2   44.80    8.70 
   8   3  -2    7.30    3.20 
   8   3  -2    7.10    2.80 
  -8  -3   2   -0.20    2.20 
  -8  -3   2    2.50    4.00 
   7   3  -2    3.20    2.40 
   7   3  -2    1.90    2.20 
  -7  -3   2    4.90    2.70 
  -7  -3   2    2.90    2.80 
   6   3  -2  346.27   14.90 
   6   3  -2  322.87   16.00 
   6   3  -2  335.67   18.30 
  -6  -3   2  338.57   16.70 
  -6  -3   2  332.27   17.90 
  -6  -3   2  340.07   17.60 
   5   3  -2  726.63   27.70 
   5   3  -2  773.82   25.60 
   5   3  -2  787.32   25.00 
  -5  -3   2  809.12   27.70 
  -5  -3   2  763.22   26.50 
  -5  -3   2  761.62   28.10 
   4   3  -2  241.48   11.40 
   4   3  -2  261.27   11.80 
  -4  -3   2  252.17   12.30 
  -4  -3   2  264.67   13.30 
  -4  -3   2  250.07   12.00 
   3   3  -2   40.00    4.10 
   3   3  -2   46.00    4.10 
   3   3  -2   41.90    4.50 
   3   3  -2   39.00    4.40 
  -3  -3   2   43.40    4.70 
   2   3  -2    5.40    1.80 
   2   3  -2    4.40    1.60 
   2   3  -2    5.80    1.50 
   2   3  -2    8.70    1.90 
   1   3  -2  180.78   10.90 
   1   3  -2  185.88    8.20 
   1   3  -2  202.78    9.50 
  -1  -3   2  204.18    9.20 
   0   3  -2 2108.99   51.69 
   0   3  -2 2107.99   50.99 
   0   3  -2 2105.29   50.59 
   0  -3   2 2004.20   52.49 
   0  -3   2 2072.29   51.59 
  -1   3  -2 6007.00  136.29 
  -1   3  -2 6367.26  137.19 
  -1   3  -2 5723.53  138.89 
   1  -3   2 6055.29  138.29 
   1  -3   2 6017.90  137.69 
   1  -3   2 6032.50  135.79 
  -2   3  -2    2.60    1.50 
  -2   3  -2   -0.70    0.80 
  -2   3  -2    1.20    1.10 
   2  -3   2    0.80    0.90 
   2  -3   2    0.20    1.20 
   2  -3   2    2.10    1.70 
  -3   3  -2 1994.80   52.99 
  -3   3  -2 1968.40   50.39 
  -3   3  -2 2014.10   52.39 
   3  -3   2 1992.60   54.29 
   3  -3   2 2009.90   52.29 
   3  -3   2 2012.50   53.09 
  -4   3  -2  146.19    8.20 
  -4   3  -2  125.89    9.00 
  -4   3  -2  144.89    9.80 
   4  -3   2  141.49    9.40 
   4  -3   2  140.29    9.70 
   4  -3   2  137.79   10.20 
  -5   3  -2   79.89    7.70 
  -5   3  -2  100.39    9.00 
   5  -3   2   89.19    9.00 
   5  -3   2   98.89    9.50 
   5  -3   2   95.49    8.20 
  -6   3  -2  219.98   14.00 
   6  -3   2  221.98   15.50 
   6  -3   2  208.08   13.40 
   6  -3   2  227.68   15.60 
  -7   3  -2   -1.10    3.10 
   7  -3   2   10.10    6.60 
   7  -3   2    2.80    2.90 
   7  -3   2    6.30    3.60 
   9   2  -2    2.20    4.90 
   9   2  -2    6.70    3.30 
  -9  -2   2   15.90    4.60 
   8   2  -2   70.59    8.60 
   8   2  -2   48.90    5.90 
  -8  -2   2   60.49    7.70 
  -8  -2   2   61.89   10.10 
   7   2  -2  229.78   12.20 
   7   2  -2  228.78   14.50 
  -7  -2   2  228.18   14.90 
  -7  -2   2  252.97   15.70 
   6   2  -2 2564.94   62.89 
   6   2  -2 2443.56   69.39 
   6   2  -2 2500.75   65.79 
  -6  -2   2 2417.26   67.19 
  -6  -2   2 2393.56   66.79 
  -6  -2   2 2436.26   65.89 
   5   2  -2   90.99    8.20 
   5   2  -2  106.19    7.00 
   5   2  -2  102.49    7.50 
  -5  -2   2  108.49    7.90 
  -5  -2   2  104.09    8.00 
  -5  -2   2  100.19    8.30 
   4   2  -2 1303.57   38.50 
   4   2  -2 1333.37   36.20 
   4   2  -2 1366.16   36.20 
  -4  -2   2 1288.07   37.10 
  -4  -2   2 1314.17   37.10 
  -4  -2   2 1368.66   38.70 
   3   2  -2  846.62   24.00 
   3   2  -2  831.92   25.40 
   3   2  -2  878.61   33.70 
  -3  -2   2  841.22   25.80 
  -3  -2   2  869.51   25.30 
   2   2  -2   64.59    3.90 
   2   2  -2   59.29    4.30 
   2   2  -2   65.49    5.00 
  -2  -2   2   64.09    4.50 
  -2  -2   2   54.19    3.90 
   1   2  -2 2051.69   47.90 
   1   2  -2 2026.60   49.99 
   1   2  -2 2010.00   47.40 
  -1  -2   2 2153.38   51.29 
  -1  -2   2 2083.89   48.60 
  -1  -2   2 1906.41   47.60 
  -1   2  -2 1879.51   46.40 
  -1   2  -2 1918.71   46.80 
  -1   2  -2 1936.51   46.80 
   1  -2   2 1976.80   47.40 
   1  -2   2 1977.10   48.20 
  -2   2  -2 2925.61   69.39 
  -2   2  -2 2792.12   67.39 
  -2   2  -2 3001.20   68.79 
   2  -2   2 2972.40   68.59 
   2  -2   2 2687.83   72.99 
   2  -2   2 3003.10   70.09 
  -3   2  -2   43.90    4.30 
  -3   2  -2   52.89    5.00 
  -3   2  -2   50.29    4.00 
   3  -2   2   56.39    5.00 
   3  -2   2   49.99    4.50 
   3  -2   2   49.90    5.10 
  -4   2  -2  178.98    9.00 
  -4   2  -2  173.78   10.10 
  -4   2  -2  206.58   11.40 
   4  -2   2  178.48    9.70 
   4  -2   2  187.68   11.30 
   4  -2   2  193.78   11.30 
  -5   2  -2   25.30    4.50 
  -5   2  -2   22.90    4.60 
  -5   2  -2   30.90    3.90 
   5  -2   2   32.10    6.00 
   5  -2   2   37.40    5.60 
   5  -2   2   39.00    6.40 
  -6   2  -2   96.99    8.90 
  -6   2  -2  104.29   10.20 
   6  -2   2   98.89   10.60 
   6  -2   2  107.69   10.10 
   6  -2   2  112.39    8.60 
  -7   2  -2   10.70    4.50 
   7  -2   2    3.20    2.40 
   7  -2   2    0.80    3.90 
   7  -2   2    3.30    3.30 
  -8   2  -2  388.86   21.90 
   8  -2   2  412.96   20.60 
   8  -2   2  358.26   22.90 
   8   1  -2   34.90    6.50 
   8   1  -2   21.40    4.40 
  -8  -1   2   29.30    7.00 
  -8  -1   2   28.30    6.60 
   7   1  -2  161.78   12.40 
   7   1  -2  177.28   10.40 
  -7  -1   2  174.78   15.30 
  -7  -1   2  172.28   12.40 
   6   1  -2  175.88   12.80 
   6   1  -2  177.68   11.60 
   6   1  -2  179.68   10.00 
  -6  -1   2  179.98   12.00 
  -6  -1   2  169.98   11.50 
  -6  -1   2  192.68   11.80 
   5   1  -2 3082.59   81.69 
   5   1  -2 3254.97   79.19 
   5   1  -2 3249.07   76.59 
  -5  -1   2 3165.58   79.89 
  -5  -1   2 3123.29   79.59 
  -5  -1   2 3166.98   79.09 
   4   1  -2  508.95   19.20 
   4   1  -2  478.65   16.40 
   4   1  -2  472.55   17.00 
  -4  -1   2  508.45   18.30 
  -4  -1   2  480.65   17.70 
  -4  -1   2  473.75   17.50 
   3   1  -2  147.59    7.10 
   3   1  -2  147.79    7.30 
   3   1  -2  150.68    8.20 
  -3  -1   2  153.58    8.00 
  -3  -1   2  147.59    7.60 
   2   1  -2  615.24   17.60 
   2   1  -2  621.84   16.50 
   2   1  -2  606.44   17.70 
  -2  -1   2  617.54   18.00 
  -2  -1   2  641.74   17.90 
  -2  -1   2  512.35   16.30 
  -1   1  -2 4070.69   91.69 
   1  -1   2 4090.69   92.19 
  -2   1  -2  152.58    7.10 
  -2   1  -2  150.68    6.30 
  -2   1  -2  151.28    6.80 
   2  -1   2  152.08    7.00 
   2  -1   2  154.28    7.40 
   2  -1   2  159.98    7.10 
  -3   1  -2   73.69    5.20 
  -3   1  -2   62.89    4.20 
  -3   1  -2   67.29    5.30 
   3  -1   2   77.69    5.80 
   3  -1   2   83.99    5.30 
   3  -1   2   71.19    5.60 
  -4   1  -2   21.90    3.30 
  -4   1  -2   26.30    4.40 
  -4   1  -2   24.10    4.00 
   4  -1   2   22.50    3.50 
   4  -1   2   22.70    4.10 
   4  -1   2   28.60    4.00 
  -5   1  -2  972.70   31.20 
  -5   1  -2  999.60   30.40 
  -5   1  -2  954.30   32.30 
   5  -1   2  951.30   33.50 
   5  -1   2 1009.70   33.20 
   5  -1   2  971.10   29.40 
  -6   1  -2  358.26   17.10 
  -6   1  -2  334.17   17.70 
   6  -1   2  315.37   18.60 
   6  -1   2  318.57   17.80 
  -7   1  -2  225.38   14.30 
   7  -1   2  201.88   16.10 
   7  -1   2  195.18   14.70 
   7  -1   2  205.48   12.50 
  -8   1  -2   24.80    5.50 
   8  -1   2   32.40    7.10 
   8  -1   2   12.90    4.70 
   8  -1   2   20.50    5.70 
   8   0  -2  126.39   12.40 
   8   0  -2  129.79    9.60 
  -8   0   2  121.19   11.20 
  -8   0   2  138.49   13.20 
   7   0  -2  161.38   10.20 
   7   0  -2  163.58   12.60 
  -7   0   2  147.29   11.80 
  -7   0   2  160.48   12.40 
   6   0  -2    7.80    3.40 
   6   0  -2    7.00    2.40 
   6   0  -2    8.70    3.10 
  -6   0   2    4.50    2.40 
  -6   0   2   13.60    3.20 
   5   0  -2 2426.56   67.09 
   5   0  -2 2557.64   62.09 
   5   0  -2 2500.35   65.39 
  -5   0   2 2465.85   65.39 
  -5   0   2 2512.75   64.59 
  -5   0   2 2613.64   65.29 
   4   0  -2 2844.02   67.79 
   4   0  -2 2755.72   71.29 
   4   0  -2 2963.50   70.39 
  -4   0   2 2895.01   69.79 
  -4   0   2 2738.53   69.69 
   3   0  -2 1527.45   39.40 
   3   0  -2 1507.65   40.40 
   3   0  -2 1609.64   38.80 
  -3   0   2 1506.15   39.50 
  -3   0   2 1595.44   39.70 
  -3   0   2 1497.65   39.30 
   2   0  -2 2033.90   47.20 
   2   0  -2 2072.19   48.00 
   2   0  -2 1962.90   47.30 
  -2   0   2 1923.21   47.70 
   0   0  -2  263.37    8.10 
   0   0   2  261.77    8.20 
  -2   0  -2  118.89    4.80 
  -2   0  -2  113.79    5.50 
  -2   0  -2  119.09    5.80 
   2   0   2  118.49    5.10 
   2   0   2  114.39    6.00 
   2   0   2  125.39    5.90 
  -3   0  -2  157.58   11.90 
  -3   0  -2  186.58    7.20 
  -3   0  -2  174.68    8.30 
   3   0   2  179.68    7.30 
   3   0   2  181.58    8.70 
   3   0   2  178.18    9.30 
  -4   0  -2 1674.63   43.30 
  -4   0  -2 1607.64   40.10 
  -4   0  -2 1615.14   43.90 
   4   0   2 1571.44   45.00 
   4   0   2 1628.94   40.50 
   4   0   2 1490.45   44.30 
  -5   0  -2  878.61   26.20 
  -5   0  -2  872.11   29.70 
  -5   0  -2  888.81   28.80 
   5   0   2  862.41   26.00 
   5   0   2  880.91   31.50 
   5   0   2  928.81   30.10 
  -6   0  -2    4.70    2.30 
  -6   0  -2    4.40    2.60 
  -6   0  -2    1.90    2.00 
   6   0   2    6.50    3.00 
   6   0   2   10.50    3.80 
   6   0   2    6.00    2.50 
  -7   0  -2    0.90    2.20 
  -7   0  -2    3.30    4.10 
   7   0   2   -3.60    3.40 
   7   0   2    7.50    2.60 
   7   0   2    3.70    3.10 
  -8   0  -2  112.69   11.10 
   8   0   2   99.39   12.40 
   8   0   2  106.89   11.70 
   8   0   2  135.69    9.90 
   8  -1  -2  151.38   16.60 
  -8   1   2  134.29   12.10 
  -8   1   2  170.68   14.30 
   7  -1  -2    3.20    2.20 
   7  -1  -2    4.50    3.30 
  -7   1   2    3.50    2.90 
  -7   1   2    1.30    2.60 
   6  -1  -2  418.96   16.60 
   6  -1  -2  364.56   19.90 
   6  -1  -2  395.06   19.40 
  -6   1   2  434.86   18.90 
  -6   1   2  394.26   23.40 
   5  -1  -2   59.79    6.50 
   5  -1  -2   63.49    6.70 
   5  -1  -2   67.59    5.40 
  -5   1   2   62.09    6.30 
  -5   1   2   62.59    5.90 
  -5   1   2   58.09    6.10 
   4  -1  -2 1957.00   52.79 
   4  -1  -2 2007.20   52.69 
   4  -1  -2 2046.00   49.40 
  -4   1   2 1998.50   51.19 
  -4   1   2 1899.61   50.59 
  -4   1   2 1946.91   51.79 
   1  -1  -2 1243.18   29.40 
   1  -1  -2 1220.28   30.10 
   1  -1  -2 1270.97   29.50 
  -1   1   2 1231.18   29.80 
  -1   1   2 1277.47   29.50 
  -2  -1  -2   20.80    2.30 
   2   1   2   17.10    2.10 
  -3  -1  -2 4133.79   92.39 
  -3  -1  -2 4216.88   96.49 
  -3  -1  -2 4106.49   96.19 
   3   1   2 4011.80   97.59 
   3   1   2 4162.68   92.39 
   3   1   2 4155.88   95.79 
  -4  -1  -2  287.67   13.20 
  -4  -1  -2  294.77   10.70 
  -4  -1  -2  305.17   13.40 
   4   1   2  284.17   14.20 
   4   1   2  271.97   10.90 
   4   1   2  292.37   12.90 
  -5  -1  -2  181.88   11.20 
  -5  -1  -2  184.38    9.00 
  -5  -1  -2  165.38   10.70 
   5   1   2  178.48   10.80 
   5   1   2  179.28   12.00 
   5   1   2  184.58    8.60 
  -6  -1  -2  987.20   34.90 
  -6  -1  -2 1018.30   33.80 
  -6  -1  -2 1009.70   30.90 
   6   1   2 1006.70   34.10 
   6   1   2  977.80   36.50 
   6   1   2 1020.00   29.30 
  -7  -1  -2  567.44   26.00 
  -7  -1  -2  579.44   24.80 
   7   1   2  561.24   20.90 
   7   1   2  604.34   25.80 
   7   1   2  577.04   28.10 
  -8  -1  -2   19.60    4.70 
   8   1   2   18.30    5.20 
   8   1   2   31.50    8.10 
   8   1   2   19.70    4.40 
   8  -2  -2    9.10    4.30 
   8  -2  -2    0.20    2.60 
  -8   2   2    1.50    4.80 
  -8   2   2   -0.50    3.00 
   7  -2  -2  145.59   10.20 
   7  -2  -2  150.18   12.80 
  -7   2   2  146.59   12.10 
  -7   2   2  145.69   11.90 
   6  -2  -2    1.80    2.70 
   6  -2  -2    1.40    1.90 
   6  -2  -2    4.40    2.40 
  -6   2   2    6.00    3.20 
  -6   2   2    3.50    2.60 
   5  -2  -2  422.26   19.00 
   5  -2  -2  387.46   18.60 
   5  -2  -2  409.46   15.80 
  -5   2   2  402.26   18.20 
  -5   2   2  407.16   17.50 
  -5   2   2  381.76   16.70 
   4  -2  -2  454.25   18.20 
   4  -2  -2  432.66   18.30 
   4  -2  -2  463.55   15.80 
  -4   2   2  434.66   16.40 
  -4   2   2  430.56   17.70 
  -4   2   2  452.45   17.20 
   3  -2  -2 4874.81  114.89 
   3  -2  -2 5151.58  116.79 
  -3   2   2 4922.81  113.59 
  -3   2   2 5011.60  115.89 
  -3   2   2 4922.21  114.39 
   2  -2  -2   78.29    5.00 
   2  -2  -2   85.69    5.80 
  -2   2   2   84.69    5.60 
  -2   2   2   87.59    4.90 
  -1  -2  -2 1238.78   30.20 
  -1  -2  -2 1160.58   29.30 
   1   2   2 1017.80   30.20 
   1   2   2 1210.78   29.50 
  -3  -2  -2    9.20    2.10 
  -3  -2  -2    7.90    2.30 
  -3  -2  -2    8.10    1.50 
   3   2   2   16.60    3.10 
   3   2   2   15.40    3.40 
   3   2   2   10.20    1.50 
  -4  -2  -2  161.68    7.50 
  -4  -2  -2  152.68    9.60 
  -4  -2  -2  156.28    9.50 
   4   2   2  165.08    6.70 
   4   2   2  161.58    9.20 
   4   2   2  166.38   10.50 
  -5  -2  -2 3863.51   98.59 
  -5  -2  -2 3977.90   98.69 
  -5  -2  -2 3952.50   93.39 
   5   2   2 4059.29   91.89 
   5   2   2 4056.19  101.59 
   5   2   2 4073.09   97.69 
  -6  -2  -2  408.16   19.60 
  -6  -2  -2  415.66   16.60 
  -6  -2  -2  429.96   20.30 
   6   2   2  428.86   19.30 
   6   2   2  433.66   21.80 
   6   2   2  438.06   15.40 
  -7  -2  -2  118.09    9.90 
  -7  -2  -2  133.89   11.30 
  -7  -2  -2  123.09   11.40 
   7   2   2  132.99   10.90 
   7   2   2  134.79   13.20 
   7   2   2  114.69    7.70 
  -8  -2  -2    7.20    3.40 
   8   2   2    5.00    5.00 
   8   2   2    2.20    2.60 
   8   2   2    2.10    2.10 
  -9  -2  -2  306.07   19.40 
   9   2   2  302.87   15.50 
   9   2   2  300.97   19.90 
   7  -3  -2   29.70    5.40 
   7  -3  -2   23.00    5.70 
  -7   3   2   27.50    6.30 
  -7   3   2   33.70    7.40 
   6  -3  -2   -0.20    1.60 
   6  -3  -2   -2.80    1.60 
   6  -3  -2   -3.70    3.40 
  -6   3   2    1.60    3.30 
  -6   3   2   -2.90    1.80 
   5  -3  -2   50.49    8.00 
   5  -3  -2   50.09    7.60 
   5  -3  -2   47.80    5.20 
  -5   3   2   47.80    7.10 
   4  -3  -2  282.67   15.00 
   4  -3  -2  314.37   14.70 
   4  -3  -2  308.77   12.70 
  -4   3   2  269.17   18.50 
  -4   3   2  281.07   14.40 
  -4   3   2  295.87   13.90 
   3  -3  -2   71.69    6.50 
   3  -3  -2   77.79    6.00 
   3  -3  -2   67.59    5.10 
  -3   3   2   72.69    6.60 
  -3   3   2   66.49    6.20 
  -3   3   2   94.59    5.80 
   1  -3  -2 4160.48   96.19 
   1  -3  -2 4313.67   94.29 
   1  -3  -2 4096.89   98.19 
  -1   3   2 4171.98   93.99 
  -1   3   2 4249.98   97.19 
  -1   3   2 4271.37   97.79 
   0  -3  -2  139.99    7.50 
   0  -3  -2  148.89    5.30 
   0  -3  -2  139.69    6.70 
   0   3   2  144.29    4.90 
   0   3   2  138.59    7.00 
   0   3   2  133.59    7.20 
  -1  -3  -2  209.48    9.70 
  -1  -3  -2  209.18    6.50 
  -1  -3  -2  218.18    9.10 
   1   3   2  216.98    9.30 
   1   3   2  213.98    6.00 
   1   3   2  203.78    9.40 
  -2  -3  -2  333.87   12.80 
  -2  -3  -2  331.77   13.40 
   2   3   2  349.37   13.00 
   2   3   2  327.17    9.50 
   2   3   2  323.07    8.90 
  -3  -3  -2  496.95   18.20 
  -3  -3  -2  503.65   19.10 
  -3  -3  -2  508.55   14.50 
   3   3   2  506.65   17.90 
   3   3   2  508.45   19.20 
   3   3   2  534.55   13.80 
  -4  -3  -2 7026.30  158.38 
  -4  -3  -2 7061.59  164.18 
  -4  -3  -2 7344.67  165.78 
   4   3   2 7197.18  156.78 
   4   3   2 7071.69  166.08 
   4   3   2 6967.90  162.88 
  -5  -3  -2  178.38   11.80 
  -5  -3  -2  189.08   11.80 
  -5  -3  -2  184.18    9.10 
   5   3   2  189.28    8.00 
   5   3   2  181.08   11.20 
  -6  -3  -2  384.96   19.60 
  -6  -3  -2  410.86   16.40 
  -6  -3  -2  412.76   20.20 
   6   3   2  396.16   21.20 
   6   3   2  427.66   19.10 
   6   3   2  411.86   14.50 
  -7  -3  -2  166.48   13.00 
  -7  -3  -2  167.78   10.70 
   7   3   2  176.18    9.30 
   7   3   2  176.48   14.90 
   7   3   2  158.28   12.10 
  -8  -3  -2    0.70    2.90 
   8   3   2    8.20    3.90 
   8   3   2    1.00    2.90 
   8   3   2    6.10    2.40 
  -9  -3  -2    1.80    3.60 
   9   3   2    5.50    2.80 
   9   3   2   11.70    5.10 
   7  -4  -2   10.40    4.80 
   7  -4  -2    6.50    3.20 
  -7   4   2   11.00    3.80 
  -7   4   2   10.90    4.70 
   6  -4  -2   50.69    6.00 
   6  -4  -2   40.40    7.20 
  -6   4   2   38.60    7.50 
  -6   4   2   52.09    8.00 
   5  -4  -2   13.30    3.50 
   5  -4  -2    7.50    3.50 
   5  -4  -2   16.40    4.70 
  -5   4   2   13.60    4.20 
  -5   4   2   20.60    4.70 
   4  -4  -2   46.80    5.80 
   4  -4  -2   68.09    5.80 
   4  -4  -2   45.40    6.50 
  -4   4   2   70.29    6.90 
  -4   4   2   60.99    5.50 
  -4   4   2   42.80    5.90 
   3  -4  -2  249.38   12.20 
   3  -4  -2  240.18   13.50 
   3  -4  -2  262.57   11.20 
  -3   4   2  241.38   12.60 
  -3   4   2  256.57   10.90 
  -3   4   2  249.97   13.20 
   2  -4  -2   41.60    4.30 
   2  -4  -2   46.50    5.30 
   2  -4  -2   36.60    3.60 
  -2   4   2   45.00    4.80 
  -2   4   2   46.20    5.00 
  -2   4   2   40.30    3.60 
   1  -4  -2   16.10    2.90 
   1  -4  -2   12.40    2.80 
   1  -4  -2   20.90    2.60 
  -1   4   2   14.30    2.90 
  -1   4   2   15.90    3.20 
  -1   4   2   15.40    2.30 
   0  -4  -2  151.58    8.90 
   0  -4  -2  177.98    6.90 
   0  -4  -2  135.49    7.60 
   0   4   2  157.28    8.70 
   0   4   2  139.99    8.10 
   0   4   2  147.99    5.80 
  -1  -4  -2 1776.12   46.50 
  -1  -4  -2 1709.83   41.10 
  -1  -4  -2 1675.43   44.30 
   1   4   2 1688.53   45.10 
   1   4   2 1730.73   45.80 
   1   4   2 1725.93   39.80 
  -2  -4  -2  474.25   17.50 
   2   4   2  472.95   13.50 
   2   4   2  491.75   17.80 
   2   4   2  486.65   13.70 
   2   4   2  524.85   19.00 
  -3  -4  -2 2201.18   57.79 
  -3  -4  -2 2280.17   59.49 
   3   4   2 2260.37   51.39 
   3   4   2 2210.08   52.79 
   3   4   2 2161.18   59.19 
   3   4   2 2233.38   57.59 
  -4  -4  -2   87.69    5.30 
  -4  -4  -2   87.09    7.50 
  -4  -4  -2   97.29    8.30 
   4   4   2   88.49    7.20 
   4   4   2   96.19    4.80 
  -5  -4  -2    9.50    3.60 
  -5  -4  -2    8.20    2.00 
  -5  -4  -2    2.80    2.00 
   5   4   2    5.90    1.70 
   5   4   2   11.60    3.50 
   5   4   2    3.20    2.70 
  -6  -4  -2   66.39    8.00 
  -6  -4  -2   77.59    6.40 
  -6  -4  -2   71.89    8.40 
   6   4   2   73.19    8.80 
   6   4   2   72.19    5.10 
   6   4   2   76.49    7.60 
  -7  -4  -2   16.10    5.10 
  -7  -4  -2   17.70    5.00 
  -7  -4  -2   21.60    4.20 
   7   4   2   16.60    3.10 
   7   4   2    8.90    4.10 
   7   4   2   14.10    4.50 
  -8  -4  -2   29.80    7.20 
   8   4   2   43.00    4.90 
   8   4   2   43.70    9.40 
   8   4   2   29.90    6.20 
  -9  -4  -2   42.00    7.70 
   9   4   2   50.69    5.70 
   9   4   2   45.70    8.30 
   6  -5  -2  349.27   18.20 
   6  -5  -2  381.86   22.30 
  -6   5   2  382.66   21.00 
  -6   5   2  358.36   21.00 
   5  -5  -2    4.90    2.50 
   5  -5  -2    8.80    3.60 
   5  -5  -2   12.20    4.70 
  -5   5   2   10.30    4.30 
  -5   5   2    7.80    3.40 
   4  -5  -2   54.09    6.40 
   4  -5  -2   53.39    6.40 
   4  -5  -2   62.49    7.80 
  -4   5   2   48.70    6.60 
  -4   5   2   66.89    7.90 
   3  -5  -2  164.58    9.50 
   3  -5  -2  163.98   10.10 
   3  -5  -2  155.98   11.50 
  -3   5   2  161.78   11.20 
  -3   5   2  152.08    8.60 
  -3   5   2  153.48   10.80 
   2  -5  -2  241.38   13.90 
   2  -5  -2  230.88   10.80 
   2  -5  -2  228.48   11.50 
  -2   5   2  226.78   12.70 
  -2   5   2  221.88    9.80 
  -2   5   2  239.38   12.70 
   1  -5  -2 1238.78   33.80 
   1  -5  -2 1215.88   35.40 
   1  -5  -2 1260.27   38.60 
  -1   5   2 1236.28   37.20 
  -1   5   2 1281.07   32.30 
  -1   5   2 1281.67   37.50 
   0  -5  -2 1408.66   36.70 
   0  -5  -2 1333.67   41.10 
   0   5   2 1457.85   40.60 
   0   5   2 1442.26   40.70 
  -1  -5  -2  212.28   12.00 
  -1  -5  -2  213.08   10.90 
  -1  -5  -2  227.88    9.20 
   1   5   2  203.98   11.20 
   1   5   2  225.58    8.00 
   1   5   2  197.18   11.30 
  -2  -5  -2   54.59    4.00 
  -2  -5  -2   57.39    5.60 
  -2  -5  -2   66.19    6.60 
   2   5   2   60.49    3.80 
   2   5   2   54.39    5.60 
   2   5   2   53.89    5.80 
  -3  -5  -2  155.28   10.40 
  -3  -5  -2  143.49   10.30 
   3   5   2  160.58    6.80 
   3   5   2  177.78   11.20 
   3   5   2  156.48    7.30 
   3   5   2  147.59    9.80 
  -4  -5  -2  160.38   11.70 
  -4  -5  -2  176.08   11.40 
   4   5   2  168.88    8.40 
   4   5   2  171.78   11.90 
   4   5   2  166.58    7.30 
   4   5   2  176.38   11.00 
  -5  -5  -2  366.46   19.20 
  -5  -5  -2  348.97   17.80 
   5   5   2  372.56   19.60 
   5   5   2  342.47   17.10 
   5   5   2  356.66   12.40 
   5   5   2  357.46   14.80 
  -6  -5  -2    5.60    3.20 
  -6  -5  -2    3.00    2.40 
  -6  -5  -2    2.00    1.60 
   6   5   2    4.50    1.70 
   6   5   2    0.40    1.90 
  -7  -5  -2   22.80    6.20 
  -7  -5  -2   21.10    4.30 
  -7  -5  -2   30.40    6.60 
   7   5   2   31.20    6.00 
   7   5   2   23.40    3.70 
   7   5   2   30.40    9.80 
  -8  -5  -2   25.70    7.20 
   8   5   2   29.60    6.30 
   8   5   2   20.40    3.90 
  -9  -5  -2   17.40    6.30 
   9   5   2   15.70    4.80 
   9   5   2    8.30    3.00 
   6  -6  -2   35.30    6.50 
  -6   6   2   33.20    7.40 
   5  -6  -2  241.98   14.60 
   5  -6  -2  231.88   17.70 
  -5   6   2  244.58   16.30 
  -5   6   2  247.68   16.70 
   4  -6  -2  343.67   19.80 
   4  -6  -2  275.77   15.90 
   4  -6  -2  279.37   15.00 
  -4   6   2  289.07   17.40 
  -4   6   2  291.17   17.20 
   3  -6  -2  905.81   37.30 
   3  -6  -2  926.51   31.30 
   3  -6  -2  915.21   30.20 
  -3   6   2  940.01   33.50 
  -3   6   2  884.91   32.70 
   2  -6  -2  833.62   26.50 
   2  -6  -2  785.32   27.00 
   2  -6  -2  823.12   31.00 
  -2   6   2  793.82   29.10 
  -2   6   2  754.62   28.60 
  -2   6   2  716.23   30.60 
   1  -6  -2    1.90    1.60 
   1  -6  -2    1.40    2.30 
   1  -6  -2   -1.60    1.10 
  -1   6   2   -0.70    1.00 
  -1   6   2    0.70    0.90 
  -1   6   2    1.30    1.70 
   0  -6  -2   45.30    6.10 
   0  -6  -2   42.10    4.90 
   0  -6  -2   40.20    4.20 
   0   6   2   40.10    3.40 
   0   6   2   38.90    6.30 
   0   6   2   42.10   10.10 
  -1  -6  -2    2.90    2.00 
  -1  -6  -2    1.00    1.50 
  -1  -6  -2    2.50    1.10 
   1   6   2    2.20    1.80 
   1   6   2    2.60    1.20 
   1   6   2    5.30    2.40 
  -2  -6  -2 1502.05   39.70 
  -2  -6  -2 1534.45   46.50 
  -2  -6  -2 1492.15   43.50 
   2   6   2 1519.45   37.90 
   2   6   2 1479.55   44.40 
  -3  -6  -2 1287.37   41.90 
  -3  -6  -2 1316.97   40.20 
   3   6   2 1319.17   34.10 
   3   6   2 1309.47   41.70 
   3   6   2 1301.17   40.40 
   3   6   2 1269.77   34.10 
  -4  -6  -2  271.27   16.20 
  -4  -6  -2  261.57   14.80 
   4   6   2  269.67   11.60 
   4   6   2  272.87   16.00 
   4   6   2  266.07   10.50 
   4   6   2  251.47   14.50 
  -5  -6  -2  298.47   18.00 
  -5  -6  -2  288.57   16.60 
   5   6   2  296.87   16.10 
   5   6   2  289.97   17.80 
   5   6   2  305.47   11.60 
   5   6   2  285.97   13.10 
  -6  -6  -2   97.99   10.40 
  -6  -6  -2   87.19    9.30 
   6   6   2   72.69    5.30 
   6   6   2   87.99    8.90 
   6   6   2   68.59    6.70 
   6   6   2   82.39    9.80 
  -7  -6  -2   10.60    5.50 
  -7  -6  -2    5.80    3.50 
   7   6   2    1.60    2.90 
   7   6   2    2.30    1.70 
   7   6   2    8.50    3.30 
   7   6   2   -1.90    2.90 
  -8  -6  -2    7.90    4.30 
   8   6   2    7.10    3.20 
   8   6   2    2.30    3.10 
   5  -7  -2  742.33   35.30 
   5  -7  -2  673.53   29.50 
  -5   7   2  672.63   31.40 
   4  -7  -2   34.60    6.20 
   4  -7  -2   60.69   10.40 
  -4   7   2   34.30    6.40 
  -4   7   2   39.20    8.20 
   3  -7  -2  139.49   12.70 
   3  -7  -2  134.79   10.10 
   3  -7  -2  141.49   10.90 
  -3   7   2  127.19   11.50 
  -3   7   2  150.18   12.30 
   2  -7  -2    4.00    2.80 
   2  -7  -2    0.10    1.60 
  -2   7   2    1.80    1.80 
  -2   7   2    0.10    1.90 
   1  -7  -2   80.49    7.30 
   1  -7  -2   68.39    6.60 
   1  -7  -2   73.99    8.70 
  -1   7   2   75.99    6.00 
  -1   7   2   76.99    8.20 
  -1   7   2   71.59    7.80 
   0  -7  -2  587.94   22.70 
   0  -7  -2  556.94   27.20 
   0  -7  -2  592.24   21.50 
   0   7   2  563.34   23.80 
   0   7   2  601.44   24.80 
   0   7   2  570.84   18.40 
  -1  -7  -2 1454.35   40.40 
  -1  -7  -2 1400.16   42.50 
  -1  -7  -2 1418.86   46.20 
   1   7   2 1419.86   36.80 
   1   7   2 1403.86   45.00 
   1   7   2 1413.36   44.40 
  -2  -7  -2  257.87   17.50 
  -2  -7  -2  261.37   12.30 
  -2  -7  -2  240.08   13.90 
   2   7   2  244.68   14.90 
   2   7   2  260.77   10.60 
   2   7   2  279.57   15.60 
  -3  -7  -2  445.96   20.40 
   3   7   2  414.56   16.70 
   3   7   2  451.05   15.70 
   3   7   2  447.16   21.30 
   3   7   2  431.96   20.70 
  -4  -7  -2    3.20    2.00 
  -4  -7  -2   -0.30    1.90 
   4   7   2    1.10    1.90 
   4   7   2   -1.00    1.10 
   4   7   2    0.60    1.50 
   4   7   2    1.10    1.10 
  -5  -7  -2  151.68   13.40 
  -5  -7  -2  138.09   11.70 
   5   7   2  141.99   12.60 
   5   7   2  142.79    8.90 
   5   7   2  169.68   12.40 
   5   7   2  145.99    7.90 
  -6  -7  -2    2.20    2.00 
  -6  -7  -2    1.70    3.70 
   6   7   2    4.90    3.20 
   6   7   2   -0.70    1.10 
   6   7   2    2.00    3.10 
   6   7   2    3.90    2.60 
  -7  -7  -2   -3.20    4.00 
  -7  -7  -2    6.10    3.70 
   7   7   2    1.30    1.60 
   7   7   2    0.80    2.30 
   7   7   2   -4.60    2.50 
  -8  -7  -2   13.60    6.10 
   8   7   2    3.40    2.00 
   8   7   2    6.40    4.20 
   4  -8  -2  370.86   20.40 
   4  -8  -2  377.36   24.80 
  -4   8   2  370.36   23.10 
   3  -8  -2  168.18   15.60 
   3  -8  -2  178.48   15.70 
   3  -8  -2  173.78   12.80 
  -3   8   2  153.18   13.70 
  -3   8   2  203.78   15.30 
   2  -8  -2    0.40    3.00 
   2  -8  -2    6.80    3.00 
   2  -8  -2    6.70    2.70 
  -2   8   2    8.40    4.00 
  -2   8   2    5.70    3.80 
   1  -8  -2  417.26   19.40 
   1  -8  -2  447.46   20.30 
   1  -8  -2  443.26   23.90 
  -1   8   2  444.26   22.60 
  -1   8   2  433.46   21.80 
  -1   8   2  426.76   16.60 
   0  -8  -2  167.38   11.10 
   0  -8  -2  168.68   11.60 
   0  -8  -2  189.88   14.40 
   0   8   2  181.18   13.00 
   0   8   2  171.48   13.20 
   0   8   2  164.88    9.50 
  -1  -8  -2    1.00    3.00 
  -1  -8  -2   -1.40    1.90 
  -1  -8  -2    3.20    1.90 
   1   8   2    0.60    1.50 
   1   8   2    2.60    2.20 
   1   8   2    2.10    2.00 
  -2  -8  -2  509.15   20.50 
  -2  -8  -2  551.94   23.40 
  -2  -8  -2  522.45   26.00 
   2   8   2  508.55   24.10 
   2   8   2  555.04   24.80 
   2   8   2  528.85   17.80 
  -3  -8  -2   24.80    4.40 
  -3  -8  -2   22.80    4.80 
  -3  -8  -2   21.00    5.30 
   3   8   2   31.60    6.70 
   3   8   2   22.90    3.90 
   3   8   2   25.60    6.10 
   3   8   2   27.70    4.10 
  -4  -8  -2  249.88   17.60 
  -4  -8  -2  245.68   15.80 
   4   8   2  233.78   11.50 
   4   8   2  213.48   15.80 
   4   8   2  234.68   11.30 
   4   8   2  236.58   15.90 
  -5  -8  -2   98.89   11.30 
  -5  -8  -2  115.19   11.00 
   5   8   2  100.19    7.00 
   5   8   2  106.29   11.30 
   5   8   2  121.39   11.10 
   5   8   2   98.49    7.40 
  -6  -8  -2   -1.10    2.80 
  -6  -8  -2   -0.90    3.40 
   6   8   2    1.60    3.50 
   6   8   2   -2.40    2.00 
   6   8   2   -0.80    1.40 
   6   8   2   -0.40    2.30 
  -7  -8  -2  100.19   11.90 
  -7  -8  -2   81.39   11.00 
   7   8   2   88.09   10.50 
   7   8   2   76.49    8.30 
   7   8   2   83.99    6.40 
  -8  -8  -2  150.08   16.30 
   8   8   2  144.49   13.60 
   8   8   2  144.89    8.80 
   3  -9  -2  244.28   16.50 
   3  -9  -2  228.68   19.20 
  -3   9   2  250.57   18.60 
   2  -9  -2   35.90    6.60 
   2  -9  -2   59.89   10.10 
  -2   9   2   32.70    7.60 
   1  -9  -2   16.40    5.40 
   1  -9  -2   13.50    4.10 
   1  -9  -2   21.00    4.50 
  -1   9   2   20.70    5.60 
  -1   9   2   11.40    4.50 
   0  -9  -2    5.40    3.80 
   0  -9  -2    4.30    2.40 
   0   9   2    6.10    3.00 
   0   9   2   -1.10    3.40 
  -1  -9  -2  512.35   27.30 
  -1  -9  -2  515.45   22.30 
  -1  -9  -2  521.95   23.80 
   1   9   2  513.05   18.40 
   1   9   2  559.64   26.60 
   1   9   2  524.25   25.50 
  -2  -9  -2   88.79   11.00 
  -2  -9  -2   93.89    8.30 
  -2  -9  -2  107.49   10.00 
   2   9   2  110.99   11.20 
   2   9   2   89.19   10.10 
   2   9   2   79.69    6.40 
  -3  -9  -2   71.99    8.70 
  -3  -9  -2   64.89   10.40 
  -3  -9  -2   76.79    7.60 
   3   9   2   73.39    9.30 
   3   9   2   70.59    5.90 
   3   9   2   68.29    8.70 
  -4  -9  -2   85.19   13.10 
  -4  -9  -2   93.79   10.30 
   4   9   2   77.29    6.80 
   4   9   2   89.89    7.10 
   4   9   2   88.89   10.60 
   4   9   2   98.79   10.30 
  -5  -9  -2   35.30    7.20 
  -5  -9  -2   64.49   10.80 
   5   9   2   52.89    5.70 
   5   9   2   46.20    8.00 
   5   9   2   41.50    5.10 
  -6  -9  -2    2.40    2.60 
  -6  -9  -2   11.30    4.20 
   6   9   2    3.40    1.90 
   6   9   2    1.10    2.70 
   6   9   2    0.90    2.60 
  -7  -9  -2   25.20    8.50 
   7   9   2   17.30    3.50 
   7   9   2   28.90    6.20 
   2 -10  -2   22.40    5.70 
  -2  10   2   20.40    6.20 
   1 -10  -2   42.00    8.20 
   1 -10  -2   49.50    9.90 
  -1  10   2   32.10    7.20 
   0 -10  -2  138.29   11.80 
   0 -10  -2  123.99   11.20 
   0 -10  -2  129.59   13.70 
   0  10   2  131.89   12.80 
  -1 -10  -2   13.30    3.90 
  -1 -10  -2    1.60    4.50 
  -1 -10  -2    7.80    3.50 
   1  10   2   14.50    4.40 
  -2 -10  -2    4.30    3.50 
  -2 -10  -2    0.50    2.40 
  -2 -10  -2    0.50    2.50 
   2  10   2    2.50    3.10 
   2  10   2    1.10    2.30 
  -3 -10  -2  224.98   18.20 
  -3 -10  -2  217.88   15.60 
  -3 -10  -2  224.68   13.70 
   3  10   2  204.58   16.40 
   3  10   2  209.58   11.00 
  -4 -10  -2   -4.70    3.20 
  -4 -10  -2   -5.80    3.30 
   4  10   2    5.60    3.60 
   4  10   2    0.60    1.90 
  -5 -10  -2    4.90    4.50 
  -5 -10  -2    2.50    4.40 
   5  10   2    1.30    1.90 
   5  10   2    6.60    3.20 
   5  10   2   -2.80    3.40 
  -6 -10  -2   87.29   12.30 
   6  10   2   49.60    8.80 
   6  10   2   73.09    6.90 
   6  10   2   71.59    7.80 
   0 -11  -2   18.70    7.30 
   0 -11  -2   19.10    6.10 
   0  11   2   26.30    6.50 
  -1 -11  -2    4.00    5.10 
  -1 -11  -2   11.40    4.60 
   1  11   2    9.30    6.60 
  -2 -11  -2   64.09   10.90 
  -2 -11  -2   73.89    8.70 
   2  11   2  108.89   11.90 
  -3 -11  -2   12.30    4.50 
  -3 -11  -2   13.90    4.60 
   3  11   2   17.50    5.80 
  -4 -11  -2   57.39   10.70 
   4  11   2   84.89    8.70 
   4  11   2   83.19   11.00 
  -5 -11  -2   -3.50    3.40 
   5  11   2    0.10    2.50 
   5  11   2   -4.50    3.70 
  -4 -10   3   29.50    7.00 
  -3 -10   3   20.50    5.80 
  -3 -10   3   21.70    9.70 
  -3 -10   3   12.20    5.80 
  -2 -10   3   -4.80    3.40 
  -2 -10   3   -0.40    3.80 
  -2 -10   3    1.80    3.30 
  -1 -10   3    3.70    5.50 
  -1 -10   3   19.80    5.90 
   6   9  -3   15.40    4.40 
  -6  -9   3   -0.10    5.60 
   5   9  -3  156.78   12.50 
   5   9  -3  154.18   12.50 
  -5  -9   3  162.78   15.00 
  -5  -9   3  138.19   13.20 
   4   9  -3  178.88   13.90 
   4   9  -3  165.28   13.30 
  -4  -9   3  175.98   15.10 
  -4  -9   3  144.39   12.60 
   3   9  -3  136.29   11.90 
  -3  -9   3  155.98   12.60 
  -3  -9   3  168.08   14.60 
  -3  -9   3  149.99   13.60 
   2   9  -3   79.89    8.80 
  -2  -9   3   85.39   10.00 
  -2  -9   3   85.69    9.00 
  -2  -9   3   70.79   10.80 
   1   9  -3   19.40    4.70 
  -1  -9   3   43.20    8.50 
  -1  -9   3   25.90    6.60 
  -1  -9   3   21.50    4.80 
   0   9  -3   38.30    6.80 
   0  -9   3   33.70    5.90 
   0  -9   3   38.60    7.60 
   0  -9   3   49.99    9.40 
  -1   9  -3  102.39   10.80 
   1  -9   3   82.99   10.80 
   1  -9   3   84.19    9.80 
   1  -9   3   92.29   11.40 
   7   8  -3    5.70    2.80 
  -7  -8   3    5.80    3.70 
   6   8  -3   -2.30    1.90 
   6   8  -3   -2.60    2.40 
  -6  -8   3   -1.40    3.00 
  -6  -8   3   -2.30    2.50 
   5   8  -3   -2.80    2.30 
   5   8  -3   -5.80    2.10 
  -5  -8   3    5.30    3.30 
  -5  -8   3   -1.40    2.60 
   4   8  -3   95.69    9.60 
   4   8  -3  101.39    9.40 
  -4  -8   3  104.49   11.00 
  -4  -8   3  100.49   10.00 
   3   8  -3    1.60    2.00 
  -3  -8   3    5.80    3.70 
  -3  -8   3   -1.50    2.20 
  -3  -8   3    2.40    2.60 
   2   8  -3    6.80    3.00 
  -2  -8   3    5.90    2.60 
  -2  -8   3    9.30    3.10 
  -2  -8   3   12.60    4.20 
   1   8  -3  121.19   10.40 
  -1  -8   3  117.69   10.90 
  -1  -8   3  118.59   11.30 
  -1  -8   3   93.99    8.80 
   0   8  -3   83.89    9.10 
   0  -8   3   79.79    9.60 
   0  -8   3   96.29   10.30 
   0  -8   3   77.79    8.00 
  -1   8  -3   15.50    5.60 
   1  -8   3    9.20    4.50 
   1  -8   3   15.70    3.80 
   1  -8   3   15.40    4.70 
  -2   8  -3  204.98   15.70 
   2  -8   3  214.08   16.70 
   2  -8   3  239.68   17.50 
   2  -8   3  197.68   13.80 
   3  -8   3    9.30    6.40 
   3  -8   3    4.70    4.20 
   3  -8   3   13.30    5.90 
   7   7  -3   47.90    7.80 
   7   7  -3   49.40    7.80 
  -7  -7   3   40.10    7.30 
  -7  -7   3   28.10    7.40 
   6   7  -3   13.40    4.00 
   6   7  -3   21.40    4.50 
  -6  -7   3   23.70    5.60 
  -6  -7   3   17.40    5.90 
   5   7  -3  140.39   10.80 
   5   7  -3  142.69   11.10 
  -5  -7   3  156.78   12.30 
  -5  -7   3  148.29   13.20 
   4   7  -3  183.28   12.90 
   4   7  -3  197.78   12.40 
  -4  -7   3  190.08   13.10 
  -4  -7   3  201.48   14.40 
   3   7  -3  347.37   16.90 
   3   7  -3  336.57   21.50 
  -3  -7   3  341.17   26.00 
  -3  -7   3  324.77   25.40 
  -3  -7   3  345.57   17.30 
   2   7  -3  180.88   11.60 
  -2  -7   3  162.28   13.50 
  -2  -7   3  172.68   13.00 
  -2  -7   3  175.58   11.60 
   1   7  -3  129.89    9.90 
  -1  -7   3  137.49   12.70 
  -1  -7   3  132.79   11.20 
  -1  -7   3  133.79    9.70 
   0   7  -3   36.70    6.50 
   0  -7   3   54.09    6.90 
   0  -7   3   42.30    6.50 
   0  -7   3   49.00   10.50 
  -1   7  -3  335.87   18.80 
   1  -7   3  342.47   19.50 
   1  -7   3  341.57   19.80 
   1  -7   3  340.37   16.60 
  -2   7  -3   14.10    4.00 
   2  -7   3   20.50    5.20 
   2  -7   3   14.80    4.70 
   2  -7   3   13.70    3.60 
  -3   7  -3   26.80    5.20 
   3  -7   3   19.30    5.60 
   3  -7   3   29.40    5.70 
   3  -7   3   18.70    4.60 
  -4   7  -3   20.80    6.20 
   4  -7   3   19.50    5.80 
   4  -7   3   19.60    5.20 
   4  -7   3   23.40    5.70 
   8   6  -3   32.30    6.00 
  -8  -6   3   44.40    7.70 
  -8  -6   3   12.20    7.10 
   7   6  -3   50.29    6.90 
   7   6  -3   53.59    6.70 
  -7  -6   3   57.69    9.30 
  -7  -6   3   45.30    8.90 
   6   6  -3   53.79    6.80 
   6   6  -3   59.19    6.90 
  -6  -6   3   56.19    7.40 
  -6  -6   3   60.79    8.50 
   5   6  -3    5.80    2.70 
   5   6  -3   -0.60    1.80 
  -5  -6   3   -0.60    2.00 
  -5  -6   3   -0.30    1.80 
   4   6  -3   17.70    4.70 
   4   6  -3   20.00    4.10 
   4   6  -3   14.30    3.70 
  -4  -6   3   19.50    4.40 
  -4  -6   3   13.90    4.10 
   3   6  -3 1259.07   38.90 
   3   6  -3 1303.77   40.90 
   3   6  -3 1271.37   40.00 
   3   6  -3 1284.87   38.30 
  -3  -6   3 1245.38   41.40 
   2   6  -3  146.19    9.60 
   2   6  -3  124.09    8.80 
   2   6  -3  132.29    9.90 
  -2  -6   3  128.09   10.20 
  -2  -6   3  128.79   10.40 
   1   6  -3   52.39    5.80 
   1   6  -3   44.20    5.00 
   1   6  -3   49.00    5.60 
  -1  -6   3   61.49    6.70 
  -1  -6   3   42.10    6.90 
   0   6  -3 1241.28   38.90 
   0   6  -3 1282.97   38.40 
   0   6  -3 1292.17   38.40 
   0  -6   3 1308.37   42.20 
   0  -6   3 1325.47   41.60 
   0  -6   3 1217.08   37.40 
  -1   6  -3  239.98   16.80 
  -1   6  -3  252.77   14.20 
   1  -6   3  247.38   15.10 
   1  -6   3  255.17   12.90 
   1  -6   3  233.88   14.50 
  -2   6  -3   69.19    7.40 
   2  -6   3   62.09    6.40 
   2  -6   3   61.79    9.10 
   2  -6   3   61.99    7.40 
  -3   6  -3  446.56   21.50 
   3  -6   3  465.85   23.00 
   3  -6   3  416.06   19.50 
   3  -6   3  444.66   22.90 
  -4   6  -3   16.40    4.20 
   4  -6   3   16.60    5.10 
   4  -6   3   19.20    5.40 
   4  -6   3   13.40    4.70 
  -5   6  -3    3.10    3.40 
   5  -6   3    1.90    3.30 
   5  -6   3    6.00    4.40 
   5  -6   3   11.20    6.20 
   8   5  -3   99.29    8.70 
   8   5  -3   80.79    9.70 
  -8  -5   3   92.89   11.20 
  -8  -5   3   83.89   10.60 
   7   5  -3    0.10    2.20 
   7   5  -3    5.10    4.20 
  -7  -5   3    3.30    2.70 
  -7  -5   3    6.40    3.50 
   6   5  -3  327.77   16.30 
   6   5  -3  336.57   16.50 
  -6  -5   3  311.07   18.60 
  -6  -5   3  328.67   18.20 
   5   5  -3  646.94   23.60 
   5   5  -3  651.83   26.90 
   5   5  -3  669.83   24.80 
  -5  -5   3  613.84   25.30 
  -5  -5   3  652.13   27.10 
   4   5  -3  542.05   21.90 
   4   5  -3  594.94   22.50 
   4   5  -3  553.44   20.50 
   4   5  -3  541.85   23.20 
  -4  -5   3  561.54   23.40 
   3   5  -3  367.36   15.30 
   3   5  -3  389.96   17.10 
   3   5  -3  383.86   17.60 
   3   5  -3  377.76   16.40 
  -3  -5   3  367.86   17.20 
  -3  -5   3  333.87   15.50 
   2   5  -3    8.00    2.70 
   2   5  -3    8.30    3.00 
   2   5  -3    6.90    2.20 
  -2  -5   3    6.70    2.40 
  -2  -5   3    7.00    2.70 
  -2  -5   3    7.40    2.20 
   1   5  -3    7.70    2.30 
   1   5  -3    9.00    2.90 
   1   5  -3   10.20    2.80 
  -1  -5   3    8.40    2.80 
  -1  -5   3    9.30    3.10 
  -1  -5   3    5.30    2.00 
   0   5  -3  125.39    8.10 
   0   5  -3  118.39    8.10 
   0   5  -3  113.79    7.90 
   0  -5   3  103.99    8.30 
   0  -5   3  126.49    9.80 
  -1   5  -3   96.09    9.50 
  -1   5  -3  102.29    7.40 
  -1   5  -3  105.49    8.00 
   1  -5   3   98.79    7.10 
   1  -5   3  101.19    8.50 
   1  -5   3   97.89    8.50 
  -2   5  -3 2404.36   74.59 
  -2   5  -3 2658.73   68.49 
   2  -5   3 2663.63   67.19 
   2  -5   3 2698.23   71.39 
   2  -5   3 2662.23   70.89 
  -3   5  -3   39.50    5.40 
   3  -5   3   34.80    5.90 
   3  -5   3   28.20    5.80 
   3  -5   3   28.40    5.40 
  -4   5  -3  263.47   15.50 
   4  -5   3  277.57   16.70 
   4  -5   3  236.08   14.40 
   4  -5   3  254.77   16.20 
  -5   5  -3   15.40    4.40 
   5  -5   3   25.70    6.80 
   5  -5   3   14.00    5.10 
   5  -5   3   17.50    4.80 
  -6   5  -3  199.58   16.00 
   6  -5   3  179.98   14.70 
   6  -5   3  193.78   16.40 
   8   4  -3   52.89    6.30 
   8   4  -3   65.89    8.50 
  -8  -4   3   40.20    7.40 
  -8  -4   3   62.49   10.00 
   7   4  -3  272.97   15.50 
   7   4  -3  270.17   14.60 
  -7  -4   3  282.17   17.80 
  -7  -4   3  273.27   17.10 
   6   4  -3  228.78   13.90 
   6   4  -3  236.88   13.20 
  -6  -4   3  238.98   15.20 
  -6  -4   3  222.78   14.30 
   5   4  -3  337.17   15.70 
   5   4  -3  344.47   15.30 
   5   4  -3  365.26   18.40 
   5   4  -3  349.47   17.50 
  -5  -4   3  359.06   17.10 
  -5  -4   3  362.36   18.10 
   4   4  -3  146.29   10.40 
   4   4  -3  145.39    8.50 
   4   4  -3  145.69    9.60 
   4   4  -3  146.89    9.60 
  -4  -4   3  152.68   10.40 
   3   4  -3  291.57   13.20 
   3   4  -3  290.27   13.90 
   3   4  -3  306.77   12.50 
   3   4  -3  313.17   15.00 
  -3  -4   3  294.37   13.30 
  -3  -4   3  318.17   14.50 
   2   4  -3   13.50    2.70 
   2   4  -3   12.10    2.50 
   2   4  -3   15.40    3.30 
  -2  -4   3   15.70    3.60 
  -2  -4   3   11.20    2.60 
  -2  -4   3   13.50    3.20 
   1   4  -3 4113.59   94.89 
   1   4  -3 4030.70   94.99 
   1   4  -3 4065.69   97.79 
  -1  -4   3 4012.30   95.09 
  -1  -4   3 4089.99   99.19 
  -1  -4   3 4108.39   97.19 
   0   4  -3 2338.77   60.19 
   0   4  -3 2380.76   59.19 
   0   4  -3 2422.26   58.69 
   0  -4   3 2362.26   58.39 
   0  -4   3 2356.46   62.29 
   0  -4   3 2373.56   60.49 
  -1   4  -3 1733.53   45.60 
  -1   4  -3 1770.42   46.10 
  -1   4  -3 1661.53   45.70 
   1  -4   3 1739.73   48.60 
   1  -4   3 1723.33   47.20 
  -2   4  -3   57.99    5.30 
  -2   4  -3   52.59    5.50 
  -2   4  -3   56.99    5.60 
   2  -4   3   52.39    5.20 
   2  -4   3   59.39    6.10 
   2  -4   3   61.89    6.40 
  -3   4  -3  899.41   29.70 
  -3   4  -3  882.21   29.60 
  -3   4  -3  903.71   27.50 
   3  -4   3  921.41   31.50 
   3  -4   3  888.41   31.10 
   3  -4   3  857.71   28.70 
  -4   4  -3  355.16   17.10 
   4  -4   3  354.46   17.00 
   4  -4   3  347.87   17.80 
   4  -4   3  322.27   17.90 
  -5   4  -3    4.30    3.30 
   5  -4   3    5.80    3.60 
   5  -4   3    5.00    3.30 
   5  -4   3    1.70    2.50 
  -6   4  -3    5.90    3.80 
   6  -4   3   14.60    4.70 
   6  -4   3    8.10    5.00 
   6  -4   3    4.20    3.20 
   8   3  -3   96.09   10.10 
   8   3  -3   98.99    8.50 
  -8  -3   3  100.69   11.30 
  -8  -3   3   95.69   10.30 
   7   3  -3   79.99    8.40 
   7   3  -3   72.49    6.90 
  -7  -3   3   96.29    9.40 
  -7  -3   3   81.89    9.10 
   6   3  -3  221.18   12.20 
  -6  -3   3  223.38   14.20 
  -6  -3   3  216.08   13.60 
   5   3  -3  177.48   10.10 
   5   3  -3  177.58   10.40 
   5   3  -3  172.18   11.20 
  -5  -3   3  176.18   11.10 
  -5  -3   3  169.18   10.90 
  -5  -3   3  192.28   12.10 
   4   3  -3   79.69    5.90 
   4   3  -3   88.69    6.80 
   4   3  -3   80.09    7.60 
   4   3  -3   77.89    6.70 
  -4  -3   3   81.29    7.00 
  -4  -3   3   81.99    6.80 
   3   3  -3  356.36   14.20 
   3   3  -3  349.67   14.50 
   3   3  -3  371.06   13.10 
   3   3  -3  354.76   15.80 
  -3  -3   3  388.76   15.30 
  -3  -3   3  340.07   13.80 
   2   3  -3  963.30   29.50 
   2   3  -3  953.30   26.60 
   2   3  -3  976.90   25.90 
  -2  -3   3  933.71   26.60 
   1   3  -3   83.19    4.90 
   1   3  -3   88.69    6.50 
   1   3  -3   80.49    4.90 
  -1  -3   3   90.89    5.80 
  -1  -3   3   78.49    5.00 
   0   3  -3  199.58    8.50 
   0   3  -3  185.28    9.50 
   0   3  -3  188.98    8.10 
   0  -3   3  178.18    8.70 
   0  -3   3  195.28    8.20 
  -1   3  -3  185.58    9.10 
  -1   3  -3  181.38    8.60 
  -1   3  -3  178.78    8.60 
   1  -3   3  189.28    9.30 
   1  -3   3  175.78   10.00 
  -2   3  -3   58.59    5.10 
  -2   3  -3   60.49    4.90 
  -2   3  -3   69.79    5.50 
   2  -3   3   60.29    5.80 
   2  -3   3   57.59    4.70 
   2  -3   3   59.79    5.60 
  -3   3  -3  973.70   30.30 
  -3   3  -3  945.91   29.70 
  -3   3  -3 1002.80   28.60 
   3  -3   3  942.71   29.70 
   3  -3   3 1005.60   31.80 
   3  -3   3  982.90   31.30 
  -4   3  -3  432.36   18.40 
  -4   3  -3  459.55   19.30 
  -4   3  -3  423.26   16.70 
   4  -3   3  447.86   19.20 
   4  -3   3  453.35   19.20 
   4  -3   3  473.15   20.60 
  -5   3  -3   19.00    4.20 
   5  -3   3   27.40    5.70 
   5  -3   3   14.40    4.40 
   5  -3   3   11.00    3.80 
  -6   3  -3   90.69    9.00 
   6  -3   3   98.89   10.60 
   6  -3   3   87.99    8.40 
   6  -3   3   84.69    9.60 
  -7   3  -3   62.59    8.70 
   7  -3   3   38.40    7.20 
   7  -3   3   43.50    9.30 
   7  -3   3   37.50    8.20 
   8   2  -3   10.30    3.90 
   8   2  -3    4.00    2.30 
  -8  -2   3   10.00    3.90 
  -8  -2   3   20.30    6.30 
   7   2  -3   12.70    3.70 
   7   2  -3   18.50    4.00 
  -7  -2   3   26.50    5.20 
  -7  -2   3   12.90    4.20 
   6   2  -3  872.91   29.70 
   6   2  -3  894.51   28.40 
   6   2  -3  833.32   32.50 
  -6  -2   3  876.61   31.30 
  -6  -2   3  908.71   31.50 
   5   2  -3  102.39    7.50 
   5   2  -3  105.19    9.00 
   5   2  -3   95.59    7.10 
  -5  -2   3  106.69    8.40 
  -5  -2   3  102.19   10.20 
  -5  -2   3  111.09    8.10 
   4   2  -3    9.50    2.40 
   4   2  -3    7.40    2.10 
   4   2  -3    8.60    2.30 
  -4  -2   3    7.80    2.30 
  -4  -2   3    7.50    2.40 
   3   2  -3  189.98    9.10 
   3   2  -3  182.28   10.20 
   3   2  -3  177.58    7.80 
   3   2  -3  171.58    9.00 
  -3  -2   3  180.78    9.20 
  -3  -2   3  172.78    9.20 
  -3  -2   3  169.18    8.40 
   2   2  -3 1314.77   33.30 
   2   2  -3 1321.17   36.90 
   2   2  -3 1336.77   35.60 
   2   2  -3 1320.97   32.20 
  -2  -2   3 1298.77   34.10 
  -2  -2   3 1319.57   33.40 
   1   2  -3  640.94   16.70 
   1   2  -3  648.14   16.60 
   1   2  -3  554.44   22.90 
  -1  -2   3  645.14   17.90 
  -1  -2   3  667.23   21.00 
  -1  -2   3  625.64   17.30 
   0   2  -3 4423.06   98.29 
   0   2  -3 4307.87  101.79 
   0  -2   3 4438.46   98.29 
   0  -2   3 4384.26   98.99 
   0  -2   3 4432.86  102.79 
  -1   2  -3  728.03   20.30 
  -1   2  -3  747.23   21.70 
  -1   2  -3  740.03   20.30 
   1  -2   3  750.92   22.80 
   1  -2   3  735.93   19.90 
   1  -2   3  666.43   21.10 
  -2   2  -3  106.39    5.90 
  -2   2  -3  108.89    6.10 
  -2   2  -3  103.39    6.20 
   2  -2   3  109.19    6.80 
  -3   2  -3    6.70    2.00 
  -3   2  -3    1.00    1.10 
   3  -2   3    3.60    1.70 
   3  -2   3    0.70    1.20 
   3  -2   3    5.90    2.10 
  -4   2  -3  160.68    9.60 
  -4   2  -3  174.28   10.50 
  -4   2  -3  180.48    9.20 
   4  -2   3  184.28   11.30 
   4  -2   3  173.98   10.10 
   4  -2   3  177.78   10.90 
  -5   2  -3  546.75   22.70 
  -5   2  -3  543.45   21.40 
   5  -2   3  522.55   21.10 
   5  -2   3  562.84   23.70 
   5  -2   3  547.05   23.50 
  -6   2  -3   99.09    8.90 
   6  -2   3   91.09    9.40 
   6  -2   3   87.89    9.80 
   6  -2   3   82.99    8.00 
  -7   2  -3    1.80    3.60 
   7  -2   3    7.30    3.40 
   7  -2   3    5.50    4.20 
   7  -2   3    2.30    3.60 
   8   1  -3   58.59    6.60 
   8   1  -3   72.39    8.60 
  -8  -1   3   51.99    8.60 
  -8  -1   3   63.69    8.30 
   7   1  -3  120.89   10.50 
   7   1  -3  114.19    8.40 
  -7  -1   3  130.89   11.10 
  -7  -1   3  113.79   10.00 
   6   1  -3    4.90    2.60 
   6   1  -3    2.00    1.90 
   6   1  -3    5.20    2.50 
  -6  -1   3    4.70    2.30 
  -6  -1   3    3.50    2.10 
   5   1  -3    5.20    2.20 
   5   1  -3    8.40    2.60 
   5   1  -3    3.40    2.10 
  -5  -1   3    3.40    3.80 
  -5  -1   3    5.80    2.40 
  -5  -1   3    5.20    2.00 
   4   1  -3    5.60    2.00 
   4   1  -3    3.60    1.70 
   4   1  -3    4.10    1.80 
  -4  -1   3    1.30    1.40 
  -4  -1   3    1.10    1.30 
   3   1  -3  823.12   22.30 
   3   1  -3  786.72   23.40 
   3   1  -3  773.92   23.60 
  -3  -1   3  763.82   23.30 
  -3  -1   3  769.22   22.60 
  -3  -1   3  812.32   24.50 
   2   1  -3  428.46   12.00 
   2   1  -3  431.96   14.40 
  -2  -1   3  405.96   13.20 
  -2  -1   3  422.06   12.60 
  -2  -1   3  384.86   15.00 
   1   1  -3 1637.44   41.10 
   1   1  -3 1604.84   35.60 
   1   1  -3 1565.94   39.90 
   1   1  -3 1607.64   35.40 
  -1  -1   3 1595.44   36.70 
   0   1  -3  752.32   21.20 
   0   1  -3  731.53   17.20 
   0   1  -3  741.73   17.00 
   0  -1   3  759.82   21.60 
   0  -1   3  731.73   18.00 
   0  -1   3  733.33   17.80 
  -1   1  -3  654.53   18.60 
  -1   1  -3  638.14   17.10 
  -1   1  -3  669.33   17.10 
   1  -1   3  650.33   19.40 
   1  -1   3  643.34   17.70 
   1  -1   3  635.04   17.00 
  -2   1  -3  332.47   11.20 
  -2   1  -3  288.47   15.40 
  -2   1  -3  315.77   11.50 
   2  -1   3  331.57   12.20 
   2  -1   3  341.17   12.30 
  -3   1  -3  966.80   27.20 
  -3   1  -3  946.41   25.70 
  -3   1  -3  959.20   28.00 
   3  -1   3  926.71   27.30 
   3  -1   3  966.80   28.50 
   3  -1   3  965.70   28.60 
  -4   1  -3   28.90    3.20 
  -4   1  -3   32.60    4.10 
  -4   1  -3   35.00    4.40 
   4  -1   3   32.10    3.80 
   4  -1   3   41.10    6.10 
   4  -1   3   33.20    4.60 
  -5   1  -3    0.70    1.80 
  -5   1  -3    1.40    2.10 
  -5   1  -3    1.50    1.70 
   5  -1   3   -1.10    1.80 
   5  -1   3    0.50    2.40 
   5  -1   3    0.60    1.60 
  -6   1  -3   29.80    5.50 
   6  -1   3   41.70    5.20 
   6  -1   3   40.70    7.30 
   6  -1   3   34.70    6.80 
  -7   1  -3  163.48   12.30 
   7  -1   3  166.68   11.40 
   7  -1   3  156.78   13.50 
   7  -1   3  177.38   15.10 
  -8   1  -3   29.20    6.80 
   8  -1   3   42.20    9.40 
   8  -1   3   35.20    7.30 
   8  -1   3   39.60    9.10 
   8   0  -3  175.28   14.40 
   8   0  -3  168.28   11.40 
  -8   0   3  191.18   14.90 
  -8   0   3  160.08   13.00 
   7   0  -3  101.29    8.00 
   7   0  -3  101.69   10.20 
  -7   0   3   93.19    9.40 
  -7   0   3   97.99    9.40 
   6   0  -3  409.96   20.60 
   6   0  -3  389.26   16.70 
   6   0  -3  415.86   19.20 
  -6   0   3  423.96   19.30 
  -6   0   3  431.56   18.70 
   5   0  -3  504.45   19.60 
   5   0  -3  467.95   17.50 
   5   0  -3  483.15   20.70 
  -5   0   3  476.95   19.30 
  -5   0   3  489.35   19.70 
  -5   0   3  505.95   19.30 
   4   0  -3  425.56   16.00 
   4   0  -3  413.06   15.20 
   4   0  -3  404.36   16.70 
  -4   0   3  407.56   16.20 
  -4   0   3  412.46   15.70 
  -4   0   3  412.56   15.90 
   3   0  -3  747.13   22.00 
   3   0  -3  711.83   22.50 
   3   0  -3  787.42   22.10 
  -3   0   3  770.92   22.10 
  -3   0   3  717.53   22.60 
   2   0  -3 1833.22   42.40 
   2   0  -3 1812.62   43.70 
   2   0  -3 1803.72   43.00 
  -2   0   3 1807.72   42.70 
  -2   0   3 1733.83   42.20 
  -2   0   3 1721.93   44.20 
   1   0  -3  330.97   10.80 
   1   0  -3  330.17    8.00 
  -1   0   3  307.67   10.70 
  -1   0   3  316.87    8.60 
  -1   0   3  330.47    8.70 
  -1   0  -3  363.56   10.00 
  -1   0  -3  370.66   11.20 
  -1   0  -3  372.26   10.50 
   1   0   3  385.26   10.70 
   1   0   3  357.06   10.70 
   1   0   3  384.56   11.80 
  -2   0  -3 2637.34   60.89 
   2   0   3 2614.94   61.59 
  -3   0  -3  635.14   20.20 
  -3   0  -3  638.54   19.50 
  -3   0  -3  571.34   17.60 
   3   0   3  647.94   18.70 
   3   0   3  647.74   20.20 
   3   0   3  635.84   21.10 
  -4   0  -3   78.19    6.10 
  -4   0  -3   71.39    4.70 
  -4   0  -3   75.49    6.30 
   4   0   3   73.79    6.70 
   4   0   3   75.79    5.30 
   4   0   3   67.89    6.00 
  -5   0  -3  123.99    9.20 
  -5   0  -3  123.49    7.20 
  -5   0  -3  125.99    8.70 
   5   0   3  114.09    9.00 
   5   0   3  117.69    9.90 
   5   0   3  122.79    7.50 
  -6   0  -3 1666.23   50.99 
  -6   0  -3 1675.73   45.50 
  -6   0  -3 1654.03   48.60 
   6   0   3 1754.82   51.29 
   6   0   3 1680.83   46.00 
   6   0   3 1611.64   56.79 
  -7   0  -3    1.50    2.10 
   7   0   3    5.00    2.50 
   7   0   3    1.90    2.90 
   7   0   3    1.50    2.30 
  -8   0  -3   47.10    9.00 
   8   0   3   45.80    8.00 
   8   0   3   60.89   17.60 
   8   0   3   56.19    6.70 
   8  -1  -3  171.48   11.70 
   8  -1  -3  180.48   15.00 
  -8   1   3  159.28   15.10 
  -8   1   3  196.48   14.30 
   7  -1  -3   11.20    4.10 
  -7   1   3    7.30    4.20 
  -7   1   3    9.10    3.50 
   6  -1  -3   27.20    5.60 
   6  -1  -3   31.40    4.90 
   6  -1  -3   32.90    9.70 
  -6   1   3   28.20    4.80 
  -6   1   3   28.60    4.90 
   5  -1  -3  105.89    9.30 
   5  -1  -3   96.09    8.20 
   5  -1  -3  110.99    7.20 
  -5   1   3  101.59    7.90 
  -5   1   3   89.99    7.60 
  -5   1   3  100.29    7.70 
   4  -1  -3   22.90    4.10 
   4  -1  -3   25.90    4.60 
   4  -1  -3   23.70    3.60 
  -4   1   3   32.50    4.00 
  -4   1   3   28.70    3.80 
  -4   1   3   25.30    4.20 
   3  -1  -3 1485.35   39.90 
   3  -1  -3 1571.94   38.60 
   3  -1  -3 1493.95   39.80 
  -3   1   3 1535.55   39.10 
   2  -1  -3  236.38    9.20 
   2  -1  -3  240.48    8.90 
  -2   1   3  236.18    9.40 
  -2   1   3  223.78    9.00 
  -2   1   3  274.57    9.10 
   0  -1  -3  539.95   12.80 
   0  -1  -3  529.65   13.90 
   0  -1  -3  557.24   14.70 
   0  -1  -3  537.25   13.40 
   0   1   3  535.35   13.60 
   0   1   3  515.65   13.90 
  -1  -1  -3  103.59    4.50 
  -1  -1  -3  103.29    3.90 
  -1  -1  -3  115.89    4.80 
   1   1   3  106.59    4.30 
   1   1   3  109.09    5.10 
   1   1   3  109.49    4.70 
  -2  -1  -3  236.58    9.30 
  -2  -1  -3  231.28    9.30 
  -2  -1  -3  250.97    7.30 
   2   1   3  262.37    8.10 
   2   1   3  248.58    9.30 
  -3  -1  -3   68.89    5.30 
  -3  -1  -3   71.99    5.30 
  -3  -1  -3   80.99    4.00 
   3   1   3   74.79    5.30 
   3   1   3   78.09    4.20 
   3   1   3   71.59    5.80 
  -4  -1  -3  752.72   24.00 
  -4  -1  -3  758.92   20.60 
  -4  -1  -3  750.72   24.50 
   4   1   3  647.14   22.70 
   4   1   3  733.03   25.90 
   4   1   3  730.33   23.80 
  -5  -1  -3 2508.35   64.39 
  -5  -1  -3 2456.85   65.59 
  -5  -1  -3 2474.55   60.09 
   5   1   3 2452.05   67.89 
   5   1   3 2457.95   59.99 
   5   1   3 2438.06   64.59 
  -6  -1  -3  151.48    9.60 
  -6  -1  -3  154.08   11.30 
  -6  -1  -3  161.58   11.10 
   6   1   3  163.98    8.90 
   6   1   3  164.48   14.40 
   6   1   3  150.48   11.10 
  -7  -1  -3  133.99   11.00 
   7   1   3  123.99   10.90 
   7   1   3  137.29    9.10 
   7   1   3  115.59   12.00 
  -8  -1  -3  134.89   11.50 
   8   1   3  121.99   15.70 
   8   1   3  119.99   11.70 
   8   1   3  126.19    9.70 
   8  -2  -3   18.00    6.20 
   8  -2  -3   13.00    3.80 
  -8   2   3   20.10    5.50 
  -8   2   3    7.60    5.60 
   7  -2  -3   88.89    9.70 
   7  -2  -3   79.39    7.60 
  -7   2   3   93.69    9.30 
  -7   2   3   90.29    9.60 
   6  -2  -3  747.43   29.80 
   6  -2  -3  757.72   25.80 
  -6   2   3  792.62   28.50 
  -6   2   3  738.93   28.90 
   5  -2  -3  264.47   12.00 
   5  -2  -3  251.27   14.40 
   5  -2  -3  251.87   14.50 
  -5   2   3  277.57   13.80 
  -5   2   3  268.77   13.60 
  -5   2   3  279.67   14.40 
   4  -2  -3   88.99    7.10 
   4  -2  -3   86.69    6.00 
   4  -2  -3   84.39    7.40 
  -4   2   3   92.69    7.20 
  -4   2   3   81.29    6.50 
  -4   2   3   84.59    6.60 
   3  -2  -3 2467.35   62.49 
   3  -2  -3 2584.14   59.59 
   3  -2  -3 2460.75   61.19 
  -3   2   3 2463.75   61.99 
  -3   2   3 2528.15   60.89 
  -3   2   3 2408.06   60.69 
   2  -2  -3 1256.07   31.70 
   2  -2  -3 1269.17   30.80 
   2  -2  -3 1248.28   33.00 
  -2   2   3 1259.97   31.80 
  -2   2   3 1052.29   34.00 
   1  -2  -3  541.55   15.00 
   1  -2  -3  529.25   16.30 
  -1   2   3  520.25   15.50 
  -1   2   3  539.25   15.00 
   0  -2  -3  356.86    9.30 
   0  -2  -3  366.16   10.80 
   0  -2  -3  348.77   11.60 
   0   2   3  349.27   11.70 
   0   2   3  352.56    9.70 
   0   2   3  367.66   11.40 
  -2  -2  -3 3464.65   72.69 
  -2  -2  -3 3027.00   78.49 
  -2  -2  -3 3412.96   77.79 
   2   2   3 3203.48   72.79 
   2   2   3 3493.95   77.69 
  -3  -2  -3    0.50    1.00 
  -3  -2  -3    0.60    0.70 
  -3  -2  -3    0.50    0.60 
   3   2   3    3.10    0.80 
   3   2   3    2.00    1.20 
   3   2   3    2.10    1.20 
  -4  -2  -3  110.59    5.60 
  -4  -2  -3  105.39    7.60 
  -4  -2  -3  115.39    8.10 
   4   2   3  111.39    8.80 
   4   2   3  103.29    5.20 
   4   2   3  105.69    7.40 
  -5  -2  -3   37.90    3.70 
  -5  -2  -3   35.70    5.00 
  -5  -2  -3   27.90    4.70 
   5   2   3   35.80    3.50 
   5   2   3   39.10    6.60 
   5   2   3   40.70    5.20 
  -6  -2  -3    7.30    3.50 
  -6  -2  -3    9.70    2.80 
  -6  -2  -3   10.00    3.40 
   6   2   3   13.90    4.30 
   6   2   3    8.90    3.20 
   6   2   3    7.70    2.30 
  -7  -2  -3  604.04   22.40 
  -7  -2  -3  628.94   25.80 
  -7  -2  -3  526.55   34.60 
   7   2   3  580.14   28.90 
   7   2   3  617.54   26.00 
   7   2   3  575.24   20.50 
  -8  -2  -3    7.90    3.50 
   8   2   3   15.50    5.90 
   8   2   3   16.50    3.60 
   8   2   3   10.60    6.30 
   7  -3  -3   47.10    8.80 
   7  -3  -3   49.60    5.90 
  -7   3   3   29.60    6.30 
  -7   3   3   65.99    8.30 
   6  -3  -3   92.79    9.90 
   6  -3  -3   91.79    7.70 
  -6   3   3  106.29    9.40 
  -6   3   3   71.79    8.40 
   5  -3  -3  263.47   15.40 
   5  -3  -3  258.87   15.10 
  -5   3   3  267.07   14.20 
  -5   3   3  261.87   14.70 
   4  -3  -3  364.86   14.00 
   4  -3  -3  303.57   15.80 
   4  -3  -3  341.97   15.60 
  -4   3   3  359.26   16.20 
  -4   3   3  359.36   15.50 
  -4   3   3  311.07   16.30 
   3  -3  -3   34.30    4.50 
   3  -3  -3   32.40    3.90 
   3  -3  -3   34.90    3.50 
  -3   3   3   31.40    4.10 
  -3   3   3   32.20    4.00 
  -3   3   3   28.30    3.40 
   2  -3  -3 1892.91   51.29 
   2  -3  -3 2005.90   52.09 
   2  -3  -3 2041.00   49.80 
  -2   3   3 2039.50   51.39 
  -2   3   3 2052.39   48.80 
  -2   3   3 1993.50   52.39 
   1  -3  -3  820.42   20.80 
   1  -3  -3  853.21   24.80 
   1  -3  -3  802.42   22.70 
  -1   3   3  813.02   21.20 
  -1   3   3  782.92   23.30 
  -1   3   3  791.22   23.70 
   0  -3  -3 2708.13   63.49 
   0  -3  -3 2743.23   60.19 
   0   3   3 2645.84   60.19 
   0   3   3 2700.73   64.29 
  -1  -3  -3   36.20    3.70 
  -1  -3  -3   40.60    1.60 
  -1  -3  -3   37.40    3.40 
   1   3   3   38.70    3.80 
   1   3   3   41.00    1.40 
   1   3   3   43.90    3.80 
  -2  -3  -3  274.87   11.30 
  -2  -3  -3  288.37   12.20 
   2   3   3  246.18   10.90 
   2   3   3  262.87    6.50 
  -3  -3  -3    3.80    1.70 
  -3  -3  -3    3.30    1.00 
  -3  -3  -3    6.20    2.20 
   3   3   3    7.10    2.20 
   3   3   3    6.00    0.90 
   3   3   3    2.80    1.70 
  -4  -3  -3 1879.41   52.29 
  -4  -3  -3 1877.31   45.50 
  -4  -3  -3 1957.20   51.99 
   4   3   3 1839.92   52.99 
   4   3   3 1862.41   50.49 
   4   3   3 1948.91   44.40 
  -5  -3  -3  261.07   14.40 
  -5  -3  -3  262.37   11.00 
  -5  -3  -3  281.47   15.20 
   5   3   3  276.27   10.40 
   5   3   3  295.97   16.30 
   5   3   3  285.37   14.20 
  -6  -3  -3 1791.12   47.20 
  -6  -3  -3 1747.73   53.59 
  -6  -3  -3 1873.01   53.79 
   6   3   3 1699.93   55.59 
   6   3   3 1813.32   45.00 
   6   3   3 1776.12   51.69 
  -7  -3  -3   28.20    5.70 
  -7  -3  -3   42.80    5.10 
  -7  -3  -3   26.60    6.00 
   7   3   3   38.30    4.10 
   7   3   3   43.00    8.40 
   7   3   3   46.70    7.60 
  -8  -3  -3   46.70    8.40 
   8   3   3   52.89    5.40 
   8   3   3   27.90   10.50 
   8   3   3   45.90    7.90 
   7  -4  -3   50.79    7.70 
   7  -4  -3   51.09    9.80 
  -7   4   3   37.30    7.00 
  -7   4   3   37.20    6.40 
   6  -4  -3    9.30    3.30 
   6  -4  -3   14.70    4.80 
  -6   4   3    6.90    5.00 
  -6   4   3    7.50    3.50 
   5  -4  -3  502.95   19.50 
   5  -4  -3  464.25   22.60 
   5  -4  -3  481.05   22.30 
  -5   4   3  476.15   21.50 
  -5   4   3  492.35   22.10 
   4  -4  -3   35.50    4.10 
   4  -4  -3   37.90    5.10 
   4  -4  -3   37.70    6.40 
  -4   4   3   38.80    5.20 
  -4   4   3   39.00    4.60 
  -4   4   3   31.50    5.80 
   3  -4  -3  226.48   10.00 
   3  -4  -3  202.08   10.90 
   3  -4  -3  209.18   12.60 
  -3   4   3  212.48   11.60 
  -3   4   3  208.48   11.90 
  -3   4   3  212.18   10.00 
   2  -4  -3  122.39    6.60 
   2  -4  -3  119.09    7.40 
   2  -4  -3  117.19    8.60 
  -2   4   3  125.79    8.00 
  -2   4   3  107.39    7.90 
  -2   4   3  121.99    6.50 
   1  -4  -3   37.90    3.80 
   1  -4  -3   46.90    5.00 
   1  -4  -3   42.10    3.20 
  -1   4   3   42.20    3.40 
  -1   4   3   36.60    4.20 
  -1   4   3   40.20    4.30 
   0  -4  -3  959.60   27.30 
   0  -4  -3  961.60   24.00 
   0  -4  -3  940.91   29.10 
   0   4   3  972.00   28.30 
   0   4   3  940.21   23.30 
   0   4   3  940.51   28.50 
  -1  -4  -3   71.89    3.40 
  -1  -4  -3   71.29    6.10 
  -1  -4  -3   67.49    5.70 
   1   4   3   71.69    5.90 
   1   4   3   68.59    2.80 
   1   4   3   72.39    5.70 
  -2  -4  -3   25.60    3.40 
   2   4   3   28.20    4.50 
   2   4   3   28.20    4.80 
   2   4   3   26.20    1.50 
   2   4   3   30.40    1.50 
  -3  -4  -3 2997.60   75.19 
  -3  -4  -3 2843.92   73.19 
   3   4   3 2955.70   65.09 
   3   4   3 2935.01   73.39 
   3   4   3 3015.30   75.69 
   3   4   3 2871.71   66.39 
  -4  -4  -3  279.97   10.00 
  -4  -4  -3  273.27   14.70 
  -4  -4  -3  262.67   14.00 
   4   4   3  274.17   13.50 
   4   4   3  291.37   15.30 
   4   4   3  282.07    8.80 
  -5  -4  -3  132.19   10.30 
  -5  -4  -3  122.99    9.80 
  -5  -4  -3  127.29    6.90 
   5   4   3  129.99    9.50 
   5   4   3  121.39    5.80 
   5   4   3  121.49   10.60 
  -6  -4  -3    2.00    2.60 
  -6  -4  -3   -1.40    1.20 
  -6  -4  -3    3.70    2.10 
   6   4   3    5.30    1.70 
   6   4   3   -0.30    1.80 
   6   4   3    2.00    2.50 
  -7  -4  -3  142.09   13.00 
  -7  -4  -3  135.19   11.60 
  -7  -4  -3  155.28   12.70 
   7   4   3  156.98   11.90 
   7   4   3  159.88    8.40 
   7   4   3  148.19   13.60 
  -8  -4  -3   11.40    5.20 
   8   4   3   20.70    6.00 
   8   4   3   25.90    4.90 
   8   4   3   16.00    5.40 
  -9  -4  -3   -0.20    4.90 
   9   4   3   -2.00    2.30 
   6  -5  -3   80.69   10.40 
   6  -5  -3   62.19    6.90 
  -6   5   3   80.29    9.20 
  -6   5   3   84.29    9.90 
   5  -5  -3    0.80    3.30 
   5  -5  -3    7.60    2.80 
  -5   5   3   -3.30    1.60 
  -5   5   3   -1.10    3.20 
   4  -5  -3  124.99   11.00 
   4  -5  -3  102.39    8.70 
   4  -5  -3   97.09   11.80 
  -4   5   3  100.89    9.10 
  -4   5   3  112.49    9.80 
   3  -5  -3   87.89    6.60 
   3  -5  -3   71.69    7.70 
   3  -5  -3   80.69    7.20 
  -3   5   3   81.09    7.80 
  -3   5   3   81.89    6.30 
  -3   5   3   93.59    8.20 
   2  -5  -3  830.52   30.20 
   2  -5  -3  867.91   25.50 
   2  -5  -3  888.21   27.50 
  -2   5   3  891.71   25.00 
  -2   5   3  868.31   29.30 
  -2   5   3  849.22   28.90 
   1  -5  -3    2.10    1.40 
   1  -5  -3    1.10    1.40 
   1  -5  -3    2.20    1.40 
  -1   5   3    3.20    1.30 
  -1   5   3    1.30    1.70 
  -1   5   3    3.10    1.80 
   0  -5  -3   80.49    6.20 
   0  -5  -3   92.79    5.20 
   0  -5  -3   91.19    7.60 
   0   5   3   88.79    4.40 
   0   5   3   84.49    7.00 
  -1  -5  -3   16.20    3.20 
  -1  -5  -3   19.40    2.20 
  -1  -5  -3   10.60    2.80 
   1   5   3   20.50    1.80 
   1   5   3   27.20    4.80 
   1   5   3   19.40    3.70 
  -2  -5  -3  584.54   21.40 
  -2  -5  -3  603.34   16.50 
   2   5   3  591.14   21.80 
   2   5   3  596.94   22.60 
   2   5   3  605.64   15.40 
  -3  -5  -3    6.90    2.50 
  -3  -5  -3    4.60    1.90 
   3   5   3   11.00    1.70 
   3   5   3    8.40    2.80 
   3   5   3    8.10    1.30 
   3   5   3    6.00    2.50 
  -4  -5  -3  635.14   25.80 
  -4  -5  -3  601.04   24.20 
   4   5   3  651.53   26.20 
   4   5   3  648.74   19.00 
   4   5   3  657.43   24.40 
   4   5   3  659.63   17.20 
  -5  -5  -3  129.39   10.30 
  -5  -5  -3  127.19   10.90 
   5   5   3  132.19    5.90 
   5   5   3  130.09   11.20 
   5   5   3  121.69    7.40 
   5   5   3  120.59    9.70 
  -6  -5  -3  147.69   11.90 
  -6  -5  -3  129.59    8.20 
  -6  -5  -3  141.59   12.10 
   6   5   3  133.09    6.70 
   6   5   3  163.18   13.50 
   6   5   3  136.89   10.90 
  -7  -5  -3   34.70    7.30 
  -7  -5  -3   30.50    6.50 
  -7  -5  -3   32.30    4.90 
   7   5   3   40.20    7.10 
   7   5   3   38.20    7.80 
   7   5   3   32.60    3.70 
  -8  -5  -3  206.88   16.30 
   8   5   3  219.18   10.70 
   8   5   3  232.88   18.70 
   8   5   3  204.48   14.80 
   6  -6  -3   80.09   11.30 
   6  -6  -3   75.99    8.20 
  -6   6   3   79.39   11.90 
  -6   6   3   89.59   10.30 
   5  -6  -3   12.30    3.70 
   5  -6  -3   12.80    4.50 
  -5   6   3   17.70    4.80 
  -5   6   3   12.00    4.90 
   4  -6  -3   61.99    8.30 
   4  -6  -3   62.59    6.70 
  -4   6   3   57.19    7.70 
  -4   6   3   69.89    8.40 
   3  -6  -3  269.97   13.30 
   3  -6  -3  253.77   14.00 
   3  -6  -3  289.77   17.40 
  -3   6   3  276.57   15.90 
  -3   6   3  279.07   16.20 
  -3   6   3  280.27   12.80 
   2  -6  -3  350.86   18.60 
   2  -6  -3  339.27   14.50 
   2  -6  -3  344.97   15.70 
  -2   6   3  352.26   13.50 
  -2   6   3  268.27   24.40 
  -2   6   3  386.26   18.20 
   1  -6  -3   81.59    8.40 
   1  -6  -3   91.59    7.10 
   1  -6  -3   84.39    6.20 
  -1   6   3   83.09    7.80 
  -1   6   3   87.59    5.50 
  -1   6   3   85.89    7.80 
   0  -6  -3   43.30    5.00 
   0  -6  -3   48.40    4.50 
   0  -6  -3   52.99    6.40 
   0   6   3   38.40    5.20 
   0   6   3   41.00    3.30 
   0   6   3   42.70    5.40 
  -1  -6  -3   -0.20    1.60 
  -1  -6  -3    1.20    1.20 
  -1  -6  -3    2.20    1.50 
   1   6   3    1.10    1.50 
   1   6   3    2.60    1.80 
   1   6   3   -0.70    0.60 
  -2  -6  -3  155.28   11.30 
  -2  -6  -3  146.89    9.80 
  -2  -6  -3  154.68    7.40 
   2   6   3  168.28    6.30 
   2   6   3  153.58   10.60 
   2   6   3  158.98   10.90 
  -3  -6  -3  286.27   16.20 
  -3  -6  -3  286.47   15.00 
   3   6   3  306.27   15.70 
   3   6   3  298.67   16.30 
   3   6   3  306.17   10.20 
   3   6   3  302.27   10.10 
  -4  -6  -3   58.79    7.60 
  -4  -6  -3   73.89    7.70 
   4   6   3   69.49    4.70 
   4   6   3   73.29    7.50 
   4   6   3   69.59    4.10 
   4   6   3   73.09    8.20 
  -5  -6  -3    1.30    2.40 
  -5  -6  -3   11.20    3.30 
   5   6   3    6.20    2.80 
   5   6   3    8.50    1.80 
   5   6   3    3.80    2.10 
   5   6   3    6.80    3.00 
  -6  -6  -3    0.40    1.80 
   6   6   3    3.90    2.20 
   6   6   3    5.00    1.60 
   6   6   3    1.90    2.30 
   6   6   3    5.30    3.00 
  -7  -6  -3    0.30    3.40 
  -7  -6  -3   -5.90    2.40 
   7   6   3    5.60    2.80 
   7   6   3    2.40    1.40 
   7   6   3   -2.40    2.00 
   7   6   3   -1.00    2.80 
  -8  -6  -3  137.19   10.00 
  -8  -6  -3  129.49   13.40 
   8   6   3  141.99    8.20 
   8   6   3  153.18   13.40 
   8   6   3  131.89   11.00 
   5  -7  -3  176.28   16.50 
   5  -7  -3  111.79   18.30 
  -5   7   3  178.38   14.70 
  -5   7   3  181.48   15.40 
   4  -7  -3   59.79    7.00 
   4  -7  -3   51.19    8.90 
  -4   7   3   58.99    9.60 
  -4   7   3   61.69    7.90 
   3  -7  -3  197.48   12.30 
   3  -7  -3  206.78   16.80 
   3  -7  -3  237.28   13.80 
  -3   7   3  213.88   15.20 
  -3   7   3  216.28   15.00 
   2  -7  -3   72.49    9.80 
   2  -7  -3   75.19    6.60 
   2  -7  -3   92.49    9.80 
  -2   7   3   81.29    6.20 
  -2   7   3   74.19    8.40 
  -2   7   3   70.09    8.40 
   1  -7  -3  783.52   28.30 
   1  -7  -3  843.52   27.30 
   1  -7  -3  855.91   33.10 
  -1   7   3  834.22   24.50 
  -1   7   3  827.02   30.80 
  -1   7   3  827.42   31.20 
   0  -7  -3  100.19    7.20 
   0  -7  -3  105.79    8.40 
   0  -7  -3  104.99   10.10 
   0   7   3  102.29    9.30 
   0   7   3  108.19    9.30 
   0   7   3  104.19    6.00 
  -1  -7  -3   43.40    4.50 
  -1  -7  -3   46.20    7.80 
  -1  -7  -3   44.50    6.70 
   1   7   3   38.20    3.30 
   1   7   3   33.40    5.60 
   1   7   3   46.20    6.00 
  -2  -7  -3  263.27   14.50 
  -2  -7  -3  255.77   16.00 
  -2  -7  -3  275.57   11.60 
   2   7   3  236.68   13.30 
   2   7   3  282.47   15.70 
   2   7   3  261.67   15.50 
  -3  -7  -3  756.22   31.20 
  -3  -7  -3  812.92   29.90 
   3   7   3  810.32   23.00 
   3   7   3  803.82   31.30 
   3   7   3  855.21   31.00 
   3   7   3  799.62   22.20 
  -4  -7  -3    5.90    3.10 
  -4  -7  -3    2.40    3.40 
   4   7   3    3.10    1.30 
   4   7   3    4.30    1.70 
   4   7   3    6.20    3.40 
   4   7   3    2.00    2.10 
  -5  -7  -3  708.73   29.50 
  -5  -7  -3  698.83   31.00 
   5   7   3  681.23   28.50 
   5   7   3  688.83   22.10 
   5   7   3  709.43   20.50 
   5   7   3  681.43   30.70 
  -6  -7  -3   10.10    3.80 
  -6  -7  -3    9.10    4.50 
   6   7   3   17.70    4.40 
   6   7   3    6.50    2.60 
   6   7   3   15.20    4.50 
  -7  -7  -3    7.40    4.00 
   7   7   3    4.50    4.00 
   7   7   3    1.90    2.50 
   7   7   3    3.10    3.30 
   7   7   3    2.90    1.60 
  -8  -7  -3    8.60    5.90 
   8   7   3   18.80    4.30 
   8   7   3    7.40    2.30 
   8   7   3    5.10    3.90 
   4  -8  -3   53.99   10.20 
   4  -8  -3   70.29    8.00 
  -4   8   3   61.09   11.00 
  -4   8   3   86.29   10.70 
   3  -8  -3   10.00    3.90 
   3  -8  -3   12.10    5.80 
  -3   8   3   12.40    4.80 
  -3   8   3   11.50    8.00 
   2  -8  -3   40.00    6.60 
   2  -8  -3   43.70    6.10 
   2  -8  -3   37.20    7.70 
  -2   8   3   36.20    6.70 
  -2   8   3   26.80    5.70 
   1  -8  -3   29.20    7.00 
   1  -8  -3   29.60    5.20 
   1  -8  -3   23.50    4.80 
  -1   8   3   20.30    5.30 
  -1   8   3   24.90    3.90 
  -1   8   3   34.70    6.40 
   0  -8  -3  792.82   29.10 
   0  -8  -3  835.92   27.80 
   0   8   3  821.12   32.20 
   0   8   3  765.82   23.50 
   0   8   3  774.62   31.00 
  -1  -8  -3   34.10    5.30 
  -1  -8  -3   18.30    6.50 
  -1  -8  -3   34.30    5.90 
   1   8   3   31.40    6.60 
   1   8   3   31.40    3.30 
   1   8   3   26.60    5.80 
  -2  -8  -3  211.28   13.60 
  -2  -8  -3  217.78   11.30 
   2   8   3  220.28    9.10 
   2   8   3  215.18   14.80 
   2   8   3  201.88   14.40 
  -3  -8  -3   89.79    8.70 
   3   8   3   81.19    9.30 
   3   8   3   96.79    9.50 
   3   8   3   83.49    5.40 
   3   8   3   88.29    6.90 
  -4  -8  -3  642.34   27.70 
  -4  -8  -3  629.74   29.40 
   4   8   3  661.53   20.10 
   4   8   3  570.84   26.80 
   4   8   3  660.43   28.30 
   4   8   3  641.54   29.20 
  -5  -8  -3    2.00    3.20 
  -5  -8  -3   -2.50    2.50 
   5   8   3   -4.50    1.90 
   5   8   3    3.10    2.60 
   5   8   3    4.20    1.90 
   5   8   3   -0.10    1.70 
  -6  -8  -3    1.60    3.90 
  -6  -8  -3    3.50    4.80 
   6   8   3    4.60    2.10 
   6   8   3   -0.50    1.10 
   6   8   3   -1.10    4.10 
   6   8   3    0.30    2.40 
  -7  -8  -3  149.29   14.80 
   7   8   3  120.39    7.00 
   7   8   3  125.59   11.90 
   7   8   3  114.79    9.00 
  -8  -8  -3   43.40    8.80 
   8   8   3   45.70    8.60 
   8   8   3   42.40    4.60 
   8   8   3   37.30    9.80 
   3  -9  -3   49.50    8.20 
   3  -9  -3   44.00    9.60 
  -3   9   3   39.40   10.10 
   2  -9  -3   10.40    3.90 
   2  -9  -3    8.60    4.70 
  -2   9   3    6.50    3.10 
  -2   9   3    5.70    4.00 
   1  -9  -3  143.09   11.00 
   1  -9  -3  146.39   13.80 
  -1   9   3  118.89   12.50 
  -1   9   3  130.29   15.90 
   0  -9  -3  150.38   11.00 
   0  -9  -3  166.98   12.00 
   0  -9  -3  190.18   15.90 
   0   9   3  162.88   13.70 
   0   9   3  165.58    9.00 
   0   9   3  164.48   13.20 
  -1  -9  -3  297.17   15.40 
  -1  -9  -3  299.17   20.20 
  -1  -9  -3  295.27   17.00 
   1   9   3  300.47   18.50 
   1   9   3  311.27   12.50 
   1   9   3  312.57   19.30 
  -2  -9  -3  223.58   12.50 
  -2  -9  -3  241.18   17.90 
  -2  -9  -3  252.77   21.80 
   2   9   3  215.88   15.90 
   2   9   3  238.18   10.30 
   2   9   3  219.28   15.90 
  -3  -9  -3  132.09    8.90 
  -3  -9  -3  121.49   12.90 
   3   9   3  138.09   12.60 
   3   9   3  119.09    8.00 
   3   9   3  152.28   12.80 
   3   9   3  130.49    7.30 
  -4  -9  -3  115.19   11.50 
  -4  -9  -3  146.99   13.80 
   4   9   3  116.39    7.40 
   4   9   3  117.09   11.60 
   4   9   3  127.19    7.30 
  -5  -9  -3  130.69   13.00 
  -5  -9  -3   97.79   11.00 
   5   9   3  106.09   11.60 
   5   9   3   97.99    6.90 
   5   9   3  114.59   12.40 
   5   9   3  117.49    7.20 
  -6  -9  -3   58.09   10.20 
   6   9   3   60.09    4.90 
   6   9   3   44.70    5.40 
  -7  -9  -3   12.90    6.70 
   7   9   3   38.90    7.80 
   7   9   3   26.10    3.30 
   2 -10  -3    1.90    4.30 
   2 -10  -3   -6.50    3.00 
  -2  10   3   -2.50    5.30 
   1 -10  -3    4.20    4.20 
   1 -10  -3   -2.20    2.30 
  -1  10   3   -2.20    3.70 
   0 -10  -3    9.80    4.80 
   0 -10  -3    4.20    3.00 
   0  10   3    4.70    4.40 
   0  10   3   -5.40    3.90 
  -1 -10  -3  104.79    9.30 
  -1 -10  -3  107.09   12.40 
   1  10   3  110.69    8.10 
   1  10   3  100.29   11.80 
   1  10   3  108.59   12.20 
  -2 -10  -3   58.79    7.00 
  -2 -10  -3   60.49    8.00 
  -2 -10  -3   88.19   11.20 
   2  10   3   62.29    5.20 
   2  10   3   48.90    8.10 
   2  10   3   59.69    9.90 
  -3 -10  -3    3.70    2.70 
  -3 -10  -3    4.60    3.10 
  -3 -10  -3   -1.80    2.70 
   3  10   3   -2.00    2.80 
   3  10   3   -0.90    1.90 
   3  10   3   -2.60    1.70 
   3  10   3   -1.60    2.80 
  -4 -10  -3   23.70    6.00 
   4  10   3   17.90    3.60 
   4  10   3   12.10    3.20 
   4  10   3   10.20    4.00 
  -5 -10  -3  120.59   13.70 
   5  10   3  114.89    7.50 
   5  10   3  113.19   12.60 
   5  10   3  128.69    8.20 
  -6 -10  -3   67.59   11.90 
   6  10   3   63.49    6.80 
   6  10   3   70.19    6.00 
   6  10   3   86.39   11.10 
   0 -11  -3   15.60    5.30 
   0 -11  -3   12.90    7.80 
   0  11   3   25.40    6.80 
  -1 -11  -3   35.10    9.00 
  -1 -11  -3   35.60    6.90 
   1  11   3   43.50    9.50 
  -2 -11  -3   34.00    8.70 
  -2 -11  -3   39.10    6.40 
   2  11   3   43.20    9.20 
  -3 -11  -3   64.19    7.60 
  -3 -11  -3   50.39   10.00 
   3  11   3   61.99    6.90 
   3  11   3   52.89    9.40 
   3  11   3   71.89    6.10 
  -4 -11  -3    5.80    4.20 
   4  11   3    1.40    2.20 
   4  11   3    5.30    2.60 
   4  11   3    2.30    3.70 
  -5 -11  -3   12.40    5.80 
   5  11   3   -5.60    3.50 
   5  11   3    1.60    2.70 
   5   9  -4   10.20    5.10 
  -5  -9   4   12.30    5.00 
  -5  -9   4    8.10    4.40 
   4   9  -4   17.70    5.00 
   4   9  -4    6.90    3.70 
  -4  -9   4    5.90    4.10 
  -4  -9   4    5.20    4.00 
   3   9  -4   33.60    6.80 
   3   9  -4   33.20    7.00 
  -3  -9   4   21.80    5.50 
  -3  -9   4   22.90    5.30 
  -3  -9   4   44.30    8.20 
   2   9  -4   45.30    7.60 
  -2  -9   4   42.60    8.00 
  -2  -9   4   49.10    9.00 
  -2  -9   4   54.69    7.60 
   1   9  -4   19.20    4.70 
  -1  -9   4    9.90    4.00 
  -1  -9   4   25.30    5.30 
  -1  -9   4    9.70    4.70 
   0  -9   4  145.89   12.30 
   0  -9   4  145.99   14.80 
   0  -9   4  162.18   14.90 
   1  -9   4  115.89   12.50 
   1  -9   4   96.19   10.70 
  -6  -8   4    5.30    3.60 
  -6  -8   4    3.70    4.20 
   5   8  -4    9.90    3.60 
   5   8  -4    4.50    3.10 
  -5  -8   4    9.00    3.60 
  -5  -8   4   -0.60    3.20 
   4   8  -4   14.50    4.20 
   4   8  -4   18.60    4.70 
  -4  -8   4   14.60    5.30 
   3   8  -4  133.09   10.40 
   3   8  -4  154.08   12.20 
  -3  -8   4  133.09   12.70 
  -3  -8   4  139.89   12.40 
   2   8  -4   32.90    6.00 
  -2  -8   4   23.10    6.20 
  -2  -8   4   25.50    6.10 
   1   8  -4   11.50    3.60 
  -1  -8   4    6.30    2.40 
  -1  -8   4    2.90    3.50 
  -1  -8   4   12.40    3.90 
   0   8  -4    5.70    3.10 
   0  -8   4   15.50    3.80 
   0  -8   4   13.70    5.00 
   0  -8   4    9.20    3.80 
  -1   8  -4   52.29    8.20 
   1  -8   4   77.39    8.10 
   1  -8   4   66.79   10.60 
   1  -8   4   76.99    9.30 
  -2   8  -4    3.10    3.90 
   2  -8   4    8.10    3.50 
   2  -8   4   -0.70    3.70 
   2  -8   4    2.70    3.80 
   7   7  -4   12.40    5.30 
  -7  -7   4   -1.30    4.50 
  -7  -7   4    5.20    4.50 
   6   7  -4    4.40    2.90 
   6   7  -4    1.40    2.50 
  -6  -7   4   -0.20    2.00 
  -6  -7   4    3.10    3.80 
   5   7  -4  165.28   11.10 
   5   7  -4  171.58   12.70 
  -5  -7   4  166.18   13.60 
   4   7  -4  234.28   13.20 
   4   7  -4  251.07   15.80 
  -4  -7   4  236.58   15.90 
  -4  -7   4  246.78   14.80 
   3   7  -4  205.08   12.10 
   3   7  -4  184.48   13.30 
  -3  -7   4  211.68   15.10 
  -3  -7   4  191.68   14.10 
  -3  -7   4  194.78   12.70 
   2   7  -4   25.80    4.80 
  -2  -7   4   23.00    5.00 
  -2  -7   4   15.90    4.10 
  -2  -7   4   25.00    5.50 
   1   7  -4    4.50    2.30 
  -1  -7   4    1.50    2.50 
  -1  -7   4    0.10    1.70 
  -1  -7   4    0.70    1.70 
   0   7  -4   17.20    4.40 
   0  -7   4   15.20    4.50 
   0  -7   4   17.90    4.80 
  -1   7  -4  106.19    9.50 
   1  -7   4   87.99   10.00 
   1  -7   4   96.59   10.10 
   1  -7   4   80.79    7.80 
  -2   7  -4  190.98   13.40 
   2  -7   4  169.38   14.30 
   2  -7   4  169.38   14.20 
   2  -7   4  196.58   12.60 
  -3   7  -4  199.98   14.60 
   3  -7   4  187.98   13.20 
   3  -7   4  214.78   16.80 
   4  -7   4    7.30    5.10 
   4  -7   4   -3.00    2.10 
   8   6  -4   51.19    7.80 
  -8  -6   4   50.69    9.80 
   7   6  -4   47.20    6.60 
   7   6  -4   36.00    6.30 
  -7  -6   4   53.89    9.30 
  -7  -6   4   43.90    8.40 
   6   6  -4    6.40    3.10 
   6   6  -4   12.60    4.10 
  -6  -6   4   15.40    4.70 
  -6  -6   4    6.70    2.90 
   5   6  -4    1.80    2.10 
   5   6  -4    0.80    2.20 
  -5  -6   4   -0.80    2.10 
   4   6  -4   60.19    7.10 
   4   6  -4   51.19    5.60 
  -4  -6   4   53.59    7.10 
  -4  -6   4   38.00    6.20 
   3   6  -4  298.87   16.50 
   3   6  -4  288.97   13.90 
  -3  -6   4  312.47   15.50 
   2   6  -4   53.79    5.60 
  -2  -6   4   61.39    6.20 
  -2  -6   4   54.29    7.10 
  -2  -6   4   58.99    6.60 
   1   6  -4  180.28   10.60 
  -1  -6   4  156.38   12.20 
  -1  -6   4  156.58   11.10 
  -1  -6   4  150.78    9.80 
   0   6  -4  245.98   13.20 
   0  -6   4  186.18   21.90 
   0  -6   4  242.28   12.40 
   0  -6   4  236.38   14.30 
  -1   6  -4    8.10    3.10 
   1  -6   4    9.80    3.50 
   1  -6   4    0.20    2.60 
  -2   6  -4  289.37   16.00 
   2  -6   4  304.27   17.40 
   2  -6   4  291.77   17.80 
   2  -6   4  290.87   14.90 
  -3   6  -4   81.69    9.10 
   3  -6   4   94.09    8.80 
   3  -6   4  125.99   11.40 
   3  -6   4  106.29   10.50 
  -4   6  -4    4.30    3.50 
   4  -6   4    4.20    3.60 
   4  -6   4    2.20    4.10 
   4  -6   4    5.60    3.30 
   8   5  -4    3.40    2.50 
  -8  -5   4    3.10    3.10 
  -8  -5   4   -4.40    4.20 
   7   5  -4   44.10    6.80 
   7   5  -4   48.60    6.30 
  -7  -5   4   25.90    6.00 
  -7  -5   4   26.60    6.40 
   6   5  -4  134.29    9.90 
   6   5  -4  138.29   10.70 
  -6  -5   4  145.39   12.20 
   5   5  -4  317.27   14.80 
   5   5  -4  347.77   17.00 
  -5  -5   4  308.07   16.40 
  -5  -5   4  328.37   18.00 
   4   5  -4  783.52   25.40 
   4   5  -4  830.52   29.30 
   4   5  -4  784.62   30.30 
  -4  -5   4  764.12   29.00 
  -4  -5   4  788.12   27.80 
   3   5  -4  352.96   15.30 
   3   5  -4  390.86   18.10 
   3   5  -4  357.16   17.90 
   3   5  -4  376.76   14.80 
  -3  -5   4  353.46   15.70 
  -3  -5   4  360.96   17.00 
   2   5  -4    9.80    2.50 
   2   5  -4   14.50    2.80 
   2   5  -4   11.70    3.00 
  -2  -5   4   14.60    4.00 
  -2  -5   4   15.40    3.40 
  -2  -5   4   14.90    3.50 
   1   5  -4  730.23   23.40 
   1   5  -4  744.23   23.80 
   1   5  -4  721.13   26.30 
  -1  -5   4  765.52   26.40 
  -1  -5   4  732.63   28.00 
  -1  -5   4  733.93   24.00 
   0   5  -4    1.10    1.10 
   0   5  -4    2.40    1.40 
   0   5  -4    1.10    1.90 
   0  -5   4    0.20    1.40 
   0  -5   4    1.60    1.30 
   0  -5   4    2.60    2.30 
  -1   5  -4   23.50    4.30 
  -1   5  -4   41.90    5.20 
  -1   5  -4   38.30    4.70 
   1  -5   4   30.10    5.10 
   1  -5   4   36.60    6.20 
   1  -5   4   40.90    4.40 
  -2   5  -4 1570.84   46.00 
   2  -5   4 1640.24   48.40 
   2  -5   4 1563.54   49.99 
  -3   5  -4   13.70    3.80 
   3  -5   4    9.90    3.90 
   3  -5   4    4.70    2.40 
   3  -5   4    9.90    3.30 
  -4   5  -4  106.99   10.20 
   4  -5   4  117.19   10.90 
   4  -5   4  118.19    9.70 
   4  -5   4  125.79   11.30 
  -5   5  -4  118.09   10.90 
   5  -5   4  107.39   11.10 
   5  -5   4  125.69   11.70 
   5  -5   4  104.39   11.20 
   8   4  -4    6.10    3.50 
   8   4  -4    4.80    3.20 
  -8  -4   4    5.90    3.90 
  -8  -4   4   -3.30    4.40 
   7   4  -4    7.50    3.00 
   7   4  -4   -0.90    2.20 
  -7  -4   4    2.90    2.70 
  -7  -4   4    1.70    2.20 
   6   4  -4  304.07   14.90 
   6   4  -4  314.97   15.90 
  -6  -4   4  289.77   17.20 
   5   4  -4  136.89    8.70 
   5   4  -4  144.19   10.10 
  -5  -4   4  132.09   10.10 
  -5  -4   4  132.99   10.50 
   4   4  -4    6.60    3.00 
   4   4  -4    5.80    2.10 
   4   4  -4    6.60    2.60 
   4   4  -4    3.50    1.70 
  -4  -4   4    4.90    2.10 
  -4  -4   4    5.20    2.70 
   3   4  -4    0.20    1.40 
   3   4  -4   -0.10    1.00 
  -3  -4   4    1.10    1.30 
  -3  -4   4    0.10    1.10 
   2   4  -4 2713.63   66.09 
   2   4  -4 2808.62   65.79 
   2   4  -4 2786.42   72.19 
  -2  -4   4 2732.93   67.29 
  -2  -4   4 2686.73   68.79 
   1   4  -4   19.00    3.00 
   1   4  -4   20.50    3.20 
   1   4  -4   15.70    3.60 
  -1  -4   4   17.70    3.40 
  -1  -4   4   17.10    2.90 
  -1  -4   4   21.30    4.30 
   0   4  -4  819.12   27.70 
   0   4  -4  872.41   25.60 
   0   4  -4  863.91   25.00 
   0  -4   4  835.62   25.00 
   0  -4   4  882.11   30.00 
   0  -4   4  873.31   27.30 
  -1   4  -4 1852.11   48.50 
  -1   4  -4 1855.51   50.19 
  -1   4  -4 1922.41   49.40 
   1  -4   4 1909.31   50.99 
   1  -4   4 1850.31   47.90 
  -2   4  -4   58.89    5.70 
  -2   4  -4   59.39    5.40 
  -2   4  -4   60.49    5.80 
   2  -4   4   52.29    6.50 
   2  -4   4   61.79    6.40 
  -3   4  -4  180.58   11.10 
   3  -4   4  171.58   11.70 
   3  -4   4  177.08   10.70 
   3  -4   4  184.58   12.50 
  -4   4  -4 1462.05   50.49 
   4  -4   4 1607.64   49.20 
   4  -4   4 1562.44   46.70 
   4  -4   4 1544.25   48.90 
  -5   4  -4  177.98   12.70 
   5  -4   4  167.68   12.90 
   5  -4   4  159.78   13.30 
   5  -4   4  161.78   13.00 
  -6   4  -4  231.18   15.80 
   6  -4   4  268.47   18.80 
   6  -4   4  233.38   17.20 
   6  -4   4  227.48   20.30 
   8   3  -4    3.70    2.30 
   8   3  -4    3.70    3.30 
  -8  -3   4   36.70    8.30 
   7   3  -4  206.88   12.90 
   7   3  -4  218.18   12.90 
  -7  -3   4  206.78   14.30 
  -7  -3   4  202.68   14.50 
   6   3  -4   97.79    7.80 
   6   3  -4   98.29    8.20 
  -6  -3   4   82.69    8.10 
  -6  -3   4   90.59    8.70 
   5   3  -4  280.67   14.00 
   5   3  -4  299.27   13.00 
   5   3  -4  254.37   14.00 
   5   3  -4  263.37   15.80 
  -5  -3   4  267.57   14.60 
  -5  -3   4  259.07   14.30 
  -5  -3   4  246.78   13.50 
   4   3  -4  139.19    7.60 
   4   3  -4  137.59   10.00 
   4   3  -4  135.69   10.30 
  -4  -3   4  118.79    8.10 
  -4  -3   4  138.69    9.30 
   3   3  -4  245.98    9.70 
   3   3  -4  255.87   13.60 
   3   3  -4  252.97   10.80 
   3   3  -4  262.97   12.70 
  -3  -3   4  225.88   10.70 
  -3  -3   4  251.77   11.90 
   2   3  -4  497.75   15.60 
   2   3  -4  515.05   19.20 
   2   3  -4  520.45   20.00 
   2   3  -4  505.65   15.10 
  -2  -3   4  509.15   16.60 
   1   3  -4 4807.72  106.49 
   1   3  -4 4825.02  112.99 
   1   3  -4 4738.63  106.59 
  -1  -3   4 4661.63  113.89 
  -1  -3   4 4708.53  109.09 
   0   3  -4 2180.78   52.49 
   0   3  -4 2178.88   56.59 
   0   3  -4 2178.28   51.99 
   0  -3   4 2172.58   52.49 
   0  -3   4 2235.08   58.19 
   0  -3   4 2180.88   54.09 
  -1   3  -4  451.75   16.90 
  -1   3  -4  454.95   15.30 
  -1   3  -4  485.75   15.90 
   1  -3   4  477.15   19.10 
   1  -3   4  444.66   16.40 
   1  -3   4  453.95   15.20 
  -2   3  -4  115.19    7.10 
  -2   3  -4   99.29    6.70 
  -2   3  -4  103.19    6.90 
   2  -3   4   96.09    7.30 
   2  -3   4  108.69    8.20 
   2  -3   4  112.59    6.90 
  -3   3  -4 3185.18   77.39 
  -3   3  -4 3216.48   79.39 
  -3   3  -4 3222.48   78.99 
   3  -3   4 3179.38   81.79 
   3  -3   4 3165.38   80.99 
   3  -3   4 3221.98   79.19 
   4  -3   4   14.90    3.80 
   4  -3   4    8.00    3.40 
   4  -3   4   10.60    3.30 
  -5   3  -4  134.69   10.30 
   5  -3   4  110.29   10.30 
   5  -3   4  127.69   10.40 
   5  -3   4  151.38   11.90 
  -6   3  -4  224.58   14.70 
   6  -3   4  231.28   18.30 
   6  -3   4  243.78   16.70 
   6  -3   4  241.08   15.60 
   7  -3   4   35.60    7.40 
   7  -3   4   25.80    6.60 
   8   2  -4    9.00    3.10 
   8   2  -4    9.40    4.90 
  -8  -2   4   12.20    4.40 
  -8  -2   4   15.40    4.80 
   7   2  -4  114.69    9.90 
   7   2  -4  111.79    8.90 
  -7  -2   4  109.99    9.90 
  -7  -2   4  108.59   10.20 
   6   2  -4   20.20    4.30 
   6   2  -4   23.90    4.20 
  -6  -2   4   17.90    5.00 
  -6  -2   4   21.50    4.80 
   5   2  -4   -0.20    1.00 
   5   2  -4    2.30    1.60 
  -5  -2   4    3.10    2.20 
  -5  -2   4   -0.40    1.10 
  -5  -2   4    0.40    1.30 
   4   2  -4    5.90    2.10 
   4   2  -4    3.60    1.60 
  -4  -2   4    1.60    1.30 
  -4  -2   4    2.30    1.40 
  -4  -2   4    3.90    1.90 
   3   2  -4  180.68    8.60 
   3   2  -4  173.18   10.70 
   3   2  -4  189.28    7.70 
  -3  -2   4  185.48    8.70 
  -3  -2   4  181.68    9.20 
   2   2  -4  247.08   12.20 
   2   2  -4  247.38    7.90 
   2   2  -4  248.18    8.60 
  -2  -2   4  248.88    9.30 
  -2  -2   4  246.58    9.80 
   1   2  -4 3590.54   77.59 
   1   2  -4 3516.45   84.99 
   1   2  -4 3533.05   77.49 
  -1  -2   4 3468.05   79.49 
  -1  -2   4 3474.45   80.19 
  -1  -2   4 3536.45   85.39 
   0   2  -4  304.07   12.70 
   0   2  -4  309.37    9.50 
   0   2  -4  319.87    9.20 
   0  -2   4  317.57   13.70 
   0  -2   4  311.27    9.90 
   0  -2   4  309.97   10.60 
  -1   2  -4  388.96   12.60 
  -1   2  -4  367.06   12.10 
  -1   2  -4  379.66   14.20 
   1  -2   4  402.36   13.50 
   1  -2   4  387.76   12.40 
   1  -2   4  390.46   15.60 
  -2   2  -4  291.17   11.10 
  -2   2  -4  265.47   10.90 
  -2   2  -4  254.47   11.00 
   2  -2   4  279.67   12.80 
   2  -2   4  282.97   11.90 
   2  -2   4  279.37   11.10 
  -3   2  -4   69.59    5.50 
  -3   2  -4   65.89    5.00 
  -3   2  -4   70.69    5.80 
   3  -2   4   60.29    5.80 
   3  -2   4   71.79    6.20 
  -4   2  -4   55.09    4.80 
  -4   2  -4   50.89    5.60 
   4  -2   4   51.79    6.00 
   4  -2   4   50.59    5.70 
   4  -2   4   55.99    6.30 
  -5   2  -4 1835.82   52.49 
   5  -2   4 1902.71   56.19 
   5  -2   4 1936.61   55.89 
  -6   2  -4   55.59    7.20 
   6  -2   4   78.99    8.90 
   6  -2   4   74.09    7.60 
   6  -2   4   81.89    9.70 
  -7   2  -4  295.17   17.50 
   7  -2   4  302.67   19.50 
   7  -2   4  314.57   17.90 
   7  -2   4  308.27   21.40 
   8   1  -4    3.40    2.70 
   8   1  -4    1.60    3.20 
  -8  -1   4    2.50    3.00 
  -8  -1   4   -0.40    3.10 
   7   1  -4   23.20    5.60 
   7   1  -4   17.00    3.70 
  -7  -1   4   13.90    4.40 
  -7  -1   4   13.90    4.20 
   6   1  -4  108.49    8.80 
  -6  -1   4  100.99    8.80 
  -6  -1   4  109.59    8.90 
   5   1  -4   99.39    7.20 
   5   1  -4   90.89    7.10 
   5   1  -4   94.59    8.20 
  -5  -1   4   97.49    7.80 
  -5  -1   4   93.99    7.40 
   4   1  -4  691.43   21.20 
   4   1  -4  654.53   22.20 
   4   1  -4  638.14   22.40 
  -4  -1   4  621.74   23.20 
  -4  -1   4  691.03   22.20 
  -4  -1   4  667.33   21.70 
   3   1  -4  355.26   11.80 
   3   1  -4  356.86   14.00 
   3   1  -4  322.27   12.40 
  -3  -1   4  330.97   12.80 
  -3  -1   4  339.17   14.30 
  -3  -1   4  338.87   12.30 
   2   1  -4   90.29    6.70 
   2   1  -4   89.39    3.80 
   2   1  -4   89.89    6.10 
   2   1  -4   91.99    4.20 
  -2  -1   4   92.39    4.90 
  -2  -1   4   89.09    4.50 
   1   1  -4  431.96   14.90 
  -1  -1   4  419.66   11.10 
   0   1  -4  149.29    7.70 
   0  -1   4  136.99    4.60 
   0  -1   4  143.39    7.80 
   0  -1   4  147.39    5.00 
  -1   1  -4  425.26   16.30 
  -1   1  -4  470.65   13.00 
  -1   1  -4  485.55   13.10 
   1  -1   4  463.05   14.50 
   1  -1   4  472.65   16.30 
   1  -1   4  464.65   13.30 
  -2   1  -4  288.97   10.80 
  -2   1  -4  292.27   10.90 
  -2   1  -4  286.77   10.20 
   2  -1   4  289.07   11.10 
   2  -1   4  294.37   11.30 
  -3   1  -4  151.28    7.80 
  -3   1  -4  145.09    8.20 
  -3   1  -4  142.99    7.20 
   3  -1   4  151.88    8.60 
   3  -1   4  157.68    8.80 
  -4   1  -4  593.84   24.10 
  -4   1  -4  663.23   20.20 
   4  -1   4  618.84   21.90 
   4  -1   4  623.04   23.50 
   4  -1   4  682.13   23.70 
  -5   1  -4   41.50    6.20 
  -5   1  -4   40.30    4.30 
  -5   1  -4   52.39    5.70 
   5  -1   4   42.60    5.90 
   5  -1   4   48.70    6.80 
   5  -1   4   42.10    5.20 
  -6   1  -4   16.70    4.50 
   6  -1   4   24.80    4.90 
   6  -1   4   17.90    4.90 
   6  -1   4   14.10    4.80 
  -7   1  -4   82.99    8.90 
   7  -1   4   87.29   10.00 
   7  -1   4   92.39    8.80 
   7  -1   4  106.39   12.20 
   8   0  -4   35.80    7.40 
   8   0  -4   53.99    6.40 
  -8   0   4   26.50    6.00 
  -8   0   4   33.80    7.80 
   7   0  -4   31.80    5.40 
   7   0  -4   52.79    8.30 
  -7   0   4   45.80    6.30 
  -7   0   4   38.70    6.30 
   6   0  -4  509.95   21.80 
   6   0  -4  505.55   19.70 
  -6   0   4  549.15   22.40 
  -6   0   4  513.15   21.20 
   5   0  -4  830.72   28.10 
   5   0  -4  857.91   27.00 
   5   0  -4  862.61   29.90 
  -5   0   4  881.31   28.00 
  -5   0   4  858.71   29.40 
  -5   0   4  859.21   28.40 
   4   0  -4  487.05   17.60 
   4   0  -4  496.55   17.70 
   4   0  -4  466.35   18.30 
  -4   0   4  474.95   17.50 
  -4   0   4  504.55   19.10 
  -4   0   4  492.35   17.40 
   3   0  -4  504.95   15.90 
   3   0  -4  492.55   16.50 
   3   0  -4  465.05   16.50 
  -3   0   4  478.35   15.70 
  -3   0   4  474.45   15.70 
  -3   0   4  499.75   17.70 
   2   0  -4  456.35   15.10 
   2   0  -4  449.66   12.60 
   2   0  -4  453.45   13.20 
  -2   0   4  428.46   14.90 
  -2   0   4  431.76   13.00 
  -2   0   4  450.55   15.70 
   1   0  -4 1844.12   45.60 
   1   0  -4 1904.91   47.00 
  -1   0   4 1866.61   41.50 
  -1   0   4 1833.32   41.50 
  -1   0  -4  894.11   21.20 
  -1   0  -4  886.61   23.80 
  -1   0  -4  843.02   22.20 
   1   0   4  899.11   22.70 
   1   0   4  936.31   25.00 
   1   0   4  922.31   22.40 
  -2   0  -4 3723.43   83.99 
  -2   0  -4 3672.93   84.89 
  -2   0  -4 3709.03   84.09 
   2   0   4 3724.93   86.19 
   2   0   4 3717.33   85.89 
  -3   0  -4   44.50    4.30 
  -3   0  -4   40.90    3.30 
  -3   0  -4   48.80    4.10 
   3   0   4   51.79    4.50 
   3   0   4   42.60    3.90 
  -4   0  -4    3.10    1.90 
  -4   0  -4    1.10    1.40 
  -4   0  -4    1.50    1.10 
   4   0   4    4.20    1.70 
   4   0   4   -0.30    1.20 
   4   0   4    0.10    1.40 
  -5   0  -4   34.90    6.00 
  -5   0  -4   23.40    4.20 
  -5   0  -4   29.20    3.70 
   5   0   4   35.90    5.00 
   5   0   4   24.40    4.10 
   5   0   4   33.20    6.50 
  -6   0  -4 1080.19   35.60 
  -6   0  -4 1113.59   32.90 
   6   0   4 1145.59   38.30 
   6   0   4 1146.09   34.60 
   6   0   4 1067.49   40.10 
  -7   0  -4  219.68   14.70 
   7   0   4  251.57   13.90 
   7   0   4  254.27   18.40 
   7   0   4  244.08   16.10 
  -8   0  -4  118.49   11.30 
   8   0   4  112.69   12.10 
   8   0   4  121.29   10.10 
   8   0   4  115.39   15.10 
   8  -1  -4  130.59   12.70 
   8  -1  -4  112.29    9.20 
  -8   1   4  120.49   11.40 
  -8   1   4  113.39   13.20 
   7  -1  -4    3.20    2.20 
   7  -1  -4    5.40    2.80 
  -7   1   4    1.20    1.90 
  -7   1   4   -3.00    2.40 
   6  -1  -4   67.49    7.30 
   6  -1  -4   52.49    5.60 
  -6   1   4   61.19    7.10 
  -6   1   4   62.59    6.80 
   5  -1  -4   11.90    3.00 
   5  -1  -4   10.10    2.80 
   5  -1  -4    6.80    2.90 
  -5   1   4    8.20    3.00 
  -5   1   4   14.40    3.10 
  -5   1   4   15.60    3.20 
   4  -1  -4   59.79    6.00 
   4  -1  -4   57.19    5.00 
   4  -1  -4   63.79    5.80 
  -4   1   4   66.29    5.80 
  -4   1   4   55.99    5.30 
   3  -1  -4 3226.48   76.79 
   3  -1  -4 3153.98   75.89 
   3  -1  -4 3205.58   76.99 
  -3   1   4 3219.98   77.89 
  -3   1   4 3296.87   76.69 
  -3   1   4 3272.67   75.89 
   2  -1  -4   35.00    3.00 
   2  -1  -4   29.90    2.80 
   2  -1  -4   35.60    3.20 
  -2   1   4   27.50    3.10 
  -2   1   4   34.00    2.80 
  -2   1   4   30.70    2.90 
   1  -1  -4 1991.50   46.90 
   1  -1  -4 1947.31   44.80 
   1  -1  -4 1984.90   44.40 
  -1   1   4 1939.71   45.40 
  -1   1   4 1961.40   47.30 
  -1   1   4 1965.60   44.90 
   0  -1  -4 4782.92  107.79 
   0  -1  -4 4807.32  106.99 
   0   1   4 4820.32  105.89 
  -1  -1  -4 5231.78  115.79 
   1   1   4 5237.28  116.49 
  -2  -1  -4   12.50    2.10 
  -2  -1  -4   11.80    1.40 
  -2  -1  -4   13.80    2.20 
   2   1   4   10.50    2.20 
   2   1   4   11.70    1.90 
  -3  -1  -4    2.00    1.10 
  -3  -1  -4    1.50    1.10 
  -3  -1  -4    3.30    1.10 
   3   1   4    1.80    1.00 
   3   1   4    1.70    1.00 
  -4  -1  -4   81.19    4.80 
  -4  -1  -4   79.59    6.30 
  -4  -1  -4   82.59    6.60 
   4   1   4   90.19    6.90 
   4   1   4   77.79    5.20 
   4   1   4   76.59    7.10 
  -5  -1  -4  653.83   36.10 
  -5  -1  -4  690.43   20.90 
  -5  -1  -4  693.03   24.40 
   5   1   4  684.73   21.70 
   5   1   4  692.53   24.90 
   5   1   4  697.03   27.40 
  -6  -1  -4  242.58   11.60 
  -6  -1  -4  249.78   22.30 
  -6  -1  -4  239.18   13.70 
   6   1   4  266.97   15.00 
   6   1   4  237.18   11.90 
   6   1   4  254.87   16.50 
  -7  -1  -4  400.56   19.80 
   7   1   4  403.86   17.50 
   7   1   4  411.56   21.10 
   7   1   4  397.56   23.10 
  -8  -1  -4  189.38   14.10 
   8   1   4  191.58   17.50 
   8   1   4  189.48   12.10 
   8  -2  -4    6.40    2.90 
  -8   2   4    2.20    3.60 
   7  -2  -4   67.29    7.10 
   7  -2  -4   76.69    9.40 
  -7   2   4   87.39    9.10 
   6  -2  -4   43.20    5.20 
   6  -2  -4   49.10    6.80 
  -6   2   4   44.50    7.00 
  -6   2   4   30.90    5.50 
   5  -2  -4    8.80    3.70 
   5  -2  -4    9.50    2.90 
   5  -2  -4    5.60    2.90 
  -5   2   4    8.40    2.80 
  -5   2   4    8.40    3.20 
   4  -2  -4 1471.85   39.10 
   4  -2  -4 1471.35   42.30 
   4  -2  -4 1441.56   41.70 
  -4   2   4 1461.85   41.50 
  -4   2   4 1439.36   41.20 
  -4   2   4 1493.05   40.60 
   3  -2  -4  775.82   22.10 
   3  -2  -4  735.93   23.60 
   3  -2  -4  727.13   23.00 
  -3   2   4  718.33   23.10 
  -3   2   4  733.33   22.60 
   2  -2  -4    9.60    1.90 
   2  -2  -4   16.30    2.80 
   2  -2  -4   11.90    2.20 
  -2   2   4   12.70    2.30 
  -2   2   4   17.40    2.50 
  -2   2   4   11.20    2.30 
   1  -2  -4 3572.44   81.29 
   1  -2  -4 3700.53   81.69 
   1  -2  -4 3725.83   83.39 
  -1   2   4 3522.55   82.49 
  -1   2   4 3618.94   82.49 
  -1   2   4 3596.44   82.99 
  -1  -2  -4 6000.30  139.59 
   1   2   4 6328.67  138.59 
  -2  -2  -4 4398.16  100.19 
  -2  -2  -4 4409.46  100.69 
   2   2   4 4291.07  103.79 
  -3  -2  -4   75.09    3.50 
  -3  -2  -4   70.19    5.70 
  -3  -2  -4   77.49    5.80 
   3   2   4   73.79    3.90 
   3   2   4   76.99    5.60 
  -4  -2  -4 2011.00   47.10 
  -4  -2  -4 1914.21   52.19 
  -4  -2  -4 1962.80   52.99 
   4   2   4 1981.90   52.09 
   4   2   4 1986.30   55.19 
   4   2   4 2005.10   47.50 
  -5  -2  -4 1235.98   32.90 
  -5  -2  -4 1197.88   37.80 
  -5  -2  -4 1215.48   38.70 
   5   2   4 1275.77   38.00 
   5   2   4 1275.47   41.30 
   5   2   4 1261.17   33.00 
  -6  -2  -4  490.45   17.70 
  -6  -2  -4  512.45   21.70 
  -6  -2  -4  483.95   22.40 
   6   2   4  480.95   21.10 
   6   2   4  491.15   17.40 
   6   2   4  505.15   24.60 
  -7  -2  -4  488.45   19.70 
  -7  -2  -4  512.65   23.30 
   7   2   4  515.55   26.90 
   7   2   4  520.65   23.80 
   7   2   4  514.05   19.20 
  -8  -2  -4   56.89    9.00 
   8   2   4   45.70    5.70 
   8   2   4   41.00    9.60 
   8   2   4   30.60    6.10 
   7  -3  -4   89.29   10.10 
   7  -3  -4   66.09    8.70 
  -7   3   4   65.39    9.20 
  -7   3   4   67.79    8.30 
   6  -3  -4    0.60    2.40 
   6  -3  -4    3.20    2.30 
  -6   3   4    6.20    2.40 
  -6   3   4    3.70    2.40 
   5  -3  -4    0.30    1.90 
   5  -3  -4    1.10    1.60 
  -5   3   4   -0.20    1.50 
  -5   3   4   -0.30    1.30 
   4  -3  -4   69.79    6.90 
   4  -3  -4   75.39    7.00 
   4  -3  -4   78.09    5.90 
  -4   3   4   77.79    6.90 
  -4   3   4   76.59    6.70 
  -4   3   4   67.09    6.30 
   3  -3  -4   91.59    8.60 
   3  -3  -4   92.89    6.00 
   3  -3  -4  103.29    6.90 
  -3   3   4   92.69    6.50 
  -3   3   4  109.79    7.30 
  -3   3   4   85.49    6.90 
   2  -3  -4 1495.25   36.30 
   2  -3  -4 1481.75   40.10 
   2  -3  -4 1416.16   37.40 
  -2   3   4 1447.26   38.40 
  -2   3   4 1400.06   37.30 
   1  -3  -4  459.85   16.60 
   1  -3  -4  535.15   15.50 
   1  -3  -4  479.65   13.70 
  -1   3   4  458.95   14.30 
  -1   3   4  465.25   15.80 
   0  -3  -4   31.70    2.80 
   0  -3  -4   32.80    2.00 
   0  -3  -4   29.70    3.30 
   0   3   4   31.30    2.20 
   0   3   4   24.60    2.90 
   0   3   4   30.70    3.30 
  -1  -3  -4 2560.24   61.69 
  -1  -3  -4 2612.34   63.09 
   1   3   4 2626.24   62.79 
  -2  -3  -4   53.69    4.80 
   2   3   4   51.79    4.60 
  -3  -3  -4 1202.88   34.80 
  -3  -3  -4 1146.19   33.70 
  -3  -3  -4 1207.48   27.50 
   3   3   4 1174.48   35.30 
   3   3   4 1153.88   33.30 
   3   3   4 1138.99   27.20 
  -4  -3  -4  152.08   10.00 
  -4  -3  -4  150.78    6.40 
  -4  -3  -4  174.48   10.30 
   4   3   4  160.38   10.90 
   4   3   4  153.08    6.10 
   4   3   4  165.88    9.70 
  -5  -3  -4  249.48   14.00 
  -5  -3  -4  229.28    9.60 
  -5  -3  -4  227.48   13.50 
   5   3   4  254.67   13.30 
   5   3   4  223.88   14.40 
   5   3   4  231.48    9.00 
  -6  -3  -4  846.72   31.70 
  -6  -3  -4  802.22   25.10 
  -6  -3  -4  781.42   30.10 
   6   3   4  816.22   23.80 
   6   3   4  835.82   29.90 
   6   3   4  828.92   33.60 
  -7  -3  -4  244.18   12.50 
  -7  -3  -4  223.98   15.10 
   7   3   4  238.38   15.20 
   7   3   4  234.78   17.50 
   7   3   4  238.58   11.10 
  -8  -3  -4   51.69   10.50 
   8   3   4   58.49    5.90 
   8   3   4   59.29   11.10 
   8   3   4   68.89    8.80 
   7  -4  -4   54.79    6.70 
   7  -4  -4   72.19    9.80 
  -7   4   4   67.69    8.50 
  -7   4   4   47.80    9.10 
   6  -4  -4   -0.10    1.50 
   6  -4  -4    5.60    3.40 
  -6   4   4   -3.00    1.90 
  -6   4   4   -2.60    3.10 
   5  -4  -4   55.69    7.20 
   5  -4  -4   59.89    6.00 
  -5   4   4   51.89    6.60 
  -5   4   4   59.29    7.40 
   4  -4  -4    8.40    3.20 
   4  -4  -4   14.30    3.20 
  -4   4   4   10.00    3.20 
  -4   4   4   19.20    4.60 
  -4   4   4   13.30    3.60 
   3  -4  -4  185.98   10.20 
   3  -4  -4  183.08   11.70 
   3  -4  -4  185.18    8.90 
  -3   4   4  164.78   10.60 
  -3   4   4  180.88    9.60 
  -3   4   4  194.78   10.90 
   2  -4  -4 1854.71   51.69 
   2  -4  -4 1907.21   48.70 
   2  -4  -4 1927.71   46.60 
  -2   4   4 1912.31   50.89 
  -2   4   4 1939.01   50.49 
  -2   4   4 1828.12   47.10 
   1  -4  -4  472.95   16.10 
   1  -4  -4  492.55   14.30 
   1  -4  -4  453.85   18.70 
  -1   4   4  477.25   14.80 
  -1   4   4  480.45   17.70 
  -1   4   4  483.95   17.60 
   0  -4  -4  323.87   15.00 
   0  -4  -4  341.97   10.00 
   0  -4  -4  346.07   12.90 
   0   4   4  354.86   14.00 
   0   4   4  334.17   14.00 
   0   4   4  333.07   10.10 
  -1  -4  -4  383.96    9.80 
  -1  -4  -4  373.86   14.20 
   1   4   4  381.06   15.50 
   1   4   4  387.16    9.50 
   1   4   4  372.26   14.90 
  -2  -4  -4  931.81   28.60 
  -2  -4  -4  867.31   27.00 
   2   4   4  896.41   27.60 
   2   4   4  882.71   28.60 
  -3  -4  -4 3236.78   81.59 
  -3  -4  -4 3255.87   80.29 
   3   4   4 3279.07   80.29 
   3   4   4 3052.09   70.19 
   3   4   4 3193.28   70.69 
   3   4   4 3438.96   83.09 
  -4  -4  -4 1966.60   56.09 
  -4  -4  -4 2037.00   55.39 
  -4  -4  -4 1978.50   47.00 
   4   4   4 2045.40   45.80 
   4   4   4 1958.20   56.79 
   4   4   4 2064.49   54.59 
  -5  -4  -4  885.51   25.00 
  -5  -4  -4  900.71   32.40 
  -5  -4  -4  904.11   31.90 
   5   4   4  910.51   30.80 
   5   4   4  919.01   23.50 
   5   4   4  890.51   33.40 
  -6  -4  -4  425.06   21.20 
  -6  -4  -4  424.96   15.70 
  -6  -4  -4  429.46   21.10 
   6   4   4  439.86   14.10 
   6   4   4  415.46   19.80 
   6   4   4  374.96   22.40 
  -7  -4  -4   25.70    6.10 
  -7  -4  -4   23.10    4.20 
   7   4   4   30.80    3.70 
   7   4   4   32.70    6.70 
   7   4   4   47.10    8.10 
  -8  -4  -4   87.69   10.60 
   8   4   4   79.09   12.60 
   8   4   4   93.49   10.10 
   8   4   4   84.59    6.60 
   6  -5  -4   99.19   11.40 
   6  -5  -4  113.69    9.40 
  -6   5   4  114.09   10.80 
  -6   5   4  126.59   11.40 
   5  -5  -4    3.90    2.50 
   5  -5  -4   10.40    3.10 
  -5   5   4   -0.60    3.00 
  -5   5   4    5.20    3.10 
   4  -5  -4   31.50    6.40 
   4  -5  -4   39.10    5.90 
  -4   5   4   35.80    6.40 
  -4   5   4   35.00    6.30 
   3  -5  -4  288.67   12.40 
   3  -5  -4  282.67   13.70 
   3  -5  -4  244.08   15.20 
  -3   5   4  275.17   15.10 
  -3   5   4  289.57   14.90 
  -3   5   4  269.57   12.40 
   2  -5  -4 1889.61   46.70 
   2  -5  -4 1829.72   53.09 
   2  -5  -4 1879.41   49.40 
  -2   5   4 1799.12   51.49 
  -2   5   4 1850.11   46.80 
  -2   5   4 1824.82   51.29 
   1  -5  -4   65.79    5.60 
   1  -5  -4   64.49    6.60 
   1  -5  -4   64.39    4.50 
  -1   5   4   65.29    6.20 
  -1   5   4   57.69    5.90 
  -1   5   4   66.59    4.40 
   0  -5  -4    0.80    0.80 
   0  -5  -4    1.30    1.00 
   0  -5  -4    0.10    1.10 
   0   5   4    0.40    0.90 
   0   5   4    6.50    2.20 
   0   5   4    4.50    1.20 
  -1  -5  -4  243.18   13.10 
  -1  -5  -4  237.68    8.10 
  -1  -5  -4  235.58   11.50 
   1   5   4  218.28   12.20 
   1   5   4  243.58   12.50 
   1   5   4  244.58    7.10 
  -2  -5  -4  389.46   17.40 
  -2  -5  -4  362.16   15.80 
   2   5   4  387.86   17.40 
   2   5   4  380.46    8.90 
   2   5   4  376.56    9.10 
   2   5   4  427.46   17.30 
  -3  -5  -4  167.28   11.20 
  -3  -5  -4  165.48   10.10 
   3   5   4  159.08   10.20 
   3   5   4  156.18    3.80 
   3   5   4  145.49    3.90 
   3   5   4  149.79   10.80 
  -4  -5  -4 2576.84   70.19 
  -4  -5  -4 2551.34   68.49 
   4   5   4 2589.14   71.09 
   4   5   4 2505.75   56.89 
   4   5   4 2601.34   67.99 
   4   5   4 2520.15   58.59 
  -5  -5  -4  111.29   10.10 
  -5  -5  -4  108.19    9.70 
   5   5   4  113.79   10.50 
   5   5   4   98.29    8.70 
   5   5   4  107.49    4.90 
   5   5   4  107.49    6.20 
  -6  -5  -4  186.08   13.80 
  -6  -5  -4  186.28    9.30 
  -6  -5  -4  193.68   14.40 
   6   5   4  184.58   12.80 
   6   5   4  173.78   14.40 
   6   5   4  196.88    8.00 
  -7  -5  -4  261.87   17.60 
  -7  -5  -4  240.58   12.30 
   7   5   4  261.37   10.60 
   7   5   4  252.57   16.00 
   7   5   4  253.37   18.30 
  -8  -5  -4  245.08   13.40 
  -8  -5  -4  233.38   17.60 
   8   5   4  227.98   16.00 
   8   5   4  225.48   22.80 
   8   5   4  234.78   11.00 
   6  -6  -4   38.90   10.00 
   6  -6  -4   20.60    4.80 
  -6   6   4   22.10    5.60 
   5  -6  -4   14.20    4.10 
   5  -6  -4   13.50    5.10 
  -5   6   4    7.80    4.70 
  -5   6   4   20.60    5.60 
   4  -6  -4  128.89    9.40 
   4  -6  -4  122.69   12.00 
  -4   6   4  130.19   11.20 
  -4   6   4  135.29   11.40 
   3  -6  -4  843.42   33.50 
   3  -6  -4  882.71   27.80 
   3  -6  -4  852.61   29.50 
  -3   6   4  846.52   31.70 
  -3   6   4  873.91   27.50 
  -3   6   4  853.21   31.90 
   2  -6  -4  151.88   11.90 
   2  -6  -4  135.89    8.20 
   2  -6  -4  120.89   10.80 
  -2   6   4  148.39    8.10 
  -2   6   4  133.29   10.40 
  -2   6   4  127.59   10.30 
   1  -6  -4  569.74   18.80 
   1  -6  -4  533.45   23.70 
   1  -6  -4  576.84   21.10 
  -1   6   4  557.54   17.60 
  -1   6   4  603.74   23.40 
  -1   6   4  567.74   22.70 
   0  -6  -4  187.78   12.40 
   0  -6  -4  180.28   10.50 
   0  -6  -4  192.68    8.70 
   0   6   4  186.48   11.80 
   0   6   4  190.08    7.60 
   0   6   4  200.08   12.10 
  -1  -6  -4  127.79   10.20 
  -1  -6  -4  150.18    9.50 
  -1  -6  -4  147.99    6.90 
   1   6   4  137.09    5.50 
   1   6   4  127.89    9.60 
   1   6   4  155.38   10.50 
  -2  -6  -4  106.19    9.30 
  -2  -6  -4  113.59    8.50 
  -2  -6  -4  111.59    5.20 
   2   6   4  120.99    4.20 
   2   6   4  120.29    9.20 
   2   6   4  117.49    9.50 
  -3  -6  -4  917.01   31.20 
  -3  -6  -4  868.01   32.40 
   3   6   4  901.71   21.30 
   3   6   4  946.21   33.20 
   3   6   4  904.41   21.50 
   3   6   4  939.11   31.80 
  -4  -6  -4  941.11   33.00 
  -4  -6  -4  939.61   34.60 
   4   6   4  928.51   34.70 
   4   6   4  913.41   22.10 
   4   6   4  920.61   23.20 
   4   6   4  926.71   32.70 
  -5  -6  -4   97.39   10.40 
  -5  -6  -4  119.19   11.00 
   5   6   4  103.19    9.20 
   5   6   4  107.59   10.90 
   5   6   4  100.99    4.50 
   5   6   4   97.89    5.70 
  -6  -6  -4    6.10    4.00 
  -6  -6  -4    3.00    3.20 
   6   6   4   11.10    2.00 
   6   6   4   14.60    4.50 
   6   6   4   12.90    4.20 
   6   6   4   11.90    2.80 
  -7  -6  -4   -4.30    3.30 
   7   6   4    4.40    1.70 
   7   6   4    8.50    3.70 
   7   6   4    9.70    3.80 
   7   6   4    2.50    2.20 
  -8  -6  -4   -2.40    3.30 
  -8  -6  -4    4.00    2.80 
   8   6   4    4.20    3.40 
   8   6   4   -1.30    1.40 
   8   6   4   -3.40    2.80 
   5  -7  -4  302.17   21.60 
  -5   7   4  304.87   21.00 
  -5   7   4  317.37   20.20 
   4  -7  -4   26.10    6.40 
   4  -7  -4   18.70    4.90 
  -4   7   4   19.70    5.30 
  -4   7   4   28.70    6.80 
   3  -7  -4  112.49   11.50 
   3  -7  -4  106.49    8.50 
  -3   7   4   85.59    9.70 
  -3   7   4  113.49   10.70 
   2  -7  -4   63.79    6.90 
   2  -7  -4   68.69    8.40 
   2  -7  -4   94.19    7.30 
  -2   7   4   73.99    8.70 
  -2   7   4   68.79    8.40 
  -2   7   4   67.09    5.70 
   1  -7  -4  799.42   25.70 
   1  -7  -4  813.62   28.20 
   1  -7  -4  780.12   31.90 
  -1   7   4  801.32   30.40 
  -1   7   4  809.92   30.70 
  -1   7   4  802.52   23.70 
   0  -7  -4   79.89    6.00 
   0  -7  -4   81.69    7.30 
   0  -7  -4   68.99    8.10 
   0   7   4   72.59    4.80 
   0   7   4   84.59    8.30 
   0   7   4   78.19    8.30 
  -1  -7  -4   86.49    5.80 
  -1  -7  -4   74.09    8.00 
  -1  -7  -4   83.89    7.40 
   1   7   4   77.89    4.60 
   1   7   4   74.99    7.80 
   1   7   4   77.39    7.90 
  -2  -7  -4  547.55   22.40 
  -2  -7  -4  525.05   16.80 
  -2  -7  -4  523.15   24.40 
   2   7   4  561.94   14.70 
   2   7   4  533.75   23.50 
   2   7   4  525.55   23.70 
  -3  -7  -4  623.34   27.20 
  -3  -7  -4  636.04   25.30 
   3   7   4  631.34   16.20 
   3   7   4  613.44   26.60 
   3   7   4  628.64   26.10 
   3   7   4  618.14   17.00 
  -4  -7  -4   77.29    9.20 
  -4  -7  -4   81.09    8.90 
   4   7   4   83.29    3.90 
   4   7   4   83.99    8.60 
   4   7   4   82.89    4.20 
   4   7   4   88.19    9.60 
  -5  -7  -4  717.23   32.30 
  -5  -7  -4  744.63   31.00 
   5   7   4  784.22   21.70 
   5   7   4  765.52   30.70 
   5   7   4  816.12   20.00 
   5   7   4  745.03   32.80 
  -6  -7  -4  322.87   20.90 
   6   7   4  294.27   20.10 
   6   7   4  299.67   12.40 
   6   7   4  308.27   18.40 
   6   7   4  325.17   10.60 
  -7  -7  -4    8.90    4.30 
   7   7   4    3.30    6.80 
   7   7   4    8.30    2.90 
   7   7   4    8.40    2.10 
   7   7   4   14.10    4.70 
  -8  -7  -4  165.28   16.30 
   8   7   4  163.18   14.30 
   8   7   4  167.08    8.50 
   4  -8  -4   38.30    9.80 
   4  -8  -4   34.40    6.30 
  -4   8   4   25.30    6.40 
  -4   8   4   27.20    6.60 
   3  -8  -4  180.48   19.80 
   3  -8  -4  185.88   12.40 
  -3   8   4  196.18   16.00 
  -3   8   4  170.98   14.60 
   2  -8  -4  221.58   13.20 
   2  -8  -4  222.68   16.70 
  -2   8   4  217.48   15.10 
  -2   8   4  201.48   15.10 
   1  -8  -4  568.74   21.80 
   1  -8  -4  582.44   28.00 
   1  -8  -4  564.54   23.20 
  -1   8   4  538.85   25.30 
  -1   8   4  537.15   18.80 
  -1   8   4  547.95   26.00 
   0  -8  -4  763.92   28.80 
   0  -8  -4  798.32   33.60 
   0  -8  -4  812.82   26.70 
   0   8   4  817.42   23.40 
   0   8   4  801.42   32.10 
   0   8   4  783.92   31.30 
  -1  -8  -4   28.40    4.40 
  -1  -8  -4   22.50    4.50 
  -1  -8  -4   25.70    5.90 
   1   8   4   18.70    5.30 
   1   8   4   13.90    4.40 
   1   8   4   19.70    2.80 
  -2  -8  -4  246.48   16.80 
  -2  -8  -4  247.48   11.20 
  -2  -8  -4  242.18   16.80 
   2   8   4  236.38   15.80 
   2   8   4  273.57   16.50 
   2   8   4  251.67    9.00 
  -3  -8  -4   34.40    7.10 
  -3  -8  -4   38.80    6.90 
   3   8   4   33.40    6.80 
   3   8   4   47.20    8.00 
   3   8   4   34.40    2.80 
   3   8   4   28.90    3.10 
  -4  -8  -4  234.88   16.90 
  -4  -8  -4  222.08   15.10 
   4   8   4  218.08   16.30 
   4   8   4  216.68    8.30 
   4   8   4  236.38   15.70 
   4   8   4  218.38    8.10 
  -5  -8  -4  343.57   20.50 
  -5  -8  -4  413.16   23.50 
   5   8   4  361.66   12.30 
   5   8   4  374.26   21.00 
   5   8   4  357.06   11.40 
   5   8   4  360.56   22.00 
  -6  -8  -4    6.60    3.50 
   6   8   4    6.30    1.70 
   6   8   4    4.90    3.40 
   6   8   4    0.10    4.40 
   6   8   4    3.60    1.80 
  -7  -8  -4   40.90    8.60 
   7   8   4   54.39    9.40 
   7   8   4   45.20    9.30 
   7   8   4   48.90    3.90 
   7   8   4   43.20    5.20 
   3  -9  -4   -2.10    2.50 
   3  -9  -4    8.80    5.40 
  -3   9   4    3.30    3.70 
  -3   9   4    1.80    5.10 
   2  -9  -4   12.60    4.50 
   2  -9  -4   13.80    5.70 
  -2   9   4   23.10    5.50 
  -2   9   4   21.90    5.30 
   1  -9  -4   39.00   10.00 
   1  -9  -4   25.50    6.20 
  -1   9   4   33.60    6.80 
  -1   9   4   27.50    6.60 
   0  -9  -4  127.09    9.40 
   0  -9  -4  147.29   13.60 
   0   9   4  112.89   11.50 
   0   9   4  127.79   12.40 
   0   9   4  125.69    7.60 
  -1  -9  -4  627.34   26.50 
  -1  -9  -4  638.24   23.40 
  -1  -9  -4  579.64   42.10 
   1   9   4  647.54   28.80 
   1   9   4  610.34   28.70 
   1   9   4  627.24   19.40 
  -2  -9  -4  266.27   12.90 
  -2  -9  -4  271.77   20.10 
  -2  -9  -4  242.38   15.50 
   2   9   4  273.57   17.80 
   2   9   4  241.68   17.20 
   2   9   4  278.47   10.30 
  -3  -9  -4  459.85   23.20 
   3   9   4  471.75   25.10 
   3   9   4  479.45   24.80 
   3   9   4  487.75   14.70 
  -4  -9  -4  452.95   25.20 
   4   9   4  369.26   22.80 
   4   9   4  423.36   23.40 
   4   9   4  411.96   13.20 
   4   9   4  408.46   13.90 
  -5  -9  -4   12.40    5.50 
   5   9   4   11.40    5.30 
   5   9   4   16.70    2.50 
   5   9   4   14.50    2.70 
   5   9   4   16.60    5.80 
  -6  -9  -4   33.10    7.70 
   6   9   4   26.60    6.90 
   6   9   4   41.10    7.60 
   6   9   4   32.30    3.80 
  -7  -9  -4  340.67   24.20 
   7   9   4  372.76   22.90 
   7   9   4  347.07   12.10 
   2 -10  -4  117.59   15.20 
   2 -10  -4  122.19   11.50 
  -2  10   4  124.69   13.70 
   1 -10  -4   14.80    6.40 
   1 -10  -4   11.50    4.30 
  -1  10   4   12.20    6.30 
  -1  10   4    8.90    5.20 
   0 -10  -4  292.77   21.30 
   0  10   4  248.58   18.60 
   0  10   4  269.27   19.20 
  -1 -10  -4  348.47   22.80 
  -1 -10  -4  330.57   16.80 
   1  10   4  310.17   26.00 
   1  10   4  342.87   21.90 
   1  10   4  346.77   13.50 
  -2 -10  -4    9.10    3.10 
  -2 -10  -4    7.80    5.10 
   2  10   4    7.50    2.30 
   2  10   4   10.40    5.30 
   2  10   4    2.00    5.80 
   3  10   4    5.70    3.30 
   3  10   4    5.90    2.10 
   3  10   4   -0.80    3.60 
  -4 -10  -4    3.00    3.90 
   4  10   4    2.00    2.60 
   4  10   4    1.50    1.70 
   4  10   4    5.20    4.30 
   4  10   4    2.40    1.60 
  -5 -10  -4   12.10    5.60 
   5  10   4    9.80    4.40 
   5  10   4   11.60    2.50 
   5  10   4   17.30    2.70 
   5  10   4   25.10   10.60 
  -6 -10  -4  213.58   18.60 
   6  10   4  246.58   19.30 
   6  10   4  192.48    8.40 
   0 -11  -4   32.20    7.00 
   0 -11  -4   35.60    9.40 
   0  11   4   35.90    7.00 
  -1 -11  -4   70.59   12.50 
  -1 -11  -4   69.09    8.10 
   1  11   4   74.99   12.80 
  -2 -11  -4  299.47   22.40 
  -2 -11  -4  299.47   16.10 
   2  11   4  310.97   12.70 
   3  11   4  210.18   22.60 
   3  11   4  200.78    9.20 
   3  11   4  194.48   11.10 
  -4 -11  -4    9.90    6.30 
   4  11   4   13.30    3.20 
   4  11   4   19.70    8.10 
   4  11   4   15.10    3.10 
   4   9  -5   -0.50    2.60 
  -4  -9   5   -3.70    3.40 
  -4  -9   5    4.70    3.70 
   3   9  -5   65.59    8.60 
  -3  -9   5   47.40    9.30 
  -3  -9   5   49.00    7.90 
  -3  -9   5   65.89   10.70 
  -2  -9   5   90.09    9.70 
  -2  -9   5   83.39   10.10 
  -2  -9   5   56.49   10.40 
  -1  -9   5    0.40    3.50 
  -1  -9   5   -1.40    2.70 
  -1  -9   5    8.70    4.00 
   6   8  -5   20.70    5.40 
  -6  -8   5   16.40    6.00 
   5   8  -5   32.40    6.00 
  -5  -8   5   18.70    5.40 
  -5  -8   5   23.50    7.20 
   4   8  -5   52.29    8.50 
   4   8  -5   61.29    7.00 
  -4  -8   5   68.99    8.70 
  -4  -8   5   62.49    7.80 
   3   8  -5  170.58   11.40 
   3   8  -5  177.18   14.10 
  -3  -8   5  156.08   12.10 
  -3  -8   5  180.78   15.50 
  -3  -8   5  176.18   14.50 
   2   8  -5   11.90    3.50 
  -2  -8   5    8.00    3.60 
  -2  -8   5    9.60    4.10 
  -2  -8   5    2.10    2.40 
   1   8  -5  190.68   17.50 
  -1  -8   5  223.38   16.80 
  -1  -8   5  218.38   15.70 
  -1  -8   5  198.88   13.00 
   0   8  -5  133.59   10.60 
   0  -8   5  130.89   12.30 
   0  -8   5  120.09   12.50 
   0  -8   5  131.99   10.50 
  -1   8  -5    1.50    5.10 
   1  -8   5    5.70    3.70 
   1  -8   5    7.90    4.80 
   2  -8   5  241.98   18.20 
   2  -8   5  204.38   17.90 
   6   7  -5    1.80    2.80 
   6   7  -5    8.00    2.60 
  -6  -7   5    2.70    2.90 
  -6  -7   5    0.70    4.20 
   5   7  -5   97.19    9.70 
   5   7  -5   82.29    7.80 
  -5  -7   5   76.49    9.60 
  -5  -7   5  100.39    9.60 
   4   7  -5   97.39    7.90 
   4   7  -5   78.09    9.10 
  -4  -7   5   83.39    8.70 
  -4  -7   5   79.79    9.10 
   3   7  -5    1.00    1.60 
   3   7  -5    1.90    2.10 
  -3  -7   5   -1.40    1.70 
   2   7  -5  176.88   16.70 
  -2  -7   5  168.98   11.10 
  -2  -7   5  175.58   12.90 
  -2  -7   5  168.98   14.10 
   1   7  -5  123.59    9.10 
  -1  -7   5  116.89   10.30 
  -1  -7   5  120.79    9.10 
  -1  -7   5  140.99   12.50 
   0   7  -5   86.79    7.90 
   0  -7   5  112.49   10.30 
   0  -7   5   77.09    9.80 
   0  -7   5   90.99    8.00 
  -1   7  -5  213.48   13.30 
   1  -7   5  210.58   12.70 
   1  -7   5  208.78   15.10 
   1  -7   5  221.58   16.40 
  -2   7  -5  175.88   13.00 
   2  -7   5  170.88   14.80 
   2  -7   5  150.38   11.10 
   2  -7   5  188.58   14.70 
   3  -7   5   10.70    3.80 
   3  -7   5   -0.20    3.30 
   3  -7   5   -1.10    3.80 
   7   6  -5    8.20    4.10 
  -7  -6   5    3.50    4.70 
  -7  -6   5    8.50    4.40 
   6   6  -5   24.90    5.80 
   6   6  -5   22.20    5.40 
  -6  -6   5   18.00    4.90 
  -6  -6   5   24.50    5.80 
   5   6  -5  475.05   23.00 
   5   6  -5  483.45   26.10 
  -5  -6   5  521.15   24.30 
  -5  -6   5  496.65   22.60 
   4   6  -5    6.00    3.00 
  -4  -6   5    2.10    2.20 
  -4  -6   5    7.20    2.50 
   3   6  -5  475.25   22.20 
  -3  -6   5  429.66   18.90 
   2   6  -5  154.28   11.00 
  -2  -6   5  129.29   11.50 
  -2  -6   5  143.89    9.60 
  -2  -6   5  147.99   11.00 
   1   6  -5  101.19    7.30 
  -1  -6   5   91.99    7.50 
  -1  -6   5   95.59    9.80 
  -1  -6   5  102.99    9.00 
   0   6  -5    1.90    1.90 
   0  -6   5    3.50    3.10 
   0  -6   5    2.30    1.80 
   0  -6   5   -0.80    1.60 
  -1   6  -5 1073.69   34.60 
   1  -6   5 1074.39   37.40 
   1  -6   5 1058.89   33.40 
   1  -6   5 1044.30   39.70 
  -2   6  -5   30.30    5.40 
   2  -6   5   26.20    6.50 
   2  -6   5   26.30    5.60 
  -3   6  -5  263.87   15.80 
   3  -6   5  251.37   17.80 
   3  -6   5  247.98   16.90 
   3  -6   5  264.17   15.30 
   4  -6   5   50.79    8.10 
   4  -6   5   37.90    8.20 
   4  -6   5   44.40    8.80 
   7   5  -5   34.00    6.30 
   7   5  -5   39.30    6.30 
  -7  -5   5   28.80    8.20 
  -7  -5   5   39.90    7.80 
   6   5  -5  729.13   25.40 
   6   5  -5  691.03   28.30 
  -6  -5   5  695.03   28.80 
  -6  -5   5  723.23   30.00 
   5   5  -5   17.80    4.60 
   5   5  -5   19.50    3.80 
  -5  -5   5   14.50    4.00 
  -5  -5   5    8.20    3.40 
   4   5  -5  473.75   21.60 
   4   5  -5  457.65   17.60 
  -4  -5   5  468.45   19.70 
  -4  -5   5  466.75   20.90 
   3   5  -5  757.12   28.40 
   3   5  -5  636.44   27.30 
  -3  -5   5  742.53   25.20 
  -3  -5   5  780.52   27.00 
   2   5  -5   12.20    4.40 
   2   5  -5    9.50    3.20 
   2   5  -5   17.20    3.00 
  -2  -5   5   11.70    3.00 
  -2  -5   5   17.30    3.80 
  -2  -5   5   18.80    4.90 
   1   5  -5   78.49    5.70 
   1   5  -5   82.29    5.90 
  -1  -5   5   68.69    5.80 
  -1  -5   5   80.59    7.10 
  -1  -5   5   72.09    8.00 
   0   5  -5 1422.86   39.50 
   0  -5   5 1423.16   45.70 
   0  -5   5 1407.76   39.10 
   0  -5   5 1420.66   42.40 
  -1   5  -5  968.90   30.30 
   1  -5   5  931.71   29.30 
   1  -5   5  957.80   35.80 
   1  -5   5  973.60   35.70 
  -2   5  -5  657.93   24.10 
   2  -5   5  623.24   25.50 
   2  -5   5  614.44   22.70 
   2  -5   5  631.44   27.60 
  -3   5  -5  682.73   26.30 
   3  -5   5  662.53   29.20 
   3  -5   5  663.43   27.70 
  -4   5  -5  229.38   14.70 
   4  -5   5  216.68   14.20 
   4  -5   5  204.38   14.90 
   4  -5   5  229.78   16.00 
   5  -5   5   19.90    4.90 
   5  -5   5   28.10    6.20 
   5  -5   5   13.10    6.20 
   8   4  -5    2.70    2.40 
  -8  -4   5    4.60    2.70 
  -8  -4   5    2.50    4.60 
   7   4  -5  100.19    9.30 
   7   4  -5  107.09    8.90 
  -7  -4   5  114.39   10.50 
   6   4  -5   98.29    8.90 
   6   4  -5  116.49    8.60 
  -6  -4   5  119.39   10.30 
  -6  -4   5  103.99    9.60 
   5   4  -5   -3.00    1.50 
   5   4  -5   -1.30    1.50 
  -5  -4   5    1.00    2.00 
   4   4  -5 2146.39   53.09 
   4   4  -5 2185.48   59.69 
  -4  -4   5 2132.39   58.29 
  -4  -4   5 2055.39   56.29 
   3   4  -5   -0.30    0.80 
   3   4  -5    3.40    2.20 
   3   4  -5    0.60    2.00 
   3   4  -5    0.70    1.20 
  -3  -4   5    1.00    1.20 
  -3  -4   5   -1.30    0.80 
   2   4  -5  731.23   23.10 
   2   4  -5  700.83   26.20 
   2   4  -5  719.23   27.00 
  -2  -4   5  753.22   28.30 
  -2  -4   5  710.03   24.00 
  -2  -4   5  705.23   22.60 
   1   4  -5 1740.53   47.70 
   1   4  -5 1680.73   41.70 
   1   4  -5 1525.05   60.79 
  -1  -4   5 1723.83   50.09 
  -1  -4   5 1645.04   45.10 
  -1  -4   5 1706.03   43.40 
   0   4  -5    9.30    3.10 
   0   4  -5   14.80    2.60 
   0   4  -5   17.70    2.50 
   0  -4   5   12.90    3.20 
   0  -4   5   11.80    3.70 
   0  -4   5   15.90    3.00 
  -1   4  -5   20.50    4.10 
  -1   4  -5   21.90    3.60 
  -1   4  -5   24.10    3.90 
   1  -4   5   28.40    3.40 
   1  -4   5   22.10    4.10 
   1  -4   5   20.30    4.80 
  -2   4  -5 1957.90   66.39 
  -2   4  -5 2493.55   60.79 
   2  -4   5 2342.07   59.29 
   2  -4   5 2384.16   65.59 
   2  -4   5 2367.46   62.39 
  -3   4  -5  160.48   10.40 
   3  -4   5  153.78   11.10 
   3  -4   5  155.28   11.90 
  -4   4  -5  215.58   13.00 
   4  -4   5  200.48   13.80 
   4  -4   5  203.68   14.40 
   4  -4   5  176.18   12.40 
  -5   4  -5  103.69   10.10 
   5  -4   5  133.99   11.90 
   5  -4   5  108.89   10.90 
   5  -4   5  108.39   11.20 
   6  -4   5  389.86   34.50 
   6  -4   5  325.67   20.80 
   8   3  -5    3.10    2.30 
  -8  -3   5    8.60    5.50 
  -8  -3   5   -3.90    3.60 
   7   3  -5   81.59    7.80 
   7   3  -5   81.99    7.90 
  -7  -3   5   89.09    8.80 
   6   3  -5    5.90    2.60 
   6   3  -5    6.50    2.80 
  -6  -3   5    9.00    3.20 
  -6  -3   5   14.30    4.30 
   5   3  -5 1634.84   41.60 
   5   3  -5 1336.07   49.40 
  -5  -3   5 1488.55   44.10 
  -5  -3   5 1574.04   58.19 
   4   3  -5   47.60    5.60 
   4   3  -5   43.80    4.70 
   4   3  -5   38.70    6.80 
   4   3  -5   55.79    4.30 
  -4  -3   5   44.40    5.10 
  -4  -3   5   43.30    4.70 
   3   3  -5  472.25   15.20 
   3   3  -5  467.05   19.10 
   3   3  -5  454.95   20.60 
   3   3  -5  418.36   16.00 
  -3  -3   5  469.75   16.50 
  -3  -3   5  483.75   17.60 
   2   3  -5 1498.85   42.90 
   2   3  -5 1455.15   35.30 
   2   3  -5 1463.65   34.90 
   2   3  -5 1440.06   43.60 
  -2  -3   5 1534.45   38.30 
   1   3  -5  602.64   15.90 
   1   3  -5  617.54   15.90 
   1   3  -5  586.34   22.60 
  -1  -3   5  586.14   19.00 
  -1  -3   5  595.34   23.30 
  -1  -3   5  636.14   18.30 
   0   3  -5   58.09    3.80 
   0   3  -5   46.70    5.10 
   0   3  -5   54.39    3.40 
   0  -3   5   53.69    4.00 
   0  -3   5   53.69    4.60 
   0  -3   5   49.90    6.00 
  -1   3  -5 2959.80   68.99 
  -1   3  -5 2825.22   72.09 
  -1   3  -5 2845.62   67.89 
   1  -3   5 2927.91   70.79 
   1  -3   5 2885.51   68.59 
   1  -3   5 2919.11   75.39 
  -2   3  -5  304.27   12.80 
  -2   3  -5  292.97   12.30 
  -2   3  -5  314.87   17.10 
   2  -3   5  306.67   15.60 
   2  -3   5  274.67   13.30 
   2  -3   5  295.57   12.50 
  -3   3  -5 1865.11   48.70 
  -3   3  -5 1768.72   47.60 
   3  -3   5 1719.93   48.60 
   3  -3   5 1800.72   52.39 
   3  -3   5 1791.12   50.59 
  -4   3  -5 2012.10   54.79 
   4  -3   5 1927.21   57.69 
   4  -3   5 2057.19   57.79 
   4  -3   5 1960.50   56.39 
  -5   3  -5    2.00    2.10 
   5  -3   5    2.70    2.10 
   5  -3   5    5.20    2.90 
   5  -3   5   -2.00    2.40 
  -6   3  -5  127.09   11.40 
   6  -3   5  114.69   10.90 
   6  -3   5  147.49   13.20 
   6  -3   5  143.89   13.60 
   8   2  -5   70.99    7.60 
   8   2  -5   60.39   11.90 
  -8  -2   5   66.39    8.50 
  -8  -2   5   67.69   10.10 
   7   2  -5    2.20    2.20 
   7   2  -5   -0.40    2.40 
  -7  -2   5    0.30    2.30 
  -7  -2   5    0.80    2.40 
   6   2  -5  193.98   11.40 
   6   2  -5  178.98   11.50 
  -6  -2   5  206.48   12.70 
  -6  -2   5  188.88   12.30 
   5   2  -5   64.39    5.70 
   5   2  -5   70.89    6.80 
  -5  -2   5   52.39    5.60 
  -5  -2   5   65.29    6.40 
   4   2  -5   30.60    3.30 
   4   2  -5   37.90    5.60 
   4   2  -5   27.70    3.50 
   4   2  -5   39.70    6.70 
  -4  -2   5   31.10    3.80 
  -4  -2   5   33.40    4.20 
   3   2  -5  565.54   17.10 
   3   2  -5  567.24   22.70 
   3   2  -5  588.94   21.30 
   3   2  -5  584.04   16.40 
  -3  -2   5  600.74   19.30 
  -3  -2   5  565.84   18.30 
   2   2  -5 1462.25   40.60 
   2   2  -5 1418.66   41.50 
  -2  -2   5 1396.16   35.30 
  -2  -2   5 1414.06   36.20 
   1   2  -5  241.18   12.30 
  -1  -2   5  269.57   13.20 
  -1  -2   5  252.17    8.60 
  -1  -2   5  259.67    9.20 
   0   2  -5 3592.34   87.19 
   0  -2   5 3591.94   80.99 
   0  -2   5 3611.94   88.49 
   0  -2   5 3620.14   82.29 
  -1   2  -5 1290.67   31.90 
  -1   2  -5 1232.78   31.30 
  -1   2  -5 1225.18   35.40 
   1  -2   5 1266.07   32.10 
   1  -2   5 1272.37   33.50 
   1  -2   5 1362.16   38.20 
  -2   2  -5  448.06   15.30 
  -2   2  -5  444.56   16.30 
  -2   2  -5  459.25   15.40 
   2  -2   5  464.65   16.70 
   2  -2   5  465.55   18.70 
   2  -2   5  445.86   15.70 
  -3   2  -5  146.89    8.70 
  -3   2  -5  147.59    8.20 
  -3   2  -5  159.18    8.60 
   3  -2   5  149.99    9.10 
   3  -2   5  143.29    9.80 
   3  -2   5  152.88    9.50 
  -4   2  -5   26.00    4.40 
  -4   2  -5   23.30    3.90 
   4  -2   5   29.90    5.50 
   4  -2   5   28.90    5.40 
  -5   2  -5   87.79    7.90 
   5  -2   5   77.79    8.40 
   5  -2   5   83.99    8.30 
   5  -2   5   82.89    8.60 
  -6   2  -5  394.56   19.60 
   6  -2   5  433.66   23.20 
   6  -2   5  421.16   20.90 
   6  -2   5  413.16   21.80 
   7  -2   5   93.59   11.20 
   7  -2   5   77.39    9.70 
   8   1  -5    2.80    2.60 
   8   1  -5    5.70    5.00 
  -8  -1   5    7.30    3.80 
  -8  -1   5   -0.70    2.30 
   7   1  -5  203.48   12.70 
   7   1  -5  243.28   14.40 
  -7  -1   5  241.08   15.50 
  -7  -1   5  234.58   14.30 
   6   1  -5   46.30    5.80 
  -6  -1   5   38.50    5.40 
   5   1  -5  165.68    9.50 
   5   1  -5  158.28    9.90 
  -5  -1   5  146.59   12.90 
  -5  -1   5  158.88    9.80 
  -5  -1   5  158.68    9.90 
   4   1  -5   90.19    6.00 
   4   1  -5   98.89    7.30 
  -4  -1   5   96.69    6.80 
  -4  -1   5  100.79    6.80 
  -4  -1   5   81.99   13.00 
   3   1  -5  976.10   24.80 
   3   1  -5  945.81   28.90 
   3   1  -5  917.81   25.50 
   3   1  -5  981.70   31.70 
  -3  -1   5  950.70   26.60 
  -3  -1   5  974.80   26.30 
  -3  -1   5  916.01   29.60 
   2   1  -5  533.05   18.60 
   2   1  -5  514.25   19.90 
  -2  -1   5  515.25   14.70 
  -2  -1   5  526.15   15.20 
   1   1  -5 3996.00   95.79 
   1   1  -5 4019.50   94.89 
  -1  -1   5 4054.49   88.29 
  -1  -1   5 4004.20   88.49 
   0   1  -5 1142.09   32.60 
   0  -1   5 1176.88   26.80 
   0  -1   5 1150.98   27.30 
  -1   1  -5 2331.67   52.89 
  -1   1  -5 2321.67   57.69 
  -1   1  -5 2340.07   52.99 
   1  -1   5 2337.77   59.39 
   1  -1   5 2361.46   54.79 
   1  -1   5 2337.17   54.29 
  -2   1  -5   60.79    4.60 
  -2   1  -5   57.49    3.90 
  -2   1  -5   57.49    4.10 
   2  -1   5   60.39    4.70 
   2  -1   5   53.59    4.40 
   2  -1   5   55.59    5.20 
  -3   1  -5  492.65   16.40 
  -3   1  -5  458.85   15.90 
  -3   1  -5  488.95   17.30 
   3  -1   5  488.95   18.20 
   3  -1   5  489.55   18.70 
   3  -1   5  492.95   18.10 
  -4   1  -5  395.76   15.80 
  -4   1  -5  418.86   15.00 
  -4   1  -5  420.16   17.30 
   4  -1   5  400.56   17.60 
   4  -1   5  401.26   17.30 
  -5   1  -5 2384.26   62.49 
  -5   1  -5 2335.47   59.69 
   5  -1   5 2396.66   67.19 
   5  -1   5 2349.26   63.79 
  -6   1  -5  423.16   19.30 
   6  -1   5  424.06   21.30 
   6  -1   5  402.56   22.30 
   6  -1   5  414.16   19.70 
  -7   1  -5  185.28   13.20 
   7  -1   5  165.98   15.80 
   7  -1   5  205.58   14.00 
   7  -1   5  210.08   15.70 
   8   0  -5  175.88   11.80 
  -8   0   5  158.48   12.90 
  -8   0   5  194.88   15.10 
   7   0  -5   85.49    7.80 
   7   0  -5  105.19    9.40 
  -7   0   5  106.19    9.20 
  -7   0   5   77.89    9.10 
   6   0  -5   37.70    5.30 
   6   0  -5   22.90    4.50 
  -6   0   5   26.00    4.80 
  -6   0   5   16.30    3.90 
   5   0  -5  392.66   16.50 
   5   0  -5  373.86   24.30 
   5   0  -5  413.16   16.70 
  -5   0   5  415.96   16.80 
  -5   0   5  372.66   16.70 
  -5   0   5  402.46   20.60 
   4   0  -5  277.67   12.40 
   4   0  -5  260.07   11.40 
  -4   0   5  242.88   11.40 
  -4   0   5  245.28   11.30 
  -4   0   5  252.87   13.10 
   3   0  -5  235.08    9.00 
   3   0  -5  227.88    9.50 
   3   0  -5  234.78   10.80 
  -3   0   5  223.08    9.30 
  -3   0   5  201.68   10.90 
  -3   0   5  216.78    9.10 
   2   0  -5  631.74   17.20 
   2   0  -5  665.43   16.20 
   2   0  -5  674.63   21.10 
  -2   0   5  676.53   21.60 
  -2   0   5  658.23   17.70 
  -2   0   5  680.23   17.70 
   1   0  -5 1740.93   45.10 
   1   0  -5 1726.93   43.70 
  -1   0   5 1689.93   38.10 
  -1   0   5 1702.53   38.20 
   0   0  -5 1288.47   35.00 
   0   0   5 1322.07   29.30 
   0   0   5 1313.77   29.60 
   0   0   5 1324.17   35.50 
  -1   0  -5   99.69    3.30 
  -1   0  -5   99.39    3.50 
  -1   0  -5   92.69    5.60 
   1   0   5   99.29    4.50 
   1   0   5  123.39    6.90 
   1   0   5  102.49    4.90 
  -2   0  -5  706.03   20.10 
  -2   0  -5  688.43   20.30 
  -2   0  -5  687.03   18.90 
   2   0   5  715.03   20.40 
   2   0   5  716.93   22.00 
   2   0   5  719.03   21.40 
  -3   0  -5  688.93   22.10 
  -3   0  -5  682.73   20.20 
  -3   0  -5  751.92   21.40 
   3   0   5  702.43   22.60 
   3   0   5  721.63   23.90 
   3   0   5  730.63   22.60 
  -4   0  -5   10.90    2.20 
  -4   0  -5    4.10    1.70 
  -4   0  -5    6.30    2.00 
   4   0   5    7.10    2.20 
   4   0   5    5.80    2.40 
  -5   0  -5    5.90    2.20 
  -5   0  -5    3.60    2.10 
   5   0   5    4.40    2.20 
   5   0   5    4.60    3.00 
   5   0   5    4.20    2.10 
  -6   0  -5  235.28   13.60 
   6   0   5  238.08   13.00 
   6   0   5  237.98   14.90 
   6   0   5  226.78   15.80 
  -7   0  -5  180.28   12.70 
   7   0   5  155.78   21.70 
   7   0   5  187.48   14.30 
   7   0   5  185.98   12.30 
   8  -1  -5  271.97   15.60 
  -8   1   5  270.77   18.90 
   7  -1  -5   10.20    4.00 
   7  -1  -5   18.30    4.20 
  -7   1   5   11.50    4.10 
  -7   1   5   15.80    4.30 
   6  -1  -5  920.01   32.40 
   6  -1  -5  925.71   29.70 
  -6   1   5  937.21   31.50 
  -6   1   5  873.21   31.90 
   5  -1  -5   22.50    4.10 
   5  -1  -5   18.50    4.00 
  -5   1   5   19.40    3.60 
   4  -1  -5  200.88   10.30 
   4  -1  -5  181.78   10.30 
   4  -1  -5  183.88    9.60 
  -4   1   5  174.28    9.30 
  -4   1   5  178.68    9.80 
  -4   1   5  197.68   12.00 
   3  -1  -5  480.55   16.60 
   3  -1  -5  474.85   16.10 
   3  -1  -5  490.85   16.90 
  -3   1   5  500.15   18.30 
  -3   1   5  497.05   16.00 
  -3   1   5  489.45   16.40 
   2  -1  -5 1760.72   41.70 
   2  -1  -5 1793.22   44.10 
   2  -1  -5 1717.13   41.70 
  -2   1   5 1694.43   44.90 
  -2   1   5 1706.13   42.20 
  -2   1   5 1776.32   41.70 
   1  -1  -5  918.91   26.60 
   1  -1  -5  926.81   25.00 
  -1   1   5  909.61   22.60 
  -1   1   5  934.71   22.30 
  -1   1   5  858.51   25.10 
  -1  -1  -5 1806.72   43.30 
  -1  -1  -5 1846.22   40.50 
  -1  -1  -5 1790.52   41.00 
   1   1   5 1742.63   42.30 
   1   1   5 1854.71   43.60 
   1   1   5 1758.92   44.00 
  -2  -1  -5 2065.19   48.00 
  -2  -1  -5 2015.20   49.00 
   2   1   5 2044.30   50.99 
   2   1   5 1997.40   49.30 
   2   1   5 2026.60   49.30 
  -3  -1  -5  166.78    8.70 
  -3  -1  -5  160.08    6.60 
  -3  -1  -5  162.98    7.90 
   3   1   5  157.38    7.70 
   3   1   5  172.48    9.80 
   3   1   5  163.08    8.50 
  -4  -1  -5  189.18    7.90 
  -4  -1  -5  173.28   11.00 
  -4  -1  -5  190.28    9.80 
   4   1   5  188.88    9.20 
   4   1   5  188.88   10.30 
  -5  -1  -5  140.09   12.90 
  -5  -1  -5  118.09    6.80 
  -5  -1  -5  126.49    9.60 
   5   1   5  115.59    8.90 
   5   1   5  110.19    9.90 
   5   1   5  118.59    7.70 
  -6  -1  -5  896.41   27.50 
  -6  -1  -5  853.01   30.60 
   6   1   5  879.71   35.30 
   6   1   5  966.80   41.90 
   6   1   5  930.21   29.40 
  -7  -1  -5   88.89    9.00 
   7   1   5   97.09    8.20 
   7   1   5   99.79   10.10 
  -8  -1  -5    7.00    4.60 
   8   1   5    9.80    3.80 
   8   1   5   15.90    4.90 
   8   1   5   17.90    9.20 
   7  -2  -5  417.06   22.80 
   7  -2  -5  430.06   19.00 
  -7   2   5  402.56   20.80 
  -7   2   5  438.76   22.50 
   6  -2  -5   84.19    8.60 
   6  -2  -5   73.19    6.70 
  -6   2   5   59.59    7.00 
  -6   2   5   92.79    8.50 
   5  -2  -5  155.98   10.70 
   5  -2  -5  150.08   11.30 
  -5   2   5  150.28   10.40 
  -5   2   5  160.88   10.10 
   4  -2  -5  872.31   28.70 
   4  -2  -5  891.61   28.90 
   4  -2  -5  910.11   27.00 
  -4   2   5  902.81   27.80 
  -4   2   5  900.01   29.60 
   3  -2  -5 1511.35   39.40 
   3  -2  -5 1544.85   41.20 
   3  -2  -5 1442.86   39.90 
  -3   2   5 1503.75   40.70 
  -3   2   5 1570.04   40.00 
  -3   2   5 1513.25   41.60 
   2  -2  -5   64.09    4.40 
   2  -2  -5   58.79    4.10 
   2  -2  -5   60.29    4.60 
  -2   2   5   60.59    4.40 
  -2   2   5   60.39    4.60 
  -2   2   5   58.99    4.90 
   1  -2  -5 4913.01  110.29 
   1  -2  -5 4958.00  108.89 
   1  -2  -5 5020.70  110.59 
  -1   2   5 4797.72  111.39 
  -1   2   5 4888.01  110.39 
  -1   2   5 4931.91  110.89 
   0  -2  -5  245.28    9.40 
   0  -2  -5  264.37    8.60 
   0  -2  -5  249.38    7.60 
   0  -2  -5  247.68    8.50 
   0   2   5  250.67    9.10 
   0   2   5  257.87    9.50 
  -1  -2  -5  694.63   18.70 
  -1  -2  -5  666.23   18.00 
  -1  -2  -5  655.73   17.30 
  -1  -2  -5  655.53   17.20 
   1   2   5  647.24   19.00 
   1   2   5  682.43   20.00 
  -2  -2  -5 1243.98   33.40 
  -2  -2  -5 1278.77   29.70 
  -2  -2  -5 1360.36   33.80 
   2   2   5 1293.47   31.30 
   2   2   5 1271.97   35.20 
   2   2   5 1248.08   33.60 
  -3  -2  -5  323.07   13.50 
  -3  -2  -5  332.27    9.80 
  -3  -2  -5  336.47   13.30 
   3   2   5  330.57   11.10 
   3   2   5  330.17   14.80 
   3   2   5  334.27   13.30 
  -4  -2  -5 1183.98   35.40 
  -4  -2  -5 1188.68   34.50 
  -4  -2  -5 1154.28   29.40 
   4   2   5 1134.29   36.90 
   4   2   5 1158.08   30.80 
   4   2   5 1202.28   34.70 
  -5  -2  -5 1070.69   28.70 
  -5  -2  -5 1053.29   33.50 
  -5  -2  -5 1067.69   34.90 
   5   2   5 1009.30   36.60 
   5   2   5 1072.69   33.80 
   5   2   5 1067.79   29.80 
  -6  -2  -5  312.37   16.10 
  -6  -2  -5  309.57   13.00 
   6   2   5  328.97   16.90 
   6   2   5  305.07   18.80 
   6   2   5  310.37   13.40 
  -7  -2  -5  335.07   17.80 
  -7  -2  -5  337.67   15.10 
   7   2   5  311.07   23.30 
   7   2   5  323.27   14.90 
   7   2   5  322.27   18.30 
  -8  -2  -5  110.89   11.50 
   8   2   5  101.09    8.60 
   8   2   5  112.79   11.50 
   8   2   5  104.29   14.40 
   7  -3  -5  154.98   10.90 
   7  -3  -5  146.69   13.60 
  -7   3   5  138.09   12.60 
  -7   3   5  151.28   12.50 
   6  -3  -5  306.17   17.80 
   6  -3  -5  302.57   15.00 
  -6   3   5  293.17   16.50 
  -6   3   5  312.57   17.40 
   5  -3  -5  812.82   25.70 
   5  -3  -5  755.02   29.10 
  -5   3   5  800.82   28.70 
  -5   3   5  669.33   33.40 
   4  -3  -5  284.37   14.90 
   4  -3  -5  321.67   13.00 
   4  -3  -5  284.67   14.10 
  -4   3   5  283.57   14.40 
  -4   3   5  320.07   14.50 
  -4   3   5  259.17   13.60 
   3  -3  -5  156.08    8.00 
   3  -3  -5  151.48    9.60 
   3  -3  -5  144.39    8.50 
  -3   3   5  151.48    8.90 
  -3   3   5  149.19    8.80 
   2  -3  -5 4402.96   98.59 
   2  -3  -5 4368.86   99.59 
   2  -3  -5 4427.96  102.39 
  -2   3   5 4389.66  100.69 
  -2   3   5 4166.98  100.59 
  -2   3   5 4201.08  101.29 
   1  -3  -5  173.28    6.90 
   1  -3  -5  174.48    8.80 
   1  -3  -5  173.38    7.40 
  -1   3   5  174.98    7.70 
  -1   3   5  183.08    8.70 
  -1   3   5  175.98    8.50 
   0  -3  -5  956.90   24.90 
   0  -3  -5  958.50   26.90 
   0  -3  -5  955.30   23.00 
   0   3   5  929.21   24.00 
   0   3   5  938.31   27.00 
   0   3   5  969.00   26.80 
  -1  -3  -5 8322.67  181.08 
  -1  -3  -5 8028.90  179.48 
   1   3   5 7920.81  181.68 
  -2  -3  -5 5020.90  113.29 
  -2  -3  -5 4712.73  111.89 
   2   3   5 4972.70  112.89 
   2   3   5 4776.52  114.39 
  -3  -3  -5  408.86   16.20 
  -3  -3  -5  383.76   15.40 
  -3  -3  -5  391.16   10.20 
   3   3   5  369.66   10.70 
   3   3   5  381.86   15.20 
  -4  -3  -5 1537.75   45.90 
  -4  -3  -5 1585.94   44.50 
  -4  -3  -5 1559.34   37.10 
   4   3   5 1547.35   43.40 
   4   3   5 1516.65   37.40 
   4   3   5 1556.04   46.40 
  -5  -3  -5  156.28   10.80 
  -5  -3  -5  167.98   11.40 
  -5  -3  -5  176.58    7.80 
   5   3   5  157.18   12.00 
   5   3   5  162.08    7.50 
   5   3   5  171.58   10.90 
  -6  -3  -5  403.56   19.50 
  -6  -3  -5  403.56   15.00 
   6   3   5  398.16   19.20 
   6   3   5  397.96   14.60 
   6   3   5  386.36   21.80 
  -7  -3  -5  127.99   11.20 
  -7  -3  -5  109.09    8.00 
   7   3   5  121.69    8.00 
   7   3   5  121.09   12.60 
   7   3   5  127.59   10.90 
  -8  -3  -5    5.60    3.20 
   8   3   5   -0.40    2.80 
   8   3   5    9.70    5.60 
   8   3   5    3.20    2.40 
   7  -4  -5   -3.60    2.10 
  -7   4   5   -1.10    3.80 
   6  -4  -5  184.28   14.40 
   6  -4  -5  182.58   11.50 
  -6   4   5  177.58   13.40 
  -6   4   5  191.88   13.80 
   5  -4  -5  172.68   10.20 
   5  -4  -5  138.39   12.00 
  -5   4   5  149.49   11.40 
  -5   4   5  167.88   11.80 
   4  -4  -5  605.24   25.70 
   4  -4  -5  669.23   21.80 
  -4   4   5  623.74   24.10 
  -4   4   5  646.44   25.00 
  -4   4   5  634.34   23.60 
   3  -4  -5 1475.95   44.00 
   3  -4  -5 1430.26   40.70 
   3  -4  -5 1536.65   39.10 
  -3   4   5 1453.15   40.70 
  -3   4   5 1439.56   42.70 
  -3   4   5 1442.86   42.00 
   2  -4  -5   48.90    5.60 
   2  -4  -5   52.39    4.70 
   2  -4  -5   54.49    4.30 
  -2   4   5   48.80    5.10 
  -2   4   5   53.79    4.60 
   1  -4  -5  572.24   18.30 
   1  -4  -5  586.64   16.40 
   1  -4  -5  577.84   20.80 
  -1   4   5  573.44   20.00 
   0  -4  -5 1513.65   42.00 
   0  -4  -5 1529.65   39.30 
   0  -4  -5 1561.34   35.70 
   0   4   5 1519.25   41.50 
   0   4   5 1514.05   36.60 
   0   4   5 1536.25   41.80 
  -1  -4  -5   38.00    1.80 
  -1  -4  -5   41.90    1.70 
  -1  -4  -5   43.20    4.60 
  -1  -4  -5   39.40    3.90 
   1   4   5   37.10    4.30 
   1   4   5   38.40    4.50 
  -2  -4  -5  332.77   14.80 
  -2  -4  -5  351.46   14.10 
   2   4   5  337.27   14.40 
  -3  -4  -5 6659.83  154.48 
  -3  -4  -5 6552.34  155.48 
   3   4   5 6707.23  157.28 
   3   4   5 6803.32  154.78 
  -4  -4  -5  331.37   15.80 
  -4  -4  -5  326.87    9.80 
  -4  -4  -5  352.76   16.90 
   4   4   5  344.57   15.70 
   4   4   5  320.07    9.50 
   4   4   5  351.26   17.50 
  -5  -4  -5  349.87   12.00 
  -5  -4  -5  340.97   17.60 
  -5  -4  -5  352.06   17.70 
   5   4   5  348.77   11.30 
   5   4   5  327.47   18.60 
   5   4   5  371.06   17.20 
  -6  -4  -5  674.53   21.30 
  -6  -4  -5  629.94   27.30 
   6   4   5  695.23   20.30 
   6   4   5  682.43   30.30 
   6   4   5  706.13   27.30 
  -7  -4  -5    3.60    2.20 
  -7  -4  -5    1.40    2.60 
   7   4   5    0.10    2.20 
   7   4   5   -3.00    3.30 
   7   4   5   -0.50    1.50 
  -8  -4  -5   29.40    6.50 
  -8  -4  -5   26.00    5.10 
   8   4   5   34.80    5.10 
   8   4   5   42.70    9.70 
   8   4   5   33.60    6.70 
   6  -5  -5   83.09   11.00 
   6  -5  -5   71.69    7.70 
  -6   5   5   83.49    9.80 
  -6   5   5   53.89    8.70 
   5  -5  -5  206.98   12.00 
   5  -5  -5  201.78   15.50 
  -5   5   5  225.38   14.90 
  -5   5   5  218.68   14.50 
   4  -5  -5  518.45   24.40 
   4  -5  -5  515.25   19.40 
  -4   5   5  527.55   25.50 
  -4   5   5  532.05   23.20 
   3  -5  -5  333.17   13.60 
   3  -5  -5  318.87   17.40 
   3  -5  -5  332.67   15.20 
  -3   5   5  337.67   16.90 
  -3   5   5  339.67   14.70 
  -3   5   5  323.87   16.40 
   2  -5  -5  368.56   18.00 
   2  -5  -5  374.66   15.40 
   2  -5  -5  389.56   13.80 
  -2   5   5  375.36   14.40 
  -2   5   5  370.76   17.00 
  -2   5   5  392.26   17.50 
   1  -5  -5 1353.56   41.80 
   1  -5  -5 1431.56   38.30 
   1  -5  -5 1421.36   35.70 
  -1   5   5 1412.16   35.90 
  -1   5   5 1367.26   40.50 
  -1   5   5 1371.96   40.50 
   0  -5  -5   18.70    4.10 
   0  -5  -5   20.90    3.50 
   0   5   5   14.20    3.30 
   0   5   5   21.60    4.10 
   0   5   5   22.70    2.30 
  -1  -5  -5 1363.26   32.50 
  -1  -5  -5 1406.36   38.90 
  -1  -5  -5 1384.56   41.40 
   1   5   5 1407.16   41.10 
   1   5   5 1398.56   32.10 
   1   5   5 1443.06   40.90 
  -2  -5  -5  848.02   26.80 
  -2  -5  -5  750.92   29.40 
   2   5   5  847.02   27.90 
   2   5   5  813.52   28.40 
  -3  -5  -5 1030.10   32.80 
  -3  -5  -5 1037.10   34.40 
   3   5   5 1023.10   33.10 
   3   5   5 1034.40   34.90 
  -4  -5  -5  766.72   36.90 
  -4  -5  -5  944.01   32.70 
   4   5   5  925.41   30.90 
   4   5   5  913.91   33.30 
  -5  -5  -5  387.36   20.10 
  -5  -5  -5  395.36   19.60 
   5   5   5  391.26   18.70 
   5   5   5  394.56   11.30 
   5   5   5  394.26   21.30 
   5   5   5  397.56   12.70 
  -6  -5  -5  129.39    7.30 
  -6  -5  -5  131.29   11.70 
   6   5   5  134.09   12.40 
   6   5   5  134.39    6.30 
   6   5   5  132.99   10.80 
  -7  -5  -5  323.27   19.60 
  -7  -5  -5  313.37   13.60 
   7   5   5  319.47   18.50 
   7   5   5  323.77   21.50 
   7   5   5  310.07   12.00 
  -8  -5  -5  137.59   13.60 
  -8  -5  -5  128.39    9.50 
   8   5   5  153.08   12.70 
   8   5   5  135.59    8.20 
   8   5   5  148.29   15.60 
   5  -6  -5   26.60    5.50 
   5  -6  -5   22.50    6.20 
  -5   6   5   17.80    4.60 
  -5   6   5    8.00    5.30 
   4  -6  -5  363.56   16.20 
   4  -6  -5  363.86   21.00 
  -4   6   5  335.17   18.90 
  -4   6   5  344.07   18.90 
   3  -6  -5   20.70    3.80 
   3  -6  -5   22.00    5.80 
  -3   6   5   19.20    4.70 
  -3   6   5   21.90    5.10 
  -3   6   5   18.40    4.00 
   2  -6  -5 1325.37   35.40 
   2  -6  -5 1191.78   41.70 
   2  -6  -5 1284.67   38.00 
  -2   6   5 1282.17   40.90 
  -2   6   5 1274.07   40.70 
  -2   6   5 1262.27   35.30 
   1  -6  -5   32.00    5.70 
   1  -6  -5   36.80    4.60 
   1  -6  -5   41.70    4.10 
  -1   6   5   47.60    5.90 
  -1   6   5   41.90    3.90 
  -1   6   5   42.50    5.50 
   0  -6  -5   17.50    4.20 
   0  -6  -5   17.90    2.70 
   0  -6  -5   27.70    3.80 
   0   6   5   17.90    2.30 
   0   6   5   10.90    3.10 
   0   6   5   19.40    4.50 
  -1  -6  -5  256.37    9.00 
  -1  -6  -5  264.17   15.00 
  -1  -6  -5  256.17   12.80 
   1   6   5  249.88    7.90 
   1   6   5  246.88   13.80 
   1   6   5  248.08   13.90 
  -2  -6  -5  242.08   12.60 
  -2  -6  -5  218.98   13.60 
   2   6   5  202.98   13.00 
   2   6   5  228.98   13.20 
  -3  -6  -5    8.60    2.90 
  -3  -6  -5    5.70    2.90 
   3   6   5    3.40    2.30 
   3   6   5    7.80    3.00 
  -4  -6  -5 2449.35   66.69 
  -4  -6  -5 2415.06   68.59 
   4   6   5 2438.66   66.79 
   4   6   5 2306.87   68.69 
  -5  -6  -5  119.89   11.20 
  -5  -6  -5  117.89   10.80 
   5   6   5  117.19    9.90 
   5   6   5  120.79    4.70 
   5   6   5  100.39   11.10 
   5   6   5  114.79    4.00 
  -6  -6  -5   11.20    4.40 
   6   6   5   16.20    2.00 
   6   6   5   17.30    2.70 
   6   6   5   15.80    4.80 
   6   6   5   15.60    5.10 
  -7  -6  -5   44.80    9.00 
   7   6   5   30.40    4.50 
   7   6   5   35.20    7.30 
   7   6   5   30.80    3.20 
   7   6   5   31.80    8.00 
  -8  -6  -5   50.79    8.40 
   8   6   5   47.40    6.60 
   8   6   5   49.99    4.70 
   8   6   5   32.50    6.30 
   5  -7  -5  281.57   23.30 
   5  -7  -5  301.57   21.40 
  -5   7   5  298.57   27.40 
  -5   7   5  313.47   20.20 
   4  -7  -5    0.40    3.90 
   4  -7  -5    4.90    3.10 
  -4   7   5    8.80    5.20 
  -4   7   5   12.30    4.70 
   3  -7  -5  113.19   11.50 
   3  -7  -5  115.59    8.70 
  -3   7   5  121.29   11.50 
  -3   7   5  125.49   11.50 
   2  -7  -5  325.87   19.60 
   2  -7  -5  349.17   15.00 
  -2   7   5  338.17   18.60 
  -2   7   5  331.87   18.30 
  -2   7   5  336.27   14.10 
   1  -7  -5  347.07   16.30 
   1  -7  -5  355.66   19.80 
   1  -7  -5  345.67   14.40 
  -1   7   5  363.66   13.50 
  -1   7   5  373.36   18.80 
  -1   7   5  362.56   18.70 
   0  -7  -5  127.19    9.20 
   0  -7  -5  136.99    7.70 
   0  -7  -5  124.69   10.90 
   0   7   5  129.59    6.50 
   0   7   5  127.69   10.60 
   0   7   5  146.89   11.20 
  -1  -7  -5   68.19    8.30 
  -1  -7  -5   81.29    7.30 
  -1  -7  -5   79.49    5.10 
   1   7   5   80.79    8.40 
   1   7   5   78.39    4.10 
   1   7   5   79.59    8.20 
  -2  -7  -5  161.28    6.40 
  -2  -7  -5  194.78   12.00 
   2   7   5  166.88    5.40 
   2   7   5  167.88   12.50 
   2   7   5  176.28   12.40 
  -3  -7  -5  248.98   16.00 
  -3  -7  -5  267.07   15.10 
   3   7   5  257.07   16.20 
   3   7   5  270.67   15.70 
  -4  -7  -5   20.20    4.80 
  -4  -7  -5   19.50    4.90 
   4   7   5   25.90    5.20 
   4   7   5   22.60    5.10 
  -5  -7  -5   88.49   10.20 
   5   7   5  107.89   10.20 
   5   7   5  106.29   11.10 
  -6  -7  -5    4.60    3.50 
   6   7   5    9.70    1.40 
   6   7   5    4.30    2.90 
   6   7   5   15.80    4.60 
   6   7   5    9.30    2.00 
  -7  -7  -5   -0.60    3.80 
   7   7   5   -2.00    1.00 
   7   7   5   -1.70    4.20 
   7   7   5    1.90    3.10 
   7   7   5    0.50    2.00 
  -8  -7  -5  187.68   17.70 
   8   7   5  188.28   26.10 
   8   7   5  220.08   16.20 
   8   7   5  192.68    8.80 
   4  -8  -5   13.20    6.30 
   4  -8  -5   22.60    5.10 
  -4   8   5   17.10    6.70 
  -4   8   5    1.60    4.60 
   3  -8  -5  318.87   21.30 
   3  -8  -5  323.37   16.60 
  -3   8   5  323.17   20.10 
  -3   8   5  275.97   18.50 
   2  -8  -5   -3.00    1.30 
   2  -8  -5   -1.10    3.10 
  -2   8   5   -1.60    1.80 
  -2   8   5    0.50    2.80 
   1  -8  -5  604.04   22.10 
   1  -8  -5  602.64   28.60 
  -1   8   5  594.14   26.80 
  -1   8   5  603.74   27.40 
   0  -8  -5  629.54   29.30 
   0  -8  -5  693.83   22.80 
   0   8   5  677.33   28.80 
   0   8   5  637.14   27.90 
   0   8   5  633.84   19.70 
  -1  -8  -5    5.00    2.80 
  -1  -8  -5    0.90    2.10 
   1   8   5   -0.10    1.60 
   1   8   5   -1.00    2.10 
  -2  -8  -5  489.45   25.00 
  -2  -8  -5  483.05   22.00 
  -2  -8  -5  508.65   16.10 
   2   8   5  501.95   13.80 
   2   8   5  500.45   24.00 
   2   8   5  501.55   24.20 
  -3  -8  -5   95.49    9.40 
  -3  -8  -5  102.09   10.90 
   3   8   5   94.99    3.90 
   3   8   5  116.59   11.40 
   3   8   5   99.69    3.50 
   3   8   5  105.29   10.10 
  -4  -8  -5   48.70    9.00 
   4   8   5   46.10    8.80 
   4   8   5   52.69    9.10 
  -5  -8  -5  244.58   18.00 
   5   8   5  200.98   14.90 
   5   8   5  193.58   16.30 
  -6  -8  -5  126.29   13.10 
   6   8   5  107.89   11.20 
   6   8   5  100.49    3.70 
   6   8   5   99.19    4.20 
   6   8   5   96.29   13.30 
  -7  -8  -5   32.60    8.10 
   7   8   5   31.40    6.60 
   7   8   5   22.50    7.60 
   7   8   5   26.40    2.40 
   7   8   5   27.60    3.40 
   3  -9  -5    5.40    3.00 
  -3   9   5    3.80    5.90 
  -3   9   5    0.30    2.90 
   2  -9  -5   16.20    4.40 
   2  -9  -5   34.50    8.00 
  -2   9   5   37.90    8.10 
  -2   9   5   27.10    6.80 
   1  -9  -5  240.28   17.90 
   1  -9  -5  217.98   12.90 
  -1   9   5  191.58   13.30 
  -1   9   5  223.18   16.90 
  -1   9   5  226.18   16.20 
   0  -9  -5  222.68   12.60 
   0  -9  -5  241.98   18.10 
   0   9   5  251.27   16.40 
   0   9   5  206.48   16.00 
   0   9   5  224.48   10.20 
  -1  -9  -5  125.99    8.60 
  -1  -9  -5  141.79   13.50 
   1   9   5  111.29   11.50 
   1   9   5  142.49   13.00 
   1   9   5  123.89    6.50 
  -2  -9  -5   28.80    7.20 
  -2  -9  -5   43.30    4.40 
   2   9   5   27.90    6.50 
   2   9   5   38.50    3.10 
   2   9   5   33.00    7.00 
  -3  -9  -5  398.56   23.40 
   3   9   5  387.56   11.00 
   3   9   5  400.26   22.50 
   3   9   5  380.86   21.70 
   3   9   5  357.96   11.90 
  -4  -9  -5  218.68   17.40 
   4   9   5  213.98    6.30 
   4   9   5  239.48   17.20 
   4   9   5  249.08   17.90 
   4   9   5  222.58    6.60 
  -5  -9  -5   13.70    5.00 
   5   9   5    3.10    4.10 
   5   9   5    8.20    5.80 
  -6  -9  -5   -2.80    3.30 
   6   9   5    5.40    4.70 
   6   9   5   11.60    6.40 
  -7  -9  -5   91.99   12.60 
   7   9   5   74.69   10.30 
   7   9   5   71.09    3.60 
   1 -10  -5   57.49   10.90 
   1 -10  -5   59.19    6.90 
  -1  10   5   49.30    9.20 
  -1  10   5   62.59   12.80 
   0 -10  -5   91.99    8.60 
   0 -10  -5   95.69   12.60 
   0  10   5  111.49   12.10 
   0  10   5  102.99   11.90 
   0  10   5   97.79    6.80 
  -1 -10  -5  582.04   22.40 
  -1 -10  -5  540.45   32.00 
   1  10   5  591.44   29.70 
   1  10   5  553.74   28.10 
   1  10   5  563.54   18.40 
  -2 -10  -5  109.29   12.90 
  -2 -10  -5  106.89    7.70 
   2  10   5  119.09   12.60 
   2  10   5  116.09    6.10 
   2  10   5   97.29   11.90 
  -3 -10  -5   96.99   12.40 
   3  10   5  103.69   12.30 
   3  10   5   84.19   11.60 
   3  10   5  103.39    6.10 
   3  10   5   93.39    4.90 
  -4 -10  -5   25.10    6.70 
   4  10   5   21.80    6.20 
   4  10   5   24.40    2.10 
   4  10   5   24.20    2.30 
   4  10   5   27.40    6.70 
  -5 -10  -5   11.90    5.10 
   5  10   5    5.40    0.80 
   5  10   5    6.40    4.80 
   5  10   5   12.20    6.10 
   5  10   5    4.20    0.80 
  -6 -10  -5   71.39   12.60 
   6  10   5   45.00    8.50 
  -1 -11  -5    8.30    5.50 
  -1 -11  -5   12.90    4.40 
   1  11   5   18.40    3.80 
   1  11   5   15.00    6.30 
   1  11   5    9.90    4.80 
  -2 -11  -5   61.29   12.20 
  -2 -11  -5   66.39    6.70 
   2  11   5   54.39   10.00 
   2  11   5   69.79   11.10 
   2  11   5   75.19    5.50 
  -3 -11  -5   -7.80    4.40 
   3  11   5    3.10    4.40 
   3  11   5    0.60    1.80 
   3  11   5   -1.90    5.10 
   3  11   5   -0.60    1.80 
  -4 -11  -5   23.20    6.40 
   4  11   5   22.00    3.00 
   4  11   5   12.60    4.80 
   5   8  -6   -5.50    2.70 
  -5  -8   6    9.30    3.90 
  -5  -8   6   -3.10    4.00 
   4   8  -6   66.69    8.80 
  -4  -8   6   58.79    7.90 
  -4  -8   6   80.09    9.30 
   3   8  -6   75.59    7.40 
   3   8  -6   81.29   10.30 
  -3  -8   6   91.79    8.80 
   2   8  -6   27.60    5.40 
  -2  -8   6   13.40    4.70 
  -2  -8   6   22.00    6.30 
  -2  -8   6   24.30    6.50 
   1   8  -6    7.70    3.20 
  -1  -8   6   10.20    3.50 
  -1  -8   6    7.80    3.00 
  -1  -8   6   11.40    5.40 
   0  -8   6  163.78   11.90 
   0  -8   6  154.48   13.80 
   0  -8   6  175.48   15.20 
   6   7  -6   27.50    6.40 
  -6  -7   6   36.50    6.90 
  -6  -7   6   42.70    7.60 
   5   7  -6   13.20    3.20 
  -5  -7   6   11.40    4.30 
   4   7  -6   20.40    3.90 
   4   7  -6   21.10    5.70 
  -4  -7   6   19.30    5.00 
  -4  -7   6   15.60    4.20 
   3   7  -6    6.20    3.10 
   3   7  -6    7.30    2.60 
  -3  -7   6    4.90    3.00 
   2   7  -6   93.49    7.10 
  -2  -7   6   86.59   10.50 
  -2  -7   6   92.49    9.60 
  -2  -7   6  100.39    8.40 
   1   7  -6   64.19    6.20 
  -1  -7   6   52.59    6.10 
  -1  -7   6   70.39    7.90 
  -1  -7   6   72.79    9.40 
   0   7  -6   73.29    7.10 
   0  -7   6   59.89    6.90 
   0  -7   6   83.19    9.10 
   0  -7   6   85.99   10.50 
  -1   7  -6    4.20    2.90 
   1  -7   6    0.40    2.90 
   1  -7   6    1.80    2.00 
   1  -7   6   -6.20    2.40 
   2  -7   6   56.99   10.30 
   2  -7   6   56.89    7.90 
   2  -7   6   64.69    8.90 
   7   6  -6   77.89    8.80 
  -7  -6   6   62.29    8.80 
   6   6  -6   29.20    4.80 
   6   6  -6   26.10    7.50 
  -6  -6   6   29.20    8.50 
  -6  -6   6   35.00    6.50 
   5   6  -6   62.29    8.00 
   5   6  -6   82.29    6.50 
  -5  -6   6   60.79    8.20 
  -5  -6   6   72.79    7.90 
   4   6  -6    1.90    1.60 
   4   6  -6    1.70    2.70 
  -4  -6   6    4.00    2.50 
  -4  -6   6    3.10    1.90 
   3   6  -6  630.74   20.50 
   3   6  -6  673.73   28.40 
  -3  -6   6  620.54   25.60 
  -3  -6   6  652.73   24.10 
   2   6  -6   36.30    4.10 
  -2  -6   6   44.70    6.00 
  -2  -6   6   38.90    7.70 
  -2  -6   6   41.90    5.10 
   1   6  -6    0.30    1.50 
  -1  -6   6   -2.40    1.20 
  -1  -6   6    1.20    2.50 
  -1  -6   6   -1.40    1.20 
   0   6  -6   40.20    4.70 
   0  -6   6   53.89    7.00 
   0  -6   6   39.10    5.00 
   0  -6   6   45.20    6.30 
  -1   6  -6   52.59    5.60 
   1  -6   6   38.60    7.70 
   1  -6   6   39.70    5.10 
   1  -6   6   35.60    6.60 
  -2   6  -6   63.49    6.80 
   2  -6   6   56.19   10.10 
   2  -6   6   52.49    6.50 
   2  -6   6   64.19    8.40 
  -3   6  -6  446.16   29.60 
   3  -6   6  439.36   29.00 
   3  -6   6  380.06   24.90 
   3  -6   6  376.16   19.40 
   7   5  -6    1.80    2.50 
  -7  -5   6    1.30    2.80 
  -7  -5   6   -4.40    3.10 
   6   5  -6   96.29   10.10 
   6   5  -6   98.79    7.60 
  -6  -5   6  111.09   10.70 
  -6  -5   6   98.49    9.70 
   5   5  -6  328.47   13.70 
   5   5  -6  344.47   19.00 
  -5  -5   6  354.66   18.40 
  -5  -5   6  327.37   16.90 
   4   5  -6   35.10    3.60 
   4   5  -6   28.40    5.60 
  -4  -5   6   31.70    5.80 
  -4  -5   6   26.10    5.00 
   3   5  -6  130.39   10.90 
   3   5  -6  125.69    6.60 
  -3  -5   6  135.49    9.00 
  -3  -5   6  120.79    9.20 
   2   5  -6   51.69    4.00 
  -2  -5   6   52.19    8.60 
  -2  -5   6   48.90    5.00 
  -2  -5   6   41.50    5.30 
   1   5  -6  461.75   15.60 
  -1  -5   6  507.65   20.10 
  -1  -5   6  472.25   17.50 
  -1  -5   6  454.05   22.80 
   0   5  -6    4.70    1.60 
   0  -5   6    6.70    2.50 
   0  -5   6    0.70    1.30 
   0  -5   6    4.20    2.40 
  -1   5  -6   88.89    6.80 
   1  -5   6   77.39    7.70 
   1  -5   6   82.69    6.70 
   1  -5   6   87.59    9.60 
  -2   5  -6  125.09   10.60 
   2  -5   6  108.99   11.10 
   2  -5   6  111.69    9.50 
   2  -5   6  123.49    8.80 
  -3   5  -6    9.70    2.90 
   3  -5   6    6.70    3.50 
   3  -5   6    6.80    3.00 
  -4   5  -6   83.89    8.80 
   4  -5   6   92.29   10.50 
   4  -5   6   72.29    8.80 
   7   4  -6  101.59    8.90 
  -7  -4   6   95.89   10.10 
  -7  -4   6  109.79   10.70 
   6   4  -6  324.77   17.90 
   6   4  -6  343.77   15.00 
  -6  -4   6  330.67   18.10 
  -6  -4   6  356.46   18.20 
   5   4  -6   11.20    2.70 
   5   4  -6   10.90    3.40 
  -5  -4   6   10.70    3.60 
  -5  -4   6   10.10    3.30 
   4   4  -6  130.29    6.80 
   4   4  -6  135.09   10.80 
  -4  -4   6  126.99    8.80 
  -4  -4   6  135.79    9.80 
   3   4  -6   17.80    2.10 
   3   4  -6   12.30    3.90 
   3   4  -6   15.20    2.10 
  -3  -4   6   13.60    3.20 
  -3  -4   6   21.30    3.00 
   2   4  -6  556.44   15.20 
   2   4  -6  565.54   23.60 
   2   4  -6  551.74   14.90 
   2   4  -6  561.14   23.90 
  -2  -4   6  547.15   20.00 
  -2  -4   6  568.04   18.80 
  -2  -4   6  554.44   24.60 
   1   4  -6 1431.46   34.50 
   1   4  -6 1441.86   44.30 
   1   4  -6 1429.16   34.40 
  -1  -4   6 1473.75   46.20 
  -1  -4   6 1408.06   37.80 
  -1  -4   6 1460.15   40.20 
   0   4  -6  157.38   10.70 
   0   4  -6  147.89    6.70 
   0   4  -6  145.59    7.00 
   0  -4   6  136.79   11.10 
   0  -4   6  157.78    8.00 
   0  -4   6  168.78    9.70 
  -1   4  -6 1398.16   37.70 
   1  -4   6 1389.76   38.00 
   1  -4   6 1429.46   45.80 
   1  -4   6 1401.16   50.69 
   2  -4   6  351.06   15.10 
   2  -4   6  353.56   19.10 
   2  -4   6  341.27   16.50 
  -3   4  -6   12.40    3.40 
   3  -4   6    9.40    4.00 
   3  -4   6   23.30    4.60 
   3  -4   6   17.70    3.80 
  -4   4  -6   32.80    5.80 
   4  -4   6   28.90    5.60 
   4  -4   6   46.10    7.70 
  -5   4  -6  107.29   14.10 
   5  -4   6  151.28   13.30 
   5  -4   6  122.39   11.60 
   5  -4   6  127.09   12.40 
   8   3  -6    0.90    2.80 
  -8  -3   6    3.90    3.40 
   7   3  -6    2.70    2.50 
   7   3  -6   -1.00    2.50 
  -7  -3   6    1.10    2.00 
  -7  -3   6    3.40    3.20 
   6   3  -6    8.00    3.10 
   6   3  -6   10.30    2.90 
  -6  -3   6   12.80    3.90 
  -6  -3   6    9.40    3.60 
   5   3  -6  153.18   11.10 
   5   3  -6  121.89    7.60 
  -5  -3   6  132.69    9.50 
  -5  -3   6  138.39   10.10 
   4   3  -6  713.93   20.70 
   4   3  -6  724.53   28.90 
  -4  -3   6  741.03   24.30 
  -4  -3   6  729.23   26.40 
   3   3  -6  262.97    8.20 
   3   3  -6  286.07   16.00 
   3   3  -6  263.77    8.70 
   3   3  -6  260.07   14.20 
  -3  -3   6  275.97   11.60 
  -3  -3   6  276.67   12.30 
   2   3  -6  707.83   25.70 
   2   3  -6  668.23   26.50 
  -2  -3   6  693.43   20.60 
  -2  -3   6  693.03   21.40 
   1   3  -6    1.20    1.80 
  -1  -3   6   -2.30    1.30 
  -1  -3   6    1.90    1.00 
  -1  -3   6    6.10    1.90 
   0   3  -6  928.21   22.10 
   0   3  -6  843.12   33.50 
   0   3  -6  928.71   21.80 
   0  -3   6  913.01   32.00 
   0  -3   6  936.91   26.80 
   0  -3   6  946.41   24.90 
  -1   3  -6  722.23   25.50 
  -1   3  -6  733.13   20.60 
  -1   3  -6  769.82   21.40 
   1  -3   6  746.03   23.90 
   1  -3   6  776.02   22.30 
   1  -3   6  732.53   27.90 
  -2   3  -6   94.69    7.20 
  -2   3  -6   94.99    8.50 
   2  -3   6   95.49    7.40 
   2  -3   6   85.19    8.70 
   2  -3   6   84.39    6.40 
  -3   3  -6  367.56   15.30 
   3  -3   6  300.37   27.70 
   3  -3   6  364.56   16.90 
   3  -3   6  339.17   15.70 
  -4   3  -6  521.75   20.90 
   4  -3   6  526.35   23.10 
   4  -3   6  502.25   22.40 
   4  -3   6  536.65   24.30 
  -5   3  -6  132.59   10.20 
   5  -3   6  109.59   10.70 
   5  -3   6  126.89   11.90 
   5  -3   6  132.99   11.80 
   6  -3   6  517.45   30.00 
   8   2  -6   -0.10    2.10 
  -8  -2   6    2.30    2.90 
   7   2  -6   12.90    3.70 
   7   2  -6   20.70    5.70 
  -7  -2   6   16.70    5.10 
  -7  -2   6    9.80    3.40 
   6   2  -6  344.07   16.50 
   6   2  -6  311.67   16.30 
  -6  -2   6  317.67   16.60 
  -6  -2   6  320.17   16.10 
   5   2  -6  198.28    9.80 
   5   2  -6  196.68   12.00 
  -5  -2   6  195.38   11.40 
  -5  -2   6  184.38   11.10 
   4   2  -6    4.60    2.30 
   4   2  -6    5.80    1.50 
   4   2  -6    3.80    1.50 
   4   2  -6    4.40    2.90 
  -4  -2   6    5.00    2.00 
  -4  -2   6    7.40    2.10 
   3   2  -6    4.20    2.10 
   3   2  -6    2.80    2.20 
  -3  -2   6    0.60    1.10 
  -3  -2   6    0.60    0.90 
   2   2  -6   62.29    6.00 
   2   2  -6   57.89    6.40 
  -2  -2   6   60.69    4.00 
  -2  -2   6   67.89    4.40 
   1   2  -6  157.08    9.70 
   1   2  -6  152.38    9.90 
  -1  -2   6  155.08   10.30 
  -1  -2   6  144.99    5.80 
  -1  -2   6  143.19    6.30 
   0   2  -6 5547.75  133.99 
   0  -2   6 5796.12  128.09 
   0  -2   6 5678.93  135.89 
   0  -2   6 5862.61  126.59 
  -1   2  -6  993.60   24.60 
  -1   2  -6  959.40   24.20 
  -1   2  -6 1016.90   30.70 
   1  -2   6 1008.00   26.50 
   1  -2   6 1002.20   27.60 
   1  -2   6  983.80   32.40 
  -2   2  -6  757.32   21.90 
  -2   2  -6  725.63   26.50 
  -2   2  -6  806.92   24.90 
   2  -2   6  751.02   27.30 
   2  -2   6  768.52   24.10 
   2  -2   6  751.32   23.30 
  -3   2  -6 1080.19   31.40 
  -3   2  -6 1088.09   30.90 
   3  -2   6 1057.89   32.80 
   3  -2   6  997.10   32.30 
   3  -2   6 1102.69   35.60 
  -4   2  -6   29.80    4.20 
   4  -2   6   25.50    5.50 
   4  -2   6   23.50    4.90 
   4  -2   6   26.50    5.20 
  -5   2  -6   57.39    6.60 
   5  -2   6   42.60    7.30 
   5  -2   6   48.00    6.60 
   5  -2   6   68.59    7.90 
  -6   2  -6  276.47   15.80 
   6  -2   6  278.47   17.20 
   6  -2   6  278.77   18.90 
   6  -2   6  272.37   17.30 
   8   1  -6  143.29   11.10 
  -8  -1   6  131.29   11.50 
   7   1  -6  104.49    8.80 
   7   1  -6   90.99    8.30 
  -7  -1   6  112.29    9.10 
  -7  -1   6   83.99    9.40 
   6   1  -6   26.20    4.60 
   6   1  -6   14.70    3.90 
  -6  -1   6   14.90    4.00 
  -6  -1   6   33.10    5.60 
   5   1  -6  319.77   15.50 
   5   1  -6  312.57   19.10 
  -5  -1   6  312.27   14.80 
  -5  -1   6  332.77   14.70 
   4   1  -6   20.50    4.70 
   4   1  -6   25.30    3.00 
   4   1  -6   19.20    2.70 
   4   1  -6   24.50    4.30 
  -4  -1   6   20.40    3.50 
  -4  -1   6   24.00    4.00 
  -4  -1   6   21.30    4.30 
   3   1  -6   85.49    3.70 
   3   1  -6   91.69    8.10 
   3   1  -6   93.19    7.20 
   3   1  -6   83.19    3.50 
  -3  -1   6   84.19    5.20 
  -3  -1   6   89.89    5.50 
   2   1  -6 1909.01   52.69 
   2   1  -6 1938.31   50.79 
  -2  -1   6 1881.01   44.70 
  -2  -1   6 1882.61   44.50 
   1   1  -6  407.86   17.10 
   1   1  -6  422.56   16.50 
  -1  -1   6  423.76   10.80 
  -1  -1   6  404.86   10.50 
   0   1  -6    0.10    1.30 
   0  -1   6    0.80    0.60 
   0  -1   6    1.20    0.60 
  -1   1  -6 1964.20   51.19 
   1  -1   6 1986.70   47.50 
   1  -1   6 2059.19   47.40 
   1  -1   6 1925.11   52.79 
  -2   1  -6 1522.55   38.70 
  -2   1  -6 1514.35   37.70 
  -2   1  -6 1498.05   40.20 
   2  -1   6 1533.65   43.20 
   2  -1   6 1515.75   39.60 
   2  -1   6 1491.35   39.30 
  -3   1  -6  148.29    8.10 
  -3   1  -6  169.48    8.20 
  -3   1  -6  152.98    8.40 
   3  -1   6  144.79    8.90 
   3  -1   6  158.58    9.50 
   3  -1   6  153.68   10.00 
  -4   1  -6   85.79    6.60 
  -4   1  -6   87.49    6.20 
   4  -1   6   87.19    8.30 
   4  -1   6   97.89    8.20 
  -5   1  -6 1160.68   34.90 
   5  -1   6 1134.19   37.60 
   5  -1   6 1122.99   37.30 
   5  -1   6 1072.89   38.70 
  -6   1  -6   17.60    4.40 
   6  -1   6   25.10    6.00 
   6  -1   6   30.90    6.00 
   6  -1   6   23.40    5.70 
   7  -1   6  249.88   15.90 
   7  -1   6  255.17   17.70 
   8   0  -6   -0.50    2.60 
  -8   0   6    6.60    3.00 
   7   0  -6   11.20    3.70 
   7   0  -6   16.70    4.30 
  -7   0   6   15.90    3.80 
   6   0  -6    6.50    2.80 
   6   0  -6    5.50    2.60 
  -6   0   6    9.00    3.20 
  -6   0   6   10.20    3.40 
   5   0  -6  624.24   21.90 
   5   0  -6  624.74   22.80 
  -5   0   6  621.14   22.10 
  -5   0   6  612.44   22.60 
   4   0  -6  104.29    7.00 
   4   0  -6  106.79    7.70 
   4   0  -6  105.39    6.90 
  -4   0   6   98.29    8.30 
  -4   0   6  101.79    6.60 
  -4   0   6   97.09    6.70 
   3   0  -6    3.20    1.90 
   3   0  -6    6.70    1.40 
   3   0  -6    3.60    1.20 
  -3   0   6    4.10    2.30 
  -3   0   6    3.70    1.30 
  -3   0   6    3.90    1.50 
   2   0  -6   68.79    6.30 
   2   0  -6   67.99    5.60 
  -2   0   6   65.09    3.50 
  -2   0   6   67.29    3.60 
   1   0  -6  108.79    7.60 
   1   0  -6  111.39    7.10 
   0   0  -6  143.09    8.20 
   0   0   6  135.99    9.10 
  -1   0  -6  970.70   28.20 
   1   0   6 1010.80   26.00 
   1   0   6 1009.60   29.80 
   1   0   6 1011.40   25.00 
  -2   0  -6  232.48    8.80 
  -2   0  -6  242.38   10.00 
  -2   0  -6  233.78    8.20 
   2   0   6  243.98    9.70 
   2   0   6  236.88   10.50 
   2   0   6  234.08   11.30 
  -3   0  -6    7.10    1.80 
  -3   0  -6    5.20    1.90 
  -3   0  -6    5.20    1.70 
   3   0   6    3.90    2.10 
   3   0   6    8.20    2.30 
   3   0   6    9.30    2.50 
  -4   0  -6  510.45   17.70 
  -4   0  -6  478.55   16.30 
   4   0   6  464.45   20.50 
   4   0   6  490.85   19.10 
   4   0   6  500.05   19.30 
  -5   0  -6   40.10    5.40 
  -5   0  -6   40.50    4.50 
   5   0   6   47.10    5.70 
   5   0   6   45.20    6.00 
   5   0   6   48.80    6.50 
  -6   0  -6   60.49    6.80 
   6   0   6   65.39    7.30 
   6   0   6   50.79    7.20 
   6   0   6   46.70    7.90 
  -7   0  -6   65.79   10.60 
   7   0   6   56.59    7.40 
   7   0   6   61.19    8.30 
   7   0   6   59.69   11.30 
   7  -1  -6  196.58   13.90 
   7  -1  -6  191.58   12.20 
  -7   1   6  228.58   15.10 
  -7   1   6  197.78   13.40 
   6  -1  -6   47.60    5.60 
   6  -1  -6   50.39    6.30 
  -6   1   6   42.10   10.10 
  -6   1   6   39.90    5.70 
   5  -1  -6    1.40    2.10 
   5  -1  -6    2.80    2.00 
  -5   1   6    0.40    1.70 
  -5   1   6   -0.10    1.10 
   4  -1  -6  631.94   21.90 
   4  -1  -6  659.63   22.10 
   4  -1  -6  628.64   21.20 
  -4   1   6  632.54   21.60 
  -4   1   6  659.63   24.40 
  -4   1   6  658.23   21.20 
   3  -1  -6 1224.48   33.20 
   3  -1  -6 1306.97   35.50 
   3  -1  -6 1263.47   33.10 
  -3   1   6 1249.18   37.00 
  -3   1   6 1244.28   33.60 
  -3   1   6 1292.37   33.30 
   2  -1  -6  181.78    5.90 
   2  -1  -6  186.28    9.10 
   2  -1  -6  180.88    5.90 
  -2   1   6  179.48    9.50 
  -2   1   6  176.38    7.40 
  -2   1   6  178.28    7.00 
   1  -1  -6 1099.69   31.60 
   1  -1  -6  969.80   31.00 
  -1   1   6 1122.99   26.10 
  -1   1   6 1115.89   26.30 
   0  -1  -6   59.59    4.50 
   0   1   6   61.49    3.20 
   0   1   6   57.29    3.00 
  -1  -1  -6    5.10    1.60 
   1   1   6    6.10    1.80 
   1   1   6    8.90    1.80 
  -2  -1  -6 2077.49   48.30 
  -2  -1  -6 2029.50   49.50 
  -2  -1  -6 2087.89   49.60 
   2   1   6 2149.39   52.59 
   2   1   6 2049.20   51.69 
   2   1   6 2077.49   50.49 
  -3  -1  -6 2111.89   50.49 
  -3  -1  -6 2075.79   52.19 
  -3  -1  -6 2076.19   49.10 
   3   1   6 2097.59   52.19 
   3   1   6 1952.60   54.19 
   3   1   6 2038.90   51.99 
  -4  -1  -6  369.56   12.50 
  -4  -1  -6  362.56   15.70 
  -4  -1  -6  370.76   14.50 
   4   1   6  361.76   15.40 
   4   1   6  366.76   14.70 
   4   1   6  331.97   16.70 
  -5  -1  -6 1086.29   29.60 
  -5  -1  -6 1086.29   32.80 
   5   1   6 1123.39   32.80 
   5   1   6 1109.19   38.00 
   5   1   6  868.31   44.40 
  -6  -1  -6  280.57   14.60 
  -6  -1  -6  271.77   12.40 
   6   1   6  301.67   14.60 
   6   1   6  270.87   15.90 
   6   1   6  297.67   18.50 
  -7  -1  -6    9.60    3.70 
   7   1   6   15.60    4.00 
   7   1   6    8.40    4.70 
   7   1   6    6.50    3.00 
   7  -2  -6   14.40    4.20 
   7  -2  -6   11.20    4.50 
  -7   2   6   14.00    5.30 
  -7   2   6   15.60    4.10 
   6  -2  -6  118.99    8.90 
   6  -2  -6  118.39   10.30 
  -6   2   6  129.19   10.40 
  -6   2   6  115.19    9.60 
   5  -2  -6   12.60    3.50 
   5  -2  -6   18.80    4.30 
  -5   2   6   11.80    3.10 
  -5   2   6   10.90    3.10 
   4  -2  -6  979.60   28.90 
   4  -2  -6  953.50   30.10 
  -4   2   6  962.50   29.10 
  -4   2   6  969.80   31.70 
  -4   2   6  885.91   29.20 
   3  -2  -6 1388.66   38.20 
   3  -2  -6 1440.16   38.80 
   3  -2  -6 1451.95   38.40 
  -3   2   6 1427.96   40.70 
  -3   2   6 1443.76   38.90 
  -3   2   6 1434.86   38.10 
   2  -2  -6  159.88    7.90 
   2  -2  -6  152.28    7.30 
   2  -2  -6  164.58    7.10 
  -2   2   6  159.28    7.90 
  -2   2   6  132.79    8.30 
  -2   2   6  162.48    7.60 
   1  -2  -6  511.05   13.20 
   1  -2  -6  490.05   15.60 
  -1   2   6  512.35   15.20 
  -1   2   6  488.25   15.20 
  -1   2   6  475.65   16.30 
   0  -2  -6  308.57   10.70 
   0  -2  -6  323.17   12.00 
   0  -2  -6  318.67    8.60 
   0   2   6  344.67   11.40 
   0   2   6  312.87   10.80 
  -1  -2  -6 1875.31   42.40 
  -1  -2  -6 1805.42   43.30 
  -1  -2  -6 1795.22   42.00 
  -1  -2  -6 1814.42   43.60 
   1   2   6 1836.52   44.60 
   1   2   6 1807.22   45.60 
  -2  -2  -6   31.30    2.20 
  -2  -2  -6   26.80    2.80 
  -2  -2  -6   27.20    2.80 
   2   2   6   30.90    2.80 
   2   2   6   24.50    3.90 
   2   2   6   23.80    2.80 
  -3  -2  -6  208.18   10.20 
  -3  -2  -6  214.98    9.70 
  -3  -2  -6  206.18    7.30 
   3   2   6  208.58   11.60 
   3   2   6  226.38   10.50 
   3   2   6  214.08    8.90 
  -4  -2  -6  981.40   29.30 
  -4  -2  -6  965.20   25.10 
  -4  -2  -6  946.51   30.40 
   4   2   6  950.70   29.90 
   4   2   6  973.40   33.00 
   4   2   6  958.80   27.20 
  -5  -2  -6  515.15   16.20 
  -5  -2  -6  494.65   19.60 
   5   2   6  497.65   17.80 
   5   2   6  512.95   20.80 
   5   2   6  465.85   22.60 
  -6  -2  -6   49.20    6.70 
  -6  -2  -6   60.49    5.10 
   6   2   6   40.20    7.50 
   6   2   6   58.09    7.00 
   6   2   6   57.99    5.80 
  -7  -2  -6  409.26   18.90 
  -7  -2  -6  434.36   21.10 
   7   2   6  456.45   26.10 
   7   2   6  475.15   19.30 
   7   2   6  463.85   22.60 
   8   2   6    8.60    3.70 
   8   2   6   20.40    5.60 
   7  -3  -6   35.00    5.90 
  -7   3   6   44.90    7.90 
   6  -3  -6  181.78   11.00 
   6  -3  -6  172.68   13.20 
  -6   3   6  164.58   12.10 
  -6   3   6  174.88   12.70 
   5  -3  -6   51.09    5.40 
   5  -3  -6   48.40    7.70 
  -5   3   6   44.50    5.70 
  -5   3   6   35.60    6.10 
   4  -3  -6   84.49    7.80 
   4  -3  -6   78.79    6.20 
  -4   3   6   80.79    7.20 
  -4   3   6   94.29    7.50 
  -4   3   6   77.59    7.50 
   3  -3  -6   93.79    6.20 
   3  -3  -6   82.19    6.30 
   3  -3  -6   83.89    6.90 
  -3   3   6   76.39    6.60 
  -3   3   6   87.19    6.80 
  -3   3   6   77.29    6.50 
   2  -3  -6 5938.71  134.99 
   2  -3  -6 6073.99  137.79 
   2  -3  -6 6067.59  134.99 
  -2   3   6 5955.50  136.89 
  -2   3   6 5960.20  137.29 
  -2   3   6 5950.10  137.39 
   1  -3  -6 2181.78   50.89 
   1  -3  -6 2208.28   53.29 
   1  -3  -6 2108.29   50.49 
  -1   3   6 2073.89   53.69 
  -1   3   6 2110.19   53.09 
  -1   3   6 2169.08   53.19 
   0  -3  -6 3914.51   89.29 
   0  -3  -6 3888.01   88.99 
   0  -3  -6 3880.31   87.19 
   0  -3  -6 3764.82   86.49 
   0   3   6 3915.21   90.69 
  -1  -3  -6  111.59    4.70 
  -1  -3  -6  130.89    6.80 
  -1  -3  -6  114.39    5.80 
  -1  -3  -6  116.49    4.30 
   1   3   6  121.49    7.30 
   1   3   6  128.79    7.10 
  -2  -3  -6 1277.97   34.30 
  -2  -3  -6 1289.57   28.70 
  -2  -3  -6 1298.67   35.00 
  -2  -3  -6 1265.87   29.10 
   2   3   6 1273.27   36.80 
   2   3   6 1289.27   35.30 
  -3  -3  -6  145.89    4.70 
  -3  -3  -6  138.49    8.30 
  -3  -3  -6  136.09    8.40 
   3   3   6  136.79    8.40 
   3   3   6  135.99    5.50 
   3   3   6  136.69    9.30 
  -4  -3  -6 3164.88   70.19 
  -4  -3  -6 3099.49   78.49 
  -4  -3  -6 3078.09   77.69 
   4   3   6 2987.80   71.49 
   4   3   6 3173.58   77.79 
  -5  -3  -6 1245.18   38.90 
  -5  -3  -6 1281.07   32.60 
   5   3   6 1284.97   33.80 
   5   3   6 1245.08   42.50 
   5   3   6 1269.37   39.20 
  -6  -3  -6 1323.87   42.60 
  -6  -3  -6 1402.16   37.00 
   6   3   6 1358.66   47.70 
   6   3   6 1370.16   43.20 
   6   3   6 1387.66   37.60 
  -7  -3  -6   73.99    8.60 
  -7  -3  -6   83.49    7.40 
   7   3   6   66.79    8.30 
   7   3   6   98.19   11.70 
   7   3   6   87.39    6.80 
   8   3   6    2.40    2.60 
   8   3   6    7.70    4.00 
   6  -4  -6   -0.50    2.70 
   6  -4  -6   -0.70    1.80 
  -6   4   6    0.80    3.60 
  -6   4   6    2.30    2.80 
   5  -4  -6   97.59   10.10 
   5  -4  -6  101.89    7.70 
  -5   4   6   97.29    9.50 
  -5   4   6  114.09    9.80 
   4  -4  -6  576.94   20.20 
   4  -4  -6  560.64   23.90 
  -4   4   6  567.14   23.10 
  -4   4   6  572.94   22.60 
   3  -4  -6  861.71   28.90 
   3  -4  -6  917.01   26.50 
   3  -4  -6  923.31   31.10 
  -3   4   6  938.41   29.30 
  -3   4   6  886.11   29.40 
   2  -4  -6  759.22   21.60 
   2  -4  -6  735.93   25.50 
   2  -4  -6  721.63   22.70 
  -2   4   6  749.92   24.80 
  -2   4   6  746.93   23.50 
  -2   4   6  709.63   24.60 
   1  -4  -6   10.40    2.00 
   1  -4  -6   13.00    3.10 
   1  -4  -6   10.00    2.20 
  -1   4   6    9.10    2.20 
  -1   4   6    7.90    2.60 
  -1   4   6   11.70    2.90 
   0  -4  -6   65.49    3.30 
   0  -4  -6   56.19    4.30 
   0  -4  -6   60.79    5.40 
   0   4   6   56.19    5.20 
   0   4   6   54.59    3.70 
   0   4   6   58.79    5.30 
  -1  -4  -6  465.15   15.80 
  -1  -4  -6  455.25   11.00 
  -1  -4  -6  473.35   11.70 
  -1  -4  -6  450.05   17.00 
   1   4   6  462.75   17.90 
   1   4   6  463.45   17.30 
  -2  -4  -6  219.88   11.30 
  -2  -4  -6  197.48    9.90 
   2   4   6  204.38   10.80 
   2   4   6  213.28   11.70 
  -3  -4  -6 1234.88   42.60 
  -3  -4  -6 1192.78   36.10 
   3   4   6 1150.78   35.30 
  -4  -4  -6  348.47   16.10 
  -4  -4  -6  315.47   15.70 
  -4  -4  -6  319.67    8.70 
   4   4   6  313.67   15.30 
   4   4   6  318.07    8.90 
  -5  -4  -6 1240.48   30.70 
   5   4   6 1214.38   42.00 
   5   4   6 1235.48   38.60 
   5   4   6 1179.38   30.70 
  -6  -4  -6  698.13   21.30 
  -6  -4  -6  693.43   28.20 
   6   4   6  706.53   31.30 
   6   4   6  724.73   28.20 
  -7  -4  -6  221.38   11.00 
  -7  -4  -6  230.48   15.40 
   7   4   6  223.28   10.70 
   7   4   6  231.78   15.30 
   7   4   6  212.58   17.50 
  -8  -4  -6  105.59   14.50 
   8   4   6  180.18   29.40 
   8   4   6  108.09   11.50 
   8   4   6  114.69    8.20 
   6  -5  -6   32.90    5.40 
  -6   5   6   49.90    8.20 
  -6   5   6   29.30    6.70 
   5  -5  -6   93.49   12.30 
   5  -5  -6  117.59    8.60 
  -5   5   6  122.59   10.60 
  -5   5   6  118.19   10.60 
   4  -5  -6   11.30    3.20 
   4  -5  -6    5.20    3.00 
  -4   5   6    6.80    3.10 
  -4   5   6    3.60    3.30 
   3  -5  -6    0.20    1.30 
   3  -5  -6   -0.30    1.70 
  -3   5   6   -0.60    1.70 
  -3   5   6    2.00    1.90 
  -3   5   6   -2.40    1.70 
   2  -5  -6   16.70    3.40 
   2  -5  -6   17.30    2.90 
   2  -5  -6   22.90    5.00 
  -2   5   6   14.00    3.60 
  -2   5   6   11.30    3.00 
   1  -5  -6 4071.59   99.89 
   1  -5  -6 4000.60   95.19 
   1  -5  -6 4065.89   91.99 
  -1   5   6 4014.70   98.69 
   0  -5  -6 2157.88   49.80 
   0  -5  -6 2243.18   58.49 
   0  -5  -6 2132.39   54.99 
   0   5   6 2143.39   57.29 
   0   5   6 2088.39   57.29 
   0   5   6 2139.19   50.79 
  -1  -5  -6   46.50    2.10 
  -1  -5  -6   45.50    2.30 
  -1  -5  -6   48.30    4.60 
   1   5   6   39.80    4.90 
   1   5   6   46.90    5.30 
  -2  -5  -6  580.24   22.20 
  -2  -5  -6  553.74   20.90 
   2   5   6  561.84   21.50 
  -3  -5  -6  774.92   26.70 
  -3  -5  -6  797.82   28.40 
   3   5   6  794.22   27.50 
   3   5   6  760.52   28.90 
  -4  -5  -6    3.50    2.30 
  -4  -5  -6    0.70    1.90 
   4   5   6    4.00    2.60 
   4   5   6    2.70    2.40 
  -5  -5  -6  640.24   26.50 
   5   5   6  587.84   14.90 
   5   5   6  592.94   27.50 
   5   5   6  604.14   15.20 
   5   5   6  643.84   25.30 
  -6  -5  -6  397.76   21.30 
  -6  -5  -6  392.86   13.30 
   6   5   6  413.36   12.90 
   6   5   6  404.46   20.20 
  -7  -5  -6   43.30    7.90 
  -7  -5  -6   42.40    4.50 
   7   5   6   47.20    8.60 
   7   5   6   54.39   10.30 
   7   5   6   34.20    4.00 
  -8  -5  -6  236.28   18.40 
   8   5   6  214.08   16.10 
   8   5   6  201.98   10.60 
   5  -6  -6   54.39    6.40 
   5  -6  -6   43.90    8.50 
  -5   6   6   46.20    8.20 
  -5   6   6   65.09    8.40 
   4  -6  -6    3.10    2.00 
   4  -6  -6    3.70    2.70 
  -4   6   6    3.20    2.60 
   3  -6  -6  151.68   14.00 
   3  -6  -6  159.58    9.30 
  -3   6   6  154.88   10.10 
  -3   6   6  142.19   11.30 
  -3   6   6  159.88   11.90 
   2  -6  -6  329.97   13.10 
   2  -6  -6  324.77   18.00 
  -2   6   6  327.47   14.00 
  -2   6   6  335.87   17.40 
  -2   6   6  322.57   16.90 
   1  -6  -6   27.90    5.70 
   1  -6  -6   20.60    3.60 
   1  -6  -6   23.60    3.40 
  -1   6   6   26.10    5.40 
  -1   6   6   26.60    5.30 
  -1   6   6   22.60    2.90 
   0  -6  -6   77.19    4.70 
   0  -6  -6   77.09    6.30 
   0  -6  -6   75.69    7.90 
   0   6   6   81.19    7.70 
   0   6   6   83.79    4.80 
   0   6   6   80.59    7.80 
  -1  -6  -6 1103.69   36.30 
  -1  -6  -6 1077.49   32.70 
  -1  -6  -6 1039.60   25.80 
   1   6   6 1050.09   34.90 
   1   6   6 1074.99   35.40 
   1   6   6 1063.39   25.40 
  -2  -6  -6  262.17   13.30 
  -2  -6  -6  242.08   14.40 
   2   6   6  239.58   14.30 
   2   6   6  251.57   14.10 
  -3  -6  -6  159.08   10.70 
  -3  -6  -6  159.88   12.00 
   3   6   6  160.58   11.20 
   3   6   6  161.58   12.10 
  -4  -6  -6  744.63   30.10 
   4   6   6  786.92   29.50 
   4   6   6  792.82   31.80 
  -5  -6  -6   46.30    7.70 
   5   6   6   47.60    8.60 
   5   6   6   54.09    7.00 
  -6  -6  -6   12.40    4.50 
   6   6   6   23.50    6.00 
   6   6   6    3.00    3.80 
   6   6   6   11.00    1.30 
  -7  -6  -6  490.45   25.70 
   7   6   6  471.95   27.90 
   7   6   6  529.55   25.10 
   7   6   6  458.05   14.70 
   8   6   6  297.37   12.10 
   8   6   6  293.57   19.50 
   4  -7  -6   76.69    7.50 
   4  -7  -6   82.99   10.80 
  -4   7   6   73.69    9.50 
   3  -7  -6  203.48   15.60 
   3  -7  -6  221.98   12.00 
  -3   7   6  232.38   15.30 
  -3   7   6  188.58   14.40 
   2  -7  -6   -0.10    1.50 
   2  -7  -6   -2.10    2.10 
  -2   7   6   -1.30    1.80 
  -2   7   6   -0.40    2.00 
  -2   7   6    7.50    3.00 
   1  -7  -6  129.39   11.30 
   1  -7  -6  133.39    7.90 
  -1   7   6  134.69   10.80 
  -1   7   6  132.59    7.40 
  -1   7   6  127.79   10.70 
   0  -7  -6 1299.07   43.80 
   0   7   6 1305.07   42.50 
   0   7   6 1311.17   42.40 
   0   7   6 1281.47   33.40 
  -1  -7  -6 1012.90   36.90 
  -1  -7  -6  981.80   26.50 
  -1  -7  -6 1021.40   33.30 
   1   7   6 1044.70   36.30 
   1   7   6 1089.39   36.50 
   1   7   6 1010.40   25.40 
  -2  -7  -6  354.96   19.40 
  -2  -7  -6  353.96   17.40 
   2   7   6  395.26   19.40 
   2   7   6  391.36   19.90 
  -3  -7  -6  641.54   27.90 
   3   7   6  670.43   27.40 
   3   7   6  672.63   28.60 
  -4  -7  -6    5.90    3.50 
   4   7   6   13.20    4.20 
   4   7   6    7.40    3.30 
  -5  -7  -6    8.20    4.50 
   5   7   6    7.90    4.00 
   5   7   6   10.60    4.10 
  -6  -7  -6   38.20    7.40 
   6   7   6   48.60    8.40 
   6   7   6   30.00    7.60 
  -7  -7  -6   67.49   11.00 
   7   7   6   40.40    2.90 
   7   7   6   41.80    7.90 
   7   7   6   58.59   11.00 
   7   7   6   42.60    2.50 
   4  -8  -6  230.88   14.30 
  -4   8   6  242.68   18.40 
   3  -8  -6   -2.90    2.00 
   3  -8  -6    5.30    4.60 
  -3   8   6    3.10    3.10 
  -3   8   6    5.60    3.80 
   2  -8  -6   10.70    5.10 
   2  -8  -6   10.90    3.10 
  -2   8   6    7.20    3.80 
  -2   8   6    9.00    3.80 
   1  -8  -6  133.89   12.90 
   1  -8  -6  151.18    9.20 
  -1   8   6  139.89   11.80 
  -1   8   6  156.38   13.10 
  -1   8   6  149.19    8.50 
   0  -8  -6   71.99    6.00 
   0  -8  -6   54.49    9.20 
   0   8   6   55.69   12.70 
   0   8   6   70.49    5.00 
   0   8   6   76.49    8.50 
  -1  -8  -6   59.59    4.70 
  -1  -8  -6   68.69    8.80 
   1   8   6   65.09    8.40 
   1   8   6   64.09    8.20 
   1   8   6   65.79    4.10 
   2   8   6 2216.68   49.40 
   2   8   6 2289.07   66.29 
   2   8   6 2285.67   66.69 
   2   8   6 2152.78   49.60 
  -3  -8  -6  302.37   19.00 
   3   8   6  300.67   18.10 
   3   8   6  317.57   19.40 
  -4  -8  -6   89.89   11.10 
   4   8   6   98.49   10.70 
   4   8   6  102.99   12.30 
  -5  -8  -6  131.89   13.30 
   5   8   6  142.19   12.60 
   5   8   6  131.49   13.40 
  -6  -8  -6   51.79    9.80 
   6   8   6   54.49    9.40 
   6   8   6   64.09   11.50 
  -7  -8  -6    1.90    3.90 
   7   8   6    9.60    4.50 
   7   8   6    1.40    6.50 
   3  -9  -6  212.78   14.20 
  -3   9   6  244.58   18.30 
   2  -9  -6    4.40    3.50 
   2  -9  -6   16.10    5.30 
  -2   9   6   10.70    5.70 
  -2   9   6   15.30    5.00 
   1  -9  -6   74.39   10.60 
   1  -9  -6   81.89    7.60 
  -1   9   6   84.49    6.70 
  -1   9   6   74.39   10.40 
  -1   9   6   92.09   10.30 
   0  -9  -6   77.09    6.70 
   0  -9  -6   82.49    9.90 
   0   9   6   79.29    9.80 
   0   9   6   80.19    9.30 
   0   9   6   70.29    5.40 
  -1  -9  -6  372.36   22.60 
  -1  -9  -6  364.06   14.50 
   1   9   6  372.56   21.70 
   1   9   6  358.46   12.30 
   1   9   6  345.77   20.60 
  -2  -9  -6  359.56   12.30 
   2   9   6  364.96   21.30 
   2   9   6  349.27   10.60 
   2   9   6  416.26   22.70 
  -3  -9  -6   98.29   11.90 
   3   9   6  115.69   11.50 
   3   9   6   89.29   10.90 
  -4  -9  -6  182.78   16.10 
   4   9   6  190.28   15.10 
   4   9   6  205.98   16.70 
  -5  -9  -6  102.69   12.30 
   5   9   6  128.89   13.80 
   5   9   6   92.19   11.20 
  -6  -9  -6    8.70    5.20 
   6   9   6   -4.60    5.30 
   6   9   6   11.20    4.20 
   1 -10  -6    0.10    2.50 
   1 -10  -6    8.10    4.50 
  -1  10   6   -8.20    4.60 
  -1  10   6   -2.10    3.50 
   0 -10  -6   88.59   11.80 
   0 -10  -6   83.89    8.50 
   0  10   6  106.89    7.20 
   0  10   6  125.89   12.70 
   0  10   6  109.09   12.10 
  -1 -10  -6  279.87   20.90 
  -1 -10  -6  283.67   13.50 
   1  10   6  274.37   11.00 
   1  10   6  290.17   19.90 
   1  10   6  264.17   19.10 
  -2 -10  -6   25.00    6.40 
  -2 -10  -6   37.60    4.10 
   2  10   6   48.00    9.40 
   2  10   6   43.40    7.80 
  -3 -10  -6  485.65   27.60 
   3  10   6  478.65   26.20 
   3  10   6  475.25   26.90 
  -4 -10  -6  467.95   27.30 
   4  10   6  431.96   25.10 
   4  10   6  381.26   24.50 
  -5 -10  -6   33.70   15.20 
   5  10   6   21.70    6.50 
   5  10   6   27.50    8.60 
  -1 -11  -6    3.00    3.00 
  -1 -11  -6   -2.90    5.60 
   1  11   6    4.60    4.30 
  -2 -11  -6   30.20    4.70 
  -2 -11  -6   36.10    9.10 
   2  11   6   25.90    6.70 
  -3 -11  -6   66.79   11.50 
   3  11   6   67.59   11.20 
   3  11   6   64.79    3.70 
  -2  -8   7  123.29   10.40 
  -2  -8   7  115.39   13.20 
  -2  -8   7  145.89   13.00 
   5   7  -7    1.90    3.20 
  -5  -7   7   -4.40    2.80 
  -5  -7   7    6.20    3.80 
   4   7  -7  528.95   27.20 
  -4  -7   7  502.75   22.60 
  -4  -7   7  522.15   24.60 
   3   7  -7  253.97   28.30 
  -3  -7   7  273.97   14.80 
  -3  -7   7  249.38   23.40 
   2   7  -7    3.60    2.40 
  -2  -7   7    1.40    2.50 
  -2  -7   7    9.10    5.10 
  -2  -7   7    1.90    2.20 
   1   7  -7   68.59    5.80 
  -1  -7   7   75.29    7.10 
  -1  -7   7   60.19   12.40 
   0   7  -7   76.39    6.80 
   0  -7   7   74.49    7.50 
   0  -7   7   68.59   11.10 
   0  -7   7   72.19    8.40 
   1  -7   7   16.10    4.60 
   1  -7   7   10.00    4.00 
   1  -7   7   13.60    5.50 
   6   6  -7    2.00    2.40 
  -6  -6   7    2.90    2.50 
  -6  -6   7   -5.50    2.70 
   5   6  -7   16.20    4.10 
   5   6  -7    5.90    7.40 
  -5  -6   7   23.80    5.10 
  -5  -6   7   11.10    4.60 
   4   6  -7   55.09    4.80 
   4   6  -7   58.69    9.20 
  -4  -6   7   53.79    7.00 
  -4  -6   7   48.50    6.50 
   3   6  -7    3.10    2.50 
   3   6  -7    0.50    1.40 
  -3  -6   7    0.60    3.00 
  -3  -6   7    2.40    1.90 
   2   6  -7  590.34   17.50 
   2   6  -7  617.54   28.00 
  -2  -6   7  604.44   29.80 
  -2  -6   7  631.34   25.30 
  -2  -6   7  634.34   23.50 
   1   6  -7  195.58    8.70 
  -1  -6   7  195.08   10.70 
  -1  -6   7  183.28   12.40 
  -1  -6   7  184.28   14.90 
   0  -6   7    8.90    3.90 
   0  -6   7    8.20    2.60 
   0  -6   7   12.10    3.10 
  -1   6  -7    2.90    2.00 
   1  -6   7    0.00    3.10 
   1  -6   7   -1.70    2.20 
   1  -6   7    4.90    2.40 
  -2   6  -7   21.60    4.10 
   2  -6   7   15.00    6.60 
   2  -6   7   16.30    4.20 
   2  -6   7   16.80    4.70 
   6   5  -7   33.20    4.50 
   6   5  -7   36.80    6.70 
  -6  -5   7   40.30    6.80 
  -6  -5   7   27.00    6.00 
   5   5  -7  138.59    7.30 
   5   5  -7  149.49   12.30 
  -5  -5   7  163.58   11.20 
  -5  -5   7  151.08   11.20 
   4   5  -7   57.09    3.70 
   4   5  -7   64.79    7.80 
  -4  -5   7   71.09    8.30 
  -4  -5   7   51.69    6.50 
   3   5  -7 1126.99   40.20 
  -3  -5   7 1111.39   35.40 
  -3  -5   7 1124.99   36.20 
   2   5  -7  583.14   25.90 
  -2  -5   7  549.74   26.90 
  -2  -5   7  579.54   21.60 
  -2  -5   7  572.94   22.20 
   1   5  -7   32.00    2.30 
  -1  -5   7   26.80    4.70 
  -1  -5   7   27.60    4.80 
  -1  -5   7   27.20    6.00 
   0   5  -7  130.29    7.20 
   0  -5   7  131.59    8.10 
   0  -5   7  143.39    9.80 
   0  -5   7  133.39   12.10 
  -1   5  -7  155.48    8.30 
   1  -5   7  154.28   11.00 
   1  -5   7  132.99    8.80 
   1  -5   7  156.08   13.40 
  -2   5  -7   53.89    5.70 
   2  -5   7   52.19    8.90 
   2  -5   7   66.29    6.50 
   2  -5   7   66.09    7.30 
  -3   5  -7  192.98   11.90 
   3  -5   7  163.78   12.00 
   3  -5   7  160.28   14.00 
   3  -5   7  174.88   13.80 
   4  -5   7   74.39    9.90 
   4  -5   7  120.39   11.10 
   7   4  -7  193.68   14.20 
  -7  -4   7  176.58   13.10 
  -7  -4   7  167.38   13.80 
   6   4  -7  433.16   22.40 
  -6  -4   7  467.35   21.40 
  -6  -4   7  474.55   21.70 
   5   4  -7    9.40    4.00 
   5   4  -7   17.30    3.90 
  -5  -4   7   18.00    4.20 
  -5  -4   7   22.20    4.40 
   4   4  -7   42.60    7.30 
   4   4  -7   48.40    3.00 
  -4  -4   7   43.60    7.50 
  -4  -4   7   53.79    5.90 
   3   4  -7   31.40    6.20 
  -3  -4   7   31.80    5.00 
  -3  -4   7   34.70    4.00 
   2   4  -7   64.49    7.40 
  -2  -4   7   57.59    4.80 
  -1  -4   7 1262.67   43.50 
  -1  -4   7 1311.47   34.10 
  -1  -4   7 1258.97   36.40 
   0  -4   7 1342.57   36.10 
   0  -4   7 1392.86   39.30 
   0  -4   7 1357.26   45.70 
  -1   4  -7  354.36   12.30 
   1  -4   7  340.27   15.70 
   1  -4   7  346.47   13.90 
   1  -4   7  325.47   19.00 
  -2   4  -7  220.38   10.70 
   2  -4   7  225.18   15.40 
   2  -4   7  212.88   12.60 
   2  -4   7  209.38   11.50 
  -3   4  -7   55.79    5.80 
   3  -4   7   52.69    6.40 
   3  -4   7   52.49    6.60 
   3  -4   7   67.29    8.50 
  -4   4  -7  276.17   15.10 
   4  -4   7  286.07   17.00 
   4  -4   7  251.87   16.10 
   4  -4   7  293.37   18.90 
   7   3  -7  514.25   23.90 
   7   3  -7  532.45   20.50 
  -7  -3   7  491.65   24.00 
  -7  -3   7  516.65   23.10 
   6   3  -7   22.60    3.70 
   6   3  -7   19.00    4.80 
  -6  -3   7   24.00    4.90 
  -6  -3   7   21.60    5.20 
   5   3  -7  175.88    8.20 
   5   3  -7  180.68   12.70 
  -5  -3   7  202.78   11.80 
  -5  -3   7  203.48   11.70 
   4   3  -7  552.34   23.50 
  -4  -3   7  518.55   19.90 
  -4  -3   7  535.65   20.00 
   3   3  -7   16.80    6.30 
  -3  -3   7   12.00    2.50 
   2   3  -7  403.66   20.30 
   2   3  -7  472.25   20.60 
  -2  -3   7  451.55   14.60 
  -2  -3   7  439.06   15.30 
   1   3  -7 3665.93   94.09 
  -1  -3   7 3750.32   96.29 
  -1  -3   7 3639.24   86.19 
  -1  -3   7 3701.93   84.19 
   0   3  -7  190.58   12.10 
   0  -3   7  193.18    8.40 
   0  -3   7  206.48    9.70 
   0  -3   7  206.98   13.60 
  -1   3  -7  541.15   14.50 
  -1   3  -7  556.04   21.70 
  -1   3  -7  541.35   14.30 
   1  -3   7  536.95   23.80 
   1  -3   7  578.94   17.90 
   1  -3   7  471.55   21.40 
  -2   3  -7  132.39    7.30 
   2  -3   7  152.28    9.40 
   2  -3   7  142.39   22.10 
   2  -3   7  136.39    8.60 
  -3   3  -7  679.73   22.90 
   3  -3   7  685.03   28.70 
   3  -3   7  664.73   25.30 
   3  -3   7  668.03   24.80 
  -4   3  -7    6.50    2.70 
   4  -3   7    8.40    3.00 
   4  -3   7    9.60    4.40 
   4  -3   7    9.10    3.60 
  -5   3  -7   68.99   11.90 
   5  -3   7   80.29   10.00 
   5  -3   7   64.79   11.60 
   5  -3   7   70.99    9.00 
   7   2  -7   53.99    6.80 
   7   2  -7   40.50    6.20 
  -7  -2   7   39.80    6.90 
  -7  -2   7   32.50    6.30 
   6   2  -7  213.48   13.90 
   6   2  -7  226.68   11.40 
  -6  -2   7  256.77   14.40 
  -6  -2   7  208.08   12.70 
   5   2  -7 1102.29   29.90 
   5   2  -7 1095.69   36.80 
  -5  -2   7 1155.88   34.70 
  -5  -2   7 1034.20   33.20 
   4   2  -7    4.50    2.70 
  -4  -2   7    4.50    1.80 
  -4  -2   7    6.90    2.20 
   3   2  -7    2.80    2.60 
   3   2  -7    0.50    1.70 
  -3  -2   7    3.30    1.40 
  -3  -2   7    1.90    1.30 
   2   2  -7  732.33   26.20 
   2   2  -7  715.43   27.70 
  -2  -2   7  715.83   19.40 
  -2  -2   7  696.23   19.80 
   1   2  -7  190.68   11.50 
   1   2  -7  184.68   12.70 
  -1  -2   7  189.88    6.50 
  -1  -2   7  193.28    7.30 
   0   2  -7 2278.77   61.79 
   0  -2   7 2339.57   53.39 
   0  -2   7 2292.17   54.89 
   0  -2   7 2363.96   63.99 
   1  -2   7 4129.49   98.39 
   1  -2   7 4372.16   97.69 
   1  -2   7 4323.17  106.69 
  -2   2  -7    0.10    1.70 
  -2   2  -7    2.10    1.10 
  -2   2  -7    3.00    1.40 
   2  -2   7   -1.50    1.90 
   2  -2   7    0.70    1.50 
   2  -2   7    2.20    1.40 
  -3   2  -7  386.26   14.40 
  -3   2  -7  386.86   16.20 
   3  -2   7  374.66   16.40 
   3  -2   7  368.26   18.60 
   3  -2   7  347.47   16.00 
  -4   2  -7  308.97   16.00 
   4  -2   7  348.27   18.40 
   4  -2   7  305.57   16.00 
   4  -2   7  304.07   16.60 
  -5   2  -7  445.66   19.30 
   5  -2   7  449.46   23.00 
   5  -2   7  447.16   22.50 
   5  -2   7  464.75   21.80 
   6  -2   7  245.78   16.30 
   6  -2   7  227.58   16.20 
   6  -2   7  213.48   21.00 
   7   1  -7    7.50    3.10 
   7   1  -7    4.10    2.80 
  -7  -1   7    7.50    5.10 
  -7  -1   7    7.20    3.80 
   6   1  -7 1106.79   36.30 
   6   1  -7 1065.99   32.70 
  -6  -1   7 1042.00   34.00 
  -6  -1   7 1043.60   35.20 
   5   1  -7  205.28    9.80 
   5   1  -7  234.58   13.40 
  -5  -1   7  206.88   11.10 
  -5  -1   7  224.48   12.00 
   4   1  -7   68.69    3.90 
   4   1  -7   57.59    6.60 
   4   1  -7   62.19    3.60 
  -4  -1   7   64.39    5.60 
  -4  -1   7   65.99    5.30 
   3   1  -7  772.92   26.90 
   3   1  -7  791.92   29.50 
  -3  -1   7  748.83   24.10 
  -3  -1   7  787.62   21.70 
   2   1  -7   33.50    5.30 
   2   1  -7   40.50    6.20 
  -2  -1   7   37.50    2.50 
  -2  -1   7   36.80    2.50 
   1   1  -7   67.99    6.60 
   1   1  -7   79.39    6.80 
   0   1  -7 3311.47   83.99 
   0  -1   7 3466.45   75.49 
   0  -1   7 3381.86   75.69 
   0  -1   7 3445.56   85.89 
  -1   1  -7  904.01   28.90 
   1  -1   7  936.71   25.20 
   1  -1   7  976.50   31.30 
   1  -1   7  946.21   25.00 
  -2   1  -7  147.39    8.60 
  -2   1  -7  143.99    6.00 
  -2   1  -7  141.59    5.80 
   2  -1   7  142.89    7.90 
   2  -1   7  154.58   10.30 
   2  -1   7  138.39    8.00 
  -3   1  -7  306.07   11.80 
  -3   1  -7  285.77   14.90 
   3  -1   7  312.97   14.60 
   3  -1   7  325.97   16.10 
   3  -1   7  320.97   14.70 
  -4   1  -7  381.46   15.20 
  -4   1  -7  381.06   15.60 
   4  -1   7  375.36   18.50 
   4  -1   7  399.56   17.70 
   4  -1   7  397.16   18.60 
  -5   1  -7  166.78   10.30 
   5  -1   7  176.18   13.40 
   5  -1   7  190.98   12.90 
   5  -1   7  180.28   12.40 
  -6   1  -7  102.59    8.90 
   6  -1   7  115.49   12.30 
   6  -1   7  103.49   10.20 
   6  -1   7  102.39   10.20 
   7   0  -7  139.09   10.80 
   7   0  -7  161.08   11.30 
  -7   0   7  154.48   12.40 
   6   0  -7    2.80    1.90 
   6   0  -7   -0.30    1.80 
  -6   0   7   -0.10    1.50 
  -6   0   7    4.60    2.30 
   5   0  -7  209.18   12.00 
   5   0  -7  185.98    9.80 
  -5   0   7  181.48   10.30 
  -5   0   7  187.38   10.90 
   4   0  -7 1305.27   38.00 
   4   0  -7 1283.47   32.40 
  -4   0   7 1321.17   35.30 
  -4   0   7 1068.59   42.00 
   3   0  -7  391.46   16.60 
   3   0  -7  380.06   20.30 
  -3   0   7  394.26   13.40 
  -3   0   7  405.16   13.00 
   2   0  -7    5.50    2.50 
   2   0  -7    4.20    1.90 
  -2   0   7    6.20    1.10 
  -2   0   7    6.50    1.40 
   1   0  -7 1327.07   37.80 
   1   0  -7 1374.36   39.70 
   0   0  -7  610.14   20.70 
   0   0  -7  578.64   20.80 
  -1   0  -7 1017.30   30.10 
   1   0   7 1019.20   27.00 
   1   0   7 1060.79   31.90 
   1   0   7 1040.50   26.00 
  -2   0  -7 2041.10   46.90 
  -2   0  -7 2035.60   47.30 
  -2   0  -7 2086.09   51.79 
   2   0   7 2052.39   50.39 
   2   0   7 2022.70   51.89 
   2   0   7 2066.69   54.59 
  -3   0  -7 2176.98   55.29 
  -3   0  -7 2265.27   53.79 
  -3   0  -7 2207.58   54.99 
   3   0   7 2163.48   58.59 
   3   0   7 2301.77   59.59 
   3   0   7 2285.17   56.89 
  -4   0  -7    4.30    1.90 
  -4   0  -7    4.20    2.00 
   4   0   7    4.10    2.30 
   4   0   7    1.10    1.50 
   4   0   7   -0.40    1.80 
  -5   0  -7  642.94   21.20 
  -5   0  -7  668.73   23.00 
   5   0   7  638.64   25.30 
   5   0   7  626.24   24.70 
   5   0   7  613.94   27.20 
  -6   0  -7  188.18   11.80 
   6   0   7  204.88   15.60 
   6   0   7  183.08   13.40 
   6   0   7  201.88   13.20 
   7   0   7  240.08   16.60 
   7   0   7  242.98   15.70 
   7  -1  -7   -1.40    2.60 
  -7   1   7    2.50    2.60 
  -7   1   7    8.30    4.30 
   6  -1  -7    9.20    3.40 
   6  -1  -7    7.90    3.20 
  -6   1   7   15.10    4.10 
  -6   1   7    9.30    3.00 
   5  -1  -7  767.62   25.60 
   5  -1  -7  730.73   26.00 
  -5   1   7  782.92   26.80 
  -5   1   7  757.52   25.60 
   4  -1  -7 1021.90   28.70 
   4  -1  -7 1007.30   31.00 
  -4   1   7  994.00   34.10 
  -4   1   7 1003.20   29.80 
  -4   1   7  932.81   29.00 
   3  -1  -7   19.30    2.20 
   3  -1  -7   22.20    2.40 
   3  -1  -7   26.20    4.30 
  -3   1   7   21.40    4.20 
  -3   1   7   23.80    3.00 
  -3   1   7   20.40    2.80 
   2  -1  -7 1405.66   38.50 
   2  -1  -7 1416.36   41.70 
  -2   1   7 1391.96   34.50 
  -2   1   7 1399.36   34.30 
   1  -1  -7  582.14   19.30 
   1  -1  -7  577.44   20.80 
  -1   1   7  568.64   15.00 
  -1   1   7  574.44   15.10 
   0  -1  -7    3.70    2.00 
   0   1   7    3.00    1.00 
  -1  -1  -7    3.80    1.60 
  -1  -1  -7    4.30    1.60 
   1   1   7    4.20    1.10 
   1   1   7    4.50    1.50 
   1   1   7    5.10    1.70 
  -2  -1  -7  663.23   16.90 
  -2  -1  -7  664.53   17.70 
  -2  -1  -7  653.13   19.70 
   2   1   7  685.73   21.80 
   2   1   7  673.93   19.80 
   2   1   7  662.03   21.80 
  -3  -1  -7    5.90    2.90 
  -3  -1  -7    6.90    1.80 
  -3  -1  -7    7.20    1.80 
   3   1   7    3.10    1.70 
   3   1   7    6.00    2.10 
   3   1   7    3.50    1.70 
  -4  -1  -7  491.75   17.40 
  -4  -1  -7  524.15   16.40 
   4   1   7  500.75   19.10 
   4   1   7  504.45   21.20 
   4   1   7  504.25   21.80 
  -5  -1  -7   82.99    6.70 
  -5  -1  -7   86.39    6.00 
   5   1   7   95.69    9.60 
   5   1   7   86.29    8.00 
   5   1   7   96.39    7.60 
  -6  -1  -7  362.46   17.30 
  -6  -1  -7  391.96   15.30 
   6   1   7  383.26   17.90 
   6   1   7  388.56   19.50 
   6   1   7  387.06   22.00 
   7   1   7    0.20    2.50 
   7   1   7   -1.60    4.20 
   7   1   7    3.90    2.70 
   7  -2  -7    7.30    3.20 
  -7   2   7   -1.90    2.60 
  -7   2   7    3.80    4.10 
   6  -2  -7  139.89   11.00 
   6  -2  -7  136.19    9.70 
  -6   2   7  161.38   11.00 
  -6   2   7  147.39   11.20 
   5  -2  -7    2.50    2.30 
   5  -2  -7    2.50    2.20 
  -5   2   7    3.10    2.00 
  -5   2   7    3.90    1.90 
   4  -2  -7  232.18   11.60 
   4  -2  -7  221.98   11.70 
  -4   2   7  235.38   12.00 
  -4   2   7  230.88   16.50 
  -4   2   7  222.38   11.40 
   3  -2  -7 3796.82   88.59 
   3  -2  -7 3746.73   88.89 
   3  -2  -7 3861.71   90.59 
  -3   2   7 3775.32   89.89 
  -3   2   7 3809.72   93.69 
  -3   2   7 3797.82   89.39 
   2  -2  -7  992.70   25.10 
   2  -2  -7 1024.20   28.80 
   2  -2  -7 1001.10   25.30 
  -2   2   7  996.50   27.60 
  -2   2   7 1012.90   30.50 
  -2   2   7 1007.90   27.40 
   1  -2  -7   81.09    6.50 
   1  -2  -7   98.59    6.00 
  -1   2   7   89.59    5.10 
  -1   2   7   96.19    5.20 
   0  -2  -7  565.44   18.70 
   0  -2  -7  561.84   17.30 
   0   2   7  568.54   16.80 
   0   2   7  560.24   16.50 
  -1  -2  -7  536.95   16.70 
  -1  -2  -7  556.54   16.60 
   1   2   7  559.74   16.70 
   1   2   7  519.35   17.30 
  -2  -2  -7  188.48    7.00 
  -2  -2  -7  185.18    7.20 
  -2  -2  -7  184.38    7.50 
   2   2   7  182.78    8.60 
   2   2   7  182.58    8.40 
   2   2   7  178.98    9.50 
  -3  -2  -7 1016.70   25.60 
  -3  -2  -7  984.30   29.00 
  -3  -2  -7 1051.89   28.00 
   3   2   7 1041.50   30.00 
   3   2   7  952.20   31.60 
   3   2   7 1027.40   28.50 
  -4  -2  -7 1063.99   30.30 
  -4  -2  -7 1059.39   26.90 
   4   2   7 1016.00   34.80 
   4   2   7 1043.60   31.90 
   4   2   7  962.40   32.90 
  -5  -2  -7    6.60    2.70 
  -5  -2  -7    5.90    1.90 
   5   2   7    4.10    3.50 
   5   2   7    2.20    2.30 
   5   2   7    5.50    2.50 
  -6  -2  -7   -3.90    1.60 
  -6  -2  -7    0.30    1.70 
   6   2   7   -2.50    2.30 
   6   2   7    1.60    1.80 
   6   2   7   -0.60    2.00 
  -7  -2  -7  118.69   10.40 
   7   2   7  112.79    9.30 
   7   2   7  123.89   11.20 
   7   2   7  120.59   13.20 
   6  -3  -7   28.00    5.50 
   6  -3  -7   39.30    6.90 
  -6   3   7   33.90    6.30 
   5  -3  -7   88.99    8.40 
   5  -3  -7   84.79    7.40 
  -5   3   7   88.09    8.40 
  -5   3   7  109.09    8.90 
   4  -3  -7  438.56   18.60 
   4  -3  -7  428.36   16.70 
  -4   3   7  430.36   17.90 
  -4   3   7  415.26   18.10 
   3  -3  -7  993.80   28.40 
   3  -3  -7  941.71   29.50 
  -3   3   7  909.61   35.30 
  -3   3   7  984.20   29.50 
  -3   3   7  959.30   29.80 
   2  -3  -7   -0.60    1.70 
   2  -3  -7    1.70    1.50 
   2  -3  -7    4.20    2.20 
  -2   3   7    0.90    1.50 
  -2   3   7    7.00    2.60 
  -2   3   7    4.70    1.80 
   1  -3  -7 1487.35   42.30 
   1  -3  -7 1676.43   41.50 
   1  -3  -7 1682.53   39.60 
  -1   3   7 1679.83   43.20 
  -1   3   7 1737.23   43.20 
  -1   3   7 1717.93   43.10 
   0  -3  -7  671.33   18.50 
   0  -3  -7  661.93   18.60 
   0  -3  -7  665.93   17.30 
   0  -3  -7  666.13   20.40 
   0   3   7  670.83   20.70 
   0   3   7  690.43   21.10 
  -1  -3  -7  362.46   11.50 
  -1  -3  -7  348.97   10.70 
  -1  -3  -7  373.06   11.30 
  -1  -3  -7  370.16   12.60 
   1   3   7  369.76   13.70 
   1   3   7  364.96   14.30 
  -2  -3  -7  534.45   14.20 
  -2  -3  -7  527.95   19.00 
  -2  -3  -7  528.95   13.60 
  -2  -3  -7  546.35   17.40 
   2   3   7  534.85   18.40 
   2   3   7  549.25   20.00 
  -3  -3  -7   16.80    3.20 
  -3  -3  -7   18.20    3.40 
  -3  -3  -7   14.90    1.50 
   3   3   7   14.10    3.60 
   3   3   7   15.10    1.80 
   3   3   7   16.90    3.50 
  -4  -3  -7   88.39    7.10 
  -4  -3  -7   88.09    4.40 
   4   3   7   98.69    8.90 
   4   3   7   87.79    7.20 
   4   3   7   88.49    5.30 
  -5  -3  -7  171.48   10.90 
  -5  -3  -7  183.28    7.70 
   5   3   7  172.88    8.70 
   5   3   7  184.18   11.60 
  -6  -3  -7   15.00    3.20 
  -6  -3  -7   20.40    4.90 
   6   3   7   15.70    5.30 
   6   3   7   19.70    3.60 
   6   3   7   20.50    5.10 
  -7  -3  -7   80.39    8.30 
  -7  -3  -7   99.09    9.50 
   7   3   7   91.69    9.70 
   7   3   7   82.99   11.20 
   7   3   7   79.79    7.20 
   6  -4  -7    0.60    2.40 
  -6   4   7    3.70    3.30 
  -6   4   7    1.00    3.20 
   5  -4  -7  173.88   10.70 
   5  -4  -7  174.18   12.70 
  -5   4   7  187.98   12.50 
   4  -4  -7  138.79    8.70 
   4  -4  -7  144.19   10.70 
  -4   4   7  125.69    9.90 
  -4   4   7  128.89    9.70 
   3  -4  -7   16.30    3.10 
   3  -4  -7   16.40    3.60 
  -3   4   7   18.80    4.10 
  -3   4   7   23.10    4.20 
  -3   4   7   18.40    4.20 
   2  -4  -7 4253.87   96.99 
   2  -4  -7 4212.48  101.29 
  -2   4   7 4231.58  101.19 
  -2   4   7 4189.08   99.99 
  -2   4   7 4132.29  100.99 
   1  -4  -7 2305.47   59.19 
   1  -4  -7 2315.17   55.89 
  -1   4   7 2358.46   57.59 
  -1   4   7 2336.37   59.49 
  -1   4   7 2345.77   59.69 
   0  -4  -7  482.85   16.00 
   0  -4  -7  515.45   14.00 
   0  -4  -7  499.65   17.50 
   0  -4  -7  501.25   16.20 
   0   4   7  493.95   18.40 
   0   4   7  502.45   18.40 
  -1  -4  -7  563.94   14.70 
  -1  -4  -7  575.34   20.40 
  -1  -4  -7  541.95   13.60 
  -1  -4  -7  576.34   19.40 
   1   4   7  567.94   20.60 
   1   4   7  577.04   20.10 
  -2  -4  -7  123.09    7.30 
  -2  -4  -7  140.99    8.40 
   2   4   7  123.29    8.30 
   2   4   7  114.29    8.50 
  -3  -4  -7  180.68   10.10 
  -3  -4  -7  179.68   10.40 
   3   4   7  166.78   11.30 
   3   4   7  178.58   10.50 
  -4  -4  -7 1299.57   39.80 
   4   4   7 1356.16   40.20 
  -5  -4  -7   14.20    3.70 
  -5  -4  -7   12.00    1.90 
   5   4   7   17.60    4.20 
   5   4   7    5.10    3.10 
   5   4   7    6.50    1.60 
  -6  -4  -7    9.40    2.10 
  -6  -4  -7    3.40    2.60 
   6   4   7    2.50    2.50 
   6   4   7    5.30    2.20 
   6   4   7    9.90    3.60 
  -7  -4  -7   17.10    3.60 
  -7  -4  -7   22.60    6.80 
   7   4   7   15.30    3.30 
   7   4   7    8.10    5.00 
   7   4   7   10.90    4.30 
   5  -5  -7  135.89   12.30 
   5  -5  -7  119.59    9.00 
  -5   5   7  105.29   10.60 
  -5   5   7  139.99   11.60 
   4  -5  -7    1.90    2.20 
   4  -5  -7    2.90    2.20 
  -4   5   7    1.60    2.40 
  -4   5   7    6.20    2.90 
   3  -5  -7  139.69    8.20 
   3  -5  -7  153.28   11.30 
  -3   5   7  131.09   10.10 
  -3   5   7  149.99    9.70 
  -3   5   7  118.09   11.90 
   2  -5  -7   -1.10    1.90 
   2  -5  -7    2.10    1.50 
  -2   5   7    4.20    2.30 
  -2   5   7    2.60    2.10 
  -2   5   7    5.30    3.70 
   1  -5  -7  192.08    8.10 
   1  -5  -7  182.38   11.30 
  -1   5   7  183.08   11.10 
  -1   5   7  201.38   11.60 
  -1   5   7  202.18    9.40 
   0  -5  -7  855.11   25.20 
   0  -5  -7  828.82   28.20 
   0  -5  -7  868.31   21.70 
   0   5   7  842.92   28.40 
   0   5   7  847.22   28.40 
   0   5   7  868.21   23.30 
  -1  -5  -7  414.66   10.20 
  -1  -5  -7  426.46   15.80 
  -1  -5  -7  455.75   18.20 
  -1  -5  -7  435.46   10.60 
   1   5   7  453.75   18.40 
   1   5   7  410.56   18.20 
  -2  -5  -7  156.38   10.00 
  -2  -5  -7  143.59    8.70 
   2   5   7  133.69    9.90 
   2   5   7  145.19    9.70 
  -3  -5  -7 2504.15   65.79 
  -3  -5  -7 2289.87   79.19 
   3   5   7 2405.06   67.59 
   3   5   7 2585.34   65.99 
  -4  -5  -7  318.17   16.40 
   4   5   7  304.27   18.60 
   4   5   7  268.67   16.50 
  -5  -5  -7    4.40    2.80 
   5   5   7    4.80    3.20 
   5   5   7    7.80    3.10 
  -6  -5  -7   22.40    6.30 
  -6  -5  -7   30.80    2.50 
   6   5   7   14.90    4.40 
   6   5   7   28.60    2.40 
  -7  -5  -7   35.80    3.80 
  -7  -5  -7   21.40    5.90 
   7   5   7   31.70    6.20 
   7   5   7   40.60    8.60 
   7   5   7   31.80    3.50 
   5  -6  -7    3.90    2.60 
  -5   6   7    1.80    2.70 
  -5   6   7    0.10    3.50 
   4  -6  -7  113.49    8.50 
   4  -6  -7   92.59   10.40 
  -4   6   7  111.59   10.30 
  -4   6   7   98.79   10.00 
   3  -6  -7   18.90    3.30 
   3  -6  -7   14.40    4.30 
  -3   6   7   16.70    4.50 
  -3   6   7   24.90    5.10 
   2  -6  -7   85.29    8.70 
   2  -6  -7   76.69    5.60 
  -2   6   7   70.39    6.40 
  -2   6   7   82.79    8.20 
   1  -6  -7  507.15   22.20 
   1  -6  -7  501.15   16.10 
  -1   6   7  504.45   17.40 
   0  -6  -7 1987.90   56.59 
   0  -6  -7 1973.30   46.80 
   0   6   7 1935.81   55.69 
   0   6   7 1986.40   47.80 
  -1  -6  -7 1176.88   26.70 
  -1  -6  -7 1177.18   37.70 
  -1  -6  -7 1124.99   26.50 
   1   6   7 1214.18   38.10 
  -2  -6  -7  171.08   11.70 
   2   6   7  164.78   11.40 
  -3  -6  -7  275.87   15.60 
   3   6   7  245.88   15.40 
   3   6   7  268.87   15.10 
  -4  -6  -7   80.29    8.50 
   4   6   7   78.59    8.10 
   4   6   7   71.99    8.80 
  -5  -6  -7  395.56   22.30 
   5   6   7  399.66   22.40 
   5   6   7  407.96   20.30 
  -6  -6  -7   14.40    4.40 
   6   6   7   18.60    5.60 
   6   6   7   16.50    4.60 
  -7  -6  -7   30.30    7.30 
   7   6   7   23.30    1.90 
   7   6   7   28.60    6.10 
   7   6   7   20.50    8.00 
   7   6   7   25.70    2.10 
   4  -7  -7  123.09    9.40 
   4  -7  -7  108.29   12.10 
  -4   7   7  123.69   11.80 
  -4   7   7  125.09   12.60 
   3  -7  -7  144.99   13.30 
   3  -7  -7  147.19    9.60 
  -3   7   7  165.78   12.70 
  -3   7   7  146.59   12.40 
   2  -7  -7  108.29    7.40 
   2  -7  -7   79.89    9.40 
  -2   7   7   85.29    7.20 
  -2   7   7   97.69    9.40 
  -2   7   7  112.09    9.80 
   1  -7  -7   10.80    2.60 
   1  -7  -7   22.10    5.50 
  -1   7   7   11.80    3.70 
  -1   7   7   12.30    2.90 
  -1   7   7   11.60    3.60 
   0  -7  -7   89.89    9.10 
   0  -7  -7   85.29    5.30 
   0   7   7   88.39    9.00 
   0   7   7   89.69    8.80 
   0   7   7   86.29    5.30 
  -1  -7  -7  286.87    8.80 
  -1  -7  -7  261.07   16.30 
   1   7   7  283.57    8.30 
   1   7   7  263.57   21.30 
   1   7   7  304.87   16.90 
  -2  -7  -7  457.55   22.10 
   2   7   7  450.75   31.50 
   2   7   7  476.35   22.60 
  -3  -7  -7    6.20    3.60 
   3   7   7    4.20    2.20 
   3   7   7    9.90    3.10 
  -4  -7  -7  318.67   21.90 
   4   7   7  367.96   19.40 
   4   7   7  341.77   20.20 
  -5  -7  -7   62.29    8.60 
   5   7   7   84.49   10.20 
   5   7   7   64.59    8.20 
  -6  -7  -7   10.40    4.80 
   6   7   7    6.80    4.30 
   6   7   7    2.60    3.40 
   7   7   7   43.40   13.00 
   7   7   7   49.20    8.50 
   3  -8  -7    3.30    2.80 
   3  -8  -7    3.50    4.40 
  -3   8   7   -2.40    2.60 
  -3   8   7    2.50    4.00 
   2  -8  -7   -0.60    3.00 
   2  -8  -7    2.40    2.10 
  -2   8   7    0.70    2.90 
  -2   8   7   -0.30    2.40 
   1  -8  -7   -1.10    1.60 
   1  -8  -7    6.90    3.40 
  -1   8   7    0.80    2.10 
  -1   8   7    7.10    3.30 
  -1   8   7    3.60    2.50 
   0  -8  -7   88.79    6.00 
   0  -8  -7   80.39   15.70 
   0   8   7   89.79    5.70 
   0   8   7   84.19    9.10 
   0   8   7   88.99    9.20 
  -1  -8  -7  247.78    9.20 
  -1  -8  -7  251.37   17.40 
   1   8   7  262.97   16.60 
   1   8   7  248.48   16.10 
   1   8   7  259.47    8.60 
  -2  -8  -7  147.79   12.60 
   2   8   7  123.09   11.30 
   2   8   7  141.29   12.20 
  -3  -8  -7   41.40    8.10 
   3   8   7   30.70    6.30 
   3   8   7   34.80    6.90 
  -4  -8  -7  147.19   13.30 
   4   8   7  134.69   12.90 
   4   8   7  131.99   11.80 
  -5  -8  -7   47.70    8.70 
   5   8   7   58.59    7.70 
   5   8   7   40.10    8.10 
  -6  -8  -7  175.38   15.20 
   6   8   7  146.99   13.30 
   6   8   7  118.29   14.70 
   2  -9  -7   22.20    7.80 
   2  -9  -7   28.40    5.30 
  -2   9   7   38.20    7.80 
  -2   9   7   37.90    9.10 
   1  -9  -7  147.79   14.50 
   1  -9  -7  160.08   10.20 
  -1   9   7  163.68   14.10 
  -1   9   7  163.08    9.60 
  -1   9   7  159.78   14.10 
   0  -9  -7   57.69    9.80 
   0  -9  -7   39.10    4.80 
   0   9   7   29.50    6.50 
   0   9   7   43.80    8.00 
   0   9   7   41.80    4.20 
  -1  -9  -7   12.70    4.60 
  -1  -9  -7   13.30    2.70 
   1   9   7   21.30    6.20 
   1   9   7   22.80    5.80 
   1   9   7   17.50    2.50 
  -2  -9  -7   80.19   10.20 
   2   9   7   80.49   10.50 
   2   9   7   72.69    9.50 
  -3  -9  -7   56.09    9.60 
   3   9   7   57.99    9.90 
   3   9   7   49.10    8.50 
  -4  -9  -7    5.20    4.80 
   4   9   7    5.40    3.40 
   4   9   7   18.50    5.70 
  -5  -9  -7    7.60    4.20 
   5   9   7    6.70    3.40 
   5   9   7    1.90    4.60 
   6   9   7    2.60    4.00 
   1 -10  -7   33.90    6.10 
  -1  10   7   18.40    6.00 
   0 -10  -7  140.79    9.50 
   0 -10  -7  138.59   14.80 
   0  10   7  123.99    8.10 
   0  10   7  151.68   14.80 
   0  10   7  140.49   13.90 
  -1 -10  -7  183.08   10.10 
  -1 -10  -7  176.58   16.80 
   1  10   7  167.48    7.90 
   1  10   7  195.88   16.40 
   1  10   7  177.08   16.10 
  -2 -10  -7    2.40    4.00 
   2  10   7    5.30    3.50 
   2  10   7    3.80    4.00 
  -3 -10  -7   22.20    7.20 
   3  10   7   17.70    5.80 
   3  10   7   14.30    5.90 
  -4 -10  -7   30.00    8.20 
   4  10   7   27.60    6.50 
   4  10   7   21.80    8.30 
   5  10   7   -2.50    3.90 
   3   7  -8   24.70    6.00 
  -3  -7   8   22.90    4.90 
  -3  -7   8   19.60    4.70 
   2   7  -8   -0.10    3.20 
  -2  -7   8   -4.40    3.20 
  -2  -7   8    4.90    2.70 
  -2  -7   8   -2.10    1.40 
  -1  -7   8   41.20    8.40 
  -1  -7   8   45.20    6.50 
  -1  -7   8   33.20    5.90 
   5   6  -8    2.70    3.30 
  -5  -6   8   -1.10    1.80 
  -5  -6   8    2.10    3.20 
   4   6  -8   59.09    7.70 
  -4  -6   8   59.59    6.50 
  -4  -6   8   59.99    7.30 
  -3  -6   8   78.79    7.00 
  -3  -6   8  101.19   13.30 
   2   6  -8   68.99    9.00 
  -2  -6   8   58.39    6.00 
  -1  -6   8   33.50    5.70 
  -1  -6   8   33.70    7.20 
  -1  -6   8   36.80    4.60 
   0  -6   8  -10.90    4.10 
   0  -6   8    2.20    1.90 
   0  -6   8    2.00    2.00 
   1  -6   8   39.00    8.00 
   1  -6   8   43.00    7.10 
   1  -6   8   46.10    6.20 
   6   5  -8   42.90    7.30 
  -6  -5   8   50.29    6.70 
  -6  -5   8   47.30    7.40 
   5   5  -8   15.40    4.60 
  -5  -5   8   20.80    4.70 
  -5  -5   8   24.00    4.70 
   4   5  -8   66.79    8.40 
  -4  -5   8   46.70    5.60 
  -4  -5   8   68.69    7.00 
   3   5  -8   -0.20    2.80 
  -3  -5   8   -0.70    1.50 
  -3  -5   8    2.40    1.90 
   2   5  -8   -1.20    2.50 
  -2  -5   8    2.20    1.60 
  -1  -5   8   12.30    3.10 
  -1  -5   8   15.20    3.00 
  -1  -5   8   22.80    5.90 
   0  -5   8  148.89   10.40 
   0  -5   8  147.99    8.50 
   0  -5   8  143.09   13.10 
   1  -5   8   43.90    8.20 
   1  -5   8   47.40    5.30 
   1  -5   8   46.30    6.20 
   2  -5   8  176.48   15.00 
   2  -5   8  168.28   12.80 
   2  -5   8  165.88   11.10 
   3  -5   8  141.89   14.10 
   3  -5   8  138.89   11.70 
   3  -5   8  142.79   11.90 
   6   4  -8   65.99    8.50 
  -6  -4   8   61.39    7.80 
  -6  -4   8   55.49    7.10 
   5   4  -8   12.90    4.60 
  -5  -4   8   16.70    3.90 
  -5  -4   8   16.40    3.70 
   4   4  -8  159.98   12.40 
  -4  -4   8  133.49    8.70 
  -4  -4   8  129.09    9.00 
   3   4  -8    1.90    2.60 
  -3  -4   8    3.90    1.90 
  -3  -4   8    6.30    2.20 
   2   4  -8   -0.20    2.10 
  -2  -4   8    1.80    1.40 
  -2  -4   8    1.20    1.20 
  -1  -4   8   65.69    5.60 
  -1  -4   8   52.99    8.60 
  -1  -4   8   61.79    4.60 
   0  -4   8  142.99   12.30 
   0  -4   8  132.09    7.30 
   0  -4   8  130.19    8.50 
   1  -4   8   -1.50    2.90 
   1  -4   8    7.00    2.60 
   1  -4   8    1.10    2.00 
  -2   4  -8  404.26   14.20 
   2  -4   8  435.66   23.30 
   2  -4   8  422.06   19.00 
   2  -4   8  406.26   17.40 
  -3   4  -8    2.30    3.00 
   3  -4   8    2.80    3.10 
   3  -4   8    2.10    2.40 
   3  -4   8   -1.00    3.20 
   4  -4   8  142.49   12.40 
   4  -4   8  132.89   13.20 
   4  -4   8  119.39   11.00 
   6   3  -8   26.30    7.70 
  -6  -3   8   30.90    6.50 
  -6  -3   8   36.40    6.10 
   5   3  -8  367.96   19.50 
  -5  -3   8  366.66   16.70 
  -5  -3   8  377.36   16.40 
   4   3  -8  114.69   10.30 
  -4  -3   8  123.49    8.00 
  -4  -3   8  132.39    8.10 
   3   3  -8   69.09    7.90 
  -3  -3   8   63.69    4.80 
  -3  -3   8   63.39    5.20 
   2   3  -8  234.18   14.70 
  -2  -3   8  233.28    8.80 
  -2  -3   8  223.18    9.70 
   1   3  -8  151.78   11.40 
  -1  -3   8  150.08    6.30 
  -1  -3   8  152.28   12.30 
  -1  -3   8  142.59    7.40 
   0  -3   8  152.58   12.10 
   0  -3   8  152.78    7.00 
   0  -3   8  156.28    8.10 
   1  -3   8  706.13   23.40 
   1  -3   8  703.83   29.50 
   1  -3   8  733.93   22.10 
  -2   3  -8    1.50    1.20 
   2  -3   8    5.20    2.70 
   2  -3   8   -1.80    2.80 
  -3   3  -8  209.08   10.50 
   3  -3   8  188.08   12.20 
   3  -3   8  246.58   16.20 
   3  -3   8  210.78   12.70 
  -4   3  -8  285.07   14.10 
   4  -3   8  290.57   17.00 
   4  -3   8  304.57   25.10 
   4  -3   8  287.17   18.90 
   7   2  -8   81.59    8.80 
  -7  -2   8   73.29    7.90 
  -7  -2   8   96.89   10.20 
   6   2  -8   67.89    7.60 
  -6  -2   8   56.79    6.20 
  -6  -2   8   89.09   14.10 
   5   2  -8    7.80    3.00 
  -5  -2   8    2.40    2.20 
  -5  -2   8    2.80    2.20 
   4   2  -8  136.89   10.80 
  -4  -2   8  122.59    7.80 
  -4  -2   8  135.49    7.80 
   3   2  -8  150.58   11.10 
  -3  -2   8  157.18    7.30 
  -3  -2   8  149.99    7.10 
   2   2  -8  152.98   11.10 
  -2  -2   8  148.99    6.10 
  -2  -2   8  157.58    5.90 
   1   2  -8   19.80    4.50 
   1   2  -8   27.30    5.50 
  -1  -2   8   19.20    1.60 
  -1  -2   8   19.30    2.00 
   0   2  -8  546.75   22.20 
   0  -2   8  551.04   23.70 
   0  -2   8  523.65   15.90 
   0  -2   8  531.45   14.90 
  -1   2  -8  155.98   10.40 
   1  -2   8  158.38    7.70 
   1  -2   8  155.78    7.90 
   1  -2   8  164.98   12.00 
   2  -2   8  120.89   10.20 
   2  -2   8  132.49    8.30 
  -3   2  -8  913.21   26.00 
   3  -2   8  917.31   30.10 
   3  -2   8  903.21   30.60 
   3  -2   8  905.11   34.10 
  -4   2  -8  145.49    8.80 
   4  -2   8  149.88   11.00 
   4  -2   8  128.69   10.80 
   4  -2   8  177.38   13.40 
  -5   2  -8   59.09    7.00 
   5  -2   8   83.49    9.00 
   5  -2   8   65.19    8.00 
   5  -2   8   68.69    9.60 
   7   1  -8   32.40    5.50 
  -7  -1   8   46.10    6.10 
  -7  -1   8   36.90    7.20 
   6   1  -8    0.10    1.80 
   6   1  -8   -0.30    1.80 
  -6  -1   8   -3.30    1.70 
  -6  -1   8   -1.70    2.20 
   5   1  -8   48.90    6.40 
   5   1  -8   48.60    3.60 
  -5  -1   8   40.50    4.70 
  -5  -1   8   43.90    7.80 
   4   1  -8   76.69    7.60 
  -4  -1   8   73.29    5.80 
  -4  -1   8   64.89    5.10 
   3   1  -8  458.35   19.90 
  -3  -1   8  443.96   15.60 
  -3  -1   8  465.65   14.70 
   2   1  -8  203.98   13.20 
   2   1  -8  216.78   12.50 
  -2  -1   8  211.88    6.60 
  -2  -1   8  215.18    6.30 
   1   1  -8  586.54   36.00 
   1   1  -8  669.73   24.40 
   0   1  -8  538.95   21.20 
   0   1  -8  520.25   20.70 
   0  -1   8  506.75   21.80 
  -1   1  -8  162.58    9.80 
   1  -1   8  155.18    7.30 
   1  -1   8  151.48    6.80 
   1  -1   8  135.89   10.20 
  -2   1  -8   26.00    4.30 
   2  -1   8   27.30    6.10 
   2  -1   8   23.60    3.70 
   2  -1   8   20.50    4.60 
  -3   1  -8    2.30    1.30 
  -3   1  -8   -1.50    1.80 
   3  -1   8    2.90    1.70 
   3  -1   8    1.60    2.50 
   3  -1   8    2.00    1.40 
  -4   1  -8   13.70    3.00 
   4  -1   8   12.90    3.90 
   4  -1   8   14.50    7.10 
   4  -1   8   13.40    4.00 
  -5   1  -8  860.41   29.10 
   5  -1   8  913.61   33.30 
   5  -1   8  921.11   34.40 
   5  -1   8  918.41   35.50 
   6  -1   8  178.08   23.80 
   6  -1   8  164.68   13.30 
   6  -1   8  157.48   12.70 
   7   0  -8    7.60    3.60 
  -7   0   8   14.10    4.00 
  -7   0   8   25.20    5.40 
   6   0  -8    7.40    3.20 
   6   0  -8    2.00    2.40 
  -6   0   8    0.30    1.70 
  -6   0   8    4.90    2.10 
   5   0  -8  198.28   12.10 
  -5   0   8  188.28   10.30 
  -5   0   8  172.78   10.70 
   4   0  -8   75.39    7.30 
  -4   0   8   69.69    5.80 
  -4   0   8   68.39    5.20 
   3   0  -8   26.70    4.70 
   3   0  -8   18.20    4.80 
  -3   0   8   21.70    2.80 
  -3   0   8   26.60    2.70 
   2   0  -8  150.68   16.30 
   2   0  -8  149.09    9.60 
  -2   0   8  138.09    5.10 
  -2   0   8  145.89    5.40 
   1   0  -8  386.56   17.70 
   1   0  -8  403.46   16.70 
   0   0  -8  115.79    8.10 
   0   0  -8  116.19    8.30 
  -1   0  -8  690.83   23.50 
   1   0   8  732.43   20.20 
   1   0   8  700.23   25.20 
   1   0   8  695.23   18.90 
  -2   0  -8    4.30    2.00 
   2   0   8    3.40    1.60 
   2   0   8    5.10    2.20 
   2   0   8   10.60    3.20 
  -3   0  -8    6.80    2.40 
  -3   0  -8    3.50    1.30 
   3   0   8    6.60    2.60 
   3   0   8    7.90    2.90 
   3   0   8    8.60    2.20 
  -4   0  -8  518.95   17.70 
  -4   0  -8  531.95   18.00 
   4   0   8  491.45   22.10 
   4   0   8  522.45   21.80 
   4   0   8  513.95   20.50 
  -5   0  -8  348.77   15.30 
   5   0   8  355.26   19.70 
   5   0   8  371.96   18.20 
   5   0   8  368.46   18.50 
   6   0   8    6.20    3.90 
   6   0   8    0.70    3.40 
   6   0   8    0.90    3.60 
   6  -1  -8    6.00    2.70 
   6  -1  -8    3.30    2.10 
  -6   1   8    4.20    2.10 
  -6   1   8    5.00    3.30 
   5  -1  -8    4.10    2.20 
   5  -1  -8    4.80    2.30 
  -5   1   8    5.00    2.60 
  -5   1   8    1.30    1.70 
   4  -1  -8    0.00    1.80 
   4  -1  -8    4.70    1.50 
  -4   1   8    1.70    1.60 
  -4   1   8    4.60    1.80 
   3  -1  -8  100.49    9.30 
   3  -1  -8   93.79    7.30 
  -3   1   8   98.09    5.80 
   2  -1  -8  625.04   21.50 
   2  -1  -8  604.14   23.60 
  -2   1   8  589.14   16.70 
  -2   1   8  583.94   16.60 
   1  -1  -8  130.39    9.10 
   1  -1  -8  129.39    8.10 
  -1   1   8  117.79    4.40 
  -1   1   8  116.79    4.60 
   0  -1  -8  696.03   23.70 
   0  -1  -8  703.83   22.80 
   0   1   8  711.03   17.30 
   0   1   8  699.23   17.60 
  -1  -1  -8  126.19    7.70 
  -1  -1  -8  115.89    7.20 
   1   1   8  121.69    5.40 
  -2  -1  -8   24.10    3.10 
   2   1   8   26.00    4.10 
   2   1   8   30.70    3.10 
   2   1   8   27.90    4.30 
  -3  -1  -8  145.19    7.20 
  -3  -1  -8  146.59    6.40 
   3   1   8  139.09    9.50 
   3   1   8  148.19    9.30 
   3   1   8  140.39    8.20 
  -4  -1  -8   26.00    3.40 
  -4  -1  -8   25.40    3.20 
   4   1   8   28.60    4.90 
   4   1   8   25.10    4.40 
   4   1   8   29.20    5.80 
  -5  -1  -8    2.30    2.30 
  -5  -1  -8    1.00    2.10 
   5   1   8    2.10    3.20 
   5   1   8    5.70    2.70 
   5   1   8    2.80    2.60 
  -6  -1  -8  770.92   26.80 
   6   1   8  734.63   28.20 
   6   1   8  808.62   30.50 
   6   1   8  690.13   32.60 
   6  -2  -8   59.19    7.40 
   6  -2  -8   49.70    6.30 
  -6   2   8   73.49    9.30 
  -6   2   8   60.99    7.80 
   5  -2  -8   75.89    6.80 
   5  -2  -8   66.49    6.60 
  -5   2   8   71.79    6.90 
  -5   2   8   66.69    6.60 
   4  -2  -8   28.80    3.80 
   4  -2  -8   33.80    4.20 
  -4   2   8   28.90    3.90 
  -4   2   8   23.50    4.20 
   3  -2  -8   94.09    4.90 
   3  -2  -8   87.29    6.20 
   3  -2  -8  100.79    7.20 
  -3   2   8   97.29    6.50 
  -3   2   8  106.79    6.60 
  -3   2   8  108.99    8.50 
   2  -2  -8  176.18    9.30 
   2  -2  -8  162.38   10.90 
  -2   2   8  143.29    9.50 
  -2   2   8  165.98    7.80 
   1  -2  -8 1032.20   29.40 
   1  -2  -8 1013.20   31.90 
  -1   2   8 1046.00   27.30 
  -1   2   8 1037.20   26.90 
   0  -2  -8  324.57   13.60 
   0  -2  -8  319.57   12.40 
   0   2   8  326.07   11.10 
   0   2   8  314.17   10.80 
  -1  -2  -8  110.79   10.30 
  -1  -2  -8  122.89    6.70 
   1   2   8  114.09    7.30 
   1   2   8  126.09    6.20 
  -2  -2  -8  167.18    7.30 
  -2  -2  -8  164.78    5.50 
  -2  -2  -8  164.48    5.20 
  -2  -2  -8  162.68    7.90 
   2   2   8  159.88    8.00 
  -3  -2  -8  294.27   10.50 
  -3  -2  -8  294.77   10.10 
   3   2   8  288.87   14.30 
   3   2   8  277.17   15.80 
   3   2   8  301.97   12.50 
  -4  -2  -8   42.50    3.50 
  -4  -2  -8   51.29    4.60 
   4   2   8   46.30    6.30 
   4   2   8   47.70    5.10 
   4   2   8   53.59    5.60 
  -5  -2  -8  524.65   16.90 
  -5  -2  -8  530.35   19.70 
   5   2   8  546.75   22.00 
   5   2   8  527.95   20.10 
   5   2   8  512.65   24.60 
  -6  -2  -8    1.50    2.50 
   6   2   8    2.70    2.10 
   6   2   8    2.80    2.20 
   7   2   8    6.70    3.30 
   6  -3  -8  143.89   12.70 
  -6   3   8  152.98   12.00 
  -6   3   8  157.58   11.90 
   5  -3  -8   -3.40    1.70 
   5  -3  -8    5.10    2.60 
  -5   3   8    1.10    2.00 
  -5   3   8   -3.40    1.90 
   4  -3  -8  292.47   13.80 
   4  -3  -8  280.47   13.30 
  -4   3   8  270.07   14.00 
  -4   3   8  273.07   13.70 
   3  -3  -8   57.19    5.00 
   3  -3  -8   58.99    5.30 
  -3   3   8   59.99    5.80 
  -3   3   8   62.19    6.70 
  -3   3   8   64.89    5.90 
   2  -3  -8   18.90    2.40 
   2  -3  -8   14.70    3.00 
   2  -3  -8   17.40    2.40 
  -2   3   8   21.00    3.50 
  -2   3   8   16.90    3.60 
  -2   3   8   19.30    3.60 
   1  -3  -8  112.19    7.80 
   1  -3  -8  116.09    6.50 
  -1   3   8  106.69    6.70 
  -1   3   8  108.09    6.60 
   0  -3  -8    4.40    1.50 
   0   3   8    6.10    1.90 
   0   3   8    2.70    1.40 
  -1  -3  -8  635.14   17.80 
  -1  -3  -8  640.44   15.90 
  -1  -3  -8  637.14   18.50 
   1   3   8  630.74   21.00 
   1   3   8  649.14   20.40 
  -2  -3  -8 1062.19   26.70 
  -2  -3  -8 1008.70   25.70 
  -2  -3  -8 1025.20   26.60 
  -2  -3  -8 1019.50   25.00 
   2   3   8 1024.20   29.60 
   2   3   8  981.80   31.30 
  -3  -3  -8   67.29    4.10 
  -3  -3  -8   76.09    5.40 
  -3  -3  -8   68.89    3.40 
   3   3   8   68.19    9.40 
  -4  -3  -8  247.88    8.30 
  -4  -3  -8  237.08   11.60 
   4   3   8  229.08    9.90 
   4   3   8  248.38   14.70 
   4   3   8  250.67   13.00 
  -5  -3  -8  114.99    8.60 
  -5  -3  -8  110.79    5.80 
   5   3   8  118.39   10.90 
   5   3   8  112.09    9.20 
   5   3   8  121.29    7.60 
  -6  -3  -8  143.59   10.60 
  -6  -3  -8  163.98    8.10 
   6   3   8  152.58   11.50 
   6   3   8  139.09    9.00 
   7   3   8  239.98   27.50 
   7   3   8  229.28   16.10 
   7   3   8  236.88   12.80 
   6  -4  -8    5.40    3.70 
  -6   4   8   12.10    4.90 
   5  -4  -8  275.37   14.10 
   5  -4  -8  262.97   15.80 
  -5   4   8  271.07   15.70 
  -5   4   8  257.77   15.60 
   4  -4  -8    3.30    2.80 
   4  -4  -8    3.10    2.30 
  -4   4   8    7.90    3.50 
  -4   4   8    0.30    1.60 
   3  -4  -8   92.89    7.60 
   3  -4  -8  104.19    7.10 
  -3   4   8   92.79    7.60 
  -3   4   8   88.39    7.80 
  -3   4   8   91.89    7.80 
   2  -4  -8  813.72   26.20 
   2  -4  -8  831.92   24.30 
  -2   4   8  818.72   27.20 
  -2   4   8  861.11   27.20 
  -2   4   8  819.82   26.90 
   1  -4  -8   54.29    4.10 
   1  -4  -8   54.69    4.10 
  -1   4   8   51.69    5.00 
  -1   4   8   53.79    5.40 
  -1   4   8   58.79    4.90 
   0  -4  -8  311.67   11.90 
   0  -4  -8  301.87    9.90 
   0  -4  -8  312.17   12.10 
   0  -4  -8  293.57   10.10 
   0   4   8  299.27   13.30 
   0   4   8  302.37   13.40 
  -1  -4  -8  724.33   20.60 
  -1  -4  -8  696.93   18.10 
  -1  -4  -8  773.72   22.60 
  -1  -4  -8  767.92   19.60 
   1   4   8  757.42   24.50 
   1   4   8  777.02   25.30 
  -2  -4  -8  101.09    6.60 
  -2  -4  -8  111.99    7.10 
   2   4   8  112.19    7.80 
   2   4   8  109.19    8.30 
  -3  -4  -8  639.84   21.60 
   3   4   8  623.04   22.60 
   3   4   8  584.74   24.30 
  -4  -4  -8  562.04   21.30 
   4   4   8  571.24   25.20 
   4   4   8  602.44   22.80 
  -5  -4  -8  195.28    6.90 
  -5  -4  -8  179.98   11.70 
   5   4   8  208.48    7.60 
   5   4   8  206.68   14.70 
   5   4   8  205.18   12.90 
  -6  -4  -8  337.47   17.70 
   6   4   8  413.36   23.00 
   6   4   8  367.46   13.40 
   6   4   8  377.06   19.30 
   7   4   8   -0.50    2.10 
   7   4   8   10.10    5.90 
   7   4   8    2.00    4.90 
   5  -5  -8  282.17   14.60 
  -5   5   8  253.67   22.30 
   4  -5  -8   16.20    3.80 
   4  -5  -8   12.40    4.00 
  -4   5   8   32.60    6.10 
  -4   5   8   18.60    4.50 
   3  -5  -8  286.57   12.90 
   3  -5  -8  314.67   16.40 
  -3   5   8  314.87   16.30 
  -3   5   8  299.77   15.70 
  -3   5   8  279.57   14.70 
   2  -5  -8  126.79    7.20 
   2  -5  -8  116.19    9.60 
  -2   5   8  117.39    9.10 
  -2   5   8  119.59    9.30 
  -2   5   8  114.39    8.20 
   1  -5  -8    2.10    1.30 
   1  -5  -8    2.60    1.80 
  -1   5   8    1.00    1.80 
  -1   5   8    0.30    1.40 
  -1   5   8   -1.50    1.10 
   0  -5  -8   14.80    1.90 
   0  -5  -8   18.30    3.00 
   0  -5  -8   19.40    5.70 
   0   5   8   17.70    3.80 
  -1  -5  -8   27.00    1.50 
  -1  -5  -8   24.80    4.30 
  -1  -5  -8   25.00    1.30 
   1   5   8   28.70    4.90 
   1   5   8   22.10    4.40 
  -2  -5  -8  423.86   17.50 
   2   5   8  446.96   23.50 
   2   5   8  408.66   19.00 
  -3  -5  -8 1721.43   48.60 
   3   5   8 1723.03   49.30 
   3   5   8 1693.93   51.59 
  -4  -5  -8   23.10    4.70 
   4   5   8   15.90    3.60 
   4   5   8   21.90    5.10 
  -5  -5  -8  250.97   14.70 
   5   5   8  238.58   14.50 
  -6  -5  -8    5.40    4.20 
   6   5   8    4.80    2.80 
   7   5   8  113.59   15.80 
   7   5   8   83.99    5.10 
   4  -6  -8  371.16   21.10 
   4  -6  -8  375.26   16.60 
  -4   6   8  378.36   20.70 
   3  -6  -8  180.08   12.70 
   3  -6  -8  179.08   13.00 
  -3   6   8  154.88   12.70 
  -3   6   8  171.68   12.60 
   2  -6  -8   67.29    5.20 
   2  -6  -8   54.79    6.80 
  -2   6   8   60.89    6.10 
  -2   6   8   58.69    7.10 
  -2   6   8   62.69    7.30 
   1  -6  -8  345.97   17.20 
   1  -6  -8  346.27   12.30 
  -1   6   8  357.26   17.30 
  -1   6   8  339.17   13.70 
  -1   6   8  325.77   17.00 
   0  -6  -8    4.80    1.50 
   0   6   8    8.30    2.70 
   0   6   8    7.30    1.70 
   0   6   8   10.60    3.60 
  -1  -6  -8   12.60    3.50 
   1   6   8    9.70    3.30 
   1   6   8   24.30    4.90 
  -2  -6  -8  596.14   23.70 
   2   6   8  577.84   24.60 
   2   6   8  577.64   23.60 
  -3  -6  -8  147.09   11.00 
   3   6   8  144.49   11.80 
   3   6   8  161.08   11.50 
  -4  -6  -8  411.66   20.00 
   4   6   8  389.16   19.40 
  -5  -6  -8  259.77   15.80 
   5   6   8  225.78   16.90 
   5   6   8  260.57   15.80 
  -6  -6  -8   -1.70    3.10 
   6   6   8    2.80    3.00 
   6   6   8    6.30    4.20 
   7   6   8   75.89   10.60 
   4  -7  -8   29.00    5.40 
  -4   7   8   28.90    5.80 
   3  -7  -8    1.60    3.60 
   3  -7  -8    0.60    2.40 
  -3   7   8    4.50    2.70 
  -3   7   8    4.80    3.50 
   2  -7  -8   73.69    6.00 
   2  -7  -8   65.19    8.10 
  -2   7   8   75.59    8.60 
  -2   7   8   74.59    8.10 
  -2   7   8   67.49    6.30 
   1  -7  -8    7.60    2.20 
   1  -7  -8    1.30    3.00 
  -1   7   8    6.50    2.00 
  -1   7   8   -0.60    2.10 
   0  -7  -8   14.30    2.40 
   0  -7  -8   13.40    3.80 
   0   7   8   15.90    2.60 
   0   7   8   15.90    3.80 
  -1  -7  -8  192.98   13.30 
   1   7   8  195.78   13.30 
  -2  -7  -8   22.80    5.70 
   2   7   8   24.80    5.50 
  -3  -7  -8  221.38   14.90 
   3   7   8  220.48   15.20 
   3   7   8  233.08   14.90 
  -4  -7  -8  243.48   15.80 
   4   7   8  254.77   17.40 
   4   7   8  245.68   15.70 
  -5  -7  -8  159.08   13.10 
   5   7   8  149.88   12.10 
   5   7   8  144.89   13.60 
  -6  -7  -8   -2.10    3.00 
   6   7   8   -4.40    3.40 
   6   7   8    8.40    3.60 
   3  -8  -8  110.89    8.60 
  -3   8   8  113.79   11.80 
   2  -8  -8  281.17   13.40 
   2  -8  -8  272.17   18.40 
  -2   8   8  270.97   17.50 
  -2   8   8  244.78   17.30 
   1  -8  -8    6.50    3.50 
   1  -8  -8    5.20    2.10 
  -1   8   8    8.80    3.60 
  -1   8   8   -0.20    1.80 
   0  -8  -8  221.88   15.70 
   0   8   8  227.38   15.40 
   0   8   8  225.48    9.60 
   0   8   8  231.08   15.50 
   1   8   8   -0.10    2.00 
   1   8   8    3.30    2.80 
  -2  -8  -8   28.10    6.20 
   2   8   8    8.80    4.00 
   2   8   8   14.80    4.20 
  -3  -8  -8   75.09    9.20 
   3   8   8   73.09    9.40 
   3   8   8   63.69    8.20 
  -4  -8  -8   -3.50    2.50 
   4   8   8   -1.50    2.20 
   4   8   8   -0.30    3.30 
  -5  -8  -8   50.09    9.30 
   5   8   8   43.60    7.80 
   5   8   8   52.99   10.10 
   6   8   8  121.59   12.10 
   1  -9  -8  107.19   15.30 
   1  -9  -8  129.69    8.70 
  -1   9   8  126.69   12.80 
  -1   9   8  129.69    8.60 
  -1   9   8  106.69   11.90 
   0  -9  -8  165.08    8.80 
   0  -9  -8  141.99   13.60 
   0   9   8  141.09   12.80 
   0   9   8  159.08   13.80 
   0   9   8  146.19    7.80 
  -1  -9  -8   71.09    3.40 
   1   9   8   72.59    3.00 
   1   9   8   77.89    9.80 
   1   9   8   66.39    9.10 
  -2  -9  -8  240.48   17.40 
   2   9   8  225.18   16.60 
   2   9   8  213.88   16.10 
  -3  -9  -8  106.69   12.80 
   3   9   8  124.29   12.30 
   3   9   8  143.79   13.30 
  -4  -9  -8   95.49   11.50 
   4   9   8   79.69    9.50 
   4   9   8   70.09   12.40 
   5   9   8   41.60    8.30 
   0 -10  -8    5.90    2.90 
   0  10   8    5.50    6.70 
  -1 -10  -8  140.09    7.80 
   1  10   8  185.38   16.20 
   2  10   8    4.20    4.30 
   2  10   8    1.40    4.30 
   3  10   8   23.20    6.20 
   4  10   8   47.20    9.40 
   3   6  -9   43.50    8.30 
  -3  -6   9   41.30    5.00 
  -3  -6   9   40.70    5.60 
   2   6  -9  109.29   11.40 
  -2  -6   9  107.59    8.60 
  -2  -6   9  110.89    8.00 
  -1  -6   9   89.49   11.50 
  -1  -6   9  107.09    7.70 
  -1  -6   9   96.59    8.90 
   4   5  -9    3.90    3.90 
  -4  -5   9    1.20    2.10 
  -4  -5   9    2.30    2.30 
   3   5  -9    9.20    5.20 
  -3  -5   9    8.90    3.20 
  -3  -5   9    6.50    1.80 
   2   5  -9    2.60    2.50 
  -2  -5   9    1.10    2.00 
  -2  -5   9    2.80    1.80 
   1   5  -9   22.30    5.40 
  -1  -5   9   14.50    4.70 
  -1  -5   9   26.20    3.80 
  -1  -5   9   20.30    4.00 
   0  -5   9   56.79   10.70 
   0  -5   9   45.40    4.80 
   0  -5   9   59.99    9.80 
   1  -5   9   54.29    5.90 
   1  -5   9   52.09    6.50 
   1  -5   9   68.69   11.70 
   5   4  -9  208.58   15.20 
  -5  -4   9  170.78   10.80 
  -5  -4   9  196.08   11.50 
   4   4  -9   27.50    6.10 
  -4  -4   9   29.80    3.90 
  -4  -4   9   28.50    4.40 
   3   4  -9   68.59    8.50 
  -3  -4   9   87.89    5.70 
  -3  -4   9   80.59    6.10 
   2   4  -9   34.70    6.70 
  -2  -4   9   46.30    4.50 
  -2  -4   9   45.30    3.70 
   1   4  -9  115.99   10.50 
  -1  -4   9  100.39    6.80 
  -1  -4   9  103.69    5.80 
  -1  -4   9   98.39   10.40 
   0  -4   9  145.19    7.90 
   0  -4   9  154.18    9.20 
   0  -4   9  153.98   13.30 
   1  -4   9   30.70    7.50 
   1  -4   9   30.70    4.80 
   1  -4   9   31.10    5.10 
   2  -4   9    1.10    2.40 
   2  -4   9    2.40    2.00 
   2  -4   9    6.20    3.50 
   3  -4   9    4.00    2.10 
   3  -4   9   -5.40    3.60 
   3  -4   9    8.60    3.70 
   6   3  -9   -0.30    2.50 
  -6  -3   9   -0.30    2.90 
  -6  -3   9    2.90    2.00 
   5   3  -9   41.50   10.70 
  -5  -3   9   41.30    5.90 
  -5  -3   9   32.80    7.10 
   4   3  -9  122.19   11.00 
  -4  -3   9  115.39    7.20 
  -4  -3   9  128.59    7.70 
   3   3  -9   22.40    5.40 
  -3  -3   9   20.80    2.70 
  -3  -3   9   21.10    2.80 
   2   3  -9  218.28   14.70 
  -2  -3   9  223.58    7.70 
  -2  -3   9  212.38    8.50 
   1   3  -9  166.38   12.40 
  -1  -3   9  148.99    5.90 
   0  -3   9  262.37    9.90 
   0  -3   9  263.17   11.00 
   0  -3   9  289.37   17.80 
   1  -3   9  304.17   18.60 
   1  -3   9  308.47   12.70 
   1  -3   9  298.57   13.30 
   2  -3   9   94.89    7.30 
   2  -3   9   73.49    6.80 
   2  -3   9   64.19   10.20 
   3  -3   9    6.90    3.90 
   3  -3   9    8.00    3.20 
   3  -3   9    4.40    2.80 
   4  -3   9   68.39    7.80 
   4  -3   9   47.40    9.40 
   4  -3   9   68.99    8.80 
   6   2  -9   43.60    7.30 
  -6  -2   9   54.29    5.70 
  -6  -2   9   59.99    7.00 
   5   2  -9  270.37   16.40 
  -5  -2   9  252.47   12.90 
  -5  -2   9  265.37   12.20 
   4   2  -9  425.56   20.80 
  -4  -2   9  410.36   14.60 
  -4  -2   9  440.16   15.80 
   3   2  -9   27.20    5.70 
  -3  -2   9   20.80    2.30 
  -3  -2   9   19.30    2.40 
   2   2  -9   84.69    8.40 
   1   2  -9   57.69    7.40 
   0  -2   9  594.14   16.20 
   0  -2   9  603.94   16.70 
   0  -2   9  562.84   28.00 
   1  -2   9  413.96   14.70 
   1  -2   9  421.66   21.40 
   1  -2   9  423.36   14.80 
   2  -2   9  126.79    8.00 
   2  -2   9  105.19   10.70 
   2  -2   9  128.49    8.50 
   3  -2   9   58.99    6.90 
   3  -2   9   69.19    6.70 
   3  -2   9   70.99    9.10 
   4  -2   9   11.10    3.60 
   4  -2   9    6.80    3.60 
   4  -2   9    9.10    3.90 
   6   1  -9   -3.10    2.30 
  -6  -1   9   -1.40    2.40 
  -6  -1   9   -2.90    1.30 
   5   1  -9   10.10    3.70 
  -5  -1   9   13.30    3.30 
  -5  -1   9   10.00    2.50 
   4   1  -9   19.60    4.60 
  -4  -1   9   21.90    3.00 
  -4  -1   9   34.00    3.90 
   3   1  -9  166.38   11.60 
  -3  -1   9  169.68    7.10 
  -3  -1   9  172.68    6.60 
   2   1  -9  902.51   38.00 
   1   1  -9  482.25   22.00 
   1   1  -9  542.45   22.00 
   0   1  -9  650.13   25.30 
   0   1  -9  684.23   25.80 
  -1   1  -9   49.40    6.10 
   1  -1   9   50.09    7.60 
   1  -1   9   46.90    3.50 
   1  -1   9   52.49    4.00 
  -2   1  -9  416.36   17.50 
   2  -1   9  407.76   20.20 
   2  -1   9  422.86   16.40 
   2  -1   9  403.96   15.20 
   3  -1   9   72.79   11.50 
   3  -1   9   76.19    6.60 
   3  -1   9   71.49    7.30 
  -4   1  -9   74.79    5.50 
   4  -1   9   63.69    8.20 
   4  -1   9   66.59    7.70 
   4  -1   9   58.19    6.70 
   5  -1   9  260.07   15.70 
   5  -1   9  251.27   17.10 
   5  -1   9  277.07   17.50 
   6   0  -9   40.80    6.40 
  -6   0   9   47.90    5.50 
  -6   0   9   49.10    6.90 
   5   0  -9   13.20    3.90 
  -5   0   9   23.40    4.00 
  -5   0   9   25.10    4.60 
   4   0  -9   61.39    6.50 
  -4   0   9   60.99    5.20 
  -4   0   9   49.40    4.40 
   3   0  -9  615.74   23.90 
  -3   0   9  592.84   17.10 
  -3   0   9  610.04   17.70 
   2   0  -9   47.60    7.70 
   2   0  -9   56.49    6.10 
   1   0  -9   50.79    6.40 
   1   0  -9   42.40    5.60 
   0   0  -9  162.68   10.40 
   0   0  -9  168.18   10.70 
  -1   0  -9  647.34   23.50 
  -1   0  -9  618.64   22.60 
   1   0   9  615.44   17.70 
   1   0   9  659.13   25.00 
   1   0   9  637.44   18.20 
  -2   0  -9  312.77   13.90 
   2   0   9  308.77   12.10 
   2   0   9  329.57   13.70 
   2   0   9  344.07   16.70 
  -3   0  -9   30.80    4.00 
   3   0   9   19.20    4.20 
   3   0   9   26.20    4.30 
   3   0   9   33.30    5.80 
  -4   0  -9  292.27   12.80 
   4   0   9  298.77   16.50 
   4   0   9  280.67   14.40 
   4   0   9  293.07   16.30 
  -5   0  -9   17.00    3.70 
   5   0   9   27.80    6.30 
   5   0   9   20.00    6.70 
   5   0   9   23.10    5.50 
   6  -1  -9   16.10    4.30 
  -6   1   9   22.90    4.40 
  -6   1   9   27.90    5.50 
   5  -1  -9    8.40    3.30 
  -5   1   9   10.80    3.30 
  -5   1   9    8.40    2.40 
   4  -1  -9    1.00    2.30 
  -4   1   9    1.70    1.60 
  -4   1   9    0.90    1.30 
   3  -1  -9  136.19    9.70 
  -3   1   9  141.39    7.00 
  -3   1   9  137.79    7.10 
   2  -1  -9  102.69    8.10 
   2  -1  -9  107.59    9.10 
  -2   1   9  108.49    4.90 
  -2   1   9  114.99    5.50 
   1  -1  -9 1004.40   33.10 
   1  -1  -9  981.10   30.70 
   0  -1  -9  186.18   10.30 
   0  -1  -9  186.78   10.80 
  -1  -1  -9    2.40    2.00 
  -1  -1  -9    3.40    2.00 
   1   1   9    5.60    1.40 
   1   1   9    5.50    1.60 
  -2  -1  -9  123.79    7.30 
   2   1   9  111.89    7.30 
   2   1   9  103.99    8.10 
   2   1   9  105.19    6.20 
  -3  -1  -9  273.87   11.20 
   3   1   9  259.37   12.00 
   3   1   9  243.18   17.60 
   3   1   9  293.47   14.20 
  -4  -1  -9  103.09    5.90 
  -4  -1  -9   94.29    6.10 
   4   1   9   82.49    8.50 
   4   1   9  102.49    7.90 
   4   1   9  100.19    8.40 
  -5  -1  -9   29.40    4.10 
  -5  -1  -9   30.50    4.20 
   5   1   9   28.50    5.40 
   5   1   9   20.70    5.50 
   5   1   9   24.40    5.00 
   6   1   9  231.58   14.40 
   6   1   9  218.98   14.90 
   6   1   9  245.28   18.00 
   6  -2  -9    0.90    2.50 
  -6   2   9    6.90    3.70 
  -6   2   9   -1.10    2.10 
   5  -2  -9   57.09    5.30 
   5  -2  -9   51.59    6.20 
  -5   2   9   49.70    5.60 
  -5   2   9   58.29    6.40 
   4  -2  -9   72.59    6.50 
  -4   2   9   68.49    6.00 
  -4   2   9   62.39    5.80 
   3  -2  -9   89.89   11.70 
   3  -2  -9  104.79    7.90 
  -3   2   9  111.49    6.90 
  -3   2   9  105.49    6.80 
   2  -2  -9   93.29   15.20 
   2  -2  -9  106.49    7.60 
  -2   2   9   99.19    5.90 
  -2   2   9  105.49    5.80 
   1  -2  -9  116.89    8.90 
   1  -2  -9  128.99    8.00 
  -1   2   9  122.29    6.00 
  -1   2   9  123.09    5.80 
   0  -2  -9  255.17   12.40 
   0  -2  -9  252.47   11.20 
   0   2   9  243.88    8.90 
   0   2   9  247.38    9.00 
  -1  -2  -9   14.90    2.90 
  -1  -2  -9   13.90    2.90 
   1   2   9   14.10    2.30 
   1   2   9   15.90    2.80 
  -2  -2  -9  285.87   11.30 
  -2  -2  -9  301.67   12.50 
   2   2   9  320.57   12.10 
   2   2   9  308.27   13.60 
  -3  -2  -9  104.59    4.90 
  -3  -2  -9  101.09    5.50 
   3   2   9  112.99    7.60 
   3   2   9  116.79    8.80 
   3   2   9   91.89    6.70 
  -4  -2  -9   51.79    4.60 
  -4  -2  -9   59.99    4.20 
   4   2   9   59.39    5.80 
   4   2   9   63.99    6.10 
   4   2   9   59.09    7.10 
  -5  -2  -9  248.78   10.30 
  -5  -2  -9  240.18   11.70 
   5   2   9  252.67   12.90 
   5   2   9  234.88   15.90 
   5   2   9  232.08   13.60 
  -6  -2  -9   -2.90    2.00 
   6   2   9    1.70    2.80 
   6   2   9    0.20    2.90 
   6   2   9   -2.70    3.40 
   5  -3  -9   21.90    4.30 
  -5   3   9   15.90    4.20 
  -5   3   9   22.00    7.00 
   4  -3  -9  133.49    9.10 
  -4   3   9  151.08    9.80 
  -4   3   9  147.79    9.80 
   3  -3  -9  123.29    5.90 
   3  -3  -9  117.49    8.10 
  -3   3   9  136.09    8.50 
  -3   3   9  114.99    8.40 
  -3   3   9  119.89   10.60 
   2  -3  -9  521.05   18.20 
   2  -3  -9  499.35   21.50 
  -2   3   9  517.75   18.30 
  -2   3   9  517.25   17.90 
   1  -3  -9  225.58   12.20 
   1  -3  -9  228.68   10.20 
  -1   3   9  221.58    9.90 
  -1   3   9  235.18   10.40 
   0  -3  -9   38.10    4.10 
   0  -3  -9   32.20    3.40 
   0   3   9   32.60    5.80 
   0   3   9   32.30    3.40 
  -1  -3  -9   45.20    3.60 
  -1  -3  -9   56.39    4.30 
   1   3   9   50.89    5.40 
   1   3   9   55.79    4.90 
  -2  -3  -9    3.80    1.20 
  -2  -3  -9    4.80    1.50 
   2   3   9    7.20    2.20 
   2   3   9    5.00    2.40 
  -3  -3  -9  140.59    6.60 
  -3  -3  -9  142.39    6.60 
  -3  -3  -9  137.39    5.50 
   3   3   9  127.49    9.70 
   3   3   9  130.99    8.40 
  -4  -3  -9  680.43   21.20 
  -4  -3  -9  646.14   17.80 
   4   3   9  679.23   20.60 
   4   3   9  659.43   24.00 
   4   3   9  653.03   26.80 
  -5  -3  -9  134.79    8.60 
  -5  -3  -9  143.29    6.60 
   5   3   9  140.29   10.20 
   5   3   9  141.29   12.20 
  -6  -3  -9   61.59    5.10 
  -6  -3  -9   55.49    7.40 
   6   3   9   56.49    8.00 
   6   3   9   59.99    9.80 
   6   3   9   64.09    6.20 
   5  -4  -9   -1.70    3.10 
   5  -4  -9    5.40    2.90 
  -5   4   9   -3.20    1.70 
  -5   4   9    2.10    2.60 
   4  -4  -9   76.49    7.40 
   4  -4  -9   91.69    7.20 
  -4   4   9   87.29    8.00 
  -4   4   9   93.29    8.00 
   3  -4  -9  177.78    9.70 
   3  -4  -9  166.98    9.50 
  -3   4   9  169.58   10.60 
  -3   4   9  164.08   10.70 
   2  -4  -9  541.45   18.30 
  -2   4   9  534.15   20.80 
  -2   4   9  564.14   20.60 
  -2   4   9  541.75   20.60 
   1  -4  -9    7.70    2.10 
   1  -4  -9    6.20    2.70 
   1  -4  -9    9.20    1.80 
  -1   4   9    6.60    2.30 
  -1   4   9   10.70    2.80 
   0  -4  -9   41.90    4.40 
   0  -4  -9   42.50    3.40 
   0  -4  -9   37.30    2.70 
   0   4   9   39.80    4.40 
   0   4   9   40.20    4.60 
  -1  -4  -9   14.90    1.90 
  -1  -4  -9   14.30    1.70 
  -1  -4  -9   16.80    2.20 
   1   4   9   12.40    2.90 
   1   4   9   21.70    3.90 
  -2  -4  -9   54.19    1.90 
  -2  -4  -9   59.59    4.30 
  -2  -4  -9   55.29    1.90 
   2   4   9   51.79    5.90 
   2   4   9   37.70    4.70 
  -3  -4  -9  637.24   20.30 
   3   4   9  654.43   25.50 
   3   4   9  608.24   22.70 
  -4  -4  -9   97.59    7.30 
   4   4   9   98.29    8.20 
   4   4   9  101.89    9.80 
  -5  -4  -9   78.09    6.90 
  -5  -4  -9   70.49    3.30 
  -5  -4  -9   70.29    3.20 
   5   4   9   76.19    7.70 
  -6  -4  -9  118.39    6.60 
  -6  -4  -9  122.09   18.20 
   6   4   9  152.18   14.60 
   6   4   9  129.59    6.70 
   4  -5  -9  288.77   13.90 
   4  -5  -9  277.87   16.10 
  -4   5   9  283.97   17.30 
  -4   5   9  268.47   16.00 
   3  -5  -9   28.20    6.40 
   3  -5  -9   39.90    5.40 
  -3   5   9   43.00    5.60 
  -3   5   9   23.30    4.80 
   2  -5  -9  139.59    9.30 
   2  -5  -9  143.09    7.70 
  -2   5   9  128.69    9.70 
  -2   5   9  126.19    9.40 
  -2   5   9  119.39    9.00 
   1  -5  -9   90.89    6.70 
   1  -5  -9   84.79    5.20 
   1  -5  -9   78.49    6.90 
  -1   5   9   86.49    7.60 
  -1   5   9   82.39    6.30 
  -1   5   9   91.29    7.50 
   0  -5  -9  469.55   13.60 
   0  -5  -9  484.85   16.30 
   0  -5  -9  479.55   17.30 
   0   5   9  464.75   19.10 
   0   5   9  449.16   19.00 
  -1  -5  -9   46.40    2.00 
  -1  -5  -9   40.10    4.60 
  -1  -5  -9   46.50    2.20 
   1   5   9   39.20    5.30 
   1   5   9   46.00    5.30 
  -2  -5  -9   61.79    5.70 
   2   5   9   67.39    6.60 
   2   5   9   55.59    6.60 
  -3  -5  -9  125.69    8.60 
   3   5   9  133.79   10.50 
   3   5   9  127.69    9.50 
  -4  -5  -9   33.30    5.40 
   4   5   9   44.60    5.90 
   4   5   9   44.60    8.00 
  -5  -5  -9  296.07   16.90 
   5   5   9  306.27   16.80 
   5   5   9  325.67   19.90 
   6   5   9  120.49   16.00 
   4  -6  -9   -0.40    2.30 
  -4   6   9    3.80    4.00 
  -4   6   9    6.10    3.10 
   3  -6  -9    8.90    3.00 
   3  -6  -9   12.00    3.30 
  -3   6   9    5.60    2.90 
  -3   6   9   16.90    4.90 
   2  -6  -9   28.60    3.50 
   2  -6  -9   23.20    4.70 
  -2   6   9   25.10    4.80 
  -2   6   9   30.50    6.20 
  -2   6   9   23.20    4.80 
   1  -6  -9  263.97   14.50 
   1  -6  -9  291.57   10.90 
  -1   6   9  291.37   15.50 
  -1   6   9  278.67   12.30 
  -1   6   9  287.27   15.80 
   0  -6  -9  137.09    5.80 
   0  -6  -9  145.29    7.40 
   0  -6  -9  127.69    9.30 
   0   6   9  130.19   10.00 
   0   6   9  135.09   10.30 
  -1  -6  -9   17.50    4.10 
   1   6   9   15.50    4.10 
   1   6   9   11.10    3.30 
  -2  -6  -9  220.18   12.60 
   2   6   9  224.08   13.60 
   2   6   9  237.08   14.40 
  -3  -6  -9    8.30    5.10 
   3   6   9   13.20    3.90 
   3   6   9   12.20    3.70 
  -4  -6  -9  338.07   17.30 
   4   6   9  323.07   19.70 
   4   6   9  371.66   18.60 
  -5  -6  -9   25.60    5.90 
   5   6   9   37.60    6.60 
   6   6   9    6.60    3.40 
   6   6   9    8.00    4.90 
   3  -7  -9  152.88    9.50 
  -3   7   9  132.49   12.00 
  -3   7   9  151.48   13.00 
   2  -7  -9   45.60    9.50 
   2  -7  -9   55.49    5.20 
  -2   7   9   58.59    7.60 
  -2   7   9   64.19    7.90 
  -2   7   9   59.59    6.70 
   1  -7  -9   11.40    2.70 
  -1   7   9   10.00    3.40 
  -1   7   9    8.80    3.40 
  -1   7   9   16.90    3.20 
   0  -7  -9    1.20    1.20 
   0  -7  -9   -1.30    1.30 
   0  -7  -9   -2.40    3.30 
   0   7   9    5.60    3.90 
   0   7   9    2.60    2.40 
  -1  -7  -9  428.36   20.40 
   1   7   9  451.35   21.60 
   1   7   9  419.26   20.80 
  -2  -7  -9   54.99    7.30 
   2   7   9   69.79    7.70 
   2   7   9   69.29    8.20 
  -3  -7  -9   49.80    6.80 
   3   7   9   46.90    6.50 
   3   7   9   42.90    7.50 
  -4  -7  -9   15.20    4.50 
   4   7   9   12.10    4.20 
  -5  -7  -9   27.40    6.10 
   5   7   9   17.50    4.70 
   5   7   9   25.90    7.60 
   6   7   9    0.00    2.30 
   2  -8  -9    3.10    2.10 
  -2   8   9    5.40    3.30 
  -2   8   9    2.30    3.80 
   1  -8  -9   -0.30    1.80 
   1  -8  -9    9.40    3.70 
  -1   8   9    2.60    3.50 
  -1   8   9    0.30    2.30 
   0  -8  -9   57.19    4.20 
   0   8   9   48.40    4.10 
   0   8   9   69.49    8.40 
  -1  -8  -9  137.39   11.60 
   1   8   9  106.89   10.40 
  -2  -8  -9   30.50    6.40 
   2   8   9   31.70    5.90 
  -3  -8  -9   69.29    9.20 
   3   8   9   61.19   10.10 
   3   8   9   82.09    9.20 
  -4  -8  -9   21.70    6.10 
   4   8   9   28.70    6.50 
   4   8   9   27.20    7.50 
   5   8   9   57.39   10.20 
   5   8   9   80.29   13.60 
   1  -9  -9    6.40    3.00 
  -1   9   9   11.90    4.60 
   0  -9  -9    7.10    2.40 
   0   9   9    0.30    5.30 
   0   9   9    8.30    3.50 
   0   9   9    6.60    4.90 
  -1  -9  -9   53.39   11.20 
   1   9   9   70.49    9.50 
   1   9   9   58.29    9.50 
  -2  -9  -9  106.99   12.40 
   2   9   9  128.79   13.00 
   2   9   9  133.49   12.50 
   3   9   9   21.20    5.90 
   3   9   9   16.80    6.00 
   4   9   9    3.90    2.90 
   2   5 -10   33.30    7.20 
  -2  -5  10   31.50    3.70 
  -2  -5  10   32.80    4.30 
   1   5 -10   11.00    5.20 
  -1  -5  10   10.00    2.40 
   4   4 -10   37.90    7.60 
  -4  -4  10   30.70    4.10 
  -4  -4  10   48.20    4.50 
   3   4 -10    3.40    3.10 
  -3  -4  10    3.60    1.70 
  -3  -4  10    2.00    1.30 
   2   4 -10   -2.20    2.40 
  -2  -4  10    2.70    1.60 
  -2  -4  10    3.70    1.20 
   1   4 -10  127.59   12.20 
  -1  -4  10  141.89    7.40 
  -1  -4  10  141.19    6.60 
   0  -4  10  251.37   18.30 
   0  -4  10  271.37   16.90 
   1  -4  10    2.70    2.10 
   1  -4  10    7.30    5.80 
   1  -4  10    3.60    2.20 
   5   3 -10    7.20    3.20 
   4   3 -10   -3.60    2.10 
  -4  -3  10    3.50    1.80 
  -4  -3  10    7.60    1.80 
   3   3 -10   -1.50    2.30 
  -3  -3  10    1.20    1.00 
  -3  -3  10    0.40    0.90 
   2   3 -10  158.88   12.60 
   1   3 -10  136.29   11.90 
   0   3 -10   -0.80    2.30 
   0  -3  10    6.60    2.50 
   0  -3  10    7.90    4.10 
   0  -3  10    4.00    1.70 
   1  -3  10   73.29    5.90 
   1  -3  10   68.49    5.70 
   1  -3  10   66.99   10.40 
   2  -3  10    4.90    1.90 
   2  -3  10    5.30    2.60 
   2  -3  10   -6.80    2.90 
   5   2 -10  228.18   15.30 
  -5  -2  10  229.78   10.70 
  -5  -2  10  243.58   12.20 
   4   2 -10    5.30    3.10 
  -4  -2  10    7.10    1.80 
   3   2 -10   26.20    5.80 
   2   2 -10  130.29   11.10 
   1   2 -10   20.70    5.30 
   0   2 -10  347.67   18.70 
   1  -2  10  582.44   27.60 
   1  -2  10  635.54   19.40 
   1  -2  10  606.34   19.00 
   2  -2  10   95.29    6.80 
   2  -2  10   84.89    7.00 
   2  -2  10   70.39    8.90 
   3  -2  10   91.29   10.10 
   3  -2  10   81.69    7.40 
   3  -2  10   89.19    8.70 
  -5  -1  10    8.20    2.50 
  -5  -1  10   15.90    3.50 
   4   1 -10    3.60    2.90 
  -4  -1  10    4.60    1.50 
  -4  -1  10    3.80    1.60 
   3   1 -10   87.49    8.70 
   2   1 -10    3.20    2.60 
   1   1 -10  190.88   12.70 
   0   1 -10  885.41   32.00 
   1  -1  10    3.30    4.00 
   1  -1  10    3.60    1.30 
   1  -1  10    3.60    1.60 
   2  -1  10  115.59    7.90 
   2  -1  10  120.79   10.60 
   2  -1  10  115.89    7.10 
   3  -1  10  193.18   11.60 
   3  -1  10  166.88   10.20 
   3  -1  10  162.78   13.00 
   4  -1  10  233.28   13.50 
   4  -1  10  229.28   14.90 
   4  -1  10  255.87   16.60 
   5   0 -10   16.70    4.30 
  -5   0  10   15.40    2.60 
  -5   0  10   11.60    3.10 
   4   0 -10  202.08   13.20 
  -4   0  10  201.88    9.00 
  -4   0  10  205.38    9.70 
   3   0 -10  207.58   13.20 
  -3   0  10  211.98    7.80 
  -3   0  10  215.28    7.50 
   2   0 -10   24.20    4.80 
   1   0 -10  371.06   17.60 
   1   0 -10  361.76   20.00 
   0   0 -10    0.70    2.10 
   0   0 -10    4.10    2.90 
  -1   0 -10  277.07   14.60 
  -1   0 -10  286.57   14.40 
   1   0  10  275.77    8.80 
   1   0  10  276.47    9.50 
  -2   0 -10  676.53   23.40 
   2   0  10  661.13   26.40 
   2   0  10  644.34   20.20 
   2   0  10  641.54   21.60 
  -3   0 -10    9.10    3.40 
   3   0  10   16.80    3.90 
   3   0  10   15.70    3.50 
   3   0  10   24.60    5.20 
   4   0  10   35.80    6.60 
   4   0  10   24.40    4.60 
   4   0  10   47.30    7.50 
   5  -1 -10    1.60    2.10 
  -5   1  10   -1.40    1.40 
  -5   1  10   -2.10    2.00 
   4  -1 -10   48.30    6.20 
  -4   1  10   51.59    4.70 
  -4   1  10   45.90    4.60 
   3  -1 -10   31.40    5.40 
  -3   1  10   37.10    3.40 
  -3   1  10   34.10    3.30 
   2  -1 -10  326.07   15.70 
   1  -1 -10    3.40    2.10 
   1  -1 -10    1.60    2.70 
   0  -1 -10   86.59    7.00 
   0  -1 -10   84.69    7.30 
  -1  -1 -10  288.87   13.80 
  -1  -1 -10  274.37   13.10 
   1   1  10  260.27    9.50 
   1   1  10  276.97    9.00 
  -2  -1 -10  201.38   11.20 
  -2  -1 -10  186.98    9.80 
   2   1  10  189.88    8.60 
  -3  -1 -10    3.80    2.50 
   3   1  10   11.80    3.50 
   3   1  10    5.00    3.00 
   3   1  10    3.10    1.80 
  -4  -1 -10  397.36   15.00 
   4   1  10  416.26   20.20 
   4   1  10  418.96   19.20 
   4   1  10  401.26   17.50 
   5   1  10  177.08   11.90 
   5   1  10  194.68   14.90 
   5   1  10  188.78   12.90 
   5  -2 -10   37.20    6.10 
  -5   2  10   36.60    5.00 
  -5   2  10   37.60    6.00 
   4  -2 -10   13.50    3.50 
  -4   2  10   16.50    3.30 
  -4   2  10   13.90    3.20 
   3  -2 -10  126.59    8.90 
  -3   2  10  123.59    7.20 
  -3   2  10  133.29    7.60 
   2  -2 -10  199.98   13.20 
   2  -2 -10  214.68   11.50 
  -2   2  10  202.98    8.70 
  -2   2  10  192.18    8.00 
   1  -2 -10    2.30    2.10 
   1  -2 -10    2.40    2.70 
  -1   2  10    2.60    1.00 
  -1   2  10    1.60    1.10 
   0  -2 -10   88.89    6.60 
   0  -2 -10   84.19    7.10 
   0   2  10   78.09    4.10 
   0   2  10   85.89    4.20 
  -1  -2 -10    4.10    2.10 
  -1  -2 -10    4.10    2.10 
   1   2  10    9.40    1.90 
   1   2  10    9.40    1.90 
  -2  -2 -10  174.48    8.40 
  -2  -2 -10  176.28    9.50 
   2   2  10  168.48    8.30 
   2   2  10  172.88    9.80 
  -3  -2 -10  372.96   13.10 
  -3  -2 -10  393.96   15.40 
   3   2  10  375.66   15.20 
  -4  -2 -10  126.89    6.70 
   4   2  10  119.59   16.10 
   4   2  10  118.59    8.80 
   4   2  10  133.29    9.10 
  -5  -2 -10   11.20    2.90 
  -5  -2 -10   13.20    2.90 
   5   2  10    8.00    4.00 
   5   2  10   13.50    3.70 
   5   2  10    8.80    3.60 
   5  -3 -10    0.30    2.50 
  -5   3  10    8.00    3.30 
  -5   3  10    2.00    1.60 
   4  -3 -10   36.60    5.50 
  -4   3  10   33.40    5.20 
  -4   3  10   37.00    5.00 
   3  -3 -10  217.48   11.50 
  -3   3  10  224.48   11.10 
  -3   3  10  209.58   11.20 
   2  -3 -10  238.58   11.70 
   2  -3 -10  250.37   14.70 
  -2   3  10  231.68   11.00 
  -2   3  10  237.28   10.70 
   1  -3 -10  292.37   14.80 
   1  -3 -10  291.37   12.50 
  -1   3  10  282.17   11.20 
  -1   3  10  290.97   11.80 
   0  -3 -10   11.50    3.10 
   0  -3 -10   13.10    2.60 
   0   3  10   12.20    2.40 
   0   3  10   11.00    2.40 
  -1  -3 -10  186.28    9.20 
  -1  -3 -10  166.98    8.40 
   1   3  10  169.98    8.30 
   1   3  10  164.28    8.80 
  -2  -3 -10   87.29    5.90 
  -2  -3 -10   89.69    5.40 
   2   3  10   86.99    6.10 
   2   3  10   88.79    7.20 
  -3  -3 -10  110.19    6.00 
  -3  -3 -10  105.79    4.90 
   3   3  10   94.29    7.10 
   3   3  10  101.79    8.80 
  -4  -3 -10  195.38    8.70 
  -4  -3 -10  211.98    9.20 
   4   3  10  209.28   11.90 
  -5  -3 -10  166.48    7.30 
   5   3  10  152.28   13.10 
   5   3  10  166.18   10.90 
   5   3  10  174.48   11.70 
   4  -4 -10   27.40    4.80 
  -4   4  10   47.30    5.60 
   3  -4 -10   65.29    6.20 
  -3   4  10   70.49    6.80 
  -3   4  10   71.99    7.10 
   2  -4 -10  212.38   10.50 
   2  -4 -10  210.18   13.40 
  -2   4  10  224.18   11.60 
  -2   4  10  225.18   12.00 
   1  -4 -10  224.78    9.90 
   1  -4 -10  224.38   12.30 
  -1   4  10  228.88   11.20 
  -1   4  10  231.58   11.60 
   0  -4 -10   51.39    5.00 
   0  -4 -10   57.29    4.10 
   0   4  10   48.90    5.00 
   0   4  10   52.39    5.10 
  -1  -4 -10  107.89    5.60 
  -1  -4 -10  101.99    4.80 
   1   4  10  103.29    7.30 
   1   4  10   97.09    7.40 
  -2  -4 -10   39.70    2.20 
  -2  -4 -10   44.30    2.20 
   2   4  10   56.29    6.10 
   2   4  10   46.30    4.90 
  -3  -4 -10  338.07   11.40 
   3   4  10  343.97   17.60 
   3   4  10  342.07   15.50 
  -4  -4 -10  238.78   11.20 
   4   4  10  260.67   16.10 
   4   4  10  235.38   13.20 
  -5  -4 -10    9.90    3.20 
   5   4  10   12.10    4.30 
   5   4  10   13.00    3.50 
   4  -5 -10   -1.70    2.00 
  -4   5  10    4.80    2.80 
  -4   5  10   -1.20    2.50 
   3  -5 -10  113.59    8.10 
   3  -5 -10  117.39    8.00 
  -3   5  10  117.09    9.30 
  -3   5  10  123.19   12.00 
   2  -5 -10  145.69    8.20 
   2  -5 -10  141.29   10.70 
   2  -5 -10  144.99    8.00 
  -2   5  10  133.89    9.90 
  -2   5  10  154.78   10.60 
  -2   5  10  136.79    9.40 
   1  -5 -10   64.79    4.80 
   1  -5 -10   65.39    4.80 
   1  -5 -10   65.89    6.50 
  -1   5  10   72.69    6.80 
  -1   5  10   62.99    8.50 
   0  -5 -10  130.29    5.90 
   0  -5 -10  144.89    6.50 
   0   5  10  147.09    9.70 
   0   5  10  143.59   12.80 
  -1  -5 -10  123.99    6.20 
  -1  -5 -10  111.09    3.80 
  -1  -5 -10  122.19    4.40 
   1   5  10  126.19    8.80 
   1   5  10  132.89    9.50 
   2   5  10  308.87   16.00 
   2   5  10  290.87   14.70 
  -3  -5 -10  642.64   21.10 
   3   5  10  633.04   24.30 
   3   5  10  659.83   26.80 
  -4  -5 -10   17.20    3.40 
   4   5  10   11.60    4.40 
   4   5  10   11.50    3.60 
  -5  -5 -10  339.47   15.60 
   5   5  10  316.27   17.30 
   5   5  10  312.27   20.30 
   3  -6 -10   -2.40    2.00 
  -3   6  10    0.30    3.40 
  -3   6  10   -0.30    1.80 
   2  -6 -10    8.10    3.10 
   2  -6 -10   18.20    3.10 
  -2   6  10   18.70    4.20 
  -2   6  10   14.30    4.00 
  -2   6  10   15.50    4.40 
   1  -6 -10  148.09    9.70 
   1  -6 -10  161.58    7.60 
   1  -6 -10  159.68    9.80 
  -1   6  10  156.38   11.30 
  -1   6  10  149.99   11.00 
   0  -6 -10  481.35   15.60 
   0  -6 -10  471.75   18.20 
   0  -6 -10  457.55   13.40 
   0   6  10  441.16   20.50 
   0   6  10  455.65   20.20 
  -1  -6 -10    4.10    2.40 
   1   6  10    3.10    2.30 
   1   6  10    1.20    2.20 
  -2  -6 -10  188.58   10.70 
   2   6  10  185.68   12.20 
   2   6  10  176.08   12.40 
  -3  -6 -10   10.70    3.40 
   3   6  10    8.20    3.10 
   3   6  10   13.20    3.80 
  -4  -6 -10  154.48   10.90 
   4   6  10  142.19   13.10 
   4   6  10  168.58   12.00 
   5   6  10   85.89    8.80 
   5   6  10   85.49   11.20 
   2  -7 -10   60.19    5.40 
  -2   7  10   65.29    8.30 
  -2   7  10   53.69    6.90 
  -2   7  10   53.69    7.50 
   1  -7 -10    7.50    2.20 
  -1   7  10   13.80    5.00 
  -1   7  10    2.70    2.50 
  -1   7  10   20.90    5.10 
   0  -7 -10   -2.00    2.70 
   0  -7 -10   -1.20    1.60 
   0  -7 -10   -1.90    1.10 
   0   7  10   -4.40    1.70 
   0   7  10    1.90    2.40 
  -1  -7 -10  171.68   11.90 
   1   7  10  181.68   13.00 
   1   7  10  172.68   12.50 
  -2  -7 -10  189.28   12.30 
   2   7  10  172.28   12.70 
   2   7  10  174.08   13.20 
  -3  -7 -10   92.99    8.80 
   3   7  10   90.29   10.50 
   3   7  10   93.99    9.50 
  -4  -7 -10  439.06   21.40 
   4   7  10  483.15   26.50 
   4   7  10  478.15   25.30 
   5   7  10   45.60    7.50 
   1  -8 -10    4.10    2.30 
  -1   8  10    4.90    3.90 
  -1   8  10    0.80    2.90 
   0  -8 -10  114.49    5.30 
   0   8  10  119.79   11.00 
   0   8  10  112.19   11.10 
  -1  -8 -10  159.78   12.10 
   1   8  10  118.19   15.70 
   1   8  10  154.38   12.90 
  -2  -8 -10    4.60    3.20 
   2   8  10    3.20    4.10 
   2   8  10    1.80    3.20 
   3   8  10   34.60    6.00 
   3   8  10   27.60    6.90 
   4   8  10   31.50    6.60 
   1   9  10   16.60    4.20 
   2   9  10  173.28   14.00 
   3   3 -11   -3.30    3.00 
   2   3 -11   23.50    9.20 
   1   3 -11  199.78   15.20 
   0   3 -11   37.20    7.00 
   4   2 -11   18.90    5.10 
   3   2 -11    4.70    4.10 
   2   2 -11  260.17   16.30 
   1   2 -11   -2.10    1.70 
   0   2 -11  408.06   21.50 
  -1   2 -11  242.28   15.70 
   1  -2  11  219.08    8.90 
   1  -2  11  243.88   16.90 
   1  -2  11  225.88    8.70 
   2  -2  11   -1.50    3.60 
   2  -2  11    0.60    2.20 
   2  -2  11    0.60    1.40 
  -4  -1  11   12.30    1.80 
  -4  -1  11   12.60    2.00 
   3   1 -11  204.58   13.90 
   2   1 -11   40.20    7.50 
   1   1 -11   76.59    8.70 
   0   1 -11  644.74   26.90 
  -1   1 -11  127.99   10.70 
   2  -1  11  216.58   15.70 
   2  -1  11  234.08   10.30 
   2  -1  11  235.68   16.50 
   3  -1  11  196.28   10.80 
   3  -1  11  194.38   12.30 
   3  -1  11  183.08   14.40 
   4   0 -11  109.09   10.50 
  -4   0  11  141.59    7.20 
  -4   0  11  155.98    9.90 
   3   0 -11  229.68   14.40 
   2   0 -11    2.70    2.30 
   1   0 -11  521.05   22.40 
   0   0 -11   20.20    4.80 
  -1   0 -11  406.56   23.40 
  -2   0 -11  596.84   24.10 
   2   0  11  561.94   19.30 
   2   0  11  537.25   30.20 
   2   0  11  566.34   17.90 
   3   0  11   79.59    6.60 
   3   0  11   88.89    7.80 
   3   0  11   91.89    9.20 
   4  -1 -11   39.10    6.60 
  -4   1  11   58.69    8.90 
  -4   1  11   54.29    4.60 
   3  -1 -11    1.10    2.10 
  -3   1  11    1.50    1.10 
  -3   1  11   -0.40    0.90 
   2  -1 -11  300.97   15.60 
   1  -1 -11   90.09    8.30 
   0  -1 -11    9.30    3.00 
   0  -1 -11   18.00    4.60 
  -1  -1 -11  556.54   21.50 
  -1  -1 -11  583.84   22.30 
  -2  -1 -11  256.47   13.70 
  -2  -1 -11  259.57   12.20 
   2   1  11  250.37   10.10 
   2   1  11  257.17   11.50 
  -3  -1 -11    5.20    2.70 
   3   1  11    1.70    1.70 
   3   1  11    2.00    1.90 
   3   1  11   -0.20    2.70 
   4   1  11  285.57   16.40 
   4   1  11  283.67   15.60 
   4   1  11  281.17   14.30 
   4  -2 -11    8.00    3.10 
  -4   2  11    8.70    2.90 
  -4   2  11    9.50    2.40 
   3  -2 -11  254.87   14.00 
  -3   2  11  288.57   11.50 
  -3   2  11  271.87   10.90 
   2  -2 -11  232.68   12.70 
  -2   2  11  234.38    8.70 
   1  -2 -11    3.20    3.00 
   1  -2 -11   -2.40    1.70 
   0  -2 -11  199.98   11.90 
   0  -2 -11  217.68   11.30 
  -1  -2 -11    5.20    2.10 
  -1  -2 -11   -2.10    2.00 
   1   2  11    1.00    1.00 
   1   2  11    2.70    1.00 
  -2  -2 -11   29.00    4.00 
  -2  -2 -11   24.30    4.10 
   2   2  11   23.00    4.10 
   2   2  11   27.10    3.20 
  -3  -2 -11 1024.70   30.60 
  -3  -2 -11  964.90   27.30 
   3   2  11 1001.70   32.80 
   3   2  11  950.70   29.40 
   4   2  11  321.67   15.30 
   4   2  11  301.67   15.00 
   4   2  11  329.97   17.70 
   4  -3 -11  109.29    8.80 
  -4   3  11  109.89    8.30 
  -4   3  11  110.89    8.60 
   3  -3 -11   70.99    6.60 
  -3   3  11   82.99    6.80 
  -3   3  11   71.09    5.70 
   2  -3 -11   43.30    4.90 
  -2   3  11   40.80    4.10 
  -2   3  11   33.30    3.80 
   1  -3 -11  254.27   17.60 
   1  -3 -11  226.78   11.20 
  -1   3  11  233.88    9.80 
  -1   3  11  237.28    9.60 
   0  -3 -11   60.99    6.00 
   0  -3 -11   61.79    5.30 
   0   3  11   58.59    4.30 
   0   3  11   68.39    4.60 
  -1  -3 -11   -0.30    1.70 
  -1  -3 -11    2.60    1.50 
   1   3  11   -0.50    1.00 
   1   3  11    4.40    1.80 
  -2  -3 -11  390.86   13.90 
  -2  -3 -11  367.16   12.60 
   2   3  11  383.96   14.50 
   2   3  11  382.06   16.10 
  -3  -3 -11   59.19    4.00 
  -3  -3 -11   71.09    5.60 
   3   3  11   59.09    5.70 
   3   3  11   66.99    6.70 
   4   3  11    8.70    2.90 
   4   3  11    5.70    3.20 
   3  -4 -11   10.10    3.00 
  -3   4  11   20.50    3.90 
  -3   4  11   10.00    3.30 
   2  -4 -11  557.34   24.10 
   2  -4 -11  572.14   20.00 
  -2   4  11  561.94   20.30 
  -2   4  11  597.74   21.60 
   1  -4 -11  282.27   14.60 
   1  -4 -11  272.07   11.60 
  -1   4  11  287.77   12.90 
  -1   4  11  281.67   12.30 
   0  -4 -11   41.80    5.00 
   0  -4 -11   40.20    3.80 
   0   4  11   41.60    4.50 
   0   4  11   51.39    4.80 
  -1  -4 -11  239.08    8.80 
  -1  -4 -11  246.68   12.10 
   1   4  11  256.17   12.20 
   1   4  11  238.78   11.30 
  -2  -4 -11   61.89    3.00 
  -2  -4 -11   63.99    3.10 
   2   4  11   85.29    7.00 
   2   4  11   63.99    5.80 
   3   4  11   25.60    5.40 
   3   4  11   21.50    4.20 
   4   4  11  827.22   32.50 
   4   4  11  811.82   28.60 
   3  -5 -11  179.18   10.20 
  -3   5  11  178.98   11.90 
  -3   5  11  170.98   12.00 
   2  -5 -11  129.89   10.40 
   2  -5 -11  135.19    8.00 
  -2   5  11  134.69   10.00 
  -2   5  11  134.09    9.80 
   1  -5 -11    8.60    3.40 
   1  -5 -11    5.50    2.00 
  -1   5  11    7.50    2.70 
  -1   5  11    9.00    3.00 
   0  -5 -11  128.19    7.60 
   0  -5 -11  139.09    8.90 
   0   5  11  132.69    9.00 
   0   5  11  133.29    9.30 
  -1  -5 -11  209.28    6.50 
  -1  -5 -11  189.78    5.90 
   1   5  11  232.98   12.40 
   1   5  11  212.58   12.20 
   2   5  11   47.90    7.10 
   2   5  11   39.60    5.20 
   3   5  11  524.35   28.30 
   3   5  11  504.55   23.00 
   4   5  11    8.40    3.30 
   4   5  11    8.60    4.30 
  -2   6  11    0.50    3.40 
  -2   6  11    1.40    1.80 
   1  -6 -11  427.26   17.90 
   1  -6 -11  410.46   14.20 
  -1   6  11  439.46   19.70 
  -1   6  11  431.26   20.20 
   0  -6 -11  734.23   20.20 
   0  -6 -11  783.92   22.50 
   0   6  11  852.51   37.60 
   0   6  11  785.92   28.30 
   1   6  11   13.30    3.10 
   1   6  11    9.90    3.70 
   2   6  11  253.57   20.00 
  -3  -6 -11  223.08   13.60 
   3   6  11  231.98   15.40 
   3   6  11  218.38   13.50 
   4   6  11    9.60    4.60 
   4   6  11   17.80    4.20 
   1  -7 -11   94.29    6.00 
  -1   7  11   80.49    8.80 
  -1   7  11   60.79    8.20 
   0  -7 -11   12.50    1.70 
   0   7  11   13.00    4.20 
   0   7  11    9.00    3.80 
  -1  -7 -11  174.28   10.90 
   1   7  11  184.78   13.30 
   1   7  11  178.98   13.00 
  -2  -7 -11  267.17   13.70 
   2   7  11  262.67   16.60 
   2   7  11  265.97   16.00 
   3   7  11  108.49   11.30 
   3   7  11  107.79    9.80 
   2   1 -12  142.89   12.20 
   1   1 -12    6.50    3.40 
   0   1 -12  316.17   18.20 
  -1   1 -12  127.29   11.00 
   3   0 -12  213.08   14.40 
   2   0 -12   21.60    5.10 
   1   0 -12   42.60    6.90 
   0   0 -12   93.99    8.80 
  -1   0 -12   16.60    4.30 
  -2   0 -12   49.90    7.40 
   2   0  12   47.70    3.50 
   2   0  12   46.60    4.10 
   3  -1 -12   92.69    8.90 
   2  -1 -12   51.19    6.10 
   1  -1 -12  296.57   15.50 
   0  -1 -12    4.90    2.50 
  -1  -1 -12  177.58   18.60 
  -2  -1 -12  325.67   16.60 
   2   1  12  337.67   12.30 
   2   1  12  301.27   14.60 
   3  -2 -12    7.00    3.10 
  -3   2  12    5.90    1.50 
   2  -2 -12  172.28   11.00 
   1  -2 -12    6.10    2.70 
   0  -2 -12    0.90    2.50 
   0  -2 -12    2.60    3.40 
  -1  -2 -12   22.80    4.00 
  -1  -2 -12   19.10    4.30 
  -2  -2 -12   12.00    3.30 
  -2  -2 -12   18.30    3.80 
   2   2  12   14.00    2.90 
   2   2  12   15.70    2.90 
  -3  -2 -12   50.89    5.70 
   3   2  12   53.09    5.10 
   3   2  12   55.19    6.30 
   2  -3 -12   69.99    6.40 
  -2   3  12   75.39    4.80 
   1  -3 -12    6.20    2.80 
   1  -3 -12   13.30    4.40 
  -1   3  12   14.80    2.30 
  -1   3  12   13.40    2.10 
   0  -3 -12  121.59    8.00 
   0  -3 -12  134.49    9.30 
   0   3  12  123.69    5.50 
   0   3  12  130.19    5.70 
  -1  -3 -12    1.00    2.50 
  -1  -3 -12    3.20    1.80 
   1   3  12    3.70    1.60 
   1   3  12    6.40    1.50 
  -2  -3 -12   20.50    4.70 
  -2  -3 -12   31.60    3.90 
   2   3  12   30.30    5.70 
   2   3  12   39.30    4.70 
  -3  -3 -12  221.38    9.60 
   3   3  12  218.38   11.00 
   3   3  12  200.78   12.70 
   2  -4 -12   -1.60    2.40 
  -2   4  12    2.60    1.80 
  -2   4  12   -2.90    1.70 
   1  -4 -12   37.20    5.90 
   1  -4 -12   27.50    3.60 
  -1   4  12   29.60    4.70 
  -1   4  12   33.70    4.30 
   0  -4 -12   -0.80    1.50 
   0  -4 -12    4.90    2.70 
   0   4  12    1.30    1.80 
   0   4  12    2.00    1.40 
  -1  -4 -12   18.20    2.90 
   1   4  12   21.10    5.10 
   1   4  12   24.20    4.00 
  -2  -4 -12   42.80    2.70 
   2   4  12   58.59    6.20 
   2   4  12   56.29    5.20 
   3   4  12   55.49    5.40 
   3   4  12   47.80    6.60 
   1  -5 -12  115.89    6.70 
  -1   5  12  108.59    8.30 
  -1   5  12  108.99    8.30 
   0  -5 -12    1.10    1.50 
   0   5  12   -1.30    1.80 
   0   5  12    0.10    2.20 
  -1  -5 -12   69.59    2.90 
   1   5  12   85.09    7.00 
   1   5  12   98.49    7.70 
   2   5  12    4.50    2.00 
   2   5  12   -1.40    2.40 
   3   5  12   56.49    6.10 
   3   5  12   59.29    8.70 
   0   6  12   78.09    7.90 
   0   6  12   73.89    7.30 
   1   6  12   11.50    3.90 
   1   6  12    8.50    3.30 
   2   6  12  163.48   11.20 
   2   6  12  156.68   11.80 
   0   0   0    0.00    0.00 
  
_computing_structure_solution     'SHELXT 2014/5 (Sheldrick, 2014)' 
;
_shelx_hkl_checksum              76375
loop_
_space_group_symop_operation_xyz
'x, y, z'
'-x, -y, -z'
loop_
_atom_site_label
_atom_site_type_symbol
_atom_site_fract_x
_atom_site_fract_y
_atom_site_fract_z
_atom_site_U_iso_or_equiv
_atom_site_adp_type
_atom_site_occupancy
_atom_site_site_symmetry_order
_atom_site_calc_flag
_atom_site_refinement_flags_posn
_atom_site_refinement_flags_adp
_atom_site_refinement_flags_occupancy
_atom_site_disorder_assembly
_atom_site_disorder_group
S1 S 0.31714(6) 0.84583(5) 0.03277(4) 0.03350(15) Uani 1 1 d . . . . .
F1 F 1.0375(2) 0.4229(2) 0.17677(18) 0.0892(6) Uani 1 1 d . . . . .
F2 F 0.9961(2) 0.37998(15) 0.39416(16) 0.0711(4) Uani 1 1 d . . . . .
F3 F 1.18217(17) 0.52265(17) 0.30614(15) 0.0657(4) Uani 1 1 d . . . . .
O1 O 0.17485(19) 0.76410(16) 0.01608(14) 0.0464(3) Uani 1 1 d . . . . .
O2 O 0.2923(2) 1.00389(15) -0.05222(13) 0.0449(3) Uani 1 1 d . . . . .
N1 N 0.5306(2) 0.73412(19) 0.00566(15) 0.0377(4) Uani 1 1 d . . . . .
C1 C 0.3362(2) 0.85144(19) 0.20893(16) 0.0309(3) Uani 1 1 d . . . . .
C2 C 0.1991(3) 0.9712(2) 0.25531(19) 0.0391(4) Uani 1 1 d . . . . .
H2 H 0.1028 1.0466 0.1938 0.047 Uiso 1 1 calc R U . . .
C3 C 0.2065(3) 0.9776(2) 0.39299(19) 0.0418(4) Uani 1 1 d . . . . .
H3 H 0.1166 1.0595 0.4233 0.050 Uiso 1 1 calc R U . . .
C4 C 0.3467(3) 0.8632(2) 0.48742(18) 0.0375(4) Uani 1 1 d . . . . .
C5 C 0.4825(2) 0.7459(2) 0.43757(17) 0.0351(4) Uani 1 1 d . . . . .
H5 H 0.5772 0.6696 0.4997 0.042 Uiso 1 1 calc R U . . .
C6 C 0.4835(2) 0.73726(19) 0.29882(17) 0.0302(3) Uani 1 1 d . . . . .
C7 C 0.6426(2) 0.60664(19) 0.25394(17) 0.0320(4) Uani 1 1 d . . . . .
H7 H 0.6501 0.5058 0.3214 0.038 Uiso 1 1 calc R U . . .
C8 C 0.5939(3) 0.5819(2) 0.11206(19) 0.0381(4) Uani 1 1 d . . . . .
H8A H 0.7086 0.5118 0.0817 0.046 Uiso 1 1 calc R U . . .
H8B H 0.4906 0.5288 0.1207 0.046 Uiso 1 1 calc R U . . .
C9 C 0.8436(2) 0.6401(2) 0.26313(18) 0.0357(4) Uani 1 1 d . . . . .
H9A H 0.8583 0.7150 0.1787 0.043 Uiso 1 1 calc R U . . .
H9B H 0.8464 0.6911 0.3399 0.043 Uiso 1 1 calc R U . . .
C10 C 1.0129(3) 0.4929(2) 0.2829(2) 0.0457(5) Uani 1 1 d . . . . .
C11 C 0.3510(3) 0.8667(3) 0.6386(2) 0.0506(5) Uani 1 1 d . . . . .
H11A H 0.3181 0.9762 0.6476 0.076 Uiso 1 1 calc R U . . .
H11B H 0.4798 0.8107 0.6799 0.076 Uiso 1 1 calc R U . . .
H11C H 0.2578 0.8155 0.6849 0.076 Uiso 1 1 calc R U . . .
H1 H 0.609(3) 0.788(3) -0.003(2) 0.042(6) Uiso 1 1 d . . . . .
loop_
_atom_site_aniso_label
_atom_site_aniso_U_11
_atom_site_aniso_U_22
_atom_site_aniso_U_33
_atom_site_aniso_U_23
_atom_site_aniso_U_13
_atom_site_aniso_U_12
S1 0.0330(2) 0.0351(2) 0.0282(2) -0.00542(16) -0.00645(16) -0.00368(17)
F1 0.0603(9) 0.1044(12) 0.0950(12) -0.0630(10) -0.0097(8) 0.0230(8)
F2 0.0564(8) 0.0445(7) 0.0885(10) 0.0192(7) -0.0123(7) -0.0016(6)
F3 0.0327(6) 0.0701(9) 0.0812(10) 0.0008(7) -0.0122(6) -0.0063(6)
O1 0.0388(7) 0.0519(8) 0.0494(8) -0.0139(6) -0.0101(6) -0.0118(6)
O2 0.0509(8) 0.0399(7) 0.0338(7) 0.0027(5) -0.0082(5) -0.0045(6)
N1 0.0357(8) 0.0432(8) 0.0319(8) -0.0108(6) -0.0022(6) -0.0053(7)
C1 0.0304(8) 0.0314(8) 0.0281(8) -0.0045(6) -0.0021(6) -0.0058(6)
C2 0.0341(9) 0.0372(9) 0.0380(9) -0.0047(7) -0.0009(7) 0.0005(7)
C3 0.0400(10) 0.0400(10) 0.0423(10) -0.0132(8) 0.0087(8) -0.0032(8)
C4 0.0416(9) 0.0414(9) 0.0330(9) -0.0108(7) 0.0047(7) -0.0157(8)
C5 0.0358(9) 0.0355(9) 0.0306(8) -0.0038(7) -0.0044(7) -0.0070(7)
C6 0.0297(8) 0.0283(8) 0.0311(8) -0.0051(6) -0.0022(6) -0.0069(6)
C7 0.0329(8) 0.0258(8) 0.0335(8) -0.0050(6) -0.0045(6) -0.0031(6)
C8 0.0377(9) 0.0338(9) 0.0410(9) -0.0147(7) -0.0046(7) -0.0015(7)
C9 0.0333(9) 0.0311(8) 0.0378(9) -0.0039(7) -0.0064(7) -0.0037(7)
C10 0.0362(10) 0.0438(10) 0.0494(11) -0.0071(8) -0.0053(8) -0.0011(8)
C11 0.0584(12) 0.0608(13) 0.0365(10) -0.0176(9) 0.0065(9) -0.0180(10)
loop_
_atom_type_symbol
_atom_type_description
_atom_type_scat_dispersion_real
_atom_type_scat_dispersion_imag
_atom_type_scat_source
C C 0.0033 0.0016 'International Tables Vol C Tables 4.2.6.8 and 6.1.1.4'
H H 0.0000 0.0000 'International Tables Vol C Tables 4.2.6.8 and 6.1.1.4'
F F 0.0171 0.0103 'International Tables Vol C Tables 4.2.6.8 and 6.1.1.4'
N N 0.0061 0.0033 'International Tables Vol C Tables 4.2.6.8 and 6.1.1.4'
O O 0.0106 0.0060 'International Tables Vol C Tables 4.2.6.8 and 6.1.1.4'
S S 0.1246 0.1234 'International Tables Vol C Tables 4.2.6.8 and 6.1.1.4'
loop_
_geom_angle_atom_site_label_1
_geom_angle_atom_site_label_2
_geom_angle_atom_site_label_3
_geom_angle
_geom_angle_site_symmetry_1
_geom_angle_site_symmetry_3
_geom_angle_publ_flag
O1 S1 O2 118.04(8) . . ?
O1 S1 N1 108.03(9) . . ?
O2 S1 N1 107.90(8) . . ?
O1 S1 C1 108.68(8) . . ?
O2 S1 C1 109.47(8) . . ?
N1 S1 C1 103.78(7) . . ?
C8 N1 S1 112.59(12) . . ?
C8 N1 H1 113.8(15) . . ?
S1 N1 H1 108.6(15) . . ?
C2 C1 C6 121.40(15) . . ?
C2 C1 S1 117.86(13) . . ?
C6 C1 S1 120.73(13) . . ?
C3 C2 C1 119.65(16) . . ?
C3 C2 H2 120.2 . . ?
C1 C2 H2 120.2 . . ?
C2 C3 C4 120.99(16) . . ?
C2 C3 H3 119.5 . . ?
C4 C3 H3 119.5 . . ?
C5 C4 C3 117.92(16) . . ?
C5 C4 C11 120.96(17) . . ?
C3 C4 C11 121.12(17) . . ?
C4 C5 C6 122.99(16) . . ?
C4 C5 H5 118.5 . . ?
C6 C5 H5 118.5 . . ?
C5 C6 C1 117.00(15) . . ?
C5 C6 C7 118.86(14) . . ?
C1 C6 C7 124.14(14) . . ?
C6 C7 C8 112.63(13) . . ?
C6 C7 C9 110.14(13) . . ?
C8 C7 C9 113.06(14) . . ?
C6 C7 H7 106.9 . . ?
C8 C7 H7 106.9 . . ?
C9 C7 H7 106.9 . . ?
N1 C8 C7 112.91(13) . . ?
N1 C8 H8A 109.0 . . ?
C7 C8 H8A 109.0 . . ?
N1 C8 H8B 109.0 . . ?
C7 C8 H8B 109.0 . . ?
H8A C8 H8B 107.8 . . ?
C10 C9 C7 113.70(14) . . ?
C10 C9 H9A 108.8 . . ?
C7 C9 H9A 108.8 . . ?
C10 C9 H9B 108.8 . . ?
C7 C9 H9B 108.8 . . ?
H9A C9 H9B 107.7 . . ?
F1 C10 F3 106.34(17) . . ?
F1 C10 F2 106.23(18) . . ?
F3 C10 F2 105.10(15) . . ?
F1 C10 C9 114.33(16) . . ?
F3 C10 C9 112.27(16) . . ?
F2 C10 C9 111.91(16) . . ?
C4 C11 H11A 109.5 . . ?
C4 C11 H11B 109.5 . . ?
H11A C11 H11B 109.5 . . ?
C4 C11 H11C 109.5 . . ?
H11A C11 H11C 109.5 . . ?
H11B C11 H11C 109.5 . . ?
loop_
_geom_bond_atom_site_label_1
_geom_bond_atom_site_label_2
_geom_bond_distance
_geom_bond_site_symmetry_2
_geom_bond_publ_flag
S1 O1 1.4278(13) . ?
S1 O2 1.4329(13) . ?
S1 N1 1.6256(15) . ?
S1 C1 1.7633(16) . ?
F1 C10 1.322(2) . ?
F2 C10 1.343(2) . ?
F3 C10 1.334(2) . ?
N1 C8 1.478(2) . ?
N1 H1 0.82(2) . ?
C1 C2 1.389(2) . ?
C1 C6 1.399(2) . ?
C2 C3 1.379(3) . ?
C2 H2 0.9300 . ?
C3 C4 1.395(3) . ?
C3 H3 0.9300 . ?
C4 C5 1.388(2) . ?
C4 C11 1.505(2) . ?
C5 C6 1.392(2) . ?
C5 H5 0.9300 . ?
C6 C7 1.523(2) . ?
C7 C8 1.527(2) . ?
C7 C9 1.545(2) . ?
C7 H7 0.9800 . ?
C8 H8A 0.9700 . ?
C8 H8B 0.9700 . ?
C9 C10 1.491(2) . ?
C9 H9A 0.9700 . ?
C9 H9B 0.9700 . ?
C11 H11A 0.9600 . ?
C11 H11B 0.9600 . ?
C11 H11C 0.9600 . ?
loop_
_geom_torsion_atom_site_label_1
_geom_torsion_atom_site_label_2
_geom_torsion_atom_site_label_3
_geom_torsion_atom_site_label_4
_geom_torsion
_geom_torsion_site_symmetry_1
_geom_torsion_site_symmetry_2
_geom_torsion_site_symmetry_3
_geom_torsion_site_symmetry_4
_geom_torsion_publ_flag
O1 S1 N1 C8 -65.96(13) . . . . ?
O2 S1 N1 C8 165.39(11) . . . . ?
C1 S1 N1 C8 49.30(14) . . . . ?
O1 S1 C1 C2 -82.47(15) . . . . ?
O2 S1 C1 C2 47.75(16) . . . . ?
N1 S1 C1 C2 162.73(14) . . . . ?
O1 S1 C1 C6 96.71(15) . . . . ?
O2 S1 C1 C6 -133.07(14) . . . . ?
N1 S1 C1 C6 -18.08(16) . . . . ?
C6 C1 C2 C3 -0.5(3) . . . . ?
S1 C1 C2 C3 178.66(14) . . . . ?
C1 C2 C3 C4 -1.6(3) . . . . ?
C2 C3 C4 C5 2.1(3) . . . . ?
C2 C3 C4 C11 -177.93(18) . . . . ?
C3 C4 C5 C6 -0.5(3) . . . . ?
C11 C4 C5 C6 179.55(16) . . . . ?
C4 C5 C6 C1 -1.6(3) . . . . ?
C4 C5 C6 C7 178.22(15) . . . . ?
C2 C1 C6 C5 2.0(2) . . . . ?
S1 C1 C6 C5 -177.11(12) . . . . ?
C2 C1 C6 C7 -177.72(16) . . . . ?
S1 C1 C6 C7 3.1(2) . . . . ?
C5 C6 C7 C8 164.02(15) . . . . ?
C1 C6 C7 C8 -16.2(2) . . . . ?
C5 C6 C7 C9 -68.76(19) . . . . ?
C1 C6 C7 C9 111.00(17) . . . . ?
S1 N1 C8 C7 -69.46(17) . . . . ?
C6 C7 C8 N1 48.9(2) . . . . ?
C9 C7 C8 N1 -76.76(18) . . . . ?
C6 C7 C9 C10 154.50(15) . . . . ?
C8 C7 C9 C10 -78.52(18) . . . . ?
C7 C9 C10 F1 65.8(2) . . . . ?
C7 C9 C10 F3 -172.92(15) . . . . ?
C7 C9 C10 F2 -55.0(2) . . . . ?
