#------------------------------------------------------------------------------
#$Date: 2021-04-28 00:41:44 +0300 (Wed, 28 Apr 2021) $
#$Revision: 264598 $
#$URL: file:///home/coder/svn-repositories/cod/cif/4/51/86/4518636.cif $
#------------------------------------------------------------------------------
#
# This file is available in the Crystallography Open Database (COD),
# http://www.crystallography.net/
#
# All data on this site have been placed in the public domain by the
# contributors.
#
data_4518636
loop_
_publ_author_name
'Yan, Siyu'
'Tang, Kaixin'
'Lin, Yuejian'
'Ren, Yuanhang'
'Tian, Wanli'
'Chen, Hua'
'Lin, Tingting'
'Qiu, Longzhen'
'Pan, Xiaoyong'
'Wang, Weizhi'
_publ_section_title
;
 Light-Emitting Diodes with Manganese Halide Tetrahedron Embedded in
 Anti-Perovskites
;
_journal_name_full               'ACS Energy Letters'
_journal_page_first              1901
_journal_page_last               1911
_journal_paper_doi               10.1021/acsenergylett.1c00250
_journal_year                    2021
_chemical_formula_sum            'Br2 Cl3 Cs3 Mn'
_chemical_formula_weight         719.84
_space_group_crystal_system      tetragonal
_space_group_IT_number           140
_space_group_name_Hall           '-I 4 2c'
_space_group_name_H-M_alt        'I 4/m c m'
_audit_creation_method           SHELXL-2016/6
_cell_angle_alpha                90
_cell_angle_beta                 90
_cell_angle_gamma                90
_cell_formula_units_Z            4
_cell_length_a                   9.4660(11)
_cell_length_b                   9.4660(11)
_cell_length_c                   14.999(4)
_cell_measurement_reflns_used    9342
_cell_measurement_temperature    298(2)
_cell_measurement_theta_max      26.54
_cell_measurement_theta_min      2.72
_cell_volume                     1344.0(4)
_computing_cell_refinement       'Bruker SAINT'
_computing_data_collection       'Bruker APEX2'
_computing_data_reduction        'Bruker SAINT'
_computing_molecular_graphics    'Bruker SHELXTL'
_computing_publication_material  'Bruker SHELXTL'
_computing_structure_refinement  'SHELXL-2016/6 (Sheldrick, 2016)'
_computing_structure_solution    'SHELXT 2018/2 (Sheldrick, 2018)'
_diffrn_ambient_temperature      298(2)
_diffrn_measured_fraction_theta_full 1.000
_diffrn_measured_fraction_theta_max 1.000
_diffrn_measurement_device_type  'Bruker APEX-II CCD'
_diffrn_measurement_method       '\f and \w scans'
_diffrn_radiation_type           MoK\a
_diffrn_radiation_wavelength     0.71073
_diffrn_reflns_av_R_equivalents  0.1236
_diffrn_reflns_av_unetI/netI     0.0212
_diffrn_reflns_Laue_measured_fraction_full 1.000
_diffrn_reflns_Laue_measured_fraction_max 1.000
_diffrn_reflns_limit_h_max       11
_diffrn_reflns_limit_h_min       -11
_diffrn_reflns_limit_k_max       11
_diffrn_reflns_limit_k_min       -11
_diffrn_reflns_limit_l_max       18
_diffrn_reflns_limit_l_min       -18
_diffrn_reflns_number            27981
_diffrn_reflns_point_group_measured_fraction_full 1.000
_diffrn_reflns_point_group_measured_fraction_max 1.000
_diffrn_reflns_theta_full        25.242
_diffrn_reflns_theta_max         26.636
_diffrn_reflns_theta_min         2.716
_exptl_absorpt_coefficient_mu    15.475
_exptl_absorpt_correction_T_max  0.207
_exptl_absorpt_correction_T_min  0.083
_exptl_absorpt_correction_type   multi-scan
_exptl_absorpt_process_details   sadabs
_exptl_crystal_colour            yellow
_exptl_crystal_density_diffrn    3.558
_exptl_crystal_description       block
_exptl_crystal_F_000             1244
_exptl_crystal_size_max          0.300
_exptl_crystal_size_mid          0.270
_exptl_crystal_size_min          0.120
_refine_diff_density_max         0.703
_refine_diff_density_min         -1.128
_refine_diff_density_rms         0.176
_refine_ls_extinction_coef       0.0062(3)
_refine_ls_extinction_expression Fc^*^=kFc[1+0.001xFc^2^\l^3^/sin(2\q)]^-1/4^
_refine_ls_extinction_method     'SHELXL-2016/6 (Sheldrick 2016)'
_refine_ls_goodness_of_fit_ref   1.181
_refine_ls_hydrogen_treatment    undef
_refine_ls_matrix_type           full
_refine_ls_number_parameters     18
_refine_ls_number_reflns         405
_refine_ls_number_restraints     0
_refine_ls_restrained_S_all      1.181
_refine_ls_R_factor_all          0.0278
_refine_ls_R_factor_gt           0.0267
_refine_ls_shift/su_max          0.000
_refine_ls_shift/su_mean         0.000
_refine_ls_structure_factor_coef Fsqd
_refine_ls_weighting_details
'w=1/[\s^2^(Fo^2^)+(0.0299P)^2^+11.8778P] where P=(Fo^2^+2Fc^2^)/3'
_refine_ls_weighting_scheme      calc
_refine_ls_wR_factor_gt          0.0671
_refine_ls_wR_factor_ref         0.0677
_reflns_Friedel_coverage         0.000
_reflns_number_gt                394
_reflns_number_total             405
_reflns_threshold_expression     'I > 2\s(I)'
_cod_data_source_file            nz1c00250_si_006.cif
_cod_data_source_block           mo_200909ca_a
_cod_original_cell_volume        1344.0(5)
_cod_database_code               4518636
_shelx_shelxl_version_number     2016/6
_shelx_space_group_comment
; 
The symmetry employed for this shelxl refinement is uniquely defined 
by the following loop, which should always be used as a source of 
symmetry information in preference to the above space-group names. 
They are only intended as comments. 
;
_shelx_estimated_absorpt_t_min   0.090
_shelx_estimated_absorpt_t_max   0.258
_shelx_res_file
; 
TITL mo_200909ca_a.res in I4/mcm 
    mo_200909ca_a.res 
    created by SHELXL-2016/6 at 17:35:42 on 03-Oct-2020 
CELL  0.71073   9.4660   9.4660  14.9990   90.000   90.000   90.000 
ZERR    4.000   0.0011   0.0011   0.0041    0.000    0.000    0.000 
LATT 2 
SYMM -X, -Y, Z 
SYMM -Y, X, Z 
SYMM Y, -X, Z 
SYMM -X, Y, 1/2-Z 
SYMM X, -Y, 1/2-Z 
SYMM Y, X, 1/2-Z 
SYMM -Y, -X, 1/2-Z 
SFAC Br Cl Cs Mn 
UNIT 8 12 12 4 
L.S. 4 
ACTA 
BOND 
FMAP 2 
PLAN 2 
LIST 6 
CONF 
SIZE 0.12 0.27 0.30 
EXYZ Cl1 Br2 
EADP Cl1 Br2 
TEMP 24.850 
WGHT    0.029900   11.877800 
EXTI    0.006245 
FVAR       0.18667 
CS1   3    0.162722    0.337278    0.500000    10.25000    0.01905    0.01905 = 
         0.04332    0.00000    0.00000    0.00073 
CS2   3    0.500000    0.500000    0.750000    10.12500    0.04127    0.04127 = 
         0.03943    0.00000    0.00000    0.00000 
BR1   1    0.500000    0.500000    0.500000    10.12500    0.02245    0.02245 = 
         0.05193    0.00000    0.00000    0.00000 
MN1   4    0.500000    0.000000    0.750000    10.12500    0.02327    0.02327 = 
         0.02343    0.00000    0.00000    0.00000 
CL1   2    0.355773    0.144227    0.655235    10.37500    0.03727    0.03727 = 
         0.04218    0.00938   -0.00938    0.01176 
BR2   1    0.355773    0.144227    0.655235    10.12500    0.03727    0.03727 = 
         0.04218    0.00938   -0.00938    0.01176 
HKLF 4 
  
  
  
  
REM  mo_200909ca_a.res in I4/mcm 
REM R1 =  0.0267 for     394 Fo > 4sig(Fo)  and  0.0278 for all     405 data 
REM     18 parameters refined using      0 restraints 
  
END 
  
WGHT      0.0299     11.8967 
  
REM Highest difference peak  0.703,  deepest hole -1.128,  1-sigma level  0.176 
Q1    1   0.3311  0.1689  0.6903  10.50000  0.05    0.70 
Q2    1   0.0964  0.3379  0.5000  10.50000  0.05    0.65 
;
_shelx_res_checksum              43089
_shelx_hkl_file
; 
   0  -1  -1    0.90    1.30 
   0  -1  -1   -0.10    1.10 
   0  -1  -1    1.80    1.80 
   0  -1  -1    0.20    1.00 
   0  -1  -1    0.80    1.00 
   0  -1  -1    3.40    2.20 
   0   1   1    3.60    2.00 
   0   1   1    1.00    1.80 
   0   1   1    2.20    1.30 
   0   1   1   -1.20    1.40 
   0   1   1    0.40    1.40 
   0   1   1    1.60    1.20 
   0  -2  -2 2040.90  240.48 
   0  -2  -2 2101.79  241.28 
   0  -2  -2 2278.47  239.88 
   0  -2  -2 2115.09  240.98 
   0  -2  -2 2093.89  241.38 
   0  -2  -2 2030.30  240.98 
   0  -2  -2 2191.78  240.68 
   0   2   2 2158.88  240.88 
   0   2   2 2263.67  241.38 
   0   2   2 1952.10  240.48 
   0   2   2 2317.57  241.38 
   0   2   2 2176.38  240.98 
   0   2   2 2168.48  240.08 
   0  -3  -3   -2.10    2.80 
   0  -3  -3    6.20    4.20 
   0  -3  -3    3.60    3.70 
   0  -3  -3    0.50    4.60 
   0  -3  -3   10.10    5.50 
   0  -3  -3    5.00    5.80 
   0  -3  -3   -0.10    3.90 
   0   3   3   -2.50    4.20 
   0   3   3   23.20    8.00 
   0   3   3   -1.20    4.10 
   0   3   3    2.40    4.20 
   0   3   3   18.60    6.30 
   0   3   3    5.50    5.40 
   0  -4  -4 1747.93  186.68 
   0  -4  -4 1490.15  187.88 
   0  -4  -4 1489.15  186.18 
   0  -4  -4 1664.13  187.28 
   0  -4  -4 1634.44  187.98 
   0  -4  -4 1526.25  188.28 
   0  -4  -4 1658.93  184.68 
   0   4   4 1810.92  187.98 
   0   4   4 1799.82  189.08 
   0   4   4 1547.85  186.28 
   0   4   4 1504.05  186.68 
   0   4   4 1633.84  185.78 
   0   4   4 1741.23  187.18 
   0  -5  -5    3.20    6.80 
   0  -5  -5    7.60   11.50 
   0  -5  -5   -1.40    4.60 
   0  -5  -5    4.40   10.70 
   0  -5  -5    8.50    8.90 
   0  -5  -5   11.30    8.00 
   0  -5  -5    4.50   11.60 
   0   5   5    4.50    8.80 
   0   5   5   10.30    8.30 
   0   5   5    2.50    7.40 
   0   5   5    8.90   10.00 
   0   5   5  -14.10   11.60 
   0   5   5    8.10    8.10 
   0  -6  -6 1347.47  142.99 
   0  -6  -6 1027.90  145.59 
   0  -6  -6 1298.57  143.89 
   0  -6  -6 1247.38  139.79 
   0  -6  -6 1185.68  145.39 
   0  -6  -6 1163.68  146.29 
   0  -6  -6 1006.10  141.79 
   0   6   6 1034.90  141.39 
   0   6   6 1410.46  148.59 
   0   6   6 1157.68  147.19 
   0   6   6 1335.97  143.79 
   0   6   6 1340.17  144.59 
   0   6   6 1309.37  143.09 
   0   6   6 1145.29  142.29 
   0  -7  -7    4.10   16.30 
   0  -7  -7   26.80   23.00 
   0  -7  -7  -10.70    7.30 
   0  -7  -7    8.70   11.40 
   0  -7  -7  -14.20   21.50 
   0  -7  -7    0.80   13.70 
   0   7   7    6.30   14.80 
   0   7   7   -5.50   11.50 
   0   7   7  -11.10   14.50 
   0   7   7   16.70   13.00 
   0   7   7  -13.40   15.90 
   0   7   7    6.30   12.40 
   0  -8  -8  191.28   44.00 
   0  -8  -8  273.97   37.80 
   0  -8  -8  203.48   29.90 
   0  -8  -8  175.18   39.90 
   0  -8  -8  153.78   25.30 
   0  -8  -8  189.98   37.00 
   0   8   8  228.08   40.90 
   0   8   8  142.19   32.70 
   0   8   8  269.87   40.50 
   0   8   8  200.08   36.80 
   0   8   8  262.07   38.70 
   0  -9  -9  -11.90   13.10 
   0  -9  -9    8.90    8.60 
   0  -9  -9   -0.70   14.30 
   0  -9  -9   -9.50   30.60 
   0  -9  -9    6.00   17.00 
   0   9   9   15.70   14.10 
   0   9   9    0.70   19.20 
   0   9   9   -2.10   23.40 
   0   9   9    2.40   18.60 
   0   9   9  -12.80   18.80 
   0 -10 -10   80.09   28.30 
   0 -10 -10   42.30   19.80 
   0 -10 -10   42.10   54.69 
   0 -10 -10   43.00   27.60 
   0  10  10   54.89   26.80 
   0  10  10   18.90   27.00 
   0  10  10   51.69   13.40 
   0  10  10   55.49   33.70 
   0  10  10   77.29   31.10 
   1  10   9   43.80   28.20 
   1  10   9   92.99   17.90 
   1  10   9   83.49   36.20 
   1  10   9   30.30   26.00 
  -1 -10  -9   89.59   30.70 
  -1 -10  -9   95.89   22.80 
  -1 -10  -9  116.39   34.00 
  -1 -10  -9   32.00   53.69 
   1   9   8  295.07   49.30 
   1   9   8  325.07   45.80 
   1   9   8  274.27   50.59 
   1   9   8  431.86   54.09 
  -1  -9  -8  257.07   61.79 
  -1  -9  -8  190.98   36.40 
  -1  -9  -8  272.67   49.40 
  -1  -9  -8  392.36   49.70 
  -1  -9  -8  279.07   41.60 
   1   8   7  141.39   30.70 
   1   8   7  259.17   39.60 
   1   8   7  207.58   26.00 
   1   8   7  223.58   37.60 
   1   8   7  153.88   36.00 
  -1  -8  -7  172.38   24.30 
  -1  -8  -7  103.69   34.20 
  -1  -8  -7  200.88   34.70 
  -1  -8  -7  138.39   32.40 
  -1  -8  -7  159.08   51.49 
  -1  -8  -7  185.38   28.90 
   1   7   6  264.87   39.20 
   1   7   6  204.58   41.50 
   1   7   6  233.28   42.30 
   1   7   6  317.87   52.29 
   1   7   6  341.27   43.00 
   1   7   6  312.27   42.90 
   1   7   6  282.47   39.20 
  -1  -7  -6  171.58   40.50 
  -1  -7  -6  194.38   48.50 
  -1  -7  -6  282.87   50.09 
  -1  -7  -6  272.67   40.10 
  -1  -7  -6  315.27   42.00 
  -1  -7  -6  281.27   50.19 
   1   6   5   11.00   11.90 
   1   6   5    5.70    8.60 
   1   6   5   38.10   15.60 
   1   6   5    0.20    8.80 
   1   6   5   29.90   13.10 
   1   6   5   -8.30    8.60 
  -1  -6  -5   23.40    9.90 
  -1  -6  -5   22.70   11.50 
  -1  -6  -5   15.40    8.20 
  -1  -6  -5    2.20   13.80 
  -1  -6  -5   19.10   17.10 
  -1  -6  -5    2.20   15.80 
  -1  -6  -5    0.50   18.00 
   1   5   4  154.58   24.10 
   1   5   4  137.79   25.10 
   1   5   4  160.28   24.70 
   1   5   4  164.88   25.20 
   1   5   4  193.68   30.40 
   1   5   4  152.68   26.60 
  -1  -5  -4  128.29   21.70 
  -1  -5  -4  150.18   27.40 
  -1  -5  -4  136.99   30.10 
  -1  -5  -4  152.98   26.90 
  -1  -5  -4  157.18   24.20 
  -1  -5  -4  120.49   27.80 
   1   4   3 1973.60  226.98 
   1   4   3 2099.09  230.88 
   1   4   3 1945.21  226.88 
   1   4   3 1954.50  226.08 
   1   4   3 2318.97  228.18 
  -1  -4  -3 1836.72  228.48 
  -1  -4  -3 2045.70  228.88 
  -1  -4  -3 1909.41  229.08 
  -1  -4  -3 1835.22  229.48 
  -1  -4  -3 2072.99  226.08 
   1   3   2  569.64   69.09 
   1   3   2  589.74   68.99 
   1   3   2  595.84   67.69 
   1   3   2  560.24   70.09 
   1   3   2  560.94   68.69 
   1   3   2  731.23   72.19 
   1   3   2  602.54   69.89 
   1   3   2  551.84   69.29 
  -1  -3  -2  617.74   68.69 
  -1  -3  -2  552.74   69.09 
  -1  -3  -2  664.33   70.79 
  -1  -3  -2  640.14   70.99 
  -1  -3  -2  560.94   70.49 
  -1  -3  -2  497.05   70.69 
   1   2   1  735.13   86.29 
   1   2   1  778.32   87.59 
   1   2   1  683.83   87.09 
   1   2   1  776.62   86.69 
   1   2   1  728.33   87.79 
   1   2   1  833.52   86.89 
   1   2   1  833.72   88.39 
   1   2   1  761.82   86.19 
  -1  -2  -1  651.73   87.89 
  -1  -2  -1  693.83   86.59 
  -1  -2  -1  740.43   87.79 
  -1  -2  -1  798.62   87.99 
  -1  -2  -1  825.52   86.89 
  -1  -2  -1  790.32   86.99 
  -1  -2  -1  768.12   87.89 
   1   1   0    3.50    1.60 
   1   1   0   -0.20    1.50 
   1   1   0    1.40    2.20 
   1   1   0    2.90    2.20 
   1   1   0    5.20    2.50 
   1   1   0    3.10    1.70 
   1   1   0    1.40    1.20 
  -1  -1   0    1.20    2.20 
  -1  -1   0    2.90    1.60 
  -1  -1   0    3.90    1.80 
  -1  -1   0    3.50    1.90 
  -1  -1   0   -1.20    2.20 
  -1  -1   0   10.10    3.20 
  -1  -1   0    1.20    2.10 
  -1  -1   0    2.90    1.80 
   1   0  -1   -0.50    1.60 
   1   0  -1    5.80    1.30 
   1   0  -1   -0.40    0.60 
   1   0  -1    0.10    1.00 
   1   0  -1    1.80    1.10 
   1   0  -1    0.30    0.50 
   1   0  -1    0.80    1.20 
   1   0  -1    0.20    0.70 
   1   0  -1    3.20    1.30 
  -1   0   1    0.30    0.40 
  -1   0   1    4.30    2.30 
  -1   0   1   -1.10    0.70 
  -1   0   1    2.00    1.00 
  -1   0   1    1.70    1.10 
  -1   0   1    0.70    0.60 
  -1   0   1    2.60    1.50 
  -1   0   1    7.20    1.40 
  -1   0   1    1.30    1.20 
   1  -1  -2   86.69   10.20 
   1  -1  -2   97.29   11.90 
   1  -1  -2  116.69   12.10 
   1  -1  -2   86.19   11.70 
   1  -1  -2   91.49   10.90 
   1  -1  -2   83.39   11.80 
   1  -1  -2   83.99   10.50 
   1  -1  -2   91.39   11.80 
  -1   1   2   95.89   12.10 
  -1   1   2   94.19   12.10 
  -1   1   2   95.29   12.30 
  -1   1   2  107.79   12.30 
  -1   1   2   84.79   11.80 
  -1   1   2   82.69   10.90 
  -1   1   2   91.99   11.80 
   1  -2  -3 3938.21  455.45 
   1  -2  -3 4110.59  455.85 
   1  -2  -3 3864.51  455.55 
   1  -2  -3 3848.11  455.45 
   1  -2  -3 3507.95  454.55 
   1  -2  -3 4186.98  455.35 
   1  -2  -3 4283.17  453.85 
  -1   2   3 3809.32  453.65 
  -1   2   3 4325.77  456.05 
  -1   2   3 4492.05  456.05 
  -1   2   3 4006.80  455.85 
  -1   2   3 4311.57  454.25 
  -1   2   3 4206.48  455.95 
  -1   2   3 4088.89  455.15 
  -1   2   3 4258.87  456.15 
   1  -3  -4 1613.04  191.28 
   1  -3  -4 1748.53  190.78 
   1  -3  -4 1561.54  189.88 
   1  -3  -4 1670.53  190.98 
   1  -3  -4 1698.33  188.68 
   1  -3  -4 1609.44  191.28 
   1  -3  -4 1633.54  191.48 
  -1   3   4 1653.03  188.28 
  -1   3   4 1679.73  191.18 
  -1   3   4 1776.92  191.88 
  -1   3   4 1835.62  192.18 
  -1   3   4 1755.72  191.68 
  -1   3   4 1733.03  189.58 
  -1   3   4 1786.02  190.58 
  -1   3   4 1486.25  191.08 
   1  -4  -5  797.02   99.19 
   1  -4  -5  820.42   99.19 
   1  -4  -5  848.92   97.79 
   1  -4  -5  809.82   99.39 
   1  -4  -5  893.51   95.59 
   1  -4  -5  756.42   97.99 
   1  -4  -5  746.53   98.69 
  -1   4   5  856.01   99.09 
  -1   4   5  999.10  101.29 
  -1   4   5  881.21   97.09 
  -1   4   5  724.53   98.59 
  -1   4   5  876.11   98.79 
  -1   4   5  829.12   99.09 
   1  -5  -6   16.70   10.30 
   1  -5  -6    4.50   11.60 
   1  -5  -6    6.20    6.30 
   1  -5  -6    8.50    8.00 
   1  -5  -6   16.70   12.40 
   1  -5  -6   15.50   12.90 
  -1   5   6   35.50   14.80 
  -1   5   6   12.40    5.60 
  -1   5   6   23.70   11.40 
  -1   5   6   14.40   10.40 
  -1   5   6   10.30   12.30 
  -1   5   6   10.40    9.40 
  -1   5   6   21.50   10.80 
   1  -6  -7   23.20   18.90 
   1  -6  -7   57.59   20.90 
   1  -6  -7   52.59   16.10 
   1  -6  -7   42.40   10.60 
   1  -6  -7   45.70   22.80 
   1  -6  -7   44.30   13.20 
   1  -6  -7   23.70   13.60 
  -1   6   7   70.09   16.40 
  -1   6   7   30.70   17.00 
  -1   6   7   23.10    8.60 
  -1   6   7   77.19   18.60 
  -1   6   7   33.60   14.70 
  -1   6   7   29.20   17.60 
   1  -7  -8   24.10   20.30 
   1  -7  -8   27.00   23.00 
   1  -7  -8    4.50    4.50 
   1  -7  -8    8.30    7.80 
   1  -7  -8    8.70   13.60 
   1  -7  -8   13.30   13.90 
  -1   7   8   15.40   15.70 
  -1   7   8    6.90   15.10 
  -1   7   8    5.40   13.70 
  -1   7   8   46.40   11.60 
  -1   7   8    9.60   12.30 
  -1   7   8   34.20   25.90 
   1  -8  -9  660.13   70.99 
   1  -8  -9  450.65   59.19 
   1  -8  -9  451.35   79.59 
   1  -8  -9  548.85   71.29 
   1  -8  -9  566.24   63.59 
  -1   8   9  481.75   69.29 
  -1   8   9  477.45   62.39 
  -1   8   9  439.76   70.79 
  -1   8   9  588.44   72.59 
   1  -9 -10  115.09   21.30 
   1  -9 -10   79.99   28.30 
   1  -9 -10   67.09   13.50 
   1  -9 -10   69.79   27.10 
  -1   9  10   92.39   33.30 
  -1   9  10   74.69   27.70 
  -1   9  10   81.09   28.60 
  -1   9  10   81.59   27.60 
   2  10   8  305.07   56.99 
   2  10   8  446.06   63.99 
   2  10   8  303.67   54.99 
   2  10   8  427.76   62.79 
   2  10   8  389.96   47.50 
  -2 -10  -8  337.07   52.29 
  -2 -10  -8  325.87   58.09 
   2   9   7   17.20   23.30 
   2   9   7   15.70   20.70 
   2   9   7   23.80   15.10 
   2   9   7   10.40   17.00 
   2   9   7   17.30    8.40 
  -2  -9  -7    8.60   14.60 
  -2  -9  -7  -31.30   36.30 
  -2  -9  -7  -24.70   16.60 
  -2  -9  -7   24.10   14.40 
   2   8   6   44.00   20.10 
   2   8   6   22.70   17.20 
   2   8   6    8.70   14.10 
   2   8   6   35.00    9.80 
   2   8   6   56.09   19.90 
  -2  -8  -6   32.60   17.80 
  -2  -8  -6   81.19   22.10 
  -2  -8  -6   23.40   29.10 
  -2  -8  -6   44.90   24.50 
   2   7   5  424.16   56.99 
   2   7   5  344.37   54.59 
   2   7   5  363.86   56.09 
   2   7   5  438.26   63.69 
   2   7   5  436.46   50.49 
   2   7   5  410.76   55.79 
   2   7   5  363.86   57.09 
  -2  -7  -5  431.66   57.29 
  -2  -7  -5  529.05   58.89 
  -2  -7  -5  403.06   68.29 
  -2  -7  -5  295.17   59.79 
  -2  -7  -5  407.36   53.29 
  -2  -7  -5  378.66   61.79 
   2   6   4  303.97   47.80 
   2   6   4  394.36   50.49 
   2   6   4  349.77   46.40 
   2   6   4  419.26   55.29 
   2   6   4  358.06   48.60 
   2   6   4  384.56   44.50 
   2   6   4  337.57   48.90 
   2   6   4  397.86   49.60 
  -2  -6  -4  313.97   49.10 
  -2  -6  -4  365.16   47.00 
  -2  -6  -4  388.26   50.09 
  -2  -6  -4  315.87   55.99 
  -2  -6  -4  256.47   55.39 
  -2  -6  -4  379.76   52.29 
   2   5   3 3377.86  378.56 
   2   5   3 3348.57  379.46 
   2   5   3 3286.87  380.76 
   2   5   3 3267.97  382.16 
   2   5   3 3874.81  385.56 
   2   5   3 3594.14  382.06 
   2   5   3 3482.65  381.36 
  -2  -5  -3 2979.30  383.46 
  -2  -5  -3 3364.16  383.96 
  -2  -5  -3 3408.26  380.36 
  -2  -5  -3 3037.40  385.36 
  -2  -5  -3 3650.33  382.56 
  -2  -5  -3 3237.38  382.36 
   2   4   2   51.59   14.40 
   2   4   2   92.19   14.00 
   2   4   2   97.49   19.40 
   2   4   2   78.59   15.30 
   2   4   2   83.59   12.70 
   2   4   2   72.29   15.70 
   2   4   2   75.59   16.70 
  -2  -4  -2   86.89   15.40 
  -2  -4  -2   62.09   17.20 
  -2  -4  -2   81.59   20.30 
  -2  -4  -2   71.49   16.40 
  -2  -4  -2   87.79   18.30 
   2   3   1   33.90    7.50 
   2   3   1   43.60    8.30 
   2   3   1   31.80    9.30 
   2   3   1   29.30    7.70 
   2   3   1   35.00    9.60 
   2   3   1   38.20    8.90 
   2   3   1   84.29   13.70 
   2   3   1   47.80   12.10 
  -2  -3  -1   38.00   10.70 
  -2  -3  -1   24.20    8.40 
  -2  -3  -1   43.50    9.40 
  -2  -3  -1   29.50   11.40 
  -2  -3  -1   22.60    9.50 
  -2  -3  -1   35.40    8.40 
  -2  -3  -1   26.80    8.50 
  -2  -3  -1   26.30    8.10 
   2   2   0 3714.63  394.06 
   2   2   0 3650.73  395.76 
   2   2   0 3494.45  394.66 
   2   2   0 3962.20  396.36 
   2   2   0 3617.74  395.06 
  -2  -2   0 3394.56  396.16 
  -2  -2   0 3222.58  394.66 
  -2  -2   0 3939.11  396.16 
  -2  -2   0 3187.68  396.86 
  -2  -2   0 3642.54  394.16 
  -2  -2   0 3438.66  395.76 
  -2  -2   0 3119.19  395.16 
   2   1  -1  700.33   87.69 
   2   1  -1  835.32   87.19 
   2   1  -1  833.82   86.69 
   2   1  -1  807.22   89.79 
   2   1  -1  805.12   86.59 
   2   1  -1  908.71   88.99 
   2   1  -1  795.52   86.69 
   2   1  -1  841.32   86.39 
   2   1  -1  672.73   87.79 
   2   1  -1  654.23   87.49 
  -2  -1   1  853.01   87.49 
  -2  -1   1  703.03   90.09 
  -2  -1   1  687.13   86.29 
  -2  -1   1  734.13   87.69 
  -2  -1   1  721.23   87.19 
  -2  -1   1  678.73   87.39 
  -2  -1   1  883.81   87.79 
  -2  -1   1  674.53   87.69 
   2   0  -2 2169.68  223.48 
   2   0  -2 1884.81  223.48 
   2   0  -2 1744.93  224.98 
   2   0  -2 2253.67  223.08 
   2   0  -2 1948.91  223.48 
   2   0  -2 1994.70  223.08 
  -2   0   2 2117.69  223.48 
  -2   0   2 2049.99  223.08 
  -2   0   2 1995.70  223.58 
  -2   0   2 1793.72  223.98 
  -2   0   2 2173.18  223.28 
  -2   0   2 1896.11  223.48 
  -2   0   2 1959.00  223.08 
  -2   0   2 1984.00  225.78 
   2  -1  -3 3478.85  437.36 
   2  -1  -3 4309.07  436.96 
   2  -1  -3 4014.10  437.66 
   2  -1  -3 4045.50  437.66 
  -2   1   3 3787.12  438.36 
  -2   1   3 3338.27  436.56 
  -2   1   3 3759.32  437.76 
  -2   1   3 3600.94  435.86 
  -2   1   3 3804.22  438.26 
  -2   1   3 4134.39  438.16 
  -2   1   3 4077.99  438.16 
  -2   1   3 4339.87  438.06 
  -2   1   3 4440.46  437.06 
  -2   1   3 3871.51  437.76 
   2  -2  -4 3182.98  381.56 
   2  -2  -4 3369.16  381.86 
   2  -2  -4 3444.56  380.26 
   2  -2  -4 2981.20  381.26 
   2  -2  -4 3598.44  379.36 
   2  -2  -4 3690.53  381.76 
   2  -2  -4 3484.05  381.96 
  -2   2   4 3803.42  383.56 
  -2   2   4 3234.78  381.86 
  -2   2   4 3612.34  382.76 
  -2   2   4 3249.38  382.46 
  -2   2   4 3624.54  382.66 
  -2   2   4 3171.08  382.06 
  -2   2   4 3360.26  382.26 
   2  -3  -5    9.80    5.70 
   2  -3  -5   10.90    6.00 
   2  -3  -5   -1.20    5.60 
   2  -3  -5    5.60    4.70 
   2  -3  -5    8.30    1.30 
  -2   3   5   11.20    4.20 
  -2   3   5   46.70    9.70 
  -2   3   5    6.10    6.50 
  -2   3   5   31.70    9.30 
  -2   3   5    5.80    6.10 
  -2   3   5   -2.50    4.70 
   2  -4  -6   11.40    7.30 
   2  -4  -6    4.90    4.00 
   2  -4  -6    5.10    8.10 
   2  -4  -6   -0.30    8.50 
   2  -4  -6   -0.70    6.10 
   2  -4  -6   10.90    7.40 
   2  -4  -6    1.00    5.90 
  -2   4   6   17.20    9.40 
  -2   4   6    8.20    6.60 
  -2   4   6    0.20    4.30 
  -2   4   6    7.40    9.70 
  -2   4   6    2.30    8.70 
  -2   4   6    7.40    6.10 
  -2   4   6    1.60    8.10 
   2  -5  -7  133.89   25.20 
   2  -5  -7  109.59   22.50 
   2  -5  -7  124.79   24.20 
   2  -5  -7  113.59   21.50 
   2  -5  -7  118.69   22.10 
   2  -5  -7  119.79   17.90 
   2  -5  -7  130.89   14.70 
   2  -5  -7  128.09   28.70 
  -2   5   7  126.39   25.30 
  -2   5   7  111.69   23.40 
  -2   5   7  146.99   26.50 
  -2   5   7  135.99   18.00 
  -2   5   7   99.69   23.50 
  -2   5   7  142.49   28.20 
  -2   5   7  114.49   21.20 
  -2   5   7  101.79   21.40 
   2  -6  -8  218.78   28.70 
   2  -6  -8  205.38   37.60 
   2  -6  -8  223.68   33.50 
   2  -6  -8  211.58   24.70 
   2  -6  -8  173.88   37.40 
   2  -6  -8  198.48   31.90 
   2  -6  -8  241.08   34.90 
  -2   6   8  222.68   37.00 
  -2   6   8  151.28   38.10 
  -2   6   8  207.88   33.00 
  -2   6   8  253.57   37.20 
  -2   6   8  260.97   42.60 
  -2   6   8  208.18   29.30 
   2  -7  -9  357.36   40.50 
   2  -7  -9  375.16   46.50 
   2  -7  -9  368.16   47.90 
   2  -7  -9  276.27   45.50 
   2  -7  -9  274.77   35.00 
  -2   7   9  270.17   44.30 
  -2   7   9  239.28   49.30 
  -2   7   9  278.17   54.49 
  -2   7   9  338.97   47.90 
  -2   7   9  376.36   50.79 
  -2   7   9  314.77   40.80 
   2  -8 -10   24.00   11.80 
   2  -8 -10   48.30   20.20 
   2  -8 -10  -16.50   14.00 
  -2   8  10    2.60   16.90 
  -2   8  10   28.30   19.40 
  -2   8  10   -9.70   19.60 
  -2   8  10   26.40   25.40 
   2  -9 -11   23.10   25.50 
   2  -9 -11   26.60   15.70 
   2  -9 -11   40.00   20.20 
  -2   9  11    4.90   23.80 
  -2   9  11   23.60   29.70 
  -2   9  11   13.30   26.30 
  -2   9  11    9.40   28.00 
   3  10   7  -10.40   19.50 
   3  10   7    5.00    7.50 
   3  10   7    0.70   20.70 
   3  10   7   16.30   25.80 
   3  10   7    3.60   20.10 
  -3 -10  -7   18.40   16.80 
  -3 -10  -7   18.10   49.70 
  -3 -10  -7    0.20   16.80 
   3   9   6  405.76   65.49 
   3   9   6  546.05   69.99 
   3   9   6  560.74   69.59 
   3   9   6  518.15   65.19 
   3   9   6  525.25   60.29 
  -3  -9  -6  285.87   75.19 
  -3  -9  -6  551.14   71.09 
  -3  -9  -6  368.96   67.49 
  -3  -9  -6  435.76   64.49 
   3   8   5    3.00    5.90 
   3   8   5    6.00   14.90 
   3   8   5   16.50   14.80 
  -3  -8  -5   -4.40   13.70 
  -3  -8  -5   18.40   21.50 
  -3  -8  -5   35.30   27.80 
  -3  -8  -5    5.50   13.50 
  -3  -8  -5   -0.60   11.80 
   3   7   4  679.53   77.89 
   3   7   4  495.85   74.99 
   3   7   4  535.95   72.89 
   3   7   4  657.13   83.89 
   3   7   4  588.44   78.19 
   3   7   4  638.94   72.19 
   3   7   4  592.24   77.69 
   3   7   4  555.04   79.79 
  -3  -7  -4  728.63   79.39 
  -3  -7  -4  644.34   78.99 
  -3  -7  -4  599.84   83.09 
  -3  -7  -4  575.04   89.49 
  -3  -7  -4  437.36   81.19 
  -3  -7  -4  624.14   75.49 
   3   6   3   40.40   15.40 
   3   6   3   57.19   16.60 
   3   6   3   52.29   20.40 
   3   6   3   14.90   11.30 
   3   6   3   49.60   16.00 
   3   6   3   24.30   13.20 
   3   6   3   38.00   11.50 
   3   6   3   43.80    9.90 
  -3  -6  -3   22.50   11.10 
  -3  -6  -3   15.30   17.70 
  -3  -6  -3   28.30   13.30 
  -3  -6  -3   32.90   18.60 
  -3  -6  -3   29.90   14.00 
  -3  -6  -3   42.20   24.50 
   3   5   2  505.95   63.09 
   3   5   2  492.55   59.69 
   3   5   2  585.84   64.29 
   3   5   2  539.65   62.29 
   3   5   2  442.76   58.89 
   3   5   2  513.75   61.49 
   3   5   2  531.55   66.29 
  -3  -5  -2  479.25   64.49 
  -3  -5  -2  526.45   64.49 
  -3  -5  -2  478.35   68.79 
  -3  -5  -2  451.65   60.49 
  -3  -5  -2  470.45   61.09 
  -3  -5  -2  534.85   63.79 
  -3  -5  -2  410.96   64.19 
   3   4   1    7.20    5.30 
   3   4   1    2.60    3.50 
   3   4   1    1.70    7.10 
   3   4   1  -12.00    8.70 
   3   4   1    8.30    7.60 
   3   4   1    3.20    5.10 
   3   4   1    3.00    4.60 
  -3  -4  -1    2.80    7.70 
  -3  -4  -1    2.70    4.70 
  -3  -4  -1    1.40    9.10 
  -3  -4  -1    4.00    7.80 
  -3  -4  -1   -1.10    4.30 
  -3  -4  -1    4.40   12.10 
  -3  -4  -1    2.70    8.90 
   3   3   0 2932.11  293.77 
   3   3   0 2704.73  295.77 
   3   3   0 2276.67  296.17 
   3   3   0 2655.53  295.77 
   3   3   0 2810.62  294.27 
   3   3   0 3091.69  297.97 
  -3  -3   0 2403.66  298.77 
  -3  -3   0 2758.02  295.37 
  -3  -3   0 2475.95  296.27 
  -3  -3   0 2353.96  297.77 
  -3  -3   0 2400.06  296.77 
  -3  -3   0 2762.22  296.07 
  -3  -3   0 3100.99  298.17 
  -3  -3   0 2242.38  295.97 
  -3  -3   0 2364.36  296.27 
   3   2  -1   40.00    9.90 
   3   2  -1   36.50    7.30 
   3   2  -1   52.79   10.80 
   3   2  -1   38.70    6.80 
   3   2  -1   39.40    8.00 
   3   2  -1   30.40    7.30 
   3   2  -1   36.90   10.40 
   3   2  -1   24.20    8.80 
   3   2  -1   54.29    6.70 
  -3  -2   1   31.50    8.40 
  -3  -2   1   31.10    8.10 
  -3  -2   1   24.10    9.10 
  -3  -2   1   45.20    8.80 
  -3  -2   1   36.10   12.00 
  -3  -2   1   36.60    9.20 
  -3  -2   1   38.40    9.10 
  -3  -2   1   38.30    9.30 
  -3  -2   1   37.10   10.10 
   3   1  -2  657.13   66.99 
   3   1  -2  528.25   70.89 
   3   1  -2  576.94   67.59 
   3   1  -2  533.35   68.69 
   3   1  -2  592.84   69.09 
   3   1  -2  546.45   68.69 
   3   1  -2  675.93   68.19 
   3   1  -2  605.44   67.29 
   3   1  -2  639.54   67.39 
  -3  -1   2  633.74   69.29 
  -3  -1   2  612.74   73.89 
  -3  -1   2  552.44   69.49 
  -3  -1   2  577.04   70.09 
  -3  -1   2  519.55   67.19 
  -3  -1   2  685.43   69.19 
  -3  -1   2  511.45   68.59 
  -3  -1   2  569.24   68.59 
  -3  -1   2  582.14   68.89 
  -3  -1   2  594.64   68.39 
   3   0  -3   -1.10    2.90 
   3   0  -3    5.40    3.10 
   3   0  -3   25.40    7.80 
   3   0  -3    0.40    2.60 
   3   0  -3    9.70    3.00 
   3   0  -3    6.10    3.30 
   3   0  -3   -1.00    1.40 
   3   0  -3    0.20    1.90 
   3   0  -3    4.50    2.30 
  -3   0   3   14.40    4.80 
  -3   0   3    9.90    3.10 
  -3   0   3    1.70    3.30 
  -3   0   3    1.10    2.90 
  -3   0   3    1.50    1.80 
  -3   0   3    4.60    3.10 
  -3   0   3    1.90    3.20 
  -3   0   3    1.70    4.30 
  -3   0   3   12.30    7.00 
   3  -1  -4 1830.62  184.18 
   3  -1  -4 1737.23  182.08 
   3  -1  -4 1477.15  184.08 
   3  -1  -4 1593.94  183.58 
   3  -1  -4 1428.76  185.58 
   3  -1  -4 1805.52  184.78 
  -3   1   4 1600.04  183.78 
  -3   1   4 1614.74  184.88 
  -3   1   4 1725.73  187.08 
  -3   1   4 1584.64  182.58 
  -3   1   4 1654.43  185.88 
  -3   1   4 1636.04  184.88 
  -3   1   4 1642.04  185.08 
  -3   1   4 1643.64  185.38 
  -3   1   4 1598.44  183.68 
   3  -2  -5    5.70    4.90 
   3  -2  -5   12.40    4.10 
   3  -2  -5    4.40    4.30 
   3  -2  -5   10.70    5.40 
   3  -2  -5    4.30    6.20 
  -3   2   5    6.40    5.90 
  -3   2   5   14.80    6.50 
  -3   2   5   -7.30    5.10 
  -3   2   5   -5.20    5.50 
  -3   2   5   27.80    8.60 
  -3   2   5    9.20    6.20 
  -3   2   5   15.90    3.70 
  -3   2   5    2.40    3.30 
  -3   2   5    8.80    5.80 
   3  -3  -6 3380.26  359.86 
   3  -3  -6 3743.43  365.96 
   3  -3  -6 3377.56  364.46 
   3  -3  -6 3105.99  363.66 
   3  -3  -6 3006.80  363.46 
   3  -3  -6 3030.80  363.36 
  -3   3   6 3106.29  361.56 
  -3   3   6 3514.95  366.66 
  -3   3   6 2934.81  365.36 
  -3   3   6 3346.17  365.16 
  -3   3   6 3336.27  365.36 
  -3   3   6 3154.48  364.66 
  -3   3   6 3303.77  364.86 
  -3   3   6 2960.80  361.66 
  -3   3   6 3333.27  364.96 
   3  -4  -7   16.00    9.40 
   3  -4  -7    7.40    4.10 
   3  -4  -7    4.70    7.50 
   3  -4  -7   10.10    7.80 
   3  -4  -7    4.20    6.20 
   3  -4  -7    4.00    7.80 
  -3   4   7   12.00    8.80 
  -3   4   7   38.60   13.40 
  -3   4   7   -2.50    9.90 
  -3   4   7   18.50    8.90 
  -3   4   7    0.20    9.30 
  -3   4   7    9.60    5.90 
  -3   4   7   -7.80    9.10 
   3  -5  -8  601.24   77.79 
   3  -5  -8  613.54   77.49 
   3  -5  -8  600.34   78.29 
   3  -5  -8  571.34   76.69 
   3  -5  -8  652.03   72.19 
  -3   5   8  514.25   80.69 
  -3   5   8  694.43   96.39 
  -3   5   8  650.73   73.99 
  -3   5   8  621.54   79.39 
  -3   5   8  653.73   79.89 
  -3   5   8  682.03   81.49 
  -3   5   8  572.54   77.99 
  -3   5   8  726.03   79.39 
   3  -6  -9    3.30   15.80 
   3  -6  -9   -8.30    8.70 
   3  -6  -9   -2.10    6.40 
   3  -6  -9   10.80   11.60 
  -3   6   9   15.80   18.80 
  -3   6   9   17.30   15.60 
  -3   6   9   28.60   15.30 
  -3   6   9   -0.60   12.80 
  -3   6   9   20.80    9.70 
  -3   6   9   13.30   21.10 
   3  -7 -10   11.80   24.00 
   3  -7 -10   29.80   17.40 
   3  -7 -10   12.50   13.90 
   3  -7 -10   35.00   10.40 
  -3   7  10   48.00   21.80 
  -3   7  10   19.40   24.30 
  -3   7  10   39.90   31.80 
  -3   7  10   30.90   21.20 
  -3   7  10   72.39   23.50 
   3  -8 -11   -2.30   11.70 
   3  -8 -11   12.90   20.20 
  -3   8  11   34.00   36.10 
  -3   8  11  -26.40   18.30 
  -3   8  11   -0.70   23.70 
  -3   8  11   -1.80   26.60 
  -3   8  11  -28.50   24.00 
   4  10   6   91.69   30.20 
   4  10   6  128.19   36.70 
   4  10   6  170.48   36.00 
  -4 -10  -6  134.09   30.40 
   4   9   5    2.40   13.40 
   4   9   5    8.80    7.50 
   4   9   5   -3.60   20.80 
   4   9   5    8.50   19.60 
  -4  -9  -5   36.30   20.40 
  -4  -9  -5   38.40   18.90 
  -4  -9  -5   -3.60   18.30 
   4   8   4  900.41  122.39 
   4   8   4  826.02  120.09 
   4   8   4 1191.78  124.09 
   4   8   4 1126.19  117.49 
   4   8   4  883.61  116.09 
  -4  -8  -4  900.61  120.19 
  -4  -8  -4  842.62  129.89 
  -4  -8  -4 1230.18  140.69 
  -4  -8  -4 1080.19  125.19 
  -4  -8  -4 1176.98  126.69 
   4   7   3  329.97   48.50 
   4   7   3  261.67   45.40 
   4   7   3  360.66   42.40 
   4   7   3  295.07   45.90 
   4   7   3  324.87   41.90 
   4   7   3  356.26   48.50 
  -4  -7  -3  322.37   45.60 
  -4  -7  -3  338.77   49.40 
  -4  -7  -3  403.26   67.59 
  -4  -7  -3  257.07   53.59 
  -4  -7  -3  353.96   50.59 
  -4  -7  -3  314.47   55.49 
   4   6   2  772.42   85.09 
   4   6   2  588.14   86.79 
   4   6   2  777.22   89.29 
   4   6   2  703.43   88.69 
   4   6   2  732.53   83.29 
   4   6   2  725.93   91.99 
   4   6   2  661.63   85.59 
  -4  -6  -2  819.32   93.59 
  -4  -6  -2  725.83   98.19 
  -4  -6  -2  733.23   89.99 
  -4  -6  -2  650.23   91.09 
  -4  -6  -2  648.24   87.19 
  -4  -6  -2  734.83   90.29 
   4   5   1  730.03   81.19 
   4   5   1  635.34   82.19 
   4   5   1  704.23   85.69 
   4   5   1  667.53   78.49 
   4   5   1  818.82   85.69 
   4   5   1  665.13   80.39 
   4   5   1  581.54   82.49 
   4   5   1  656.33   84.59 
  -4  -5  -1  677.13   85.89 
  -4  -5  -1  736.83   86.19 
  -4  -5  -1  707.53   87.39 
  -4  -5  -1  793.62   83.19 
  -4  -5  -1  709.83   84.49 
  -4  -5  -1  549.65   81.89 
  -4  -5  -1  651.13   89.89 
  -4  -5  -1  665.63   82.99 
  -4  -5  -1  594.64   83.19 
   4   4   0 5519.35  610.14 
   4   4   0 6148.29  609.54 
   4   4   0 5957.20  605.64 
   4   4   0 4780.42  614.24 
   4   4   0 5545.05  606.34 
   4   4   0 5550.74  608.24 
   4   4   0 5669.03  610.74 
  -4  -4   0 6320.17  611.44 
  -4  -4   0 5534.65  609.44 
  -4  -4   0 5113.29  609.54 
  -4  -4   0 4986.40  612.04 
  -4  -4   0 4946.10  609.94 
  -4  -4   0 5341.37  613.64 
  -4  -4   0 4621.94  609.04 
  -4  -4   0 5744.53  608.34 
  -4  -4   0 5014.80  609.64 
   4   3  -1   13.40    4.20 
   4   3  -1    1.80    7.60 
   4   3  -1    2.10    4.50 
   4   3  -1    8.20    5.80 
   4   3  -1    3.10    8.20 
   4   3  -1    9.30    8.70 
   4   3  -1    6.10    5.90 
   4   3  -1    2.40    3.00 
   4   3  -1    1.10    4.80 
  -4  -3   1   19.20   12.70 
  -4  -3   1    5.80    6.10 
  -4  -3   1   -7.00    6.60 
  -4  -3   1    3.50    6.40 
  -4  -3   1    0.20    5.60 
  -4  -3   1    4.80    8.10 
  -4  -3   1    1.30    5.10 
  -4  -3   1   11.10    8.70 
   4   2  -2   95.19   12.20 
   4   2  -2  117.59   17.00 
   4   2  -2  110.39   12.50 
   4   2  -2   75.19   16.10 
   4   2  -2   88.79   13.70 
   4   2  -2   77.49   12.10 
   4   2  -2   90.89   19.80 
  -4  -2   2   80.19   16.40 
  -4  -2   2   97.19   22.80 
  -4  -2   2   51.29   14.50 
  -4  -2   2   59.79   14.40 
  -4  -2   2   80.89   18.30 
  -4  -2   2  104.09   15.50 
  -4  -2   2   88.49   16.00 
  -4  -2   2   85.69   15.80 
  -4  -2   2   64.69   14.70 
   4   1  -3 2014.20  227.78 
   4   1  -3 2357.86  227.08 
   4   1  -3 1953.80  229.48 
   4   1  -3 1985.20  231.08 
   4   1  -3 1926.11  226.68 
   4   1  -3 1914.31  227.78 
  -4  -1   3 2232.48  228.48 
  -4  -1   3 1767.42  227.58 
  -4  -1   3 1923.51  229.08 
  -4  -1   3 1996.60  226.38 
  -4  -1   3 1938.41  227.68 
  -4  -1   3 2134.29  227.78 
  -4  -1   3 1843.82  229.78 
  -4  -1   3 2142.39  235.78 
  -4  -1   3 2089.19  227.88 
  -4  -1   3 2104.69  229.38 
   4   0  -4 1419.96  181.08 
   4   0  -4 1614.64  182.48 
   4   0  -4 1505.65  185.08 
   4   0  -4 1683.13  181.28 
   4   0  -4 1460.95  182.88 
   4   0  -4 1776.12  181.98 
   4   0  -4 1723.73  181.28 
   4   0  -4 1648.94  181.48 
  -4   0   4 1629.64  181.98 
  -4   0   4 1477.25  181.18 
  -4   0   4 1584.24  183.58 
  -4   0   4 1491.75  182.38 
  -4   0   4 1754.82  182.68 
  -4   0   4 1569.04  181.18 
  -4   0   4 1606.64  182.28 
  -4   0   4 1629.64  184.38 
  -4   0   4 1879.11  188.98 
  -4   0   4 1642.24  182.48 
   4  -1  -5  788.22   99.59 
   4  -1  -5  958.70   96.89 
   4  -1  -5  771.42   96.79 
   4  -1  -5  937.81   97.79 
   4  -1  -5  871.71   97.49 
   4  -1  -5  824.02   96.69 
   4  -1  -5  883.11   94.69 
  -4   1   5  965.80  100.69 
  -4   1   5  822.32   98.79 
  -4   1   5  804.72   96.79 
  -4   1   5  755.12   95.29 
  -4   1   5  862.51   98.29 
  -4   1   5  823.42   96.69 
  -4   1   5  781.62   97.99 
  -4   1   5  981.00  105.59 
  -4   1   5  823.32   98.19 
   4  -2  -6   -5.80    4.80 
   4  -2  -6    8.00    6.00 
   4  -2  -6    3.40    3.30 
   4  -2  -6   16.40    6.80 
   4  -2  -6   -1.80    7.80 
   4  -2  -6   16.00    5.70 
  -4   2   6    1.40    1.60 
  -4   2   6    3.00    6.50 
  -4   2   6    3.20    7.30 
  -4   2   6    1.80    8.20 
  -4   2   6    7.00    5.80 
  -4   2   6   -1.20    6.70 
  -4   2   6    3.00    3.30 
  -4   2   6    8.50    8.20 
  -4   2   6    1.30    3.80 
  -4   2   6   -3.50    5.40 
   4  -3  -7    4.80    7.40 
   4  -3  -7   15.10    9.10 
   4  -3  -7    7.00    6.80 
   4  -3  -7    3.80    7.00 
   4  -3  -7   15.30    8.40 
  -4   3   7   12.90    9.10 
  -4   3   7   35.00   11.30 
  -4   3   7   14.30    9.30 
  -4   3   7   34.70   12.00 
  -4   3   7    8.50    4.80 
  -4   3   7    5.00    9.10 
  -4   3   7    7.00    5.50 
  -4   3   7   -4.60   10.50 
   4  -4  -8 1685.33  188.68 
   4  -4  -8 1694.43  188.48 
   4  -4  -8 1502.25  187.18 
   4  -4  -8 1531.25  187.88 
   4  -4  -8 1761.52  187.58 
  -4   4   8 1832.22  190.68 
  -4   4   8 1767.42  192.78 
  -4   4   8 1637.14  190.38 
  -4   4   8 1689.13  190.38 
  -4   4   8 1510.65  185.18 
  -4   4   8 1524.15  191.78 
  -4   4   8 1579.74  189.98 
   4  -5  -9  701.83   72.59 
   4  -5  -9  574.44   80.09 
   4  -5  -9  649.93   78.39 
   4  -5  -9  679.83   80.39 
   4  -5  -9  569.14   79.29 
  -4   5   9  607.44   83.69 
  -4   5   9  604.84   84.99 
  -4   5   9  799.52   83.99 
  -4   5   9  527.95   76.09 
  -4   5   9  752.42   86.09 
  -4   5   9  655.83   82.89 
  -4   5   9  664.43   83.29 
  -4   5   9  609.44   86.29 
   4  -6 -10  166.38   29.90 
   4  -6 -10  131.59   28.80 
   4  -6 -10  146.99   30.90 
   4  -6 -10  166.58   20.00 
   4  -6 -10  156.88   28.40 
  -4   6  10  176.28   35.70 
  -4   6  10  158.48   31.80 
  -4   6  10  101.89   34.10 
  -4   6  10  151.08   32.70 
  -4   6  10   98.79   30.60 
  -4   6  10  150.38   31.60 
   4  -7 -11   90.99   14.30 
   4  -7 -11   76.09   24.10 
   4  -7 -11  111.79   24.20 
  -4   7  11   59.09   28.30 
  -4   7  11   94.99   30.90 
  -4   7  11  101.59   27.60 
  -4   7  11   45.40   27.80 
  -4   7  11  103.29   32.80 
   4  -8 -12  117.29   35.40 
   4  -8 -12  209.28   26.20 
  -4   8  12  144.89   41.70 
  -4   8  12  177.58   44.40 
  -4   8  12  190.98   41.70 
  -4   8  12  177.08   44.50 
   5  10   5  151.58   40.40 
   5  10   5  116.49   34.60 
   5  10   5  168.28   25.10 
   5  10   5  128.79   21.60 
  -5 -10  -5  112.19   35.90 
  -5 -10  -5  197.38   43.50 
  -5 -10  -5  108.39   37.00 
  -5 -10  -5  161.38   37.30 
   5   9   4  336.67   50.59 
   5   9   4  385.66   60.39 
   5   9   4  369.36   61.79 
   5   9   4  503.05   55.29 
   5   9   4  532.25   66.89 
  -5  -9  -4  407.76   77.09 
  -5  -9  -4  468.25   67.09 
  -5  -9  -4  465.75   66.99 
  -5  -9  -4  430.56   76.09 
  -5  -9  -4  473.45   64.69 
  -5  -9  -4  416.96   61.09 
   5   8   3 1094.19  133.99 
   5   8   3  929.21  130.59 
   5   8   3 1243.48  129.79 
   5   8   3 1058.69  134.79 
   5   8   3 1002.00  125.29 
   5   8   3  900.61  132.29 
  -5  -8  -3 1363.36  138.39 
  -5  -8  -3 1242.88  139.99 
  -5  -8  -3  984.50  133.19 
  -5  -8  -3 1331.97  145.09 
  -5  -8  -3 1242.08  138.49 
   5   7   2   17.80   13.50 
   5   7   2   39.90   17.70 
   5   7   2   41.50   11.20 
   5   7   2    6.70   14.20 
   5   7   2   23.90    8.20 
   5   7   2   15.20   16.30 
  -5  -7  -2   34.70   40.30 
  -5  -7  -2   10.60   18.40 
  -5  -7  -2   31.70   23.00 
  -5  -7  -2    6.80   15.10 
  -5  -7  -2   19.30   14.60 
  -5  -7  -2   35.10   17.20 
  -5  -7  -2   45.40   24.30 
   5   6   1   15.60   17.10 
   5   6   1   35.40   10.30 
   5   6   1   -0.30   10.30 
   5   6   1   30.80   17.00 
   5   6   1    7.50    6.80 
   5   6   1   20.80   19.20 
   5   6   1   15.10   11.10 
   5   6   1    2.60   13.80 
  -5  -6  -1   11.40   15.80 
  -5  -6  -1   14.70   12.60 
  -5  -6  -1   28.10   14.10 
  -5  -6  -1   16.60   13.80 
  -5  -6  -1   22.80   13.00 
  -5  -6  -1   12.80   12.50 
  -5  -6  -1   -6.20   16.80 
  -5  -6  -1   14.90   26.30 
  -5  -6  -1   10.10   16.90 
   5   5   0  215.58   43.10 
   5   5   0  243.68   39.20 
   5   5   0  258.57   36.40 
   5   5   0  269.67   38.10 
   5   5   0  235.08   40.70 
   5   5   0  322.47   43.20 
   5   5   0  314.07   39.80 
   5   5   0  305.97   35.80 
  -5  -5   0  260.57   42.00 
  -5  -5   0  397.36   55.39 
  -5  -5   0  273.47   41.80 
  -5  -5   0  355.66   48.90 
  -5  -5   0  223.68   39.60 
  -5  -5   0  268.47   42.60 
  -5  -5   0  296.97   42.70 
  -5  -5   0  353.96   42.40 
   5   4  -1  705.03   81.99 
   5   4  -1  762.82   87.99 
   5   4  -1  850.31   92.89 
   5   4  -1  633.94   84.69 
   5   4  -1  672.03   81.89 
   5   4  -1  752.42   82.69 
   5   4  -1  674.63   83.19 
   5   4  -1  561.14   85.39 
  -5  -4   1  640.94   86.69 
  -5  -4   1  626.94   86.09 
  -5  -4   1  815.32   86.69 
  -5  -4   1  836.72   92.49 
  -5  -4   1  844.42   89.19 
  -5  -4   1  674.33   88.29 
  -5  -4   1  905.61   97.39 
  -5  -4   1  655.13   85.69 
   5   3  -2  502.05   63.29 
   5   3  -2  540.75   61.39 
   5   3  -2  498.35   65.39 
   5   3  -2  568.74   62.19 
   5   3  -2  528.15   61.09 
   5   3  -2  454.45   64.79 
   5   3  -2  521.45   60.59 
   5   3  -2  498.05   65.79 
  -5  -3   2  593.44   65.89 
  -5  -3   2  553.34   65.89 
  -5  -3   2  618.54   71.69 
  -5  -3   2  480.65   64.99 
  -5  -3   2  486.75   67.99 
  -5  -3   2  577.04   75.19 
  -5  -3   2  539.45   64.79 
  -5  -3   2  475.55   64.19 
   5   2  -3 3507.45  395.46 
   5   2  -3 3306.17  397.66 
   5   2  -3 3442.26  397.56 
   5   2  -3 3469.25  401.16 
   5   2  -3 4014.70  398.66 
   5   2  -3 3885.51  393.46 
   5   2  -3 3173.58  397.26 
   5   2  -3 3747.53  396.06 
  -5  -2   3 4045.40  398.26 
  -5  -2   3 3255.17  394.96 
  -5  -2   3 3029.50  397.76 
  -5  -2   3 4012.20  399.16 
  -5  -2   3 2980.60  404.66 
  -5  -2   3 3379.46  400.56 
  -5  -2   3 3638.94  397.56 
  -5  -2   3 3610.04  397.56 
   5   1  -4  123.39   25.50 
   5   1  -4  139.59   20.90 
   5   1  -4  143.29   17.20 
   5   1  -4  164.38   20.00 
   5   1  -4  153.58   19.80 
   5   1  -4  146.29   21.60 
   5   1  -4  129.59   20.70 
   5   1  -4  157.18   17.20 
   5   1  -4  164.28   22.10 
  -5  -1   4  129.49   23.10 
  -5  -1   4  161.48   18.90 
  -5  -1   4  113.19   29.10 
  -5  -1   4  144.79   26.90 
  -5  -1   4  120.29   19.00 
  -5  -1   4  125.19   22.30 
  -5  -1   4  141.59   21.70 
  -5  -1   4  129.49   22.10 
  -5  -1   4  154.88   22.20 
  -5  -1   4  159.28   23.00 
  -5  -1   4  158.68   21.40 
   5   0  -5    7.40    5.90 
   5   0  -5    1.20    3.50 
   5   0  -5   -3.30    4.50 
   5   0  -5    3.60    4.90 
   5   0  -5    1.80    9.90 
   5   0  -5   12.50    4.00 
   5   0  -5    0.70    3.20 
   5   0  -5   -1.50    2.70 
   5   0  -5    3.10    3.00 
  -5   0   5   -1.90    3.00 
  -5   0   5    4.20    5.40 
  -5   0   5    4.80    5.80 
  -5   0   5   10.90    7.10 
  -5   0   5   11.70    6.40 
  -5   0   5    2.60    8.70 
  -5   0   5    1.60    5.50 
  -5   0   5    8.80    7.30 
  -5   0   5   14.30   12.30 
  -5   0   5   -1.20    2.60 
  -5   0   5    1.60    4.40 
   5  -1  -6   41.60    8.10 
   5  -1  -6   66.39   14.50 
   5  -1  -6   24.50    6.40 
   5  -1  -6   18.70    3.50 
   5  -1  -6   22.40    6.00 
   5  -1  -6   28.10    6.30 
   5  -1  -6   26.70    8.00 
  -5   1   6    9.50    7.50 
  -5   1   6   17.30    5.70 
  -5   1   6   10.40    3.90 
  -5   1   6    5.70   10.90 
  -5   1   6    6.50    8.20 
  -5   1   6   11.00    9.80 
  -5   1   6   11.60    8.70 
   5  -2  -7  115.79   16.90 
   5  -2  -7  138.69   19.40 
   5  -2  -7  142.39   19.40 
   5  -2  -7  124.79   17.90 
   5  -2  -7  132.39   19.50 
   5  -2  -7  117.39   23.10 
  -5   2   7  103.09   21.90 
  -5   2   7  102.89   20.30 
  -5   2   7  117.09   16.80 
  -5   2   7  139.79   26.10 
  -5   2   7  106.19   14.70 
  -5   2   7  138.09   22.20 
  -5   2   7  113.89   17.90 
  -5   2   7  104.69   21.50 
  -5   2   7  126.29   24.90 
  -5   2   7  131.89   21.40 
   5  -3  -8  532.95   75.59 
   5  -3  -8  686.03   74.89 
   5  -3  -8  573.24   73.19 
   5  -3  -8  632.64   73.09 
   5  -3  -8  612.54   74.19 
  -5   3   8  737.23   77.59 
  -5   3   8  667.23   79.09 
  -5   3   8  643.24   76.39 
  -5   3   8  682.83   80.19 
  -5   3   8  587.24   72.79 
  -5   3   8  552.74   77.89 
  -5   3   8  558.34   76.59 
  -5   3   8  601.34   75.99 
   5  -4  -9  687.13   79.39 
   5  -4  -9  557.14   82.39 
   5  -4  -9  668.73   77.79 
   5  -4  -9  590.74   77.79 
  -5   4   9  781.82   83.99 
  -5   4   9  550.54   84.29 
  -5   4   9  644.04   81.69 
  -5   4   9  670.13   82.09 
  -5   4   9  588.84   80.29 
  -5   4   9  750.42   85.69 
   5  -5 -10   -9.80   14.70 
   5  -5 -10   11.70   13.00 
   5  -5 -10    7.30   15.50 
   5  -5 -10    4.80   11.20 
  -5   5  10   40.80   20.20 
  -5   5  10    1.30   13.20 
  -5   5  10   -7.80   16.00 
  -5   5  10    7.40   16.60 
  -5   5  10   18.70   14.80 
   5  -6 -11   13.30   16.50 
   5  -6 -11   19.00   14.40 
   5  -6 -11   28.60   20.80 
  -5   6  11   27.30   22.00 
  -5   6  11   15.20   17.40 
  -5   6  11   21.30   23.00 
  -5   6  11   45.80   20.80 
  -5   6  11   15.30   23.00 
   5  -7 -12   -4.00   17.00 
   5  -7 -12  -23.00   18.40 
  -5   7  12  -12.80   23.10 
  -5   7  12   27.00   31.00 
  -5   7  12  -29.30   25.30 
   6  10   4   24.00   11.90 
   6  10   4   -5.00   29.40 
   6  10   4   30.80   29.10 
  -6 -10  -4    3.70   26.30 
  -6 -10  -4  -20.20   27.80 
  -6 -10  -4   27.00   31.00 
  -6 -10  -4   30.60   24.30 
   6   9   3   34.30   23.70 
   6   9   3   48.90   15.50 
   6   9   3   47.10   27.00 
  -6  -9  -3   21.40   41.40 
  -6  -9  -3   61.49   27.90 
  -6  -9  -3   47.80   30.90 
  -6  -9  -3   86.69   28.10 
  -6  -9  -3   50.99   23.20 
   6   8   2  210.78   42.00 
   6   8   2  252.87   42.10 
   6   8   2  280.47   37.50 
   6   8   2  206.28   45.00 
  -6  -8  -2  301.47   50.79 
  -6  -8  -2  238.98   52.19 
  -6  -8  -2  263.07   54.79 
  -6  -8  -2  217.88   43.90 
  -6  -8  -2  201.08   42.50 
   6   7   1   13.60   22.50 
   6   7   1   14.20    7.00 
   6   7   1  -14.00   11.90 
   6   7   1   -3.10   17.70 
   6   7   1    0.70   11.80 
   6   7   1    3.00    7.00 
  -6  -7  -1   12.60   15.20 
  -6  -7  -1   -9.40   16.50 
  -6  -7  -1    8.40   12.10 
  -6  -7  -1   -4.90   22.80 
  -6  -7  -1    2.60   15.20 
   6   6   0 4719.53  497.75 
   6   6   0 4744.83  496.25 
   6   6   0 3690.33  490.25 
   6   6   0 4072.79  490.25 
   6   6   0 5026.80  498.35 
   6   6   0 4705.73  491.45 
  -6  -6   0 4253.37  496.45 
  -6  -6   0 3647.54  495.55 
  -6  -6   0 4209.18  497.95 
  -6  -6   0 5002.10  501.15 
   6   5  -1    8.10    9.00 
   6   5  -1   16.60    9.90 
   6   5  -1   41.30   15.30 
   6   5  -1   14.90    7.80 
   6   5  -1   18.00    6.20 
   6   5  -1   13.80    6.10 
   6   5  -1    9.70   17.60 
   6   5  -1   23.90   14.40 
  -6  -5   1   -1.60   15.30 
  -6  -5   1    9.00   13.20 
  -6  -5   1    5.30   19.40 
  -6  -5   1   25.20   22.00 
  -6  -5   1    7.00   17.10 
  -6  -5   1   -4.80   12.00 
  -6  -5   1   26.60   17.40 
  -6  -5   1    5.50   17.10 
   6   4  -2  746.83   98.89 
   6   4  -2  777.02   93.59 
   6   4  -2  845.42   94.69 
   6   4  -2 1017.60  102.59 
   6   4  -2  722.43   92.89 
   6   4  -2  746.23   98.59 
   6   4  -2  851.61  100.49 
   6   4  -2  876.31   95.49 
   6   4  -2  809.72   99.39 
  -6  -4   2  789.22  100.09 
  -6  -4   2  838.22   98.69 
  -6  -4   2 1016.90  101.19 
  -6  -4   2  834.82  104.89 
  -6  -4   2  756.12   99.59 
  -6  -4   2  847.42   99.29 
  -6  -4   2  747.93   99.59 
   6   3  -3   28.40   10.70 
   6   3  -3   36.50    8.60 
   6   3  -3   35.70   13.80 
   6   3  -3   37.00    5.60 
   6   3  -3   33.40   13.80 
   6   3  -3   34.30    5.90 
   6   3  -3   52.49   13.60 
  -6  -3   3   39.60   13.70 
  -6  -3   3   39.30    8.70 
  -6  -3   3   37.00   14.00 
  -6  -3   3   32.40   12.10 
  -6  -3   3   36.70   11.80 
  -6  -3   3   38.00   15.50 
  -6  -3   3   36.40   13.30 
  -6  -3   3   36.20   17.70 
  -6  -3   3   44.60   23.30 
  -6  -3   3   29.80   13.20 
   6   2  -4  424.76   50.29 
   6   2  -4  459.45   48.70 
   6   2  -4  389.76   49.99 
   6   2  -4  409.66   47.20 
   6   2  -4  394.66   54.49 
   6   2  -4  409.16   50.59 
   6   2  -4  400.26   48.20 
  -6  -2   4  403.16   49.90 
  -6  -2   4  380.76   50.29 
  -6  -2   4  381.16   46.90 
  -6  -2   4  372.36   50.49 
  -6  -2   4  357.46   46.90 
  -6  -2   4  424.06   50.49 
  -6  -2   4  347.17   51.09 
  -6  -2   4  319.17   49.50 
  -6  -2   4  365.66   61.29 
  -6  -2   4  479.25   53.59 
  -6  -2   4  341.87   57.99 
   6   1  -5    1.90   12.80 
   6   1  -5   17.20    6.10 
   6   1  -5   16.30    6.60 
   6   1  -5   30.00    9.30 
   6   1  -5   13.20    6.90 
   6   1  -5   11.90    5.50 
   6   1  -5   14.60    8.40 
  -6  -1   5   22.30    8.50 
  -6  -1   5   13.80    5.10 
  -6  -1   5   -6.50   12.20 
  -6  -1   5    9.60    9.10 
  -6  -1   5   12.10    8.30 
  -6  -1   5   12.10    5.10 
  -6  -1   5   17.20    9.10 
  -6  -1   5   11.70    9.30 
  -6  -1   5   23.60   18.80 
  -6  -1   5   12.80   12.10 
  -6  -1   5   22.90   11.30 
   6   0  -6 1281.47  147.79 
   6   0  -6 1279.67  147.19 
   6   0  -6 1291.17  148.09 
   6   0  -6 1420.26  146.09 
   6   0  -6 1464.55  148.49 
   6   0  -6 1175.38  152.18 
   6   0  -6 1155.78  147.89 
  -6   0   6 1183.58  150.58 
  -6   0   6 1314.17  153.58 
  -6   0   6 1369.56  148.89 
  -6   0   6 1349.07  148.89 
  -6   0   6 1157.38  147.99 
  -6   0   6 1243.08  149.29 
  -6   0   6 1446.16  149.39 
  -6   0   6 1453.75  150.88 
  -6   0   6 1513.75  159.88 
  -6   0   6 1317.37  154.38 
  -6   0   6 1173.18  145.99 
  -6   0   6 1156.08  146.99 
   6  -1  -7   30.40   10.30 
   6  -1  -7   34.80   12.00 
   6  -1  -7    9.30   15.00 
   6  -1  -7   54.49    8.70 
   6  -1  -7   53.09   10.90 
   6  -1  -7   40.60    8.80 
  -6   1   7   39.70   11.30 
  -6   1   7   63.39   14.80 
  -6   1   7  141.79   23.40 
  -6   1   7   52.29    8.00 
  -6   1   7   77.19   21.80 
  -6   1   7   26.70   15.70 
  -6   1   7   49.50   13.50 
  -6   1   7   45.00   14.80 
   6  -2  -8  233.08   29.70 
   6  -2  -8  207.58   32.00 
   6  -2  -8  241.48   37.10 
   6  -2  -8  259.87   29.30 
   6  -2  -8  196.98   29.60 
   6  -2  -8  232.18   31.30 
  -6   2   8  198.78   33.40 
  -6   2   8  275.67   35.30 
  -6   2   8  249.28   42.00 
  -6   2   8  189.98   33.30 
  -6   2   8  246.08   36.70 
  -6   2   8  246.78   35.50 
  -6   2   8  204.38   27.70 
  -6   2   8  242.18   37.60 
   6  -3  -9   14.80   16.90 
   6  -3  -9   11.90    9.20 
   6  -3  -9   -0.90    5.70 
   6  -3  -9   11.80   10.20 
  -6   3   9   15.20   12.00 
  -6   3   9   15.70   16.00 
  -6   3   9    4.00   13.70 
  -6   3   9   41.70   15.20 
  -6   3   9   32.40   20.30 
  -6   3   9   12.40   14.90 
   6  -4 -10  168.08   27.40 
   6  -4 -10  177.68   25.90 
   6  -4 -10  131.19   30.30 
   6  -4 -10  151.28   25.70 
  -6   4  10  166.88   33.20 
  -6   4  10  128.09   30.80 
  -6   4  10  121.09   27.50 
  -6   4  10  125.69   33.20 
  -6   4  10  190.18   36.30 
   6  -5 -11   28.50   14.60 
   6  -5 -11   11.80   14.80 
   6  -5 -11    2.60   16.70 
  -6   5  11   33.20   18.30 
  -6   5  11   20.60   19.70 
  -6   5  11    5.70   18.80 
  -6   5  11   29.10   23.90 
  -6   5  11   50.39   26.80 
  -6   5  11   20.40   21.00 
   6  -6 -12  860.51  104.39 
   6  -6 -12  749.23  103.19 
  -6   6  12  789.32  108.39 
  -6   6  12 1092.29  118.69 
  -6   6  12  931.41  110.69 
  -6   6  12  665.83  107.69 
  -6   6  12  875.01  112.39 
   7   9   2  201.68   44.10 
   7   9   2  247.38   35.30 
   7   9   2  142.99   36.50 
   7   9   2  249.88   32.90 
   7   9   2  213.48   39.60 
   7   9   2  228.68   30.80 
  -7  -9  -2  171.08   55.99 
  -7  -9  -2  134.19   45.40 
  -7  -9  -2  322.37   56.79 
   7   8   1  336.67   42.90 
   7   8   1  365.26   46.70 
   7   8   1  318.47   55.69 
   7   8   1  245.78   45.70 
   7   8   1  353.16   49.00 
  -7  -8  -1  422.66   70.19 
  -7  -8  -1  261.97   52.99 
  -7  -8  -1  388.66   61.49 
  -7  -8  -1  272.17   51.19 
   7   7   0  128.09   31.40 
   7   7   0   92.19   22.40 
   7   7   0  146.29   23.10 
   7   7   0  196.68   36.20 
   7   7   0  128.29   21.30 
   7   7   0  168.28   27.70 
   7   7   0  205.38   28.60 
  -7  -7   0  191.28   34.40 
  -7  -7   0  155.68   39.40 
  -7  -7   0  202.68   42.30 
  -7  -7   0  190.78   39.00 
  -7  -7   0  160.58   31.80 
   7   6  -1   17.10   19.90 
   7   6  -1    5.30    9.00 
   7   6  -1   -1.90    5.20 
   7   6  -1    5.10    9.70 
   7   6  -1   43.10   19.20 
   7   6  -1   22.10   12.40 
   7   6  -1   -0.80    5.70 
  -7  -6   1    8.50   21.00 
  -7  -6   1   23.60   29.50 
  -7  -6   1    2.30   19.20 
  -7  -6   1  -31.30   18.20 
  -7  -6   1   -3.50   10.30 
  -7  -6   1  -27.70   30.70 
  -7  -6   1   -5.40   14.50 
   7   5  -2   -6.40   14.60 
   7   5  -2   20.70    7.90 
   7   5  -2   50.09    8.50 
   7   5  -2    5.20   17.50 
   7   5  -2   25.00    6.50 
   7   5  -2   27.00   19.90 
   7   5  -2   16.20   15.00 
   7   5  -2   35.90    9.00 
  -7  -5   2   22.10   13.80 
  -7  -5   2   25.50   24.20 
  -7  -5   2   44.50   27.20 
  -7  -5   2   -2.70   24.80 
  -7  -5   2   -5.30   15.70 
  -7  -5   2   46.90   20.60 
  -7  -5   2   28.10   19.10 
  -7  -5   2    8.70   15.00 
   7   4  -3  368.86   54.89 
   7   4  -3  349.87   53.89 
   7   4  -3  336.77   52.69 
   7   4  -3  333.17   53.39 
   7   4  -3  391.66   48.30 
   7   4  -3  391.16   48.90 
  -7  -4   3  514.95   61.59 
  -7  -4   3  522.45   56.29 
  -7  -4   3  373.36   55.39 
  -7  -4   3  318.07   50.69 
  -7  -4   3  457.85   55.89 
  -7  -4   3  564.74   66.39 
   7   3  -4  666.23   85.19 
   7   3  -4  673.03   81.49 
   7   3  -4  587.94   84.39 
   7   3  -4  711.33   84.19 
   7   3  -4  718.83   82.79 
  -7  -3   4  810.42   86.29 
  -7  -3   4  612.74   84.79 
  -7  -3   4  663.63   83.99 
  -7  -3   4  671.93   86.99 
  -7  -3   4  768.12   92.89 
  -7  -3   4  744.53   89.09 
  -7  -3   4  735.23  100.49 
  -7  -3   4  793.32   89.19 
   7   2  -5  475.15   54.49 
   7   2  -5  485.15   55.79 
   7   2  -5  427.96   56.79 
   7   2  -5  459.65   55.59 
   7   2  -5  468.05   57.79 
   7   2  -5  395.86   62.69 
   7   2  -5  509.75   57.09 
  -7  -2   5  394.16   63.49 
  -7  -2   5  383.06   57.19 
  -7  -2   5  498.75   62.69 
  -7  -2   5  396.26   61.69 
  -7  -2   5  526.95   58.79 
  -7  -2   5  419.26   71.49 
  -7  -2   5  468.35   58.89 
  -7  -2   5  434.66   53.99 
  -7  -2   5  432.76   56.09 
   7   1  -6  331.47   42.00 
   7   1  -6  293.37   40.80 
   7   1  -6  267.77   48.40 
   7   1  -6  322.97   40.10 
   7   1  -6  312.87   44.60 
   7   1  -6  348.77   41.30 
  -7  -1   6  325.47   49.50 
  -7  -1   6  359.96   43.10 
  -7  -1   6  334.07   41.90 
  -7  -1   6  286.27   40.10 
  -7  -1   6  295.77   44.00 
  -7  -1   6  361.06   46.70 
  -7  -1   6  338.57   45.30 
  -7  -1   6  385.56   62.49 
  -7  -1   6  314.27   49.70 
   7   0  -7    1.40    5.10 
   7   0  -7    0.90    5.40 
   7   0  -7    2.40    7.40 
   7   0  -7    7.20    9.80 
   7   0  -7    6.00   17.00 
   7   0  -7    0.90    4.90 
   7   0  -7    8.90    7.60 
  -7   0   7  -28.50   11.70 
  -7   0   7   18.90   10.60 
  -7   0   7  -16.00   17.90 
  -7   0   7    0.10   15.00 
  -7   0   7   -2.70    8.10 
  -7   0   7   -2.10    4.50 
  -7   0   7   13.50   19.30 
  -7   0   7   -3.60    9.80 
   7  -1  -8   11.00   16.30 
   7  -1  -8    1.20   10.90 
   7  -1  -8   16.50    8.40 
   7  -1  -8    7.70    6.30 
  -7   1   8   30.60   13.60 
  -7   1   8    9.30    4.90 
  -7   1   8   26.20   14.30 
  -7   1   8  -19.20   14.50 
  -7   1   8    9.10   11.60 
  -7   1   8   13.20    9.30 
  -7   1   8    3.50   18.50 
   7  -2  -9  325.27   41.30 
   7  -2  -9  373.86   43.60 
   7  -2  -9  293.87   38.60 
   7  -2  -9  348.17   38.80 
  -7   2   9  350.86   47.50 
  -7   2   9  287.17   51.39 
  -7   2   9  474.05   54.49 
  -7   2   9  265.87   38.40 
  -7   2   9  322.37   45.70 
  -7   2   9  401.96   55.89 
  -7   2   9  373.46   47.70 
   7  -3 -10   22.20   10.00 
   7  -3 -10   25.60    8.90 
   7  -3 -10   24.60   10.30 
  -7   3  10   22.50   17.60 
  -7   3  10   13.50   15.40 
  -7   3  10   29.80   20.30 
  -7   3  10   37.80   24.80 
  -7   3  10   50.19   20.10 
   7  -4 -11  116.79   21.90 
   7  -4 -11   79.69   18.10 
   7  -4 -11   54.59   17.00 
  -7   4  11   84.69   23.30 
  -7   4  11   65.59   29.30 
  -7   4  11   70.59   28.50 
  -7   4  11   37.40   24.00 
  -7   4  11   93.29   28.40 
   7  -5 -12   20.90   19.10 
   7  -5 -12   34.20   18.70 
   7  -5 -12    8.60   14.00 
  -7   5  12   19.60   27.20 
  -7   5  12    4.30   19.30 
  -7   5  12   18.90   33.30 
  -7   5  12    5.30   27.30 
  -7   5  12   29.10   27.90 
   8   8   0  266.57   45.10 
   8   8   0  421.56   45.80 
   8   8   0  304.07   51.39 
   8   8   0  297.17   56.19 
   8   8   0  288.57   42.20 
   8   8   0  396.86   49.00 
  -8  -8   0  541.45   68.09 
  -8  -8   0  321.97   54.09 
  -8  -8   0  220.98   54.39 
   8   7  -1  239.38   34.50 
   8   7  -1  259.97   36.80 
   8   7  -1  377.56   40.30 
   8   7  -1  314.47   50.59 
  -8  -7   1  293.77   51.79 
  -8  -7   1  338.07   48.20 
   8   6  -2  206.78   41.20 
   8   6  -2  201.98   32.30 
   8   6  -2  262.97   33.70 
  -8  -6   2  213.08   39.50 
  -8  -6   2  311.77   47.50 
  -8  -6   2  332.77   47.50 
  -8  -6   2  473.55   73.89 
  -8  -6   2  198.28   43.40 
   8   5  -3 1196.18  145.49 
   8   5  -3 1413.16  142.49 
   8   5  -3 1228.18  141.79 
  -8  -5   3 1134.39  153.88 
  -8  -5   3 1085.99  142.99 
   8   4  -4 1106.69  144.99 
   8   4  -4 1152.88  141.29 
   8   4  -4 1093.49  143.69 
   8   4  -4 1280.47  142.99 
  -8  -4   4 1427.26  147.19 
  -8  -4   4 1179.68  143.79 
  -8  -4   4 1209.18  149.99 
  -8  -4   4 1531.45  152.68 
   8   3  -5   -1.90    4.60 
   8   3  -5    5.10   11.70 
   8   3  -5   13.20   15.40 
   8   3  -5    2.50   12.20 
   8   3  -5   19.70   12.80 
   8   3  -5    3.00    6.90 
  -8  -3   5   13.30   20.10 
  -8  -3   5  -10.90   25.20 
  -8  -3   5   26.40   19.90 
  -8  -3   5   18.30   17.60 
  -8  -3   5   -6.70   16.90 
  -8  -3   5    7.00   13.80 
  -8  -3   5    8.10   10.10 
   8   2  -6   40.00   10.70 
   8   2  -6   16.00   16.00 
   8   2  -6   26.30   12.00 
   8   2  -6   49.20   12.40 
   8   2  -6   51.99   11.70 
   8   2  -6   23.10   13.10 
  -8  -2   6   63.69   22.10 
  -8  -2   6   59.19   31.80 
  -8  -2   6   47.10   17.80 
  -8  -2   6   25.00   14.90 
  -8  -2   6   35.80   12.60 
  -8  -2   6   80.99   24.90 
  -8  -2   6   -4.90   18.90 
   8   1  -7  156.98   32.20 
   8   1  -7  189.28   29.20 
   8   1  -7  251.77   29.30 
   8   1  -7  219.48   27.40 
   8   1  -7  192.38   30.90 
   8   1  -7  167.28   27.20 
  -8  -1   7  164.18   26.10 
  -8  -1   7  185.88   29.50 
  -8  -1   7  168.48   38.40 
  -8  -1   7  175.68   45.30 
  -8  -1   7  248.38   32.20 
  -8  -1   7  188.08   48.20 
  -8  -1   7  263.67   36.90 
   8   0  -8  250.17   31.40 
   8   0  -8  276.17   32.60 
   8   0  -8  242.28   29.10 
  -8   0   8  278.27   36.20 
  -8   0   8  180.18   29.30 
  -8   0   8  208.58   43.50 
  -8   0   8  181.18   49.00 
   8  -1  -9  587.64   71.99 
  -8   1   9  676.83   81.49 
  -8   1   9  520.65   68.59 
  -8   1   9  495.45   81.19 
  -8   1   9  628.94   74.39 
  -8   1   9  558.04   75.09 
  -8   1   9  640.54   74.19 
  -8   1   9  705.03   88.59 
   8  -2 -10   10.90   12.70 
   8  -2 -10   -0.60    6.60 
  -8   2  10  -10.20   20.40 
  -8   2  10    2.10    5.40 
  -8   2  10   26.40   27.20 
  -8   2  10   -6.30   15.90 
  -8   2  10   -5.50   14.20 
  -8   2  10   24.20   19.30 
   8  -3 -11   -2.10    6.60 
   8  -3 -11   17.00   14.30 
  -8   3  11   -9.40   15.30 
  -8   3  11    9.90   23.20 
  -8   3  11   13.50   22.60 
  -8   3  11   26.50   22.40 
  -8   3  11   24.20   25.60 
   8  -4 -12  204.88   32.90 
  -8   4  12  148.59   37.40 
  -8   4  12  128.29   39.90 
  -8   4  12  184.18   42.50 
  -8   4  12  104.69   39.50 
   9   7  -2  285.27   36.40 
   9   7  -2  193.58   48.60 
  -9  -7   2  438.46   76.09 
  -9  -7   2  205.58   50.19 
  -9  -7   2  184.88   39.90 
  -9  -7   2  360.66   60.39 
   9   6  -3   56.99   14.80 
   9   6  -3   55.89   14.40 
   9   6  -3   57.89   24.50 
  -9  -6   3   66.69   29.10 
  -9  -6   3   23.20   25.20 
  -9  -6   3  107.49   33.80 
  -9  -6   3  114.59   51.09 
  -9  -6   3   67.79   19.10 
  -9  -6   3  135.29   42.60 
   9   5  -4  373.76   53.09 
   9   5  -4  430.66   61.19 
   9   5  -4  480.75   55.69 
  -9  -5   4  433.06   67.89 
  -9  -5   4  421.76   57.19 
  -9  -5   4  487.15   64.09 
   9   4  -5   44.20   11.50 
   9   4  -5   19.70    8.50 
   9   4  -5    0.50   16.60 
  -9  -4   5   -5.00   27.60 
  -9  -4   5   13.40   28.10 
  -9  -4   5   35.80   27.10 
  -9  -4   5  -24.50   17.90 
  -9  -4   5   37.60   36.70 
  -9  -4   5    3.90   25.40 
  -9  -4   5   -3.30   12.20 
   9   3  -6  434.36   67.69 
   9   3  -6  504.35   69.39 
   9   3  -6  518.55   64.59 
   9   3  -6  518.15   65.89 
   9   3  -6  491.15   68.19 
  -9  -3   6  489.55   92.09 
  -9  -3   6  581.84   81.89 
  -9  -3   6  470.85   72.19 
  -9  -3   6  550.34   66.79 
  -9  -3   6  656.63   69.89 
  -9  -3   6  645.14   77.89 
  -9  -3   6  582.34   78.29 
   9   2  -7   38.60   15.00 
   9   2  -7    9.20   12.90 
   9   2  -7   14.80   13.40 
   9   2  -7    5.10    7.80 
   9   2  -7   35.20   11.40 
  -9  -2   7   36.60   19.40 
  -9  -2   7   27.60   22.90 
  -9  -2   7   14.30   11.80 
  -9  -2   7    8.10   24.80 
  -9  -2   7   11.70   21.00 
  -9  -2   7   54.59   18.20 
   9   1  -8  409.46   48.70 
   9   1  -8  403.96   49.50 
   9   1  -8  343.97   47.20 
   9   1  -8  339.47   49.60 
  -9  -1   8  421.86   59.39 
  -9  -1   8  288.67   57.09 
  -9  -1   8  442.36   53.99 
  -9  -1   8  427.76   65.89 
  -9  -1   8  357.46   50.49 
   9   0  -9    6.20   12.60 
   9   0  -9    2.80    7.90 
   9   0  -9   14.90    8.70 
  -9   0   9    3.30   12.90 
  -9   0   9  -28.90   15.70 
  -9   0   9  -37.20   21.30 
  -9   0   9    3.90   16.40 
   9  -1 -10   64.59   18.50 
   9  -1 -10   88.59   17.90 
  -9   1  10   49.40   24.40 
  -9   1  10   78.19   38.20 
  -9   1  10  113.79   24.60 
  -9   1  10   72.59   34.50 
  -9   1  10  110.29   22.70 
   9  -2 -11   25.80   17.00 
   9  -2 -11   26.90   11.40 
  -9   2  11    3.40   35.30 
  -9   2  11   61.79   24.90 
  -9   2  11   67.79   24.20 
  -9   2  11   35.60   19.30 
  10   6  -4   25.60   11.10 
  10   6  -4    8.00    9.20 
  10   6  -4  -50.49   24.60 
 -10  -6   4   14.70   46.80 
 -10  -6   4   23.80   36.90 
 -10  -6   4   18.90   18.00 
 -10  -6   4   26.50   32.30 
  10   5  -5  107.59   24.40 
  10   5  -5  196.68   27.40 
  10   5  -5  106.79   31.00 
 -10  -5   5  135.49   28.10 
 -10  -5   5  184.98   37.70 
 -10  -5   5  246.68   48.60 
 -10  -5   5  369.96   71.79 
 -10  -5   5  119.39   50.69 
 -10  -5   5  312.67   55.09 
  10   4  -6  123.29   23.50 
  10   4  -6   94.49   21.50 
  10   4  -6   84.99   27.20 
 -10  -4   6  156.58   43.00 
 -10  -4   6  124.79   30.90 
 -10  -4   6  229.48   62.69 
 -10  -4   6  152.98   25.60 
 -10  -4   6  263.47   50.29 
  10   3  -7    0.30    8.30 
  10   3  -7   -4.90    8.40 
  10   3  -7   -0.40   15.80 
  10   3  -7   15.50   17.80 
 -10  -3   7    6.20   29.60 
 -10  -3   7  -53.39   40.20 
 -10  -3   7   18.30   30.90 
 -10  -3   7   -1.80   18.60 
  10   2  -8  402.86   49.10 
  10   2  -8  301.97   48.90 
  10   2  -8  355.06   49.10 
  10   2  -8  313.77   46.30 
 -10  -2   8  241.08   70.29 
 -10  -2   8  361.26   62.39 
 -10  -2   8  517.55   70.09 
 -10  -2   8  487.65   55.19 
  10   1  -9   95.29   19.60 
  10   1  -9  105.29   21.20 
 -10  -1   9   90.39   26.20 
 -10  -1   9   85.49   21.30 
 -10  -1   9   72.89   46.40 
 -10  -1   9   75.79   37.50 
  10   0 -10   63.19   16.90 
  10   0 -10   49.80   18.90 
 -10   0  10   88.99   22.10 
 -10   0  10   76.19   44.50 
 -10   0  10   26.10   34.90 
 -10   0  10   52.79   26.20 
 -10   1   9   94.39   24.40 
 -10   1   9   71.39   35.30 
 -10   1   9   76.79   31.10 
 -10   1   9   68.99   44.50 
  10  -1  -9   86.09   17.80 
  10  -1  -9   85.39   18.80 
 -10   0   8  -12.20   12.40 
 -10   0   8   13.90   16.50 
 -10   0   8   33.10   26.10 
 -10   0   8   -3.90   33.80 
 -10   0   8    0.60   16.60 
  10   0  -8    0.20    9.50 
  10   0  -8    2.80    6.90 
 -10  -1   7  254.07   44.30 
 -10  -1   7  287.37   37.60 
 -10  -1   7  243.88   33.70 
 -10  -1   7  107.69   49.30 
 -10  -1   7  161.68   44.60 
 -10  -1   7  234.78   42.00 
 -10  -2   6   33.80   35.50 
 -10  -2   6  -28.50   26.00 
 -10  -2   6   -1.40   24.50 
 -10  -2   6    1.60   10.70 
 -10  -2   6   31.80   15.40 
 -10  -2   6  -20.70   23.80 
  10   2  -6   42.50   16.50 
 -10  -3   5   18.70   16.40 
 -10  -3   5  -20.70   24.50 
 -10  -3   5  -27.60   33.50 
 -10  -3   5  -19.10   27.80 
 -10  -3   5   34.60   27.70 
 -10  -3   5   32.70   31.10 
 -10  -3   5   10.00   10.90 
  10   3  -5   21.80   18.10 
 -10  -4   4  337.37   48.20 
 -10  -4   4  388.56   63.99 
  10   4  -4  428.76   49.40 
  10   4  -4  325.17   50.59 
 -10  -5   3  185.18   46.00 
 -10  -5   3  166.38   31.80 
 -10  -5   3   78.29   24.60 
 -10  -5   3  200.98   59.39 
 -10  -5   3  215.38   41.10 
  10   5  -3   91.29   27.40 
  10   5  -3   96.39   21.80 
  10   5  -3  129.69   23.30 
 -10  -6   2  193.08   47.20 
 -10  -6   2  428.96   67.39 
 -10  -6   2  261.57   38.20 
 -10  -6   2  371.66   73.19 
  10   6  -2  198.88   30.90 
  10   6  -2  175.68   37.70 
  10   6  -2  193.68   32.10 
  -9   3  10  191.28   32.90 
  -9   3  10  108.99   30.90 
  -9   3  10  176.08   49.90 
  -9   3  10  130.99   27.40 
  -9   3  10  122.79   38.10 
   9  -3 -10  127.59   25.40 
  -9   2   9   73.69   15.10 
  -9   2   9   82.59   23.60 
  -9   2   9   96.59   20.70 
  -9   2   9   77.29   34.20 
  -9   2   9  101.89   24.10 
   9  -2  -9  110.19   19.20 
   9  -2  -9  103.39   19.90 
  -9   1   8  402.96   48.40 
  -9   1   8  277.87   55.89 
  -9   1   8  344.47   69.49 
  -9   1   8  438.76   58.09 
  -9   1   8  423.96   49.99 
  -9   1   8  346.07   45.10 
  -9   1   8  329.17   49.60 
   9  -1  -8  334.17   46.20 
   9  -1  -8  356.46   45.70 
  -9   0   7   -3.50   13.20 
  -9   0   7    8.10   32.80 
  -9   0   7   -3.50   18.60 
  -9   0   7   15.10   18.70 
  -9   0   7    0.90   10.50 
  -9   0   7   19.40   15.00 
  -9   0   7   18.70   14.80 
   9   0  -7   -0.80    9.00 
   9   0  -7   -6.60    3.90 
   9   0  -7    6.20    6.80 
  -9  -1   6  365.36   51.59 
  -9  -1   6  306.57   67.79 
  -9  -1   6  421.96   48.70 
  -9  -1   6  387.46   56.89 
  -9  -1   6  326.97   58.99 
  -9  -1   6  507.05   55.99 
  -9  -1   6  431.96   50.69 
   9   1  -6  321.07   50.59 
   9   1  -6  426.06   49.50 
   9   1  -6  350.76   47.80 
   9   1  -6  336.67   47.30 
  -9  -2   5   19.40   12.80 
  -9  -2   5   16.10   17.70 
  -9  -2   5   -6.60   18.60 
  -9  -2   5   25.90   10.10 
  -9  -2   5   10.30   22.50 
  -9  -2   5   13.10   21.50 
  -9  -2   5   14.00   28.10 
   9   2  -5   17.80    7.60 
   9   2  -5   10.10    9.20 
   9   2  -5   23.50   15.00 
   9   2  -5   19.60    8.30 
   9   2  -5   10.80   12.00 
  -9  -3   4  251.37   40.80 
  -9  -3   4  284.47   44.40 
  -9  -3   4  333.87   61.09 
  -9  -3   4  216.28   39.10 
  -9  -3   4  209.78   32.40 
  -9  -3   4  192.88   39.50 
  -9  -3   4  147.09   27.10 
   9   3  -4  185.58   29.10 
   9   3  -4  157.48   26.00 
   9   3  -4  176.58   26.90 
   9   3  -4  113.79   28.80 
   9   3  -4  197.48   30.10 
  -9  -4   3  141.39   28.70 
  -9  -4   3  202.78   35.00 
  -9  -4   3  117.99   37.60 
  -9  -4   3  274.17   44.10 
  -9  -4   3  159.18   28.00 
   9   4  -3  121.79   21.20 
   9   4  -3  124.29   26.30 
   9   4  -3  146.79   26.90 
   9   4  -3  119.89   23.20 
  -9  -5   2  198.08   36.10 
  -9  -5   2  516.75   75.19 
  -9  -5   2  223.48   47.80 
  -9  -5   2  304.27   43.70 
   9   5  -2  214.58   39.10 
   9   5  -2  260.37   34.50 
   9   5  -2  235.48   32.90 
  -9  -6   1  -23.80   21.50 
  -9  -6   1   13.50   30.80 
  -9  -6   1   46.10   22.00 
  -9  -6   1   -1.20   22.80 
  -9  -6   1   28.50   34.30 
   9   6  -1   22.10   18.90 
   9   6  -1   14.30    9.00 
  -9  -7   0  596.04   78.49 
  -9  -7   0  472.05   84.79 
  -9  -7   0  680.93   88.89 
   9   7   0  644.24   73.29 
   9   7   0  562.84   83.29 
   9   7   0  621.04   74.49 
  -8   5  11  137.29   34.10 
  -8   5  11  140.59   41.60 
  -8   5  11  181.98   38.30 
  -8   5  11  143.19   30.50 
   8  -5 -11  112.69   28.30 
  -8   4  10   13.20   14.20 
  -8   4  10   11.20   22.50 
  -8   4  10   10.20   23.00 
  -8   4  10   -0.90   21.40 
  -8   4  10   27.40   24.80 
   8  -4 -10   -3.90   14.20 
  -8   3   9   42.90   21.90 
  -8   3   9   41.80   15.80 
  -8   3   9    5.00   20.10 
  -8   3   9   34.50   19.10 
  -8   3   9   13.80   27.80 
  -8   3   9   -1.00   16.50 
   8  -3  -9   16.70    8.60 
   8  -3  -9   37.90   13.80 
  -8   2   8  409.86   59.89 
  -8   2   8  465.35   65.39 
  -8   2   8  589.74   75.89 
  -8   2   8  566.04   68.79 
  -8   2   8  506.55   71.39 
  -8   2   8  644.24   66.99 
   8  -2  -8  502.15   62.89 
   8  -2  -8  582.24   64.09 
  -8   1   7  191.68   28.70 
  -8   1   7  174.28   24.20 
  -8   1   7  211.08   33.90 
  -8   1   7  204.18   28.50 
  -8   1   7  143.79   33.60 
  -8   1   7  202.18   29.60 
  -8   1   7  173.68   43.10 
   8  -1  -7  144.29   33.10 
   8  -1  -7  172.58   25.10 
   8  -1  -7  174.18   26.50 
   8  -1  -7  186.28   27.80 
  -8   0   6  101.79   26.60 
  -8   0   6  113.09   21.40 
  -8   0   6  113.99   19.70 
  -8   0   6   80.69   15.50 
  -8   0   6  106.79   22.30 
  -8   0   6  115.19   22.90 
  -8   0   6  119.49   29.60 
  -8   0   6   84.09   31.30 
  -8   0   6  102.59   17.60 
   8   0  -6  104.19   16.60 
   8   0  -6  106.69   25.00 
   8   0  -6  111.39   16.70 
   8   0  -6   67.49   17.90 
  -8  -1   5  557.44   66.59 
  -8  -1   5  502.55   58.39 
  -8  -1   5  442.26   60.49 
  -8  -1   5  349.87   64.49 
  -8  -1   5  592.94   62.99 
  -8  -1   5  434.76   74.89 
   8   1  -5  491.95   60.59 
   8   1  -5  433.66   57.89 
   8   1  -5  467.65   57.59 
   8   1  -5  484.25   58.29 
   8   1  -5  490.95   58.39 
   8   1  -5  439.06   66.49 
   8   1  -5  577.94   60.29 
  -8  -2   4 1158.98  137.19 
  -8  -2   4 1109.69  130.39 
  -8  -2   4 1122.79  148.29 
  -8  -2   4 1116.39  131.99 
  -8  -2   4 1228.48  134.19 
  -8  -2   4 1216.68  138.99 
   8   2  -4 1109.69  130.89 
   8   2  -4 1167.88  130.39 
   8   2  -4 1269.47  132.29 
   8   2  -4 1084.99  130.29 
   8   2  -4 1075.19  131.99 
   8   2  -4 1006.60  130.99 
  -8  -3   3   34.10   22.00 
  -8  -3   3   87.69   17.80 
  -8  -3   3  125.89   26.70 
  -8  -3   3  148.29   31.70 
  -8  -3   3  102.79   40.30 
  -8  -3   3  123.99   21.70 
  -8  -3   3  114.69   22.30 
  -8  -3   3   96.79   24.10 
   8   3  -3  128.79   22.10 
   8   3  -3   71.09   18.10 
   8   3  -3  105.79   17.70 
   8   3  -3   64.69   15.00 
   8   3  -3   69.59   18.70 
   8   3  -3   86.69   18.60 
  -8  -4   2   -0.50   21.50 
  -8  -4   2    9.40   13.50 
  -8  -4   2   -2.90   24.30 
  -8  -4   2    4.30   15.20 
  -8  -4   2   17.20   15.40 
  -8  -4   2    2.70   21.60 
  -8  -4   2   20.40   10.40 
   8   4  -2    0.40    5.70 
   8   4  -2  -15.20   13.30 
   8   4  -2    1.80   12.70 
   8   4  -2    3.80    5.50 
   8   4  -2   34.60   15.70 
   8   4  -2   -6.30   12.30 
  -8  -5   1  469.95   55.79 
  -8  -5   1  246.38   54.49 
   8   5  -1  449.26   55.49 
   8   5  -1  350.06   51.59 
   8   5  -1  357.66   46.30 
   8   5  -1  389.16   53.89 
  -8  -6   0  400.56   58.19 
  -8  -6   0  476.85   58.39 
  -8  -6   0  259.67   55.09 
  -8  -6   0  382.16   52.19 
   8   6   0  415.86   47.10 
   8   6   0  344.57   52.89 
   8   6   0  297.77   44.50 
   8   6   0  428.66   56.89 
  -8  -7  -1  449.66   70.19 
  -8  -7  -1  565.74   75.39 
  -8  -7  -1  361.86   61.69 
  -8  -7  -1  593.64   80.69 
   8   7   1  407.46   56.59 
   8   7   1  491.75   62.59 
  -8  -8  -2   -3.80   22.80 
  -8  -8  -2   74.79   37.30 
  -8  -8  -2   25.70   20.30 
  -8  -8  -2  -11.80   25.20 
   8   8   2   16.80    7.80 
   8   8   2  -16.30   21.80 
   8   8   2   -1.00    5.30 
   8   8   2   -0.90   12.30 
   8   8   2  -16.40   14.10 
  -7   6  11   -1.90   17.60 
  -7   6  11  -19.50   28.40 
  -7   6  11    9.80   25.20 
  -7   6  11   -5.20   26.00 
  -7   6  11  -13.60   23.50 
   7  -6 -11   -6.10   13.50 
   7  -6 -11   18.20   17.70 
   7  -6 -11  -41.30   15.50 
  -7   5  10   43.60   18.40 
  -7   5  10   -5.40   23.30 
  -7   5  10  -19.30   19.70 
   7  -5 -10   12.10   13.80 
   7  -5 -10   -4.20   17.80 
  -7   4   9  155.78   33.20 
  -7   4   9  195.48   30.30 
  -7   4   9  172.28   32.30 
  -7   4   9  232.88   34.20 
  -7   4   9  165.28   28.50 
   7  -4  -9  139.49   20.40 
   7  -4  -9  118.39   24.90 
   7  -4  -9  161.98   33.10 
   7  -4  -9  136.59   20.50 
  -7   3   8  871.31   94.69 
  -7   3   8  696.93   96.99 
  -7   3   8  719.03   94.39 
  -7   3   8  888.21  100.79 
  -7   3   8  826.22   97.29 
   7  -3  -8  776.42   92.19 
   7  -3  -8  687.03   95.39 
  -7   2   7  415.56   47.30 
  -7   2   7  392.96   47.90 
  -7   2   7  383.86   52.29 
  -7   2   7  376.06   50.59 
  -7   2   7  398.06   54.89 
  -7   2   7  288.77   42.30 
  -7   2   7  413.26   48.00 
   7  -2  -7  327.07   45.30 
   7  -2  -7  340.67   53.59 
   7  -2  -7  383.46   44.50 
   7  -2  -7  332.17   44.90 
  -7   1   6  329.37   41.40 
  -7   1   6  354.46   42.90 
  -7   1   6  333.57   36.20 
  -7   1   6  330.27   40.20 
  -7   1   6  281.97   40.10 
  -7   1   6  300.77   39.30 
  -7   1   6  417.76   52.79 
  -7   1   6  248.98   36.50 
  -7   1   6  241.88   43.60 
   7  -1  -6  218.58   44.50 
   7  -1  -6  308.67   38.50 
   7  -1  -6  261.57   38.50 
   7  -1  -6  382.76   39.50 
   7  -1  -6  307.77   38.60 
  -7   0   5    3.60    4.00 
  -7   0   5  -11.40    8.80 
  -7   0   5   -0.60    6.00 
  -7   0   5   -5.50   17.10 
  -7   0   5   -7.90   10.30 
  -7   0   5   11.00    8.00 
  -7   0   5   -4.80    8.30 
  -7   0   5    3.90   12.00 
   7   0  -5    1.00    3.30 
   7   0  -5   -7.20    4.70 
   7   0  -5    3.00    8.10 
   7   0  -5    7.90    6.20 
   7   0  -5    0.60    4.40 
   7   0  -5    9.00   13.40 
  -7  -1   4  240.08   29.20 
  -7  -1   4  203.28   43.90 
  -7  -1   4  229.78   38.40 
  -7  -1   4  191.28   27.70 
  -7  -1   4  195.28   36.00 
  -7  -1   4  186.48   30.50 
  -7  -1   4  162.18   34.90 
   7   1  -4  227.98   38.60 
   7   1  -4  203.78   28.70 
   7   1  -4  257.17   28.90 
   7   1  -4  257.97   29.90 
   7   1  -4  210.18   28.10 
   7   1  -4  245.78   30.80 
   7   1  -4  230.38   29.30 
  -7  -2   3  775.62   94.99 
  -7  -2   3  853.31   96.59 
  -7  -2   3  769.62   92.39 
  -7  -2   3  890.81   94.09 
  -7  -2   3  788.12   91.09 
  -7  -2   3  702.83   90.19 
  -7  -2   3  793.42  107.49 
  -7  -2   3  943.01   92.99 
   7   2  -3  773.42   90.19 
   7   2  -3  711.43   91.09 
   7   2  -3  713.43   91.09 
   7   2  -3  754.02   92.29 
   7   2  -3  753.52   91.59 
   7   2  -3  772.82   91.19 
  -7  -3   2  498.25   58.79 
  -7  -3   2  480.75   61.79 
  -7  -3   2  450.95   58.39 
  -7  -3   2  553.44   62.19 
  -7  -3   2  591.94   59.19 
  -7  -3   2  449.56   55.99 
   7   3  -2  374.66   55.89 
   7   3  -2  419.76   53.69 
   7   3  -2  423.46   57.09 
   7   3  -2  382.96   55.69 
   7   3  -2  441.96   54.79 
  -7  -4   1  506.55   65.39 
  -7  -4   1  498.25   67.79 
  -7  -4   1  441.76   68.49 
   7   4  -1  502.65   66.59 
   7   4  -1  556.14   63.49 
   7   4  -1  552.34   67.59 
   7   4  -1  557.54   62.89 
   7   4  -1  492.75   68.89 
   7   4  -1  592.74   70.59 
  -7  -5   0  139.69   36.90 
  -7  -5   0   97.49   22.90 
  -7  -5   0   53.89   22.20 
  -7  -5   0  137.19   37.40 
  -7  -5   0  137.59   29.20 
  -7  -5   0  121.39   25.20 
   7   5   0  118.99   17.60 
   7   5   0  169.28   32.20 
   7   5   0  123.79   26.20 
   7   5   0   84.79   24.60 
   7   5   0   81.39   22.90 
   7   5   0  134.99   25.80 
   7   5   0   95.89   16.00 
  -7  -6  -1  -24.10   15.80 
  -7  -6  -1    4.40   14.30 
  -7  -6  -1   26.90   19.20 
  -7  -6  -1    3.20   21.60 
  -7  -6  -1   45.40   37.30 
  -7  -6  -1    5.20   15.90 
   7   6   1    9.40    6.20 
   7   6   1   21.10   16.50 
   7   6   1    2.10    8.90 
   7   6   1    0.20    7.40 
   7   6   1   11.60    9.20 
   7   6   1   -3.70   16.00 
   7   6   1   15.00    6.40 
  -7  -7  -2  -21.40   16.90 
  -7  -7  -2   13.40   23.10 
  -7  -7  -2  -20.20   14.20 
  -7  -7  -2  -14.80   22.00 
  -7  -7  -2   18.20   19.70 
   7   7   2  -11.50   20.80 
   7   7   2    6.90    6.80 
   7   7   2   16.30   11.40 
   7   7   2   -4.40   12.20 
   7   7   2   -2.80   18.90 
   7   7   2   20.90    7.60 
   7   7   2    6.30   10.50 
  -7  -8  -3  305.17   55.39 
  -7  -8  -3  161.08   41.80 
  -7  -8  -3  308.07   54.29 
  -7  -8  -3  174.88   49.80 
  -7  -8  -3  243.98   45.50 
   7   8   3  224.58   31.60 
   7   8   3  180.88   35.30 
   7   8   3  248.48   40.30 
   7   8   3  323.07   38.70 
   7   8   3  205.58   42.10 
   7   8   3  258.07   33.20 
  -7  -9  -4  346.57   57.69 
  -7  -9  -4  218.68   52.19 
  -7  -9  -4  334.37   66.09 
  -7  -9  -4  356.16   65.99 
  -7  -9  -4  370.46   64.09 
   7   9   4  361.06   46.60 
   7   9   4  245.98   55.49 
   7   9   4  458.25   51.29 
   7   9   4  367.16   56.09 
  -6   7  11   35.00   24.70 
  -6   7  11  -24.90   28.00 
  -6   7  11   33.30   34.80 
  -6   7  11  -33.60   22.30 
   6  -7 -11  -12.50   15.80 
   6  -7 -11    5.80   21.70 
   6  -7 -11   -2.50   22.10 
  -6   6  10  119.39   30.60 
  -6   6  10   33.30   42.80 
  -6   6  10   81.49   25.30 
  -6   6  10  122.49   35.10 
  -6   6  10   97.79   25.20 
  -6   6  10   46.00   28.20 
   6  -6 -10  103.99   20.90 
   6  -6 -10   88.49   23.20 
   6  -6 -10  108.99   23.60 
  -6   5   9   88.79   23.80 
  -6   5   9  109.59   24.90 
  -6   5   9   94.59   24.30 
  -6   5   9  123.59   25.20 
  -6   5   9  114.39   30.30 
  -6   5   9   82.29   25.60 
   6  -5  -9  103.49   19.20 
   6  -5  -9   70.29   23.10 
   6  -5  -9  105.29   20.20 
   6  -5  -9  109.09   23.40 
  -6   4   8   96.89   23.80 
  -6   4   8   40.90   18.40 
  -6   4   8   65.09   20.10 
  -6   4   8   82.49   18.60 
  -6   4   8   78.29   20.70 
  -6   4   8   76.89   24.30 
  -6   4   8   70.79   20.50 
   6  -4  -8   77.09   14.30 
   6  -4  -8   72.29   20.30 
   6  -4  -8   79.29   17.40 
  -6   3   7   25.40   13.70 
  -6   3   7   30.10   16.10 
  -6   3   7   32.00   15.20 
  -6   3   7   27.50   11.10 
  -6   3   7   21.20   13.90 
  -6   3   7   23.10   10.50 
  -6   3   7   20.60   11.20 
   6  -3  -7   15.90    6.70 
   6  -3  -7   27.70   10.20 
   6  -3  -7   12.40    6.60 
   6  -3  -7   13.30    5.70 
   6  -3  -7    7.80   13.70 
   6  -3  -7   11.60    7.90 
  -6   2   6  764.92   98.19 
  -6   2   6  767.12   97.39 
  -6   2   6  885.31   97.69 
  -6   2   6  895.71  100.99 
  -6   2   6  828.32   99.19 
  -6   2   6  849.22   97.49 
  -6   2   6  886.01   97.69 
  -6   2   6  711.03   93.89 
  -6   2   6 1012.90  104.09 
   6  -2  -6  794.42   99.79 
   6  -2  -6  872.61   95.89 
   6  -2  -6  802.92   96.09 
  -6   1   5    8.40    3.80 
  -6   1   5   25.10    6.10 
  -6   1   5   35.80    8.80 
  -6   1   5   14.10    7.50 
  -6   1   5   -0.60   11.50 
  -6   1   5   11.50    8.00 
  -6   1   5    9.20    7.90 
  -6   1   5    9.30    9.80 
  -6   1   5   14.00    8.20 
  -6   1   5    1.50    5.80 
  -6   1   5    8.60    5.70 
   6  -1  -5   11.00    7.50 
   6  -1  -5    9.20    4.50 
   6  -1  -5    6.90   10.60 
   6  -1  -5    5.00    4.60 
   6  -1  -5   11.70    6.20 
  -6   0   4 3410.86  435.76 
  -6   0   4 4174.78  433.76 
  -6   0   4 3592.84  432.96 
  -6   0   4 4134.59  433.16 
  -6   0   4 4438.06  434.56 
  -6   0   4 4169.38  434.86 
  -6   0   4 3504.85  432.16 
  -6   0   4 3810.72  436.86 
  -6   0   4 4072.89  433.76 
  -6   0   4 3470.35  433.56 
  -6   0   4 3591.14  442.16 
   6   0  -4 4474.75  434.06 
   6   0  -4 4128.49  433.26 
   6   0  -4 3626.64  437.46 
   6   0  -4 4105.99  432.36 
   6   0  -4 3282.17  432.86 
   6   0  -4 3928.91  432.36 
   6   0  -4 3773.32  432.56 
  -6  -1   3  410.66   54.69 
  -6  -1   3  394.06   62.89 
  -6  -1   3  438.56   51.29 
  -6  -1   3  496.25   52.99 
  -6  -1   3  408.66   51.09 
  -6  -1   3  458.75   54.69 
  -6  -1   3  406.96   54.79 
  -6  -1   3  358.46   54.99 
  -6  -1   3  402.66   50.69 
  -6  -1   3  398.06   51.39 
   6   1  -3  489.75   51.99 
   6   1  -3  495.75   52.39 
   6   1  -3  449.86   58.09 
   6   1  -3  430.46   51.09 
   6   1  -3  407.56   52.39 
  -6  -2   2  968.70  122.29 
  -6  -2   2  883.61  121.79 
  -6  -2   2 1123.39  124.49 
  -6  -2   2 1024.30  118.79 
  -6  -2   2  935.41  118.49 
  -6  -2   2 1027.10  119.69 
  -6  -2   2  910.81  121.99 
  -6  -2   2 1224.88  120.89 
  -6  -2   2 1121.19  121.39 
  -6  -2   2 1100.89  132.29 
   6   2  -2 1132.69  118.69 
   6   2  -2  965.60  119.89 
   6   2  -2  967.60  120.19 
   6   2  -2 1066.69  119.99 
   6   2  -2 1043.70  119.29 
   6   2  -2 1008.60  122.39 
   6   2  -2 1235.28  126.69 
  -6  -3   1   12.80   10.50 
  -6  -3   1   13.60   10.30 
  -6  -3   1   12.20    9.90 
  -6  -3   1   13.70    5.70 
  -6  -3   1    4.70   10.80 
  -6  -3   1   12.20    9.60 
  -6  -3   1   31.00   18.10 
  -6  -3   1    5.70    7.60 
  -6  -3   1   19.90    9.40 
   6   3  -1   15.90    9.00 
   6   3  -1   10.50    9.40 
   6   3  -1   23.40    9.50 
   6   3  -1   12.20   10.10 
   6   3  -1    5.20    9.90 
   6   3  -1   14.20    5.40 
   6   3  -1    5.60    4.40 
  -6  -4   0    7.80    7.90 
  -6  -4   0   18.00   12.90 
  -6  -4   0   -8.70   11.40 
  -6  -4   0   23.60   11.10 
  -6  -4   0    8.20   17.90 
  -6  -4   0   12.10   11.10 
  -6  -4   0    1.10   10.90 
  -6  -4   0   24.20   15.50 
  -6  -4   0   15.90   11.60 
   6   4   0    1.00    4.10 
   6   4   0   19.00   11.00 
   6   4   0   14.90   11.30 
   6   4   0   -5.10   10.10 
   6   4   0   10.80    3.40 
   6   4   0   15.10    5.50 
   6   4   0    8.70    4.40 
   6   4   0   17.40    9.70 
   6   4   0   -0.50   11.60 
  -6  -5  -1   26.20   18.40 
  -6  -5  -1   -0.20   12.20 
  -6  -5  -1   23.60   15.00 
  -6  -5  -1   29.40   11.20 
  -6  -5  -1   22.60   25.90 
  -6  -5  -1    2.90   13.70 
  -6  -5  -1   10.50   12.20 
  -6  -5  -1   46.30   19.00 
   6   5   1    1.80   11.20 
   6   5   1   10.90    6.10 
   6   5   1   11.90    6.00 
   6   5   1   -0.80   12.40 
   6   5   1    5.00    7.60 
   6   5   1   18.20    8.40 
   6   5   1   39.80   17.80 
   6   5   1   11.60    6.80 
  -6  -6  -2  629.54   84.09 
  -6  -6  -2  533.35   69.39 
  -6  -6  -2  474.55   62.39 
  -6  -6  -2  423.96   64.19 
  -6  -6  -2  353.86   63.29 
  -6  -6  -2  363.96   64.69 
   6   6   2  410.56   62.99 
   6   6   2  582.14   61.09 
   6   6   2  418.26   61.49 
   6   6   2  373.26   55.99 
   6   6   2  517.55   56.39 
   6   6   2  454.65   54.79 
   6   6   2  495.35   58.99 
  -6  -7  -3   13.30   18.50 
  -6  -7  -3   52.09   22.80 
  -6  -7  -3   53.69   24.30 
  -6  -7  -3   32.90   15.10 
  -6  -7  -3   16.60   16.60 
   6   7   3   38.70   12.00 
   6   7   3   40.80    9.90 
   6   7   3   29.30   17.00 
   6   7   3   38.20   15.50 
   6   7   3   24.50   16.70 
   6   7   3   63.39   21.20 
  -6  -8  -4   18.90   21.20 
  -6  -8  -4   15.00   23.30 
  -6  -8  -4   66.39   25.40 
  -6  -8  -4   26.00   17.20 
  -6  -8  -4   53.79   35.20 
  -6  -8  -4   23.90   31.60 
   6   8   4   61.79   21.90 
   6   8   4   56.99   11.50 
   6   8   4   40.60   19.50 
   6   8   4   41.90   23.90 
   6   8   4   18.40   20.30 
   6   8   4   61.69   14.70 
  -6  -9  -5    4.30   24.90 
  -6  -9  -5  -15.20   22.50 
  -6  -9  -5    5.00   20.30 
  -6  -9  -5  -32.70   19.00 
   6   9   5   20.30   10.40 
   6   9   5   -4.30   19.70 
   6   9   5  -13.40    7.10 
  -5   8  11  142.49   33.90 
  -5   8  11  136.09   41.00 
   5  -8 -11  149.69   30.40 
   5  -8 -11  130.99   31.70 
  -5   7  10  -39.70   22.60 
  -5   7  10   17.50   20.40 
  -5   7  10   47.60   24.60 
  -5   7  10   38.50   33.40 
  -5   7  10   -0.70   16.70 
  -5   7  10    2.80   21.90 
   5  -7 -10   20.00   17.50 
   5  -7 -10   27.10   21.90 
   5  -7 -10   27.00   16.10 
  -5   6   9   68.09   24.90 
  -5   6   9  123.99   24.70 
  -5   6   9   61.39   21.70 
  -5   6   9   87.69   23.60 
  -5   6   9  131.19   30.40 
   5  -6  -9   89.79   22.40 
   5  -6  -9  130.69   25.30 
   5  -6  -9   85.39   20.30 
   5  -6  -9   98.29   24.20 
  -5   5   8   90.09   22.10 
  -5   5   8   96.99   20.10 
  -5   5   8   48.40   18.30 
  -5   5   8   63.69   25.10 
  -5   5   8   57.19   19.80 
  -5   5   8   75.69   20.60 
  -5   5   8   69.49   21.60 
   5  -5  -8   83.89   19.00 
   5  -5  -8   78.69   17.30 
   5  -5  -8   49.70   16.70 
   5  -5  -8   49.40   14.40 
  -5   4   7  320.47   43.80 
  -5   4   7  220.38   35.90 
  -5   4   7  306.17   40.70 
  -5   4   7  304.37   39.40 
  -5   4   7  263.37   43.10 
  -5   4   7  297.87   40.80 
  -5   4   7  314.77   42.20 
  -5   4   7  283.57   40.80 
   5  -4  -7  319.27   38.90 
   5  -4  -7  268.97   38.30 
   5  -4  -7  280.47   37.00 
   5  -4  -7  282.77   39.70 
  -5   3   6  184.18   25.10 
  -5   3   6  150.98   25.80 
  -5   3   6  186.38   26.60 
  -5   3   6  199.78   30.70 
  -5   3   6  170.68   26.90 
  -5   3   6  169.58   23.30 
  -5   3   6  189.98   27.90 
  -5   3   6  126.79   28.70 
   5  -3  -6  195.78   24.40 
   5  -3  -6  173.28   24.00 
   5  -3  -6  162.78   26.90 
   5  -3  -6  200.68   24.50 
   5  -3  -6  245.58   27.30 
   5  -3  -6  172.68   25.30 
  -5   2   5  773.42  101.49 
  -5   2   5  967.30  102.89 
  -5   2   5  760.82   96.39 
  -5   2   5  825.42   98.29 
  -5   2   5  873.01   98.89 
  -5   2   5  899.01   99.29 
  -5   2   5  907.91   98.69 
  -5   2   5  866.51   98.79 
  -5   2   5  881.91  100.89 
   5  -2  -5  830.02   95.59 
   5  -2  -5  880.21   97.89 
   5  -2  -5  809.92  100.39 
   5  -2  -5  851.71   97.49 
   5  -2  -5  887.61   97.29 
   5  -2  -5  771.62   95.59 
  -5   1   4  166.18   21.00 
  -5   1   4  161.88   22.70 
  -5   1   4  150.28   21.00 
  -5   1   4  164.98   21.70 
  -5   1   4  136.79   20.00 
  -5   1   4  161.28   22.30 
  -5   1   4  207.58   29.30 
  -5   1   4  148.39   20.80 
  -5   1   4  148.79   19.70 
  -5   1   4  142.49   20.50 
  -5   1   4  127.49   19.00 
  -5   1   4  128.29   18.40 
   5  -1  -4  157.88   19.90 
   5  -1  -4  141.29   19.90 
   5  -1  -4  174.78   25.30 
   5  -1  -4  145.09   19.60 
  -5   0   3    4.90    7.00 
  -5   0   3    8.20    5.40 
  -5   0   3    4.70   11.30 
  -5   0   3    2.60    3.40 
  -5   0   3    2.20    2.70 
  -5   0   3   20.40    7.70 
  -5   0   3   10.70    5.60 
  -5   0   3    5.00    4.50 
  -5   0   3    1.50    2.80 
   5   0  -3   -0.40    2.60 
   5   0  -3    6.90    4.00 
   5   0  -3   -2.20    2.90 
   5   0  -3   -3.90    5.10 
   5   0  -3    1.70    2.20 
   5   0  -3    0.40    8.30 
  -5  -1   2   60.79   14.00 
  -5  -1   2   66.49   10.90 
  -5  -1   2   59.79   12.20 
  -5  -1   2   57.19    9.00 
  -5  -1   2   60.39   10.70 
  -5  -1   2   57.89   10.00 
  -5  -1   2   56.79   10.40 
  -5  -1   2   40.30   18.00 
  -5  -1   2   39.90   10.60 
  -5  -1   2   59.49   13.10 
   5   1  -2   59.79   10.50 
   5   1  -2   36.50   11.70 
   5   1  -2   55.59    9.00 
   5   1  -2   61.79   11.00 
   5   1  -2   39.80   15.10 
  -5  -2   1  581.44   66.09 
  -5  -2   1  453.35   67.19 
  -5  -2   1  621.44   74.99 
  -5  -2   1  494.05   66.69 
  -5  -2   1  670.63   67.89 
  -5  -2   1  495.65   65.99 
  -5  -2   1  646.04   66.69 
  -5  -2   1  559.24   64.29 
   5   2  -1  532.15   65.49 
   5   2  -1  567.84   69.79 
   5   2  -1  490.75   65.49 
   5   2  -1  593.04   64.09 
   5   2  -1  583.34   66.49 
   5   2  -1  559.24   65.79 
   5   2  -1  496.35   65.99 
  -5  -3   0 1594.94  162.78 
  -5  -3   0 1306.67  152.68 
  -5  -3   0 1299.97  154.08 
  -5  -3   0 1321.87  157.68 
  -5  -3   0 1173.78  154.18 
  -5  -3   0 1337.07  152.08 
  -5  -3   0 1146.99  154.58 
  -5  -3   0 1508.55  154.98 
  -5  -3   0 1150.68  154.78 
   5   3   0 1381.36  150.18 
   5   3   0 1283.67  153.98 
   5   3   0 1401.06  154.98 
   5   3   0 1405.16  152.28 
   5   3   0 1413.56  157.18 
   5   3   0 1414.66  151.48 
   5   3   0 1328.57  149.79 
   5   3   0 1342.47  154.88 
   5   3   0 1403.06  155.08 
  -5  -4  -1  832.22   84.69 
  -5  -4  -1  738.63   93.19 
  -5  -4  -1  653.93   87.09 
  -5  -4  -1  712.93   87.79 
  -5  -4  -1  681.13   83.29 
  -5  -4  -1  787.52   93.29 
  -5  -4  -1  648.64   88.89 
  -5  -4  -1  808.62   88.09 
  -5  -4  -1  736.43   86.99 
   5   4   1  783.32   83.69 
   5   4   1  671.93   86.99 
   5   4   1  627.54   83.39 
   5   4   1  633.14   87.99 
   5   4   1  719.83   87.29 
   5   4   1  686.93   82.59 
   5   4   1  866.81   88.99 
  -5  -5  -2   11.50   10.70 
  -5  -5  -2    3.10   10.20 
  -5  -5  -2   12.10    6.10 
  -5  -5  -2   27.00   23.70 
  -5  -5  -2   18.40   11.10 
  -5  -5  -2  -15.00   11.20 
  -5  -5  -2    9.30   13.10 
   5   5   2    8.80    9.20 
   5   5   2    5.40   12.30 
   5   5   2  -17.00   12.00 
   5   5   2    6.40   11.40 
   5   5   2   15.60    8.00 
   5   5   2    7.10    6.00 
  -5  -6  -3  263.57   44.40 
  -5  -6  -3  305.17   45.50 
  -5  -6  -3  261.67   50.59 
  -5  -6  -3  366.16   49.70 
  -5  -6  -3  314.67   46.80 
   5   6   3  323.47   49.40 
   5   6   3  338.27   46.90 
   5   6   3  278.27   43.80 
   5   6   3  315.67   44.60 
   5   6   3  302.97   42.10 
   5   6   3  356.06   42.30 
   5   6   3  364.16   50.69 
  -5  -7  -4   79.89   25.30 
  -5  -7  -4   13.90   14.10 
  -5  -7  -4   19.30   15.60 
  -5  -7  -4   25.20   21.90 
   5   7   4    0.20   13.70 
   5   7   4   37.30   10.70 
   5   7   4    5.80   14.30 
   5   7   4    5.10   12.60 
  -5  -8  -5  387.56   63.69 
  -5  -8  -5  385.66   56.79 
   5   8   5  338.77   52.29 
   5   8   5  313.27   51.79 
   5   8   5  382.26   47.80 
  -5  -9  -6   44.40   27.50 
  -5  -9  -6   98.69   28.60 
  -5  -9  -6   48.10   24.20 
  -5  -9  -6   58.39   41.20 
   5   9   6  158.08   33.50 
   5   9   6   90.99   18.00 
  -4   8  10    1.80   21.70 
  -4   8  10   52.19   33.80 
  -4   8  10   30.50   25.40 
  -4   8  10   16.90   19.30 
  -4   8  10   12.40   23.60 
   4  -8 -10   10.00    9.70 
   4  -8 -10   11.60   16.60 
  -4   7   9  143.09   34.80 
  -4   7   9  137.89   43.10 
  -4   7   9  137.09   34.00 
  -4   7   9  185.58   37.00 
   4  -7  -9  158.98   21.80 
   4  -7  -9  137.99   33.60 
   4  -7  -9  136.59   28.40 
   4  -7  -9  152.48   30.40 
   4  -7  -9  188.88   30.80 
  -4   6   8   91.49   25.70 
  -4   6   8   95.09   24.10 
  -4   6   8   45.90   19.60 
  -4   6   8   35.50   17.10 
  -4   6   8   81.29   23.70 
  -4   6   8   75.59   19.60 
   4  -6  -8   73.39   16.80 
   4  -6  -8   76.79   19.30 
   4  -6  -8   70.89   11.20 
   4  -6  -8   60.39   18.80 
   4  -6  -8   71.99   20.30 
  -4   5   7  336.37   45.90 
  -4   5   7  282.17   42.60 
  -4   5   7  270.17   41.30 
  -4   5   7  291.47   49.50 
  -4   5   7  259.07   43.20 
  -4   5   7  348.67   43.00 
  -4   5   7  261.87   38.10 
  -4   5   7  265.67   43.00 
   4  -5  -7  311.37   40.10 
   4  -5  -7  356.26   42.40 
   4  -5  -7  294.17   42.10 
   4  -5  -7  300.37   34.30 
   4  -5  -7  303.87   40.40 
   4  -5  -7  309.07   40.80 
  -4   4   6  177.88   32.00 
  -4   4   6  208.18   31.10 
  -4   4   6  211.08   32.20 
  -4   4   6  201.08   31.80 
  -4   4   6  185.28   35.60 
  -4   4   6  242.68   32.80 
  -4   4   6  256.57   34.80 
  -4   4   6  223.08   28.20 
   4  -4  -6  250.57   25.50 
   4  -4  -6  189.48   29.40 
   4  -4  -6  235.08   30.60 
   4  -4  -6  189.08   30.70 
   4  -4  -6  228.08   31.10 
  -4   3   5    6.50    6.50 
  -4   3   5    2.30    6.80 
  -4   3   5    8.10    6.80 
  -4   3   5   -5.60    6.50 
  -4   3   5    6.90    6.50 
  -4   3   5    5.60    4.60 
  -4   3   5    0.60    6.10 
  -4   3   5   26.90   10.60 
  -4   3   5    2.20    3.50 
   4  -3  -5    2.80    5.20 
   4  -3  -5    1.50    5.90 
   4  -3  -5    3.50    1.90 
   4  -3  -5    7.20    5.70 
   4  -3  -5   -2.20    5.40 
   4  -3  -5   17.10    6.90 
   4  -3  -5    1.00    2.60 
  -4   2   4 2666.43  290.97 
  -4   2   4 2672.83  290.57 
  -4   2   4 2728.63  290.97 
  -4   2   4 2597.94  291.77 
  -4   2   4 2535.85  289.77 
  -4   2   4 2608.84  290.67 
  -4   2   4 2234.38  288.07 
  -4   2   4 2432.16  289.27 
  -4   2   4 2337.47  291.07 
  -4   2   4 2862.21  292.77 
   4  -2  -4 2610.54  290.07 
   4  -2  -4 2179.68  290.87 
   4  -2  -4 2943.71  288.47 
   4  -2  -4 2727.73  289.67 
   4  -2  -4 2650.33  289.97 
   4  -2  -4 2772.12  289.17 
   4  -2  -4 2445.36  288.87 
  -4   1   3 2057.69  244.38 
  -4   1   3 2069.09  243.98 
  -4   1   3 1969.50  243.08 
  -4   1   3 2307.47  243.18 
  -4   1   3 2379.36  248.58 
  -4   1   3 2476.15  244.68 
  -4   1   3 2126.59  244.18 
  -4   1   3 2174.98  245.08 
  -4   1   3 2089.89  245.98 
  -4   1   3 2249.77  244.48 
  -4   1   3 2244.88  244.18 
  -4   1   3 2282.67  244.38 
   4  -1  -3 1919.31  246.48 
   4  -1  -3 2190.38  243.78 
   4  -1  -3 2107.59  243.98 
   4  -1  -3 2243.78  244.08 
  -4   0   2 1640.54  176.08 
  -4   0   2 1325.87  176.98 
  -4   0   2 1461.75  176.28 
  -4   0   2 1389.76  176.28 
  -4   0   2 1775.82  177.38 
  -4   0   2 1556.64  176.38 
  -4   0   2 1614.44  176.08 
  -4   0   2 1554.24  176.18 
  -4   0   2 1593.34  182.88 
  -4   0   2 1458.65  178.68 
  -4   0   2 1674.33  176.08 
   4   0  -2 1749.43  176.48 
   4   0  -2 1637.64  176.68 
   4   0  -2 1424.96  179.48 
   4   0  -2 1730.83  175.78 
   4   0  -2 1746.83  176.28 
   4   0  -2 1328.97  175.98 
  -4  -1   1  871.51  108.39 
  -4  -1   1  942.61  109.49 
  -4  -1   1  880.81  107.59 
  -4  -1   1 1020.60  108.89 
  -4  -1   1  786.92  109.79 
  -4  -1   1  831.72  113.89 
  -4  -1   1  958.00  108.29 
  -4  -1   1 1017.10  107.89 
  -4  -1   1  895.61  108.59 
  -4  -1   1 1024.80  107.99 
  -4  -1   1  849.81  107.69 
   4   1  -1  954.30  108.69 
   4   1  -1 1032.00  112.49 
   4   1  -1 1081.79  107.79 
   4   1  -1  987.80  108.19 
   4   1  -1 1042.80  108.69 
   4   1  -1  970.00  108.49 
  -4  -2   0 4698.13  491.45 
  -4  -2   0 4233.48  493.55 
  -4  -2   0 3684.23  491.95 
  -4  -2   0 3839.32  492.05 
  -4  -2   0 3750.02  494.35 
  -4  -2   0 4997.10  491.35 
  -4  -2   0 4607.34  493.65 
  -4  -2   0 4133.89  492.35 
  -4  -2   0 4445.35  492.55 
  -4  -2   0 4177.88  501.05 
   4   2   0 4399.36  495.15 
   4   2   0 4952.30  491.35 
   4   2   0 3928.51  494.05 
   4   2   0 4643.04  493.05 
   4   2   0 5052.69  490.75 
   4   2   0 4890.41  492.95 
   4   2   0 4352.76  492.65 
  -4  -3  -1    1.60    5.20 
  -4  -3  -1    4.30    5.90 
  -4  -3  -1    7.50    3.60 
  -4  -3  -1   24.30    8.90 
  -4  -3  -1    3.60    5.80 
  -4  -3  -1    3.40    5.20 
  -4  -3  -1    1.70    6.50 
  -4  -3  -1    3.90    6.10 
  -4  -3  -1  -11.20    8.50 
   4   3   1    3.80    3.60 
   4   3   1    0.30    7.70 
   4   3   1   10.00    6.40 
   4   3   1    8.10    7.90 
   4   3   1    6.30    5.00 
   4   3   1    2.50    2.00 
   4   3   1    4.20    2.80 
   4   3   1    9.30    7.00 
  -4  -4  -2   85.09   17.20 
  -4  -4  -2   39.70   15.30 
  -4  -4  -2   49.10   14.60 
  -4  -4  -2   69.69   10.90 
  -4  -4  -2   59.49   15.90 
  -4  -4  -2   63.19   21.30 
  -4  -4  -2   63.39   15.90 
  -4  -4  -2   76.69   15.90 
   4   4   2   64.89   16.40 
   4   4   2   82.29   15.10 
   4   4   2   48.20   13.90 
   4   4   2   64.69   15.00 
   4   4   2   73.89   12.70 
   4   4   2   70.49   15.50 
   4   4   2   73.89   16.00 
  -4  -5  -3 1510.95  188.58 
  -4  -5  -3 1490.25  181.38 
  -4  -5  -3 1536.05  182.18 
  -4  -5  -3 1566.04  177.58 
  -4  -5  -3 1740.73  183.88 
  -4  -5  -3 1600.84  182.88 
   4   5   3 1533.15  179.68 
   4   5   3 1565.84  179.08 
   4   5   3 1590.24  181.28 
   4   5   3 1632.94  175.08 
   4   5   3 1570.54  181.68 
   4   5   3 1706.63  184.28 
   4   5   3 1352.26  180.38 
  -4  -6  -4  398.66   51.79 
  -4  -6  -4  441.86   52.59 
  -4  -6  -4  299.27   52.79 
  -4  -6  -4  355.16   49.60 
  -4  -6  -4  418.66   54.69 
   4   6   4  367.96   49.90 
   4   6   4  318.27   52.99 
   4   6   4  387.56   48.20 
   4   6   4  343.67   51.19 
   4   6   4  359.96   49.30 
   4   6   4  368.46   51.49 
   4   6   4  353.36   43.00 
   4   6   4  344.67   46.30 
  -4  -7  -5  382.96   52.79 
  -4  -7  -5  295.97   42.70 
  -4  -7  -5  329.07   46.60 
  -4  -7  -5  327.17   51.99 
  -4  -7  -5  247.08   50.89 
   4   7   5  355.86   40.80 
   4   7   5  250.67   43.40 
   4   7   5  216.68   43.00 
   4   7   5  303.67   46.80 
   4   7   5  274.97   37.30 
  -4  -8  -6   31.30   28.30 
  -4  -8  -6   51.49   18.90 
  -4  -8  -6   11.80   16.80 
  -4  -8  -6   21.40   29.30 
  -4  -8  -6   35.00   18.60 
   4   8   6   31.10   10.70 
   4   8   6   24.40   17.60 
   4   8   6   28.90   12.00 
   4   8   6   28.70   19.40 
   4   8   6   43.50   19.40 
  -4  -9  -7   -8.30   36.70 
  -4  -9  -7   -0.90   20.10 
  -4  -9  -7  -12.10   18.70 
  -4  -9  -7   -0.40   13.30 
   4   9   7  -21.10   16.30 
   4   9   7    6.70    8.20 
   4   9   7  -22.40   21.00 
   4   9   7   -7.10   12.90 
   4   9   7   -9.70   18.10 
  -4 -10  -8  333.17   59.69 
  -4 -10  -8  311.47   64.09 
  -4 -10  -8  349.57   62.69 
   4  10   8  541.05   66.49 
   4  10   8  431.46   51.09 
   4  10   8  289.47   58.59 
  -3   9  10  113.49   36.70 
  -3   9  10   57.79   31.80 
   3  -9 -10  129.29   32.80 
   3  -9 -10  144.49   29.30 
   3  -9 -10  128.39   23.60 
  -3   8   9   17.20   12.80 
  -3   8   9   30.00   20.40 
  -3   8   9   30.30   20.40 
  -3   8   9   20.90   20.70 
   3  -8  -9    7.00   20.70 
   3  -8  -9   17.10    3.70 
   3  -8  -9   22.10   17.60 
   3  -8  -9   26.70   16.80 
   3  -8  -9   51.09   12.80 
  -3   7   8  791.62   93.29 
  -3   7   8  630.24   88.39 
  -3   7   8  766.02   90.69 
  -3   7   8  743.63   95.39 
  -3   7   8  658.83   92.99 
   3  -7  -8  705.63   78.99 
   3  -7  -8  642.54   92.79 
   3  -7  -8  783.62   88.19 
   3  -7  -8  574.04   90.29 
   3  -7  -8  647.44   86.09 
   3  -7  -8  824.62   90.09 
  -3   6   7   12.00   19.90 
  -3   6   7   16.60    9.80 
  -3   6   7   22.30   12.30 
  -3   6   7   21.00   17.20 
  -3   6   7   25.80   13.70 
  -3   6   7    3.40   13.20 
  -3   6   7   15.20   13.70 
  -3   6   7   21.00   11.30 
   3  -6  -7   27.80   16.00 
   3  -6  -7   22.50   11.60 
   3  -6  -7   17.60    7.40 
   3  -6  -7   31.20   13.00 
   3  -6  -7   33.20   17.40 
   3  -6  -7   18.50   12.90 
   3  -6  -7    7.00   12.20 
   3  -6  -7   22.60    4.00 
  -3   5   6  166.78   30.30 
  -3   5   6  202.48   26.60 
  -3   5   6  213.28   31.80 
  -3   5   6  184.08   25.60 
  -3   5   6  195.78   29.70 
  -3   5   6  190.08   28.60 
  -3   5   6  177.18   32.10 
  -3   5   6  158.48   33.30 
   3  -5  -6  243.58   32.80 
   3  -5  -6  169.68   27.70 
   3  -5  -6  188.18   22.30 
   3  -5  -6  185.78   32.00 
   3  -5  -6  169.28   29.70 
   3  -5  -6  195.38   29.40 
   3  -5  -6  225.58   24.80 
  -3   4   5   -3.20   10.40 
  -3   4   5    2.30    4.60 
  -3   4   5    8.70    4.80 
  -3   4   5    2.30    7.10 
  -3   4   5    8.30    7.40 
  -3   4   5    6.40    6.80 
  -3   4   5    9.80    8.10 
  -3   4   5    7.30    8.30 
   3  -4  -5   -5.50    5.90 
   3  -4  -5    4.50    3.40 
   3  -4  -5   13.50    8.10 
   3  -4  -5    6.20    1.90 
   3  -4  -5    4.70    7.10 
   3  -4  -5    4.20    6.50 
  -3   3   4   18.40    8.50 
  -3   3   4   18.00    7.00 
  -3   3   4   11.30    5.10 
  -3   3   4   19.60    3.80 
  -3   3   4   20.50    8.10 
  -3   3   4   18.50    6.80 
  -3   3   4   31.00    8.90 
  -3   3   4   10.60    6.60 
   3  -3  -4    7.40    6.30 
   3  -3  -4   17.90    3.20 
   3  -3  -4   10.20    6.00 
   3  -3  -4   25.00    6.80 
   3  -3  -4   26.40    7.00 
   3  -3  -4   21.70    7.30 
   3  -3  -4   13.10    5.90 
   3  -3  -4   18.40    3.20 
  -3   2   3  381.66   45.30 
  -3   2   3  386.96   44.60 
  -3   2   3  372.06   44.60 
  -3   2   3  344.47   44.90 
  -3   2   3  415.86   45.20 
  -3   2   3  389.26   45.00 
  -3   2   3  378.46   43.70 
  -3   2   3  384.66   43.40 
   3  -2  -3  365.76   42.30 
   3  -2  -3  412.46   43.80 
   3  -2  -3  347.67   43.90 
   3  -2  -3  387.96   44.50 
   3  -2  -3  368.66   43.80 
   3  -2  -3  334.17   43.40 
   3  -2  -3  329.57   44.50 
  -3   1   2  710.03   75.29 
  -3   1   2  640.64   75.09 
  -3   1   2  700.93   75.39 
  -3   1   2  672.93   77.59 
  -3   1   2  605.54   74.39 
  -3   1   2  644.54   74.99 
  -3   1   2  609.14   75.19 
  -3   1   2  617.04   75.29 
  -3   1   2  663.93   75.09 
  -3   1   2  618.94   74.09 
  -3   1   2  688.53   75.09 
   3  -1  -2  669.13   74.99 
   3  -1  -2  594.94   76.89 
   3  -1  -2  696.03   75.19 
   3  -1  -2  660.23   74.99 
   3  -1  -2  694.03   74.99 
   3  -1  -2  740.93   74.69 
  -3   0   1   -1.50    5.50 
  -3   0   1   -1.10    1.10 
  -3   0   1    2.30    2.60 
  -3   0   1    1.30    1.60 
  -3   0   1    1.70    1.70 
  -3   0   1   15.90    3.60 
  -3   0   1    1.90    1.20 
  -3   0   1    6.60    3.40 
  -3   0   1    3.10    2.10 
   3   0  -1    0.10    1.50 
   3   0  -1   -0.40    4.60 
   3   0  -1   -0.70    2.70 
   3   0  -1   -0.30    2.00 
   3   0  -1    2.40    1.70 
   3   0  -1    4.10    2.20 
   3   0  -1   -2.50    1.10 
   3   0  -1   -0.80    1.80 
  -3  -1   0 5234.78  501.85 
  -3  -1   0 3960.00  500.45 
  -3  -1   0 4867.21  500.15 
  -3  -1   0 3863.11  503.75 
  -3  -1   0 4861.21  499.95 
  -3  -1   0 4135.89  500.05 
   3   1   0 3936.91  502.25 
   3   1   0 5105.99  500.25 
   3   1   0 4296.17  500.65 
   3   1   0 4633.64  500.85 
  -3  -2  -1   32.00    8.50 
  -3  -2  -1   39.90    6.20 
  -3  -2  -1   39.80    8.90 
  -3  -2  -1   30.50    8.80 
  -3  -2  -1   31.90    7.30 
  -3  -2  -1   25.30    8.00 
  -3  -2  -1   29.60    9.80 
  -3  -2  -1   26.70    8.50 
  -3  -2  -1   38.30    6.50 
   3   2   1   47.20    6.40 
   3   2   1   23.20    7.30 
   3   2   1   34.10    7.40 
   3   2   1   37.40    5.70 
   3   2   1   48.00    6.50 
   3   2   1   39.30    8.70 
   3   2   1   52.39   10.10 
   3   2   1   39.60    9.10 
   3   2   1   47.90    9.60 
  -3  -3  -2 1535.85  159.98 
  -3  -3  -2 1498.35  162.38 
  -3  -3  -2 1461.45  162.88 
  -3  -3  -2 1379.86  162.98 
  -3  -3  -2 1180.58  164.58 
  -3  -3  -2 1409.66  163.18 
   3   3   2 1494.65  163.18 
   3   3   2 1375.16  161.98 
   3   3   2 1413.96  162.08 
   3   3   2 1421.06  162.68 
   3   3   2 1531.65  162.68 
   3   3   2 1539.05  160.78 
   3   3   2 1165.18  161.68 
  -3  -4  -3  117.79   21.80 
  -3  -4  -3  113.89   21.00 
  -3  -4  -3  114.99   14.80 
  -3  -4  -3  124.69   22.50 
  -3  -4  -3  106.19   19.30 
  -3  -4  -3  114.69   18.60 
  -3  -4  -3   71.19   22.70 
   3   4   3  110.49   19.50 
   3   4   3  101.09   20.90 
   3   4   3   97.39   14.50 
   3   4   3  129.29   20.90 
   3   4   3   97.39   19.60 
   3   4   3  114.39   16.80 
   3   4   3   96.89   19.10 
  -3  -5  -4 1576.74  180.18 
  -3  -5  -4 1585.04  176.48 
  -3  -5  -4 1455.35  182.58 
  -3  -5  -4 1669.53  181.18 
  -3  -5  -4 1310.17  185.18 
  -3  -5  -4 1591.54  182.58 
  -3  -5  -4 1621.14  181.78 
   3   5   4 1648.73  182.98 
   3   5   4 1471.55  182.68 
   3   5   4 1587.34  179.28 
   3   5   4 1529.25  180.78 
   3   5   4 1508.15  176.58 
   3   5   4 1623.04  181.18 
   3   5   4 1479.95  178.18 
   3   5   4 1773.02  181.48 
  -3  -6  -5    8.10    4.90 
  -3  -6  -5   -4.70   10.50 
  -3  -6  -5    3.90    9.10 
  -3  -6  -5    2.40   12.10 
  -3  -6  -5    3.70    9.40 
   3   6   5    2.90   10.60 
   3   6   5   11.70   16.10 
   3   6   5   -0.10    4.00 
   3   6   5   10.90   12.10 
   3   6   5    7.20    9.80 
   3   6   5  -17.70    9.00 
   3   6   5   -6.70    7.20 
  -3  -7  -6  960.90  124.69 
  -3  -7  -6 1139.49  130.09 
  -3  -7  -6  978.20  134.99 
  -3  -7  -6 1198.78  136.79 
   3   7   6 1132.19  126.79 
   3   7   6 1044.40  130.39 
   3   7   6 1029.50  130.59 
   3   7   6 1303.77  132.59 
  -3  -8  -7   14.20   16.50 
  -3  -8  -7    9.10   17.00 
  -3  -8  -7  -30.70   30.30 
  -3  -8  -7   13.70   27.20 
  -3  -8  -7   15.70   13.70 
   3   8   7    9.60    7.20 
   3   8   7   -2.70   15.90 
   3   8   7   26.40   16.50 
   3   8   7    2.60   17.40 
  -3  -9  -8   21.50   19.30 
  -3  -9  -8   72.59   25.50 
  -3  -9  -8   70.79   25.40 
   3   9   8   44.20   26.80 
   3   9   8   82.99   21.10 
   3   9   8   90.09   17.90 
   3   9   8   97.49   30.00 
   3   9   8   72.39   24.20 
  -3 -10  -9  -18.20   25.00 
  -3 -10  -9  -38.80   17.80 
  -3 -10  -9   38.20   54.89 
  -3 -10  -9   25.50   24.00 
   3  10   9   32.10   23.70 
   3  10   9    3.10   29.60 
   3  10   9   21.50   20.30 
   3  10   9    3.70    8.00 
   3  10   9   15.10   23.70 
  -2   9   9   53.29   32.80 
  -2   9   9   98.59   29.50 
  -2   9   9   84.39   29.00 
  -2   9   9  110.09   32.70 
  -2   9   9   85.99   31.20 
   2  -9  -9   99.49   22.00 
   2  -9  -9   92.79   25.60 
   2  -9  -9   82.89   42.50 
   2  -9  -9  111.59   26.30 
  -2   8   8  437.96   65.29 
  -2   8   8  537.65   68.99 
  -2   8   8  524.65   69.69 
  -2   8   8  482.95   70.39 
  -2   8   8  446.36   79.09 
  -2   8   8  534.75   68.99 
   2  -8  -8  363.46   73.89 
   2  -8  -8  412.56   65.89 
   2  -8  -8  540.45   65.39 
   2  -8  -8  532.05   60.69 
   2  -8  -8  405.96   64.89 
  -2   7   7  444.76   58.59 
  -2   7   7  346.37   48.00 
  -2   7   7  309.67   43.10 
  -2   7   7  294.07   52.79 
  -2   7   7  327.27   48.20 
   2  -7  -7  429.56   48.90 
   2  -7  -7  339.17   47.70 
   2  -7  -7  393.16   43.80 
   2  -7  -7  297.67   47.90 
   2  -7  -7  245.28   50.89 
   2  -7  -7  283.47   53.09 
  -2   6   6  864.11   99.19 
  -2   6   6  740.43   98.39 
  -2   6   6  685.73   96.19 
  -2   6   6  696.33  104.79 
  -2   6   6  853.91   97.99 
  -2   6   6  765.32   92.29 
  -2   6   6  931.91  101.89 
  -2   6   6  786.72   95.39 
   2  -6  -6  742.93   94.19 
   2  -6  -6  755.22   99.29 
   2  -6  -6  825.12   97.49 
   2  -6  -6  892.51   97.19 
   2  -6  -6  717.63   97.79 
   2  -6  -6  886.41   92.99 
  -2   5   5  922.71   99.39 
  -2   5   5  683.33   97.39 
  -2   5   5  759.42   92.29 
  -2   5   5  795.32   97.09 
  -2   5   5  769.62   96.09 
  -2   5   5  848.92   94.39 
  -2   5   5  833.32   96.59 
  -2   5   5  793.12   98.19 
   2  -5  -5  873.61   94.39 
   2  -5  -5  808.12   96.79 
   2  -5  -5  811.22   97.69 
   2  -5  -5  891.01   95.99 
   2  -5  -5  700.33   96.89 
   2  -5  -5  864.11   92.49 
   2  -5  -5  667.03   96.09 
  -2   4   4 2781.62  289.37 
  -2   4   4 2182.18  288.47 
  -2   4   4 2728.33  289.37 
  -2   4   4 2375.96  284.87 
  -2   4   4 2647.44  288.27 
  -2   4   4 2656.73  288.27 
  -2   4   4 2729.83  286.77 
  -2   4   4 2725.33  286.07 
   2  -4  -4 2516.15  285.97 
   2  -4  -4 2765.22  287.97 
   2  -4  -4 2348.07  287.57 
   2  -4  -4 2562.34  287.97 
   2  -4  -4 2359.06  288.27 
   2  -4  -4 2282.07  288.27 
  -2   3   3  306.47   46.50 
  -2   3   3  444.86   47.60 
  -2   3   3  386.16   46.40 
  -2   3   3  413.46   47.10 
  -2   3   3  361.86   44.10 
  -2   3   3  403.26   46.70 
  -2   3   3  390.26   45.30 
  -2   3   3  345.87   44.00 
   2  -3  -3  410.36   43.90 
   2  -3  -3  377.96   45.80 
   2  -3  -3  369.26   44.70 
   2  -3  -3  380.46   46.30 
   2  -3  -3  381.46   46.80 
   2  -3  -3  355.06   45.60 
  -2   2   2  208.68   24.90 
  -2   2   2  214.08   24.90 
  -2   2   2  175.88   25.00 
  -2   2   2  191.68   23.80 
  -2   2   2  207.78   25.20 
  -2   2   2  210.18   25.00 
  -2   2   2  188.98   23.10 
  -2   2   2  190.98   23.90 
   2  -2  -2  177.78   24.70 
   2  -2  -2  213.48   24.60 
   2  -2  -2  199.58   22.80 
   2  -2  -2  190.28   24.60 
   2  -2  -2  207.88   24.30 
   2  -2  -2  186.48   24.60 
   2  -2  -2  200.08   22.60 
   2  -2  -2  191.08   23.90 
  -2   1   1  793.32   95.29 
  -2   1   1  890.41   95.19 
  -2   1   1  779.02   95.79 
  -2   1   1  826.72   94.89 
  -2   1   1  849.72   94.99 
  -2   1   1  774.22   94.59 
  -2   1   1  849.41   95.99 
  -2   1   1  923.31   95.39 
  -2   1   1  833.72   94.99 
  -2   1   1  975.20   95.39 
   2  -1  -1  781.52   95.89 
   2  -1  -1  902.81   95.19 
   2  -1  -1  839.92   94.99 
   2  -1  -1  824.52   94.49 
   2  -1  -1  848.92   95.09 
  -2   0   0  750.22   79.29 
  -2   0   0  756.22   79.29 
  -2   0   0  691.73   79.69 
  -2   0   0  718.93   78.49 
  -2   0   0  593.94   78.59 
  -2   0   0  728.83   79.29 
   2   0   0  689.03   78.59 
   2   0   0  770.72   79.79 
   2   0   0  749.62   79.19 
   2   0   0  603.94   78.69 
   2   0   0  801.32   79.39 
   2   0   0  584.84   80.59 
   2   0   0  740.93   79.29 
  -2  -1  -1  849.81   91.09 
  -2  -1  -1  795.12   90.09 
  -2  -1  -1  883.51   89.69 
  -2  -1  -1  773.32   90.49 
   2   1   1  850.71   89.09 
   2   1   1  922.21   90.99 
   2   1   1  678.23   89.99 
   2   1   1  744.33   90.29 
   2   1   1  656.23   89.39 
   2   1   1  704.63   90.99 
   2   1   1  839.52   89.19 
   2   1   1  834.22   89.49 
   2   1   1  828.52   90.29 
  -2  -2  -2  211.88   25.00 
  -2  -2  -2  195.38   24.90 
  -2  -2  -2  226.08   23.20 
  -2  -2  -2  190.58   25.10 
  -2  -2  -2  154.68   26.20 
  -2  -2  -2  193.98   25.10 
  -2  -2  -2  210.68   24.40 
   2   2   2  157.38   24.10 
   2   2   2  201.48   23.70 
   2   2   2  178.58   24.20 
   2   2   2  168.08   24.70 
   2   2   2  163.08   24.60 
   2   2   2  206.38   24.90 
   2   2   2  207.98   24.80 
  -2  -3  -3  358.66   43.80 
  -2  -3  -3  325.87   42.40 
  -2  -3  -3  289.47   45.00 
  -2  -3  -3  355.66   43.70 
  -2  -3  -3  374.26   43.00 
  -2  -3  -3  361.66   40.30 
  -2  -3  -3  383.66   44.50 
   2   3   3  335.57   40.60 
   2   3   3  348.97   43.10 
   2   3   3  309.17   41.60 
   2   3   3  350.06   43.10 
   2   3   3  326.87   41.90 
   2   3   3  361.06   43.20 
   2   3   3  325.57   43.40 
   2   3   3  449.36   47.50 
  -2  -4  -4 2522.75  297.17 
  -2  -4  -4 2785.02  296.17 
  -2  -4  -4 2677.93  292.27 
  -2  -4  -4 2392.56  298.87 
  -2  -4  -4 2658.83  295.17 
  -2  -4  -4 2488.85  296.17 
  -2  -4  -4 2707.13  297.07 
   2   4   4 2730.63  296.07 
   2   4   4 2501.35  295.57 
   2   4   4 2527.65  294.87 
   2   4   4 2436.76  293.07 
   2   4   4 2896.61  298.07 
   2   4   4 2703.53  296.07 
   2   4   4 2524.95  293.87 
   2   4   4 2701.73  296.97 
  -2  -5  -5  900.81   99.89 
  -2  -5  -5  787.72   99.69 
  -2  -5  -5  792.02   94.39 
  -2  -5  -5  766.82   97.49 
  -2  -5  -5  918.41  101.59 
  -2  -5  -5  776.02  100.99 
  -2  -5  -5  786.62  104.69 
   2   5   5  787.32   96.39 
   2   5   5  893.31  102.39 
   2   5   5  853.71   99.79 
   2   5   5  792.72   98.79 
   2   5   5  876.71  100.29 
   2   5   5  873.21   99.59 
   2   5   5  791.02   98.49 
   2   5   5  863.01   96.59 
  -2  -6  -6  791.52  102.89 
  -2  -6  -6  827.72   97.89 
  -2  -6  -6  733.43   99.49 
  -2  -6  -6  813.22  103.19 
  -2  -6  -6  742.63   93.79 
  -2  -6  -6  724.93  103.39 
  -2  -6  -6  780.22  107.79 
  -2  -6  -6  884.21  100.09 
   2   6   6  778.02   96.59 
   2   6   6 1022.80  106.29 
   2   6   6  939.01  101.49 
   2   6   6  712.73   98.79 
   2   6   6  870.71   96.19 
   2   6   6  799.92   99.39 
   2   6   6  945.91  101.89 
  -2  -7  -7  229.98   51.89 
  -2  -7  -7  354.26   45.80 
  -2  -7  -7  326.07   56.39 
  -2  -7  -7  285.67   41.60 
  -2  -7  -7  276.27   55.09 
  -2  -7  -7  358.16   50.99 
   2   7   7  267.17   49.20 
   2   7   7  421.96   44.00 
   2   7   7  316.77   44.70 
   2   7   7  300.67   47.30 
   2   7   7  372.96   49.90 
   2   7   7  340.37   47.10 
   2   7   7  376.06   52.69 
  -2  -8  -8  463.45   76.19 
  -2  -8  -8  587.84   68.59 
  -2  -8  -8  509.65   63.09 
  -2  -8  -8  378.56   57.09 
  -2  -8  -8  423.36   63.79 
   2   8   8  403.26   71.49 
   2   8   8  537.15   68.69 
   2   8   8  538.75   59.89 
   2   8   8  434.06   61.59 
   2   8   8  533.45   67.89 
  -2  -9  -9   23.10   42.30 
  -2  -9  -9  102.59   27.30 
  -2  -9  -9   89.49   27.80 
  -2  -9  -9   80.49   28.60 
   2   9   9  109.09   19.70 
   2   9   9  128.59   33.30 
   2   9   9   90.19   30.60 
   2   9   9   78.09   23.20 
  -1  10   9   55.39   34.80 
  -1  10   9   47.10   33.90 
  -1  10   9   64.59   29.60 
   1 -10  -9   45.60   22.00 
   1 -10  -9   98.09   27.80 
   1 -10  -9   39.20   20.90 
   1 -10  -9   75.19   56.59 
  -1   9   8  335.57   56.59 
  -1   9   8  414.76   55.99 
  -1   9   8  475.15   58.59 
  -1   9   8  222.68   55.89 
  -1   9   8  305.37   49.30 
   1  -9  -8  304.47   45.80 
   1  -9  -8  369.56   67.19 
   1  -9  -8  282.27   52.59 
  -1   8   7  161.58   43.60 
  -1   8   7  146.09   32.70 
  -1   8   7  262.37   40.40 
  -1   8   7  188.48   36.00 
  -1   8   7  196.88   37.90 
  -1   8   7  173.18   33.90 
   1  -8  -7  167.88   28.70 
   1  -8  -7  220.98   33.40 
   1  -8  -7  134.69   30.60 
   1  -8  -7  121.29   34.90 
   1  -8  -7  173.98   43.10 
  -1   7   6  303.67   43.20 
  -1   7   6  223.98   40.30 
  -1   7   6  302.27   42.80 
  -1   7   6  237.58   44.80 
  -1   7   6  244.88   39.80 
  -1   7   6  274.57   42.40 
  -1   7   6  279.37   49.90 
   1  -7  -6  219.08   47.20 
   1  -7  -6  342.47   41.40 
   1  -7  -6  349.47   47.60 
   1  -7  -6  221.18   45.40 
   1  -7  -6  274.57   35.90 
   1  -7  -6  218.18   46.90 
   1  -7  -6  265.97   40.30 
  -1   6   5   12.20   11.30 
  -1   6   5    1.40    9.40 
  -1   6   5    4.70   11.50 
  -1   6   5   15.20    8.90 
  -1   6   5   11.80   12.50 
  -1   6   5   16.90   10.90 
  -1   6   5    8.90   13.50 
   1  -6  -5    1.90    8.50 
   1  -6  -5    2.60   15.30 
   1  -6  -5   18.90   16.20 
   1  -6  -5   13.80    6.50 
   1  -6  -5    6.00    9.00 
   1  -6  -5    3.30   13.50 
   1  -6  -5    5.00   11.30 
  -1   5   4  147.29   27.10 
  -1   5   4  111.19   22.40 
  -1   5   4  150.08   27.30 
  -1   5   4  146.09   22.50 
  -1   5   4  127.79   24.80 
  -1   5   4  140.59   22.60 
   1  -5  -4  165.88   27.20 
   1  -5  -4  151.48   22.50 
   1  -5  -4  104.99   24.40 
   1  -5  -4  132.09   19.20 
   1  -5  -4  149.79   25.10 
   1  -5  -4  139.89   27.30 
  -1   4   3 2038.20  223.18 
  -1   4   3 1866.31  225.38 
  -1   4   3 1899.61  225.48 
  -1   4   3 2195.28  225.18 
  -1   4   3 1859.01  226.58 
   1  -4  -3 1866.71  226.08 
   1  -4  -3 1941.41  225.88 
   1  -4  -3 2113.49  225.28 
   1  -4  -3 2172.98  224.78 
   1  -4  -3 1876.21  222.88 
   1  -4  -3 2059.89  222.28 
   1  -4  -3 1783.12  227.38 
  -1   3   2  603.64   72.49 
  -1   3   2  571.84   73.19 
  -1   3   2  661.63   73.19 
  -1   3   2  634.44   72.79 
  -1   3   2  570.94   73.39 
  -1   3   2  719.33   74.39 
  -1   3   2  600.64   71.29 
   1  -3  -2  613.94   71.09 
   1  -3  -2  667.53   70.89 
   1  -3  -2  595.54   73.59 
   1  -3  -2  644.64   73.19 
   1  -3  -2  598.04   73.29 
   1  -3  -2  590.64   72.29 
   1  -3  -2  582.44   72.69 
  -1   2   1  910.01   93.99 
  -1   2   1  831.12   93.79 
  -1   2   1  711.53   94.49 
  -1   2   1  775.42   94.09 
  -1   2   1  876.91   92.49 
  -1   2   1  800.02   92.69 
  -1   2   1  842.22   93.79 
  -1   2   1  907.31   94.59 
   1  -2  -1  819.22   92.19 
   1  -2  -1  783.92   93.79 
   1  -2  -1  771.32   93.99 
   1  -2  -1  787.02   93.49 
   1  -2  -1  757.92   93.39 
   1  -2  -1  903.71   92.69 
  -1   1   0    1.40    2.00 
  -1   1   0    2.90    0.90 
  -1   1   0    5.10    3.10 
  -1   1   0    3.80    2.20 
  -1   1   0    2.90    2.20 
  -1   1   0    1.30    1.20 
  -1   1   0    0.50    1.50 
  -1   1   0    5.30    1.50 
  -1   1   0    2.10    1.50 
   1  -1   0    4.20    1.90 
   1  -1   0    1.90    1.20 
   1  -1   0    2.60    1.80 
   1  -1   0    2.60    1.10 
   1  -1   0    4.80    1.90 
   1  -1   0    1.70    1.10 
   1  -1   0    4.20    2.90 
   1  -1   0    2.40    1.90 
  -1   0  -1    3.00    1.00 
  -1   0  -1    4.10    1.00 
  -1   0  -1    0.90    0.80 
  -1   0  -1    2.00    1.80 
  -1   0  -1    1.10    0.60 
  -1   0  -1    6.60    1.30 
   1   0   1    3.30    1.10 
   1   0   1    6.20    1.10 
   1   0   1    3.20    1.00 
   1   0   1    9.90    2.20 
   1   0   1    4.10    1.90 
  -1  -1  -2   93.49   12.50 
  -1  -1  -2   95.49   11.50 
  -1  -1  -2  101.59   12.70 
  -1  -1  -2   97.99   12.40 
  -1  -1  -2   87.79   13.00 
  -1  -1  -2  104.09   12.60 
  -1  -1  -2   90.59   12.60 
   1   1   2   94.49   12.80 
   1   1   2   93.29   11.50 
   1   1   2   91.19   12.60 
   1   1   2   90.09   12.50 
   1   1   2   88.09   12.20 
   1   1   2   90.99   12.40 
   1   1   2   95.49   12.60 
   1   1   2  108.89   11.60 
  -1  -2  -3 4370.96  492.15 
  -1  -2  -3 3982.20  492.55 
  -1  -2  -3 4871.91  490.95 
  -1  -2  -3 4596.44  490.75 
  -1  -2  -3 3944.91  490.75 
  -1  -2  -3 4935.81  488.95 
  -1  -2  -3 4153.08  490.85 
   1   2   3 4144.89  490.95 
   1   2   3 4615.74  491.45 
   1   2   3 4332.77  491.05 
   1   2   3 4451.85  490.55 
   1   2   3 4142.09  490.75 
   1   2   3 4549.54  490.95 
  -1  -3  -4 1702.93  196.38 
  -1  -3  -4 1733.23  194.58 
  -1  -3  -4 1770.82  194.18 
  -1  -3  -4 1605.64  194.88 
  -1  -3  -4 1868.31  191.28 
  -1  -3  -4 1703.63  194.78 
  -1  -3  -4 1644.34  193.18 
  -1  -3  -4 1505.45  194.98 
   1   3   4 1571.04  193.68 
   1   3   4 1751.42  194.18 
   1   3   4 1665.33  194.18 
   1   3   4 1806.22  194.88 
   1   3   4 1817.02  195.28 
   1   3   4 1767.82  194.78 
  -1  -4  -5  893.21   97.59 
  -1  -4  -5  783.42   97.39 
  -1  -4  -5  853.71   99.09 
  -1  -4  -5  760.22  100.19 
  -1  -4  -5  736.13   98.39 
  -1  -4  -5  712.93   95.39 
  -1  -4  -5  904.21   99.29 
  -1  -4  -5  836.62   97.99 
   1   4   5  908.41   98.69 
   1   4   5  862.81   97.59 
   1   4   5  854.11   97.79 
   1   4   5  911.31   99.69 
   1   4   5  757.72   96.99 
  -1  -5  -6   20.00    5.00 
  -1  -5  -6   15.80   12.40 
  -1  -5  -6   28.50   10.90 
  -1  -5  -6   16.00    8.20 
  -1  -5  -6   23.10    9.90 
  -1  -5  -6   14.20   13.10 
  -1  -5  -6   31.40   16.70 
  -1  -5  -6   15.60   11.70 
   1   5   6   16.50   11.70 
   1   5   6   26.50    9.50 
   1   5   6   21.00   11.30 
   1   5   6    4.60    9.10 
   1   5   6   11.00    7.60 
   1   5   6   21.60   10.50 
   1   5   6   12.80   10.20 
  -1  -6  -7   55.29   22.70 
  -1  -6  -7   49.00   14.80 
  -1  -6  -7   36.00   18.60 
  -1  -6  -7   49.00    8.50 
  -1  -6  -7   78.59   20.60 
  -1  -6  -7   35.60   11.10 
  -1  -6  -7    8.90   17.70 
  -1  -6  -7   36.30   13.20 
   1   6   7   31.00   11.80 
   1   6   7   47.80   20.80 
   1   6   7   45.20   15.80 
   1   6   7   25.20   15.30 
   1   6   7   25.90   13.30 
   1   6   7   24.50   11.80 
   1   6   7   36.60   16.70 
  -1  -7  -8   28.10   11.00 
  -1  -7  -8   23.00   20.70 
  -1  -7  -8  -14.40   22.30 
  -1  -7  -8   18.60   12.60 
  -1  -7  -8   -1.90   17.20 
  -1  -7  -8   -1.00   11.30 
  -1  -7  -8    0.60    5.30 
   1   7   8    0.20   16.30 
   1   7   8   -9.20   12.30 
   1   7   8    9.70   12.10 
   1   7   8   -5.70   17.30 
  -1  -8  -9  532.25   72.09 
  -1  -8  -9  468.75   64.29 
  -1  -8  -9  523.05   85.19 
   1   8   9  482.75   70.09 
   1   8   9  603.14   74.09 
   1   8   9  666.63   76.49 
   1   8   9  571.34   72.99 
  -1  -9 -10   41.30   14.50 
  -1  -9 -10  103.19   27.80 
  -1  -9 -10   15.10   18.80 
  -1  -9 -10   16.80   41.60 
  -1  -9 -10   88.69   21.40 
   1   9  10   82.09   16.80 
   1   9  10   75.69   25.10 
   1   9  10  128.39   31.20 
   1   9  10   71.69   30.30 
   1   9  10   55.79   25.10 
   0  10   8   -4.00   14.80 
   0  10   8   12.00    7.50 
   0  10   8    7.90   21.30 
   0  10   8   34.40   25.20 
   0  10   8   -9.00   27.10 
   0 -10  -8    2.60   19.60 
   0 -10  -8  -40.10   46.30 
   0 -10  -8   17.10   15.70 
   0 -10  -8   -5.90   23.20 
   0   9   7   -1.30   16.90 
   0   9   7    8.80   18.70 
   0   9   7    5.40   17.10 
   0   9   7   13.60    7.40 
   0  -9  -7   71.89   42.30 
   0  -9  -7   -9.90   10.90 
   0  -9  -7   19.50   18.50 
   0   8   6  111.79   41.30 
   0   8   6   89.19   24.30 
   0   8   6   53.09   23.80 
   0   8   6  114.89   26.30 
   0   8   6   90.89   22.70 
   0  -8  -6   90.79   24.80 
   0  -8  -6  185.18   37.90 
   0  -8  -6   80.89   19.10 
   0  -8  -6   96.99   22.20 
   0   7   5    0.30   11.50 
   0   7   5   -2.00   10.60 
   0   7   5   -0.60   16.40 
   0   7   5   -5.10   11.80 
   0   7   5  -14.60   20.00 
   0   7   5  -10.80   13.00 
   0   7   5   14.20    9.50 
   0  -7  -5    2.60   10.10 
   0  -7  -5    6.40   21.10 
   0  -7  -5    8.90    9.00 
   0  -7  -5    0.90   18.90 
   0  -7  -5    9.40   15.10 
   0  -7  -5   21.00   20.70 
   0  -7  -5   -0.80    7.40 
   0   6   4 3380.86  401.36 
   0   6   4 3952.40  403.56 
   0   6   4 3225.58  402.46 
   0   6   4 3586.04  401.26 
   0   6   4 3717.93  402.06 
   0   6   4 3986.30  406.76 
   0   6   4 3475.45  402.36 
   0  -6  -4 3738.33  399.16 
   0  -6  -4 3364.86  402.16 
   0  -6  -4 3743.43  402.06 
   0  -6  -4 3234.48  404.66 
   0  -6  -4 3164.58  405.16 
   0   5   3    3.20    7.90 
   0   5   3    4.20    6.90 
   0   5   3   -2.10    8.60 
   0   5   3   -0.30    7.10 
   0   5   3   -0.90    6.70 
   0   5   3    6.90   10.60 
   0   5   3    2.30    7.30 
   0  -5  -3  -20.90    9.50 
   0  -5  -3   18.10   10.40 
   0  -5  -3    6.30    7.20 
   0  -5  -3   -5.90   11.20 
   0  -5  -3  -10.70   10.40 
   0  -5  -3   -4.60    7.10 
   0   4   2 1752.12  175.78 
   0   4   2 1608.44  171.78 
   0   4   2 1560.94  173.28 
   0   4   2 1233.78  174.48 
   0   4   2 1519.05  173.18 
   0   4   2 1507.15  172.58 
   0  -4  -2 1321.77  173.78 
   0  -4  -2 1473.05  173.08 
   0  -4  -2 1650.53  170.88 
   0  -4  -2 1442.26  172.08 
   0  -4  -2 1473.75  174.08 
   0   3   1    1.00    4.70 
   0   3   1    2.20    3.70 
   0   3   1    0.70    4.50 
   0   3   1   21.20    8.20 
   0   3   1   -2.10    4.10 
   0   3   1   -0.50    4.40 
   0   3   1    1.50    4.30 
   0  -3  -1   -3.30    5.70 
   0  -3  -1    5.30    3.20 
   0  -3  -1   -3.00    4.90 
   0  -3  -1    3.10    6.40 
   0  -3  -1    0.30    3.50 
   0  -3  -1    0.30    3.70 
   0  -3  -1    4.10    5.40 
   0   2   0  608.64   70.69 
   0   2   0  637.64   71.19 
   0   2   0  675.13   69.69 
   0   2   0  638.34   71.19 
   0   2   0  650.33   71.19 
   0   2   0  636.34   67.99 
   0   2   0  577.94   70.29 
   0   2   0  639.74   70.69 
   0  -2   0  564.64   70.89 
   0  -2   0  499.45   70.19 
   0  -2   0  590.44   70.09 
   0  -2   0  590.04   71.29 
   0  -2   0  594.04   70.89 
   0  -2   0  557.94   70.69 
   0   1  -1    0.80    2.30 
   0   1  -1    1.70    2.50 
   0   1  -1    1.10    1.30 
   0   1  -1    1.90    2.10 
   0   1  -1    1.00    1.70 
   0   1  -1    4.80    2.60 
   0   1  -1    1.70    2.20 
   0  -1   1    4.10    2.30 
   0  -1   1    3.00    2.60 
   0  -1   1    3.90    2.80 
   0  -1   1    2.60    1.60 
   0  -1   1    4.10    2.40 
   0  -1   1    2.10    2.30 
   0  -1   1    3.10    1.50 
   0   0  -2  427.26   46.30 
   0   0  -2  396.66   46.30 
   0   0  -2  407.46   46.50 
   0   0  -2  384.26   46.20 
   0   0  -2  381.26   46.40 
   0   0  -2  412.96   46.80 
   0   0  -2  479.05   46.50 
   0   0   2  380.46   46.30 
   0   0   2  421.26   46.40 
   0   0   2  392.26   46.70 
   0   0   2  382.36   46.40 
   0   0   2  402.66   46.30 
   0   0   2  407.46   46.50 
   0   0   2  407.46   46.40 
   0  -1  -3   25.90    5.20 
   0  -1  -3    0.80    1.80 
   0  -1  -3    1.10    2.30 
   0  -1  -3    0.50    2.40 
   0  -1  -3    1.90    2.40 
   0   1   3    5.80    1.20 
   0   1   3    1.00    2.50 
   0   1   3   17.90    4.30 
   0   1   3   -2.50    2.30 
   0   1   3    9.90    3.50 
   0   1   3   25.90    5.10 
   0  -2  -4 1654.03  175.18 
   0  -2  -4 1484.45  173.88 
   0  -2  -4 1584.34  175.88 
   0  -2  -4 1458.05  174.98 
   0  -2  -4 1516.35  175.38 
   0  -2  -4 1492.65  174.98 
   0  -2  -4 1545.05  175.18 
   0  -2  -4 1600.14  172.28 
   0   2   4 1580.24  175.58 
   0   2   4 1530.35  174.58 
   0   2   4 1519.95  175.18 
   0   2   4 1637.34  175.88 
   0   2   4 1534.75  175.48 
   0   2   4 1467.75  172.38 
   0   2   4 1539.55  175.28 
   0   2   4 1617.94  175.38 
   0  -3  -5    4.40    3.70 
   0  -3  -5   -5.70    4.50 
   0  -3  -5    5.50    5.40 
   0  -3  -5    0.00    4.50 
   0  -3  -5    4.70    5.30 
   0  -3  -5    0.30    1.40 
   0  -3  -5    4.00    6.40 
   0  -3  -5    0.40    4.20 
   0   3   5    1.40    4.60 
   0   3   5    0.60    5.70 
   0   3   5    7.20    6.00 
   0   3   5   -3.10    4.00 
   0   3   5   -4.20    3.30 
   0   3   5   -3.40    5.90 
   0  -4  -6 3578.94  410.36 
   0  -4  -6 3719.63  411.26 
   0  -4  -6 3625.14  407.86 
   0  -4  -6 3928.91  410.26 
   0  -4  -6 3471.15  411.56 
   0  -4  -6 3855.91  405.56 
   0  -4  -6 3270.17  409.76 
   0  -4  -6 3385.06  411.46 
   0   4   6 3864.71  411.36 
   0   4   6 3618.64  410.96 
   0   4   6 3283.47  410.26 
   0   4   6 3740.03  410.86 
   0   4   6 4033.00  412.66 
   0  -5  -7   -4.40    9.80 
   0  -5  -7    6.80   13.60 
   0  -5  -7   -1.00    6.70 
   0  -5  -7    7.20    9.90 
   0  -5  -7   10.70   10.20 
   0  -5  -7    3.60    8.80 
   0   5   7   -4.20   10.60 
   0   5   7   -1.00    9.00 
   0   5   7   -1.90    8.20 
   0   5   7   -2.10    4.20 
   0   5   7   10.90    9.40 
   0   5   7    8.80    7.40 
   0   5   7   -2.30   13.20 
   0  -6  -8 2468.25  315.57 
   0  -6  -8 2930.81  315.67 
   0  -6  -8 2243.38  311.07 
   0  -6  -8 2597.04  305.37 
   0  -6  -8 2632.04  315.17 
   0  -6  -8 2895.81  308.97 
   0  -6  -8 3219.18  313.17 
   0  -6  -8 2722.83  312.67 
   0   6   8 2990.90  313.87 
   0   6   8 2449.95  311.27 
   0   6   8 2408.76  313.07 
   0   6   8 3057.09  318.27 
   0   6   8 2832.82  313.77 
   0   6   8 2779.22  313.07 
   0   6   8 2958.90  313.57 
   0  -7  -9    1.10    4.60 
   0  -7  -9   -2.70    9.40 
   0  -7  -9   -6.20   11.10 
   0  -7  -9  -17.10   16.50 
   0  -7  -9  -11.90   17.10 
   0   7   9   28.60   17.20 
   0   7   9   28.70   20.40 
   0   7   9   39.30   19.30 
   0   7   9    4.10   16.70 
   0   7   9   10.20   13.70 
   0   7   9   -6.40    7.30 
   0  -8 -10  254.57   36.90 
   0  -8 -10  282.37   45.80 
   0  -8 -10  342.87   43.80 
   0  -8 -10  235.68   57.29 
   0  -8 -10  385.26   49.50 
   0   8  10  335.67   41.00 
   0   8  10  360.36   51.69 
   0   8  10  266.47   49.70 
   0   8  10  325.47   52.89 
   0   8  10  270.37   49.40 
   0  -9 -11   -9.70   13.10 
   0  -9 -11   11.50    8.60 
   0  -9 -11   23.10   21.80 
   0  -9 -11    1.80   19.60 
   0   9  11   -8.40   21.00 
   0   9  11  -20.80   22.10 
   0   9  11   20.50   17.70 
   0   9  11   -8.60   22.10 
   1  10   7  238.18   31.40 
   1  10   7  231.08   49.60 
   1  10   7  257.77   46.90 
   1  10   7  250.87   43.20 
   1  10   7  212.78   41.10 
  -1 -10  -7   95.09   58.49 
  -1 -10  -7  189.68   41.30 
  -1 -10  -7  197.98   37.50 
   1   9   6  424.26   57.09 
   1   9   6  385.36   45.00 
   1   9   6  437.76   57.39 
   1   9   6  334.67   51.99 
   1   9   6  286.27   57.59 
  -1  -9  -6  224.68   63.89 
  -1  -9  -6  298.87   47.60 
  -1  -9  -6  413.76   54.99 
  -1  -9  -6  279.97   54.89 
   1   8   5  508.45   54.19 
   1   8   5  323.07   55.29 
   1   8   5  468.75   65.49 
   1   8   5  438.76   60.39 
   1   8   5  393.76   61.79 
   1   8   5  413.66   57.39 
  -1  -8  -5  457.85   59.59 
  -1  -8  -5  363.76   69.69 
  -1  -8  -5  327.77   61.89 
  -1  -8  -5  401.56   58.29 
  -1  -8  -5  413.86   66.09 
  -1  -8  -5  453.95   55.69 
   1   7   4  220.18   35.90 
   1   7   4  191.48   32.00 
   1   7   4  223.18   36.40 
   1   7   4  219.08   37.40 
   1   7   4  197.58   35.60 
   1   7   4  191.28   34.20 
   1   7   4  212.38   26.80 
  -1  -7  -4  164.38   40.90 
  -1  -7  -4  175.38   29.20 
  -1  -7  -4  157.98   40.30 
  -1  -7  -4  262.17   35.30 
  -1  -7  -4  198.18   36.40 
  -1  -7  -4  150.98   40.60 
   1   6   3  438.96   53.49 
   1   6   3  442.96   52.29 
   1   6   3  276.07   50.79 
   1   6   3  404.96   56.89 
   1   6   3  425.66   46.00 
   1   6   3  313.27   49.30 
   1   6   3  336.27   49.80 
   1   6   3  384.26   50.29 
  -1  -6  -3  305.67   54.99 
  -1  -6  -3  381.96   48.30 
  -1  -6  -3  439.06   56.79 
  -1  -6  -3  313.87   55.19 
  -1  -6  -3  418.96   51.59 
  -1  -6  -3  394.66   52.39 
   1   5   2   63.89   14.90 
   1   5   2   43.30   13.00 
   1   5   2   29.30   16.10 
   1   5   2   55.09   14.80 
   1   5   2   76.99   15.20 
   1   5   2   54.09   14.20 
   1   5   2   46.20    8.50 
   1   5   2   47.30   13.20 
  -1  -5  -2   52.79   16.70 
  -1  -5  -2   42.80   17.40 
  -1  -5  -2   43.50   17.20 
  -1  -5  -2   42.90   13.90 
  -1  -5  -2   60.09   12.00 
  -1  -5  -2   51.49   13.70 
   1   4   1 1003.20  103.09 
   1   4   1  911.01  108.69 
   1   4   1  864.11  107.79 
   1   4   1  914.91  105.69 
   1   4   1  865.41  105.89 
   1   4   1  960.20  106.59 
   1   4   1  911.41  106.99 
   1   4   1  935.31  105.09 
  -1  -4  -1  976.50  106.39 
  -1  -4  -1  854.01  106.79 
  -1  -4  -1  871.21  107.79 
  -1  -4  -1  788.82  106.59 
  -1  -4  -1  770.52  107.19 
  -1  -4  -1  915.91  104.39 
   1   3   0 5441.46  552.84 
   1   3   0 5149.69  551.64 
   1   3   0 4779.02  550.64 
   1   3   0 4919.01  549.74 
   1   3   0 4923.51  550.54 
   1   3   0 5141.79  548.25 
   1   3   0 5516.45  552.34 
  -1  -3   0 4253.57  551.84 
  -1  -3   0 4812.12  549.45 
  -1  -3   0 4960.60  551.34 
  -1  -3   0 4254.57  551.04 
  -1  -3   0 4609.54  550.44 
  -1  -3   0 5297.27  552.54 
   1   2  -1  781.82   85.19 
   1   2  -1  761.22   85.09 
   1   2  -1  684.43   83.99 
   1   2  -1  694.13   83.89 
   1   2  -1  721.03   84.99 
   1   2  -1  779.12   83.59 
   1   2  -1  731.43   84.69 
   1   2  -1  833.52   85.89 
  -1  -2   1  603.34   84.19 
  -1  -2   1  784.72   84.69 
  -1  -2   1  720.13   84.69 
  -1  -2   1  763.32   85.39 
  -1  -2   1  644.74   84.69 
  -1  -2   1  647.54   82.39 
  -1  -2   1  722.23   84.79 
  -1  -2   1  732.93   85.19 
  -1  -2   1  810.72   83.79 
   1   1  -2   91.39   11.40 
   1   1  -2   88.29   12.80 
   1   1  -2   68.19   11.60 
   1   1  -2   85.89   12.00 
   1   1  -2   85.79   12.10 
   1   1  -2   93.29   12.50 
   1   1  -2   80.89   10.10 
   1   1  -2   67.29   11.60 
  -1  -1   2   70.59   11.80 
  -1  -1   2   86.49   11.60 
  -1  -1   2   82.49   11.90 
  -1  -1   2   77.59   12.30 
  -1  -1   2   87.09   12.70 
  -1  -1   2   96.79   13.10 
  -1  -1   2   83.19   11.90 
  -1  -1   2   96.99   12.40 
   1   0  -3    3.70    2.40 
   1   0  -3    2.00    2.10 
   1   0  -3    6.60    2.60 
   1   0  -3   -1.40    1.50 
   1   0  -3   -1.20    2.00 
   1   0  -3    1.20    1.90 
   1   0  -3    0.80    2.30 
   1   0  -3    2.60    1.20 
   1   0  -3    5.10    1.30 
  -1   0   3   16.40    4.00 
  -1   0   3    0.30    2.50 
  -1   0   3    3.60    2.60 
  -1   0   3    4.20    2.90 
  -1   0   3    2.80    1.10 
  -1   0   3    6.40    3.00 
  -1   0   3    3.50    3.00 
   1  -1  -4  971.70  108.29 
   1  -1  -4  901.91  109.99 
   1  -1  -4 1031.60  110.19 
   1  -1  -4 1100.99  110.49 
   1  -1  -4  961.50  110.29 
  -1   1   4  949.90  110.39 
  -1   1   4  967.90  111.59 
  -1   1   4  875.21  107.39 
  -1   1   4  979.40  110.99 
  -1   1   4 1059.59  110.69 
  -1   1   4  940.01  110.39 
  -1   1   4  930.91  108.19 
  -1   1   4  967.20  110.39 
   1  -2  -5 1234.98  141.09 
   1  -2  -5 1181.58  142.59 
   1  -2  -5 1292.57  143.19 
   1  -2  -5 1201.18  143.29 
   1  -2  -5 1281.07  142.99 
   1  -2  -5 1343.47  143.09 
  -1   2   5 1187.68  143.59 
  -1   2   5 1263.37  143.69 
  -1   2   5 1303.07  143.79 
  -1   2   5 1332.77  143.39 
  -1   2   5 1255.07  140.39 
  -1   2   5 1325.77  144.29 
  -1   2   5 1188.38  143.39 
  -1   2   5 1171.78  143.29 
   1  -3  -6 1839.72  197.28 
   1  -3  -6 1827.22  197.78 
   1  -3  -6 1642.04  192.58 
   1  -3  -6 1626.84  196.78 
   1  -3  -6 1645.64  197.78 
   1  -3  -6 1768.32  194.88 
   1  -3  -6 1814.62  197.58 
  -1   3   6 1852.01  199.18 
  -1   3   6 1865.51  198.58 
  -1   3   6 1628.24  196.58 
  -1   3   6 1799.82  198.88 
  -1   3   6 1560.54  197.78 
   1  -4  -7  421.46   53.39 
   1  -4  -7  386.46   47.60 
   1  -4  -7  451.35   50.49 
   1  -4  -7  465.65   54.09 
   1  -4  -7  415.16   55.19 
   1  -4  -7  449.16   53.29 
   1  -4  -7  404.16   53.99 
  -1   4   7  429.46   54.19 
  -1   4   7  416.06   55.19 
  -1   4   7  478.65   55.59 
  -1   4   7  440.86   54.19 
  -1   4   7  439.76   49.60 
  -1   4   7  354.36   54.59 
  -1   4   7  411.16   55.59 
   1  -5  -8  130.69   19.40 
   1  -5  -8  142.89   27.30 
   1  -5  -8  128.59   16.10 
   1  -5  -8  136.89   25.90 
   1  -5  -8  130.19   35.80 
   1  -5  -8  154.88   23.80 
   1  -5  -8  130.29   27.80 
  -1   5   8  161.88   28.10 
  -1   5   8  134.59   26.30 
  -1   5   8  132.39   18.80 
  -1   5   8  158.48   27.40 
  -1   5   8  113.39   26.60 
   1  -6  -9   99.79   17.90 
   1  -6  -9   96.79   13.00 
   1  -6  -9  116.99   23.40 
   1  -6  -9   79.29   22.60 
   1  -6  -9  138.79   27.40 
   1  -6  -9   67.29   26.40 
   1  -6  -9  115.39   26.60 
  -1   6   9  117.79   17.10 
  -1   6   9  105.19   25.30 
  -1   6   9  126.09   25.10 
  -1   6   9  102.89   23.20 
  -1   6   9  106.29   30.50 
   1  -7 -10  -10.10   11.50 
   1  -7 -10   15.10   10.20 
   1  -7 -10   73.49   20.80 
   1  -7 -10    2.30    3.40 
  -1   7  10    5.10   16.00 
  -1   7  10    8.90    9.50 
  -1   7  10   51.29   20.40 
  -1   7  10    4.90   12.90 
  -1   7  10   28.50   16.20 
   1  -8 -11  216.88   30.60 
   1  -8 -11  160.88   21.00 
   1  -8 -11  180.68   36.70 
   1  -8 -11  215.28   38.10 
  -1   8  11  142.19   35.10 
  -1   8  11  209.78   40.60 
  -1   8  11  171.08   35.50 
   1  -9 -12  188.58   41.70 
   1  -9 -12  149.29   30.10 
  -1   9  12  221.28   44.80 
  -1   9  12  197.98   41.90 
  -1   9  12  208.88   47.60 
  -1   9  12  153.98   42.70 
   2  10   6    8.80   21.60 
   2  10   6   60.19   26.90 
   2  10   6  -16.90   20.60 
   2  10   6   12.00    8.00 
   2  10   6   16.50   21.20 
  -2 -10  -6    7.90   45.60 
  -2 -10  -6    9.30   16.60 
  -2 -10  -6    7.50   23.70 
  -2 -10  -6   34.40   21.40 
   2   9   5   17.40   17.00 
   2   9   5    2.30   16.80 
   2   9   5   13.90   15.90 
   2   9   5   30.00    9.20 
   2   9   5   -1.30   16.20 
  -2  -9  -5   11.60   18.90 
  -2  -9  -5    8.80   13.90 
  -2  -9  -5  -45.20   35.30 
   2   8   4 1192.78  123.19 
   2   8   4  985.90  119.59 
   2   8   4  824.12  125.99 
   2   8   4  836.52  118.89 
   2   8   4 1181.18  124.09 
  -2  -8  -4  983.50  131.29 
  -2  -8  -4  894.01  117.89 
  -2  -8  -4 1107.29  122.99 
  -2  -8  -4  917.11  128.79 
   2   7   3  695.43   78.89 
   2   7   3  655.63   91.19 
   2   7   3  682.03   84.49 
   2   7   3  637.74   84.89 
   2   7   3  629.44   85.09 
   2   7   3  546.25   82.69 
  -2  -7  -3  711.63   94.59 
  -2  -7  -3  650.23   91.59 
  -2  -7  -3  774.52   86.29 
  -2  -7  -3  683.23   81.79 
  -2  -7  -3  630.94   89.29 
  -2  -7  -3  698.73   86.49 
   2   6   2  896.41  108.99 
   2   6   2  912.71  107.19 
   2   6   2  844.22  107.29 
   2   6   2  886.41  103.19 
   2   6   2  867.51  106.29 
   2   6   2  788.82  106.89 
   2   6   2  917.81  112.99 
   2   6   2  768.82  106.79 
  -2  -6  -2  991.30  110.79 
  -2  -6  -2  897.91  112.59 
  -2  -6  -2 1080.29  109.79 
  -2  -6  -2  826.72  113.49 
  -2  -6  -2  969.50  109.69 
  -2  -6  -2  892.61  105.89 
   2   5   1  391.96   62.69 
   2   5   1  543.45   60.49 
   2   5   1  553.34   66.09 
   2   5   1  496.35   63.69 
   2   5   1  466.75   64.19 
   2   5   1  522.35   63.59 
   2   5   1  507.85   66.69 
  -2  -5  -1  532.35   66.39 
  -2  -5  -1  502.25   68.19 
  -2  -5  -1  488.85   66.89 
  -2  -5  -1  489.75   68.29 
  -2  -5  -1  562.44   65.19 
  -2  -5  -1  524.35   62.69 
  -2  -5  -1  515.85   66.09 
   2   4   0 4562.34  471.45 
   2   4   0 3927.81  472.95 
   2   4   0 3714.83  472.15 
   2   4   0 4652.93  476.75 
   2   4   0 4165.98  472.85 
   2   4   0 4652.73  475.55 
   2   4   0 4465.45  474.75 
  -2  -4   0 4797.42  477.05 
  -2  -4   0 3813.72  476.45 
  -2  -4   0 4357.56  474.55 
  -2  -4   0 4287.87  474.45 
  -2  -4   0 3987.60  475.75 
  -2  -4   0 3545.85  474.45 
   2   3  -1   15.90    7.50 
   2   3  -1   34.40    9.00 
   2   3  -1   23.50    7.50 
   2   3  -1   29.10    9.20 
   2   3  -1   40.30    8.00 
   2   3  -1   33.10   10.50 
   2   3  -1   41.20   12.10 
   2   3  -1   36.80   10.80 
  -2  -3   1   25.10    7.90 
  -2  -3   1   20.10    8.70 
  -2  -3   1   37.40   10.90 
  -2  -3   1   25.80    7.00 
  -2  -3   1   25.30   10.40 
  -2  -3   1   50.79   11.40 
  -2  -3   1   13.30    8.40 
  -2  -3   1   27.00    9.20 
  -2  -3   1   23.20   10.40 
   2   2  -2  190.08   23.20 
   2   2  -2  206.18   23.00 
   2   2  -2  190.48   21.10 
   2   2  -2  153.68   24.70 
   2   2  -2  163.98   25.10 
   2   2  -2  139.89   23.70 
   2   2  -2  155.78   23.10 
   2   2  -2  146.69   22.70 
   2   2  -2  161.18   24.10 
  -2  -2   2  185.98   25.30 
  -2  -2   2  213.68   23.60 
  -2  -2   2  183.58   24.40 
  -2  -2   2  185.68   23.50 
  -2  -2   2  149.69   23.70 
  -2  -2   2  162.98   24.60 
  -2  -2   2  162.38   22.30 
  -2  -2   2  243.98   28.20 
  -2  -2   2  143.79   23.80 
   2   1  -3 3744.63  421.96 
   2   1  -3 4160.68  421.66 
   2   1  -3 3881.01  420.76 
   2   1  -3 3993.80  423.26 
   2   1  -3 3838.52  424.06 
   2   1  -3 3402.06  422.16 
   2   1  -3 3946.41  423.06 
   2   1  -3 4186.28  422.86 
  -2  -1   3 3767.82  424.86 
  -2  -1   3 4134.09  423.36 
  -2  -1   3 3460.25  421.96 
  -2  -1   3 3269.67  422.16 
  -2  -1   3 4046.10  423.26 
  -2  -1   3 3668.13  423.76 
  -2  -1   3 3806.02  422.16 
  -2  -1   3 3225.08  421.96 
   2   0  -4 1472.55  167.28 
   2   0  -4 1618.64  167.38 
   2   0  -4 1337.17  167.78 
   2   0  -4 1519.85  165.88 
   2   0  -4 1536.25  165.68 
   2   0  -4 1535.35  166.88 
   2   0  -4 1297.97  166.98 
   2   0  -4 1554.94  165.68 
   2   0  -4 1565.54  167.18 
  -2   0   4 1390.16  167.18 
  -2   0   4 1424.26  167.38 
  -2   0   4 1333.27  167.18 
  -2   0   4 1515.25  168.98 
  -2   0   4 1364.56  166.18 
  -2   0   4 1508.15  168.68 
  -2   0   4 1600.84  168.88 
  -2   0   4 1573.24  165.68 
  -2   0   4 1511.35  165.78 
  -2   0   4 1468.15  167.48 
   2  -1  -5 1093.09  140.99 
   2  -1  -5 1316.67  141.29 
   2  -1  -5 1364.66  140.99 
   2  -1  -5 1199.78  140.79 
   2  -1  -5 1352.56  141.29 
   2  -1  -5 1347.27  139.19 
   2  -1  -5 1212.58  141.29 
   2  -1  -5 1135.09  138.89 
  -2   1   5 1158.18  141.49 
  -2   1   5 1218.58  141.29 
  -2   1   5 1295.37  142.79 
  -2   1   5 1256.87  139.49 
  -2   1   5 1229.68  141.49 
  -2   1   5 1296.97  142.39 
  -2   1   5 1138.19  141.29 
   2  -2  -6   94.79   12.90 
   2  -2  -6   79.59   16.00 
   2  -2  -6  104.79   16.00 
   2  -2  -6  112.69   16.70 
   2  -2  -6  103.39   15.50 
   2  -2  -6  105.99   13.00 
  -2   2   6   88.79   17.80 
  -2   2   6   79.19   17.00 
  -2   2   6  120.89   17.80 
  -2   2   6  109.19   16.60 
  -2   2   6  103.89   13.20 
  -2   2   6   97.79   17.70 
  -2   2   6   72.69   16.30 
   2  -3  -7   39.50   11.90 
   2  -3  -7   65.49   13.10 
   2  -3  -7   58.99    9.30 
   2  -3  -7   53.99   13.70 
   2  -3  -7   77.49   14.40 
   2  -3  -7   66.29   13.70 
  -2   3   7  105.99   17.40 
  -2   3   7   70.69   15.50 
  -2   3   7   59.99   15.00 
  -2   3   7   53.39   14.60 
  -2   3   7   56.39   13.90 
  -2   3   7   54.09   15.20 
  -2   3   7   45.70   12.90 
  -2   3   7   51.19    9.70 
   2  -4  -8 1743.03  203.68 
   2  -4  -8 1696.33  203.78 
   2  -4  -8 1735.43  199.28 
   2  -4  -8 1795.12  203.38 
   2  -4  -8 1872.21  202.88 
   2  -4  -8 1599.44  202.38 
  -2   4   8 1834.72  199.48 
  -2   4   8 1824.72  205.58 
  -2   4   8 1825.32  204.88 
  -2   4   8 1739.73  204.98 
  -2   4   8 1538.95  204.58 
  -2   4   8 1985.10  206.98 
  -2   4   8 1868.81  204.38 
   2  -5  -9 1343.07  155.08 
   2  -5  -9 1227.98  160.78 
   2  -5  -9 1377.36  159.78 
   2  -5  -9 1430.86  159.38 
   2  -5  -9 1258.97  158.98 
   2  -5  -9 1391.56  160.98 
  -2   5   9 1189.58  162.38 
  -2   5   9 1413.06  155.18 
  -2   5   9 1524.55  163.08 
  -2   5   9 1694.33  165.38 
  -2   5   9 1249.97  165.98 
  -2   5   9 1325.47  161.08 
  -2   5   9 1367.36  162.38 
   2  -6 -10  372.86   50.09 
   2  -6 -10  314.67   42.00 
   2  -6 -10  343.57   49.40 
   2  -6 -10  350.56   46.90 
  -2   6  10  297.47   53.29 
  -2   6  10  288.97   48.90 
  -2   6  10  338.27   42.30 
  -2   6  10  264.27   52.49 
  -2   6  10  399.16   53.19 
  -2   6  10  363.76   51.79 
   2  -7 -11  121.79   21.10 
   2  -7 -11  122.49   28.80 
  -2   7  11  111.09   32.90 
  -2   7  11  108.29   37.80 
  -2   7  11  111.89   30.90 
  -2   7  11  150.18   33.10 
   2  -8 -12  257.17   41.20 
   2  -8 -12  194.98   44.40 
   2  -8 -12  156.48   29.00 
  -2   8  12  240.38   35.80 
  -2   8  12  175.98   44.40 
  -2   8  12  195.68   47.40 
  -2   8  12  150.08   39.30 
  -2   8  12  175.08   42.50 
   3  10   5    9.10    6.80 
   3  10   5    1.30   14.90 
   3  10   5   12.70   20.30 
   3  10   5   -4.70   23.30 
   3  10   5  -12.00   20.10 
  -3 -10  -5    3.50   20.70 
  -3 -10  -5  -10.00   22.10 
  -3 -10  -5    3.50   18.90 
   3   9   4  134.39   30.10 
   3   9   4  243.18   37.70 
   3   9   4  138.49   34.20 
   3   9   4  162.18   22.80 
  -3  -9  -4   49.99   44.00 
  -3  -9  -4  181.28   40.20 
  -3  -9  -4  138.69   35.60 
  -3  -9  -4  134.19   29.40 
   3   8   3   36.00   19.40 
   3   8   3   79.29   22.90 
   3   8   3   33.30   21.80 
   3   8   3   95.59   22.90 
   3   8   3   64.49   13.20 
   3   8   3   66.09   19.70 
  -3  -8  -3   79.29   24.50 
  -3  -8  -3   73.29   21.30 
  -3  -8  -3   55.19   32.40 
  -3  -8  -3   88.49   23.50 
   3   7   2  383.06   45.60 
   3   7   2  366.26   52.19 
   3   7   2  404.56   62.99 
   3   7   2  304.07   49.90 
   3   7   2  330.47   51.59 
   3   7   2  278.47   48.20 
   3   7   2  354.66   51.99 
  -3  -7  -2  386.76   66.09 
  -3  -7  -2  394.26   53.99 
  -3  -7  -2  484.45   61.99 
  -3  -7  -2  366.16   49.60 
  -3  -7  -2  389.76   59.99 
  -3  -7  -2  471.05   54.69 
   3   6   1    2.50   12.30 
   3   6   1   15.30   11.30 
   3   6   1   14.90    5.70 
   3   6   1   24.70   10.70 
   3   6   1   13.50   18.10 
   3   6   1    7.80   11.50 
   3   6   1    9.00   10.50 
  -3  -6  -1    6.90   11.70 
  -3  -6  -1    1.50   17.00 
  -3  -6  -1   -0.70   14.30 
  -3  -6  -1   -1.10   16.70 
  -3  -6  -1   11.80   18.70 
  -3  -6  -1    3.10   12.20 
  -3  -6  -1   15.50    9.60 
  -3  -6  -1   13.90   13.00 
   3   5   0 1246.58  149.69 
   3   5   0 1510.05  155.08 
   3   5   0 1440.76  156.18 
   3   5   0 1496.55  150.18 
   3   5   0 1542.95  154.18 
   3   5   0 1264.47  151.18 
   3   5   0 1172.38  152.78 
   3   5   0 1368.96  151.28 
  -3  -5   0 1091.39  152.58 
  -3  -5   0 1206.18  150.68 
  -3  -5   0 1288.97  153.38 
  -3  -5   0 1197.48  154.68 
  -3  -5   0 1103.49  153.98 
  -3  -5   0 1301.97  153.08 
  -3  -5   0 1178.88  157.18 
  -3  -5   0 1405.26  156.08 
   3   4  -1   -9.20    8.40 
   3   4  -1   19.10    8.50 
   3   4  -1    3.10    4.60 
   3   4  -1    3.50    5.50 
   3   4  -1   10.20   10.10 
   3   4  -1   -7.30    9.90 
   3   4  -1   -2.80    6.40 
   3   4  -1    5.70    5.50 
  -3  -4   1    3.20    4.40 
  -3  -4   1   -0.60    9.50 
  -3  -4   1   -5.90    6.00 
  -3  -4   1    8.20    8.10 
  -3  -4   1   -8.70    8.20 
  -3  -4   1   -8.90    9.10 
  -3  -4   1    8.70   11.10 
  -3  -4   1  -10.80    8.10 
  -3  -4   1   -5.60   10.00 
   3   3  -2 1532.65  162.38 
   3   3  -2 1310.27  157.88 
   3   3  -2 1358.66  157.58 
   3   3  -2 1144.59  158.98 
   3   3  -2 1339.87  155.48 
   3   3  -2 1445.86  159.98 
   3   3  -2 1554.64  161.88 
   3   3  -2 1477.95  157.88 
  -3  -3   2 1430.76  161.38 
  -3  -3   2 1228.08  166.38 
  -3  -3   2 1249.38  159.38 
  -3  -3   2 1208.68  159.48 
  -3  -3   2 1471.15  158.68 
  -3  -3   2 1526.05  160.28 
  -3  -3   2 1226.28  159.28 
  -3  -3   2 1577.84  159.38 
   3   2  -3  401.66   41.70 
   3   2  -3  390.06   40.80 
   3   2  -3  355.56   39.10 
   3   2  -3  300.87   40.40 
   3   2  -3  317.67   42.10 
   3   2  -3  324.87   45.90 
   3   2  -3  335.27   43.20 
   3   2  -3  351.96   42.50 
   3   2  -3  356.56   40.80 
  -3  -2   3  299.27   43.10 
  -3  -2   3  274.37   40.90 
  -3  -2   3  302.17   41.80 
  -3  -2   3  320.27   46.70 
  -3  -2   3  328.77   41.80 
  -3  -2   3  280.37   41.20 
  -3  -2   3  287.77   40.40 
  -3  -2   3  331.47   41.60 
  -3  -2   3  352.36   41.70 
   3   1  -4 1610.54  181.08 
   3   1  -4 1603.54  182.98 
   3   1  -4 1642.24  180.58 
   3   1  -4 1737.43  179.68 
   3   1  -4 1807.42  179.48 
   3   1  -4 1501.15  180.78 
   3   1  -4 1390.46  179.88 
   3   1  -4 1590.14  178.88 
   3   1  -4 1694.83  178.68 
  -3  -1   4 1653.03  183.28 
  -3  -1   4 1377.36  178.18 
  -3  -1   4 1496.65  180.58 
  -3  -1   4 1542.55  180.58 
  -3  -1   4 1632.94  180.58 
  -3  -1   4 1554.94  180.98 
  -3  -1   4 1663.03  184.98 
  -3  -1   4 1655.93  182.08 
  -3  -1   4 1527.25  180.18 
   3   0  -5    0.40    4.60 
   3   0  -5   -0.50    4.00 
   3   0  -5    4.30    4.10 
   3   0  -5    0.50    1.60 
   3   0  -5    4.30    3.60 
   3   0  -5   -1.00    2.50 
   3   0  -5    3.30    4.20 
   3   0  -5   -0.60    2.00 
  -3   0   5    6.50    5.40 
  -3   0   5    5.70    3.20 
  -3   0   5    5.60    6.60 
  -3   0   5    3.40    4.30 
  -3   0   5   25.80    9.30 
  -3   0   5    0.90    4.50 
  -3   0   5    2.10    4.40 
  -3   0   5   10.10    4.80 
  -3   0   5   -0.80    1.80 
  -3   0   5    5.80    6.70 
   3  -1  -6 1801.42  195.98 
   3  -1  -6 1568.84  196.68 
   3  -1  -6 1835.32  194.18 
   3  -1  -6 1761.82  196.18 
   3  -1  -6 1842.92  193.48 
   3  -1  -6 1507.05  195.58 
   3  -1  -6 1770.02  195.98 
   3  -1  -6 1778.62  195.48 
  -3   1   6 1539.75  196.98 
  -3   1   6 1793.82  196.98 
  -3   1   6 1701.63  196.48 
  -3   1   6 1743.03  192.78 
  -3   1   6 1651.33  194.08 
  -3   1   6 1844.92  198.98 
  -3   1   6 1692.93  194.28 
  -3   1   6 1883.81  198.88 
  -3   1   6 1719.43  196.88 
   3  -2  -7   52.79   12.90 
   3  -2  -7  107.49   16.60 
   3  -2  -7   59.19   10.10 
   3  -2  -7   50.29   12.50 
   3  -2  -7   50.49    8.30 
   3  -2  -7   60.49   13.30 
   3  -2  -7   57.19    8.30 
  -3   2   7   93.49   16.60 
  -3   2   7   76.89   15.50 
  -3   2   7   43.60   13.30 
  -3   2   7   57.69    9.20 
  -3   2   7   50.69   14.90 
  -3   2   7   65.59   14.90 
  -3   2   7   49.40   12.80 
  -3   2   7   65.29   14.30 
   3  -3  -8  271.57   34.10 
   3  -3  -8  318.07   39.30 
   3  -3  -8  257.97   39.50 
   3  -3  -8  300.97   38.70 
   3  -3  -8  305.27   38.60 
  -3   3   8  303.87   40.70 
  -3   3   8  310.97   41.40 
  -3   3   8  285.77   41.00 
  -3   3   8  304.77   42.40 
  -3   3   8  278.37   35.60 
  -3   3   8  289.37   42.00 
  -3   3   8  324.27   41.50 
  -3   3   8  323.07   41.00 
   3  -4  -9   21.00   12.60 
   3  -4  -9   37.10    7.50 
   3  -4  -9   36.20   13.70 
   3  -4  -9   32.70   11.40 
   3  -4  -9   25.50   11.60 
   3  -4  -9   36.40   14.00 
  -3   4   9   45.10   14.40 
  -3   4   9   44.60   16.90 
  -3   4   9   32.20   15.00 
  -3   4   9   28.00   13.80 
  -3   4   9   31.60    7.80 
  -3   4   9   35.40   17.80 
  -3   4   9   24.50   14.80 
  -3   4   9   32.70    8.60 
   3  -5 -10  289.87   37.70 
   3  -5 -10  245.18   35.30 
   3  -5 -10  223.58   39.00 
   3  -5 -10  232.68   30.10 
   3  -5 -10  199.48   37.90 
  -3   5  10  285.57   44.00 
  -3   5  10  284.17   44.30 
  -3   5  10  239.18   32.10 
  -3   5  10  182.08   37.80 
  -3   5  10  276.77   39.20 
  -3   5  10  224.68   42.00 
   3  -6 -11    4.30    7.40 
   3  -6 -11    5.50   11.30 
   3  -6 -11   26.20   14.20 
  -3   6  11   -6.90   16.80 
  -3   6  11   -8.60   25.40 
  -3   6  11   22.30   20.60 
  -3   6  11   -8.80    9.60 
  -3   6  11   -5.40   21.80 
  -3   6  11  -19.10   14.10 
   3  -7 -12  527.35   66.29 
   3  -7 -12  547.55   74.49 
   3  -7 -12  608.54   73.29 
  -3   7  12  442.06   75.39 
  -3   7  12  596.84   80.59 
  -3   7  12  636.14   82.19 
   3  -8 -13    9.90   18.60 
   3  -8 -13   10.80   23.40 
   3  -8 -13    0.60   13.50 
  -3   8  13  -17.70   25.90 
  -3   8  13   41.80   34.70 
  -3   8  13   -7.90   25.00 
  -3   8  13    7.80   26.00 
   4  10   4  394.36   63.89 
   4  10   4  426.36   47.40 
   4  10   4  353.36   51.69 
   4  10   4  280.17   57.39 
  -4 -10  -4  263.37   54.29 
  -4 -10  -4  333.37   60.39 
  -4 -10  -4  298.37   59.29 
  -4 -10  -4  497.45   82.89 
  -4 -10  -4  371.56   62.39 
   4   9   3   84.99   23.30 
   4   9   3  136.39   19.70 
   4   9   3   71.79   21.90 
   4   9   3   97.69   30.50 
  -4  -9  -3  108.19   29.60 
  -4  -9  -3  104.99   28.80 
  -4  -9  -3  135.99   47.20 
  -4  -9  -3   53.79   42.90 
   4   8   2   -1.60   11.30 
   4   8   2   -9.50   16.10 
   4   8   2   11.10   18.40 
   4   8   2   21.80   16.90 
   4   8   2    4.00    5.70 
   4   8   2   -6.30   11.00 
  -4  -8  -2  -22.40   14.40 
  -4  -8  -2   33.00   29.90 
  -4  -8  -2    9.80   17.20 
  -4  -8  -2   -5.00   26.10 
  -4  -8  -2    5.50   12.50 
   4   7   1  418.06   73.99 
   4   7   1  428.56   66.39 
   4   7   1  518.15   64.39 
   4   7   1  539.75   71.99 
   4   7   1  364.26   68.09 
   4   7   1  598.34   70.99 
   4   7   1  525.55   65.29 
   4   7   1  489.25   69.39 
  -4  -7  -1  509.25   81.79 
  -4  -7  -1  503.95   71.09 
  -4  -7  -1  492.25   67.69 
  -4  -7  -1  630.84   73.19 
  -4  -7  -1  575.34   74.49 
  -4  -7  -1  685.83   73.99 
  -4  -7  -1  562.84   82.99 
  -4  -7  -1  679.73   79.49 
   4   6   0   11.60   15.60 
   4   6   0   11.10   13.10 
   4   6   0  -17.70   11.50 
   4   6   0   10.10    9.90 
   4   6   0    5.60    8.80 
  -4  -6   0  -10.10   11.30 
  -4  -6   0   23.70   23.50 
  -4  -6   0  -11.10   17.80 
  -4  -6   0    4.60   15.10 
  -4  -6   0   41.70   13.00 
  -4  -6   0    9.60    8.20 
  -4  -6   0    7.10   12.90 
  -4  -6   0   -7.30   14.40 
  -4  -6   0    9.20   16.90 
   4   5  -1  633.14   81.49 
   4   5  -1  669.43   87.09 
   4   5  -1  684.83   81.39 
   4   5  -1  716.83   83.49 
   4   5  -1  649.43   85.89 
   4   5  -1  856.61   88.89 
  -4  -5   1  820.02   88.79 
  -4  -5   1  730.43   84.19 
  -4  -5   1  622.34   88.09 
  -4  -5   1  515.95   84.79 
  -4  -5   1  851.11   87.19 
  -4  -5   1  708.03   87.39 
  -4  -5   1  617.74   83.29 
  -4  -5   1  620.24   85.39 
  -4  -5   1  625.24   88.69 
   4   4  -2   57.99   15.60 
   4   4  -2   67.99   11.50 
   4   4  -2   74.59   18.40 
   4   4  -2   55.29   14.00 
   4   4  -2  102.39   15.20 
   4   4  -2   69.69   13.90 
   4   4  -2   39.00   15.50 
   4   4  -2   74.19   15.00 
   4   4  -2   97.89   20.20 
  -4  -4   2   46.60   17.90 
  -4  -4   2   74.29   19.70 
  -4  -4   2   55.89   16.70 
  -4  -4   2   53.09   14.30 
  -4  -4   2   48.60   15.10 
  -4  -4   2   55.89   15.70 
  -4  -4   2   46.40   12.70 
  -4  -4   2   79.89   17.40 
  -4  -4   2   62.69   21.60 
   4   3  -3  108.49   20.40 
   4   3  -3   99.69   19.00 
   4   3  -3   94.49   20.00 
   4   3  -3  101.49   14.80 
   4   3  -3  108.29   18.50 
   4   3  -3  102.69   21.40 
   4   3  -3  100.49   22.90 
   4   3  -3  116.89   17.90 
   4   3  -3  120.09   17.60 
  -4  -3   3   88.19   16.50 
  -4  -3   3   79.99   19.70 
  -4  -3   3  119.39   21.70 
  -4  -3   3  109.79   26.90 
  -4  -3   3  123.69   26.00 
  -4  -3   3   79.29   19.10 
  -4  -3   3  114.99   20.60 
  -4  -3   3  108.09   22.30 
  -4  -3   3  129.39   19.60 
   4   2  -4 2620.04  286.77 
   4   2  -4 2852.11  282.77 
   4   2  -4 2947.80  284.27 
   4   2  -4 2517.65  282.87 
   4   2  -4 2374.56  285.87 
   4   2  -4 2479.55  287.87 
   4   2  -4 2542.15  285.37 
   4   2  -4 2665.73  283.27 
  -4  -2   4 2483.25  285.77 
  -4  -2   4 2510.25  288.67 
  -4  -2   4 2517.65  284.97 
  -4  -2   4 2270.77  288.27 
  -4  -2   4 2713.33  286.17 
  -4  -2   4 2650.33  292.67 
  -4  -2   4 2086.89  284.47 
  -4  -2   4 2482.45  285.17 
  -4  -2   4 2145.99  284.47 
   4   1  -5  748.53  101.19 
   4   1  -5  797.72   98.49 
   4   1  -5  769.62   98.69 
   4   1  -5  971.00   97.59 
   4   1  -5  900.51   96.79 
   4   1  -5  881.41   97.29 
   4   1  -5  903.71   97.29 
   4   1  -5  837.72   99.29 
   4   1  -5  893.61   99.49 
  -4  -1   5  777.32   96.39 
  -4  -1   5  865.11   98.79 
  -4  -1   5  805.02  100.89 
  -4  -1   5  783.62   99.09 
  -4  -1   5  894.21   99.59 
  -4  -1   5  823.22   99.19 
  -4  -1   5  908.41  105.59 
  -4  -1   5  801.72   99.09 
  -4  -1   5  891.71  102.49 
   4   0  -6 3582.74  385.26 
   4   0  -6 3159.78  386.06 
   4   0  -6 3710.03  385.06 
   4   0  -6 3232.68  388.86 
   4   0  -6 3673.33  386.86 
   4   0  -6 3555.14  386.76 
   4   0  -6 3250.77  386.66 
  -4   0   6 3168.68  384.76 
  -4   0   6 3427.66  387.86 
  -4   0   6 3743.23  387.66 
  -4   0   6 3363.16  385.06 
  -4   0   6 3357.86  387.26 
  -4   0   6 3390.36  385.66 
  -4   0   6 3448.75  390.26 
  -4   0   6 3910.61  392.56 
  -4   0   6 3256.17  387.26 
   4  -1  -7  453.65   48.00 
   4  -1  -7  469.75   51.59 
   4  -1  -7  380.36   49.00 
   4  -1  -7  423.46   51.49 
   4  -1  -7  449.56   51.49 
   4  -1  -7  472.75   52.09 
   4  -1  -7  340.27   52.59 
  -4   1   7  416.86   52.49 
  -4   1   7  386.86   55.89 
  -4   1   7  400.46   52.69 
  -4   1   7  412.06   49.70 
  -4   1   7  395.16   53.19 
  -4   1   7  397.56   47.70 
  -4   1   7  386.66   52.09 
  -4   1   7  472.55   55.69 
  -4   1   7  402.66   49.30 
  -4   1   7  522.05   57.09 
   4  -2  -8 1876.71  200.88 
   4  -2  -8 1904.51  200.28 
   4  -2  -8 1847.62  196.08 
   4  -2  -8 1560.54  201.38 
   4  -2  -8 1556.14  200.08 
   4  -2  -8 1828.22  195.98 
   4  -2  -8 1819.22  201.08 
  -4   2   8 1638.04  200.28 
  -4   2   8 1836.22  203.08 
  -4   2   8 1804.92  202.68 
  -4   2   8 1537.75  198.28 
  -4   2   8 1956.80  205.58 
  -4   2   8 1811.92  202.58 
  -4   2   8 1963.60  204.98 
  -4   2   8 1539.45  202.58 
   4  -3  -9   36.50   11.40 
   4  -3  -9   39.10    5.10 
   4  -3  -9   26.40    7.20 
   4  -3  -9   14.30   12.60 
   4  -3  -9   36.10    5.00 
   4  -3  -9   42.70   13.30 
   4  -3  -9   16.00   10.10 
   4  -3  -9   29.00   10.20 
  -4   3   9   35.30    9.00 
  -4   3   9   29.30   18.60 
  -4   3   9   48.60   16.30 
  -4   3   9   10.00   12.80 
  -4   3   9   35.70   14.50 
  -4   3   9   65.29   16.10 
  -4   3   9   64.79   16.40 
  -4   3   9   35.00   13.90 
  -4   3   9   24.80    7.70 
   4  -4 -10  173.38   27.20 
   4  -4 -10  168.28   30.30 
   4  -4 -10  193.98   20.90 
   4  -4 -10  173.68   29.00 
   4  -4 -10  189.08   30.40 
   4  -4 -10  178.08   20.90 
  -4   4  10  212.28   37.40 
  -4   4  10  126.49   34.20 
  -4   4  10  194.08   34.10 
  -4   4  10  128.79   25.00 
  -4   4  10  156.58   31.60 
  -4   4  10  189.98   34.10 
   4  -5 -11  197.88   38.60 
   4  -5 -11  265.27   38.00 
   4  -5 -11  277.17   30.10 
   4  -5 -11  181.68   37.80 
  -4   5  11  221.08   41.20 
  -4   5  11  262.67   36.10 
  -4   5  11  248.98   45.90 
  -4   5  11  191.48   42.40 
  -4   5  11  337.67   46.40 
  -4   5  11  317.97   43.60 
  -4   5  11  243.38   46.70 
   4  -6 -12   -8.00   12.30 
   4  -6 -12   15.50   16.40 
   4  -6 -12    6.50    6.20 
  -4   6  12   17.80   30.60 
  -4   6  12   -2.80   20.40 
  -4   6  12   37.60   23.00 
  -4   6  12  -13.70   24.70 
  -4   6  12   18.20   23.70 
  -4   6  12   -0.20   13.50 
   4  -7 -13   77.59   13.50 
   4  -7 -13   89.59   25.50 
   4  -7 -13   87.79   25.70 
  -4   7  13   53.39   26.90 
  -4   7  13   81.99   33.90 
   5  10   3   94.99   33.00 
   5  10   3   87.49   35.30 
   5  10   3  128.79   36.10 
   5  10   3  181.88   25.20 
  -5 -10  -3  137.99   37.30 
  -5 -10  -3  149.59   39.50 
  -5 -10  -3  118.19   35.50 
   5   9   2  210.08   41.30 
   5   9   2  123.99   36.10 
   5   9   2  203.88   32.80 
   5   9   2  129.79   40.00 
   5   9   2  228.98   31.20 
  -5  -9  -2  230.78   44.70 
  -5  -9  -2  244.78   55.59 
  -5  -9  -2  312.27   48.40 
  -5  -9  -2  149.69   36.70 
  -5  -9  -2  197.68   53.69 
   5   8   1  414.96   59.89 
   5   8   1  309.07   56.99 
   5   8   1  381.96   49.20 
   5   8   1  336.27   48.90 
   5   8   1  341.37   54.29 
   5   8   1  473.05   59.39 
  -5  -8  -1  284.37   53.19 
  -5  -8  -1  346.47   66.49 
  -5  -8  -1  405.36   63.49 
  -5  -8  -1  433.76   60.39 
  -5  -8  -1  405.96   59.79 
  -5  -8  -1  477.75   70.79 
  -5  -8  -1  420.16   59.29 
   5   7   0   85.59   20.80 
   5   7   0  130.29   28.90 
   5   7   0  101.89   25.50 
   5   7   0  134.39   30.90 
   5   7   0  110.39   21.80 
   5   7   0  137.39   21.70 
  -5  -7   0   91.99   24.70 
  -5  -7   0  154.98   32.60 
  -5  -7   0  117.09   30.50 
  -5  -7   0   82.59   37.80 
  -5  -7   0   74.09   22.40 
  -5  -7   0  111.29   35.50 
  -5  -7   0  117.79   29.50 
  -5  -7   0   64.39   31.10 
  -5  -7   0   90.19   30.70 
   5   6  -1   -6.10   18.60 
   5   6  -1   36.60   18.90 
   5   6  -1   22.90   13.50 
   5   6  -1   19.70   11.40 
   5   6  -1   24.30    9.50 
   5   6  -1   19.70   15.70 
   5   6  -1   21.10   12.10 
   5   6  -1   15.10    8.50 
  -5  -6   1   17.50   19.00 
  -5  -6   1   25.20   12.70 
  -5  -6   1   25.60   17.60 
  -5  -6   1  119.39   27.00 
  -5  -6   1   12.80   13.20 
  -5  -6   1    0.40   19.50 
  -5  -6   1   22.80   13.10 
  -5  -6   1   17.20   17.60 
   5   5  -2   17.10   10.10 
   5   5  -2   14.80   15.60 
   5   5  -2   23.90   11.30 
   5   5  -2   29.50    9.80 
   5   5  -2   16.10    6.40 
   5   5  -2   16.00    9.30 
   5   5  -2   12.90   15.30 
   5   5  -2   15.20   13.50 
   5   5  -2    3.10    7.00 
  -5  -5   2    6.50   17.50 
  -5  -5   2   19.70   10.90 
  -5  -5   2   20.90   17.00 
  -5  -5   2   12.50   18.90 
  -5  -5   2  -19.20   11.00 
  -5  -5   2   22.00   16.20 
  -5  -5   2   19.20   15.10 
   5   4  -3 1581.84  192.78 
   5   4  -3 1683.43  190.18 
   5   4  -3 1565.54  188.18 
   5   4  -3 1610.44  192.38 
   5   4  -3 1923.21  195.38 
   5   4  -3 1778.52  188.18 
   5   4  -3 1526.25  188.78 
   5   4  -3 1637.44  187.48 
  -5  -4   3 1879.61  195.58 
  -5  -4   3 1543.05  199.98 
  -5  -4   3 1419.36  191.48 
  -5  -4   3 1942.81  193.58 
  -5  -4   3 1538.65  191.68 
  -5  -4   3 1737.43  192.78 
  -5  -4   3 1689.33  197.68 
  -5  -4   3 1572.74  191.58 
   5   3  -4 1756.42  192.48 
   5   3  -4 1931.21  188.68 
   5   3  -4 1560.64  194.58 
   5   3  -4 1663.93  188.58 
   5   3  -4 1466.55  191.78 
   5   3  -4 1669.43  188.78 
   5   3  -4 1688.43  188.68 
  -5  -3   4 1705.43  193.08 
  -5  -3   4 1649.23  192.38 
  -5  -3   4 1633.84  201.78 
  -5  -3   4 1349.77  192.98 
  -5  -3   4 1859.61  192.58 
  -5  -3   4 1473.85  191.28 
  -5  -3   4 1785.12  193.38 
  -5  -3   4 1691.83  196.88 
   5   2  -5  810.92  102.09 
   5   2  -5  862.31   96.09 
   5   2  -5  885.71  100.49 
   5   2  -5  841.12   99.29 
   5   2  -5  789.72   99.39 
   5   2  -5  863.91   96.99 
   5   2  -5  911.21   96.19 
   5   2  -5  800.72   96.49 
   5   2  -5  867.41   97.09 
  -5  -2   5  826.02  100.89 
  -5  -2   5  696.63   98.59 
  -5  -2   5  747.33   95.59 
  -5  -2   5  889.01   99.99 
  -5  -2   5  835.02   98.89 
  -5  -2   5  807.62  107.89 
  -5  -2   5  884.81   99.99 
  -5  -2   5  916.61  100.79 
  -5  -2   5  807.52  104.39 
   5   1  -6   17.10    5.80 
   5   1  -6   12.20    5.60 
   5   1  -6   27.60    9.10 
   5   1  -6   10.30    8.80 
   5   1  -6   18.10    6.70 
   5   1  -6    8.40    5.40 
   5   1  -6   31.10   13.60 
   5   1  -6   18.70    7.80 
  -5  -1   6   14.80    7.10 
  -5  -1   6    8.90   11.50 
  -5  -1   6   24.30   10.20 
  -5  -1   6   81.59   18.50 
  -5  -1   6   10.70    8.00 
  -5  -1   6   16.60    8.80 
  -5  -1   6   41.80   16.50 
  -5  -1   6   12.00    8.60 
  -5  -1   6   14.40    5.10 
  -5  -1   6   17.70   11.60 
   5   0  -7   -1.10    7.00 
   5   0  -7   -8.70    3.90 
   5   0  -7    1.50    3.70 
   5   0  -7   -2.20    6.00 
   5   0  -7   -2.30    4.30 
   5   0  -7    5.20    4.00 
   5   0  -7   -6.60    5.50 
   5   0  -7   -6.40    7.20 
   5   0  -7    3.80   11.30 
  -5   0   7   -5.10    3.50 
  -5   0   7    2.80    7.30 
  -5   0   7    9.30   10.40 
  -5   0   7   -9.00    6.90 
  -5   0   7    0.80    2.50 
  -5   0   7   12.60    9.00 
  -5   0   7    6.70   10.00 
  -5   0   7   -7.50   11.90 
   5  -1  -8  125.69   21.80 
   5  -1  -8  147.79   20.00 
   5  -1  -8  130.29   26.10 
   5  -1  -8  165.38   17.70 
   5  -1  -8  149.29   21.10 
   5  -1  -8  144.19   23.90 
  -5   1   8  171.08   25.30 
  -5   1   8  124.99   17.70 
  -5   1   8  136.09   27.00 
  -5   1   8  192.88   33.00 
  -5   1   8  127.89   32.10 
  -5   1   8  129.39   23.80 
  -5   1   8  157.28   26.10 
  -5   1   8  150.58   28.80 
   5  -2  -9 1507.15  155.58 
   5  -2  -9 1271.47  162.58 
   5  -2  -9 1438.36  158.38 
   5  -2  -9 1312.07  157.08 
   5  -2  -9 1359.06  157.28 
   5  -2  -9 1579.94  157.08 
  -5   2   9 1254.57  155.18 
  -5   2   9 1502.95  161.08 
  -5   2   9 1260.67  155.68 
  -5   2   9 1569.64  164.48 
  -5   2   9 1208.78  152.18 
  -5   2   9 1305.77  165.68 
  -5   2   9 1311.77  161.28 
  -5   2   9 1377.96  159.78 
   5  -3 -10  240.38   30.40 
   5  -3 -10  243.78   35.00 
   5  -3 -10  252.57   33.10 
   5  -3 -10  193.58   34.30 
   5  -3 -10  171.28   35.90 
  -5   3  10  280.37   39.20 
  -5   3  10  213.18   37.90 
  -5   3  10  295.37   40.90 
  -5   3  10  230.18   42.50 
  -5   3  10  211.48   36.90 
  -5   3  10  254.37   42.80 
   5  -4 -11  200.38   37.20 
   5  -4 -11  211.88   39.60 
   5  -4 -11  293.57   36.70 
  -5   4  11  263.67   47.30 
  -5   4  11  215.18   42.80 
  -5   4  11  282.57   47.60 
  -5   4  11  221.88   41.80 
  -5   4  11  272.77   40.90 
   5  -5 -12   39.90   15.80 
   5  -5 -12    9.60   23.70 
   5  -5 -12   59.29   18.60 
  -5   5  12   34.90   22.50 
  -5   5  12   45.20   33.40 
  -5   5  12   28.50   24.90 
  -5   5  12   63.89   27.40 
  -5   5  12   20.80   30.00 
  -5   5  12   33.00   20.60 
   5  -6 -13   33.00   23.30 
   5  -6 -13   -3.00   16.80 
  -5   6  13   -3.60   34.90 
  -5   6  13   -3.60   27.40 
  -5   6  13   31.90   27.10 
   6  10   2  226.38   33.00 
   6  10   2  177.98   43.30 
   6  10   2  161.88   40.50 
  -6 -10  -2  291.17   53.29 
  -6 -10  -2  274.77   55.09 
  -6 -10  -2  135.59   40.80 
   6   9   1   20.00   11.10 
   6   9   1    5.40   11.10 
   6   9   1   21.60   24.50 
   6   9   1    5.70   21.60 
  -6  -9  -1   61.09   67.99 
  -6  -9  -1  -49.20   43.90 
  -6  -9  -1    4.40   25.50 
  -6  -9  -1   24.10   17.70 
  -6  -9  -1   20.90   22.30 
  -6  -9  -1   -2.00   28.80 
   6   8   0  384.46   59.89 
   6   8   0  306.17   49.90 
   6   8   0  329.17   51.49 
   6   8   0  404.36   57.79 
   6   8   0  248.58   43.10 
   6   8   0  416.96   48.10 
  -6  -8   0  272.37   57.59 
  -6  -8   0  480.25   68.89 
  -6  -8   0  489.05   80.99 
  -6  -8   0  391.66   64.79 
   6   7  -1    1.70   10.60 
   6   7  -1    9.10    7.40 
   6   7  -1   12.00   17.50 
   6   7  -1   11.80   14.10 
   6   7  -1    8.60    8.00 
   6   7  -1   -6.40   23.40 
   6   7  -1   -1.70   13.00 
  -6  -7   1   36.90   17.60 
  -6  -7   1   30.00   25.10 
  -6  -7   1    8.90   16.20 
  -6  -7   1  -15.80   26.50 
  -6  -7   1    4.70   23.10 
   6   6  -2  648.44   71.89 
   6   6  -2  424.86   57.89 
   6   6  -2  518.05   58.99 
   6   6  -2  510.05   67.09 
   6   6  -2  497.15   62.19 
   6   6  -2  407.06   59.49 
  -6  -6   2  425.86   67.39 
  -6  -6   2  615.44   77.39 
  -6  -6   2  595.84   70.89 
  -6  -6   2  625.14   77.99 
  -6  -6   2  566.54   85.49 
  -6  -6   2  408.06   67.09 
  -6  -6   2  388.46   64.19 
   6   5  -3  296.07   52.99 
   6   5  -3  353.76   53.29 
   6   5  -3  394.46   46.90 
   6   5  -3  355.16   46.70 
   6   5  -3  325.47   53.39 
   6   5  -3  375.26   46.20 
   6   5  -3  412.36   55.09 
  -6  -5   3  408.16   59.99 
  -6  -5   3  348.17   51.89 
  -6  -5   3  333.67   54.49 
  -6  -5   3  370.26   52.99 
  -6  -5   3  392.96   71.49 
  -6  -5   3  393.36   55.69 
  -6  -5   3  540.85   61.59 
  -6  -5   3  424.36   56.39 
   6   4  -4  430.26   50.39 
   6   4  -4  373.06   58.99 
   6   4  -4  342.87   55.89 
   6   4  -4  408.96   49.70 
   6   4  -4  391.16   52.19 
   6   4  -4  450.55   57.59 
   6   4  -4  410.96   50.09 
   6   4  -4  390.46   49.90 
  -6  -4   4  392.16   56.49 
  -6  -4   4  403.96   56.19 
  -6  -4   4  449.66   69.89 
  -6  -4   4  415.86   63.19 
  -6  -4   4  400.76   54.79 
  -6  -4   4  451.15   59.79 
  -6  -4   4  519.15   57.39 
  -6  -4   4  377.26   55.49 
   6   3  -5    3.40    4.40 
   6   3  -5   -2.30   15.70 
   6   3  -5   -2.70   12.20 
   6   3  -5    5.00   12.40 
   6   3  -5    7.80    4.90 
   6   3  -5   11.40   13.30 
   6   3  -5  -20.70    7.90 
   6   3  -5   -3.40    5.70 
  -6  -3   5   -9.20   11.00 
  -6  -3   5   -1.50   12.30 
  -6  -3   5   20.50   12.80 
  -6  -3   5   34.70   24.10 
  -6  -3   5   -5.80   10.90 
  -6  -3   5    5.70   10.50 
  -6  -3   5   15.40   16.50 
  -6  -3   5   12.00   13.00 
   6   2  -6  849.91  101.89 
   6   2  -6  881.61  105.59 
   6   2  -6  984.80  103.79 
   6   2  -6  827.32  109.59 
   6   2  -6  919.71  102.79 
   6   2  -6  922.31  103.89 
   6   2  -6  813.52  105.69 
   6   2  -6  840.92  106.19 
   6   2  -6  982.90  101.69 
  -6  -2   6  948.71  107.19 
  -6  -2   6  981.40  108.49 
  -6  -2   6  754.52  105.19 
  -6  -2   6  881.51  105.39 
  -6  -2   6  962.90  118.39 
  -6  -2   6  974.50  106.29 
  -6  -2   6  754.92  107.89 
  -6  -2   6  916.51  112.49 
  -6  -2   6  823.02  102.19 
   6   1  -7   45.20   10.50 
   6   1  -7   50.99    9.50 
   6   1  -7   49.30   14.70 
   6   1  -7   53.69   10.40 
   6   1  -7   45.50   10.20 
   6   1  -7   30.00   17.50 
   6   1  -7   44.70   13.10 
   6   1  -7   42.00   10.20 
   6   1  -7   51.99   13.60 
  -6  -1   7   60.09   10.90 
  -6  -1   7   35.60   18.30 
  -6  -1   7   42.30   14.90 
  -6  -1   7   50.39   17.00 
  -6  -1   7   48.60   13.20 
  -6  -1   7   32.30   18.10 
  -6  -1   7   26.60   12.90 
  -6  -1   7   40.70    8.70 
  -6  -1   7   37.10   19.60 
  -6  -1   7   78.29   16.30 
   6   0  -8 3152.58  331.27 
   6   0  -8 2936.41  332.77 
   6   0  -8 3435.96  332.47 
   6   0  -8 2753.82  334.27 
   6   0  -8 2648.94  332.57 
   6   0  -8 3030.30  333.67 
   6   0  -8 2904.11  334.77 
   6   0  -8 2566.14  337.67 
  -6   0   8 3307.27  336.17 
  -6   0   8 2705.83  331.27 
  -6   0   8 2686.43  335.57 
  -6   0   8 3515.05  346.77 
  -6   0   8 3119.19  341.27 
  -6   0   8 2727.93  340.77 
  -6   0   8 2788.92  335.47 
  -6   0   8 3324.17  338.37 
   6  -1  -9  160.38   29.80 
   6  -1  -9  126.79   18.80 
   6  -1  -9  121.89   14.50 
   6  -1  -9  140.19   26.80 
   6  -1  -9  130.99   19.00 
   6  -1  -9  138.39   23.00 
  -6   1   9  113.99   23.10 
  -6   1   9   85.39   25.90 
  -6   1   9  117.59   25.80 
  -6   1   9  103.79   15.70 
  -6   1   9  148.29   25.70 
  -6   1   9  142.39   31.90 
  -6   1   9  157.78   27.40 
   6  -2 -10  361.96   41.30 
   6  -2 -10  287.27   42.60 
   6  -2 -10  370.36   42.30 
   6  -2 -10  401.56   45.20 
  -6   2  10  327.97   51.99 
  -6   2  10  326.57   48.40 
  -6   2  10  305.87   51.29 
  -6   2  10  344.97   49.80 
  -6   2  10  308.07   37.30 
  -6   2  10  337.27   46.90 
  -6   2  10  272.77   49.40 
  -6   2  10  282.47   45.30 
   6  -3 -11    4.10    9.70 
   6  -3 -11    2.40   13.70 
   6  -3 -11   13.80    6.90 
   6  -3 -11   16.80   11.50 
  -6   3  11  -10.20   16.90 
  -6   3  11  -14.30   19.60 
  -6   3  11    9.80   14.40 
  -6   3  11   -9.20   18.80 
  -6   3  11   13.30   20.80 
  -6   3  11   -7.50   17.10 
   6  -4 -12   21.40   14.60 
   6  -4 -12   11.90   12.40 
  -6   4  12    2.30   18.40 
  -6   4  12   73.79   22.60 
  -6   4  12   -1.70   20.90 
  -6   4  12   14.30   23.90 
   6  -5 -13   16.40   18.20 
   6  -5 -13   25.10   17.00 
  -6   5  13   13.70   27.40 
  -6   5  13    2.10   27.50 
  -6   5  13  -26.70   36.70 
  -6   5  13    9.40   27.90 
  -6   5  13   10.50   23.30 
   7   9   0  637.04   78.29 
   7   9   0  679.53   72.79 
   7   9   0  464.05   69.89 
   7   9   0  630.14   85.19 
   7   9   0  503.35   76.89 
  -7  -9   0  917.91  101.59 
  -7  -9   0  560.84   87.29 
   7   8  -1  389.96   43.30 
   7   8  -1  211.88   43.10 
   7   8  -1  297.97   40.70 
   7   8  -1  348.37   56.59 
   7   8  -1  402.56   49.00 
  -7  -8   1  484.75   65.79 
  -7  -8   1  310.77   53.09 
  -7  -8   1  216.28   50.09 
   7   7  -2   -5.40   13.30 
   7   7  -2   24.70   13.90 
   7   7  -2   -7.90   23.20 
   7   7  -2   10.20    7.10 
   7   7  -2   -2.30   20.40 
  -7  -7   2   10.70   28.80 
  -7  -7   2   15.20   24.50 
  -7  -7   2  -14.40   23.40 
  -7  -7   2   -4.70   17.90 
  -7  -7   2    6.60   13.90 
  -7  -7   2    7.40   24.50 
   7   6  -3   36.30   10.60 
   7   6  -3   39.70   10.50 
   7   6  -3   40.60   12.20 
   7   6  -3   57.49   22.90 
  -7  -6   3   18.50   17.40 
  -7  -6   3  117.19   38.20 
  -7  -6   3  109.39   34.70 
  -7  -6   3   60.19   26.10 
  -7  -6   3   53.09   26.00 
  -7  -6   3   12.10   15.90 
   7   5  -4   23.10    7.90 
   7   5  -4   16.40   19.30 
   7   5  -4   12.10   13.80 
   7   5  -4   24.90    8.60 
   7   5  -4    9.40    6.80 
   7   5  -4    1.80   14.70 
   7   5  -4    8.20    7.90 
  -7  -5   4   -1.60   21.10 
  -7  -5   4   23.90   18.30 
  -7  -5   4    4.70   19.60 
  -7  -5   4    0.60   15.50 
  -7  -5   4   34.80   30.70 
   7   4  -5  357.36   42.00 
   7   4  -5  325.17   59.69 
   7   4  -5  352.06   50.59 
   7   4  -5  322.77   39.90 
   7   4  -5  261.07   47.30 
   7   4  -5  332.87   42.50 
   7   4  -5  295.47   39.50 
  -7  -4   5  348.17   51.29 
  -7  -4   5  369.86   57.39 
  -7  -4   5  258.87   61.59 
  -7  -4   5  357.56   52.59 
  -7  -4   5  334.47   46.00 
  -7  -4   5  380.86   52.49 
  -7  -4   5  426.06   49.99 
   7   3  -6 1178.58  156.18 
   7   3  -6 1350.66  154.08 
   7   3  -6 1414.96  149.99 
   7   3  -6 1395.06  157.28 
   7   3  -6 1384.46  154.38 
   7   3  -6 1243.68  149.79 
   7   3  -6 1391.56  152.98 
   7   3  -6 1320.17  157.28 
  -7  -3   6 1422.66  156.78 
  -7  -3   6 1236.88  155.68 
  -7  -3   6 1098.59  161.88 
  -7  -3   6 1465.45  161.68 
  -7  -3   6 1507.75  159.28 
  -7  -3   6 1277.47  159.78 
   7   2  -7  372.26   51.69 
   7   2  -7  378.56   48.20 
   7   2  -7  394.26   50.69 
   7   2  -7  406.06   44.10 
   7   2  -7  368.96   44.10 
   7   2  -7  365.26   47.00 
   7   2  -7  428.66   49.10 
   7   2  -7  387.36   51.89 
  -7  -2   7  344.67   56.49 
  -7  -2   7  425.06   61.59 
  -7  -2   7  359.76   50.19 
  -7  -2   7  335.67   46.30 
  -7  -2   7  416.56   51.89 
  -7  -2   7  419.76   54.79 
  -7  -2   7  375.56   55.59 
  -7  -2   7  388.36   73.49 
   7   1  -8   29.40    8.70 
   7   1  -8    5.90    5.50 
   7   1  -8   16.50    7.00 
   7   1  -8   -0.60    9.30 
   7   1  -8   -4.00   10.40 
   7   1  -8   16.40   14.30 
   7   1  -8   15.40    5.40 
  -7  -1   8  -17.30   19.70 
  -7  -1   8   -5.70   19.40 
  -7  -1   8   11.40   19.20 
  -7  -1   8   12.40   14.30 
  -7  -1   8   -0.70   14.20 
  -7  -1   8   24.90   12.80 
  -7  -1   8   22.70   13.70 
   7   0  -9    4.80   10.20 
   7   0  -9    1.80    5.50 
   7   0  -9   -6.20    5.00 
   7   0  -9    5.50    5.70 
   7   0  -9   -5.00    4.70 
   7   0  -9   -4.00    6.20 
   7   0  -9    7.20   10.10 
  -7   0   9    3.20    4.90 
  -7   0   9    2.70   27.20 
  -7   0   9   12.80   16.00 
  -7   0   9    3.30   12.80 
  -7   0   9  -14.40   17.60 
   7  -1 -10   19.00   10.00 
   7  -1 -10   -0.30    7.00 
   7  -1 -10    6.80   11.80 
   7  -1 -10    5.00    6.30 
  -7   1  10    1.60   15.10 
  -7   1  10    0.20    4.80 
  -7   1  10   12.00   17.50 
  -7   1  10    1.00   17.80 
  -7   1  10    5.70   11.30 
  -7   1  10    4.90   21.30 
  -7   1  10   -7.30   20.40 
  -7   1  10   -5.30   18.10 
   7  -2 -11  137.79   24.50 
   7  -2 -11   97.89   18.90 
   7  -2 -11   88.49   19.70 
  -7   2  11  150.28   31.20 
  -7   2  11  143.09   30.90 
  -7   2  11  111.79   33.30 
  -7   2  11  142.19   29.10 
  -7   2  11  183.28   37.00 
  -7   2  11  114.39   26.80 
   7  -3 -12  474.65   65.49 
   7  -3 -12  532.85   64.39 
   7  -3 -12  533.85   67.99 
  -7   3  12  625.04   82.39 
  -7   3  12  477.15   71.29 
  -7   3  12  426.06   73.89 
  -7   3  12  620.74   75.39 
   7  -4 -13   90.79   23.50 
   7  -4 -13   96.39   25.40 
  -7   4  13  109.59   34.90 
  -7   4  13  108.09   34.40 
  -7   4  13   48.20   35.70 
  -7   4  13   91.39   32.50 
   8   8  -2   16.70   10.10 
   8   8  -2   -1.30   16.10 
   8   8  -2   11.70   14.90 
   8   8  -2   46.30   27.70 
  -8  -8   2   56.29   32.00 
  -8  -8   2   15.60   19.60 
  -8  -8   2   58.49   29.60 
  -8  -8   2  -13.20   33.60 
  -8  -8   2   -7.50   42.10 
   8   7  -3  203.58   32.00 
   8   7  -3  157.38   43.30 
   8   7  -3  199.58   33.00 
   8   7  -3  315.97   37.70 
  -8  -7   3  238.48   42.10 
  -8  -7   3  216.08   46.80 
  -8  -7   3  455.25   69.99 
  -8  -7   3  376.16   52.49 
   8   6  -4   71.59   14.60 
   8   6  -4   51.19   12.30 
   8   6  -4   26.20    8.20 
   8   6  -4   38.00   10.30 
  -8  -6   4   21.60   17.30 
  -8  -6   4   60.39   33.20 
  -8  -6   4  143.99   35.50 
  -8  -6   4   83.69   45.40 
  -8  -6   4   42.80   46.80 
  -8  -6   4   28.00   24.10 
  -8  -6   4   84.89   29.10 
   8   5  -5  383.36   49.60 
   8   5  -5  333.97   48.10 
   8   5  -5  433.16   57.59 
  -8  -5   5  537.35   59.59 
  -8  -5   5  417.66   54.69 
  -8  -5   5  459.95   92.89 
  -8  -5   5  391.46   62.69 
  -8  -5   5  301.27   56.59 
   8   4  -6   29.00   18.40 
   8   4  -6   22.00   18.10 
   8   4  -6   22.70   14.70 
   8   4  -6   45.30   11.80 
  -8  -4   6   42.60   14.80 
  -8  -4   6   22.80   25.20 
  -8  -4   6   40.40   19.00 
  -8  -4   6   32.20   30.50 
  -8  -4   6   44.80   24.10 
  -8  -4   6   60.09   36.00 
  -8  -4   6   33.50   23.50 
  -8  -4   6   23.00   21.50 
   8   3  -7   25.10    9.20 
   8   3  -7   49.10   16.70 
   8   3  -7   15.00   13.00 
   8   3  -7   -8.00   13.50 
  -8  -3   7   12.10   19.40 
  -8  -3   7   13.70   23.70 
  -8  -3   7   48.00   27.10 
  -8  -3   7  -42.90   28.60 
  -8  -3   7   20.10   22.20 
  -8  -3   7   31.70   16.70 
  -8  -3   7   18.20   14.00 
   8   2  -8  604.14   67.79 
   8   2  -8  461.25   67.59 
   8   2  -8  479.45   65.79 
   8   2  -8  503.45   69.19 
  -8  -2   8  571.14   72.79 
  -8  -2   8  597.74   76.19 
  -8  -2   8  560.44   81.59 
  -8  -2   8  612.54   71.29 
  -8  -2   8  547.75   69.09 
  -8  -2   8  604.64   90.99 
   8   1  -9  659.93   75.99 
   8   1  -9  588.54   72.19 
   8   1  -9  647.04   75.59 
   8   1  -9  558.84   75.79 
   8   1  -9  591.54   74.29 
  -8  -1   9  542.25   85.69 
  -8  -1   9  581.74   76.69 
  -8  -1   9  667.53   78.59 
  -8  -1   9  566.74   78.49 
  -8  -1   9  701.13   82.49 
  -8  -1   9  710.63   97.39 
   8   0 -10  313.97   44.50 
   8   0 -10  332.77   41.40 
  -8   0  10  385.56   50.49 
  -8   0  10  382.36   68.89 
  -8   0  10  464.75   52.99 
  -8   0  10  433.26   75.39 
  -8   0  10  331.67   52.09 
   8  -1 -11  226.48   29.60 
  -8   1  11  199.38   40.10 
  -8   1  11  189.28   26.90 
  -8   1  11  187.18   47.70 
  -8   1  11  221.78   56.19 
  -8   1  11  218.28   37.40 
   8  -2 -12  182.88   32.00 
   8  -2 -12  139.19   23.70 
   8  -2 -12  212.68   27.60 
   8  -2 -12  211.68   24.80 
  -8   2  12  193.38   37.00 
  -8   2  12  170.58   46.20 
  -8   2  12  206.58   39.10 
  -8   2  12  139.49   38.40 
  -8   2  12  266.87   52.19 
   8  -3 -13   -5.50    7.90 
   8  -3 -13  -13.90   16.70 
   8  -3 -13   14.60   11.50 
  -8   3  13   31.10   32.90 
  -8   3  13   -0.70   32.50 
  -8   3  13   -0.30   31.00 
  -8   3  13   -2.70   19.20 
   9   7  -4  298.77   54.09 
   9   7  -4  260.17   42.10 
   9   7  -4  389.16   45.40 
  -9  -7   4  372.26   51.79 
  -9  -7   4  275.47   60.59 
  -9  -7   4  671.13   99.39 
   9   6  -5    1.60    8.20 
  -9  -6   5   -0.70   16.60 
  -9  -6   5   47.30   34.40 
  -9  -6   5   16.80   34.30 
  -9  -6   5   36.30   48.40 
  -9  -6   5   40.00   35.40 
   9   5  -6   86.69   27.40 
  -9  -5   6   93.69   51.19 
  -9  -5   6  105.19   40.10 
  -9  -5   6  114.89   31.50 
  -9  -5   6  121.39   43.10 
  -9  -5   6   95.69   37.90 
  -9  -5   6  157.48   27.80 
   9   4  -7   -4.40   17.80 
   9   4  -7   -1.00    8.30 
   9   4  -7   -7.00    7.80 
  -9  -4   7   -8.10   36.90 
  -9  -4   7   13.40   20.40 
  -9  -4   7   -4.30   30.60 
  -9  -4   7    2.60   27.70 
   9   3  -8   54.89   22.90 
   9   3  -8   86.99   18.20 
   9   3  -8  105.89   20.00 
   9   3  -8   86.39   24.30 
  -9  -3   8  112.79   26.70 
  -9  -3   8  102.69   24.20 
  -9  -3   8   92.49   35.60 
  -9  -3   8  101.99   33.70 
  -9  -3   8   85.79   46.30 
   9   2  -9   70.99   22.50 
   9   2  -9   81.99   19.60 
   9   2  -9  128.59   21.90 
   9   2  -9  123.59   21.10 
  -9  -2   9  142.59   27.90 
  -9  -2   9   33.40   31.50 
  -9  -2   9   96.09   31.60 
  -9  -2   9   90.89   45.30 
   9   1 -10  107.49   20.50 
   9   1 -10   68.49   21.00 
  -9  -1  10   99.59   23.60 
  -9  -1  10   69.79   25.10 
  -9  -1  10  126.69   46.30 
  -9  -1  10   92.49   38.70 
   9   0 -11   20.70   16.50 
  -9   0  11    6.70    9.10 
  -9   0  11    7.60   25.40 
  -9   0  11    9.90   35.20 
  -9   0  11   52.69   36.60 
  -9   0  11  -23.60   21.10 
  -9   0  11   -5.00   16.20 
   9  -1 -12  161.58   33.30 
   9  -1 -12  178.18   28.10 
  -9   1  12  199.08   37.90 
  -9   1  12  223.78   42.70 
  -9   1  12  149.29   51.89 
  -9   1  12  197.18   52.59 
  10   4  -8  376.86   48.60 
  10   4  -8  340.17   46.20 
  10   4  -8  283.37   52.99 
 -10  -4   8  556.94   94.29 
 -10  -4   8  338.67   51.79 
 -10  -4   8  340.27   67.09 
  10   3  -9   11.40   10.60 
  10   3  -9    5.10    9.20 
  10   3  -9   23.60   21.30 
  10   3  -9    9.40   20.20 
 -10  -3   9   12.90   40.70 
 -10  -3   9   -5.40   33.60 
 -10  -3   9    0.00   17.40 
 -10  -3   9  -54.99   45.20 
 -11   0   7  -40.90   36.30 
 -11   0   7    7.20   29.40 
 -11   0   7    6.40   16.50 
 -11   0   7  -38.40   25.80 
  11   0  -7    1.70   10.50 
  11   0  -7    5.50   10.30 
 -11  -1   6   15.30   27.40 
 -11  -1   6   23.00    9.00 
 -11  -1   6    4.60   39.20 
 -11  -1   6   31.90   28.40 
 -11  -1   6   43.10   27.70 
  11   1  -6    7.90   10.10 
  11   1  -6   31.60   12.10 
  11   1  -6   24.10   12.10 
 -11  -2   5  295.17   50.89 
 -11  -2   5  187.78   49.99 
 -11  -2   5  289.77   32.10 
 -11  -2   5  456.25   75.09 
 -11  -2   5  299.77   51.29 
  11   2  -5  204.98   34.50 
  11   2  -5  225.18   35.50 
 -11  -3   4  373.56   61.59 
 -11  -3   4  485.05   79.79 
 -11  -3   4  544.65   76.59 
 -11  -3   4  309.97   39.90 
 -11  -3   4  498.05   63.89 
  11   3  -4  337.27   43.40 
  11   3  -4  275.37   41.10 
  11   3  -4  222.28   39.90 
 -11  -4   3  283.57   36.80 
 -11  -4   3  267.77   63.39 
 -11  -4   3  236.38   33.20 
 -11  -4   3  415.96   71.89 
  11   4  -3  259.47   35.60 
  11   4  -3  187.88   32.90 
 -10   3   9  -14.20   19.60 
 -10   3   9   -6.60   26.60 
 -10   3   9   12.00   15.10 
  10  -3  -9    6.60   15.40 
  10  -3  -9  -10.10    6.20 
 -10   2   8  365.36   52.49 
 -10   2   8  287.27   58.99 
 -10   2   8  389.86   50.29 
 -10   2   8  366.46   69.19 
 -10   2   8  446.16   51.99 
  10  -2  -8  388.06   49.50 
 -10   1   7  281.07   34.00 
 -10   1   7  208.08   55.49 
 -10   1   7  304.47   45.90 
 -10   1   7  196.38   40.70 
 -10   1   7  156.48   31.30 
  10  -1  -7  203.48   30.00 
 -10   0   6  782.22  104.99 
 -10   0   6  927.21   95.29 
 -10   0   6  649.43   99.99 
 -10   0   6  780.42   95.69 
 -10   0   6  734.53  120.09 
 -10   0   6  955.90   96.29 
 -10   0   6  974.20  103.89 
  10   0  -6  714.03   94.29 
  10   0  -6  801.92   98.69 
  10   0  -6  928.71   98.99 
  10   0  -6  759.42   96.89 
 -10  -1   5  195.58   30.80 
 -10  -1   5  199.38   40.20 
 -10  -1   5  246.48   27.20 
 -10  -1   5  213.38   36.00 
 -10  -1   5  200.48   40.30 
 -10  -1   5  179.48   49.60 
 -10  -1   5  175.48   28.50 
 -10  -1   5  236.58   28.30 
  10   1  -5  196.48   28.50 
  10   1  -5  211.88   29.90 
  10   1  -5  136.99   26.50 
  10   1  -5  209.98   31.40 
 -10  -2   4  653.43   88.99 
 -10  -2   4  580.94   77.79 
 -10  -2   4  742.83   77.09 
 -10  -2   4  840.52   87.89 
 -10  -2   4  672.33   75.89 
  10   2  -4  597.74   77.89 
  10   2  -4  760.62   80.59 
  10   2  -4  563.44   75.79 
  10   2  -4  603.94   77.69 
 -10  -3   3   -2.90   10.40 
 -10  -3   3   53.39   24.40 
 -10  -3   3    1.90    8.30 
 -10  -3   3   22.40   22.30 
 -10  -3   3  -12.80   30.50 
 -10  -3   3   -2.10   20.10 
  10   3  -3   -7.80   11.20 
  10   3  -3    1.60    6.50 
  10   3  -3    6.60    7.40 
 -10  -4   2    0.30   13.20 
 -10  -4   2    2.10   21.60 
 -10  -4   2  -24.30   25.20 
 -10  -4   2   14.80   31.50 
 -10  -4   2   -0.10   22.60 
 -10  -4   2    6.80   32.20 
  10   4  -2    1.70   14.00 
  10   4  -2    7.50    8.40 
 -10  -5   1  305.47   53.29 
 -10  -5   1  284.57   38.20 
  10   5  -1  303.67   37.20 
  10   5  -1  233.98   35.30 
  10   5  -1  232.38   39.80 
 -10  -6   0  -18.00   34.70 
 -10  -6   0   10.00   30.70 
 -10  -6   0   43.40   24.00 
 -10  -6   0   31.70   26.70 
 -10  -6   0    6.30   15.60 
  10   6   0   34.40   19.70 
  10   6   0   15.70   16.10 
  10   6   0   22.60    9.70 
  -9   4   9   70.79   23.10 
  -9   4   9   46.40   23.30 
  -9   4   9   15.20   16.60 
  -9   4   9   55.39   27.10 
  -9   4   9   47.80   27.80 
   9  -4  -9   77.09   19.00 
  -9   3   8   71.39   32.60 
  -9   3   8   68.59   21.10 
  -9   3   8   70.69   18.50 
  -9   3   8   98.69   27.20 
  -9   3   8   92.79   21.30 
   9  -3  -8   55.39   17.50 
  -9   2   7   43.50   20.40 
  -9   2   7   22.30    9.20 
  -9   2   7   28.20   19.90 
  -9   2   7   42.30   13.20 
  -9   2   7   38.80   15.40 
  -9   2   7   16.20   12.50 
   9  -2  -7   29.10    9.80 
   9  -2  -7   16.90   16.10 
  -9   1   6  301.47   41.40 
  -9   1   6  430.36   45.00 
  -9   1   6  346.07   45.60 
  -9   1   6  410.16   50.59 
  -9   1   6  271.47   49.20 
  -9   1   6  311.17   44.50 
  -9   1   6  369.86   68.69 
  -9   1   6  366.66   45.80 
   9  -1  -6  314.47   44.40 
   9  -1  -6  352.66   43.40 
   9  -1  -6  327.37   42.30 
  -9   0   5   -5.60   12.30 
  -9   0   5    8.90    9.10 
  -9   0   5   -2.00   15.80 
  -9   0   5    7.10    7.60 
  -9   0   5    3.70    8.80 
  -9   0   5    6.90   16.50 
  -9   0   5    9.40   14.40 
   9   0  -5   -5.80    6.60 
   9   0  -5    0.80    6.70 
  -9  -1   4  828.42   84.99 
  -9  -1   4  730.03  103.79 
  -9  -1   4  797.12   96.29 
  -9  -1   4  722.03   83.49 
  -9  -1   4  618.44   84.79 
  -9  -1   4  790.62   93.59 
  -9  -1   4  678.23   92.19 
  -9  -1   4  778.92   89.09 
   9   1  -4  676.33   85.29 
   9   1  -4  697.43   86.39 
   9   1  -4  732.03   88.99 
  -9  -2   3  434.66   52.69 
  -9  -2   3  377.56   43.40 
  -9  -2   3  490.55   57.99 
  -9  -2   3  425.46   44.90 
  -9  -2   3  364.36   45.80 
  -9  -2   3  352.66   54.19 
   9   2  -3  344.27   44.60 
   9   2  -3  326.67   42.90 
   9   2  -3  342.47   45.70 
   9   2  -3  276.47   46.20 
   9   2  -3  318.57   43.70 
  -9  -3   2  457.35   60.19 
  -9  -3   2  452.55   54.59 
  -9  -3   2  490.65   66.69 
   9   3  -2  418.86   59.49 
   9   3  -2  432.76   54.89 
   9   3  -2  453.85   56.09 
   9   3  -2  459.35   56.89 
   9   3  -2  445.66   57.29 
   9   3  -2  457.15   56.19 
  -9  -4   1   16.70   13.50 
  -9  -4   1    6.10   18.00 
  -9  -4   1   15.00   14.30 
  -9  -4   1   20.30   10.80 
  -9  -4   1   21.10   23.20 
  -9  -4   1   12.60   18.20 
  -9  -4   1   19.40   28.10 
  -9  -4   1   -1.60   26.20 
   9   4  -1    1.00   13.80 
   9   4  -1   16.80   14.80 
   9   4  -1    3.90    6.80 
   9   4  -1    5.20   13.20 
   9   4  -1    2.80    6.20 
  -9  -5   0  387.86   50.39 
  -9  -5   0  430.66   45.70 
  -9  -5   0  299.37   45.50 
  -9  -5   0  234.18   53.39 
  -9  -5   0  598.14   77.59 
  -9  -5   0  536.85   72.09 
   9   5   0  225.78   46.70 
   9   5   0  332.47   44.70 
  -9  -6  -1   20.40   15.20 
  -9  -6  -1   24.60   26.80 
  -9  -6  -1   21.70   22.50 
  -9  -6  -1    0.50   19.80 
  -9  -6  -1   19.30   23.30 
   9   6   1   19.90   18.60 
   9   6   1   31.20   15.30 
   9   6   1   36.90   10.30 
   9   6   1   14.40    8.50 
  -9  -7  -2  200.08   47.20 
  -9  -7  -2  275.67   45.90 
  -9  -7  -2  241.78   41.20 
  -9  -7  -2  317.07   66.29 
   9   7   2  264.77   34.90 
   9   7   2  201.18   42.20 
   9   7   2  225.08   32.70 
  -8   6  10   54.69   35.10 
  -8   6  10  197.68   37.10 
  -8   6  10  108.79   32.90 
  -8   6  10   48.10   26.90 
  -8   6  10  119.69   35.50 
   8  -6 -10  115.89   27.30 
  -8   5   9  443.76   67.39 
  -8   5   9  457.65   65.49 
  -8   5   9  422.66   62.79 
  -8   5   9  403.06   61.89 
  -8   5   9  478.45   60.69 
   8  -5  -9  438.76   59.29 
  -8   4   8  305.17   61.99 
  -8   4   8  419.36   49.99 
  -8   4   8  367.46   51.39 
  -8   4   8  441.96   52.29 
  -8   4   8  405.46   57.39 
  -8   4   8  321.27   53.39 
  -8   4   8  324.47   56.29 
   8  -4  -8  325.07   47.80 
   8  -4  -8  328.67   56.09 
  -8   3   7    5.50   15.90 
  -8   3   7   -6.30   11.00 
  -8   3   7   45.50   18.50 
  -8   3   7   29.10   13.50 
  -8   3   7   14.20   15.80 
  -8   3   7    0.30   10.00 
   8  -3  -7   18.80   10.60 
   8  -3  -7   -8.60   18.30 
   8  -3  -7   13.80    7.10 
  -8   2   6   42.90   13.20 
  -8   2   6   38.90   16.10 
  -8   2   6   69.69   26.50 
  -8   2   6   22.80    8.00 
  -8   2   6   49.99   11.90 
  -8   2   6   11.50   13.10 
  -8   2   6   43.70   16.40 
   8  -2  -6   29.00    9.40 
   8  -2  -6   48.00   19.80 
   8  -2  -6   21.30    9.50 
   8  -2  -6   35.20   10.80 
  -8   1   5  466.85   59.09 
  -8   1   5  562.44   58.79 
  -8   1   5  471.95   58.19 
  -8   1   5  558.54   61.49 
  -8   1   5  422.66   62.09 
  -8   1   5  413.46   57.29 
  -8   1   5  446.96   58.79 
  -8   1   5  586.74   58.29 
  -8   1   5  606.04   73.79 
   8  -1  -5  470.95   57.99 
   8  -1  -5  428.46   66.99 
   8  -1  -5  469.45   58.29 
   8  -1  -5  404.86   56.49 
   8  -1  -5  553.64   59.59 
  -8   0   4  102.49   21.20 
  -8   0   4   63.19   27.70 
  -8   0   4   80.99   15.20 
  -8   0   4   96.69   21.70 
  -8   0   4   67.59   14.70 
  -8   0   4   93.99   14.70 
  -8   0   4  110.79   16.60 
  -8   0   4   91.59   16.50 
   8   0  -4  115.59   25.70 
   8   0  -4   93.69   14.20 
   8   0  -4   78.89   15.90 
   8   0  -4   91.59   16.60 
   8   0  -4  115.79   16.40 
  -8  -1   3 1531.45  171.88 
  -8  -1   3 1487.35  187.18 
  -8  -1   3 1490.05  176.98 
  -8  -1   3 1811.62  174.48 
  -8  -1   3 1654.93  178.68 
  -8  -1   3 1572.04  170.58 
  -8  -1   3 1433.96  176.38 
   8   1  -3 1360.56  170.38 
   8   1  -3 1423.46  172.18 
   8   1  -3 1689.73  173.98 
   8   1  -3 1566.34  172.08 
   8   1  -3 1442.96  172.88 
   8   1  -3 1331.87  169.88 
  -8  -2   2   30.40   14.20 
  -8  -2   2    2.20    9.00 
  -8  -2   2   13.10    6.30 
  -8  -2   2   10.80   22.10 
  -8  -2   2   12.10   14.00 
  -8  -2   2    2.10   16.70 
  -8  -2   2    5.90    8.00 
  -8  -2   2   14.70   14.80 
   8   2  -2    3.20    5.40 
   8   2  -2   14.30    6.10 
   8   2  -2   22.40   10.10 
   8   2  -2   12.20    7.80 
   8   2  -2    7.70    9.50 
   8   2  -2   18.90    7.90 
  -8  -3   1   10.50   10.70 
  -8  -3   1    4.70    7.80 
  -8  -3   1    7.20   15.40 
  -8  -3   1    5.60    9.40 
  -8  -3   1  -10.30   11.20 
  -8  -3   1   32.00   17.90 
  -8  -3   1   46.70   25.30 
   8   3  -1   13.30   11.10 
   8   3  -1   10.80    6.20 
   8   3  -1    3.80   10.10 
   8   3  -1   16.30   12.20 
   8   3  -1    4.50    5.60 
  -8  -4   0  816.82   79.49 
  -8  -4   0  640.84   77.49 
  -8  -4   0  614.14   78.99 
  -8  -4   0  527.95   81.99 
   8   4   0  657.03   76.49 
   8   4   0  593.74   75.09 
   8   4   0  625.84   80.49 
   8   4   0  654.93   79.29 
   8   4   0  647.04   78.39 
  -8  -5  -1  425.46   51.99 
  -8  -5  -1  303.57   55.59 
  -8  -5  -1  456.25   53.89 
   8   5   1  402.86   48.80 
   8   5   1  392.96   54.29 
   8   5   1  351.46   53.09 
   8   5   1  368.06   47.40 
  -8  -6  -2  388.66   60.79 
  -8  -6  -2  204.08   48.90 
  -8  -6  -2  257.27   44.00 
  -8  -6  -2  282.97   39.90 
  -8  -6  -2  213.58   43.50 
  -8  -6  -2  422.26   52.99 
   8   6   2  270.27   36.00 
   8   6   2  237.38   42.30 
   8   6   2  250.27   34.20 
  -8  -7  -3  383.66   61.09 
  -8  -7  -3  237.68   47.20 
  -8  -7  -3  348.77   46.80 
  -8  -7  -3  160.98   44.10 
  -8  -7  -3  385.56   52.39 
   8   7   3  231.88   45.10 
   8   7   3  237.48   34.80 
   8   7   3  251.07   36.40 
   8   7   3  337.17   43.20 
  -8  -8  -4  294.97   54.39 
  -8  -8  -4  186.98   44.00 
  -8  -8  -4  258.27   47.30 
  -8  -8  -4  239.08   52.69 
  -8  -8  -4  281.77   50.59 
   8   8   4  325.07   40.80 
   8   8   4  242.68   35.00 
   8   8   4  183.78   42.00 
   8   8   4  226.78   35.70 
  -7   7  10   -6.20   24.40 
  -7   7  10   -2.30   19.20 
  -7   7  10   19.00   26.90 
  -7   7  10   14.70   37.00 
  -7   7  10   39.80   27.60 
  -7   7  10    5.50   25.00 
   7  -7 -10   24.00   15.50 
   7  -7 -10   -9.30   18.00 
   7  -7 -10   23.00   18.60 
  -7   6   9    4.20   22.60 
  -7   6   9    4.30   16.60 
  -7   6   9    5.30   20.10 
  -7   6   9   47.30   26.00 
  -7   6   9   38.40   21.60 
  -7   6   9   23.90   21.20 
   7  -6  -9   41.90   16.40 
   7  -6  -9   22.70   22.30 
   7  -6  -9   11.50   10.60 
   7  -6  -9    3.10   10.70 
  -7   5   8   34.90   18.40 
  -7   5   8   30.60   18.40 
  -7   5   8    9.20   15.40 
  -7   5   8    9.90   15.10 
  -7   5   8   34.90   19.70 
   7  -5  -8   41.40   14.40 
  -7   4   7  300.87   46.00 
  -7   4   7  311.67   47.00 
  -7   4   7  346.17   43.80 
  -7   4   7  330.47   42.40 
  -7   4   7  266.27   42.80 
   7  -4  -7  274.17   40.60 
   7  -4  -7  300.67   45.60 
  -7   3   6 1335.57  144.39 
  -7   3   6 1426.56  145.09 
  -7   3   6 1246.58  147.59 
  -7   3   6 1422.46  149.99 
  -7   3   6 1287.67  147.79 
  -7   3   6 1184.88  144.39 
   7  -3  -6 1151.88  146.69 
   7  -3  -6 1207.88  143.19 
   7  -3  -6 1056.29  142.09 
  -7   2   5  389.36   51.39 
  -7   2   5  480.85   59.89 
  -7   2   5  447.26   54.19 
  -7   2   5  508.95   52.29 
  -7   2   5  457.75   51.39 
  -7   2   5  447.06   52.19 
  -7   2   5  379.16   54.19 
  -7   2   5  355.76   49.20 
   7  -2  -5  393.46   50.09 
   7  -2  -5  428.16   50.79 
   7  -2  -5  405.26   50.29 
   7  -2  -5  378.36   55.69 
  -7   1   4  259.07   32.50 
  -7   1   4  213.68   30.10 
  -7   1   4  202.48   29.10 
  -7   1   4  270.47   30.10 
  -7   1   4  251.47   31.20 
  -7   1   4  282.77   30.60 
  -7   1   4  225.08   31.50 
  -7   1   4  227.28   33.40 
  -7   1   4  212.38   41.20 
   7  -1  -4  255.57   30.60 
   7  -1  -4  230.38   29.60 
   7  -1  -4  208.78   29.60 
   7  -1  -4  196.28   36.20 
   7  -1  -4  219.78   30.10 
  -7   0   3   10.20    4.70 
  -7   0   3   16.10   10.10 
  -7   0   3    1.00    9.20 
  -7   0   3   -4.10    6.70 
  -7   0   3   -5.60    6.30 
  -7   0   3   -0.30   14.30 
  -7   0   3   -1.40    5.80 
  -7   0   3   -3.90    4.00 
   7   0  -3    7.00    4.60 
   7   0  -3    5.20    3.80 
   7   0  -3   -1.20   12.50 
   7   0  -3    2.00    6.60 
  -7  -1   2   25.00    8.50 
  -7  -1   2   18.20   10.90 
  -7  -1   2   38.60   19.70 
  -7  -1   2   13.30    5.70 
  -7  -1   2   20.90   11.60 
  -7  -1   2   25.00    8.60 
  -7  -1   2   25.00    5.80 
  -7  -1   2   20.70    7.00 
   7   1  -2   24.00    7.40 
   7   1  -2   10.70    5.50 
   7   1  -2   15.00    7.60 
   7   1  -2   11.00    7.60 
   7   1  -2   23.20    5.70 
   7   1  -2   15.80    6.30 
  -7  -2   1  672.73   79.79 
  -7  -2   1  760.62   79.59 
  -7  -2   1  594.94   83.29 
  -7  -2   1  598.74   79.29 
   7   2  -1  704.13   79.99 
   7   2  -1  711.33   79.99 
   7   2  -1  702.03   79.39 
   7   2  -1  721.13   87.19 
   7   2  -1  694.33   81.59 
   7   2  -1  650.13   79.79 
   7   2  -1  689.23   80.19 
  -7  -3   0 3668.03  397.46 
  -7  -3   0 3061.69  400.96 
  -7  -3   0 3594.64  397.66 
   7   3   0 3559.64  396.26 
   7   3   0 3557.94  397.46 
   7   3   0 3424.36  397.76 
   7   3   0 3798.92  397.46 
   7   3   0 3611.34  398.16 
   7   3   0 3543.35  399.26 
  -7  -4  -1  586.84   73.79 
  -7  -4  -1  712.03   79.19 
  -7  -4  -1  717.23   71.29 
  -7  -4  -1  434.86   75.79 
  -7  -4  -1  548.95   74.89 
  -7  -4  -1  746.23   75.59 
  -7  -4  -1  805.52   87.99 
   7   4   1  579.44   74.29 
   7   4   1  571.54   71.89 
   7   4   1  579.04   75.49 
   7   4   1  593.14   71.19 
   7   4   1  584.84   74.79 
   7   4   1  528.85   75.19 
  -7  -5  -2    5.70   19.50 
  -7  -5  -2   49.20   28.50 
  -7  -5  -2    5.80   13.80 
  -7  -5  -2   10.20   16.50 
  -7  -5  -2   47.40   14.50 
   7   5   2   10.30   13.20 
   7   5   2   38.40    9.70 
   7   5   2   23.50    7.70 
   7   5   2   13.30   15.70 
   7   5   2   35.80   13.20 
   7   5   2   22.40   14.80 
  -7  -6  -3   18.40   17.50 
  -7  -6  -3   73.19   23.90 
  -7  -6  -3   54.49   25.00 
  -7  -6  -3   51.39   16.80 
  -7  -6  -3   52.79   23.60 
  -7  -6  -3   43.40   19.70 
  -7  -6  -3   91.69   42.50 
   7   6   3   42.50   17.00 
   7   6   3   50.59   19.70 
   7   6   3   27.50    9.30 
   7   6   3   32.40    8.70 
   7   6   3   40.30   13.80 
   7   6   3   39.90   11.60 
   7   6   3   22.80    9.50 
  -7  -7  -4   80.79   27.00 
  -7  -7  -4   74.79   26.90 
  -7  -7  -4  100.89   29.30 
  -7  -7  -4  100.19   31.30 
  -7  -7  -4   49.90   25.20 
   7   7   4   99.09   15.00 
   7   7   4   66.29   22.10 
   7   7   4   99.19   20.00 
   7   7   4   41.80   23.90 
   7   7   4   87.39   16.50 
   7   7   4   68.69   17.50 
  -7  -8  -5  197.18   39.40 
  -7  -8  -5  238.68   47.80 
  -7  -8  -5  284.87   47.30 
  -7  -8  -5  168.38   43.50 
  -7  -8  -5  199.58   41.50 
   7   8   5  188.08   38.00 
   7   8   5  207.08   31.20 
   7   8   5  171.98   32.60 
   7   8   5  202.58   35.90 
   7   8   5  250.57   33.20 
   7   8   5  178.88   27.10 
  -6   8  10  115.69   30.30 
  -6   8  10  137.99   47.60 
  -6   8  10   28.50   31.80 
  -6   8  10  155.78   41.90 
   6  -8 -10  122.49   30.80 
   6  -8 -10  163.18   27.80 
   6  -8 -10   97.79   32.50 
  -6   7   9   23.20   18.10 
  -6   7   9   49.90   24.50 
  -6   7   9   20.70   24.70 
  -6   7   9   16.90   19.90 
  -6   7   9   20.60   24.90 
  -6   7   9   27.20   20.10 
   6  -7  -9  -12.60   21.70 
   6  -7  -9   12.10   19.00 
   6  -7  -9   29.10   18.90 
   6  -7  -9   30.00   14.20 
  -6   6   8 1404.56  161.88 
  -6   6   8 1404.26  165.28 
  -6   6   8 1275.77  160.48 
  -6   6   8 1250.37  159.28 
  -6   6   8 1334.27  161.48 
   6  -6  -8 1421.16  159.18 
   6  -6  -8 1234.78  158.18 
   6  -6  -8 1378.26  156.08 
   6  -6  -8 1472.65  156.18 
  -6   5   7   41.90   17.60 
  -6   5   7   35.90   18.50 
  -6   5   7   17.50   21.30 
  -6   5   7   33.90   16.50 
  -6   5   7   51.39   16.30 
  -6   5   7   33.60   17.50 
   6  -5  -7   50.09   11.70 
   6  -5  -7   42.50   16.30 
   6  -5  -7   48.20   11.30 
   6  -5  -7   30.30   13.70 
  -6   4   6 1319.37  150.48 
  -6   4   6 1206.78  153.48 
  -6   4   6 1430.46  150.88 
  -6   4   6 1398.66  151.98 
  -6   4   6 1203.98  149.79 
  -6   4   6 1372.56  153.68 
  -6   4   6 1119.49  149.59 
  -6   4   6 1294.57  150.88 
   6  -4  -6 1296.87  149.49 
   6  -4  -6 1358.56  145.69 
   6  -4  -6 1279.37  151.08 
   6  -4  -6 1297.67  145.89 
  -6   3   5   15.30   11.10 
  -6   3   5   -1.90    6.60 
  -6   3   5    7.40    7.90 
  -6   3   5    3.00    6.30 
  -6   3   5    0.20    9.10 
  -6   3   5  -10.00    7.30 
  -6   3   5   -3.80    9.30 
  -6   3   5    7.80    7.40 
   6  -3  -5   -7.50   10.40 
   6  -3  -5   -0.10    6.60 
   6  -3  -5    4.40    4.40 
   6  -3  -5    9.20    7.00 
  -6   2   4  430.76   46.60 
  -6   2   4  434.76   52.99 
  -6   2   4  373.76   48.80 
  -6   2   4  380.36   46.60 
  -6   2   4  324.07   44.50 
  -6   2   4  377.66   48.20 
  -6   2   4  369.06   45.90 
  -6   2   4  343.07   46.20 
  -6   2   4  393.56   48.10 
  -6   2   4  416.06   46.30 
   6  -2  -4  325.27   44.90 
   6  -2  -4  415.06   45.80 
   6  -2  -4  432.16   46.40 
   6  -2  -4  351.96   48.90 
  -6   1   3  401.36   50.69 
  -6   1   3  465.95   51.99 
  -6   1   3  473.25   51.99 
  -6   1   3  452.05   51.49 
  -6   1   3  497.65   50.89 
  -6   1   3  457.65   51.49 
  -6   1   3  467.45   50.79 
  -6   1   3  441.46   52.59 
  -6   1   3  339.17   49.90 
  -6   1   3  444.86   59.89 
  -6   1   3  385.16   50.99 
   6  -1  -3  451.45   51.29 
   6  -1  -3  468.05   51.39 
   6  -1  -3  404.86   49.80 
   6  -1  -3  361.86   49.80 
   6  -1  -3  402.46   54.89 
  -6   0   2  434.16   66.09 
  -6   0   2  434.36   55.79 
  -6   0   2  547.55   55.89 
  -6   0   2  533.25   54.89 
  -6   0   2  442.96   61.09 
  -6   0   2  452.15   55.79 
  -6   0   2  451.05   58.09 
   6   0  -2  463.75   56.19 
   6   0  -2  491.55   54.79 
   6   0  -2  523.65   56.89 
   6   0  -2  498.45   62.09 
   6   0  -2  411.76   56.49 
  -6  -1   1   18.00    6.50 
  -6  -1   1   14.70    9.20 
  -6  -1   1    7.60    4.30 
  -6  -1   1   12.70    8.00 
  -6  -1   1   32.80   17.40 
  -6  -1   1   17.60    6.00 
  -6  -1   1   22.30    6.60 
  -6  -1   1   30.80    7.30 
  -6  -1   1   47.30    8.10 
   6   1  -1    8.00    4.70 
   6   1  -1   21.60   10.70 
   6   1  -1   16.10    5.50 
   6   1  -1   15.40    5.20 
   6   1  -1   21.00    5.50 
   6   1  -1   15.60    7.30 
  -6  -2   0  323.07   41.80 
  -6  -2   0  283.97   40.90 
  -6  -2   0  336.57   41.20 
  -6  -2   0  273.87   43.50 
  -6  -2   0  443.76   45.90 
  -6  -2   0  376.46   41.30 
  -6  -2   0  331.67   43.10 
  -6  -2   0  320.97   46.60 
   6   2   0  343.27   40.20 
   6   2   0  334.47   42.70 
   6   2   0  315.27   41.10 
   6   2   0  303.47   40.40 
   6   2   0  426.16   48.30 
   6   2   0  336.67   43.20 
  -6  -3  -1   24.00   13.00 
  -6  -3  -1   24.60    9.30 
  -6  -3  -1   22.60   11.40 
  -6  -3  -1   12.70    6.00 
  -6  -3  -1   38.10   10.60 
  -6  -3  -1   20.20    7.60 
  -6  -3  -1   23.40   15.40 
  -6  -3  -1    6.40    8.70 
  -6  -3  -1    3.00    8.20 
  -6  -3  -1   45.10   17.70 
   6   3   1   15.70    5.20 
   6   3   1   16.50    9.30 
   6   3   1   22.60   10.00 
   6   3   1   19.40    9.60 
   6   3   1    7.80    9.10 
   6   3   1   20.80    6.10 
   6   3   1   26.90   11.00 
  -6  -4  -2  781.72   98.39 
  -6  -4  -2  911.51  105.29 
  -6  -4  -2  824.72   98.09 
  -6  -4  -2  917.51   98.59 
  -6  -4  -2  797.52  103.39 
  -6  -4  -2  788.42   99.29 
  -6  -4  -2  681.43   98.69 
   6   4   2  923.61   95.69 
   6   4   2  832.52   97.99 
   6   4   2  822.32   98.29 
   6   4   2  831.42   98.59 
   6   4   2  751.72   98.69 
  -6  -5  -3  360.36   52.19 
  -6  -5  -3  409.86   52.09 
  -6  -5  -3  422.56   51.19 
  -6  -5  -3  341.07   52.09 
  -6  -5  -3  459.95   65.49 
   6   5   3  378.26   45.90 
   6   5   3  394.66   44.90 
   6   5   3  335.67   49.30 
   6   5   3  338.47   44.90 
   6   5   3  304.27   50.69 
   6   5   3  438.16   49.90 
   6   5   3  343.67   50.29 
   6   5   3  383.66   46.70 
   6   5   3  354.66   49.90 
  -6  -6  -4 3213.48  318.87 
  -6  -6  -4 2754.92  304.77 
  -6  -6  -4 2349.46  304.27 
  -6  -6  -4 2806.82  305.07 
  -6  -6  -4 2556.14  305.27 
   6   6   4 2654.53  297.47 
   6   6   4 2690.03  301.67 
   6   6   4 2743.83  299.17 
   6   6   4 2587.14  301.17 
   6   6   4 2409.56  298.67 
  -6  -7  -5  -11.40   20.20 
  -6  -7  -5   18.10   17.80 
  -6  -7  -5    3.70   21.10 
  -6  -7  -5   21.60   17.00 
  -6  -7  -5   10.10   15.50 
   6   7   5   22.50   15.70 
   6   7   5  -13.70   14.80 
   6   7   5   14.20   14.50 
   6   7   5   22.70    7.10 
   6   7   5    5.80    6.90 
   6   7   5   -5.60   12.90 
  -6  -8  -6   32.50   20.90 
  -6  -8  -6   57.89   40.00 
  -6  -8  -6   57.29   22.40 
  -6  -8  -6   46.80   22.00 
   6   8   6   61.69   22.30 
   6   8   6   53.59   21.40 
   6   8   6   34.50   10.10 
   6   8   6   35.60   13.60 
   6   8   6   41.80   19.10 
  -6  -9  -7   25.40   23.20 
  -6  -9  -7   23.10   24.00 
   6   9   7   51.19   23.90 
   6   9   7   28.80   11.60 
   6   9   7   23.30    8.90 
  -5   8   9  372.46   58.39 
  -5   8   9  419.66   64.69 
  -5   8   9  365.46   65.19 
  -5   8   9  322.27   66.19 
  -5   8   9  485.75   67.69 
   5  -8  -9  490.35   57.29 
   5  -8  -9  420.06   62.29 
   5  -8  -9  357.86   59.99 
  -5   7   8  -17.30   19.20 
  -5   7   8   21.10   26.00 
  -5   7   8   14.10   21.40 
  -5   7   8    7.70   20.10 
   5  -7  -8   70.29   16.40 
   5  -7  -8   34.10   16.80 
   5  -7  -8   45.00   20.70 
   5  -7  -8   36.60   17.90 
  -5   6   7   27.60   27.90 
  -5   6   7   46.40   15.60 
  -5   6   7   31.40   18.80 
  -5   6   7   25.70   13.20 
  -5   6   7   46.50   20.60 
  -5   6   7   48.50   20.90 
  -5   6   7   45.40   18.20 
  -5   6   7   38.10   16.20 
   5  -6  -7   40.30   14.70 
   5  -6  -7   34.80   14.10 
   5  -6  -7   40.50    6.50 
   5  -6  -7   36.00   14.80 
   5  -6  -7   41.50   13.60 
  -5   5   6   17.60   12.60 
  -5   5   6    5.00    8.40 
  -5   5   6   -9.80    8.30 
  -5   5   6    1.60    9.50 
  -5   5   6   -3.30   12.20 
  -5   5   6  -12.70   14.90 
  -5   5   6   -5.60   10.70 
  -5   5   6    3.90   11.40 
   5  -5  -6    1.80    8.00 
   5  -5  -6    0.30   10.00 
   5  -5  -6   12.70   10.40 
   5  -5  -6   -3.90    9.70 
   5  -5  -6   -0.60    2.30 
  -5   4   5  574.44   69.39 
  -5   4   5  550.24   66.59 
  -5   4   5  632.94   71.69 
  -5   4   5  584.54   69.29 
  -5   4   5  479.65   71.99 
  -5   4   5  564.34   67.29 
  -5   4   5  540.05   68.79 
  -5   4   5  565.64   69.19 
  -5   4   5  710.23   72.49 
   5  -4  -5  618.94   68.69 
   5  -4  -5  534.25   64.39 
   5  -4  -5  563.04   68.39 
   5  -4  -5  553.04   66.09 
   5  -4  -5  520.25   67.79 
   5  -4  -5  562.24   65.89 
  -5   3   4 1600.84  185.98 
  -5   3   4 1700.13  183.88 
  -5   3   4 1778.92  185.38 
  -5   3   4 1728.03  185.68 
  -5   3   4 1663.53  183.48 
  -5   3   4 1611.44  182.48 
  -5   3   4 1520.25  184.08 
   5  -3  -4 1588.44  180.98 
   5  -3  -4 1535.05  186.58 
   5  -3  -4 1498.95  179.88 
   5  -3  -4 1560.84  182.58 
   5  -3  -4 1662.73  183.38 
  -5   2   3 3736.83  403.06 
  -5   2   3 3744.63  401.06 
  -5   2   3 3639.14  400.66 
  -5   2   3 3922.51  397.86 
  -5   2   3 2990.50  398.36 
  -5   2   3 3827.42  400.06 
  -5   2   3 3734.73  399.36 
  -5   2   3 3594.34  400.06 
  -5   2   3 3239.48  397.56 
  -5   2   3 3888.61  399.66 
  -5   2   3 3282.97  400.36 
  -5   2   3 3530.55  399.56 
  -5   2   3 3561.34  401.86 
   5  -2  -3 3322.47  401.66 
   5  -2  -3 3530.65  398.86 
   5  -2  -3 3706.33  399.36 
  -5   1   2   54.59   10.20 
  -5   1   2   53.69   10.20 
  -5   1   2   46.10    9.20 
  -5   1   2   58.59    9.10 
  -5   1   2   58.79    9.40 
  -5   1   2   79.89   10.00 
  -5   1   2   76.39    9.30 
  -5   1   2   43.40   10.00 
  -5   1   2   49.00    9.60 
  -5   1   2   49.60   16.30 
  -5   1   2   46.60   11.70 
  -5   1   2   63.99    9.30 
   5  -1  -2   61.79    9.50 
   5  -1  -2   66.89    9.90 
   5  -1  -2   56.19    8.70 
   5  -1  -2   55.89    8.80 
   5  -1  -2   44.70   12.60 
   5  -1  -2   54.19    8.60 
  -5   0   1    8.10    5.10 
  -5   0   1   -2.90    1.90 
  -5   0   1   13.50   10.40 
  -5   0   1    6.70    2.90 
  -5   0   1    0.30    2.80 
  -5   0   1    2.30    2.10 
  -5   0   1    2.50    2.90 
  -5   0   1   25.00    7.60 
  -5   0   1   -2.70    2.90 
  -5   0   1    1.90    3.50 
   5   0  -1    5.20    3.30 
   5   0  -1    2.10    1.90 
   5   0  -1    1.80    4.90 
   5   0  -1   -1.00    2.30 
   5   0  -1    3.90    2.90 
   5   0  -1    6.50    4.20 
  -5  -1   0  337.67   47.00 
  -5  -1   0  387.06   45.20 
  -5  -1   0  450.85   44.80 
  -5  -1   0  382.36   44.70 
  -5  -1   0  351.66   49.20 
  -5  -1   0  480.35   54.69 
  -5  -1   0  335.67   44.50 
  -5  -1   0  389.96   44.90 
  -5  -1   0  361.16   45.20 
  -5  -1   0  410.56   44.80 
  -5  -1   0  357.86   45.30 
   5   1   0  370.86   44.80 
   5   1   0  393.26   45.00 
   5   1   0  372.16   45.00 
   5   1   0  422.96   45.30 
   5   1   0  420.26   46.90 
   5   1   0  388.76   45.50 
   5   1   0  329.07   49.20 
  -5  -2  -1  579.74   72.69 
  -5  -2  -1  553.24   67.69 
  -5  -2  -1  539.65   67.29 
  -5  -2  -1  557.34   66.49 
  -5  -2  -1  664.73   74.59 
  -5  -2  -1  495.25   69.19 
  -5  -2  -1  499.85   67.19 
  -5  -2  -1  598.74   68.69 
  -5  -2  -1  559.94   66.99 
   5   2   1  593.34   67.59 
   5   2   1  644.44   68.69 
   5   2   1  662.03   69.59 
   5   2   1  587.64   66.29 
   5   2   1  601.24   66.89 
  -5  -3  -2  477.15   65.79 
  -5  -3  -2  448.26   66.79 
  -5  -3  -2  641.84   73.79 
  -5  -3  -2  556.14   66.59 
  -5  -3  -2  445.36   65.29 
  -5  -3  -2  518.55   70.09 
  -5  -3  -2  626.54   66.39 
  -5  -3  -2  519.45   64.19 
   5   3   2  605.04   66.79 
   5   3   2  617.64   64.39 
   5   3   2  560.94   67.19 
   5   3   2  659.73   68.09 
   5   3   2  559.94   63.29 
   5   3   2  519.75   61.59 
   5   3   2  480.25   65.69 
   5   3   2  578.04   61.99 
   5   3   2  552.44   65.99 
  -5  -4  -3 1750.52  196.78 
  -5  -4  -3 1787.42  196.08 
  -5  -4  -3 1636.44  196.18 
  -5  -4  -3 1682.13  193.08 
  -5  -4  -3 1497.75  196.28 
  -5  -4  -3 1493.55  195.18 
  -5  -4  -3 1805.82  202.78 
   5   4   3 1642.44  195.38 
   5   4   3 1771.82  195.98 
   5   4   3 1736.73  192.08 
   5   4   3 1931.11  193.08 
   5   4   3 1708.23  195.78 
   5   4   3 1719.43  193.68 
   5   4   3 1715.63  196.48 
   5   4   3 1717.23  192.18 
   5   4   3 1679.73  195.68 
  -5  -5  -4  144.49   26.40 
  -5  -5  -4  124.99   25.20 
  -5  -5  -4  105.39   23.90 
  -5  -5  -4  111.49   32.30 
  -5  -5  -4  131.19   24.80 
  -5  -5  -4  227.78   28.60 
   5   5   4  133.59   24.70 
   5   5   4  138.19   20.60 
   5   5   4  124.39   17.30 
   5   5   4  124.39   20.60 
   5   5   4  137.49   25.90 
   5   5   4   81.49   21.00 
   5   5   4  138.89   24.50 
  -5  -6  -5    3.10   15.70 
  -5  -6  -5   26.20   14.20 
  -5  -6  -5  -15.30   17.60 
  -5  -6  -5   32.50   31.70 
  -5  -6  -5   10.10   11.90 
   5   6   5   25.20   12.80 
   5   6   5    1.20   11.10 
   5   6   5    5.30   10.70 
   5   6   5   10.60   13.00 
   5   6   5    8.10    7.10 
  -5  -7  -6    2.30   13.00 
  -5  -7  -6   32.50   23.20 
  -5  -7  -6    6.00   13.20 
  -5  -7  -6    4.60   14.60 
   5   7   6    5.50    6.00 
   5   7   6   31.40   15.90 
   5   7   6   23.90   16.20 
   5   7   6    2.10   11.90 
   5   7   6   -3.80    5.40 
  -5  -8  -7  193.78   37.10 
  -5  -8  -7   63.29   35.30 
  -5  -8  -7  117.49   29.90 
  -5  -8  -7  233.08   44.70 
  -5  -8  -7  142.09   31.30 
   5   8   7  137.79   31.50 
   5   8   7  136.79   30.00 
   5   8   7  124.29   19.70 
   5   8   7  144.99   23.40 
   5   8   7  140.49   31.30 
  -5  -9  -8  133.39   40.40 
  -5  -9  -8  151.38   40.40 
  -5  -9  -8  187.68   46.80 
   5   9   8  162.38   36.40 
   5   9   8  210.18   29.90 
   5   9   8  186.18   26.00 
   5   9   8  254.17   42.10 
  -4   9   9   37.40   29.50 
  -4   9   9   29.70   26.90 
  -4   9   9   29.50   30.10 
   4  -9  -9   10.70   27.20 
   4  -9  -9   42.20   14.50 
   4  -9  -9   35.70   21.50 
   4  -9  -9   28.90   18.10 
  -4   8   8  359.76   63.59 
  -4   8   8  337.17   60.79 
  -4   8   8  343.87   51.99 
  -4   8   8  233.68   48.20 
   4  -8  -8  328.07   52.99 
   4  -8  -8  302.77   38.10 
   4  -8  -8  321.67   58.59 
   4  -8  -8  389.56   48.10 
   4  -8  -8  370.46   51.89 
   4  -8  -8  402.76   44.30 
  -4   7   7  305.87   50.09 
  -4   7   7  273.87   47.90 
  -4   7   7  378.96   51.19 
  -4   7   7  287.67   39.80 
  -4   7   7  314.87   45.40 
  -4   7   7  209.58   42.00 
   4  -7  -7  244.68   41.20 
   4  -7  -7  234.58   46.80 
   4  -7  -7  301.27   44.60 
   4  -7  -7  285.57   34.00 
   4  -7  -7  322.67   36.80 
   4  -7  -7  364.76   43.20 
  -4   6   6 1238.18  148.59 
  -4   6   6 1298.67  149.39 
  -4   6   6 1112.09  152.48 
  -4   6   6 1161.18  146.29 
  -4   6   6 1120.89  150.18 
  -4   6   6 1270.67  142.29 
  -4   6   6 1255.67  146.69 
   4  -6  -6 1320.57  139.69 
   4  -6  -6 1389.46  140.89 
   4  -6  -6 1270.77  143.89 
   4  -6  -6 1224.28  147.99 
   4  -6  -6 1150.48  147.99 
   4  -6  -6 1187.68  146.09 
   4  -6  -6 1238.18  145.59 
  -4   5   5  682.23   70.99 
  -4   5   5  583.94   72.69 
  -4   5   5  479.05   74.59 
  -4   5   5  572.04   67.29 
  -4   5   5  633.24   74.09 
  -4   5   5  568.94   71.29 
  -4   5   5  456.75   73.89 
  -4   5   5  551.44   71.59 
   4  -5  -5  554.74   69.89 
   4  -5  -5  618.64   72.49 
   4  -5  -5  554.24   70.99 
   4  -5  -5  650.03   66.39 
   4  -5  -5  597.34   65.99 
   4  -5  -5  572.44   69.79 
   4  -5  -5  551.64   69.29 
   4  -5  -5  580.44   73.09 
  -4   4   4 1290.37  164.18 
  -4   4   4 1387.96  160.58 
  -4   4   4 1444.76  162.28 
  -4   4   4 1292.47  162.48 
  -4   4   4 1369.86  158.68 
  -4   4   4 1420.46  156.58 
  -4   4   4 1510.15  161.28 
  -4   4   4 1433.26  160.78 
  -4   4   4 1579.44  159.78 
   4  -4  -4 1364.66  158.88 
   4  -4  -4 1330.27  160.08 
   4  -4  -4 1483.25  159.18 
   4  -4  -4 1288.87  159.98 
   4  -4  -4 1316.57  158.38 
   4  -4  -4 1406.96  156.48 
   4  -4  -4 1420.46  160.58 
  -4   3   3  120.49   17.00 
  -4   3   3  119.09   17.70 
  -4   3   3   90.59   16.50 
  -4   3   3   84.49   15.00 
  -4   3   3  106.69   16.10 
  -4   3   3  100.39   14.50 
  -4   3   3  117.99   13.30 
  -4   3   3  100.49   15.10 
  -4   3   3   94.99   19.00 
  -4   3   3  113.49   16.20 
   4  -3  -3  101.79   16.10 
   4  -3  -3  104.59   15.90 
   4  -3  -3  119.59   16.70 
   4  -3  -3  108.39   14.30 
   4  -3  -3   94.49   16.00 
   4  -3  -3  103.09   13.80 
   4  -3  -3  108.19   14.90 
  -4   2   2  101.29   12.00 
  -4   2   2  113.29   15.80 
  -4   2   2   90.39   15.40 
  -4   2   2  112.69   14.20 
  -4   2   2   80.19   12.80 
  -4   2   2   87.59   14.30 
  -4   2   2   82.19   12.00 
  -4   2   2   75.49   12.70 
  -4   2   2  106.19   13.60 
  -4   2   2   91.99   12.60 
  -4   2   2   76.09   13.30 
  -4   2   2   79.69   12.70 
   4  -2  -2  109.59   13.00 
   4  -2  -2   96.09   13.10 
   4  -2  -2   88.09   11.80 
   4  -2  -2   83.19   12.90 
  -4   1   1 1027.10  110.99 
  -4   1   1  966.60  111.89 
  -4   1   1  897.61  113.59 
  -4   1   1 1041.50  110.79 
  -4   1   1  887.01  110.59 
  -4   1   1 1099.29  110.99 
  -4   1   1  997.70  116.39 
  -4   1   1  899.61  110.79 
  -4   1   1 1025.90  110.79 
  -4   1   1 1037.40  112.09 
  -4   1   1 1036.30  112.19 
  -4   1   1  925.11  111.49 
   4  -1  -1  934.31  110.59 
   4  -1  -1  996.80  111.49 
   4  -1  -1  972.00  114.29 
   4  -1  -1 1002.50  110.89 
   4  -1  -1  987.50  111.79 
   4  -1  -1 1070.39  112.19 
  -4   0   0  178.98   23.50 
  -4   0   0  142.69   26.10 
  -4   0   0  150.58   24.00 
  -4   0   0  165.18   21.90 
  -4   0   0  204.18   22.20 
   4   0   0  180.28   20.50 
   4   0   0  182.58   20.20 
   4   0   0  184.28   22.00 
   4   0   0  161.98   25.00 
   4   0   0  171.38   21.90 
   4   0   0  207.58   22.30 
  -4  -1  -1  950.30  113.59 
  -4  -1  -1  998.00  113.69 
  -4  -1  -1  901.81  117.89 
  -4  -1  -1 1034.90  114.39 
  -4  -1  -1 1110.29  115.49 
  -4  -1  -1  965.50  112.99 
  -4  -1  -1  910.01  113.79 
  -4  -1  -1  981.80  114.09 
  -4  -1  -1 1075.49  113.59 
  -4  -1  -1  904.31  115.79 
  -4  -1  -1  904.71  113.89 
  -4  -1  -1  935.31  118.39 
   4   1   1 1041.70  114.19 
   4   1   1  859.01  113.89 
   4   1   1  999.00  113.69 
   4   1   1 1176.08  114.59 
   4   1   1 1077.29  113.79 
   4   1   1 1178.48  117.89 
   4   1   1 1037.90  114.09 
   4   1   1 1141.59  116.09 
  -4  -2  -2  100.69   14.40 
  -4  -2  -2   79.09   14.50 
  -4  -2  -2   70.59   17.50 
  -4  -2  -2  102.09   11.50 
  -4  -2  -2   79.19   18.30 
  -4  -2  -2   89.29   15.50 
  -4  -2  -2   92.59   12.60 
  -4  -2  -2   94.79   13.90 
  -4  -2  -2   96.49   13.10 
   4   2   2   94.69   12.20 
   4   2   2  104.89   12.80 
   4   2   2   89.39   14.30 
   4   2   2   79.59   14.70 
   4   2   2   89.19   16.10 
   4   2   2   67.79   14.20 
   4   2   2   99.69   15.20 
  -4  -3  -3  104.49   17.80 
  -4  -3  -3  113.09   15.80 
  -4  -3  -3  127.09   25.50 
  -4  -3  -3   92.69   19.40 
  -4  -3  -3  114.89   20.10 
  -4  -3  -3  101.99   19.10 
  -4  -3  -3  117.99   18.20 
   4   3   3  120.69   19.80 
   4   3   3  118.19   18.40 
   4   3   3  101.09   19.40 
   4   3   3  106.29   15.90 
   4   3   3  137.29   15.00 
   4   3   3  115.99   19.10 
   4   3   3  109.69   17.80 
  -4  -4  -4 1174.78  175.18 
  -4  -4  -4 1634.84  172.68 
  -4  -4  -4 1587.44  172.68 
  -4  -4  -4 1337.07  171.48 
  -4  -4  -4 1425.26  172.28 
  -4  -4  -4 1420.96  168.58 
  -4  -4  -4 1541.15  171.98 
   4   4   4 1402.06  170.88 
   4   4   4 1409.96  171.28 
   4   4   4 1674.03  167.48 
   4   4   4 1633.64  172.28 
   4   4   4 1580.74  172.48 
   4   4   4 1411.06  171.18 
   4   4   4 1610.74  173.08 
   4   4   4 1486.25  169.58 
  -4  -5  -5  630.24   74.39 
  -4  -5  -5  609.24   74.29 
  -4  -5  -5  559.24   74.59 
  -4  -5  -5  542.55   69.29 
  -4  -5  -5  539.25   80.79 
  -4  -5  -5  579.74   73.79 
  -4  -5  -5  711.83   79.89 
   4   5   5  655.73   74.49 
   4   5   5  541.25   71.19 
   4   5   5  601.24   73.39 
   4   5   5  636.34   78.79 
   4   5   5  615.94   71.99 
   4   5   5  626.84   78.29 
   4   5   5  524.05   72.49 
  -4  -6  -6 1486.05  159.58 
  -4  -6  -6 1377.26  156.98 
  -4  -6  -6 1049.30  164.28 
  -4  -6  -6 1302.97  158.68 
  -4  -6  -6 1345.37  156.18 
  -4  -6  -6 1221.48  152.68 
  -4  -6  -6 1438.06  157.38 
   4   6   6 1220.48  155.18 
   4   6   6 1264.57  148.39 
   4   6   6 1452.45  156.48 
   4   6   6 1314.07  148.19 
   4   6   6 1350.26  158.08 
   4   6   6 1460.65  154.18 
   4   6   6 1382.16  162.08 
   4   6   6 1246.08  155.48 
  -4  -7  -7  340.57   53.59 
  -4  -7  -7  289.47   46.10 
  -4  -7  -7  268.47   43.00 
  -4  -7  -7  364.06   53.19 
  -4  -7  -7  340.37   47.20 
   4   7   7  335.17   45.80 
   4   7   7  354.86   42.10 
   4   7   7  257.97   46.10 
   4   7   7  308.27   46.60 
   4   7   7  298.77   37.20 
   4   7   7  289.87   45.70 
   4   7   7  273.67   37.80 
  -4  -8  -8  400.86   60.19 
  -4  -8  -8  411.06   58.59 
  -4  -8  -8  403.36   67.49 
   4   8   8  321.97   48.30 
   4   8   8  400.56   49.60 
   4   8   8  538.25   61.69 
   4   8   8  457.95   52.69 
   4   8   8  325.67   56.49 
   4   8   8  395.36   65.49 
  -4  -9  -9   16.60   41.40 
  -4  -9  -9   62.59   29.10 
  -4  -9  -9   47.20   22.30 
   4   9   9   45.60   23.70 
   4   9   9   60.39   16.90 
   4   9   9   76.19   17.20 
   4   9   9   22.50   26.30 
   4   9   9   76.19   26.20 
   4   9   9   74.09   16.90 
  -3  10   9   12.40   21.60 
  -3  10   9   35.70   27.40 
  -3  10   9   65.69   36.90 
  -3  10   9    7.20   32.40 
   3 -10  -9   26.00   23.00 
   3 -10  -9   29.10   22.60 
   3 -10  -9   10.50    5.10 
   3 -10  -9  -11.20   14.50 
   3 -10  -9  -28.50   52.19 
  -3   9   8   95.29   34.30 
  -3   9   8   86.89   30.60 
  -3   9   8   58.49   29.80 
  -3   9   8   59.19   23.70 
  -3   9   8  127.69   33.20 
   3  -9  -8  104.39   41.80 
   3  -9  -8  108.59   24.60 
   3  -9  -8   39.70   24.80 
   3  -9  -8   78.49   26.40 
   3  -9  -8   85.09   19.30 
  -3   8   7    9.60   17.00 
  -3   8   7   -5.00   28.00 
  -3   8   7   23.50   18.70 
  -3   8   7    3.20   13.70 
  -3   8   7   11.30   17.50 
  -3   8   7    1.60   18.80 
   3  -8  -7    2.40   15.50 
   3  -8  -7   30.30   14.40 
   3  -8  -7    9.40    9.10 
   3  -8  -7   14.20   12.30 
   3  -8  -7   -8.30   23.90 
  -3   7   6 1044.90  145.19 
  -3   7   6 1189.08  146.09 
  -3   7   6 1248.38  144.59 
  -3   7   6 1101.69  139.99 
  -3   7   6 1263.67  142.99 
   3  -7  -6 1243.68  142.79 
   3  -7  -6 1248.78  140.89 
   3  -7  -6 1108.19  138.59 
   3  -7  -6 1067.49  145.09 
   3  -7  -6 1403.36  139.49 
  -3   6   5  -11.30    9.00 
  -3   6   5    8.40   11.40 
  -3   6   5  -10.30    9.90 
  -3   6   5   -4.30    8.10 
  -3   6   5   13.50   16.80 
  -3   6   5   11.30   11.00 
  -3   6   5    1.60    9.90 
   3  -6  -5    1.60    9.60 
   3  -6  -5    1.10   14.70 
   3  -6  -5    2.80    7.80 
   3  -6  -5  -14.80   10.60 
   3  -6  -5  -13.30   14.10 
   3  -6  -5   12.30    6.90 
   3  -6  -5    2.00    8.80 
  -3   5   4 1665.53  179.78 
  -3   5   4 1503.95  177.58 
  -3   5   4 1551.44  175.58 
  -3   5   4 1699.13  179.98 
  -3   5   4 1532.15  174.88 
  -3   5   4 1517.25  177.68 
  -3   5   4 1441.36  180.78 
  -3   5   4 1441.36  180.58 
   3  -5  -4 1706.43  174.38 
   3  -5  -4 1541.95  174.98 
   3  -5  -4 1658.13  177.38 
   3  -5  -4 1415.26  178.58 
   3  -5  -4 1446.66  176.98 
   3  -5  -4 1487.85  177.78 
   3  -5  -4 1498.55  179.48 
  -3   4   3  118.79   16.60 
  -3   4   3   75.59   19.90 
  -3   4   3  119.39   16.10 
  -3   4   3  133.49   20.80 
  -3   4   3  105.29   19.10 
  -3   4   3  115.59   16.60 
  -3   4   3  116.09   17.90 
  -3   4   3  112.39   22.30 
   3  -4  -3   94.79   18.70 
   3  -4  -3  110.99   19.00 
   3  -4  -3  117.59   24.40 
   3  -4  -3  119.39   13.70 
   3  -4  -3  102.09   16.60 
   3  -4  -3  102.89   21.00 
   3  -4  -3   97.79   15.60 
   3  -4  -3  102.79   14.70 
  -3   3   2 1412.56  161.38 
  -3   3   2 1338.37  159.88 
  -3   3   2 1438.66  161.38 
  -3   3   2 1603.34  162.38 
  -3   3   2 1534.65  160.08 
  -3   3   2 1526.05  161.78 
  -3   3   2 1371.96  159.78 
  -3   3   2 1331.47  162.68 
   3  -3  -2 1301.87  161.18 
   3  -3  -2 1445.56  160.08 
   3  -3  -2 1401.86  161.58 
   3  -3  -2 1269.27  160.18 
   3  -3  -2 1517.55  158.88 
   3  -3  -2 1393.86  159.88 
  -3   2   1   44.20    7.30 
  -3   2   1   50.29    8.00 
  -3   2   1   46.00    7.70 
  -3   2   1   37.60    7.10 
  -3   2   1   34.70    8.70 
  -3   2   1   35.70    7.20 
  -3   2   1   42.60    7.40 
  -3   2   1   32.60    7.30 
  -3   2   1   32.40    6.30 
  -3   2   1   46.70   11.20 
  -3   2   1   35.30    6.50 
   3  -2  -1   33.50    7.20 
   3  -2  -1   31.00    7.10 
   3  -2  -1   29.50    6.90 
   3  -2  -1   24.40    7.10 
   3  -2  -1   38.20    5.50 
  -3   1   0 4612.14  527.05 
  -3   1   0 4572.24  530.15 
  -3   1   0 5029.70  527.85 
  -3   1   0 4374.16  529.05 
  -3   1   0 5193.48  531.35 
  -3   1   0 5088.29  528.65 
  -3   1   0 4336.17  527.05 
   3  -1   0 4235.38  527.05 
   3  -1   0 5004.80  527.75 
   3  -1   0 5172.58  526.85 
   3  -1   0 4600.74  530.25 
  -3   0  -1    1.70    1.70 
  -3   0  -1    4.00    3.30 
  -3   0  -1   -1.10    1.10 
  -3   0  -1   -0.20    2.20 
  -3   0  -1   10.70    5.40 
  -3   0  -1   13.70    3.20 
   3   0   1   -0.80    1.30 
   3   0   1    0.20    0.80 
   3   0   1    2.40    1.00 
   3   0   1    4.80    3.30 
   3   0   1    7.00    2.00 
   3   0   1   -0.90    1.20 
   3   0   1    3.30    1.50 
  -3  -1  -2  678.63   73.49 
  -3  -1  -2  760.42   73.99 
  -3  -1  -2  695.33   73.99 
  -3  -1  -2  577.24   72.99 
  -3  -1  -2  638.54   73.79 
  -3  -1  -2  585.44   74.29 
  -3  -1  -2  651.33   74.29 
  -3  -1  -2  645.24   75.59 
   3   1   2  653.13   74.19 
   3   1   2  696.23   75.79 
   3   1   2  660.43   73.79 
   3   1   2  652.13   73.19 
   3   1   2  742.93   74.19 
   3   1   2  653.53   73.49 
   3   1   2  518.25   74.49 
   3   1   2  571.94   75.49 
  -3  -2  -3  371.36   44.40 
  -3  -2  -3  391.26   43.00 
  -3  -2  -3  370.86   44.10 
  -3  -2  -3  384.96   44.90 
  -3  -2  -3  383.06   44.00 
  -3  -2  -3  364.16   45.40 
  -3  -2  -3  301.37   46.00 
   3   2   3  286.87   43.70 
   3   2   3  365.56   42.80 
   3   2   3  396.66   41.90 
   3   2   3  413.16   44.60 
   3   2   3  366.46   44.40 
   3   2   3  348.77   44.70 
   3   2   3  337.77   43.70 
   3   2   3  400.46   47.40 
  -3  -3  -4   20.00    7.10 
  -3  -3  -4   41.00   10.00 
  -3  -3  -4   13.40    7.10 
  -3  -3  -4    7.70    5.70 
  -3  -3  -4   30.70    6.00 
  -3  -3  -4   17.40    7.40 
   3   3   4   28.30    4.70 
   3   3   4    9.00    7.30 
   3   3   4    7.50    7.20 
   3   3   4   55.39   10.80 
   3   3   4   20.10    7.40 
   3   3   4   17.80    6.00 
   3   3   4   20.30    8.90 
   3   3   4   20.70    6.40 
  -3  -4  -5   11.90   10.10 
  -3  -4  -5    5.80    3.50 
  -3  -4  -5   20.60   14.20 
  -3  -4  -5    4.20    8.40 
  -3  -4  -5    9.70    7.80 
  -3  -4  -5   12.80    6.80 
  -3  -4  -5   -0.70    5.20 
   3   4   5    8.00    4.30 
   3   4   5    7.70    4.40 
   3   4   5    0.10    3.80 
   3   4   5   -6.40    8.60 
   3   4   5   -5.40    8.60 
   3   4   5   -1.30    7.50 
   3   4   5    1.50    7.20 
   3   4   5    3.80    7.10 
   3   4   5   11.30    7.30 
  -3  -5  -6  120.79   36.00 
  -3  -5  -6  193.78   29.20 
  -3  -5  -6  175.18   23.90 
  -3  -5  -6  180.78   32.40 
  -3  -5  -6  208.38   33.60 
  -3  -5  -6  212.28   30.20 
  -3  -5  -6  191.68   28.00 
   3   5   6  187.38   32.90 
   3   5   6  155.18   29.30 
   3   5   6  188.08   29.70 
   3   5   6  172.08   24.30 
   3   5   6  203.08   29.70 
   3   5   6  177.18   23.80 
   3   5   6  177.78   26.00 
   3   5   6  208.88   30.00 
   3   5   6  193.48   29.10 
  -3  -6  -7    9.90    6.70 
  -3  -6  -7    3.60   18.70 
  -3  -6  -7   22.00   12.60 
  -3  -6  -7   18.60   11.00 
  -3  -6  -7   30.00   15.00 
  -3  -6  -7   22.60   11.30 
  -3  -6  -7    8.90   17.10 
  -3  -6  -7   12.30   23.70 
   3   6   7   29.50   17.30 
   3   6   7   24.70    8.90 
   3   6   7    9.00   12.00 
   3   6   7   15.10   13.00 
   3   6   7   12.10   16.50 
   3   6   7   20.70   18.00 
   3   6   7   14.60   12.90 
   3   6   7   12.00    6.80 
  -3  -7  -8  817.12   96.19 
  -3  -7  -8  775.92   95.09 
  -3  -7  -8  729.13  100.19 
  -3  -7  -8  669.03   98.79 
  -3  -7  -8  784.62   93.39 
   3   7   8  669.53   92.89 
   3   7   8  722.23   89.39 
   3   7   8  729.73   89.59 
   3   7   8  837.32   97.69 
   3   7   8  765.92   98.09 
   3   7   8  802.22   90.79 
  -3  -8  -9   24.20   16.10 
  -3  -8  -9   -5.50   29.90 
  -3  -8  -9   37.30   18.90 
  -3  -8  -9   41.10   19.20 
   3   8   9   45.50   20.30 
   3   8   9   41.30   11.80 
   3   8   9   25.40   14.20 
   3   8   9   21.80   15.30 
   3   8   9   24.90   19.70 
   3   8   9   22.70   18.80 
  -3  -9 -10  148.19   32.00 
  -3  -9 -10  114.09   50.09 
   3   9  10  165.38   30.00 
   3   9  10  136.59   38.20 
   3   9  10  113.99   36.70 
   3   9  10  180.88   26.60 
   3   9  10  148.39   31.80 
   3   9  10  212.28   41.40 
  -2  10   8  409.36   61.79 
  -2  10   8  275.57   57.29 
  -2  10   8  247.28   55.39 
   2 -10  -8  324.77   61.99 
   2 -10  -8  377.56   48.60 
   2 -10  -8  428.86   54.39 
   2 -10  -8  147.39   65.19 
  -2   9   7   23.30   20.20 
  -2   9   7   26.90   23.20 
  -2   9   7   38.30   23.30 
  -2   9   7   51.09   21.40 
   2  -9  -7   -0.40   12.20 
   2  -9  -7   29.50   35.90 
   2  -9  -7   28.70   16.30 
   2  -9  -7   17.10   20.10 
   2  -9  -7  -25.60   17.50 
  -2   8   6   23.90   18.60 
  -2   8   6   55.79   22.40 
  -2   8   6   70.09   26.10 
  -2   8   6   39.80   19.60 
  -2   8   6   23.70   17.40 
  -2   8   6   15.70   16.00 
   2  -8  -6   33.70   12.50 
   2  -8  -6   34.70   17.80 
   2  -8  -6   35.30   15.60 
   2  -8  -6   33.60   23.60 
   2  -8  -6   32.80   27.90 
  -2   7   5  420.36   54.09 
  -2   7   5  372.56   54.99 
  -2   7   5  353.06   59.59 
  -2   7   5  360.36   53.19 
  -2   7   5  400.76   54.89 
  -2   7   5  372.66   59.59 
  -2   7   5  373.36   52.49 
   2  -7  -5  326.97   58.59 
   2  -7  -5  368.76   52.79 
   2  -7  -5  346.57   58.09 
   2  -7  -5  443.96   53.19 
   2  -7  -5  418.46   49.00 
   2  -7  -5  372.56   50.59 
  -2   6   4  383.16   47.40 
  -2   6   4  293.37   51.89 
  -2   6   4  438.26   54.09 
  -2   6   4  333.97   47.40 
  -2   6   4  353.56   51.59 
  -2   6   4  465.65   51.49 
  -2   6   4  332.07   48.20 
   2  -6  -4  339.57   48.30 
   2  -6  -4  283.97   50.79 
   2  -6  -4  339.07   52.19 
   2  -6  -4  384.96   47.60 
   2  -6  -4  408.76   45.00 
   2  -6  -4  290.67   48.40 
  -2   5   3 3176.68  374.56 
  -2   5   3 3678.53  374.86 
  -2   5   3 3658.33  372.56 
  -2   5   3 3547.45  373.26 
  -2   5   3 3240.48  371.66 
  -2   5   3 3567.64  370.96 
  -2   5   3 3055.89  374.06 
   2  -5  -3 3010.40  371.66 
   2  -5  -3 2851.01  373.26 
   2  -5  -3 3705.23  369.56 
   2  -5  -3 2778.82  372.76 
   2  -5  -3 3335.67  368.96 
   2  -5  -3 3450.25  371.46 
   2  -5  -3 3008.70  371.56 
  -2   4   2   98.49   17.70 
  -2   4   2   65.59   15.40 
  -2   4   2   81.59   15.70 
  -2   4   2   90.99   18.20 
  -2   4   2   80.79   16.60 
  -2   4   2   89.69   21.50 
   2  -4  -2   77.49   18.10 
   2  -4  -2   80.59   16.60 
   2  -4  -2  123.09   13.60 
   2  -4  -2   95.29   15.80 
   2  -4  -2   76.39   18.10 
   2  -4  -2   72.89   15.40 
   2  -4  -2  112.69   14.00 
  -2   3   1   32.90   10.30 
  -2   3   1   32.50    9.50 
  -2   3   1   58.69    9.20 
  -2   3   1   41.40    9.00 
  -2   3   1   24.10    9.90 
  -2   3   1   52.79   10.20 
  -2   3   1   30.80    8.40 
   2  -3  -1   33.50    7.50 
   2  -3  -1   35.20    9.40 
   2  -3  -1   25.90    7.40 
   2  -3  -1   55.39   10.40 
   2  -3  -1   44.60    7.60 
   2  -3  -1   37.60    6.00 
  -2   2   0 3976.80  428.86 
  -2   2   0 3997.70  429.36 
  -2   2   0 3538.05  428.36 
  -2   2   0 3494.45  431.66 
  -2   2   0 3831.92  429.76 
  -2   2   0 3824.02  429.16 
  -2   2   0 4157.08  429.66 
  -2   2   0 3965.20  426.96 
  -2   2   0 4150.58  428.36 
   2  -2   0 4145.08  428.46 
   2  -2   0 3623.44  429.26 
   2  -2   0 3293.87  431.36 
   2  -2   0 3906.71  427.86 
   2  -2   0 3859.01  427.36 
  -2   1  -1  672.03   83.99 
  -2   1  -1  714.13   84.19 
  -2   1  -1  695.93   87.39 
  -2   1  -1  778.62   84.19 
  -2   1  -1  855.91   84.09 
  -2   1  -1  842.02   83.29 
  -2   1  -1  806.42   83.99 
  -2   1  -1  668.93   84.99 
   2  -1   1  874.21   83.99 
   2  -1   1  688.13   86.49 
   2  -1   1  659.63   84.69 
   2  -1   1  722.23   84.19 
   2  -1   1  662.23   84.09 
  -2   0  -2 2660.33  260.47 
  -2   0  -2 2415.66  260.87 
  -2   0  -2 2113.39  260.67 
  -2   0  -2 2257.57  260.47 
  -2   0  -2 1952.70  262.37 
  -2   0  -2 2559.64  260.67 
  -2   0  -2 2270.97  260.67 
   2   0   2 2488.25  260.57 
   2   0   2 2383.16  260.57 
   2   0   2 2339.97  260.77 
   2   0   2 2499.35  260.47 
   2   0   2 2483.85  260.37 
   2   0   2 1949.90  261.67 
  -2  -1  -3 4228.18  523.15 
  -2  -1  -3 4943.61  524.45 
  -2  -1  -3 5267.87  523.55 
  -2  -1  -3 4811.32  522.65 
  -2  -1  -3 5239.88  522.75 
  -2  -1  -3 5340.17  523.55 
  -2  -1  -3 4216.08  524.05 
   2   1   3 4813.52  522.95 
   2   1   3 4281.17  523.25 
   2   1   3 4512.15  523.45 
   2   1   3 4990.50  522.85 
   2   1   3 4143.39  523.15 
   2   1   3 4746.43  523.45 
   2   1   3 4243.38  523.85 
  -2  -2  -4 3345.87  425.06 
  -2  -2  -4 3496.25  426.76 
  -2  -2  -4 4135.59  425.86 
  -2  -2  -4 3858.41  425.86 
  -2  -2  -4 4036.80  425.46 
  -2  -2  -4 3700.73  425.76 
  -2  -2  -4 3695.93  424.36 
   2   2   4 4091.49  423.66 
   2   2   4 3444.06  425.16 
   2   2   4 3666.33  425.56 
   2   2   4 3867.31  425.76 
   2   2   4 3962.80  422.46 
   2   2   4 3946.51  423.66 
   2   2   4 3779.72  424.86 
   2   2   4 3870.61  425.86 
   2   2   4 3914.71  426.56 
  -2  -3  -5   16.80   10.30 
  -2  -3  -5    7.90    4.30 
  -2  -3  -5   -5.20    8.80 
  -2  -3  -5   34.90   10.00 
  -2  -3  -5   16.50    7.50 
  -2  -3  -5    6.50    2.90 
  -2  -3  -5    7.80    6.20 
   2   3   5    8.80    6.30 
   2   3   5    6.10    6.00 
   2   3   5    1.00    6.40 
   2   3   5   10.10    7.00 
   2   3   5   12.50    4.80 
   2   3   5    9.20    6.70 
   2   3   5    5.80    5.80 
  -2  -4  -6   13.50    8.30 
  -2  -4  -6    6.40   11.80 
  -2  -4  -6    5.00    3.20 
  -2  -4  -6   -2.90    5.40 
  -2  -4  -6    3.90    9.20 
  -2  -4  -6    7.00    6.50 
  -2  -4  -6   -3.20   11.30 
  -2  -4  -6    0.90    6.90 
   2   4   6   11.90    8.60 
   2   4   6   -7.20    8.80 
   2   4   6   27.80    9.90 
   2   4   6    9.10    7.50 
   2   4   6    1.70    8.00 
  -2  -5  -7  103.79   25.70 
  -2  -5  -7   68.49   25.10 
  -2  -5  -7  120.69   21.90 
  -2  -5  -7  167.08   23.70 
  -2  -5  -7  103.99   21.90 
  -2  -5  -7  129.99   30.30 
  -2  -5  -7  125.49   24.40 
  -2  -5  -7  121.59   16.70 
   2   5   7  136.59   24.60 
   2   5   7  136.69   27.90 
   2   5   7  135.49   25.20 
   2   5   7  128.09   19.90 
   2   5   7  125.19   24.00 
   2   5   7   98.99   23.80 
  -2  -6  -8  177.28   43.80 
  -2  -6  -8  247.98   35.20 
  -2  -6  -8  141.89   35.30 
  -2  -6  -8  213.48   38.60 
  -2  -6  -8  206.78   27.20 
  -2  -6  -8  215.38   34.20 
  -2  -6  -8  210.88   31.60 
  -2  -6  -8  180.28   36.70 
   2   6   8  206.38   32.80 
   2   6   8  318.67   40.80 
   2   6   8  231.78   34.90 
   2   6   8  262.47   36.60 
   2   6   8  169.88   34.50 
   2   6   8  179.38   39.60 
  -2  -7  -9  332.07   53.09 
  -2  -7  -9  279.97   45.00 
  -2  -7  -9  272.77   38.70 
  -2  -7  -9  246.58   52.69 
  -2  -7  -9  330.27   45.90 
  -2  -7  -9  286.97   41.90 
   2   7   9  289.97   45.40 
   2   7   9  374.06   48.30 
   2   7   9  282.47   42.00 
   2   7   9  313.67   46.90 
  -2  -8 -10   16.90   13.20 
  -2  -8 -10  -11.10    8.80 
  -2  -8 -10   -6.20   17.30 
  -2  -8 -10    3.70   31.00 
  -2  -8 -10   -2.50   11.50 
   2   8  10    6.80    7.30 
   2   8  10   -0.10   14.40 
   2   8  10   14.30   19.70 
   2   8  10  -16.00   20.10 
   2   8  10   13.30   17.80 
   2   8  10   -3.10    8.70 
  -2  -9 -11   17.60   20.60 
  -2  -9 -11   39.70   23.60 
   2   9  11   41.10   13.30 
   2   9  11    3.90   29.70 
   2   9  11   25.20   23.40 
   2   9  11   38.40   20.70 
   2   9  11   65.99   26.50 
  -1  10   7  286.97   50.09 
  -1  10   7  233.88   45.00 
  -1  10   7  229.78   29.70 
  -1  10   7  217.88   44.20 
  -1  10   7  145.59   36.00 
   1 -10  -7   59.29   56.49 
   1 -10  -7  227.48   37.70 
   1 -10  -7  231.48   41.20 
  -1   9   6  248.28   56.79 
  -1   9   6  241.08   48.60 
  -1   9   6  344.27   52.99 
  -1   9   6  311.77   56.59 
   1  -9  -6  430.36   50.99 
   1  -9  -6  205.58   60.09 
   1  -9  -6  370.56   46.80 
   1  -9  -6  381.36   52.89 
   1  -9  -6  318.57   49.99 
  -1   8   5  479.55   70.69 
  -1   8   5  392.96   59.39 
  -1   8   5  532.35   60.59 
  -1   8   5  318.07   57.39 
  -1   8   5  368.46   57.49 
  -1   8   5  466.95   59.89 
   1  -8  -5  337.67   54.59 
   1  -8  -5  522.85   57.99 
   1  -8  -5  299.87   65.59 
   1  -8  -5  380.46   52.69 
   1  -8  -5  416.86   56.69 
  -1   7   4  142.89   33.40 
  -1   7   4  203.08   34.80 
  -1   7   4  193.28   39.00 
  -1   7   4  221.78   34.80 
  -1   7   4  189.08   33.60 
  -1   7   4  155.38   37.40 
  -1   7   4  231.28   36.50 
   1  -7  -4  192.58   38.40 
   1  -7  -4  187.78   39.70 
   1  -7  -4  182.38   32.10 
   1  -7  -4  268.77   34.00 
   1  -7  -4  174.08   41.30 
   1  -7  -4  244.08   30.40 
  -1   6   3  417.06   51.29 
  -1   6   3  440.86   52.19 
  -1   6   3  403.96   51.09 
  -1   6   3  380.76   53.89 
  -1   6   3  359.76   50.19 
  -1   6   3  316.07   52.99 
  -1   6   3  351.06   51.99 
   1  -6  -3  329.27   50.79 
   1  -6  -3  329.17   52.69 
   1  -6  -3  419.06   48.10 
   1  -6  -3  462.15   51.29 
   1  -6  -3  319.87   54.39 
   1  -6  -3  380.86   55.49 
  -1   5   2   58.19   13.50 
  -1   5   2   58.49   14.70 
  -1   5   2   41.60   14.70 
  -1   5   2   79.49   14.90 
  -1   5   2   53.09   13.80 
  -1   5   2   36.30   15.30 
   1  -5  -2   60.89   17.60 
   1  -5  -2   54.29   15.90 
   1  -5  -2   62.49   15.80 
   1  -5  -2   63.49   13.70 
   1  -5  -2   55.99   17.50 
   1  -5  -2   89.49   14.10 
   1  -5  -2   47.70   11.40 
  -1   4   1  839.52  103.99 
  -1   4   1  837.42  105.69 
  -1   4   1  937.31  103.59 
  -1   4   1  944.01  106.69 
  -1   4   1  944.71  104.89 
  -1   4   1  913.31  106.79 
  -1   4   1  999.60  105.69 
   1  -4  -1  956.10  105.49 
   1  -4  -1 1065.79  103.09 
   1  -4  -1  701.83  104.99 
   1  -4  -1  781.92  106.89 
   1  -4  -1  848.92  101.79 
   1  -4  -1  761.12  104.19 
   1  -4  -1  937.31  104.29 
  -1   3   0 4519.45  518.75 
  -1   3   0 4648.73  521.45 
  -1   3   0 5014.60  520.45 
  -1   3   0 4721.03  519.55 
  -1   3   0 4876.21  518.15 
  -1   3   0 5360.76  519.75 
  -1   3   0 4834.22  520.15 
   1  -3   0 3891.91  519.25 
   1  -3   0 4613.54  519.95 
   1  -3   0 4374.06  521.45 
   1  -3   0 3913.61  518.25 
   1  -3   0 4652.33  519.65 
   1  -3   0 4927.41  517.65 
   1  -3   0 4642.04  518.85 
  -1   2  -1  815.32   88.79 
  -1   2  -1  792.32   90.49 
  -1   2  -1  723.43   86.99 
  -1   2  -1  776.52   88.49 
  -1   2  -1  727.83   88.19 
  -1   2  -1  754.02   88.39 
  -1   2  -1  715.03   88.09 
   1  -2   1  703.93   89.49 
   1  -2   1  806.62   87.79 
   1  -2   1  879.21   87.19 
   1  -2   1  801.62   85.29 
   1  -2   1  636.54   87.59 
   1  -2   1  749.62   88.29 
  -1   1  -2   69.59   12.00 
  -1   1  -2   88.89   10.50 
  -1   1  -2   90.79   14.10 
  -1   1  -2   83.59   11.60 
  -1   1  -2   81.09   11.80 
  -1   1  -2   79.59   11.80 
  -1   1  -2   96.79   11.60 
   1  -1   2   73.89   11.60 
   1  -1   2   92.59   10.70 
   1  -1   2   74.69   11.60 
   1  -1   2  119.99   14.10 
   1  -1   2   74.19   11.30 
   1  -1   2   80.09   11.00 
  -1   0  -3    8.80    3.50 
  -1   0  -3   13.20    3.20 
  -1   0  -3   19.30    5.40 
  -1   0  -3   22.20    4.70 
  -1   0  -3    3.40    2.20 
   1   0   3   11.70    4.30 
   1   0   3    1.70    2.50 
   1   0   3   10.30    2.20 
   1   0   3    2.10    2.30 
  -1  -1  -4 1099.29  120.89 
  -1  -1  -4 1054.39  121.49 
  -1  -1  -4 1098.99  120.39 
  -1  -1  -4 1090.79  121.89 
  -1  -1  -4 1107.69  120.99 
  -1  -1  -4  978.60  119.09 
  -1  -1  -4 1186.28  121.09 
  -1  -1  -4 1078.59  121.09 
   1   1   4 1121.59  121.29 
   1   1   4 1026.60  120.59 
   1   1   4 1015.40  120.69 
   1   1   4 1049.00  121.59 
   1   1   4 1018.80  120.89 
   1   1   4  989.70  120.99 
   1   1   4 1140.89  121.19 
   1   1   4 1045.20  120.89 
   1   1   4 1027.40  119.19 
  -1  -2  -5 1408.76  150.18 
  -1  -2  -5 1317.67  149.59 
  -1  -2  -5 1442.76  150.18 
  -1  -2  -5 1284.67  147.29 
  -1  -2  -5 1327.47  149.88 
  -1  -2  -5 1291.27  151.18 
  -1  -2  -5 1328.37  151.18 
   1   2   5 1314.37  149.19 
   1   2   5 1158.28  146.19 
   1   2   5 1356.16  147.29 
   1   2   5 1266.47  149.79 
   1   2   5 1309.97  150.38 
   1   2   5 1351.76  150.58 
   1   2   5 1310.27  150.38 
   1   2   5 1336.67  150.28 
  -1  -3  -6 1865.71  206.78 
  -1  -3  -6 1823.02  208.38 
  -1  -3  -6 1713.33  206.08 
  -1  -3  -6 1997.10  206.78 
  -1  -3  -6 1839.42  207.28 
  -1  -3  -6 1749.22  207.88 
  -1  -3  -6 1855.11  205.58 
   1   3   6 1793.02  206.68 
   1   3   6 1820.62  207.38 
   1   3   6 1818.52  207.18 
   1   3   6 1762.02  206.88 
   1   3   6 1722.93  206.28 
  -1  -4  -7  366.36   56.89 
  -1  -4  -7  462.95   54.49 
  -1  -4  -7  440.36   54.49 
  -1  -4  -7  450.25   55.69 
  -1  -4  -7  432.96   52.79 
  -1  -4  -7  410.26   49.60 
  -1  -4  -7  403.66   56.69 
  -1  -4  -7  465.85   59.19 
   1   4   7  440.16   55.19 
   1   4   7  421.26   55.49 
   1   4   7  436.46   55.09 
   1   4   7  428.46   55.49 
   1   4   7  480.75   57.19 
   1   4   7  401.26   54.69 
  -1  -5  -8  129.09   24.00 
  -1  -5  -8  113.89   24.30 
  -1  -5  -8  106.09   26.40 
  -1  -5  -8  103.99   26.70 
  -1  -5  -8  141.79   18.00 
  -1  -5  -8  138.89   21.30 
  -1  -5  -8  140.39   26.30 
   1   5   8  146.39   17.80 
   1   5   8  126.69   25.10 
   1   5   8  169.48   27.70 
   1   5   8  130.09   26.00 
   1   5   8  125.29   25.80 
   1   5   8  153.58   28.60 
  -1  -6  -9   75.69   25.20 
  -1  -6  -9   96.99   15.60 
  -1  -6  -9  115.79   25.70 
  -1  -6  -9  110.09   28.70 
  -1  -6  -9  170.68   23.10 
  -1  -6  -9   99.39   25.00 
  -1  -6  -9  131.09   25.20 
   1   6   9  121.59   28.40 
   1   6   9  123.09   29.10 
   1   6   9   98.29   22.10 
   1   6   9  102.99   25.30 
   1   6   9  108.69   24.80 
   1   6   9  134.29   25.90 
  -1  -7 -10   11.40    6.40 
  -1  -7 -10   16.90   11.80 
  -1  -7 -10    2.30   15.20 
  -1  -7 -10   30.30   12.10 
   1   7  10   -1.40   13.70 
   1   7  10   -1.00   15.60 
   1   7  10   -1.30   15.80 
   1   7  10   20.00   13.80 
   1   7  10   10.40    7.60 
  -1  -8 -11  139.99   35.70 
  -1  -8 -11  249.28   39.60 
  -1  -8 -11  176.28   31.60 
  -1  -8 -11  173.68   26.30 
   1   8  11  203.58   28.20 
   1   8  11  208.58   41.70 
   1   8  11  163.78   35.30 
   1   8  11  211.88   40.00 
  -1  -9 -12  151.18   32.20 
  -1  -9 -12  214.48   42.40 
   1   9  12  185.88   38.30 
   1   9  12  228.08   46.10 
   1   9  12  225.08   62.69 
   1   9  12  130.69   39.20 
   1   9  12  200.38   42.40 
   0  11   7   13.60    8.30 
   0  11   7   15.70   42.40 
   0  11   7    0.80   25.70 
   0  11   7   24.00   27.10 
   0 -11  -7   11.40   24.10 
   0 -11  -7  -19.20   16.80 
   0 -11  -7   13.90   62.69 
   0 -11  -7   -0.70   21.10 
   0  10   6  909.11   98.09 
   0  10   6  667.73  106.59 
   0  10   6 1028.90  113.19 
   0  10   6  872.01  107.49 
   0  10   6  652.63  105.39 
   0 -10  -6  792.02  103.49 
   0 -10  -6  881.11  115.79 
   0 -10  -6  731.13  125.99 
   0 -10  -6  968.90  109.09 
   0   9   5   -3.70   16.70 
   0   9   5   17.90   17.20 
   0   9   5    1.50    4.80 
   0   9   5   -7.10   14.40 
   0   9   5   -5.20   17.40 
   0  -9  -5  -21.80   21.50 
   0  -9  -5   40.10   35.90 
   0  -9  -5    5.10   17.30 
   0  -9  -5   11.80   14.80 
   0  -9  -5   14.00   11.60 
   0   8   4   33.90   18.90 
   0   8   4  117.99   14.70 
   0   8   4   62.49   32.60 
   0   8   4  111.69   26.00 
   0   8   4   89.89   26.90 
   0   8   4   50.69   19.80 
   0  -8  -4  116.99   24.20 
   0  -8  -4   80.69   22.20 
   0  -8  -4   88.89   24.10 
   0  -8  -4   56.09   33.00 
   0  -8  -4   69.49   32.40 
   0  -8  -4   98.29   19.70 
   0   7   3    8.40   11.50 
   0   7   3    0.30    3.00 
   0   7   3   13.10   12.80 
   0   7   3    8.20   12.50 
   0   7   3   -7.90   11.80 
   0   7   3    1.80   20.40 
   0   7   3   19.80   12.80 
   0   7   3   -3.70    9.50 
   0  -7  -3   44.30   24.00 
   0  -7  -3    7.00    8.10 
   0  -7  -3  -18.10   19.10 
   0  -7  -3    6.20   11.80 
   0  -7  -3   45.90   13.20 
   0  -7  -3   -1.30    8.50 
   0   6   2  437.96   56.69 
   0   6   2  462.15   57.79 
   0   6   2  452.45   51.29 
   0   6   2  404.06   56.49 
   0   6   2  459.65   60.99 
   0   6   2  397.86   59.19 
   0   6   2  442.36   58.69 
   0   6   2  508.55   60.49 
   0  -6  -2  450.85   54.69 
   0  -6  -2  354.76   59.19 
   0  -6  -2  492.25   57.59 
   0  -6  -2  372.16   60.69 
   0  -6  -2  344.67   60.49 
   0  -6  -2  502.45   59.59 
   0   5   1   -6.40    7.90 
   0   5   1    3.30    9.20 
   0   5   1    3.30    8.20 
   0   5   1   -1.00    1.90 
   0   5   1    0.40    8.20 
   0   5   1   13.10    8.00 
   0   5   1    5.20    8.00 
   0   5   1   -7.70    8.30 
   0  -5  -1    2.80    7.20 
   0  -5  -1   -7.60   10.20 
   0  -5  -1    1.10   12.20 
   0   4   0  191.18   28.10 
   0   4   0  171.78   25.50 
   0   4   0  219.68   26.30 
   0   4   0  180.88   20.50 
   0   4   0  165.58   26.30 
   0   4   0  124.59   26.50 
   0   4   0  173.58   26.30 
   0   4   0  125.99   22.90 
   0  -4   0  212.68   27.00 
   0  -4   0  198.98   23.90 
   0  -4   0  140.59   27.30 
   0  -4   0  201.78   27.80 
   0  -4   0  160.98   24.40 
   0  -4   0  149.39   28.90 
   0  -4   0  118.59   26.60 
   0   3  -1   -7.80    5.70 
   0   3  -1    3.60    5.50 
   0   3  -1   -2.00    5.30 
   0   3  -1   -3.40    5.60 
   0   3  -1    3.50    3.40 
   0   3  -1    3.50    6.60 
   0   3  -1    3.10    5.80 
   0  -3   1    1.30    4.80 
   0  -3   1    4.30    4.10 
   0  -3   1   -0.40    2.60 
   0  -3   1   21.10    8.60 
   0  -3   1    0.00    1.00 
   0  -3   1   -1.10    5.00 
   0  -3   1    0.20    4.40 
   0  -3   1    4.50    6.30 
   0  -3   1    2.90    4.60 
   0   2  -2 1936.11  236.58 
   0   2  -2 2070.69  234.68 
   0   2  -2 2043.90  236.48 
   0   2  -2 1949.60  236.08 
   0   2  -2 2040.20  235.98 
   0   2  -2 2170.18  236.58 
   0   2  -2 2341.17  235.28 
   0   2  -2 2254.27  237.28 
   0  -2   2 2258.77  236.58 
   0  -2   2 2156.48  234.58 
   0  -2   2 1898.41  236.08 
   0  -2   2 2074.79  236.78 
   0  -2   2 2055.59  235.98 
   0  -2   2 2322.07  235.28 
   0  -2   2 1780.62  235.48 
   0   1  -3    0.40    2.10 
   0   1  -3    4.30    3.70 
   0   1  -3   -1.80    2.00 
   0   1  -3    0.10    2.20 
   0   1  -3    0.90    3.30 
   0   1  -3    0.00    3.00 
   0   1  -3    0.50    3.50 
   0   1  -3    1.90    3.50 
   0  -1   3   -0.40    2.70 
   0  -1   3    2.20    2.80 
   0  -1   3    3.80    2.50 
   0  -1   3   12.00    4.50 
   0  -1   3    0.10    2.80 
   0  -1   3   16.30    4.80 
   0  -1   3    2.80    3.90 
   0   0  -4 3928.21  475.85 
   0   0  -4 4026.80  476.25 
   0   0  -4 4939.01  476.95 
   0   0  -4 4361.86  477.15 
   0   0  -4 4904.71  476.75 
   0   0   4 3897.21  473.85 
   0   0   4 4074.39  476.35 
   0   0   4 4519.85  476.45 
   0   0   4 3887.01  476.75 
   0   0   4 4523.85  476.55 
   0   0   4 4114.39  476.25 
   0   0   4 4130.49  476.65 
   0  -1  -5   -0.20    2.70 
   0  -1  -5    1.30    3.20 
   0  -1  -5   -0.40    4.50 
   0  -1  -5    6.00    4.00 
   0   1   5    0.20    4.20 
   0   1   5    1.10    3.70 
   0   1   5    4.60    3.90 
   0   1   5    1.40    0.90 
   0   1   5    3.40    3.90 
   0   1   5   -0.90    4.20 
   0   1   5    4.30    3.00 
   0   1   5   -1.80    3.50 
   0  -2  -6 2886.71  292.57 
   0  -2  -6 2429.86  288.57 
   0  -2  -6 2681.63  291.07 
   0  -2  -6 2407.66  294.17 
   0  -2  -6 2445.36  292.77 
   0  -2  -6 2594.44  292.07 
   0  -2  -6 2675.33  292.37 
   0   2   6 2737.13  293.17 
   0   2   6 2280.97  292.27 
   0   2   6 2613.34  292.97 
   0   2   6 2438.56  292.77 
   0   2   6 2677.23  288.67 
   0   2   6 2563.24  292.37 
   0   2   6 2712.53  292.97 
   0   2   6 2738.83  288.67 
   0   2   6 2615.44  293.27 
   0  -3  -7    4.00    7.00 
   0  -3  -7    5.50    4.20 
   0  -3  -7    6.10    5.70 
   0  -3  -7    4.00    7.20 
   0  -3  -7    3.70    1.70 
   0  -3  -7    0.90    6.20 
   0  -3  -7   -3.20    5.70 
   0   3   7   -0.60    5.30 
   0   3   7   22.10    9.40 
   0   3   7    1.00    7.00 
   0   3   7    4.30    2.00 
   0   3   7    7.10    7.40 
   0   3   7   -2.50    5.80 
   0  -4  -8  176.18   29.20 
   0  -4  -8  181.78   31.60 
   0  -4  -8  171.38   28.20 
   0  -4  -8  161.28   20.50 
   0  -4  -8  193.38   27.20 
   0  -4  -8  213.28   26.50 
   0   4   8  167.68   20.90 
   0   4   8  182.18   28.20 
   0   4   8  150.38   28.90 
   0   4   8  168.28   29.70 
   0   4   8  146.69   28.10 
   0  -5  -9   -1.40   15.40 
   0  -5  -9    1.60    9.70 
   0  -5  -9    1.20    2.70 
   0  -5  -9   -9.30   14.10 
   0  -5  -9   -8.30   13.80 
   0  -5  -9    5.90    6.30 
   0  -5  -9   -3.40    5.90 
   0   5   9    0.10   11.20 
   0   5   9    8.10   14.40 
   0   5   9   17.00   11.20 
   0   5   9    5.90    9.70 
   0  -6 -10   76.69   17.20 
   0  -6 -10   63.19   18.20 
   0  -6 -10   18.10   20.10 
   0  -6 -10   30.90    7.20 
   0  -6 -10   44.00   13.30 
   0   6  10   50.09   20.10 
   0   6  10   50.79   17.90 
   0   6  10   39.10   18.00 
   0   6  10   39.60    9.40 
   0  -7 -11    9.50   12.30 
   0  -7 -11    2.90   14.50 
   0  -7 -11    0.40    4.70 
   0  -7 -11  -15.10   15.20 
   0   7  11  -14.50   19.00 
   0   7  11   20.60   18.10 
   0   7  11   -5.70   12.00 
   0   7  11    7.80   16.30 
   0   7  11    5.40    7.70 
   0   7  11   64.99   29.50 
   0  -8 -12   88.59   15.40 
   0  -8 -12   98.39   21.80 
   0  -8 -12  135.79   31.30 
   0  -8 -12  131.29   28.90 
   0   8  12  115.69   30.00 
   0   8  12  100.69   29.00 
   0   8  12  145.29   36.60 
   0   8  12  105.79   18.10 
   0   8  12  132.19   35.90 
   0   8  12   79.59   44.50 
   1  11   6    6.60   24.90 
   1  11   6   22.00   22.00 
   1  11   6   30.50   26.50 
   1  11   6   24.40   29.60 
   1  11   6   20.50    8.60 
  -1 -11  -6   12.10   19.00 
  -1 -11  -6   12.70   26.40 
  -1 -11  -6   23.00   63.09 
  -1 -11  -6    4.40   22.70 
   1  10   5  222.68   42.20 
   1  10   5  228.68   43.30 
   1  10   5  195.28   25.80 
   1  10   5  162.28   36.90 
   1  10   5  168.08   39.30 
  -1 -10  -5  240.48   51.19 
  -1 -10  -5  173.68   58.99 
  -1 -10  -5  127.19   32.60 
  -1 -10  -5  187.48   39.10 
   1   9   4  488.35   75.19 
   1   9   4  552.44   77.29 
   1   9   4  621.44   81.39 
   1   9   4  642.64   69.09 
   1   9   4  599.34   79.79 
  -1  -9  -4  734.63   80.19 
  -1  -9  -4  584.14   81.49 
  -1  -9  -4  469.55   78.39 
  -1  -9  -4  495.55   73.09 
   1   8   3 1293.87  161.98 
   1   8   3 1499.05  165.08 
   1   8   3 1362.56  162.48 
   1   8   3 1376.96  171.58 
   1   8   3 1451.45  155.58 
   1   8   3 1267.27  161.28 
   1   8   3 1190.28  162.08 
  -1  -8  -3 1270.27  171.48 
  -1  -8  -3 1422.46  165.78 
  -1  -8  -3 1459.95  171.18 
  -1  -8  -3 1628.44  164.38 
  -1  -8  -3 1188.98  158.78 
   1   7   2   24.90   17.10 
   1   7   2   35.00   14.30 
   1   7   2   21.90   11.40 
   1   7   2    8.10   13.30 
   1   7   2   13.60    5.30 
   1   7   2    8.40    8.30 
   1   7   2   33.10   22.90 
   1   7   2    4.20   12.00 
  -1  -7  -2   32.10   14.40 
  -1  -7  -2   22.90   10.30 
  -1  -7  -2   26.90   21.20 
  -1  -7  -2   -9.70   21.00 
  -1  -7  -2   18.10   11.90 
   1   6   1    9.20   12.60 
   1   6   1    9.50   10.60 
   1   6   1   18.30   11.20 
   1   6   1    7.40    8.50 
   1   6   1   31.20   18.70 
   1   6   1   20.80   11.80 
   1   6   1   25.50    5.80 
  -1  -6  -1   20.80   11.90 
  -1  -6  -1  -10.50   14.70 
  -1  -6  -1   -1.40   17.30 
  -1  -6  -1  -24.90   16.40 
  -1  -6  -1   15.10   15.50 
  -1  -6  -1    9.70    6.60 
  -1  -6  -1    5.40    9.50 
   1   5   0  356.66   45.70 
   1   5   0  310.27   46.90 
   1   5   0  406.66   49.50 
   1   5   0  426.56   48.90 
   1   5   0  325.87   47.10 
   1   5   0  372.96   50.89 
   1   5   0  383.06   41.50 
   1   5   0  284.17   45.60 
  -1  -5   0  353.56   49.50 
  -1  -5   0  290.97   48.50 
  -1  -5   0  380.96   47.10 
  -1  -5   0  277.77   45.20 
  -1  -5   0  417.26   51.69 
  -1  -5   0  288.47   46.30 
  -1  -5   0  389.36   45.20 
   1   4  -1  860.01  101.59 
   1   4  -1 1032.60  103.39 
   1   4  -1  938.31  103.69 
   1   4  -1  793.72  101.69 
  -1  -4   1  767.92  101.49 
  -1  -4   1  930.01  102.69 
  -1  -4   1  713.13   96.59 
  -1  -4   1  772.32  101.99 
  -1  -4   1  952.30  103.59 
  -1  -4   1  840.62  101.59 
  -1  -4   1  741.43  100.29 
  -1  -4   1 1008.10  100.39 
   1   3  -2  472.55   67.99 
   1   3  -2  557.24   70.29 
   1   3  -2  548.35   69.09 
   1   3  -2  652.93   70.59 
   1   3  -2  585.44   69.69 
   1   3  -2  741.03   72.59 
   1   3  -2  638.44   69.59 
   1   3  -2  563.24   67.39 
  -1  -3   2  507.65   65.49 
  -1  -3   2  609.44   69.89 
  -1  -3   2  633.94   68.19 
  -1  -3   2  650.43   71.09 
  -1  -3   2  511.25   69.39 
  -1  -3   2  457.65   68.49 
  -1  -3   2  528.85   69.09 
  -1  -3   2  636.44   70.39 
   1   2  -3 3376.66  427.76 
   1   2  -3 3946.81  428.36 
   1   2  -3 3719.13  426.46 
   1   2  -3 4507.55  430.36 
   1   2  -3 3971.40  428.76 
   1   2  -3 3977.80  428.06 
  -1  -2   3 3559.64  428.46 
  -1  -2   3 3674.03  427.86 
  -1  -2   3 4061.59  427.36 
  -1  -2   3 3800.62  427.56 
  -1  -2   3 4072.99  428.46 
  -1  -2   3 3349.56  427.76 
  -1  -2   3 3342.17  427.76 
  -1  -2   3 4184.48  429.36 
   1   1  -4  991.30  108.69 
   1   1  -4  963.80  108.19 
   1   1  -4 1067.69  108.49 
   1   1  -4  896.21  108.09 
   1   1  -4  951.30  108.59 
   1   1  -4  941.51  105.59 
   1   1  -4  941.71  109.09 
   1   1  -4 1015.10  109.19 
   1   1  -4  889.21  106.89 
  -1  -1   4  784.92  105.19 
  -1  -1   4  955.70  108.29 
  -1  -1   4  887.91  108.69 
  -1  -1   4  929.11  107.89 
  -1  -1   4 1023.00  108.99 
  -1  -1   4  942.61  107.59 
  -1  -1   4  894.11  108.09 
  -1  -1   4  996.10  109.29 
  -1  -1   4  991.30  108.69 
   1   0  -5   -6.40    3.10 
   1   0  -5   -3.60    2.20 
   1   0  -5    2.00    1.50 
   1   0  -5   -0.50    3.20 
   1   0  -5    5.10    3.60 
   1   0  -5    8.00    5.00 
   1   0  -5   -0.20    4.20 
   1   0  -5    0.00    2.60 
  -1   0   5    0.40    4.40 
  -1   0   5    9.20    4.70 
  -1   0   5   -1.50    4.30 
  -1   0   5    5.00    3.90 
  -1   0   5    0.40    1.10 
  -1   0   5   -3.00    2.90 
  -1   0   5    4.60    3.70 
  -1   0   5   -3.30    3.90 
   1  -1  -6  719.33   82.49 
   1  -1  -6  647.14   82.09 
   1  -1  -6  774.32   82.69 
   1  -1  -6  786.92   82.69 
   1  -1  -6  752.42   79.49 
   1  -1  -6  792.32   82.79 
   1  -1  -6  744.83   82.89 
  -1   1   6  724.73   83.79 
  -1   1   6  638.24   82.49 
  -1   1   6  678.43   82.79 
  -1   1   6  651.13   83.29 
  -1   1   6  723.43   82.89 
  -1   1   6  693.23   82.69 
  -1   1   6  606.24   79.39 
  -1   1   6  691.53   83.09 
  -1   1   6  727.63   79.49 
  -1   1   6  683.03   78.89 
   1  -2  -7  236.68   29.20 
   1  -2  -7  232.38   30.20 
   1  -2  -7  208.48   28.50 
   1  -2  -7  221.88   25.30 
   1  -2  -7  221.88   27.20 
   1  -2  -7  221.78   28.90 
   1  -2  -7  223.38   29.40 
  -1   2   7  221.98   29.80 
  -1   2   7  213.48   25.30 
  -1   2   7  217.48   30.90 
  -1   2   7  201.08   30.10 
  -1   2   7  221.08   30.20 
  -1   2   7  227.88   29.60 
  -1   2   7  171.48   29.70 
  -1   2   7  183.58   30.10 
  -1   2   7  195.68   30.00 
   1  -3  -8 1570.44  193.68 
   1  -3  -8 1590.14  194.68 
   1  -3  -8 1705.03  193.88 
   1  -3  -8 1697.23  191.28 
   1  -3  -8 1801.62  194.08 
   1  -3  -8 1806.52  194.58 
  -1   3   8 1765.92  195.28 
  -1   3   8 1811.72  196.08 
  -1   3   8 1728.13  196.08 
  -1   3   8 1706.13  189.58 
  -1   3   8 1670.93  195.28 
  -1   3   8 1525.05  194.68 
  -1   3   8 1662.73  195.08 
   1  -4  -9  810.82  105.59 
   1  -4  -9  844.82  105.49 
   1  -4  -9  783.52  105.99 
   1  -4  -9  821.22  107.59 
   1  -4  -9  988.40  107.79 
  -1   4   9  923.61  109.19 
  -1   4   9  889.81  107.39 
  -1   4   9  924.51  101.09 
  -1   4   9  950.30  109.69 
  -1   4   9  921.21  107.99 
  -1   4   9  926.01  109.09 
  -1   4   9  959.80  108.99 
   1  -5 -10   23.10   13.10 
   1  -5 -10   66.79   15.80 
   1  -5 -10   22.30   18.60 
   1  -5 -10   38.10   10.10 
   1  -5 -10   31.20   17.40 
  -1   5  10   15.20   17.90 
  -1   5  10   24.60    7.40 
  -1   5  10   35.70   17.50 
  -1   5  10  -11.50   22.10 
  -1   5  10   35.80   15.50 
  -1   5  10   20.20   18.20 
  -1   5  10   40.10   16.00 
   1  -6 -11   24.80   11.40 
   1  -6 -11   41.10   18.00 
   1  -6 -11   48.30   15.60 
  -1   6  11   35.40   18.30 
  -1   6  11   26.00    8.60 
  -1   6  11   49.90   25.10 
  -1   6  11   49.90   23.10 
  -1   6  11   78.99   22.70 
   1  -7 -12   26.80   17.10 
   1  -7 -12   19.60   11.60 
   1  -7 -12   22.20   18.20 
  -1   7  12    5.70   18.50 
  -1   7  12   19.30   23.40 
  -1   7  12   -7.20   30.80 
  -1   7  12   -3.30   14.10 
  -1   7  12   12.70    8.50 
   1  -8 -13   51.59   23.60 
   1  -8 -13   30.80   16.60 
   1  -8 -13   29.70   23.60 
  -1   8  13   15.60   25.70 
  -1   8  13   55.39   28.50 
  -1   8  13   31.30   28.50 
  -1   8  13   -2.20   67.89 
  -1   8  13   -8.40   32.40 
   2  11   5  215.08   45.70 
   2  11   5  275.37   52.39 
   2  11   5  204.48   43.00 
   2  11   5  258.67   32.10 
  -2 -11  -5  175.58   40.60 
  -2 -11  -5  264.37   48.90 
   2  10   4  494.15   86.29 
   2  10   4  740.23   92.49 
   2  10   4  564.74   88.99 
   2  10   4  813.42   94.69 
  -2 -10  -4  694.23  115.29 
  -2 -10  -4  703.23   93.39 
  -2 -10  -4  807.12   92.59 
   2   9   3  320.37   51.49 
   2   9   3  328.37   41.60 
   2   9   3  388.06   55.49 
   2   9   3  414.26   55.39 
  -2  -9  -3  347.87   52.79 
  -2  -9  -3  409.46   71.39 
  -2  -9  -3  256.37   46.70 
  -2  -9  -3  370.26   55.29 
   2   8   2   13.00   15.90 
   2   8   2    4.40   14.60 
   2   8   2    0.30    4.10 
   2   8   2   13.30   15.00 
   2   8   2  -23.70   15.50 
   2   8   2   13.10   17.90 
   2   8   2   13.60   30.80 
  -2  -8  -2  -18.70   19.10 
  -2  -8  -2   38.10   29.00 
  -2  -8  -2    0.30    9.90 
  -2  -8  -2   15.40   14.80 
  -2  -8  -2   -3.00   11.30 
   2   7   1  522.65   75.19 
   2   7   1  613.44   76.09 
   2   7   1  669.63   77.49 
   2   7   1  604.94   67.79 
   2   7   1  546.15   73.69 
   2   7   1  412.66   72.39 
  -2  -7  -1  566.54   71.99 
  -2  -7  -1  659.73   78.39 
  -2  -7  -1  494.45   73.99 
  -2  -7  -1  522.75   81.29 
  -2  -7  -1  595.34   80.79 
  -2  -7  -1  695.73   82.99 
  -2  -7  -1  665.83   80.99 
   2   6   0  335.07   37.00 
   2   6   0  237.08   42.10 
   2   6   0  264.87   40.20 
   2   6   0  348.37   44.60 
   2   6   0  386.36   50.29 
   2   6   0  353.36   44.70 
   2   6   0  249.58   42.00 
   2   6   0  255.27   41.30 
  -2  -6   0  312.27   48.70 
  -2  -6   0  375.96   49.80 
  -2  -6   0  336.37   43.90 
  -2  -6   0  233.68   42.30 
  -2  -6   0  247.48   43.20 
  -2  -6   0  273.87   46.70 
  -2  -6   0  277.87   39.20 
   2   5  -1  555.54   68.29 
   2   5  -1  440.56   70.99 
   2   5  -1  720.23   72.79 
   2   5  -1  644.74   72.79 
   2   5  -1  520.35   66.79 
   2   5  -1  666.33   70.79 
   2   5  -1  511.55   65.99 
  -2  -5   1  448.66   69.39 
  -2  -5   1  562.84   66.59 
  -2  -5   1  430.06   67.79 
  -2  -5   1  603.94   71.09 
  -2  -5   1  474.65   70.19 
  -2  -5   1  533.05   68.89 
  -2  -5   1  594.44   71.69 
  -2  -5   1  448.46   68.59 
   2   4  -2   88.49   19.10 
   2   4  -2  105.19   21.70 
   2   4  -2  111.69   17.80 
   2   4  -2  124.39   23.40 
   2   4  -2   90.09   17.60 
   2   4  -2  103.69   18.90 
   2   4  -2   61.09   17.30 
  -2  -4   2   59.89   17.80 
  -2  -4   2   95.89   19.40 
  -2  -4   2   65.49   20.30 
  -2  -4   2   48.20   17.70 
  -2  -4   2  103.69   21.30 
  -2  -4   2  129.29   21.90 
  -2  -4   2   63.99   12.40 
  -2  -4   2   67.29   18.10 
  -2  -4   2   86.19   16.50 
   2   3  -3  406.06   46.10 
   2   3  -3  314.27   42.70 
   2   3  -3  286.27   40.90 
   2   3  -3  320.77   41.80 
   2   3  -3  329.37   40.30 
   2   3  -3  370.36   42.40 
   2   3  -3  297.17   42.60 
   2   3  -3  334.07   45.00 
  -2  -3   3  248.88   41.40 
  -2  -3   3  361.96   45.20 
  -2  -3   3  358.16   42.90 
  -2  -3   3  267.17   42.40 
  -2  -3   3  363.76   41.60 
  -2  -3   3  315.07   42.00 
  -2  -3   3  285.77   42.40 
  -2  -3   3  378.36   45.20 
  -2  -3   3  283.67   39.90 
   2   2  -4 3274.17  364.36 
   2   2  -4 3659.43  365.56 
   2   2  -4 3143.29  363.66 
   2   2  -4 3164.08  364.76 
   2   2  -4 3490.65  365.96 
   2   2  -4 3075.19  362.16 
   2   2  -4 3194.48  360.66 
   2   2  -4 3114.19  363.76 
  -2  -2   4 3239.98  364.96 
  -2  -2   4 2839.52  363.36 
  -2  -2   4 3364.46  366.26 
  -2  -2   4 3446.96  363.86 
  -2  -2   4 3269.07  364.36 
  -2  -2   4 2994.00  363.16 
  -2  -2   4 3329.17  366.16 
   2   1  -5 1329.57  137.79 
   2   1  -5 1216.18  138.79 
   2   1  -5 1245.08  137.79 
   2   1  -5 1266.57  141.29 
   2   1  -5 1348.77  141.39 
   2   1  -5 1244.38  140.19 
   2   1  -5 1138.99  139.99 
   2   1  -5 1172.68  140.79 
   2   1  -5 1325.37  140.39 
   2   1  -5 1127.19  140.39 
  -2  -1   5 1292.77  142.29 
  -2  -1   5 1033.00  137.09 
  -2  -1   5 1326.67  141.29 
  -2  -1   5 1088.49  139.99 
  -2  -1   5 1203.08  140.09 
  -2  -1   5 1303.27  141.89 
  -2  -1   5 1202.58  140.39 
  -2  -1   5 1214.28  139.79 
  -2  -1   5 1278.47  142.39 
   2   0  -6 2132.19  267.67 
   2   0  -6 2809.42  270.87 
   2   0  -6 2436.86  270.27 
   2   0  -6 2237.78  268.47 
   2   0  -6 2115.29  270.07 
   2   0  -6 2038.70  270.57 
   2   0  -6 2559.74  271.07 
   2   0  -6 2569.14  267.97 
   2   0  -6 2827.52  271.17 
  -2   0   6 2340.97  270.87 
  -2   0   6 2370.96  267.87 
  -2   0   6 2501.95  272.37 
  -2   0   6 2295.37  272.77 
  -2   0   6 2163.08  270.27 
  -2   0   6 2559.74  272.57 
  -2   0   6 2396.86  272.67 
  -2   0   6 2567.44  271.47 
   2  -1  -7  247.78   28.10 
   2  -1  -7  208.38   27.50 
   2  -1  -7  236.68   27.90 
   2  -1  -7  218.18   24.30 
   2  -1  -7  179.68   24.90 
   2  -1  -7  186.58   27.20 
  -2   1   7  214.98   28.50 
  -2   1   7  192.98   24.20 
  -2   1   7  196.48   27.70 
  -2   1   7  200.58   29.80 
  -2   1   7  199.28   28.90 
  -2   1   7  182.88   24.10 
  -2   1   7  243.48   29.40 
  -2   1   7  183.18   27.80 
  -2   1   7  167.08   27.90 
   2  -2  -8 1969.60  238.68 
   2  -2  -8 2285.27  235.28 
   2  -2  -8 2200.48  238.68 
   2  -2  -8 2198.18  239.38 
   2  -2  -8 2231.88  236.18 
   2  -2  -8 1961.20  238.58 
   2  -2  -8 2382.76  239.48 
  -2   2   8 2129.89  240.28 
  -2   2   8 1888.91  239.88 
  -2   2   8 2086.09  235.28 
  -2   2   8 1993.40  239.48 
  -2   2   8 2166.78  240.48 
  -2   2   8 2287.67  242.18 
  -2   2   8 1846.02  235.28 
  -2   2   8 1944.41  241.08 
  -2   2   8 2075.69  240.28 
  -2   2   8 2143.49  240.28 
   2  -3  -9   65.89   16.90 
   2  -3  -9   92.99   16.80 
   2  -3  -9   93.79   18.50 
   2  -3  -9   82.39   12.30 
   2  -3  -9   59.89   15.80 
   2  -3  -9   94.59   18.50 
  -2   3   9   70.39   19.40 
  -2   3   9   72.19   19.90 
  -2   3   9   66.69   17.80 
  -2   3   9   85.99   21.90 
  -2   3   9   72.09   11.40 
  -2   3   9   61.39   17.00 
  -2   3   9   69.69   18.10 
  -2   3   9   63.69   16.80 
   2  -4 -10   68.39   16.80 
   2  -4 -10   55.69   12.50 
   2  -4 -10  105.09   19.40 
   2  -4 -10   42.20   16.90 
   2  -4 -10   96.69   19.20 
  -2   4  10   76.29   22.50 
  -2   4  10   61.59   20.60 
  -2   4  10   69.09   21.50 
  -2   4  10   45.40   19.40 
  -2   4  10   69.89   18.70 
  -2   4  10   66.89   20.20 
  -2   4  10   97.39   21.20 
  -2   4  10   68.89   11.90 
   2  -5 -11  532.35   66.39 
   2  -5 -11  467.85   69.19 
   2  -5 -11  480.25   61.69 
   2  -5 -11  515.15   65.89 
  -2   5  11  493.95   60.79 
  -2   5  11  583.04   74.09 
  -2   5  11  499.35   68.99 
  -2   5  11  533.05   72.09 
  -2   5  11  599.44   72.79 
  -2   5  11  567.34   69.89 
  -2   5  11  519.85   72.89 
   2  -6 -12   62.99   19.40 
   2  -6 -12   73.49   15.20 
   2  -6 -12   41.20   19.20 
  -2   6  12   68.99   14.00 
  -2   6  12   35.20   21.50 
  -2   6  12   96.99   29.10 
  -2   6  12   40.30   28.90 
   2  -7 -13   94.99   24.10 
   2  -7 -13   55.39   16.90 
   2  -7 -13  105.29   27.90 
  -2   7  13  127.39   34.80 
  -2   7  13   60.49   26.90 
  -2   7  13   70.39   16.90 
  -2   7  13  113.69   33.90 
   3  11   4  265.27   54.89 
   3  11   4  350.26   57.89 
   3  11   4  372.46   45.00 
   3  11   4  376.56   61.69 
   3  11   4  321.47   62.09 
  -3 -11  -4  306.77   89.09 
  -3 -11  -4  343.87   63.99 
  -3 -11  -4  439.66   63.59 
  -3 -11  -4  291.57   58.69 
  -3 -11  -4  303.87   58.39 
   3  10   3   10.00   20.30 
   3  10   3   -8.60   19.50 
   3  10   3  -26.10   24.80 
   3  10   3   18.20    7.70 
   3  10   3   30.70   23.00 
  -3 -10  -3   50.79   47.30 
  -3 -10  -3   23.10   23.90 
  -3 -10  -3    4.60   19.60 
  -3 -10  -3   14.70   24.70 
  -3 -10  -3    2.70   17.00 
   3   9   2  317.97   77.99 
   3   9   2  298.37   61.99 
   3   9   2  378.66   60.89 
   3   9   2  481.05   54.49 
   3   9   2  412.76   63.49 
  -3  -9  -2  605.74   68.59 
  -3  -9  -2  511.05   82.19 
  -3  -9  -2  522.05   67.89 
  -3  -9  -2  533.55   71.59 
  -3  -9  -2  366.26   59.29 
   3   8   1   21.30   16.10 
   3   8   1   30.40   18.60 
   3   8   1    8.30    6.00 
   3   8   1   -2.00   12.70 
   3   8   1   -4.40   18.40 
  -3  -8  -1  -35.90   30.20 
  -3  -8  -1   -2.90   17.50 
  -3  -8  -1   23.50   17.60 
  -3  -8  -1   15.20   23.10 
  -3  -8  -1    3.60   17.90 
  -3  -8  -1   -1.50   25.40 
   3   7   0 3516.15  382.46 
   3   7   0 2943.51  377.26 
   3   7   0 3243.28  374.96 
   3   7   0 2986.50  375.36 
   3   7   0 3971.20  380.46 
  -3  -7   0 2943.01  374.46 
  -3  -7   0 3443.66  389.96 
  -3  -7   0 3324.07  379.66 
  -3  -7   0 3060.69  378.46 
  -3  -7   0 3922.01  381.86 
  -3  -7   0 3153.78  383.16 
   3   6  -1    0.80   11.50 
   3   6  -1    1.60   11.40 
   3   6  -1   15.50    6.50 
   3   6  -1   16.80   14.20 
   3   6  -1    7.40   14.00 
   3   6  -1   16.80   10.20 
   3   6  -1   20.10   16.80 
   3   6  -1   41.60   14.80 
  -3  -6   1   12.00   18.10 
  -3  -6   1    7.00   18.70 
  -3  -6   1   24.70   17.20 
  -3  -6   1   26.40   15.30 
  -3  -6   1    1.40   13.00 
  -3  -6   1   31.00   16.70 
  -3  -6   1    5.70   12.90 
  -3  -6   1   17.90   10.90 
  -3  -6   1   10.30    7.30 
   3   5  -2  595.34   64.79 
   3   5  -2  597.84   67.59 
   3   5  -2  452.75   61.59 
   3   5  -2  517.35   61.49 
   3   5  -2  459.75   63.89 
  -3  -5   2  420.96   65.59 
  -3  -5   2  602.14   67.29 
  -3  -5   2  465.15   66.59 
  -3  -5   2  406.86   63.49 
  -3  -5   2  418.66   63.49 
  -3  -5   2  540.65   68.89 
  -3  -5   2  403.16   58.79 
  -3  -5   2  569.54   66.99 
  -3  -5   2  477.75   61.39 
   3   4  -3  127.99   20.40 
   3   4  -3  121.79   23.60 
   3   4  -3   91.99   19.10 
   3   4  -3   95.59   22.70 
   3   4  -3  150.98   27.20 
   3   4  -3   82.69   21.30 
   3   4  -3  116.29   18.70 
  -3  -4   3   86.89   21.00 
  -3  -4   3   82.99   20.80 
  -3  -4   3  125.89   22.60 
  -3  -4   3  105.09   24.40 
  -3  -4   3  111.39   25.60 
  -3  -4   3  113.39   21.00 
  -3  -4   3  132.99   23.70 
  -3  -4   3   72.99   16.20 
   3   3  -4   21.70    8.30 
   3   3  -4   30.30   13.00 
   3   3  -4   12.30    8.30 
   3   3  -4   23.30   11.30 
   3   3  -4   17.10   10.00 
   3   3  -4   25.30   10.10 
   3   3  -4   17.70    9.10 
   3   3  -4   12.60    4.20 
   3   3  -4   13.70    8.10 
  -3  -3   4    9.40   10.50 
  -3  -3   4   29.70    9.90 
  -3  -3   4   54.09   14.20 
  -3  -3   4   19.10   10.50 
  -3  -3   4    7.90    8.50 
  -3  -3   4   17.70   13.20 
  -3  -3   4   10.10    5.20 
  -3  -3   4    1.00    7.80 
   3   2  -5   -0.90    7.30 
   3   2  -5   13.60    7.50 
   3   2  -5    7.00    3.20 
   3   2  -5   -0.10    7.20 
   3   2  -5   -8.20    8.00 
   3   2  -5   16.50    6.10 
   3   2  -5   16.80    8.20 
   3   2  -5   17.00    9.10 
   3   2  -5    5.50    5.60 
  -3  -2   5    7.30    7.00 
  -3  -2   5    8.40    6.90 
  -3  -2   5    3.40    7.50 
  -3  -2   5   15.70    8.60 
  -3  -2   5    7.70    6.70 
  -3  -2   5   18.60   11.20 
  -3  -2   5    4.50    7.70 
  -3  -2   5    6.60    6.40 
   3   1  -6 1531.45  195.08 
   3   1  -6 1771.22  197.38 
   3   1  -6 1816.62  193.88 
   3   1  -6 1711.03  192.88 
   3   1  -6 1805.42  193.28 
   3   1  -6 1696.83  194.88 
   3   1  -6 1982.00  196.88 
   3   1  -6 1857.51  195.88 
   3   1  -6 1754.22  196.68 
  -3  -1   6 1701.83  197.58 
  -3  -1   6 1720.73  195.28 
  -3  -1   6 1672.33  195.38 
  -3  -1   6 1577.84  195.78 
  -3  -1   6 1617.14  196.18 
  -3  -1   6 1525.35  192.28 
  -3  -1   6 1986.10  200.38 
  -3  -1   6 1594.04  195.68 
   3   0  -7    4.60    5.90 
   3   0  -7    0.10    5.80 
   3   0  -7    2.00    2.40 
   3   0  -7   -0.90    3.50 
   3   0  -7    7.20    6.40 
   3   0  -7    0.70    2.20 
   3   0  -7   -8.30    5.20 
   3   0  -7   12.40    6.60 
  -3   0   7   -5.60    6.20 
  -3   0   7   -1.50    2.00 
  -3   0   7   -1.70    6.30 
  -3   0   7    0.50    7.30 
  -3   0   7   -7.00    6.60 
  -3   0   7    0.70    6.00 
  -3   0   7    4.60    8.00 
  -3   0   7    5.80    8.30 
   3  -1  -8 1644.64  180.98 
   3  -1  -8 1438.36  183.48 
   3  -1  -8 1705.53  181.08 
   3  -1  -8 1720.13  184.18 
   3  -1  -8 1810.22  184.18 
   3  -1  -8 1492.95  184.48 
   3  -1  -8 1685.53  183.58 
  -3   1   8 1436.06  184.98 
  -3   1   8 1814.42  188.38 
  -3   1   8 1685.33  185.58 
  -3   1   8 1535.45  185.08 
  -3   1   8 1503.85  184.68 
  -3   1   8 1424.26  180.78 
  -3   1   8 1542.15  187.38 
  -3   1   8 1589.64  181.08 
  -3   1   8 1810.32  187.48 
   3  -2  -9   75.89   16.50 
   3  -2  -9   88.49   17.10 
   3  -2  -9   86.09   12.30 
   3  -2  -9  107.19   18.10 
   3  -2  -9   68.09   12.10 
   3  -2  -9   89.39   12.00 
   3  -2  -9   80.49   16.40 
   3  -2  -9   60.09   16.40 
  -3   2   9   84.59   19.50 
  -3   2   9   60.59   18.40 
  -3   2   9   81.69   20.50 
  -3   2   9  127.89   21.50 
  -3   2   9   73.79   17.20 
  -3   2   9   71.19   18.20 
  -3   2   9   68.59   19.10 
  -3   2   9   75.59   12.40 
  -3   2   9   95.59   18.90 
  -3   2   9   75.89   11.80 
   3  -3 -10  164.48   25.80 
   3  -3 -10  173.78   22.00 
   3  -3 -10  187.48   26.30 
   3  -3 -10  169.38   31.60 
   3  -3 -10  155.38   28.10 
   3  -3 -10  188.28   30.30 
  -3   3  10  145.49   22.50 
  -3   3  10  178.38   30.70 
  -3   3  10  133.99   30.30 
  -3   3  10  193.08   32.60 
  -3   3  10  164.48   30.30 
  -3   3  10  196.18   34.10 
  -3   3  10  191.58   29.80 
  -3   3  10  187.18   31.90 
  -3   3  10  160.28   34.30 
   3  -4 -11  -10.20   12.80 
   3  -4 -11    7.70   14.10 
   3  -4 -11   -6.30    9.90 
   3  -4 -11    9.00    5.70 
  -3   4  11   -9.20    6.00 
  -3   4  11   -7.50   14.40 
  -3   4  11    4.50    6.20 
  -3   4  11   15.10   16.50 
  -3   4  11   -3.00   15.80 
  -3   4  11    8.00   17.50 
  -3   4  11   -7.80   12.60 
   3  -5 -12  258.37   35.10 
   3  -5 -12  278.37   41.70 
   3  -5 -12  273.87   40.20 
  -3   5  12  325.67   49.30 
  -3   5  12  291.97   50.49 
  -3   5  12  359.36   50.59 
  -3   5  12  215.18   44.10 
  -3   5  12  309.07   52.29 
  -3   5  12  288.37   49.00 
   3  -6 -13    3.20    9.30 
   3  -6 -13    7.60   16.20 
   3  -6 -13    2.00   15.50 
  -3   6  13    2.40   21.50 
  -3   6  13   -6.90   10.30 
  -3   6  13  -12.50   18.10 
  -3   6  13    2.40   19.20 
  -3   6  13   33.30   26.60 
   3  -7 -14  142.39   30.50 
   3  -7 -14  138.49   32.70 
   3  -7 -14  111.99   22.50 
  -3   7  14  157.68   41.80 
  -3   7  14  229.78   51.79 
  -3   7  14  156.68   37.10 
  -3   7  14  132.49   40.90 
   4  11   3  196.68   39.80 
   4  11   3  196.28   48.70 
   4  11   3  232.98   50.49 
  -4 -11  -3  330.27   56.09 
  -4 -11  -3  290.67   56.19 
  -4 -11  -3  416.96   58.49 
  -4 -11  -3  159.38   42.70 
   4  10   2    7.70    8.60 
   4  10   2   22.00   18.60 
   4  10   2   16.10   31.10 
   4  10   2    9.10   16.80 
  -4 -10  -2   10.40   22.40 
  -4 -10  -2   28.70   28.40 
  -4 -10  -2   -5.40   24.30 
  -4 -10  -2   51.49   57.39 
  -4 -10  -2  -19.30   17.10 
   4   9   1   30.20   22.00 
   4   9   1   11.50    7.50 
   4   9   1   -8.10   15.00 
   4   9   1   14.70   23.90 
   4   9   1   50.09   21.30 
  -4  -9  -1   -7.90   16.70 
  -4  -9  -1   40.60   36.60 
  -4  -9  -1   32.00   40.80 
  -4  -9  -1   38.00   24.00 
  -4  -9  -1    5.20   20.30 
  -4  -9  -1   -3.70   27.10 
   4   8   0  674.73   78.69 
   4   8   0  708.53   87.29 
   4   8   0  586.14  107.59 
   4   8   0  555.84   85.99 
   4   8   0  595.94   81.39 
  -4  -8   0  874.91   99.39 
  -4  -8   0  631.54   94.29 
  -4  -8   0  681.23   92.19 
  -4  -8   0  623.64   88.99 
   4   7  -1  441.86   72.39 
   4   7  -1  629.34   87.29 
   4   7  -1  657.53   70.99 
   4   7  -1  705.83   81.79 
   4   7  -1  535.25   77.69 
   4   7  -1  585.74   73.19 
   4   7  -1  622.84   77.59 
  -4  -7   1  457.85   73.49 
  -4  -7   1  604.04   88.79 
  -4  -7   1  518.25   77.89 
  -4  -7   1  733.83   83.29 
  -4  -7   1  672.33   82.79 
  -4  -7   1  581.24   81.89 
  -4  -7   1  457.45   71.19 
  -4  -7   1  821.42   86.29 
  -4  -7   1  575.14   81.99 
   4   6  -2  718.23   97.49 
   4   6  -2  847.02   93.79 
   4   6  -2  699.23   92.69 
   4   6  -2  625.04   94.99 
   4   6  -2  793.62   99.39 
  -4  -6   2  995.20  103.59 
  -4  -6   2  863.41   98.89 
  -4  -6   2  703.43   92.49 
  -4  -6   2  739.43   96.99 
  -4  -6   2  765.62   99.39 
  -4  -6   2  728.23   94.29 
  -4  -6   2  650.53   99.89 
  -4  -6   2  917.21  100.89 
  -4  -6   2  840.62  103.49 
   4   5  -3 1938.31  192.38 
   4   5  -3 1544.15  186.08 
   4   5  -3 1825.92  188.78 
   4   5  -3 1649.04  186.58 
   4   5  -3 1687.33  190.98 
   4   5  -3 1531.65  185.98 
  -4  -5   3 1306.87  187.58 
  -4  -5   3 1402.46  184.78 
  -4  -5   3 1342.77  192.78 
  -4  -5   3 1391.86  188.38 
  -4  -5   3 1648.94  193.58 
  -4  -5   3 1794.72  190.28 
  -4  -5   3 1903.21  191.48 
  -4  -5   3 1693.13  192.38 
  -4  -5   3 1716.93  188.58 
   4   4  -4 1441.16  168.58 
   4   4  -4 1495.15  169.88 
   4   4  -4 1218.88  168.18 
   4   4  -4 1705.93  175.08 
   4   4  -4 1440.36  169.68 
   4   4  -4 1517.75  166.38 
   4   4  -4 1584.04  172.18 
   4   4  -4 1559.94  173.88 
   4   4  -4 1226.78  171.28 
  -4  -4   4 1488.25  172.78 
  -4  -4   4 1339.97  177.38 
  -4  -4   4 1239.98  169.98 
  -4  -4   4 1574.54  172.28 
  -4  -4   4 1641.74  177.08 
  -4  -4   4 1663.43  172.38 
  -4  -4   4 1562.84  171.58 
  -4  -4   4 1354.26  171.58 
   4   3  -5    1.30   12.20 
   4   3  -5    6.00    6.60 
   4   3  -5   -6.10   10.30 
   4   3  -5   -7.40    7.40 
   4   3  -5   21.50   11.90 
   4   3  -5   -1.00    6.20 
   4   3  -5    1.50    9.50 
   4   3  -5    0.80    7.00 
  -4  -3   5    1.80    9.60 
  -4  -3   5    4.40   14.00 
  -4  -3   5   15.30    9.50 
  -4  -3   5   -5.80    8.70 
  -4  -3   5    5.00   10.00 
  -4  -3   5    7.50    8.80 
  -4  -3   5    4.80   11.80 
  -4  -3   5    3.60    5.40 
  -4  -3   5   -3.20    7.90 
   4   2  -6    3.90    8.70 
   4   2  -6   -0.60    3.00 
   4   2  -6    5.20    8.40 
   4   2  -6   16.70    9.80 
   4   2  -6   -2.70    2.80 
   4   2  -6    5.70   10.40 
  -4  -2   6   -2.40    7.10 
  -4  -2   6   29.70   10.40 
  -4  -2   6    1.30   12.70 
  -4  -2   6    3.70    2.90 
  -4  -2   6    3.10    8.80 
  -4  -2   6   11.80    9.70 
  -4  -2   6    2.80    7.40 
  -4  -2   6   14.20   11.90 
  -4  -2   6   10.10    8.90 
   4   1  -7  374.96   53.39 
   4   1  -7  476.15   54.89 
   4   1  -7  449.95   52.99 
   4   1  -7  434.86   51.49 
   4   1  -7  441.26   55.19 
   4   1  -7  446.56   53.99 
   4   1  -7  433.16   57.19 
   4   1  -7  444.56   51.39 
  -4  -1   7  458.45   54.29 
  -4  -1   7  414.16   55.19 
  -4  -1   7  374.36   50.19 
  -4  -1   7  366.16   56.49 
  -4  -1   7  476.15   54.79 
  -4  -1   7  480.15   59.29 
  -4  -1   7  442.16   55.29 
  -4  -1   7  416.06   54.89 
  -4  -1   7  500.85   60.79 
   4   0  -8  174.28   22.70 
   4   0  -8  186.28   26.20 
   4   0  -8  155.58   25.20 
   4   0  -8  220.78   27.20 
   4   0  -8  197.18   23.10 
   4   0  -8  161.88   29.20 
   4   0  -8  195.68   26.90 
  -4   0   8  173.48   29.50 
  -4   0   8  216.28   32.10 
  -4   0   8  179.78   27.50 
  -4   0   8  131.59   26.90 
  -4   0   8  149.79   27.80 
  -4   0   8  198.48   34.00 
  -4   0   8  210.28   32.90 
  -4   0   8  147.79   22.00 
   4  -1  -9  909.61   99.09 
   4  -1  -9  860.31  102.39 
   4  -1  -9  958.30  100.39 
   4  -1  -9  768.02  103.69 
   4  -1  -9 1000.90  102.39 
   4  -1  -9  777.92  101.89 
   4  -1  -9  867.81  102.59 
  -4   1   9  853.81   97.59 
  -4   1   9  819.42  103.79 
  -4   1   9  754.02  103.69 
  -4   1   9  835.32   99.49 
  -4   1   9  974.00  108.79 
  -4   1   9  990.20  108.29 
  -4   1   9  854.81  105.39 
  -4   1   9  832.22  108.29 
  -4   1   9  863.91  104.29 
   4  -2 -10   71.49   16.90 
   4  -2 -10   59.49   16.40 
   4  -2 -10   54.09   16.40 
   4  -2 -10   91.19   19.30 
   4  -2 -10   90.89   17.30 
   4  -2 -10   83.29   11.90 
   4  -2 -10   87.19   12.80 
   4  -2 -10   79.59   11.40 
  -4   2  10  110.69   23.50 
  -4   2  10   46.60   19.40 
  -4   2  10   59.89   12.30 
  -4   2  10   81.89   19.70 
  -4   2  10   64.89   18.10 
  -4   2  10   61.39   19.40 
  -4   2  10  103.49   25.90 
  -4   2  10   61.89   20.40 
  -4   2  10   92.69   21.30 
   4  -3 -11    9.50    8.20 
   4  -3 -11    6.40    4.20 
   4  -3 -11   21.30   15.20 
   4  -3 -11    4.20    8.60 
   4  -3 -11    5.60    5.20 
   4  -3 -11    0.30    4.80 
  -4   3  11   16.10   13.40 
  -4   3  11   -1.30    6.30 
  -4   3  11   -4.20   14.30 
  -4   3  11   16.70   12.80 
  -4   3  11   10.70   16.10 
  -4   3  11    2.50   16.50 
  -4   3  11   17.20    7.60 
  -4   3  11    5.30   14.90 
   4  -4 -12  943.71  109.39 
   4  -4 -12  782.32  115.69 
   4  -4 -12 1018.30  117.09 
   4  -4 -12  996.10  115.19 
   4  -4 -12  958.00  109.19 
  -4   4  12  974.10  120.19 
  -4   4  12 1163.48  123.39 
  -4   4  12 1196.48  126.29 
  -4   4  12 1037.40  128.09 
  -4   4  12  958.60  119.89 
  -4   4  12  953.40  111.89 
  -4   4  12  792.82  121.89 
   4  -5 -13   62.39   11.00 
   4  -5 -13   55.39   11.60 
   4  -5 -13   70.49   21.40 
   4  -5 -13   65.69   19.70 
  -4   5  13   43.80   29.90 
  -4   5  13  107.19   28.80 
  -4   5  13   57.79   24.20 
  -4   5  13  115.49   33.40 
   4  -6 -14  179.68   26.00 
   4  -6 -14  141.19   35.50 
   4  -6 -14  162.78   33.30 
   4  -6 -14  192.88   25.20 
  -4   6  14  273.77   47.20 
  -4   6  14  220.78   51.99 
  -4   6  14  336.27   56.99 
   5  10   1  328.97   41.00 
   5  10   1  221.58   51.89 
   5  10   1  271.77   45.80 
   5  10   1  243.98   52.79 
   5  10   1  208.38   53.49 
  -5 -10  -1  355.16   60.59 
  -5 -10  -1  408.56   65.39 
  -5 -10  -1  275.67   70.89 
  -5 -10  -1  205.68   48.60 
  -5 -10  -1  488.55   66.19 
   5   9   0  250.97   68.19 
   5   9   0  220.48   51.59 
   5   9   0  324.67   46.80 
   5   9   0  361.66   43.30 
   5   9   0  300.57   53.99 
  -5  -9   0  305.27   56.79 
  -5  -9   0  256.87   49.90 
  -5  -9   0  488.05   72.99 
   5   8  -1  460.75   60.89 
   5   8  -1  385.76   55.29 
   5   8  -1  406.16   63.39 
   5   8  -1  500.95   66.89 
  -5  -8   1  529.85   70.49 
  -5  -8   1  310.47   56.89 
  -5  -8   1  433.66   69.09 
  -5  -8   1  397.46   67.19 
  -5  -8   1  359.06   55.69 
  -5  -8   1  557.04   69.99 
  -5  -8   1  461.95   71.79 
  -5  -8   1  319.87   62.49 
   5   7  -2   15.70   16.90 
   5   7  -2    9.40   19.10 
   5   7  -2   31.60   14.20 
   5   7  -2   42.90   18.30 
   5   7  -2  -24.60   24.20 
  -5  -7   2    1.20   22.40 
  -5  -7   2   42.00   24.60 
  -5  -7   2    4.60   12.30 
  -5  -7   2    7.30   20.70 
  -5  -7   2   69.59   30.90 
  -5  -7   2  -12.90   15.00 
  -5  -7   2   23.60   24.60 
  -5  -7   2    4.00   14.60 
   5   6  -3  330.27   48.90 
   5   6  -3  290.57   47.70 
   5   6  -3  387.66   50.09 
   5   6  -3  415.36   45.70 
   5   6  -3  388.06   55.59 
   5   6  -3  339.27   48.40 
   5   6  -3  544.35   62.19 
  -5  -6   3  452.15   57.69 
  -5  -6   3  361.86   52.19 
  -5  -6   3  340.17   58.19 
  -5  -6   3  303.27   56.39 
  -5  -6   3  325.07   62.19 
  -5  -6   3  388.16   56.19 
  -5  -6   3  421.46   64.59 
  -5  -6   3  308.37   51.79 
  -5  -6   3  328.17   48.90 
   5   5  -4  116.59   27.80 
   5   5  -4  155.08   18.80 
   5   5  -4  106.59   22.30 
   5   5  -4  153.48   25.20 
   5   5  -4   92.99   29.10 
   5   5  -4   93.89   22.20 
   5   5  -4  143.09   29.90 
   5   5  -4  108.69   23.80 
  -5  -5   4  133.99   28.30 
  -5  -5   4  119.29   26.70 
  -5  -5   4   85.39   20.20 
  -5  -5   4   83.59   31.50 
  -5  -5   4  159.08   35.30 
  -5  -5   4  149.29   28.70 
  -5  -5   4  163.88   28.80 
   5   4  -5  671.23   79.89 
   5   4  -5  631.54   77.99 
   5   4  -5  736.23   76.09 
   5   4  -5  606.44   70.79 
   5   4  -5  622.74   71.09 
   5   4  -5  519.65   72.29 
   5   4  -5  569.24   72.99 
   5   4  -5  547.05   72.99 
   5   4  -5  719.83   77.89 
  -5  -4   5  712.93   85.09 
  -5  -4   5  457.05   74.29 
  -5  -4   5  671.53   80.29 
  -5  -4   5  629.74   77.49 
  -5  -4   5  644.34   77.19 
  -5  -4   5  641.24   77.09 
  -5  -4   5  550.44   75.79 
  -5  -4   5  561.84   84.79 
  -5  -4   5  495.05   74.19 
   5   3  -6  165.18   27.10 
   5   3  -6  200.08   32.30 
   5   3  -6  157.78   32.90 
   5   3  -6  230.18   25.50 
   5   3  -6  180.68   33.40 
   5   3  -6  155.08   32.90 
   5   3  -6  180.58   25.30 
   5   3  -6  209.18   28.10 
  -5  -3   6  174.78   27.60 
  -5  -3   6  206.48   31.10 
  -5  -3   6  173.58   40.50 
  -5  -3   6  198.48   34.30 
  -5  -3   6  188.38   31.30 
  -5  -3   6  188.58   31.90 
  -5  -3   6  189.38   29.80 
  -5  -3   6  188.58   38.80 
  -5  -3   6  159.38   30.30 
   5   2  -7  163.58   26.80 
   5   2  -7  131.99   17.70 
   5   2  -7  151.38   27.00 
   5   2  -7  122.99   24.20 
   5   2  -7  120.09   21.40 
   5   2  -7  146.19   20.10 
   5   2  -7  144.39   23.90 
   5   2  -7  101.49   17.60 
  -5  -2   7  118.19   25.70 
  -5  -2   7   96.79   21.50 
  -5  -2   7  127.19   23.40 
  -5  -2   7  120.79   24.10 
  -5  -2   7  110.79   19.50 
  -5  -2   7  132.39   25.30 
  -5  -2   7  111.49   21.80 
  -5  -2   7  176.58   35.30 
  -5  -2   7   98.59   20.30 
  -5  -2   7  139.89   31.70 
   5   1  -8  173.38   21.50 
   5   1  -8  161.28   21.90 
   5   1  -8  160.28   22.50 
   5   1  -8  145.69   24.20 
   5   1  -8  143.89   25.20 
   5   1  -8  144.69   26.40 
   5   1  -8  154.98   20.70 
   5   1  -8  111.39   30.40 
   5   1  -8  145.89   25.40 
  -5  -1   8  189.58   27.50 
  -5  -1   8  141.29   27.10 
  -5  -1   8  175.18   33.20 
  -5  -1   8  140.49   33.90 
  -5  -1   8  131.29   27.80 
  -5  -1   8  189.98   26.00 
  -5  -1   8  161.78   27.90 
  -5  -1   8  134.19   20.30 
  -5  -1   8  123.89   29.70 
   5   0  -9    0.90    8.10 
   5   0  -9    1.00    5.20 
   5   0  -9    7.20    8.80 
   5   0  -9    1.90    3.80 
   5   0  -9   19.60   14.20 
   5   0  -9   -3.10    3.80 
   5   0  -9   14.50    9.90 
   5   0  -9   -9.30    8.90 
   5   0  -9    2.60    6.50 
  -5   0   9   -6.40   10.30 
  -5   0   9   11.30   12.90 
  -5   0   9   -2.00    4.10 
  -5   0   9   -4.10   12.20 
  -5   0   9    1.70    8.90 
  -5   0   9    0.70   16.10 
  -5   0   9    3.50    3.10 
   5  -1 -10   75.99   12.10 
   5  -1 -10   39.50   11.40 
   5  -1 -10    8.30   14.60 
   5  -1 -10   45.40   14.30 
   5  -1 -10   42.40   14.30 
   5  -1 -10   41.30    8.20 
  -5   1  10   22.10   16.20 
  -5   1  10   85.39   22.20 
  -5   1  10   38.00   16.30 
  -5   1  10   16.40   20.50 
  -5   1  10   14.20   18.40 
  -5   1  10   67.79   16.80 
  -5   1  10   25.00    8.40 
  -5   1  10   37.30    6.40 
  -5   1  10   36.00   17.20 
   5  -2 -11  426.26   66.19 
   5  -2 -11  558.14   60.19 
   5  -2 -11  597.44   68.19 
   5  -2 -11  564.34   63.19 
   5  -2 -11  531.05   65.59 
   5  -2 -11  503.55   59.89 
  -5   2  11  542.85   70.99 
  -5   2  11  539.45   71.29 
  -5   2  11  647.14   78.19 
  -5   2  11  592.54   74.59 
  -5   2  11  418.56   68.29 
  -5   2  11  533.55   70.19 
   5  -3 -12  314.97   40.20 
   5  -3 -12  290.67   41.80 
   5  -3 -12  288.77   35.90 
   5  -3 -12  210.38   41.60 
  -5   3  12  267.67   47.30 
  -5   3  12  256.17   46.30 
  -5   3  12  327.37   48.60 
  -5   3  12  239.98   49.99 
  -5   3  12  338.87   49.20 
   5  -4 -13   39.00   19.40 
   5  -4 -13   86.29   19.90 
  -5   4  13   82.49   31.40 
  -5   4  13   89.89   30.50 
  -5   4  13   64.59   26.10 
  -5   4  13  102.79   32.10 
  -5   4  13   79.19   25.70 
  -5   4  13   49.60   22.70 
   5  -5 -14  -10.20   14.60 
   5  -5 -14   -1.50   16.20 
  -5   5  14   42.90   31.10 
  -5   5  14   35.70   29.70 
  -5   5  14  -11.20   24.30 
   6  10   0   63.69   32.60 
   6  10   0   34.20   26.90 
   6  10   0    8.80   17.40 
  -6 -10   0   44.20   30.60 
  -6 -10   0   41.70   38.20 
  -6 -10   0   27.20   25.80 
   6   9  -1    1.70   29.70 
   6   9  -1    7.00   15.20 
   6   9  -1  -19.50   24.60 
  -6  -9   1   20.30   24.20 
  -6  -9   1   50.69   34.10 
  -6  -9   1   -3.40   37.20 
  -6  -9   1   37.60   32.30 
  -6  -9   1   43.70   42.50 
  -6  -9   1   56.69   24.20 
  -6  -9   1   -7.70   28.50 
   6   8  -2  306.37   46.70 
   6   8  -2  271.17   37.30 
   6   8  -2  300.87   53.59 
   6   8  -2  293.17   55.99 
   6   8  -2  216.28   40.10 
  -6  -8   2  345.77   60.59 
  -6  -8   2  399.06   64.09 
  -6  -8   2  252.87   47.90 
  -6  -8   2  460.45   64.19 
  -6  -8   2  240.78   53.49 
  -6  -8   2  187.88   49.70 
   6   7  -3   69.69   13.60 
   6   7  -3   89.09   31.00 
   6   7  -3   51.49   16.70 
   6   7  -3   91.49   22.20 
   6   7  -3   30.50   18.00 
   6   7  -3   75.59   29.00 
  -6  -7   3   73.19   31.40 
  -6  -7   3  114.49   31.50 
  -6  -7   3   27.00   19.50 
  -6  -7   3   41.30   21.20 
  -6  -7   3   52.99   29.10 
  -6  -7   3   86.79   36.00 
   6   6  -4 3098.39  309.27 
   6   6  -4 2754.02  308.37 
   6   6  -4 2349.46  309.97 
   6   6  -4 2703.43  316.17 
   6   6  -4 2957.80  311.87 
  -6  -6   4 2283.07  313.77 
  -6  -6   4 2631.24  326.07 
  -6  -6   4 2791.62  323.67 
  -6  -6   4 2715.83  316.57 
  -6  -6   4 2569.34  314.07 
  -6  -6   4 3218.68  317.27 
   6   5  -5   15.80   11.70 
   6   5  -5    4.50   11.10 
   6   5  -5   10.00   11.90 
   6   5  -5   34.20   20.80 
   6   5  -5   11.90    6.50 
   6   5  -5    6.90    6.00 
  -6  -5   5   -4.90   14.80 
  -6  -5   5   21.30   13.20 
  -6  -5   5   -4.30   14.10 
  -6  -5   5   23.50   19.60 
  -6  -5   5   14.70   15.20 
  -6  -5   5   44.60   19.40 
  -6  -5   5   13.90   21.80 
   6   4  -6 1320.37  164.18 
   6   4  -6 1479.75  165.68 
   6   4  -6 1410.36  164.08 
   6   4  -6 1451.25  164.28 
   6   4  -6 1551.04  169.08 
   6   4  -6 1357.26  169.98 
   6   4  -6 1372.76  170.48 
   6   4  -6 1441.16  163.28 
  -6  -4   6 1415.16  170.28 
  -6  -4   6 1564.14  177.38 
  -6  -4   6 1533.45  168.68 
  -6  -4   6 1204.38  166.88 
  -6  -4   6 1346.77  167.98 
  -6  -4   6 1579.74  172.38 
  -6  -4   6 1567.94  171.78 
  -6  -4   6 1388.26  180.08 
   6   3  -7    5.60   15.10 
   6   3  -7   47.00   11.40 
   6   3  -7   19.80   17.90 
   6   3  -7   18.50   15.00 
   6   3  -7   28.80    8.10 
   6   3  -7   25.30    9.90 
   6   3  -7   14.90    6.80 
   6   3  -7   16.80   15.20 
  -6  -3   7   28.70   15.30 
  -6  -3   7   12.00   16.40 
  -6  -3   7    1.90   15.50 
  -6  -3   7   11.80   18.10 
  -6  -3   7    4.00   16.00 
  -6  -3   7   18.30   13.70 
  -6  -3   7   16.30   13.10 
  -6  -3   7   16.90   20.30 
   6   2  -8  278.27   33.60 
   6   2  -8  196.88   40.10 
   6   2  -8  274.97   38.60 
   6   2  -8  267.17   31.60 
   6   2  -8  203.78   31.60 
   6   2  -8  250.87   37.50 
   6   2  -8  259.87   37.10 
  -6  -2   8  256.77   37.60 
  -6  -2   8  188.78   40.80 
  -6  -2   8  210.18   38.30 
  -6  -2   8  169.88   45.90 
  -6  -2   8  247.28   37.90 
  -6  -2   8  205.38   37.20 
  -6  -2   8  310.27   40.60 
  -6  -2   8  263.87   47.10 
   6   1  -9  119.19   18.80 
   6   1  -9  154.68   19.10 
   6   1  -9  139.09   19.90 
   6   1  -9  136.49   25.30 
   6   1  -9  109.79   21.70 
   6   1  -9  109.79   23.20 
   6   1  -9  123.59   23.70 
   6   1  -9  139.39   21.30 
  -6  -1   9  135.59   25.80 
  -6  -1   9  108.89   23.70 
  -6  -1   9  121.99   33.50 
  -6  -1   9   92.39   16.60 
  -6  -1   9  126.49   26.10 
  -6  -1   9  139.09   32.20 
  -6  -1   9  173.08   38.60 
   6   0 -10   56.39   10.90 
   6   0 -10   84.79   14.10 
   6   0 -10   31.10   14.30 
   6   0 -10   48.60   12.40 
   6   0 -10   49.70   14.60 
   6   0 -10   29.80   14.70 
  -6   0  10   55.49   19.20 
  -6   0  10   40.00   19.30 
  -6   0  10   53.09   17.10 
  -6   0  10   44.70   24.00 
   6  -1 -11   30.20   11.80 
   6  -1 -11   41.00   10.60 
   6  -1 -11   36.50   14.10 
   6  -1 -11   35.90   15.20 
   6  -1 -11   39.60    7.00 
  -6   1  11   29.40   17.50 
  -6   1  11   24.80   20.80 
  -6   1  11   21.70   15.00 
   6  -2 -12   63.19   13.70 
   6  -2 -12   62.19   15.50 
   6  -2 -12   76.89   19.90 
   6  -2 -12   66.39   19.10 
  -6   2  12   84.09   28.70 
  -6   2  12   58.59   22.20 
  -6   2  12   45.30   22.70 
  -6   2  12   65.49   22.80 
  -6   2  12   47.40   25.60 
  -6   2  12   93.39   25.00 
   6  -3 -13   21.20   14.90 
   6  -3 -13   18.40   13.20 
   6  -3 -13   12.40   19.10 
   6  -3 -13   -5.60    5.60 
  -6   3  13   10.20   23.00 
  -6   3  13   14.10   26.80 
  -6   3  13   41.40   19.20 
  -6   3  13   -5.20   22.50 
  -6   3  13   -6.90   24.60 
   6  -4 -14  206.78   38.40 
  -6   4  14  192.98   49.80 
  -6   4  14  176.78   45.10 
  -6   4  14  276.07   51.39 
  -6   4  14  245.68   47.90 
   7   9  -2  335.07   59.19 
   7   9  -2  278.37   50.09 
   7   9  -2  285.17   42.00 
  -7  -9   2  256.17   69.29 
  -7  -9   2  400.96   63.19 
  -7  -9   2  272.07   69.49 
  -7  -9   2  462.95   78.09 
   7   8  -3  276.77   45.00 
   7   8  -3  225.18   36.60 
   7   8  -3  302.87   53.89 
   7   8  -3  311.67   38.50 
  -7  -8   3  245.38   48.60 
  -7  -8   3  244.98   53.49 
  -7  -8   3  465.55   72.89 
  -7  -8   3  467.55   77.09 
  -7  -8   3  203.98   49.20 
   7   7  -4   82.59   30.00 
   7   7  -4   58.79   21.50 
   7   7  -4   45.90   19.40 
   7   7  -4   88.09   33.90 
   7   7  -4  104.89   19.10 
   7   7  -4  111.59   19.00 
  -7  -7   4  144.69   34.10 
  -7  -7   4  185.08   41.00 
  -7  -7   4   68.69   34.90 
  -7  -7   4   82.39   25.70 
  -7  -7   4   84.29   42.40 
  -7  -7   4   90.39   37.90 
  -7  -7   4  123.89   37.30 
   7   6  -5   17.70   21.60 
   7   6  -5    4.30   19.10 
   7   6  -5    8.80   12.20 
   7   6  -5    0.60    7.20 
   7   6  -5   13.90    7.90 
   7   6  -5    8.20   12.40 
  -7  -6   5   27.90   27.30 
  -7  -6   5   26.30   17.30 
  -7  -6   5    8.80   20.20 
  -7  -6   5  -18.80   19.80 
  -7  -6   5   39.10   22.00 
  -7  -6   5  -13.90   24.60 
  -7  -6   5   24.60   34.80 
   7   5  -6    7.40   11.00 
   7   5  -6   11.30    7.20 
   7   5  -6    4.70   18.40 
   7   5  -6   25.50   11.00 
   7   5  -6    7.90    6.90 
   7   5  -6  -14.00   14.40 
  -7  -5   6   -1.90   19.20 
  -7  -5   6   11.40   15.90 
  -7  -5   6   26.50   30.00 
  -7  -5   6   25.30   24.20 
  -7  -5   6   24.00   22.20 
   7   4  -7  363.16   43.20 
   7   4  -7  348.97   46.40 
   7   4  -7  334.67   43.90 
   7   4  -7  317.37   50.99 
   7   4  -7  318.37   47.40 
   7   4  -7  248.98   50.59 
  -7  -4   7  356.36   49.99 
  -7  -4   7  344.47   63.99 
  -7  -4   7  356.36   57.29 
  -7  -4   7  322.97   52.99 
  -7  -4   7  424.16   58.49 
  -7  -4   7  325.47   67.09 
   7   3  -8  870.21   98.79 
   7   3  -8  795.02   98.09 
   7   3  -8  824.12  102.79 
   7   3  -8  825.52   96.09 
   7   3  -8  801.72  103.79 
   7   3  -8  826.82   97.09 
  -7  -3   8  758.02  104.29 
  -7  -3   8  775.82  108.39 
  -7  -3   8  831.92  102.39 
  -7  -3   8  816.82  116.99 
  -7  -3   8  803.82  112.09 
  -7  -3   8  848.52  102.49 
  -7  -3   8 1055.49  110.09 
   7   2  -9  363.06   46.30 
   7   2  -9  350.76   44.20 
   7   2  -9  364.46   44.90 
   7   2  -9  373.06   46.50 
   7   2  -9  341.67   50.09 
   7   2  -9  392.26   52.79 
  -7  -2   9  452.05   55.69 
  -7  -2   9  387.96   60.99 
  -7  -2   9  434.66   74.09 
  -7  -2   9  381.66   53.99 
  -7  -2   9  307.47   43.30 
  -7  -2   9  392.16   54.19 
  -7  -2   9  288.17   50.09 
   7   1 -10    8.50    6.60 
   7   1 -10    6.90   11.10 
   7   1 -10   -6.10    8.00 
   7   1 -10    7.20    6.60 
  -7  -1  10   18.40   14.90 
  -7  -1  10   -0.30    6.10 
  -7  -1  10    8.00   13.60 
  -7  -1  10   -3.40   20.80 
  -7  -1  10   22.80   25.80 
   7   0 -11    7.90   13.60 
   7   0 -11   -0.30    8.50 
   7   0 -11    1.20    6.40 
   7   0 -11    8.10    6.90 
   7   0 -11    5.40   12.50 
   7   0 -11   -4.00   12.50 
  -7   0  11    4.00    5.70 
  -7   0  11   20.40   24.80 
  -7   0  11    1.70   20.40 
  -7   0  11   -5.40   18.70 
  -7   0  11  -12.70   17.20 
  -7   0  11    8.30   13.50 
   7  -1 -12    8.00   15.40 
   7  -1 -12   26.20   11.00 
   7  -1 -12   14.90    8.10 
   7  -1 -12   16.60   14.00 
  -7   1  12   15.00   23.00 
  -7   1  12   28.80   17.30 
  -7   1  12   -3.10   22.90 
  -7   1  12   28.40   19.90 
  -7   1  12    3.30    5.20 
  -7   1  12  -30.30   22.60 
   7  -2 -13  104.69   21.00 
   7  -2 -13  108.89   25.20 
   7  -2 -13  121.79   20.20 
   7  -2 -13   98.69   24.60 
  -7   2  13   66.09   26.00 
  -7   2  13   79.29   34.00 
  -7   2  13   63.49   33.10 
  -7   2  13  109.09   34.60 
  -7   2  13  126.29   37.30 
   7  -3 -14  135.79   26.40 
   7  -3 -14  115.19   29.30 
   7  -3 -14  153.08   30.20 
  -7   3  14  134.59   43.80 
  -7   3  14   83.79   33.50 
  -7   3  14  176.18   44.10 
  -7   3  14  141.69   39.70 
  -7   3  14  207.78   49.60 
   8   8  -4  271.27   38.10 
   8   8  -4  235.88   51.19 
   8   8  -4  221.68   36.90 
   8   8  -4  295.67   43.90 
  -8  -8   4  219.08   71.09 
  -8  -8   4  399.96   73.29 
  -8  -8   4  457.75   69.29 
  -8  -8   4  230.28   54.59 
  -8  -8   4  232.88   56.19 
   8   7  -5  233.18   46.50 
   8   7  -5  317.57   38.20 
   8   7  -5  149.79   32.10 
   8   7  -5  229.58   35.90 
  -8  -7   5  323.47   52.39 
  -8  -7   5  327.17   72.69 
  -8  -7   5  260.07   50.29 
  -8  -7   5  192.38   39.70 
  -8  -7   5  285.17   62.29 
  -8  -7   5  353.06   58.29 
   8   6  -6   37.60   11.60 
   8   6  -6   50.09   13.50 
   8   6  -6   40.60   24.30 
  -8  -6   6   96.39   36.90 
  -8  -6   6   17.90   24.60 
  -8  -6   6   37.20   19.60 
  -8  -6   6    5.10   27.30 
  -8  -6   6   42.50   34.70 
  -8  -6   6   41.60   43.70 
   8   5  -7  158.18   24.60 
   8   5  -7  138.59   22.30 
   8   5  -7  104.39   33.40 
   8   5  -7  148.99   23.10 
   8   5  -7  180.08   24.50 
  -8  -5   7  137.39   40.80 
  -8  -5   7  179.68   37.70 
  -8  -5   7  129.79   49.70 
  -8  -5   7  128.09   32.90 
  -8  -5   7  237.28   54.89 
   8   4  -8  381.76   46.50 
   8   4  -8  428.56   64.19 
   8   4  -8  322.47   46.20 
   8   4  -8  399.26   49.70 
   8   4  -8  455.95   51.49 
   8   4  -8  339.37   51.69 
  -8  -4   8  366.16   53.69 
  -8  -4   8  344.17   61.59 
  -8  -4   8  443.06   82.59 
  -8  -4   8  554.34   77.19 
  -8  -4   8  554.94   61.29 
  -8  -4   8  499.95   65.79 
   8   3  -9   75.49   17.40 
   8   3  -9   75.79   15.80 
   8   3  -9   21.30   20.00 
   8   3  -9   18.60    7.80 
   8   3  -9   20.30    9.30 
   8   3  -9   19.80    7.40 
  -8  -3   9   82.29   28.00 
  -8  -3   9    4.50   22.10 
  -8  -3   9   27.00   34.70 
  -8  -3   9   20.00   27.50 
  -8  -3   9    4.90   15.60 
   8   2 -10   -4.00    6.40 
   8   2 -10    2.10    7.00 
   8   2 -10   -7.70    6.30 
   8   2 -10   19.80   19.70 
   8   2 -10    2.00   12.30 
   8   2 -10   -5.90    6.60 
  -8  -2  10    5.30   18.70 
  -8  -2  10  -24.30   21.70 
  -8  -2  10    4.50   30.20 
  -8  -2  10  -45.20   31.30 
   8   1 -11  219.58   31.20 
   8   1 -11  259.17   31.40 
   8   1 -11  229.68   32.00 
   8   1 -11  214.88   28.40 
   8   1 -11  243.88   38.20 
   8   1 -11  183.98   28.50 
  -8  -1  11  240.78   55.09 
  -8  -1  11  228.18   38.70 
  -8  -1  11  197.08   37.40 
  -8  -1  11  244.18   50.99 
   8   0 -12   96.99   17.20 
   8   0 -12  114.69   15.10 
   8   0 -12   99.39   19.60 
   8   0 -12   67.59   18.40 
  -8   0  12  115.09   17.40 
  -8   0  12   97.59   24.70 
  -8   0  12  126.09   44.50 
  -8   0  12  126.89   28.30 
   8  -1 -13   23.80   11.70 
   8  -1 -13   41.40   19.70 
  -8   1  13   60.59   38.60 
  -8   1  13   65.49   36.60 
  -8   1  13   37.70   25.90 
  -8   1  13   22.30   23.30 
   9   6  -7   10.90    9.90 
   9   6  -7   -5.00   28.10 
   9   6  -7   16.40   10.30 
  -9  -6   7   -2.50   44.30 
  -9  -6   7   21.10   20.10 
  -9  -6   7   78.99   43.70 
  -9  -6   7   20.60   34.40 
   9   5  -8  141.19   27.40 
   9   5  -8  214.28   29.00 
   9   5  -8  168.78   35.90 
  -9  -5   8   88.29   64.59 
  -9  -5   8  183.38   48.50 
  -9  -5   8  217.68   41.20 
  -9  -5   8  112.09   31.20 
  -9  -5   8  285.37   58.09 
   9   4  -9   29.70   25.30 
   9   4  -9   43.20   13.60 
  -9  -4   9   67.29   21.40 
  -9  -4   9   93.49   47.80 
  -9  -4   9   58.59   29.20 
   9   3 -10  127.49   27.60 
   9   3 -10  138.39   24.90 
   9   3 -10  129.19   33.30 
  -9  -3  10  201.18   64.19 
  -9  -3  10  110.39   27.40 
  -9  -3  10  144.19   42.20 
  -9  -3  10  196.88   36.90 
  -9  -3  10  218.88   62.09 
   9   2 -11   31.00   11.70 
   9   2 -11   43.10   16.70 
   9   2 -11   25.10   18.50 
  -9  -2  11   44.10   26.30 
  -9  -2  11    6.90   19.40 
  -9  -2  11   46.40   34.40 
   9   1 -12  142.69   32.40 
   9   1 -12  189.58   27.70 
  -9  -1  12  139.79   34.00 
  -9  -1  12  241.28   59.09 
  -9  -1  12  246.38   65.19 
 -11   1   6   34.10   27.20 
 -11   1   6   17.10   23.40 
 -11   1   6  -12.30   33.60 
  11  -1  -6   18.20    7.40 
  11  -1  -6   15.80   10.90 
 -11   0   5    9.70   21.30 
 -11   0   5   38.30   40.90 
 -11   0   5   -0.40   22.90 
 -11   0   5   -1.30   21.00 
  11   0  -5    8.30    8.80 
  11   0  -5    2.50    6.50 
 -11  -1   4   31.10   22.80 
 -11  -1   4   20.00   21.80 
 -11  -1   4   45.80   26.60 
 -11  -1   4   -2.60   22.40 
 -11  -1   4   48.60   35.70 
  11   1  -4    7.30    8.50 
  11   1  -4    1.20    8.50 
 -11  -2   3  873.21  100.99 
 -11  -2   3  707.73   99.19 
 -11  -2   3  942.91  110.49 
 -11  -2   3  857.51  100.69 
 -11  -2   3  783.62  102.89 
  11   2  -3  609.24   90.69 
 -11  -3   2  334.57   63.29 
 -11  -3   2  228.38   41.10 
 -11  -3   2  245.88   41.70 
 -11  -3   2  243.08   45.70 
 -11  -3   2  157.38   41.50 
 -11  -3   2  201.88   37.60 
  11   3  -2  150.88   28.50 
  11   3  -2  134.59   28.00 
 -11  -4   1  303.07   54.39 
 -11  -4   1  235.78   29.70 
 -11  -4   1  337.37   57.49 
  11   4  -1  190.88   32.10 
  11   4  -1  221.28   34.50 
  11   4  -1  258.77   34.40 
 -10   4   8  395.96   62.29 
 -10   4   8  403.96   67.29 
 -10   4   8  440.16   65.79 
 -10   4   8  307.27   52.49 
 -10   3   7  -43.70   24.00 
 -10   3   7  -16.90   20.90 
 -10   3   7   13.00   13.10 
 -10   3   7   13.30   22.00 
 -10   3   7   15.80   11.40 
 -10   3   7   66.19   30.90 
 -10   3   7    5.00   14.60 
  10  -3  -7    8.60    7.70 
  10  -3  -7  -10.60   12.00 
 -10   2   6   27.00   10.40 
 -10   2   6   16.10   18.30 
 -10   2   6   26.20   19.70 
 -10   2   6   12.70   11.40 
 -10   2   6   45.00    9.90 
 -10   2   6   30.40   26.90 
  10  -2  -6   19.30   12.70 
  10  -2  -6   29.00   11.00 
 -10   1   5  149.59   28.20 
 -10   1   5  221.18   34.90 
 -10   1   5  172.38   22.40 
 -10   1   5  189.78   45.10 
 -10   1   5  182.68   22.10 
 -10   1   5  224.98   33.00 
  10  -1  -5  171.98   23.10 
  10  -1  -5  160.48   25.70 
  10  -1  -5  164.88   24.50 
 -10   0   4  112.49   23.20 
 -10   0   4  109.59   40.30 
 -10   0   4   87.19   26.20 
 -10   0   4   85.49   25.10 
  10   0  -4   87.19   18.70 
  10   0  -4  120.89   18.40 
 -10  -1   3  357.86   56.79 
 -10  -1   3  256.27   38.40 
 -10  -1   3  217.18   39.40 
 -10  -1   3  186.98   40.30 
 -10  -1   3  176.78   30.90 
  10   1  -3  125.99   26.20 
 -10  -2   2   34.20   32.00 
 -10  -2   2   15.60   15.60 
 -10  -2   2   31.70   22.20 
 -10  -2   2   17.10   21.10 
 -10  -2   2   67.29   19.70 
 -10  -2   2   44.10   20.80 
  10   2  -2    5.60    7.90 
  10   2  -2   13.60    8.10 
  10   2  -2   11.40    5.30 
 -10  -3   1   -4.50   24.80 
 -10  -3   1   12.50   16.70 
 -10  -3   1   -0.10    5.40 
 -10  -3   1  -23.10   33.80 
 -10  -3   1   26.70   21.70 
 -10  -3   1   -0.10   18.40 
 -10  -3   1    3.30    9.00 
 -10  -3   1  -26.90   21.20 
 -10  -3   1    0.40    6.20 
  10   3  -1   -1.20    8.80 
  10   3  -1   10.10    7.10 
  10   3  -1    0.20   10.50 
  10   3  -1    3.70    6.80 
  10   3  -1    6.30    7.30 
 -10  -4   0 1631.44  173.78 
 -10  -4   0 1511.25  160.38 
 -10  -4   0 1440.86  159.68 
  10   4   0 1427.06  162.38 
  10   4   0 1213.98  160.38 
  10   4   0 1313.57  161.08 
 -10  -5  -1  285.87   40.10 
 -10  -5  -1  347.17   56.49 
 -10  -5  -1  345.47   43.70 
  10   5   1  262.17   37.90 
  10   5   1  304.37   40.50 
 -10  -6  -2  218.68   40.10 
 -10  -6  -2  182.58   31.80 
 -10  -6  -2  254.17   48.30 
 -10  -6  -2  417.36   63.79 
  10   6   2  160.08   26.80 
  10   6   2  117.29   33.60 
  10   6   2  229.08   30.20 
  -9   5   8  128.99   35.30 
  -9   5   8  169.58   38.90 
  -9   5   8  170.98   29.60 
  -9   5   8  172.18   32.20 
   9  -5  -8  158.68   29.50 
  -9   4   7    3.30   21.20 
  -9   4   7    7.70   22.30 
  -9   4   7   -2.70   14.40 
  -9   4   7    3.50   24.10 
  -9   4   7  -13.80   10.80 
  -9   4   7   30.70   19.50 
   9  -4  -7   19.30   13.00 
   9  -4  -7   14.90   20.70 
  -9   3   6  499.25   60.29 
  -9   3   6  464.25   70.09 
  -9   3   6  515.65   58.59 
  -9   3   6  521.25   59.59 
  -9   3   6  541.35   66.19 
  -9   3   6  449.36   58.99 
  -9   3   6  420.16   63.99 
  -9   3   6  438.76   69.39 
   9  -3  -6  477.75   59.19 
   9  -3  -6  395.16   65.29 
  -9   2   5   18.60    7.80 
  -9   2   5    7.20    8.40 
  -9   2   5  -14.40   13.70 
  -9   2   5   16.30   24.60 
  -9   2   5   12.50    7.80 
  -9   2   5   12.00   12.30 
  -9   2   5    9.70   14.60 
  -9   2   5    8.60    9.20 
   9  -2  -5   -0.70    6.90 
   9  -2  -5   16.80    8.40 
   9  -2  -5    8.90   17.20 
  -9   1   4  655.93   74.19 
  -9   1   4  653.33   78.29 
  -9   1   4  720.73   72.89 
  -9   1   4  583.84   73.59 
  -9   1   4  568.44   79.19 
  -9   1   4  536.55   88.79 
  -9   1   4  748.13   72.89 
   9  -1  -4  689.13   80.29 
   9  -1  -4  584.64   73.69 
   9  -1  -4  611.64   74.69 
  -9   0   3  -22.70   14.50 
  -9   0   3   15.10   23.10 
  -9   0   3   -1.00   12.40 
  -9   0   3    7.60   11.00 
   9   0  -3    1.30    3.40 
   9   0  -3    9.20    7.00 
   9   0  -3   -2.00    3.80 
  -9  -1   2  447.26   52.99 
  -9  -1   2  362.06   51.89 
  -9  -1   2  422.46   46.30 
   9   1  -2  304.67   39.00 
   9   1  -2  320.97   43.30 
   9   1  -2  359.46   43.80 
  -9  -2   1    6.50   15.70 
  -9  -2   1    1.90    3.10 
  -9  -2   1   11.70   14.10 
  -9  -2   1    6.00    3.50 
  -9  -2   1    9.90   22.40 
  -9  -2   1   12.80   13.20 
  -9  -2   1    3.60    5.40 
  -9  -2   1  -16.10   14.40 
   9   2  -1    4.60    5.60 
   9   2  -1    2.90    3.80 
   9   2  -1    8.30   12.20 
   9   2  -1    1.00    5.70 
   9   2  -1   -3.50    4.90 
   9   2  -1   16.50    7.80 
  -9  -3   0  429.66   47.50 
  -9  -3   0  381.96   48.30 
  -9  -3   0  377.56   56.79 
  -9  -3   0  476.25   54.59 
  -9  -3   0  406.76   47.30 
   9   3   0  367.96   48.30 
   9   3   0  357.26   47.80 
   9   3   0  373.86   47.70 
   9   3   0  400.66   51.39 
   9   3   0  385.96   48.70 
   9   3   0  356.96   53.29 
  -9  -4  -1   12.40   12.30 
  -9  -4  -1    0.80   23.60 
  -9  -4  -1   24.40   30.40 
  -9  -4  -1   -0.60   10.30 
  -9  -4  -1  -14.80   17.00 
  -9  -4  -1    2.00   16.60 
  -9  -4  -1   -5.30    8.70 
  -9  -4  -1   10.60   12.30 
  -9  -4  -1   20.00   12.80 
   9   4   1    3.70   10.90 
   9   4   1   15.50   13.40 
   9   4   1    7.20    5.70 
   9   4   1    1.30    6.40 
  -9  -5  -2  417.86   57.69 
  -9  -5  -2  314.97   48.30 
  -9  -5  -2  259.27   38.00 
  -9  -5  -2  239.88   35.60 
  -9  -5  -2  331.87   59.09 
  -9  -5  -2  160.38   44.80 
   9   5   2  211.18   31.50 
   9   5   2  186.38   35.80 
   9   5   2  249.08   32.90 
  -9  -6  -3  113.79   36.20 
  -9  -6  -3   55.79   26.80 
  -9  -6  -3   37.00   25.20 
  -9  -6  -3   68.39   22.00 
   9   6   3   95.49   22.50 
   9   6   3   38.80   20.90 
   9   6   3   44.20   11.90 
   9   6   3   40.00   11.60 
  -9  -7  -4  358.46   54.89 
  -9  -7  -4  548.15   68.49 
  -9  -7  -4  494.45   70.89 
  -9  -7  -4  265.87   59.89 
   9   7   4  346.97   47.90 
   9   7   4  342.37   56.09 
  -8   6   8   64.59   23.00 
  -8   6   8  112.79   27.30 
  -8   6   8   93.09   27.90 
  -8   6   8   53.59   28.30 
  -8   6   8   41.20   27.40 
  -8   6   8   93.89   22.00 
   8  -6  -8  111.79   23.80 
   8  -6  -8   54.99   24.70 
  -8   5   7  125.49   28.80 
  -8   5   7  145.59   32.80 
  -8   5   7  126.69   24.60 
  -8   5   7  131.79   35.30 
  -8   5   7  140.29   27.40 
  -8   5   7  165.68   28.40 
   8  -5  -7  142.59   25.60 
   8  -5  -7  124.79   29.10 
  -8   4   6   40.10   21.40 
  -8   4   6   28.70   16.60 
  -8   4   6   36.60   14.30 
  -8   4   6   71.29   20.40 
  -8   4   6   35.10   14.20 
  -8   4   6   31.50   13.90 
  -8   4   6   24.70   20.90 
  -8   4   6   36.50   12.50 
   8  -4  -6   23.40   17.00 
   8  -4  -6   29.50   12.90 
  -8   3   5   -1.60    9.20 
  -8   3   5    8.70   14.70 
  -8   3   5   -5.10   13.10 
  -8   3   5  -12.90    9.80 
  -8   3   5    9.30    8.00 
  -8   3   5    2.80   12.40 
  -8   3   5   -2.40    9.10 
   8  -3  -5   -6.30    4.60 
   8  -3  -5   12.80    8.80 
   8  -3  -5  -17.40   14.50 
  -8   2   4 1138.59  123.19 
  -8   2   4 1070.39  119.99 
  -8   2   4 1046.30  130.39 
  -8   2   4 1269.27  120.29 
  -8   2   4 1095.89  120.59 
  -8   2   4 1035.90  119.89 
  -8   2   4  865.51  120.39 
   8  -2  -4  911.21  119.39 
   8  -2  -4 1075.49  121.79 
   8  -2  -4 1003.80  125.79 
   8  -2  -4 1079.59  119.79 
  -8   1   3 1706.33  165.28 
  -8   1   3 1458.65  167.18 
  -8   1   3 1525.55  163.98 
  -8   1   3 1188.98  173.68 
  -8   1   3 1224.98  164.18 
  -8   1   3 1511.75  162.48 
  -8   1   3 1254.47  165.78 
   8  -1  -3 1386.16  164.88 
   8  -1  -3 1677.53  165.98 
   8  -1  -3 1450.65  162.08 
   8  -1  -3 1453.35  162.68 
  -8   0   2  488.05   62.09 
  -8   0   2  434.46   61.19 
  -8   0   2  564.74   75.49 
  -8   0   2  453.55   63.99 
   8   0  -2  540.15   60.99 
   8   0  -2  577.74   61.19 
  -8  -1   1  594.54   64.09 
  -8  -1   1  463.45   67.59 
   8   1  -1  553.84   63.89 
   8   1  -1  494.35   62.89 
   8   1  -1  633.14   73.09 
   8   1  -1  499.85   59.89 
  -8  -2   0  979.50  108.89 
  -8  -2   0 1000.90  108.39 
  -8  -2   0 1105.69  108.59 
  -8  -2   0  923.41  115.99 
   8   2   0  913.51  108.69 
   8   2   0  920.71  110.29 
   8   2   0  935.61  109.19 
   8   2   0  914.11  110.99 
   8   2   0  876.21  112.99 
  -8  -3  -1   11.60    7.60 
  -8  -3  -1   17.10   13.60 
  -8  -3  -1  -15.40   18.00 
  -8  -3  -1   -3.10    8.60 
  -8  -3  -1   43.90   22.00 
  -8  -3  -1    7.80   11.90 
  -8  -3  -1    8.90    9.70 
  -8  -3  -1  -12.90   11.60 
  -8  -3  -1    6.90    7.30 
   8   3   1    6.70    7.70 
   8   3   1   -1.90    8.70 
   8   3   1    6.00    4.50 
   8   3   1    9.00   12.70 
   8   3   1    8.00    5.80 
   8   3   1   17.50   10.10 
   8   3   1    3.40    9.90 
  -8  -4  -2   -3.60   17.20 
  -8  -4  -2  -19.30   26.50 
  -8  -4  -2   -6.90   13.10 
  -8  -4  -2   12.20    9.10 
  -8  -4  -2   18.00   10.50 
  -8  -4  -2   15.90   11.60 
   8   4   2   16.20   12.00 
   8   4   2   -8.40    4.10 
   8   4   2    3.30   10.50 
   8   4   2    0.10   11.50 
   8   4   2   -5.90    6.20 
   8   4   2    4.70    5.00 
  -8  -5  -3 1423.96  146.89 
  -8  -5  -3 1019.60  149.29 
   8   5   3 1217.08  142.29 
   8   5   3 1286.27  143.79 
   8   5   3 1270.47  146.79 
  -8  -6  -4   35.30   17.30 
  -8  -6  -4   54.39   23.80 
  -8  -6  -4   37.20   25.90 
  -8  -6  -4   47.60   21.90 
   8   6   4   51.99   16.10 
   8   6   4   45.90   19.20 
   8   6   4   42.20   11.50 
   8   6   4   53.89   11.50 
  -8  -7  -5  307.67   45.00 
  -8  -7  -5  196.98   49.99 
  -8  -7  -5  266.67   50.49 
  -8  -7  -5  229.18   41.30 
   8   7   5  237.38   33.20 
   8   7   5  218.78   31.10 
   8   7   5  214.48   41.10 
   8   7   5  261.17   37.90 
  -8  -8  -6  -13.30   24.10 
  -8  -8  -6   -1.60   18.00 
  -8  -8  -6    2.40   26.30 
  -8  -8  -6   -8.00   24.40 
   8   8   6   19.80   10.20 
   8   8   6    4.50    9.50 
   8   8   6   -9.30   23.00 
   8   8   6   12.30   13.80 
   8   8   6   -7.20    7.30 
  -7   7   8   -2.90   14.80 
  -7   7   8    9.90   21.70 
  -7   7   8   30.00   18.50 
  -7   7   8    5.50   23.00 
  -7   7   8   43.90   24.70 
   7  -7  -8   41.40   23.20 
   7  -7  -8   30.70   16.20 
   7  -7  -8   -3.30    9.90 
   7  -7  -8    1.10    9.60 
  -7   6   7  -10.20   17.40 
  -7   6   7  -17.50   16.10 
  -7   6   7    6.90   16.00 
  -7   6   7    5.90   16.60 
  -7   6   7   -0.40   12.70 
  -7   6   7    9.70   17.60 
  -7   6   7   15.30   17.20 
   7  -6  -7    5.00   18.00 
   7  -6  -7    2.20   14.20 
  -7   5   6   21.10   17.60 
  -7   5   6   -1.70   12.40 
  -7   5   6  -16.10   12.00 
  -7   5   6   15.00   13.30 
  -7   5   6    0.60   11.30 
  -7   5   6   -6.90   12.10 
  -7   5   6  -18.60   20.70 
   7  -5  -6  -17.70   10.50 
   7  -5  -6   16.10    5.40 
   7  -5  -6   11.20   13.90 
  -7   4   5  334.07   42.40 
  -7   4   5  265.67   38.50 
  -7   4   5  329.47   39.10 
  -7   4   5  342.57   39.90 
  -7   4   5  250.57   44.10 
  -7   4   5  238.48   41.20 
   7  -4  -5  283.67   37.50 
   7  -4  -5  305.77   41.40 
   7  -4  -5  299.17   38.50 
   7  -4  -5  265.87   34.80 
  -7   3   4  590.14   75.29 
  -7   3   4  698.13   72.89 
  -7   3   4  654.73   72.59 
  -7   3   4  691.13   76.29 
  -7   3   4  497.15   76.19 
  -7   3   4  717.03   82.19 
  -7   3   4  565.14   76.89 
  -7   3   4  727.03   74.69 
  -7   3   4  577.84   72.69 
   7  -3  -4  572.54   70.99 
   7  -3  -4  628.24   76.19 
   7  -3  -4  542.65   71.09 
  -7   2   3  709.23   87.59 
  -7   2   3  704.73   83.59 
  -7   2   3  791.72   83.59 
  -7   2   3  838.82   92.99 
  -7   2   3  733.93   85.59 
  -7   2   3  662.73   85.39 
  -7   2   3  779.32   84.99 
  -7   2   3  716.73   83.89 
   7  -2  -3  753.82   83.59 
   7  -2  -3  726.93   88.69 
   7  -2  -3  653.73   83.09 
   7  -2  -3  728.53   85.19 
  -7   1   2   30.60   18.40 
  -7   1   2   21.80    9.10 
  -7   1   2   15.00    7.60 
  -7   1   2   12.10    5.70 
  -7   1   2   19.60    4.10 
  -7   1   2   20.30    6.70 
  -7   1   2   17.80    9.30 
   7  -1  -2   22.40    4.50 
   7  -1  -2   20.70    6.90 
   7  -1  -2   17.10    5.60 
  -7   0   1   -3.00    4.00 
  -7   0   1   -1.50   16.20 
  -7   0   1    5.60    6.40 
  -7   0   1    4.60    5.40 
  -7   0   1   -0.30    3.80 
  -7   0   1    3.50    7.40 
  -7   0   1    2.80    4.10 
   7   0  -1   -0.70    3.70 
   7   0  -1    0.50    3.20 
   7   0  -1   -3.80    5.90 
  -7  -1   0   70.79   13.00 
  -7  -1   0   57.69   12.70 
  -7  -1   0  109.69   26.10 
  -7  -1   0   76.29   13.10 
  -7  -1   0  108.19   19.30 
  -7  -1   0   72.29   19.20 
  -7  -1   0   77.39   18.30 
  -7  -1   0   89.99   14.40 
  -7  -1   0   57.89   12.90 
   7   1   0  116.39   22.70 
   7   1   0   70.89    9.60 
   7   1   0   56.09    9.90 
   7   1   0   81.49   12.10 
  -7  -2  -1  631.84   90.79 
  -7  -2  -1  684.33   86.09 
  -7  -2  -1  793.62   86.49 
  -7  -2  -1  844.02   86.09 
  -7  -2  -1  924.21   90.99 
  -7  -2  -1  772.12   88.09 
  -7  -2  -1  809.62   88.89 
   7   2   1  662.03   85.69 
   7   2   1  672.33   86.59 
   7   2   1  793.52   87.79 
   7   2   1  752.02   86.79 
   7   2   1  719.53   89.99 
   7   2   1  736.13   86.89 
  -7  -3  -2  633.74   67.29 
  -7  -3  -2  505.45   55.09 
  -7  -3  -2  414.16   58.99 
  -7  -3  -2  444.46   54.69 
   7   3   2  471.95   55.89 
   7   3   2  368.86   53.59 
   7   3   2  513.35   54.29 
   7   3   2  359.36   59.29 
   7   3   2  385.96   57.19 
  -7  -4  -3  324.37   53.69 
  -7  -4  -3  437.56   53.69 
  -7  -4  -3  365.46   55.59 
  -7  -4  -3  426.06   59.29 
  -7  -4  -3  420.36   51.29 
  -7  -4  -3  447.86   51.79 
   7   4   3  419.76   47.90 
   7   4   3  410.86   52.19 
   7   4   3  345.27   52.09 
   7   4   3  359.66   54.09 
   7   4   3  399.46   48.80 
  -7  -5  -4   11.30   13.80 
  -7  -5  -4   15.70   13.30 
  -7  -5  -4   18.10   14.20 
  -7  -5  -4   41.20   17.70 
  -7  -5  -4   41.70   29.80 
   7   5   4   14.80    8.90 
   7   5   4   14.00    6.50 
   7   5   4   27.60    7.90 
   7   5   4    5.90   13.90 
   7   5   4   34.00   13.70 
  -7  -6  -5   -3.30   11.90 
  -7  -6  -5   21.40   20.20 
  -7  -6  -5   16.30   18.40 
  -7  -6  -5    1.30   16.20 
  -7  -6  -5   -8.50   13.00 
   7   6   5    0.30    8.90 
   7   6   5   -0.80    7.90 
   7   6   5   17.80    8.30 
   7   6   5   11.30   14.00 
   7   6   5    8.20   12.60 
   7   6   5   15.30    6.30 
   7   6   5   13.20    7.00 
  -7  -7  -6  153.18   38.50 
  -7  -7  -6  243.48   41.30 
  -7  -7  -6  195.28   40.80 
  -7  -7  -6  312.47   45.00 
   7   7   6  183.98   35.50 
   7   7   6  236.18   33.10 
   7   7   6  182.38   33.00 
   7   7   6  190.48   37.50 
   7   7   6  229.78   28.50 
   7   7   6  248.28   36.20 
  -7  -8  -7  252.47   46.70 
  -7  -8  -7  264.47   47.10 
  -7  -8  -7  178.58   41.70 
  -7  -8  -7  255.37   53.59 
   7   8   7  172.08   35.20 
   7   8   7  213.58   28.60 
   7   8   7  190.28   38.00 
   7   8   7  179.28   37.20 
   7   8   7  211.18   33.00 
   7   8   7  268.77   34.70 
  -6   8   8  105.09   31.30 
  -6   8   8   63.39   24.20 
  -6   8   8   77.69   33.20 
  -6   8   8   77.89   26.20 
  -6   8   8   70.39   32.50 
   6  -8  -8   68.09   23.70 
   6  -8  -8   72.29   23.70 
   6  -8  -8   86.49   21.50 
   6  -8  -8   60.49   22.60 
  -6   7   7    9.30   16.60 
  -6   7   7   14.30   21.00 
  -6   7   7   18.00   19.70 
  -6   7   7  -24.30   17.20 
  -6   7   7   51.99   24.10 
   6  -7  -7    2.00   11.60 
   6  -7  -7   -3.30   13.00 
   6  -7  -7    8.90    4.60 
   6  -7  -7   35.60   16.00 
   6  -7  -7    5.40   15.60 
  -6   6   6  578.54   73.09 
  -6   6   6  417.36   62.19 
  -6   6   6  540.35   69.19 
  -6   6   6  437.46   60.99 
  -6   6   6  498.55   75.89 
  -6   6   6  443.86   64.19 
  -6   6   6  555.54   64.19 
  -6   6   6  526.75   66.79 
   6  -6  -6  580.34   57.79 
   6  -6  -6  398.86   62.09 
   6  -6  -6  518.65   59.69 
   6  -6  -6  463.75   59.99 
   6  -6  -6  523.45   63.79 
  -6   5   5   24.40   10.90 
  -6   5   5   28.70   12.60 
  -6   5   5    3.50    9.40 
  -6   5   5    8.80   11.70 
  -6   5   5   -0.50   19.80 
  -6   5   5   16.80    7.90 
  -6   5   5   10.90   11.20 
  -6   5   5   -3.90   10.80 
   6  -5  -5   10.80   11.20 
   6  -5  -5   13.70   11.70 
   6  -5  -5   10.90    4.20 
   6  -5  -5   10.40    5.20 
   6  -5  -5   26.50   10.90 
   6  -5  -5   15.50    4.80 
  -6   4   4  369.76   47.50 
  -6   4   4  401.36   49.80 
  -6   4   4  337.67   53.19 
  -6   4   4  371.46   47.60 
  -6   4   4  296.27   50.29 
  -6   4   4  399.66   47.10 
  -6   4   4  327.77   46.40 
  -6   4   4  367.66   46.60 
   6  -4  -4  421.06   44.10 
   6  -4  -4  420.26   49.10 
   6  -4  -4  354.96   45.80 
   6  -4  -4  357.66   46.70 
  -6   3   3   32.00   11.70 
  -6   3   3   32.70    6.50 
  -6   3   3   35.20   11.80 
  -6   3   3   37.10    9.60 
  -6   3   3   45.00    7.60 
  -6   3   3   29.90    8.70 
  -6   3   3   33.20    9.70 
  -6   3   3   26.40    9.10 
  -6   3   3   27.70   10.50 
  -6   3   3   20.20   12.30 
  -6   3   3   35.50   10.00 
  -6   3   3   34.00    9.10 
  -6   3   3   36.60    8.60 
   6  -3  -3   38.30    7.30 
   6  -3  -3   32.60    8.10 
   6  -3  -3   27.30    8.70 
  -6   2   2  912.81  111.69 
  -6   2   2  918.61  112.19 
  -6   2   2 1088.19  117.79 
  -6   2   2 1067.09  112.09 
  -6   2   2  942.41  110.59 
  -6   2   2  914.01  110.69 
  -6   2   2 1000.40  112.49 
  -6   2   2  979.00  117.79 
  -6   2   2  879.31  113.79 
  -6   2   2  925.21  111.99 
  -6   2   2 1062.69  110.89 
   6  -2  -2 1154.18  113.29 
   6  -2  -2  986.90  110.79 
   6  -2  -2 1043.00  112.49 
   6  -2  -2  885.21  110.09 
  -6   1   1   41.90   10.70 
  -6   1   1   -6.20   15.00 
  -6   1   1   14.90    9.70 
  -6   1   1   12.20    7.30 
  -6   1   1   12.60    4.80 
  -6   1   1   13.90    4.60 
  -6   1   1   33.40    7.20 
  -6   1   1   10.00    5.00 
   6  -1  -1   16.00    2.80 
   6  -1  -1   21.30    5.70 
   6  -1  -1   17.60    5.10 
   6  -1  -1   25.00    3.50 
   6  -1  -1    5.40    4.70 
  -6   0   0 8071.19  975.60 
  -6   0   0 8105.89  971.30 
  -6   0   0 9999.00  976.20 
  -6   0   0 8277.17  971.50 
  -6   0   0 9359.06  971.70 
  -6   0   0 9212.78  973.90 
   6   0   0 9138.19  971.80 
   6   0   0 7824.72  976.60 
   6   0   0 8633.04  971.60 
  -6  -1  -1   22.80    4.40 
  -6  -1  -1   17.90    4.80 
  -6  -1  -1    5.70    4.80 
  -6  -1  -1   16.40    4.00 
  -6  -1  -1   18.80    6.10 
  -6  -1  -1    8.20    7.80 
  -6  -1  -1   33.80    7.90 
  -6  -1  -1   24.80    9.50 
  -6  -1  -1   20.60   12.60 
  -6  -1  -1   20.80    3.60 
  -6  -1  -1   17.40    5.80 
   6   1   1   14.90    4.00 
   6   1   1   23.50    5.30 
   6   1   1   32.10   11.50 
   6   1   1   10.60    4.60 
   6   1   1   19.40    4.90 
  -6  -2  -2  984.00  125.59 
  -6  -2  -2 1069.59  121.39 
  -6  -2  -2 1145.99  129.69 
  -6  -2  -2 1192.18  121.89 
  -6  -2  -2  965.60  122.19 
  -6  -2  -2 1009.30  123.09 
  -6  -2  -2 1227.98  131.29 
  -6  -2  -2  939.01  122.09 
  -6  -2  -2 1132.49  122.49 
   6   2   2 1192.68  122.49 
   6   2   2 1009.70  121.49 
   6   2   2 1118.69  122.29 
   6   2   2 1003.60  124.79 
  -6  -3  -3   36.90   16.70 
  -6  -3  -3   24.80   10.20 
  -6  -3  -3   22.20   10.20 
  -6  -3  -3   32.00    8.90 
  -6  -3  -3   42.30   11.40 
  -6  -3  -3   50.79   11.80 
  -6  -3  -3   30.30   10.20 
  -6  -3  -3   39.50   18.90 
   6   3   3   47.90   12.50 
   6   3   3   45.90   11.40 
   6   3   3   56.49   13.70 
   6   3   3   46.40    8.90 
   6   3   3   44.50    9.00 
   6   3   3   29.80   10.00 
  -6  -4  -4  450.95   55.09 
  -6  -4  -4  474.55   65.09 
  -6  -4  -4  467.45   54.29 
  -6  -4  -4  442.16   54.79 
  -6  -4  -4  329.57   53.99 
  -6  -4  -4  350.36   52.99 
   6   4   4  467.65   48.40 
   6   4   4  364.46   52.99 
   6   4   4  380.26   52.49 
   6   4   4  402.76   47.90 
   6   4   4  419.16   55.49 
   6   4   4  374.56   53.59 
   6   4   4  465.65   54.59 
   6   4   4  471.35   51.09 
  -6  -5  -5   11.70   11.80 
  -6  -5  -5   -4.10    9.50 
  -6  -5  -5    8.30   10.90 
  -6  -5  -5   34.40   24.80 
  -6  -5  -5  -12.40   13.30 
   6   5   5    8.90    7.70 
   6   5   5   -6.00   11.70 
   6   5   5   16.90    5.50 
   6   5   5   -6.50    9.60 
   6   5   5    9.70   13.00 
   6   5   5   10.70    7.40 
   6   5   5   19.60    6.10 
   6   5   5  -18.30    8.90 
  -6  -6  -6  590.94   77.29 
  -6  -6  -6  665.63   76.49 
  -6  -6  -6  555.74   74.29 
  -6  -6  -6  486.85   73.89 
   6   6   6  563.84   70.59 
   6   6   6  584.14   72.49 
   6   6   6  656.63   75.69 
   6   6   6  469.05   72.19 
   6   6   6  621.34   72.59 
   6   6   6  597.44   67.39 
  -6  -7  -7   -1.40   15.10 
  -6  -7  -7   11.00   23.00 
  -6  -7  -7   32.80   17.10 
  -6  -7  -7   -3.90   16.50 
  -6  -7  -7  -26.30   20.50 
   6   7   7   -3.10   15.70 
   6   7   7   -1.90   16.30 
   6   7   7  -13.10   13.80 
   6   7   7   -2.20    4.90 
  -6  -8  -8   84.59   26.10 
  -6  -8  -8   46.20   24.20 
  -6  -8  -8  120.09   31.70 
  -6  -8  -8   41.30   33.70 
   6   8   8   36.50   26.00 
   6   8   8   79.29   18.20 
   6   8   8   81.49   24.70 
   6   8   8   76.69   13.50 
  -5   9   8  207.48   45.80 
  -5   9   8  146.39   36.20 
  -5   9   8  110.59   39.50 
   5  -9  -8  169.78   33.90 
   5  -9  -8  141.69   18.30 
  -5   8   7   97.49   32.60 
  -5   8   7   45.80   32.20 
  -5   8   7  123.49   29.00 
  -5   8   7   55.49   22.10 
   5  -8  -7  190.08   28.30 
   5  -8  -7   68.19   34.10 
   5  -8  -7   92.09   27.90 
   5  -8  -7  122.79   15.30 
   5  -8  -7  150.78   25.10 
   5  -8  -7   94.79   25.40 
  -5   7   6  -15.40   11.00 
  -5   7   6   -7.60   15.00 
  -5   7   6   10.00   13.30 
  -5   7   6    2.70    8.90 
  -5   7   6   -3.20   17.80 
  -5   7   6    2.30   20.30 
   5  -7  -6   17.00   14.20 
   5  -7  -6   -5.50   14.50 
   5  -7  -6   10.90   17.00 
   5  -7  -6   14.60    4.70 
   5  -7  -6   -8.80   10.70 
  -5   6   5    4.60    7.10 
  -5   6   5    4.50    6.40 
  -5   6   5   24.80   15.50 
  -5   6   5   13.90   25.50 
  -5   6   5   22.70   10.70 
  -5   6   5   26.10   13.30 
  -5   6   5    9.70   13.50 
   5  -6  -5    9.50    3.70 
   5  -6  -5    5.00    9.60 
   5  -6  -5   23.90   13.30 
   5  -6  -5   32.70   13.20 
   5  -6  -5   14.40   14.90 
   5  -6  -5    6.90    9.90 
   5  -6  -5   12.30    9.80 
  -5   5   4  100.79   25.80 
  -5   5   4  106.29   21.60 
  -5   5   4  102.79   17.50 
  -5   5   4   94.49   20.90 
  -5   5   4  121.69   19.30 
  -5   5   4  103.89   20.60 
  -5   5   4   79.19   21.10 
  -5   5   4   99.99   25.40 
  -5   5   4  116.59   16.60 
   5  -5  -4  118.69   14.80 
   5  -5  -4  149.09   21.00 
   5  -5  -4  113.39   18.70 
   5  -5  -4  110.69   17.20 
   5  -5  -4  102.79   20.20 
   5  -5  -4  146.09   23.20 
   5  -5  -4  121.39   19.50 
  -5   4   3 1351.56  179.48 
  -5   4   3 1411.66  176.48 
  -5   4   3 1510.65  178.58 
  -5   4   3 1497.25  182.68 
  -5   4   3 1473.45  176.68 
  -5   4   3 1672.43  176.28 
  -5   4   3 1690.53  177.28 
  -5   4   3 1598.04  175.68 
  -5   4   3 1598.54  174.68 
  -5   4   3 1338.67  175.68 
   5  -4  -3 1585.94  177.08 
   5  -4  -3 1456.45  176.28 
   5  -4  -3 1661.43  174.18 
   5  -4  -3 1724.33  179.08 
   5  -4  -3 1565.74  172.88 
   5  -4  -3 1725.63  173.18 
   5  -4  -3 1433.66  176.28 
  -5   3   2  578.24   58.99 
  -5   3   2  484.55   58.59 
  -5   3   2  519.75   58.59 
  -5   3   2  483.15   56.89 
  -5   3   2  481.75   56.89 
  -5   3   2  492.35   58.19 
  -5   3   2  444.16   59.69 
  -5   3   2  439.26   57.39 
  -5   3   2  509.45   63.59 
  -5   3   2  484.55   57.39 
   5  -3  -2  480.85   57.59 
   5  -3  -2  467.35   56.69 
   5  -3  -2  455.35   58.19 
  -5   2   1  562.14   63.59 
  -5   2   1  562.14   62.19 
  -5   2   1  596.84   62.29 
  -5   2   1  473.25   64.59 
  -5   2   1  588.94   62.69 
  -5   2   1  616.04   67.59 
  -5   2   1  528.85   62.79 
  -5   2   1  474.55   62.69 
  -5   2   1  608.44   69.49 
  -5   2   1  483.95   63.29 
  -5   2   1  507.45   62.59 
  -5   2   1  496.65   63.89 
  -5   2   1  527.35   63.29 
   5  -2  -1  525.15   65.29 
   5  -2  -1  647.54   63.19 
   5  -2  -1  564.04   62.79 
  -5   1   0  386.46   47.80 
  -5   1   0  370.46   45.00 
  -5   1   0  346.87   44.70 
  -5   1   0  438.36   50.19 
  -5   1   0  358.76   44.80 
  -5   1   0  418.06   46.40 
  -5   1   0  296.07   49.00 
   5  -1   0  415.26   45.30 
   5  -1   0  385.66   44.80 
   5  -1   0  322.07   48.20 
   5  -1   0  436.66   45.10 
  -5   0  -1   -1.20    5.10 
  -5   0  -1    3.50    3.10 
  -5   0  -1   -0.30    7.80 
  -5   0  -1    3.30    5.70 
  -5   0  -1   -2.20    2.20 
  -5   0  -1    2.80    2.40 
  -5   0  -1    6.30    7.40 
   5   0   1    6.20    3.00 
   5   0   1    0.70    2.30 
   5   0   1    5.10    5.20 
   5   0   1   -0.20    2.50 
  -5  -1  -2   80.09   15.80 
  -5  -1  -2   96.19   15.50 
  -5  -1  -2   51.19   10.00 
  -5  -1  -2   65.39   11.10 
  -5  -1  -2  100.29   14.50 
  -5  -1  -2   59.49    9.30 
  -5  -1  -2   69.39    9.20 
  -5  -1  -2   68.19   17.20 
  -5  -1  -2   67.89    9.90 
  -5  -1  -2   60.09   10.90 
   5   1   2   56.79    9.70 
   5   1   2   71.49   10.40 
   5   1   2   55.79    9.30 
   5   1   2   78.59   11.30 
   5   1   2   69.99   10.00 
   5   1   2   54.89   10.30 
   5   1   2   57.69   13.00 
  -5  -2  -3 4067.19  458.05 
  -5  -2  -3 3974.60  457.25 
  -5  -2  -3 4461.15  461.55 
  -5  -2  -3 4590.04  457.45 
  -5  -2  -3 3940.71  460.25 
  -5  -2  -3 3718.03  456.95 
  -5  -2  -3 3808.42  455.85 
  -5  -2  -3 4149.58  457.35 
   5   2   3 4276.97  458.15 
   5   2   3 4320.57  456.85 
   5   2   3 4152.08  456.15 
   5   2   3 4180.18  460.25 
   5   2   3 3613.44  457.45 
   5   2   3 3879.91  456.85 
   5   2   3 4345.67  460.55 
  -5  -3  -4 1773.02  212.58 
  -5  -3  -4 1750.02  207.88 
  -5  -3  -4 1678.63  209.58 
  -5  -3  -4 2093.09  208.18 
  -5  -3  -4 1881.71  208.68 
   5   3   4 1775.92  209.18 
   5   3   4 1973.20  206.08 
   5   3   4 1793.32  209.78 
   5   3   4 1936.91  204.98 
   5   3   4 1684.43  207.58 
   5   3   4 1768.02  207.38 
   5   3   4 1814.32  205.08 
   5   3   4 1810.12  204.58 
   5   3   4 1829.52  209.78 
  -5  -4  -5  510.65   77.09 
  -5  -4  -5  722.53   78.59 
  -5  -4  -5  706.83   78.69 
  -5  -4  -5  642.74   78.09 
  -5  -4  -5  562.44   74.39 
  -5  -4  -5  649.43   84.59 
  -5  -4  -5  615.84   77.39 
   5   4   5  622.74   77.49 
   5   4   5  652.93   77.79 
   5   4   5  743.73   74.69 
   5   4   5  615.24   77.39 
   5   4   5  553.44   76.39 
   5   4   5  685.43   73.09 
   5   4   5  648.74   74.69 
  -5  -5  -6    4.20    9.70 
  -5  -5  -6    2.40   11.70 
  -5  -5  -6   12.10    9.80 
  -5  -5  -6   41.10   27.20 
  -5  -5  -6   -8.50    7.50 
   5   5   6   14.70   10.40 
   5   5   6    0.30    5.00 
   5   5   6    3.50    3.50 
   5   5   6    9.40   10.10 
   5   5   6    9.90   10.90 
   5   5   6    1.80   12.50 
   5   5   6   -0.80   13.60 
  -5  -6  -7   63.99   18.70 
  -5  -6  -7   41.80   21.30 
  -5  -6  -7   30.80   19.60 
  -5  -6  -7   18.90   13.50 
  -5  -6  -7   35.70   15.00 
   5   6   7   40.50   17.10 
   5   6   7   31.10   15.20 
   5   6   7   27.90   14.90 
   5   6   7   23.70   15.30 
   5   6   7   42.10   12.00 
   5   6   7   46.10    8.20 
  -5  -7  -8   25.50   25.30 
  -5  -7  -8   53.79   19.20 
  -5  -7  -8   21.60   29.70 
   5   7   8   18.80   19.50 
   5   7   8   39.40   12.50 
   5   7   8   27.80   16.80 
   5   7   8   34.60    7.70 
   5   7   8   29.20   17.90 
   5   7   8   40.80   18.80 
  -5  -8  -9  478.75   71.29 
  -5  -8  -9  550.44   73.79 
  -5  -8  -9  370.66   76.09 
  -5  -8  -9  412.16   70.09 
   5   8   9  640.44   74.19 
   5   8   9  564.14   66.19 
   5   8   9  508.15   70.79 
  -4  10   8  360.56   60.89 
  -4  10   8  318.57   57.99 
  -4  10   8  278.87   51.69 
   4 -10  -8  398.86   45.70 
   4 -10  -8  287.47   65.19 
   4 -10  -8  292.77   37.20 
   4 -10  -8  280.87   48.90 
   4 -10  -8  291.37   52.99 
  -4   9   7   22.50   35.90 
  -4   9   7  -14.90   15.70 
  -4   9   7  -19.20   21.40 
  -4   9   7   23.20   23.30 
  -4   9   7   -4.70   20.30 
   4  -9  -7   -3.20   32.10 
   4  -9  -7   -0.60    4.50 
   4  -9  -7  -14.50   11.10 
   4  -9  -7   -3.60   17.70 
   4  -9  -7   10.10   14.40 
   4  -9  -7   -4.40   17.90 
  -4   8   6   21.70   19.70 
  -4   8   6   23.30   17.60 
  -4   8   6    6.10   18.80 
  -4   8   6   35.80   26.70 
  -4   8   6   12.60   14.70 
  -4   8   6    8.70   19.60 
   4  -8  -6   65.09   26.70 
   4  -8  -6   33.90   15.70 
   4  -8  -6   29.10   15.00 
   4  -8  -6    9.40   16.50 
   4  -8  -6   32.30    6.70 
   4  -8  -6   23.50   10.20 
   4  -8  -6   41.70   22.60 
  -4   7   5  279.57   47.10 
  -4   7   5  181.98   48.60 
  -4   7   5  265.37   42.40 
  -4   7   5  308.57   45.70 
  -4   7   5  271.47   43.80 
  -4   7   5  221.18   40.50 
   4  -7  -5  344.77   41.70 
   4  -7  -5  245.08   42.90 
   4  -7  -5  287.77   42.60 
   4  -7  -5  334.07   34.90 
   4  -7  -5  207.28   44.90 
   4  -7  -5  303.57   38.90 
   4  -7  -5  328.67   37.10 
  -4   6   4  414.66   51.19 
  -4   6   4  320.67   46.40 
  -4   6   4  335.97   53.19 
  -4   6   4  331.07   47.90 
  -4   6   4  331.27   57.49 
  -4   6   4  322.27   47.00 
   4  -6  -4  382.16   42.20 
   4  -6  -4  419.56   47.40 
   4  -6  -4  294.37   50.29 
   4  -6  -4  379.76   43.50 
   4  -6  -4  351.26   44.30 
   4  -6  -4  355.56   47.10 
   4  -6  -4  367.46   48.90 
  -4   5   3 1486.25  180.38 
  -4   5   3 1436.56  172.28 
  -4   5   3 1297.97  178.58 
  -4   5   3 1597.64  173.68 
  -4   5   3 1630.34  172.68 
  -4   5   3 1561.84  176.78 
  -4   5   3 1424.26  174.78 
  -4   5   3 1423.76  174.58 
  -4   5   3 1617.94  176.28 
  -4   5   3 1458.75  172.68 
   4  -5  -3 1579.24  173.38 
   4  -5  -3 1766.42  171.18 
   4  -5  -3 1530.65  175.28 
   4  -5  -3 1570.64  173.98 
   4  -5  -3 1509.75  176.18 
   4  -5  -3 1383.96  175.68 
   4  -5  -3 1493.45  171.98 
  -4   4   2   75.99   11.40 
  -4   4   2   80.49   14.90 
  -4   4   2   86.29   13.70 
  -4   4   2   92.49   15.50 
  -4   4   2   68.69   14.10 
  -4   4   2   72.29   12.90 
  -4   4   2   40.70   15.90 
  -4   4   2   83.99   15.60 
  -4   4   2   69.59   11.70 
   4  -4  -2  108.69   17.50 
   4  -4  -2   53.69   10.80 
   4  -4  -2   65.59   14.00 
   4  -4  -2   72.49   12.50 
   4  -4  -2   66.19   14.80 
   4  -4  -2   69.29   12.10 
  -4   3   1    8.70    8.20 
  -4   3   1   -0.10    4.30 
  -4   3   1    5.90    5.10 
  -4   3   1    1.90    3.00 
  -4   3   1    5.10    4.70 
  -4   3   1    2.90    4.80 
  -4   3   1    3.20    4.90 
  -4   3   1   20.20    9.20 
  -4   3   1   -1.70    3.50 
  -4   3   1    2.30    3.20 
  -4   3   1   -2.00    2.40 
   4  -3  -1    5.80    5.00 
   4  -3  -1   17.70    6.80 
   4  -3  -1   -0.70    1.70 
   4  -3  -1   -5.10    4.90 
   4  -3  -1    8.50    5.40 
  -4   2   0 4684.73  488.65 
  -4   2   0 4156.38  489.05 
  -4   2   0 4051.09  489.75 
  -4   2   0 4572.34  489.65 
  -4   2   0 3736.33  488.75 
  -4   2   0 4602.24  488.65 
  -4   2   0 4721.33  489.35 
  -4   2   0 4603.84  491.15 
  -4   2   0 3871.11  490.35 
  -4   2   0 4588.44  495.25 
  -4   2   0 4613.94  489.35 
   4  -2   0 4006.10  491.75 
   4  -2   0 4912.01  489.05 
   4  -2   0 4101.49  488.55 
   4  -2   0 4671.23  488.75 
  -4   1  -1  931.71  115.69 
  -4   1  -1 1077.59  120.89 
  -4   1  -1 1065.89  115.89 
  -4   1  -1  908.81  118.29 
  -4   1  -1  831.12  117.89 
  -4   1  -1  957.70  115.59 
   4  -1   1 1148.09  116.29 
   4  -1   1 1127.39  119.29 
   4  -1   1 1080.69  115.69 
   4  -1   1 1106.29  115.79 
  -4   0  -2 1890.61  198.68 
  -4   0  -2 1428.96  196.68 
  -4   0  -2 1798.92  195.68 
  -4   0  -2 1640.94  193.48 
  -4   0  -2 1780.42  194.08 
  -4   0  -2 1685.53  192.38 
  -4   0  -2 1697.23  192.18 
  -4   0  -2 1727.73  193.28 
   4   0   2 1680.63  196.08 
   4   0   2 1851.91  193.58 
   4   0   2 1772.12  192.48 
   4   0   2 1578.84  192.38 
   4   0   2 1724.73  193.78 
   4   0   2 1839.92  192.38 
   4   0   2 1705.13  192.28 
   4   0   2 1836.12  193.48 
  -4  -1  -3 2335.17  265.77 
  -4  -1  -3 2455.25  265.87 
  -4  -1  -3 2245.18  264.67 
  -4  -1  -3 2447.66  268.17 
  -4  -1  -3 2103.89  266.97 
  -4  -1  -3 2148.78  266.87 
  -4  -1  -3 2450.85  265.27 
   4   1   3 2166.18  267.77 
   4   1   3 2505.05  265.17 
   4   1   3 2609.34  265.07 
   4   1   3 2442.36  265.67 
   4   1   3 2466.35  265.97 
   4   1   3 2449.35  265.27 
  -4  -2  -4 2760.72  326.07 
  -4  -2  -4 3247.07  326.57 
  -4  -2  -4 3015.30  326.67 
  -4  -2  -4 2811.92  328.27 
  -4  -2  -4 2533.85  328.37 
  -4  -2  -4 2900.71  325.57 
  -4  -2  -4 2936.11  327.07 
   4   2   4 2924.51  326.27 
   4   2   4 2975.20  324.27 
   4   2   4 2758.22  327.87 
   4   2   4 3114.59  325.77 
   4   2   4 2921.81  324.47 
   4   2   4 2903.01  326.47 
   4   2   4 3164.88  325.07 
   4   2   4 2637.24  326.17 
  -4  -3  -5    7.00    8.00 
  -4  -3  -5   -1.70    5.30 
  -4  -3  -5   10.50   12.70 
  -4  -3  -5    1.40    6.80 
  -4  -3  -5    8.70    4.30 
  -4  -3  -5   12.80    7.10 
  -4  -3  -5   33.50   10.80 
   4   3   5    0.10    5.90 
   4   3   5    3.80    6.70 
   4   3   5    4.60    4.60 
   4   3   5   40.40   11.30 
   4   3   5    7.70    6.70 
   4   3   5   14.30    3.50 
   4   3   5   -3.50    5.60 
   4   3   5    0.90    4.70 
  -4  -4  -6  206.88   35.20 
  -4  -4  -6  245.88   33.60 
  -4  -4  -6  250.47   33.90 
  -4  -4  -6  239.38   34.30 
  -4  -4  -6  266.37   41.90 
  -4  -4  -6  187.88   30.20 
  -4  -4  -6  235.08   34.30 
   4   4   6  210.58   31.70 
   4   4   6  272.37   28.10 
   4   4   6  283.97   37.90 
   4   4   6  265.17   34.00 
   4   4   6  268.37   32.70 
   4   4   6  187.58   32.30 
   4   4   6  212.08   33.10 
   4   4   6  224.18   34.20 
  -4  -5  -7  361.06   44.60 
  -4  -5  -7  300.37   46.00 
  -4  -5  -7  269.27   38.60 
  -4  -5  -7  338.87   46.00 
  -4  -5  -7  317.77   44.10 
  -4  -5  -7  241.98   42.30 
   4   5   7  389.56   49.40 
   4   5   7  308.17   43.00 
   4   5   7  326.27   36.70 
   4   5   7  298.97   43.80 
   4   5   7  317.37   41.50 
   4   5   7  319.47   43.20 
   4   5   7  322.67   44.40 
   4   5   7  352.96   46.40 
  -4  -6  -8   77.39   24.10 
  -4  -6  -8   83.19   21.70 
  -4  -6  -8   58.29   19.20 
  -4  -6  -8   67.09   23.40 
   4   6   8   84.59   13.90 
   4   6   8   90.09   21.70 
   4   6   8  103.39   19.30 
   4   6   8   86.29   14.30 
   4   6   8   91.99   21.70 
   4   6   8   72.39   19.90 
   4   6   8   79.69   11.90 
  -4  -7  -9  129.19   36.30 
  -4  -7  -9  171.18   32.10 
  -4  -7  -9  172.48   33.80 
   4   7   9  158.38   26.90 
   4   7   9  161.98   24.90 
   4   7   9  153.08   24.30 
   4   7   9  233.38   36.50 
   4   7   9  134.69   30.90 
   4   7   9  183.98   21.40 
   4   7   9  186.78   34.40 
  -4  -8 -10   25.10   18.90 
  -4  -8 -10  -10.30   17.10 
  -4  -8 -10   28.10   22.10 
  -4  -8 -10  -20.80   28.70 
   4   8  10    2.80   12.10 
   4   8  10   15.20   18.00 
   4   8  10    7.50    5.30 
   4   8  10   20.30   11.40 
   4   8  10   -4.00   18.60 
   4   8  10   22.80   21.90 
   4   8  10   20.20    9.70 
  -3  10   7    2.80   25.20 
  -3  10   7   11.00   27.90 
  -3  10   7  -30.40   32.90 
  -3  10   7   27.00   26.70 
   3 -10  -7    1.40   42.90 
   3 -10  -7   15.30   23.00 
   3 -10  -7    2.60   14.90 
   3 -10  -7  -11.30   21.40 
   3 -10  -7   -6.10   21.40 
  -3   9   6  401.36   66.29 
  -3   9   6  481.55   65.89 
  -3   9   6  340.27   69.69 
  -3   9   6  423.06   63.19 
  -3   9   6  430.16   66.29 
  -3   9   6  369.36   59.29 
   3  -9  -6  362.16   71.39 
   3  -9  -6  542.45   61.39 
   3  -9  -6  394.26   61.59 
   3  -9  -6  373.46   57.09 
   3  -9  -6  497.55   55.99 
  -3   8   5    2.50   18.00 
  -3   8   5   -9.70   12.00 
  -3   8   5  -22.70   13.70 
  -3   8   5   11.10   16.00 
  -3   8   5   18.50   18.20 
  -3   8   5   31.20   25.50 
   3  -8  -5  -26.30   19.30 
   3  -8  -5    3.50   11.40 
   3  -8  -5    3.70    9.40 
   3  -8  -5   -1.40   22.50 
   3  -8  -5   42.60   16.20 
   3  -8  -5   -8.10   14.10 
  -3   7   4  493.75   74.89 
  -3   7   4  461.45   78.29 
  -3   7   4  539.25   76.29 
  -3   7   4  562.14   71.39 
  -3   7   4  515.75   71.39 
  -3   7   4  638.24   74.89 
  -3   7   4  461.65   69.99 
   3  -7  -4  559.14   72.39 
   3  -7  -4  549.54   76.49 
   3  -7  -4  626.44   67.89 
   3  -7  -4  681.63   71.29 
   3  -7  -4  627.24   73.09 
   3  -7  -4  486.65   75.79 
  -3   6   3   25.10   13.70 
  -3   6   3   37.40   13.40 
  -3   6   3   43.50   17.00 
  -3   6   3   27.50   11.10 
  -3   6   3   11.90   17.50 
  -3   6   3   39.80   17.00 
  -3   6   3   54.99   15.50 
   3  -6  -3   27.40   15.90 
   3  -6  -3   50.59   15.10 
   3  -6  -3   32.30    8.80 
   3  -6  -3   40.60    9.80 
   3  -6  -3   23.40   15.70 
   3  -6  -3   27.70   13.70 
   3  -6  -3   59.59   13.30 
  -3   5   2  413.76   57.89 
  -3   5   2  460.95   58.39 
  -3   5   2  461.45   63.09 
  -3   5   2  561.24   61.89 
  -3   5   2  426.16   58.29 
  -3   5   2  420.86   62.29 
  -3   5   2  522.35   60.59 
   3  -5  -2  493.45   54.79 
   3  -5  -2  527.45   66.69 
   3  -5  -2  376.56   59.69 
   3  -5  -2  514.25   56.09 
   3  -5  -2  473.25   59.29 
  -3   4   1    7.80    6.20 
  -3   4   1    7.60    7.00 
  -3   4   1    5.90    9.80 
  -3   4   1   11.10    6.80 
  -3   4   1    2.80    2.80 
  -3   4   1   -2.70    6.40 
  -3   4   1    7.20    5.80 
  -3   4   1    2.00    8.60 
   3  -4  -1    4.20    7.90 
   3  -4  -1    7.60    3.30 
   3  -4  -1    2.30    5.70 
   3  -4  -1    3.00    5.40 
   3  -4  -1   -1.00    8.30 
   3  -4  -1   11.70    4.60 
  -3   3   0 2792.92  305.87 
  -3   3   0 2649.63  304.37 
  -3   3   0 2483.95  304.07 
  -3   3   0 2732.93  310.87 
  -3   3   0 2575.84  305.17 
  -3   3   0 2632.84  305.77 
  -3   3   0 2920.41  302.67 
  -3   3   0 2977.20  306.57 
  -3   3   0 2523.85  307.17 
   3  -3   0 2410.06  305.87 
   3  -3   0 2626.84  306.07 
   3  -3   0 2794.62  303.67 
   3  -3   0 3119.49  304.37 
   3  -3   0 2577.84  302.87 
   3  -3   0 2551.74  305.97 
   3  -3   0 3122.69  303.87 
  -3   2  -1   41.70    6.00 
  -3   2  -1   31.60    7.40 
  -3   2  -1   61.09    7.90 
  -3   2  -1   48.10    6.70 
  -3   2  -1   32.40   11.70 
  -3   2  -1   35.80    7.80 
  -3   2  -1   32.10    7.60 
  -3   2  -1   28.60    7.80 
  -3   2  -1   31.90    7.10 
   3  -2   1   26.30    7.10 
   3  -2   1   35.70    7.70 
   3  -2   1   25.90   10.60 
   3  -2   1   40.90    6.00 
   3  -2   1   36.60    7.80 
  -3   1  -2  533.75   73.69 
  -3   1  -2  534.45   68.89 
  -3   1  -2  559.94   68.39 
  -3   1  -2  653.83   68.79 
  -3   1  -2  679.93   68.69 
  -3   1  -2  707.33   68.19 
  -3   1  -2  635.74   68.89 
  -3   1  -2  502.55   70.69 
  -3   1  -2  604.74   69.19 
   3  -1   2  647.34   68.69 
   3  -1   2  569.74   69.09 
   3  -1   2  549.15   71.99 
   3  -1   2  699.73   69.39 
   3  -1   2  627.94   69.09 
   3  -1   2  548.55   68.39 
   3  -1   2  582.94   70.59 
  -3   0  -3   22.00    7.50 
  -3   0  -3    0.00    2.70 
  -3   0  -3    4.20    2.20 
  -3   0  -3   10.70    2.60 
  -3   0  -3    0.50    1.50 
  -3   0  -3    1.70    2.00 
  -3   0  -3    9.20    3.60 
   3   0   3    2.00    1.90 
   3   0   3    0.10    1.20 
   3   0   3   -2.00    4.00 
   3   0   3    4.90    2.60 
   3   0   3    1.40    2.30 
   3   0   3    0.20    2.20 
   3   0   3    5.10    1.80 
   3   0   3    3.80    2.50 
  -3  -1  -4 1832.72  203.78 
  -3  -1  -4 2137.19  203.98 
  -3  -1  -4 1783.92  203.68 
  -3  -1  -4 1819.62  205.38 
  -3  -1  -4 1807.72  203.68 
  -3  -1  -4 1827.92  203.18 
  -3  -1  -4 1659.13  201.78 
  -3  -1  -4 1797.22  204.98 
   3   1   4 1884.51  203.68 
   3   1   4 1853.81  203.28 
   3   1   4 1753.72  204.98 
   3   1   4 1697.93  203.38 
   3   1   4 1680.83  203.48 
   3   1   4 1779.12  202.88 
   3   1   4 1899.91  202.38 
   3   1   4 1642.14  203.08 
   3   1   4 1836.92  203.68 
   3   1   4 1892.71  203.98 
   3   1   4 1873.61  202.18 
  -3  -2  -5    5.70    3.30 
  -3  -2  -5   15.30    6.20 
  -3  -2  -5   16.20    6.40 
  -3  -2  -5   -5.00    7.30 
  -3  -2  -5    2.40    4.50 
  -3  -2  -5    7.40    5.70 
   3   2   5    6.00    5.70 
   3   2   5   11.60    5.80 
   3   2   5    1.10    4.20 
   3   2   5    8.30    4.60 
   3   2   5    4.50    3.90 
   3   2   5    0.00    4.70 
   3   2   5   20.00    6.50 
   3   2   5    8.00    3.10 
  -3  -3  -6 3406.16  398.06 
  -3  -3  -6 3875.01  398.66 
  -3  -3  -6 3422.06  401.16 
  -3  -3  -6 3342.17  398.46 
  -3  -3  -6 3801.32  399.06 
  -3  -3  -6 3816.92  398.36 
  -3  -3  -6 3141.09  402.16 
  -3  -3  -6 3421.96  395.36 
   3   3   6 3676.03  398.56 
   3   3   6 3294.47  397.86 
   3   3   6 3605.94  399.56 
   3   3   6 3512.95  398.16 
   3   3   6 3798.92  393.66 
   3   3   6 3455.25  398.46 
   3   3   6 3478.75  395.26 
  -3  -4  -7   -2.40    7.10 
  -3  -4  -7   -6.80   14.80 
  -3  -4  -7   23.50   10.70 
  -3  -4  -7   -1.70    7.50 
  -3  -4  -7   17.60   15.20 
  -3  -4  -7   27.40   10.10 
  -3  -4  -7   17.80   11.60 
  -3  -4  -7   10.70    4.20 
   3   4   7    7.90    2.60 
   3   4   7   14.50    8.70 
   3   4   7   13.00    8.20 
   3   4   7    7.90    8.40 
   3   4   7   10.60   10.90 
   3   4   7    6.80    6.30 
  -3  -5  -8  673.83   80.79 
  -3  -5  -8  603.94   78.19 
  -3  -5  -8  642.74   79.79 
  -3  -5  -8  554.74   85.59 
  -3  -5  -8  691.03   87.99 
  -3  -5  -8  594.14   74.19 
  -3  -5  -8  702.93   80.19 
  -3  -5  -8  546.05   86.09 
   3   5   8  716.63   77.99 
   3   5   8  602.04   81.39 
   3   5   8  695.43   72.09 
   3   5   8  574.14   74.69 
   3   5   8  636.44   78.99 
   3   5   8  619.14   79.39 
   3   5   8  625.44   75.59 
   3   5   8  690.93   80.09 
  -3  -6  -9    7.00   12.90 
  -3  -6  -9  -15.20   10.50 
  -3  -6  -9   33.40   18.50 
  -3  -6  -9   13.30   16.80 
  -3  -6  -9   22.00    7.20 
  -3  -6  -9   17.40   11.50 
   3   6   9   16.50   11.10 
   3   6   9   10.20    9.50 
   3   6   9    4.20    6.40 
   3   6   9   17.00   10.60 
   3   6   9   24.30   12.70 
   3   6   9   20.80   15.30 
   3   6   9   46.40   19.80 
  -3  -7 -10   46.20   26.50 
  -3  -7 -10   37.60   15.80 
   3   7  10   24.80   15.70 
   3   7  10    7.60   19.00 
   3   7  10   45.20   21.00 
   3   7  10   31.40   11.40 
   3   7  10   25.80   17.40 
   3   7  10   59.89   19.60 
  -3  -8 -11   13.80   15.10 
  -3  -8 -11   20.90   18.20 
  -3  -8 -11   -6.20   15.30 
   3   8  11   12.30    8.90 
   3   8  11  -11.10   20.20 
   3   8  11   -5.40   21.30 
   3   8  11   25.10   19.60 
   3   8  11   11.10   14.50 
   3   8  11   -2.70   20.50 
  -2  10   6   26.70   25.80 
  -2  10   6   40.30   24.90 
  -2  10   6   15.70    7.50 
  -2  10   6   19.80   27.50 
  -2  10   6   19.40   19.50 
   2 -10  -6  -55.59   43.00 
   2 -10  -6   21.40   17.00 
   2 -10  -6  -12.10   20.50 
   2 -10  -6   49.00   24.50 
   2 -10  -6   26.40   17.10 
  -2   9   5   11.40   16.40 
  -2   9   5   48.40   34.70 
  -2   9   5   13.60   18.40 
  -2   9   5   15.60   18.70 
  -2   9   5   19.70   18.50 
   2  -9  -5   31.50   15.40 
   2  -9  -5   21.60   16.30 
   2  -9  -5   32.00   33.50 
   2  -9  -5    3.70   17.20 
   2  -9  -5    0.90   11.40 
  -2   8   4  801.72  109.59 
  -2   8   4  930.01  118.39 
  -2   8   4  896.71  114.69 
  -2   8   4  953.70  111.59 
  -2   8   4  879.61  110.99 
  -2   8   4 1015.10  119.19 
   2  -8  -4 1022.40  112.89 
   2  -8  -4 1039.60  107.69 
   2  -8  -4  829.92  106.49 
   2  -8  -4  713.83  113.59 
   2  -8  -4  897.21  119.09 
  -2   7   3  708.43   84.89 
  -2   7   3  592.44   79.69 
  -2   7   3  549.95   85.79 
  -2   7   3  592.94   79.29 
  -2   7   3  810.32   84.29 
  -2   7   3  707.03   81.09 
  -2   7   3  574.14   83.59 
   2  -7  -3  580.94   85.29 
   2  -7  -3  734.53   77.59 
   2  -7  -3  550.24   85.59 
   2  -7  -3  536.05   81.39 
   2  -7  -3  699.43   81.69 
  -2   6   2  728.93  104.99 
  -2   6   2  886.81  106.49 
  -2   6   2 1049.20  109.19 
  -2   6   2  840.62  110.79 
  -2   6   2  915.31  109.59 
  -2   6   2  890.81  110.29 
  -2   6   2  942.11  106.79 
   2  -6  -2 1048.30  106.89 
   2  -6  -2  728.53  109.09 
   2  -6  -2  885.71  102.29 
   2  -6  -2  864.81  107.29 
   2  -6  -2 1052.59  104.59 
   2  -6  -2  820.82  106.89 
   2  -6  -2  714.03  108.79 
  -2   5   1  432.26   60.29 
  -2   5   1  538.75   65.79 
  -2   5   1  473.25   64.79 
  -2   5   1  485.95   61.19 
  -2   5   1  514.35   62.29 
  -2   5   1  514.25   63.99 
  -2   5   1  492.75   60.39 
   2  -5  -1  475.25   61.19 
   2  -5  -1  505.45   56.89 
   2  -5  -1  409.76   62.59 
   2  -5  -1  428.26   63.19 
   2  -5  -1  437.66   61.19 
   2  -5  -1  606.04   59.59 
  -2   4   0 4535.35  457.85 
  -2   4   0 3990.80  456.45 
  -2   4   0 4170.18  458.15 
  -2   4   0 4395.46  452.95 
  -2   4   0 4401.26  459.15 
  -2   4   0 3933.41  459.25 
   2  -4   0 4271.17  455.45 
   2  -4   0 4141.99  457.15 
   2  -4   0 3888.11  461.35 
   2  -4   0 3547.15  456.05 
   2  -4   0 4035.80  458.05 
   2  -4   0 3537.25  457.75 
  -2   3  -1   46.20    9.40 
  -2   3  -1   39.50   10.10 
  -2   3  -1   20.90    9.00 
  -2   3  -1   44.50   10.40 
  -2   3  -1   39.10   10.90 
  -2   3  -1   39.20    5.80 
  -2   3  -1   43.80   10.80 
  -2   3  -1   38.80   13.20 
   2  -3   1   38.20    9.50 
   2  -3   1   36.00    8.60 
   2  -3   1   39.10    8.00 
   2  -3   1   41.50    9.10 
   2  -3   1   27.50   11.90 
   2  -3   1   17.50    8.40 
   2  -3   1   45.10   11.30 
  -2   2  -2  167.48   24.70 
  -2   2  -2  204.48   21.30 
  -2   2  -2  212.78   24.70 
  -2   2  -2  198.48   29.10 
  -2   2  -2  151.08   23.40 
  -2   2  -2  188.48   23.90 
  -2   2  -2  180.68   23.60 
  -2   2  -2  208.28   25.50 
   2  -2   2  167.58   22.30 
   2  -2   2  168.68   26.70 
   2  -2   2  189.18   24.40 
   2  -2   2  159.58   22.60 
   2  -2   2  217.28   22.70 
   2  -2   2  158.98   24.00 
   2  -2   2  177.38   24.00 
  -2   1  -3 5205.98  519.05 
  -2   1  -3 5222.88  518.85 
  -2   1  -3 4068.29  522.05 
  -2   1  -3 4803.92  518.55 
  -2   1  -3 4739.03  518.55 
  -2   1  -3 4582.44  518.95 
  -2   1  -3 4061.99  519.55 
   2  -1   3 4684.33  517.75 
   2  -1   3 3874.31  520.25 
   2  -1   3 4822.52  518.65 
   2  -1   3 5205.48  518.15 
   2  -1   3 4611.44  518.95 
   2  -1   3 4581.84  518.65 
  -2   0  -4 1718.43  185.68 
  -2   0  -4 1630.94  187.18 
  -2   0  -4 1776.92  188.78 
  -2   0  -4 1833.32  187.58 
  -2   0  -4 1755.52  187.38 
  -2   0  -4 1607.74  189.28 
  -2   0  -4 1684.83  188.18 
  -2   0  -4 1768.22  187.48 
  -2   0  -4 1673.93  187.88 
   2   0   4 1697.43  187.28 
   2   0   4 1630.84  187.48 
   2   0   4 1442.16  188.48 
   2   0   4 1690.73  187.38 
   2   0   4 1500.25  187.18 
   2   0   4 1667.03  185.68 
   2   0   4 1685.33  187.38 
   2   0   4 1594.74  186.58 
  -2  -1  -5 1431.96  154.08 
  -2  -1  -5 1299.17  152.48 
  -2  -1  -5 1385.86  155.08 
  -2  -1  -5 1360.36  153.98 
  -2  -1  -5 1418.26  155.28 
  -2  -1  -5 1606.44  154.58 
  -2  -1  -5 1433.06  154.48 
  -2  -1  -5 1333.47  155.78 
   2   1   5 1318.57  154.08 
   2   1   5 1253.97  153.68 
   2   1   5 1365.56  154.18 
   2   1   5 1257.47  152.48 
   2   1   5 1369.56  154.38 
   2   1   5 1282.67  153.98 
   2   1   5 1317.17  154.08 
  -2  -2  -6  111.49   19.80 
  -2  -2  -6  100.79   16.40 
  -2  -2  -6  105.79   13.90 
  -2  -2  -6  122.89   17.20 
  -2  -2  -6  100.29   19.10 
  -2  -2  -6   96.39   19.90 
  -2  -2  -6   91.09   16.70 
   2   2   6  106.39   16.70 
   2   2   6   90.99   17.30 
   2   2   6  111.09   14.00 
   2   2   6  105.39   16.80 
   2   2   6  126.79   18.00 
   2   2   6   97.59   16.30 
   2   2   6  114.29   17.40 
   2   2   6   99.99   15.90 
  -2  -3  -7   51.19   15.90 
  -2  -3  -7   57.09   12.90 
  -2  -3  -7   68.29   13.70 
  -2  -3  -7  153.58   22.50 
  -2  -3  -7   68.59   17.20 
  -2  -3  -7   49.30    9.50 
  -2  -3  -7   68.89   14.30 
   2   3   7   57.19   13.70 
   2   3   7   61.19   13.80 
   2   3   7   71.59   13.10 
   2   3   7   69.69   14.90 
   2   3   7   59.29   14.30 
   2   3   7   60.89   14.80 
  -2  -4  -8 1983.40  207.78 
  -2  -4  -8 1813.22  206.58 
  -2  -4  -8 1762.82  202.68 
  -2  -4  -8 2051.19  208.58 
  -2  -4  -8 1746.03  207.28 
  -2  -4  -8 1776.42  210.88 
  -2  -4  -8 1711.63  210.68 
   2   4   8 1823.72  208.28 
   2   4   8 1789.02  200.78 
   2   4   8 1714.13  207.38 
   2   4   8 1816.22  205.38 
   2   4   8 1697.63  206.88 
  -2  -5  -9 1390.26  168.98 
  -2  -5  -9 1232.98  166.68 
  -2  -5  -9 1374.76  157.28 
  -2  -5  -9 1444.76  164.08 
  -2  -5  -9 1286.57  160.88 
  -2  -5  -9 1350.56  162.88 
  -2  -5  -9 1673.43  164.48 
   2   5   9 1427.76  163.68 
   2   5   9 1400.26  163.38 
   2   5   9 1337.47  163.48 
   2   5   9 1601.64  166.48 
   2   5   9 1442.36  160.88 
   2   5   9 1379.46  155.38 
   2   5   9 1160.08  165.08 
  -2  -6 -10  290.67   51.29 
  -2  -6 -10  331.37   44.80 
  -2  -6 -10  298.97   39.70 
  -2  -6 -10  363.16   47.70 
  -2  -6 -10  327.27   47.70 
   2   6  10  293.97   47.40 
   2   6  10  299.27   46.20 
   2   6  10  399.06   48.50 
   2   6  10  350.56   38.00 
   2   6  10  332.87   49.40 
   2   6  10  282.67   44.10 
  -2  -7 -11  100.29   26.20 
  -2  -7 -11  115.09   24.10 
  -2  -7 -11  134.69   33.20 
   2   7  11   87.79   22.80 
   2   7  11  160.28   29.20 
   2   7  11  127.69   31.70 
   2   7  11  136.49   30.40 
   2   7  11  107.49   15.30 
  -2  -8 -12  210.08   39.50 
  -2  -8 -12  226.08   40.30 
  -2  -8 -12  212.88   41.90 
  -2  -8 -12  169.28   28.90 
   2   8  12  208.18   23.90 
   2   8  12  151.38   40.70 
   2   8  12  261.27   42.80 
   2   8  12  123.09   47.50 
   2   8  12  168.48   34.80 
   2   8  12  191.78   39.10 
   2   8  12  174.88   40.90 
  -1  11   6   13.70    7.70 
  -1  11   6   34.10   30.80 
  -1  11   6   10.20   21.70 
  -1  11   6  -16.70   29.90 
  -1  11   6   22.50   26.30 
   1 -11  -6   39.60   22.40 
   1 -11  -6   37.10   57.09 
   1 -11  -6    8.70   22.20 
   1 -11  -6    5.10   17.00 
  -1  10   5  187.38   23.60 
  -1  10   5  137.79   33.90 
  -1  10   5  218.28   42.80 
  -1  10   5  171.78   38.40 
  -1  10   5  137.39   38.40 
   1 -10  -5  176.38   38.80 
   1 -10  -5  228.28   34.00 
   1 -10  -5  145.79   55.69 
   1 -10  -5  199.68   36.90 
   1 -10  -5   86.49   31.50 
  -1   9   4  527.15   80.79 
  -1   9   4  488.45   75.39 
  -1   9   4  418.06   71.89 
  -1   9   4  734.03   78.79 
  -1   9   4  629.44   65.69 
  -1   9   4  695.53   81.39 
   1  -9  -4  522.65   70.29 
   1  -9  -4  400.46   70.99 
   1  -9  -4  536.55   76.39 
   1  -9  -4  734.73   76.49 
   1  -9  -4  493.15   90.29 
  -1   8   3 1460.35  144.59 
  -1   8   3 1287.57  159.58 
  -1   8   3 1099.09  150.78 
  -1   8   3 1315.27  152.68 
  -1   8   3 1627.24  158.48 
  -1   8   3 1217.88  154.68 
  -1   8   3 1241.38  152.98 
   1  -8  -3 1047.30  148.29 
   1  -8  -3 1113.89  155.38 
   1  -8  -3 1386.96  149.59 
   1  -8  -3 1453.55  155.28 
   1  -8  -3  995.40  158.68 
  -1   7   2   -1.90   18.70 
  -1   7   2   21.20   11.70 
  -1   7   2   28.70   16.00 
  -1   7   2   16.50    4.40 
  -1   7   2    0.70   15.00 
  -1   7   2   12.20   12.90 
  -1   7   2    6.20   11.70 
   1  -7  -2   16.60   11.80 
   1  -7  -2   25.70   21.10 
   1  -7  -2   21.30   17.40 
   1  -7  -2   23.50   24.40 
   1  -7  -2   20.00   11.00 
   1  -7  -2   29.00   11.70 
  -1   6   1   16.10    3.60 
  -1   6   1    2.90    8.20 
  -1   6   1   27.20   14.20 
  -1   6   1   -3.50   10.70 
  -1   6   1   27.10   11.60 
  -1   6   1    9.30   14.20 
  -1   6   1   16.50   12.90 
  -1   6   1   18.50   13.20 
   1  -6  -1   16.30    8.50 
   1  -6  -1   23.00   13.70 
   1  -6  -1    7.20    9.10 
   1  -6  -1   -0.70   15.20 
   1  -6  -1   23.00   17.20 
   1  -6  -1    7.10   11.70 
   1  -6  -1   14.20   16.00 
  -1   5   0  377.66   44.20 
  -1   5   0  328.77   42.10 
  -1   5   0  330.27   45.20 
  -1   5   0  351.76   46.50 
  -1   5   0  290.67   45.20 
  -1   5   0  388.76   46.40 
  -1   5   0  245.28   41.50 
   1  -5   0  312.27   44.10 
   1  -5   0  246.48   44.90 
   1  -5   0  301.47   47.70 
   1  -5   0  349.67   45.90 
   1  -5   0  297.67   42.60 
   1  -5   0  388.86   41.60 
   1  -5   0  299.37   44.10 
  -1   4  -1  840.82  103.09 
  -1   4  -1  893.01  105.99 
  -1   4  -1  872.51  105.79 
  -1   4  -1 1037.50  107.09 
  -1   4  -1  942.81  108.39 
  -1   4  -1 1098.09  106.79 
  -1   4  -1  852.41  105.09 
   1  -4   1  728.43  104.99 
   1  -4   1  816.92  101.09 
   1  -4   1  881.01  108.09 
   1  -4   1 1064.99  103.59 
   1  -4   1  905.61  104.79 
   1  -4   1  770.62  103.99 
   1  -4   1  775.32  104.59 
  -1   3  -2  607.44   73.39 
  -1   3  -2  568.54   70.69 
  -1   3  -2  538.25   69.99 
  -1   3  -2  577.44   67.29 
  -1   3  -2  689.93   72.49 
  -1   3  -2  697.43   71.99 
  -1   3  -2  565.44   70.69 
  -1   3  -2  555.34   68.59 
   1  -3   2  610.34   72.29 
   1  -3   2  492.15   69.19 
   1  -3   2  633.84   68.79 
   1  -3   2  694.53   70.59 
   1  -3   2  540.05   70.39 
   1  -3   2  594.64   70.49 
   1  -3   2  530.25   65.19 
   1  -3   2  472.25   69.49 
   1  -3   2  629.84   66.69 
  -1   2  -3 4410.66  481.85 
  -1   2  -3 4611.04  483.85 
  -1   2  -3 4254.17  482.05 
  -1   2  -3 4529.45  479.75 
  -1   2  -3 4762.62  483.15 
  -1   2  -3 4362.56  482.35 
  -1   2  -3 3985.70  484.35 
  -1   2  -3 4020.90  480.75 
   1  -2   3 3814.12  482.95 
   1  -2   3 4367.86  481.75 
   1  -2   3 4287.37  482.45 
   1  -2   3 4303.17  479.35 
  -1   1  -4 1062.39  114.29 
  -1   1  -4 1045.80  114.39 
  -1   1  -4 1073.39  114.29 
  -1   1  -4 1037.50  113.19 
  -1   1  -4 1099.89  110.99 
  -1   1  -4  918.21  115.89 
  -1   1  -4  972.60  113.99 
  -1   1  -4  921.71  114.99 
   1  -1   4 1039.20  113.89 
   1  -1   4 1002.70  114.09 
   1  -1   4  857.41  113.79 
   1  -1   4  987.00  113.89 
   1  -1   4 1011.40  113.19 
   1  -1   4  895.21  115.29 
  -1   0  -5    0.20    3.50 
  -1   0  -5    0.00    3.00 
  -1   0  -5   20.50    6.00 
  -1   0  -5   16.00    5.00 
  -1   0  -5    4.40    4.50 
  -1   0  -5    3.50    4.00 
   1   0   5    0.10    1.10 
   1   0   5   -1.10    3.90 
   1   0   5   -1.30    3.90 
   1   0   5   -1.80    3.00 
   1   0   5   -2.80    3.80 
   1   0   5   -1.10    3.30 
   1   0   5    1.20    3.50 
   1   0   5   -0.70    3.30 
  -1  -1  -6  788.82   85.69 
  -1  -1  -6  772.82   85.19 
  -1  -1  -6  764.22   84.89 
  -1  -1  -6  723.73   84.29 
  -1  -1  -6  716.73   81.79 
  -1  -1  -6  767.42   84.59 
  -1  -1  -6  793.82   84.59 
   1   1   6  731.73   84.69 
   1   1   6  692.63   84.69 
   1   1   6  642.74   81.69 
   1   1   6  697.53   84.79 
   1   1   6  704.93   84.39 
   1   1   6  669.53   84.39 
   1   1   6  728.93   85.19 
   1   1   6  726.73   84.99 
  -1  -2  -7  198.88   29.20 
  -1  -2  -7  226.08   28.20 
  -1  -2  -7  205.58   30.00 
  -1  -2  -7  226.18   28.10 
  -1  -2  -7  235.28   28.60 
  -1  -2  -7  212.18   27.70 
   1   2   7  176.98   28.20 
   1   2   7  210.68   29.10 
   1   2   7  173.38   27.80 
   1   2   7  193.88   28.40 
   1   2   7  183.98   28.00 
   1   2   7  180.08   28.40 
   1   2   7  211.88   24.70 
   1   2   7  242.38   30.00 
   1   2   7  208.38   29.10 
  -1  -3  -8 1651.83  196.38 
  -1  -3  -8 1924.21  197.38 
  -1  -3  -8 1787.92  195.58 
  -1  -3  -8 1931.01  197.18 
  -1  -3  -8 1618.74  198.18 
  -1  -3  -8 1596.74  192.18 
  -1  -3  -8 1589.04  197.28 
   1   3   8 1691.53  198.28 
   1   3   8 1716.23  197.58 
   1   3   8 1715.73  197.98 
   1   3   8 1820.32  198.48 
   1   3   8 1644.44  196.88 
   1   3   8 1640.04  197.18 
   1   3   8 1751.12  197.78 
  -1  -4  -9  828.12  100.79 
  -1  -4  -9  839.42  105.59 
  -1  -4  -9  995.90  106.79 
  -1  -4  -9  979.60  107.69 
  -1  -4  -9  874.21  109.89 
  -1  -4  -9  846.42  107.39 
  -1  -4  -9  882.71  104.49 
   1   4   9  856.81  106.99 
   1   4   9  853.91  108.49 
   1   4   9  849.22  107.09 
   1   4   9  852.51  106.79 
   1   4   9  966.70   99.29 
   1   4   9  916.31  108.09 
   1   4   9  922.81  108.69 
   1   4   9  848.52  105.69 
  -1  -5 -10   39.20   19.50 
  -1  -5 -10   24.30   25.70 
  -1  -5 -10   16.30   10.10 
  -1  -5 -10   50.09   15.40 
  -1  -5 -10   63.99    9.40 
  -1  -5 -10   21.70   13.50 
   1   5  10   18.10   17.90 
   1   5  10   56.09   22.10 
   1   5  10   16.30   14.60 
   1   5  10   46.70    6.50 
   1   5  10   26.40   17.70 
   1   5  10   45.80   15.80 
   1   5  10   55.59   17.10 
   1   5  10   30.00   16.70 
  -1  -6 -11   48.30   17.10 
  -1  -6 -11   23.60    7.50 
  -1  -6 -11   56.59   16.90 
  -1  -6 -11   44.50   14.30 
   1   6  11   33.50    6.10 
   1   6  11   19.70   17.30 
   1   6  11   25.10   22.50 
   1   6  11   30.90   21.10 
   1   6  11   18.40   19.00 
   1   6  11   76.09   20.20 
  -1  -7 -12    1.70   14.10 
  -1  -7 -12    1.50   16.80 
  -1  -7 -12  -14.10   12.80 
  -1  -7 -12    3.50    6.70 
   1   7  12   14.90   19.10 
   1   7  12   -1.50    3.90 
   1   7  12   22.40   16.90 
   1   7  12   20.60   24.30 
   1   7  12   26.30   20.10 
   1   7  12    5.80   30.10 
  -1  -8 -13   33.70   23.40 
  -1  -8 -13   42.80   20.00 
  -1  -8 -13   21.30   23.30 
   1   8  13   63.29   28.90 
   1   8  13   10.10   40.20 
   1   8  13   20.40   31.40 
   1   8  13   69.09   29.60 
   1   8  13   34.50   25.70 
   1   8  13   31.50    6.00 
   0  11   5   -6.70   25.70 
   0  11   5  -20.60   20.30 
   0  11   5   14.60    6.50 
   0  11   5  -37.90   28.30 
   0 -11  -5  -80.59   54.19 
   0 -11  -5   -2.20   17.30 
   0 -11  -5   -6.10   20.70 
   0 -11  -5   18.00   19.30 
   0  10   4   68.59   24.00 
   0  10   4  122.29   38.10 
   0  10   4   91.19   29.00 
   0  10   4   91.99   13.60 
   0 -10  -4  128.79   28.60 
   0 -10  -4   28.80   28.60 
   0 -10  -4   43.00   20.40 
   0 -10  -4  125.99   30.20 
   0 -10  -4  148.89   53.19 
   0   9   3   12.70   17.50 
   0   9   3   -0.50    3.60 
   0   9   3  -19.40   26.80 
   0   9   3   17.70   17.60 
   0   9   3   -0.50   17.00 
   0   9   3    2.50   14.60 
   0  -9  -3  -24.20   32.00 
   0  -9  -3   20.10   22.10 
   0  -9  -3   -1.70   11.20 
   0  -9  -3    1.40   19.00 
   0  -9  -3    2.80   13.50 
   0   8   2  413.36   76.69 
   0   8   2  433.46   71.19 
   0   8   2  545.25   68.39 
   0   8   2  514.15   58.19 
   0   8   2  531.85   69.99 
   0   8   2  375.66   64.49 
   0   8   2  531.25   69.89 
   0   8   2  393.46   71.59 
   0  -8  -2  422.16   73.09 
   0  -8  -2  610.04   68.49 
   0  -8  -2  516.65   64.29 
   0  -8  -2  551.84   70.79 
   0  -8  -2  650.93   77.79 
   0  -8  -2  578.54   80.19 
   0   7   1   -1.10   11.10 
   0   7   1   -2.70   12.10 
   0   7   1    3.90   14.10 
   0   7   1    4.90   12.10 
   0   7   1   14.70   20.10 
   0   7   1    1.00    8.50 
   0   7   1    7.50   12.20 
   0   7   1    3.50    2.60 
   0  -7  -1    2.70   13.40 
   0  -7  -1   15.90   16.20 
   0  -7  -1   -0.50   17.00 
   0  -7  -1   -6.60    9.10 
   0  -7  -1   17.80   20.30 
   0  -7  -1    4.50   21.00 
   0  -7  -1   29.90   10.60 
   0   6   0 8031.20  855.31 
   0   6   0 7871.31  856.31 
   0   6   0 9025.40  854.31 
   0   6   0 6739.33  853.71 
   0   6   0 6783.12  850.81 
   0   6   0 7908.81  854.81 
   0  -6   0 7910.71  850.21 
   0  -6   0 7251.47  853.61 
   0  -6   0 6570.24  849.32 
   0  -6   0 7031.50  853.91 
   0  -6   0 7260.77  855.81 
   0  -6   0 9043.00  854.11 
   0   5  -1   -5.70    9.80 
   0   5  -1    4.30    9.30 
   0   5  -1   12.70   11.80 
   0   5  -1    1.70    7.30 
   0   5  -1    0.40    6.70 
   0   5  -1    9.70   10.00 
   0  -5   1   -4.20   10.80 
   0  -5   1   -2.70    5.90 
   0  -5   1   -4.70    9.20 
   0  -5   1   20.00    7.80 
   0  -5   1  -12.60    6.00 
   0  -5   1    9.00   11.80 
   0  -5   1   14.00   11.30 
   0   4  -2 1392.36  178.28 
   0   4  -2 1695.93  181.88 
   0   4  -2 1735.73  180.98 
   0   4  -2 1656.03  180.68 
   0   4  -2 1569.74  180.28 
   0  -4   2 1600.14  179.48 
   0  -4   2 1642.54  182.78 
   0  -4   2 1355.16  179.38 
   0  -4   2 1560.64  180.28 
   0  -4   2 1732.43  177.58 
   0  -4   2 1308.27  178.48 
   0  -4   2 1400.06  176.48 
   0   3  -3   -5.60    6.60 
   0   3  -3    0.60    5.30 
   0   3  -3    4.20    5.70 
   0   3  -3    4.70    7.90 
   0   3  -3    2.40    3.60 
   0   3  -3   -0.60    6.30 
   0   3  -3    5.00    5.30 
   0   3  -3    8.50    7.10 
   0  -3   3    1.50    4.60 
   0  -3   3    6.90    6.00 
   0  -3   3    6.20    4.90 
   0  -3   3    1.50    6.90 
   0  -3   3    4.00    7.30 
   0  -3   3    2.20    6.40 
   0  -3   3    6.00    6.40 
   0  -3   3   -6.90    6.60 
   0   2  -4 1630.24  171.38 
   0   2  -4 1438.36  169.28 
   0   2  -4 1403.66  171.28 
   0   2  -4 1461.95  170.28 
   0   2  -4 1347.57  171.58 
   0   2  -4 1463.25  171.08 
   0   2  -4 1687.23  169.58 
   0   2  -4 1520.25  171.78 
   0  -2   4 1435.86  170.98 
   0  -2   4 1453.25  171.78 
   0  -2   4 1273.17  170.18 
   0  -2   4 1445.36  169.98 
   0  -2   4 1705.23  170.38 
   0  -2   4 1607.64  169.28 
   0  -2   4 1406.86  170.28 
   0  -2   4 1626.44  171.18 
   0   1  -5    3.50    5.00 
   0   1  -5    5.80    5.10 
   0   1  -5   -3.20    3.40 
   0   1  -5   27.90    7.20 
   0   1  -5    4.50    1.20 
   0   1  -5    1.60    3.40 
   0   1  -5    4.70    4.30 
   0   1  -5    0.40    3.50 
   0   1  -5   -3.80    4.00 
   0  -1   5   -2.10    4.30 
   0  -1   5   -1.60    4.10 
   0  -1   5    4.10    3.80 
   0  -1   5    3.90    5.00 
   0  -1   5    4.50    4.30 
   0  -1   5   -2.40    5.30 
   0  -1   5   10.20    5.10 
   0   0  -6 3846.32  386.66 
   0   0  -6 3274.57  385.56 
   0   0  -6 4020.00  386.06 
   0   0  -6 3526.45  385.76 
   0   0  -6 3207.18  385.06 
   0   0  -6 3546.75  386.96 
   0   0   6 3224.28  385.66 
   0   0   6 3428.56  386.46 
   0   0   6 3623.14  386.16 
   0   0   6 3360.36  385.66 
   0   0   6 3284.17  381.96 
   0   0   6 3455.85  385.76 
   0   0   6 3241.68  385.56 
   0   0   6 3184.78  386.36 
   0  -1  -7    3.10    5.70 
   0  -1  -7   -1.50    3.50 
   0  -1  -7    0.90    5.30 
   0  -1  -7   -2.20    5.20 
   0  -1  -7   -0.50    3.90 
   0  -1  -7    6.00    5.50 
   0  -1  -7    0.40    1.20 
   0   1   7   -4.00    5.80 
   0   1   7    3.30    5.80 
   0   1   7   13.50    6.90 
   0   1   7   -0.50    4.50 
   0   1   7    2.20    1.60 
   0   1   7    5.30    6.30 
   0  -2  -8  642.84   78.29 
   0  -2  -8  775.62   79.39 
   0  -2  -8  616.34   79.39 
   0  -2  -8  701.23   77.39 
   0  -2  -8  716.03   78.79 
   0  -2  -8  612.84   78.59 
   0   2   8  593.14   78.49 
   0   2   8  619.24   78.99 
   0   2   8  574.14   78.99 
   0   2   8  681.63   80.09 
   0   2   8  641.84   79.39 
   0   2   8  650.13   79.09 
   0   2   8  672.93   79.59 
   0   2   8  683.33   74.19 
   0   2   8  645.14   79.79 
   0  -3  -9    8.00   10.90 
   0  -3  -9   -2.20    4.90 
   0  -3  -9    7.80    7.60 
   0  -3  -9   -3.80    8.80 
   0  -3  -9   14.30    8.40 
   0  -3  -9    5.80    7.40 
   0   3   9   -1.50    8.40 
   0   3   9    4.10    8.80 
   0   3   9   -1.10    1.80 
   0   3   9    3.20    7.70 
   0   3   9   -3.10    8.60 
   0   3   9    6.20    9.50 
   0   3   9   -2.80    6.40 
   0   3   9    7.60    8.40 
   0   3   9  -17.80    8.60 
   0  -4 -10  169.88   21.90 
   0  -4 -10  160.48   33.60 
   0  -4 -10  191.98   29.90 
   0  -4 -10  237.68   33.10 
   0  -4 -10  191.98   29.80 
   0  -4 -10  165.28   26.40 
   0  -4 -10  183.78   28.80 
   0   4  10  203.98   35.60 
   0   4  10  203.58   33.30 
   0   4  10  176.88   29.90 
   0   4  10  232.98   36.30 
   0   4  10  196.38   22.00 
   0   4  10  150.58   32.00 
   0   4  10  191.58   31.20 
   0   4  10  227.68   36.00 
   0  -5 -11  -10.80   10.90 
   0  -5 -11  -10.80   10.60 
   0  -5 -11   -0.30   12.50 
   0  -5 -11    0.50    2.50 
   0  -5 -11   10.20    9.00 
   0   5  11    2.90    3.20 
   0   5  11   27.20   17.80 
   0   5  11   13.90   14.70 
   0   5  11   -7.00   15.90 
   0   5  11   11.30   15.20 
   0   5  11    6.30   15.30 
   0  -6 -12 1846.52  221.38 
   0  -6 -12 2145.19  221.98 
   0   6  12 2095.59  225.88 
   0   6  12 2005.50  224.48 
   0   6  12 1545.45  221.78 
   0   6  12 1969.60  212.48 
   0   6  12 1798.92  226.58 
   0   6  12 1760.72  222.88 
   0  -7 -13   -4.00   15.70 
   0  -7 -13  -10.30   14.70 
   0  -7 -13   24.10   18.80 
   0   7  13   25.40   35.00 
   0   7  13  -18.70   24.90 
   0   7  13   -8.60   20.20 
   0   7  13    3.20   19.60 
   0  -8 -14   55.19   30.90 
   0  -8 -14   30.20   18.60 
   0  -8 -14    8.70   22.40 
   0   8  14    0.60   49.20 
   0   8  14   17.10   24.30 
   0   8  14   51.09   35.50 
   0   8  14   77.99   30.20 
   1  11   4    1.70   25.40 
   1  11   4   45.20   27.80 
   1  11   4   80.69   31.80 
   1  11   4   -5.00   22.60 
   1  11   4    4.90    6.00 
  -1 -11  -4  -10.00   26.30 
  -1 -11  -4   10.20   22.50 
  -1 -11  -4   28.90   20.50 
  -1 -11  -4  -28.50   58.49 
  -1 -11  -4    1.60   23.10 
   1  10   3  140.09   37.10 
   1  10   3  173.58   22.50 
   1  10   3  188.58   40.50 
   1  10   3  157.78   37.20 
  -1 -10  -3  158.68   57.79 
  -1 -10  -3  217.28   40.30 
  -1 -10  -3  137.39   31.60 
  -1 -10  -3  119.29   39.00 
  -1 -10  -3  147.79   34.40 
  -1 -10  -3  236.78   42.90 
   1   9   2  317.97   50.59 
   1   9   2  234.08   50.09 
   1   9   2  351.76   40.10 
   1   9   2  357.16   56.19 
   1   9   2  369.46   54.19 
  -1  -9  -2  270.97   48.70 
  -1  -9  -2  366.36   50.79 
  -1  -9  -2  425.76   53.79 
  -1  -9  -2  328.07   56.49 
  -1  -9  -2  202.98   59.79 
   1   8   1  313.57   64.09 
   1   8   1  394.86   59.89 
   1   8   1  364.46   59.29 
   1   8   1  463.35   67.99 
   1   8   1  336.17   59.19 
   1   8   1  548.35   65.89 
   1   8   1  357.86   60.59 
   1   8   1  458.45   51.39 
  -1  -8  -1  407.96   57.39 
  -1  -8  -1  430.56   68.99 
  -1  -8  -1  535.05   65.49 
  -1  -8  -1  453.45   73.49 
  -1  -8  -1  417.96   59.69 
  -1  -8  -1  498.95   72.09 
  -1  -8  -1  692.83   80.29 
  -1  -8  -1  568.74   63.99 
   1   7   0   40.90   16.10 
   1   7   0   47.10   17.80 
   1   7   0   61.29   20.50 
   1   7   0   35.00   20.90 
   1   7   0   76.59   10.50 
   1   7   0   53.59   19.30 
   1   7   0  108.79   24.20 
   1   7   0   92.39   26.00 
  -1  -7   0   42.70   14.80 
  -1  -7   0  123.89   22.40 
  -1  -7   0   21.60   21.70 
  -1  -7   0   39.40   22.30 
  -1  -7   0   72.69   19.80 
  -1  -7   0   83.49   27.00 
  -1  -7   0   47.00   20.50 
  -1  -7   0   72.49   21.60 
   1   6  -1   19.60   11.90 
   1   6  -1   19.80   12.70 
   1   6  -1   21.40   14.20 
   1   6  -1   15.50   13.10 
   1   6  -1   38.80   16.30 
   1   6  -1    4.80   12.50 
   1   6  -1   12.40   12.60 
  -1  -6   1    0.60    7.70 
  -1  -6   1   15.70   16.70 
  -1  -6   1   10.20   11.20 
  -1  -6   1   25.10   19.30 
  -1  -6   1   16.90   18.40 
  -1  -6   1   23.80   15.20 
  -1  -6   1   24.30   10.50 
  -1  -6   1    9.00   14.80 
   1   5  -2   58.39   16.60 
   1   5  -2   44.30   12.90 
   1   5  -2   45.50   17.10 
   1   5  -2   78.29   18.80 
   1   5  -2   26.80   13.40 
   1   5  -2   50.49   18.90 
   1   5  -2   69.39   18.10 
  -1  -5   2   37.30   16.90 
  -1  -5   2   43.80   16.30 
  -1  -5   2   48.80   16.20 
  -1  -5   2   49.10    8.50 
  -1  -5   2   57.59   17.00 
  -1  -5   2   45.40   11.70 
  -1  -5   2   65.79   18.70 
  -1  -5   2   63.69   19.30 
  -1  -5   2   36.00   13.50 
   1   4  -3 2186.08  229.28 
   1   4  -3 1714.13  228.08 
   1   4  -3 2211.98  230.98 
   1   4  -3 2142.39  231.78 
   1   4  -3 1962.10  226.98 
   1   4  -3 2041.50  230.18 
  -1  -4   3 2098.59  234.38 
  -1  -4   3 2012.90  229.98 
  -1  -4   3 1871.51  229.58 
  -1  -4   3 1678.53  229.58 
  -1  -4   3 1858.51  229.88 
  -1  -4   3 2445.86  235.28 
  -1  -4   3 1804.92  224.28 
  -1  -4   3 2209.38  231.68 
  -1  -4   3 2016.10  229.38 
   1   3  -4 1783.82  185.28 
   1   3  -4 1629.84  184.88 
   1   3  -4 1670.53  186.38 
   1   3  -4 1442.96  183.98 
   1   3  -4 1542.45  181.88 
   1   3  -4 1502.55  183.58 
   1   3  -4 1792.52  184.18 
   1   3  -4 1429.66  184.48 
  -1  -3   4 1834.12  183.78 
  -1  -3   4 1458.35  183.38 
  -1  -3   4 1728.23  185.88 
  -1  -3   4 1558.44  183.38 
  -1  -3   4 1402.86  184.48 
  -1  -3   4 1585.64  184.98 
  -1  -3   4 1667.43  183.88 
   1   2  -5 1208.98  139.09 
   1   2  -5 1051.19  139.79 
   1   2  -5 1264.67  138.89 
   1   2  -5 1216.08  140.49 
   1   2  -5 1200.08  140.79 
   1   2  -5 1159.98  137.49 
   1   2  -5 1144.79  135.19 
   1   2  -5 1417.56  140.39 
   1   2  -5 1212.28  140.39 
  -1  -2   5 1046.80  138.59 
  -1  -2   5 1273.07  139.29 
  -1  -2   5 1125.49  138.29 
  -1  -2   5 1352.96  141.19 
  -1  -2   5 1267.57  140.69 
  -1  -2   5 1203.58  140.29 
  -1  -2   5 1292.77  138.89 
  -1  -2   5 1155.98  138.89 
   1   1  -6  687.53   84.99 
   1   1  -6  780.52   80.89 
   1   1  -6  781.62   85.49 
   1   1  -6  705.63   85.99 
   1   1  -6  750.12   84.39 
   1   1  -6  790.72   84.79 
   1   1  -6  644.54   84.09 
   1   1  -6  605.34   82.59 
   1   1  -6  728.53   85.19 
  -1  -1   6  708.63   84.89 
  -1  -1   6  677.23   84.79 
  -1  -1   6  715.13   84.69 
  -1  -1   6  683.33   84.19 
  -1  -1   6  779.32   85.19 
  -1  -1   6  700.43   85.99 
  -1  -1   6  763.32   86.19 
   1   0  -7    8.10    5.80 
   1   0  -7    9.70    6.40 
   1   0  -7    1.60    3.80 
   1   0  -7    2.10    5.00 
   1   0  -7   -1.30    5.20 
  -1   0   7    5.20    6.20 
  -1   0   7   14.50    6.00 
  -1   0   7   -2.20    6.50 
  -1   0   7   -1.30    6.20 
  -1   0   7   -1.20    6.40 
  -1   0   7    3.30    6.40 
  -1   0   7    4.10    1.90 
  -1   0   7    6.40    6.70 
   1  -1  -8  147.29   20.80 
   1  -1  -8  118.79   20.10 
   1  -1  -8  139.29   20.80 
   1  -1  -8  124.59   20.90 
   1  -1  -8  140.79   20.40 
   1  -1  -8  131.79   20.20 
   1  -1  -8  145.39   15.90 
  -1   1   8  121.49   23.10 
  -1   1   8  118.39   20.00 
  -1   1   8  147.69   22.90 
  -1   1   8  128.39   15.40 
  -1   1   8  121.09   21.90 
  -1   1   8   98.39   21.10 
  -1   1   8  113.79   21.80 
  -1   1   8   99.39   20.70 
  -1   1   8  120.59   15.70 
   1  -2  -9 1831.42  215.28 
   1  -2  -9 2191.98  216.28 
   1  -2  -9 1924.51  213.48 
   1  -2  -9 2042.80  210.78 
   1  -2  -9 1877.91  215.28 
   1  -2  -9 1780.02  215.38 
   1  -2  -9 1809.02  215.78 
  -1   2   9 1964.00  218.38 
  -1   2   9 1915.91  216.98 
  -1   2   9 1811.92  216.58 
  -1   2   9 1826.52  216.98 
  -1   2   9 1737.63  217.18 
  -1   2   9 1936.01  216.98 
  -1   2   9 1998.20  217.38 
  -1   2   9 1895.11  210.08 
  -1   2   9 1618.44  215.98 
   1  -3 -10   19.70   10.70 
   1  -3 -10   36.00   14.60 
   1  -3 -10   24.40   13.70 
   1  -3 -10   32.50   11.50 
   1  -3 -10   23.80    9.00 
   1  -3 -10   50.59   13.10 
  -1   3  10   58.99   15.90 
  -1   3  10   42.10   14.60 
  -1   3  10   53.89   16.50 
  -1   3  10   46.40   15.80 
  -1   3  10   55.19   15.30 
  -1   3  10   50.29    7.50 
  -1   3  10   31.50   14.80 
  -1   3  10   71.39   19.20 
  -1   3  10   44.20   14.40 
   1  -4 -11  274.97   48.80 
   1  -4 -11  350.76   48.50 
   1  -4 -11  317.47   48.10 
   1  -4 -11  362.96   47.30 
   1  -4 -11  375.66   46.70 
   1  -4 -11  351.66   43.10 
  -1   4  11  328.07   48.50 
  -1   4  11  351.36   49.99 
  -1   4  11  264.57   49.50 
  -1   4  11  379.96   51.09 
  -1   4  11  325.07   51.69 
  -1   4  11  359.46   51.09 
  -1   4  11  335.07   51.99 
  -1   4  11  365.26   51.59 
   1  -5 -12   39.20   15.50 
   1  -5 -12   41.50   11.60 
  -1   5  12   28.60   22.10 
  -1   5  12   32.80    7.30 
  -1   5  12   36.70   18.60 
  -1   5  12   82.49   26.30 
  -1   5  12  -12.50   18.90 
  -1   5  12   49.50   20.20 
   1  -6 -13   22.00   12.00 
   1  -6 -13   13.20   16.90 
   1  -6 -13   23.90   18.70 
  -1   6  13   10.90    6.30 
  -1   6  13   14.30   19.20 
  -1   6  13  -41.20   29.20 
   1  -7 -14   22.70   20.90 
   1  -7 -14   39.10   15.10 
   1  -7 -14   36.00   20.20 
  -1   7  14   47.40   21.60 
  -1   7  14   26.50   39.20 
  -1   7  14   29.90   29.70 
  -1   7  14   13.90    8.20 
  -1   7  14   54.99   28.10 
   2  11   3  664.63   91.09 
   2  11   3  813.02   95.19 
   2  11   3  630.74   74.99 
   2  11   3  496.75   87.49 
   2  11   3  551.74   87.69 
  -2 -11  -3  757.82   99.99 
  -2 -11  -3  688.33  118.59 
  -2 -11  -3  708.33   93.99 
  -2 -11  -3  627.84   88.09 
   2  10   2   21.10   21.00 
   2  10   2    7.70   19.90 
   2  10   2    5.00   20.60 
   2  10   2   23.00   26.80 
   2  10   2   12.80    6.50 
  -2 -10  -2   68.29   44.60 
  -2 -10  -2    4.90   18.50 
  -2 -10  -2   -6.80   23.70 
  -2 -10  -2   25.70   24.30 
   2   9   1   -8.80   16.70 
   2   9   1   21.80   21.80 
   2   9   1    2.80   17.40 
   2   9   1   10.20    5.70 
   2   9   1   -8.80   19.50 
  -2  -9  -1   28.80   31.80 
  -2  -9  -1   10.00   13.90 
  -2  -9  -1    0.20   17.20 
  -2  -9  -1   35.40   17.30 
  -2  -9  -1    0.00   32.50 
  -2  -9  -1   27.10   20.80 
   2   8   0  940.31  123.59 
   2   8   0 1041.00  118.89 
   2   8   0  725.33  112.59 
   2   8   0  997.70  106.99 
   2   8   0  917.81  115.49 
  -2  -8   0  927.11  121.79 
  -2  -8   0 1086.19  120.79 
  -2  -8   0 1115.09  128.29 
  -2  -8   0  796.02  111.59 
  -2  -8   0  915.11  115.99 
   2   7  -1  497.55   83.39 
   2   7  -1  547.55   84.49 
   2   7  -1  861.71   89.79 
   2   7  -1  699.33   85.29 
   2   7  -1  811.02   89.89 
   2   7  -1  546.65   85.09 
  -2  -7   1  791.02   92.09 
  -2  -7   1  619.84   86.49 
  -2  -7   1  623.74   89.79 
  -2  -7   1  640.74   90.29 
  -2  -7   1  605.14   81.59 
  -2  -7   1  833.72   91.59 
   2   6  -2 1081.09  118.59 
   2   6  -2 1051.19  114.39 
   2   6  -2  730.63  111.79 
   2   6  -2  846.22  110.49 
   2   6  -2  951.10  115.89 
  -2  -6   2  902.01  115.99 
  -2  -6   2 1154.58  118.19 
  -2  -6   2 1050.29  117.29 
  -2  -6   2  712.33  111.89 
  -2  -6   2  905.11  115.69 
  -2  -6   2  994.30  117.29 
  -2  -6   2 1147.89  118.49 
  -2  -6   2  848.02  106.89 
  -2  -6   2  899.41  110.79 
   2   5  -3 3213.98  391.46 
   2   5  -3 2864.11  392.26 
   2   5  -3 3548.04  396.96 
   2   5  -3 4190.28  397.76 
   2   5  -3 3772.82  394.56 
  -2  -5   3 3546.45  396.96 
  -2  -5   3 3120.89  395.16 
  -2  -5   3 4009.20  395.96 
  -2  -5   3 3285.77  394.56 
  -2  -5   3 3341.27  395.66 
  -2  -5   3 3289.77  395.66 
  -2  -5   3 3660.33  392.96 
   2   4  -4 2403.06  283.57 
   2   4  -4 2728.83  286.97 
   2   4  -4 2499.85  288.47 
   2   4  -4 2934.11  288.47 
   2   4  -4 2814.02  287.57 
  -2  -4   4 2477.15  287.97 
  -2  -4   4 2140.79  282.67 
  -2  -4   4 2544.15  285.17 
  -2  -4   4 2102.79  285.07 
  -2  -4   4 2072.89  286.37 
  -2  -4   4 2765.22  289.87 
  -2  -4   4 2777.92  288.27 
   2   3  -5   20.90   11.30 
   2   3  -5   -6.00    8.20 
   2   3  -5   13.60    9.00 
   2   3  -5   36.70    9.60 
   2   3  -5   10.70    9.60 
   2   3  -5    4.40    9.60 
   2   3  -5   14.50    4.30 
  -2  -3   5   26.20   10.20 
  -2  -3   5   13.20    8.30 
  -2  -3   5    1.80    7.50 
  -2  -3   5    4.20    9.40 
  -2  -3   5   13.00   11.10 
  -2  -3   5    1.80    8.00 
  -2  -3   5    7.50    8.90 
   2   2  -6  109.19   20.00 
   2   2  -6  102.09   15.30 
   2   2  -6   97.59   18.70 
   2   2  -6   98.49   20.60 
   2   2  -6   88.49   12.50 
   2   2  -6  103.79   18.00 
   2   2  -6   97.79   20.00 
   2   2  -6  109.79   19.20 
   2   2  -6  116.59   18.60 
  -2  -2   6  108.89   21.20 
  -2  -2   6   78.99   18.30 
  -2  -2   6  103.49   17.50 
  -2  -2   6   72.19   16.40 
  -2  -2   6   80.99   17.10 
  -2  -2   6   77.59   18.40 
  -2  -2   6   80.59   18.60 
  -2  -2   6   86.59   17.10 
   2   1  -7  187.68   28.20 
   2   1  -7  191.88   28.70 
   2   1  -7  208.88   24.30 
   2   1  -7  230.48   28.60 
   2   1  -7  212.08   29.50 
   2   1  -7  195.58   28.30 
   2   1  -7  199.78   26.40 
   2   1  -7  194.98   29.40 
   2   1  -7  215.78   29.50 
   2   1  -7  177.78   24.40 
  -2  -1   7  211.38   29.50 
  -2  -1   7  215.88   30.50 
  -2  -1   7  247.98   31.10 
  -2  -1   7  200.78   27.90 
  -2  -1   7  209.18   30.60 
  -2  -1   7  180.58   28.80 
  -2  -1   7  180.78   28.20 
   2   0  -8  745.53   76.39 
   2   0  -8  556.94   75.69 
   2   0  -8  629.64   73.39 
   2   0  -8  749.82   76.79 
   2   0  -8  631.14   75.89 
   2   0  -8  673.33   75.99 
   2   0  -8  634.04   71.99 
   2   0  -8  551.54   75.59 
  -2   0   8  607.64   76.29 
  -2   0   8  560.34   75.89 
  -2   0   8  588.04   77.69 
  -2   0   8  636.04   71.69 
  -2   0   8  623.64   77.29 
  -2   0   8  679.03   78.69 
  -2   0   8  614.94   75.99 
  -2   0   8  625.84   76.79 
   2  -1  -9 1929.71  204.28 
   2  -1  -9 1985.10  208.68 
   2  -1  -9 1804.82  208.58 
   2  -1  -9 1946.61  208.88 
   2  -1  -9 2068.99  208.68 
   2  -1  -9 1669.73  205.38 
   2  -1  -9 1955.90  208.58 
   2  -1  -9 1736.73  208.48 
  -2   1   9 1544.15  210.08 
  -2   1   9 1949.70  211.98 
  -2   1   9 1869.51  204.38 
  -2   1   9 1736.53  209.28 
  -2   1   9 1752.12  209.48 
  -2   1   9 1860.31  209.38 
  -2   1   9 1933.31  210.68 
  -2   1   9 1646.34  209.38 
  -2   1   9 1677.83  203.08 
   2  -2 -10   96.79   15.20 
   2  -2 -10  102.39   11.70 
   2  -2 -10   48.40   15.20 
   2  -2 -10   96.99   17.80 
   2  -2 -10   75.69   18.40 
   2  -2 -10   64.29   16.90 
   2  -2 -10   88.99   17.50 
  -2   2  10   99.09   22.50 
  -2   2  10   78.89   11.70 
  -2   2  10   52.09   16.50 
  -2   2  10   66.89   17.10 
  -2   2  10   55.39   18.00 
  -2   2  10   74.49   19.00 
  -2   2  10   85.39   21.60 
  -2   2  10   64.49   17.30 
  -2   2  10   85.79   20.10 
   2  -3 -11   21.50   12.10 
   2  -3 -11   25.60   13.90 
   2  -3 -11   38.90   13.10 
   2  -3 -11   36.50   12.50 
   2  -3 -11   21.50   14.50 
  -2   3  11   34.50   16.50 
  -2   3  11   28.20   17.40 
  -2   3  11   36.90   13.50 
  -2   3  11   34.90    7.40 
  -2   3  11   39.20   18.40 
  -2   3  11    9.80   17.40 
  -2   3  11   32.70   15.80 
  -2   3  11   51.29   18.50 
  -2   3  11   36.70   16.10 
   2  -4 -12  930.31  111.99 
   2  -4 -12  914.31  106.79 
   2  -4 -12  916.91  113.59 
  -2   4  12  907.51  105.19 
  -2   4  12 1007.60  115.69 
  -2   4  12  791.02  119.79 
  -2   4  12 1118.69  119.19 
  -2   4  12  893.61  116.49 
  -2   4  12  993.00  116.49 
  -2   4  12  829.82  105.89 
  -2   4  12 1017.50  116.69 
   2  -5 -13    4.40   13.00 
   2  -5 -13   19.20   14.90 
   2  -5 -13   18.30    9.20 
  -2   5  13    5.80   16.50 
  -2   5  13  -13.80   21.00 
  -2   5  13   13.90   24.60 
  -2   5  13    7.30   21.60 
  -2   5  13   14.90   19.20 
  -2   5  13    4.30    6.50 
   2  -6 -14  135.49   29.40 
   2  -6 -14  141.99   34.20 
   2  -6 -14  118.29   22.90 
  -2   6  14  130.99   21.10 
  -2   6  14  118.69   33.40 
  -2   6  14  138.69   41.00 
  -2   6  14  156.68   40.10 
  -2   6  14  163.18   39.30 
   2  -7 -15   59.69   27.50 
   2  -7 -15   74.39   20.80 
  -2   7  15   84.79   46.30 
  -2   7  15  126.09   36.00 
  -2   7  15  126.09   38.70 
   3  11   2  178.78   46.10 
   3  11   2  133.49   22.30 
   3  11   2  108.99   37.20 
   3  11   2  175.48   42.60 
   3  11   2  177.38   37.40 
  -3 -11  -2  160.48   35.50 
  -3 -11  -2  161.08   41.10 
  -3 -11  -2  189.58   50.39 
  -3 -11  -2  252.07   60.99 
   3  10   1   14.10   21.50 
   3  10   1  -27.40   25.60 
   3  10   1   -2.80   21.80 
  -3 -10  -1   -6.60   21.00 
  -3 -10  -1   48.30   45.00 
  -3 -10  -1   27.00   26.20 
  -3 -10  -1   -0.10   26.00 
  -3 -10  -1   15.80   18.80 
   3   9   0  357.76   61.69 
   3   9   0  404.36   47.40 
   3   9   0  376.36   59.59 
   3   9   0  401.16   66.29 
   3   9   0  276.97   54.49 
  -3  -9   0  524.65   65.69 
  -3  -9   0  517.15   66.39 
  -3  -9   0  420.76   62.09 
  -3  -9   0  308.97   54.49 
  -3  -9   0  260.87   66.59 
  -3  -9   0  482.85   72.09 
   3   8  -1   13.10   18.40 
   3   8  -1  -18.00   20.60 
   3   8  -1    3.20   16.80 
   3   8  -1  -22.40   20.20 
   3   8  -1   -6.70   13.40 
  -3  -8   1   -6.00   17.00 
  -3  -8   1   31.30   27.40 
  -3  -8   1   -2.90   17.90 
  -3  -8   1   13.70   20.70 
  -3  -8   1   -0.30   13.00 
   3   7  -2  446.46   63.09 
   3   7  -2  424.56   65.99 
   3   7  -2  334.27   56.99 
   3   7  -2  432.86   58.09 
  -3  -7   2  541.45   68.09 
  -3  -7   2  472.55   70.59 
  -3  -7   2  388.96   52.89 
  -3  -7   2  368.76   56.89 
  -3  -7   2  571.34   68.09 
  -3  -7   2  560.04   66.89 
  -3  -7   2  426.16   74.39 
  -3  -7   2  352.96   61.09 
   3   6  -3   47.30   21.80 
   3   6  -3   17.20   16.70 
   3   6  -3   25.00   13.40 
   3   6  -3   17.40   15.00 
   3   6  -3   88.89   27.00 
   3   6  -3   43.10   15.40 
   3   6  -3   13.20   14.50 
  -3  -6   3    9.40   15.20 
  -3  -6   3   20.20   17.90 
  -3  -6   3    3.50   19.80 
  -3  -6   3   26.10    9.40 
  -3  -6   3   38.40   18.80 
  -3  -6   3   44.80   20.70 
  -3  -6   3   56.69   15.90 
  -3  -6   3   37.90   17.80 
   3   5  -4 1727.53  192.08 
   3   5  -4 1793.82  192.18 
   3   5  -4 1645.34  189.38 
   3   5  -4 1371.46  187.58 
   3   5  -4 1570.54  192.88 
   3   5  -4 1606.44  187.38 
   3   5  -4 1944.31  191.48 
  -3  -5   4 1644.04  194.48 
  -3  -5   4 1789.72  194.78 
  -3  -5   4 1741.03  189.58 
  -3  -5   4 1838.22  191.18 
  -3  -5   4 1375.56  190.48 
  -3  -5   4 1417.76  190.78 
  -3  -5   4 1392.46  189.28 
   3   4  -5    6.30    7.80 
   3   4  -5    8.80   13.40 
   3   4  -5    0.80    9.40 
   3   4  -5    7.20   11.30 
   3   4  -5   14.30   12.70 
   3   4  -5    2.60    8.40 
   3   4  -5   -1.00    8.00 
   3   4  -5    6.20    3.20 
   3   4  -5   -9.20    9.40 
  -3  -4   5    2.50   12.70 
  -3  -4   5    7.00    7.40 
  -3  -4   5   20.70   11.90 
  -3  -4   5   15.10   12.00 
  -3  -4   5   -2.00   10.20 
  -3  -4   5   -9.80   11.00 
  -3  -4   5   10.20   13.20 
  -3  -4   5   -1.00   10.40 
   3   3  -6 2966.80  361.26 
   3   3  -6 3221.68  362.56 
   3   3  -6 3536.95  365.86 
   3   3  -6 2979.90  363.56 
   3   3  -6 2890.11  357.06 
   3   3  -6 3264.77  359.36 
   3   3  -6 3142.49  361.36 
   3   3  -6 3718.43  364.26 
  -3  -3   6 3443.36  362.66 
  -3  -3   6 3057.69  361.96 
  -3  -3   6 2821.32  360.86 
  -3  -3   6 3254.27  363.66 
  -3  -3   6 3304.27  365.96 
  -3  -3   6 2824.12  360.36 
  -3  -3   6 3232.08  362.76 
  -3  -3   6 3677.23  368.06 
   3   2  -7   66.39   15.40 
   3   2  -7   73.39   15.40 
   3   2  -7   50.89   10.50 
   3   2  -7   60.19   10.50 
   3   2  -7   89.09   19.10 
   3   2  -7   54.99   15.00 
   3   2  -7   65.09   13.30 
   3   2  -7   47.00   15.50 
   3   2  -7   53.09   14.40 
   3   2  -7   54.09   16.50 
  -3  -2   7   96.99   21.40 
  -3  -2   7   38.90   13.60 
  -3  -2   7   67.19   15.30 
  -3  -2   7   75.59   19.00 
  -3  -2   7   57.09   13.00 
  -3  -2   7   56.79   14.90 
  -3  -2   7   39.60   13.60 
  -3  -2   7   47.00   15.50 
   3   1  -8 1664.83  185.08 
   3   1  -8 1588.84  186.08 
   3   1  -8 1747.33  188.68 
   3   1  -8 1813.12  185.18 
   3   1  -8 1935.41  189.38 
   3   1  -8 1691.63  190.08 
   3   1  -8 1766.02  189.88 
   3   1  -8 1542.85  189.28 
   3   1  -8 1453.55  187.88 
  -3  -1   8 1536.05  189.78 
  -3  -1   8 1573.64  190.78 
  -3  -1   8 1537.75  190.98 
  -3  -1   8 1737.63  193.08 
  -3  -1   8 1932.11  193.68 
  -3  -1   8 1449.85  184.18 
  -3  -1   8 1450.25  188.88 
  -3  -1   8 1651.63  189.38 
   3   0  -9   -6.10    7.50 
   3   0  -9   -3.90    5.80 
   3   0  -9    5.50    8.40 
   3   0  -9  -12.20    9.00 
   3   0  -9    3.20    2.90 
   3   0  -9    1.90    5.30 
   3   0  -9    0.40    9.90 
   3   0  -9   20.90   10.00 
  -3   0   9    2.80    3.00 
  -3   0   9    0.10    8.80 
  -3   0   9  -13.80    8.70 
  -3   0   9    1.00    9.40 
  -3   0   9   -6.40   11.90 
  -3   0   9    8.00   10.40 
  -3   0   9    7.00    8.80 
  -3   0   9   -1.30    9.20 
   3  -1 -10   56.69   13.80 
   3  -1 -10   32.70   12.00 
   3  -1 -10   32.20   12.40 
   3  -1 -10   38.00   11.50 
   3  -1 -10   46.10    8.60 
   3  -1 -10   28.60    8.80 
   3  -1 -10   26.60   11.80 
   3  -1 -10   35.60   13.60 
  -3   1  10   79.49   17.50 
  -3   1  10   29.80   16.40 
  -3   1  10   48.60   14.90 
  -3   1  10   31.40   16.40 
  -3   1  10   42.00   15.50 
  -3   1  10   28.60   13.60 
  -3   1  10   30.80   15.80 
  -3   1  10   34.10    7.60 
   3  -2 -11   25.70   10.40 
   3  -2 -11   -1.80   11.60 
   3  -2 -11   24.00    8.10 
   3  -2 -11   27.20   12.80 
   3  -2 -11   33.40    7.30 
   3  -2 -11   41.00   13.40 
   3  -2 -11   23.40    8.60 
   3  -2 -11   41.70   13.90 
  -3   2  11   42.30   15.50 
  -3   2  11   29.90   16.10 
  -3   2  11   36.80   17.40 
  -3   2  11   25.40   12.60 
  -3   2  11   48.50   16.00 
  -3   2  11   19.70   16.30 
  -3   2  11   22.50   13.60 
  -3   2  11   -2.70   14.80 
  -3   2  11   16.10    6.20 
   3  -3 -12  395.86   49.20 
   3  -3 -12  455.05   55.19 
   3  -3 -12  388.96   55.79 
   3  -3 -12  374.86   49.80 
   3  -3 -12  486.75   55.09 
  -3   3  12  418.86   59.89 
  -3   3  12  366.16   49.20 
  -3   3  12  403.56   58.49 
  -3   3  12  443.06   59.19 
  -3   3  12  426.56   60.19 
  -3   3  12  376.46   57.39 
  -3   3  12  548.25   63.79 
   3  -4 -13  -26.60   12.80 
   3  -4 -13   -1.70   13.40 
  -3   4  13    8.10   22.90 
  -3   4  13  -15.80   19.70 
  -3   4  13   10.40   17.80 
  -3   4  13   11.40   20.90 
  -3   4  13  -16.00   15.90 
  -3   4  13    6.90   16.40 
   3  -5 -14   16.50   14.60 
   3  -5 -14   23.70   18.00 
   3  -5 -14   20.90   10.30 
  -3   5  14   36.70   23.00 
  -3   5  14   70.99   29.70 
  -3   5  14   51.19   27.00 
  -3   5  14   15.90   21.00 
   3  -6 -15   -4.30   11.10 
   3  -6 -15   17.80   20.60 
   3  -6 -15  -10.30   18.50 
  -3   6  15   26.60   36.40 
  -3   6  15  -14.50   28.20 
  -3   6  15  -18.20   35.00 
  -3   6  15    1.50   25.30 
   4  11   1  209.68   54.99 
   4  11   1  240.88   47.40 
   4  11   1  190.18   50.49 
   4  11   1  258.17   53.99 
  -4 -11  -1  445.56   68.39 
  -4 -11  -1  364.06   62.79 
  -4 -11  -1  384.56   64.59 
  -4 -11  -1  201.08   47.30 
  -4 -11  -1  363.06   80.79 
   4  10   0 1214.18  141.69 
   4  10   0 1066.29  145.99 
  -4 -10   0 1170.38  143.29 
   4   9  -1   11.90   21.60 
   4   9  -1  -17.90   22.00 
   4   9  -1    0.60   17.80 
   4   9  -1  -19.90   24.80 
  -4  -9   1   26.90   33.10 
  -4  -9   1   -9.90   29.20 
  -4  -9   1    6.50   35.40 
  -4  -9   1  -12.30   23.30 
  -4  -9   1    4.80   25.00 
   4   8  -2   20.50   15.80 
   4   8  -2   -6.50   16.30 
   4   8  -2   11.70   22.00 
   4   8  -2    9.60   21.70 
  -4  -8   2   13.70   26.90 
  -4  -8   2    7.30   14.90 
  -4  -8   2   -7.60   22.20 
  -4  -8   2   30.50   33.20 
  -4  -8   2    0.10   26.20 
  -4  -8   2    6.30   20.70 
  -4  -8   2   -1.90   21.00 
  -4  -8   2   -6.60    9.60 
   4   7  -3  422.86   57.59 
   4   7  -3  524.15   65.79 
   4   7  -3  528.65   62.79 
   4   7  -3  551.54   69.49 
  -4  -7   3  424.86   67.59 
  -4  -7   3  474.75   66.19 
  -4  -7   3  311.07   62.49 
  -4  -7   3  353.26   56.69 
  -4  -7   3  432.86   65.99 
  -4  -7   3  443.66   65.49 
  -4  -7   3  495.05   66.59 
  -4  -7   3  313.17   52.79 
   4   6  -4  449.26   60.99 
   4   6  -4  442.56   60.69 
   4   6  -4  318.17   52.59 
   4   6  -4  603.34   67.59 
   4   6  -4  348.47   53.59 
   4   6  -4  439.36   55.29 
  -4  -6   4  520.35   63.39 
  -4  -6   4  398.26   57.09 
  -4  -6   4  410.06   57.59 
  -4  -6   4  406.46   61.99 
  -4  -6   4  410.16   55.29 
  -4  -6   4  412.96   57.09 
  -4  -6   4  438.36   63.09 
  -4  -6   4  278.27   61.19 
  -4  -6   4  323.27   49.20 
   4   5  -5  609.74   79.09 
   4   5  -5  656.13   76.99 
   4   5  -5  529.05   73.19 
   4   5  -5  478.95   73.89 
   4   5  -5  666.93   70.49 
   4   5  -5  577.44   78.09 
   4   5  -5  614.24   79.09 
  -4  -5   5  711.13   78.09 
  -4  -5   5  640.04   77.29 
  -4  -5   5  468.95   70.69 
  -4  -5   5  631.64   78.79 
  -4  -5   5  671.33   84.39 
  -4  -5   5  678.93   80.49 
  -4  -5   5  557.74   81.19 
   4   4  -6  196.98   31.80 
   4   4  -6  235.58   42.30 
   4   4  -6  295.17   37.90 
   4   4  -6  185.48   27.50 
   4   4  -6  244.68   31.90 
   4   4  -6  169.08   38.70 
   4   4  -6  265.87   35.50 
   4   4  -6  229.28   38.90 
   4   4  -6  216.28   32.90 
  -4  -4   6  194.88   35.20 
  -4  -4   6  247.08   36.10 
  -4  -4   6  252.77   44.90 
  -4  -4   6  196.98   30.30 
  -4  -4   6  224.48   38.50 
  -4  -4   6  135.09   33.60 
  -4  -4   6  298.17   43.40 
  -4  -4   6  202.88   34.80 
  -4  -4   6  255.37   38.50 
   4   3  -7   15.80    5.50 
   4   3  -7   17.00   11.00 
   4   3  -7   14.10    8.60 
   4   3  -7   14.60    7.80 
   4   3  -7    2.10    3.70 
   4   3  -7    8.70   11.50 
   4   3  -7   11.60   13.10 
   4   3  -7    7.80   10.00 
   4   3  -7   -0.20   12.10 
   4   3  -7   13.30   13.90 
  -4  -3   7   -5.30   14.00 
  -4  -3   7   17.90   11.40 
  -4  -3   7    7.80   10.70 
  -4  -3   7    3.30   10.10 
  -4  -3   7   -3.20   10.50 
  -4  -3   7   10.50   15.40 
  -4  -3   7   -4.50   10.20 
  -4  -3   7   -5.80   11.30 
   4   2  -8 2040.80  205.38 
   4   2  -8 1987.20  209.58 
   4   2  -8 1817.02  205.68 
   4   2  -8 1830.92  206.18 
   4   2  -8 2013.40  212.18 
   4   2  -8 1796.12  210.98 
   4   2  -8 1724.53  207.88 
   4   2  -8 1793.52  209.88 
   4   2  -8 1702.03  213.98 
  -4  -2   8 2046.80  216.08 
  -4  -2   8 1754.62  211.48 
  -4  -2   8 1601.84  208.28 
  -4  -2   8 1938.61  215.48 
  -4  -2   8 1584.84  208.88 
  -4  -2   8 1718.33  210.18 
  -4  -2   8 1966.60  210.28 
  -4  -2   8 1629.14  207.88 
   4   1  -9  868.01  105.29 
   4   1  -9  856.31  107.39 
   4   1  -9  894.31  104.79 
   4   1  -9  978.40  107.69 
   4   1  -9  837.52  108.49 
   4   1  -9  900.31  109.59 
   4   1  -9  918.91  103.89 
   4   1  -9  927.41  108.79 
  -4  -1   9  885.81  109.49 
  -4  -1   9  984.70  114.09 
  -4  -1   9  904.11  107.99 
  -4  -1   9  818.72  109.09 
  -4  -1   9  911.21  112.09 
  -4  -1   9 1049.99  114.99 
   4   0 -10  239.18   31.30 
   4   0 -10  207.08   30.40 
   4   0 -10  194.98   28.00 
   4   0 -10  204.98   26.20 
   4   0 -10  158.98   29.70 
   4   0 -10  205.98   28.80 
   4   0 -10  211.58   25.20 
   4   0 -10  220.48   33.60 
  -4   0  10  163.18   24.00 
  -4   0  10  205.78   37.00 
  -4   0  10  162.58   31.60 
  -4   0  10  193.68   33.20 
  -4   0  10  150.18   36.70 
  -4   0  10  145.19   35.10 
  -4   0  10  208.58   33.20 
  -4   0  10  198.58   37.00 
   4  -1 -11  411.06   42.90 
   4  -1 -11  346.07   42.60 
   4  -1 -11  292.47   48.60 
   4  -1 -11  367.66   46.60 
   4  -1 -11  357.26   48.30 
   4  -1 -11  371.16   47.90 
  -4   1  11  304.47   51.59 
  -4   1  11  433.56   55.99 
  -4   1  11  317.27   39.80 
  -4   1  11  306.47   49.10 
  -4   1  11  328.27   55.49 
  -4   1  11  437.86   54.19 
  -4   1  11  353.06   49.60 
   4  -2 -12  945.01  108.29 
   4  -2 -12  958.00  108.09 
   4  -2 -12  842.82  113.29 
   4  -2 -12 1089.09  114.79 
   4  -2 -12  993.10  112.39 
   4  -2 -12  952.90  107.99 
  -4   2  12 1073.99  122.39 
  -4   2  12  843.32  108.39 
  -4   2  12  970.00  116.49 
  -4   2  12  927.01  116.39 
  -4   2  12  903.31  115.99 
  -4   2  12  915.51  117.79 
   4  -3 -13   -5.00    6.00 
   4  -3 -13    2.70   13.10 
   4  -3 -13    6.30    7.80 
   4  -3 -13    4.50    5.10 
   4  -3 -13    2.90   10.60 
  -4   3  13   -0.80   18.40 
  -4   3  13  -10.10   22.10 
  -4   3  13   20.40   21.30 
  -4   3  13   12.70   19.40 
  -4   3  13  -12.30   16.90 
  -4   3  13    2.60   16.30 
   4  -4 -14   14.20    7.80 
   4  -4 -14   15.30   13.20 
   4  -4 -14    2.70    9.10 
  -4   4  14    3.60   25.30 
  -4   4  14   17.60   24.40 
  -4   4  14    5.90   15.90 
  -4   4  14   19.80   24.50 
   4  -5 -15  139.99   21.40 
   4  -5 -15  134.39   30.50 
   4  -5 -15  152.38   32.90 
   4  -5 -15  131.39   21.30 
  -4   5  15  138.59   42.90 
  -4   5  15  185.68   42.30 
  -4   5  15  162.38   47.80 
   5  10  -1  349.47   52.39 
   5  10  -1  225.88   58.29 
   5  10  -1  342.07   60.89 
   5  10  -1  272.87   61.69 
  -5 -10   1  223.68   65.69 
  -5 -10   1  511.05   74.09 
  -5 -10   1  180.18   50.29 
  -5 -10   1  471.05   71.59 
  -5 -10   1  381.56   64.79 
  -5 -10   1  414.26   68.49 
   5   9  -2  294.87   45.40 
   5   9  -2  293.97   50.59 
   5   9  -2  231.98   50.59 
   5   9  -2  281.47   60.39 
  -5  -9   2  161.48   42.90 
  -5  -9   2  219.58   57.49 
  -5  -9   2  150.68   45.70 
  -5  -9   2  276.77   66.39 
  -5  -9   2  414.66   64.79 
  -5  -9   2  306.37   60.49 
  -5  -9   2  364.66   62.99 
   5   8  -3 1424.66  157.28 
   5   8  -3 1562.04  161.08 
   5   8  -3 1447.26  165.18 
  -5  -8   3 1252.47  158.88 
  -5  -8   3 1223.18  155.08 
  -5  -8   3 1370.26  171.68 
  -5  -8   3 1143.39  160.98 
  -5  -8   3 1056.29  162.48 
  -5  -8   3 1362.66  169.58 
   5   7  -4   -9.70   15.00 
   5   7  -4   -0.40   27.80 
   5   7  -4    0.10   13.00 
   5   7  -4   14.80    7.30 
   5   7  -4    7.80   15.80 
   5   7  -4    0.10   21.70 
  -5  -7   4  -24.40   22.20 
  -5  -7   4   19.90   19.90 
  -5  -7   4    9.40   16.10 
  -5  -7   4   -4.60   21.90 
  -5  -7   4    0.40   23.90 
  -5  -7   4   11.40   23.80 
  -5  -7   4    6.70   11.40 
  -5  -7   4   20.50   26.90 
   5   6  -5   14.90    6.60 
   5   6  -5   -3.60   13.10 
   5   6  -5   20.40   13.90 
   5   6  -5   31.20   14.00 
   5   6  -5   25.10   20.80 
   5   6  -5   -2.60   13.50 
  -5  -6   5   -1.80   17.10 
  -5  -6   5   11.00   22.30 
  -5  -6   5    2.00    8.20 
  -5  -6   5   14.70   14.70 
  -5  -6   5  -15.40   22.90 
  -5  -6   5   33.20   25.20 
  -5  -6   5   38.80   19.70 
  -5  -6   5  -25.10   21.90 
   5   5  -6   -3.20    9.90 
   5   5  -6    2.90   19.20 
   5   5  -6    8.30   17.70 
   5   5  -6   11.20   19.10 
   5   5  -6   -0.60    3.80 
   5   5  -6   -1.80   14.80 
   5   5  -6    7.90   13.00 
   5   5  -6    7.70   13.10 
   5   5  -6   17.60   13.00 
  -5  -5   6   -6.70   13.80 
  -5  -5   6    0.10   13.60 
  -5  -5   6    1.00   22.00 
  -5  -5   6   -3.30   15.70 
  -5  -5   6   -6.40   18.30 
  -5  -5   6   -8.60   17.00 
  -5  -5   6    2.00   19.10 
  -5  -5   6    2.00    8.00 
  -5  -5   6   10.90   14.50 
   5   4  -7  286.17   49.40 
   5   4  -7  319.37   48.80 
   5   4  -7  355.26   38.30 
   5   4  -7  316.37   41.00 
   5   4  -7  253.47   40.90 
   5   4  -7  359.66   49.60 
   5   4  -7  212.88   40.50 
   5   4  -7  319.77   38.00 
   5   4  -7  347.17   45.00 
  -5  -4   7  363.06   47.20 
  -5  -4   7  308.87   55.59 
  -5  -4   7  307.57   46.80 
  -5  -4   7  246.38   42.30 
  -5  -4   7  222.58   44.60 
  -5  -4   7  255.87   43.10 
  -5  -4   7  251.87   39.70 
  -5  -4   7  406.76   56.39 
   5   3  -8  641.54   81.59 
   5   3  -8  830.52   85.39 
   5   3  -8  557.44   84.99 
   5   3  -8  795.32   87.89 
   5   3  -8  664.93   80.69 
   5   3  -8  585.44   81.59 
   5   3  -8  722.83   79.39 
   5   3  -8  689.03   79.89 
   5   3  -8  640.54   87.09 
  -5  -3   8  647.74   90.29 
  -5  -3   8  612.34   82.49 
  -5  -3   8  837.32   88.89 
  -5  -3   8  728.23   93.19 
  -5  -3   8  517.85   82.59 
  -5  -3   8  761.32   95.09 
  -5  -3   8  708.73   85.79 
  -5  -3   8  654.33   85.79 
   5   2  -9 1335.17  171.98 
   5   2  -9 1436.16  171.48 
   5   2  -9 1532.25  175.08 
   5   2  -9 1570.84  170.58 
   5   2  -9 1445.26  170.18 
   5   2  -9 1388.56  175.18 
   5   2  -9 1685.93  178.08 
   5   2  -9 1587.54  169.68 
   5   2  -9 1530.45  173.78 
  -5  -2   9 1482.35  173.58 
  -5  -2   9 1418.26  174.98 
  -5  -2   9 1661.13  176.18 
  -5  -2   9 1370.46  177.18 
  -5  -2   9 1261.17  172.68 
  -5  -2   9 1690.13  183.98 
  -5  -2   9 1591.74  182.18 
   5   1 -10   51.59   15.60 
   5   1 -10   45.20   10.10 
   5   1 -10   29.70   14.20 
   5   1 -10   42.00   17.40 
   5   1 -10   53.49   12.90 
   5   1 -10   44.70   15.30 
   5   1 -10   30.00   14.00 
   5   1 -10   43.90   10.90 
   5   1 -10   32.00    8.80 
  -5  -1  10   38.10   19.20 
  -5  -1  10   36.90   20.90 
  -5  -1  10   44.60   19.40 
  -5  -1  10   34.50    8.40 
  -5  -1  10   31.30   21.20 
  -5  -1  10   19.10   14.60 
  -5  -1  10   17.40   15.40 
  -5  -1  10   29.00   14.80 
   5   0 -11    1.70    7.10 
   5   0 -11    0.20    4.20 
   5   0 -11    7.60   13.10 
   5   0 -11    4.20   11.00 
   5   0 -11   -5.10   10.80 
   5   0 -11    4.00    8.90 
  -5   0  11    9.10   15.90 
  -5   0  11   16.30   14.50 
  -5   0  11   13.90    6.30 
  -5   0  11  -11.80   17.60 
  -5   0  11   10.30   14.90 
  -5   0  11   28.50   16.90 
   5  -1 -12   50.29   13.20 
   5  -1 -12   31.50    9.20 
   5  -1 -12   55.29   10.30 
  -5   1  12   38.70   24.70 
  -5   1  12   73.09   21.60 
  -5   1  12   37.40    6.10 
  -5   1  12   21.00   15.80 
  -5   1  12   18.10   18.80 
  -5   1  12   12.60   18.80 
   5  -2 -13   11.30    7.70 
   5  -2 -13    2.10    5.90 
   5  -2 -13   26.50   12.40 
   5  -2 -13   17.30   15.00 
   5  -2 -13   18.80    7.20 
  -5   2  13   22.60   22.00 
  -5   2  13   17.60   21.60 
  -5   2  13   17.10   18.60 
  -5   2  13   50.79   24.30 
  -5   2  13   17.30   20.00 
   5  -3 -14    9.20   12.30 
   5  -3 -14   17.70    4.80 
   5  -3 -14   28.10   17.70 
   5  -3 -14   -1.60    6.20 
   5  -3 -14   13.90    5.50 
  -5   3  14   52.59   25.50 
  -5   3  14    8.80   24.20 
  -5   3  14   19.40   25.80 
  -5   3  14   53.19   29.10 
  -5   3  14   35.30   20.90 
   5  -4 -15  126.59   27.90 
   5  -4 -15  101.49   28.50 
  -5   4  15  115.89   41.00 
  -5   4  15  123.99   40.30 
  -5   4  15  142.49   43.90 
  -5   4  15  160.38   41.50 
   6  10  -2  195.48   44.70 
   6  10  -2  196.98   51.29 
   6  10  -2  289.87   34.80 
   6  10  -2  182.98   38.10 
  -6 -10   2  323.57   63.39 
  -6 -10   2  170.68   44.00 
  -6 -10   2  248.28   66.79 
  -6 -10   2  194.38   51.49 
   6   9  -3   45.70   21.60 
   6   9  -3   38.20   25.90 
   6   9  -3   84.39   33.70 
  -6  -9   3  115.09   39.80 
  -6  -9   3    7.90   45.20 
  -6  -9   3   61.89   28.30 
  -6  -9   3   39.80   39.70 
  -6  -9   3   38.80   28.60 
   6   8  -4   55.69   21.60 
   6   8  -4   55.49   38.70 
   6   8  -4   29.50   23.20 
   6   8  -4   81.29   22.30 
   6   8  -4   66.99   15.10 
   6   8  -4  101.89   33.40 
  -6  -8   4   70.49   34.70 
  -6  -8   4   51.29   27.60 
  -6  -8   4   65.29   36.10 
  -6  -8   4   25.80   23.20 
  -6  -8   4   23.60   37.20 
   6   7  -5    1.90   14.60 
   6   7  -5   -4.00   18.10 
   6   7  -5   -7.70   22.20 
   6   7  -5   18.70   17.00 
  -6  -7   5   24.30   19.00 
  -6  -7   5    9.80   27.00 
  -6  -7   5   27.90   33.70 
  -6  -7   5   23.60   35.00 
  -6  -7   5    8.80   18.80 
  -6  -7   5  -31.90   23.00 
   6   6  -6  724.83   77.89 
   6   6  -6  724.43   78.09 
   6   6  -6  558.94   80.69 
   6   6  -6  689.33   88.99 
   6   6  -6  506.25   79.89 
   6   6  -6  914.21   96.89 
   6   6  -6  617.34   81.39 
  -6  -6   6  560.24   83.19 
  -6  -6   6  649.34   87.39 
  -6  -6   6  756.12   98.79 
  -6  -6   6  417.66   95.49 
  -6  -6   6  727.63   96.49 
  -6  -6   6  679.13   85.29 
   6   5  -7   47.30   15.80 
   6   5  -7   44.60   17.10 
   6   5  -7   21.90   21.20 
   6   5  -7   44.90   11.90 
   6   5  -7   37.00   11.10 
   6   5  -7   27.20   25.80 
   6   5  -7   37.70   16.70 
  -6  -5   7   75.69   33.70 
  -6  -5   7   72.89   31.20 
  -6  -5   7   19.80   19.20 
  -6  -5   7   59.29   23.10 
  -6  -5   7   62.19   23.50 
  -6  -5   7   88.89   26.90 
  -6  -5   7   73.19   21.60 
   6   4  -8   88.89   21.40 
   6   4  -8   86.99   18.80 
   6   4  -8  114.39   27.10 
   6   4  -8   84.89   16.60 
   6   4  -8   97.89   20.00 
   6   4  -8   78.29   16.00 
   6   4  -8   81.99   26.30 
  -6  -4   8  106.59   23.60 
  -6  -4   8  118.19   28.00 
  -6  -4   8   83.49   33.00 
  -6  -4   8   50.99   21.30 
  -6  -4   8   97.89   26.80 
  -6  -4   8  128.99   28.00 
  -6  -4   8  111.19   37.90 
  -6  -4   8   60.19   21.10 
   6   3  -9  -10.90   14.40 
   6   3  -9   11.60   12.80 
   6   3  -9   -9.40   15.80 
   6   3  -9    7.50    6.40 
   6   3  -9   48.00   13.40 
   6   3  -9    2.10   10.90 
   6   3  -9    0.80    4.90 
  -6  -3   9   -3.10   23.60 
  -6  -3   9    2.00   16.80 
  -6  -3   9   18.10   21.70 
  -6  -3   9   15.90   21.70 
  -6  -3   9   11.10   15.80 
  -6  -3   9   20.90   14.00 
  -6  -3   9   19.20   15.60 
  -6  -3   9    3.40   14.80 
   6   2 -10  335.67   52.19 
   6   2 -10  333.37   47.60 
   6   2 -10  386.76   46.60 
   6   2 -10  349.47   45.40 
   6   2 -10  370.26   53.19 
   6   2 -10  329.27   49.20 
   6   2 -10  371.96   47.40 
  -6  -2  10  403.36   63.69 
  -6  -2  10  362.46   52.79 
  -6  -2  10  356.06   51.69 
  -6  -2  10  422.26   55.39 
  -6  -2  10  440.16   71.29 
  -6  -2  10  414.26   51.99 
  -6  -2  10  358.46   58.49 
   6   1 -11   41.80   10.20 
   6   1 -11   62.99   14.40 
   6   1 -11   35.10   10.60 
   6   1 -11   21.00   15.00 
   6   1 -11   33.10   12.20 
   6   1 -11   22.80   15.70 
   6   1 -11   50.19   18.30 
  -6  -1  11   39.40   17.90 
  -6  -1  11   50.49   26.80 
  -6  -1  11   21.50   16.50 
   6   0 -12 2008.50  221.08 
   6   0 -12 1924.31  217.78 
   6   0 -12 1848.81  219.08 
   6   0 -12 1881.11  221.88 
   6   0 -12 1962.70  224.78 
  -6   0  12 2059.09  225.28 
  -6   0  12 1817.52  225.38 
  -6   0  12 2202.28  235.78 
  -6   0  12 1715.53  216.58 
  -6   0  12 2216.18  236.08 
   6  -1 -13    8.60    6.90 
   6  -1 -13   25.80   12.70 
   6  -1 -13   -6.60   17.80 
   6  -1 -13   17.80   15.60 
   6  -1 -13   22.00    8.60 
  -6   1  13   29.70   23.60 
  -6   1  13   10.50    3.90 
  -6   1  13   22.50   18.20 
  -6   1  13   19.30   23.90 
  -6   1  13   15.20   21.20 
  -6   1  13  -17.20   21.50 
   6  -2 -14  190.28   32.80 
   6  -2 -14  164.68   29.10 
   6  -2 -14  180.18   23.70 
  -6   2  14  121.79   34.20 
  -6   2  14  128.69   38.00 
  -6   2  14  103.79   40.10 
  -6   2  14  129.79   43.00 
  -6   2  14  141.69   40.80 
   6  -3 -15    1.10   16.60 
   6  -3 -15    2.20    7.20 
  -6   3  15  -23.00   33.50 
  -6   3  15  -11.70   30.60 
  -6   3  15   37.20   25.50 
  -6   3  15   19.00   32.20 
   7   9  -4  534.85   76.49 
   7   9  -4  433.26   76.89 
   7   9  -4  467.25   60.19 
  -7  -9   4  563.94  100.69 
  -7  -9   4  391.56   86.39 
  -7  -9   4  322.87   70.59 
  -7  -9   4  673.03   94.39 
   7   8  -5  176.18   37.60 
   7   8  -5  218.08   47.60 
   7   8  -5  284.27   44.30 
  -7  -8   5  227.38   66.49 
  -7  -8   5  242.28   56.49 
  -7  -8   5  378.26   57.99 
  -7  -8   5  132.69   40.90 
  -7  -8   5  253.57   51.59 
  -7  -8   5  331.67   66.29 
   7   7  -6  315.97   37.50 
   7   7  -6  188.08   48.30 
   7   7  -6  202.88   40.40 
   7   7  -6  290.57   36.80 
  -7  -7   6  194.68   59.29 
  -7  -7   6  262.07   68.79 
  -7  -7   6  218.18   48.60 
  -7  -7   6  247.58   47.10 
  -7  -7   6  394.66   60.29 
   7   6  -7   -5.10   15.70 
   7   6  -7  -12.40   13.30 
   7   6  -7   38.60   27.70 
   7   6  -7    7.50    7.60 
   7   6  -7    0.60    7.00 
   7   6  -7   -9.60   25.60 
  -7  -6   7    9.90   25.50 
  -7  -6   7   20.70   34.60 
  -7  -6   7  -15.00   22.20 
  -7  -6   7    8.60   16.60 
  -7  -6   7   -3.80   20.80 
  -7  -6   7  -15.60   24.50 
  -7  -6   7    5.80   28.80 
   7   5  -8   32.70   23.90 
   7   5  -8   58.99   17.90 
   7   5  -8   35.80   26.70 
   7   5  -8   34.00   14.40 
   7   5  -8   40.90   12.80 
   7   5  -8   48.60   12.40 
  -7  -5   8   44.10   21.40 
  -7  -5   8    9.20   32.00 
  -7  -5   8   52.19   26.10 
  -7  -5   8   17.10   37.30 
  -7  -5   8   31.40   18.40 
   7   4  -9  162.48   35.70 
   7   4  -9  122.79   35.30 
   7   4  -9  143.59   28.10 
   7   4  -9  160.38   27.50 
   7   4  -9  154.28   23.80 
   7   4  -9  156.68   25.00 
   7   4  -9  144.99   26.00 
  -7  -4   9  173.68   44.60 
  -7  -4   9  182.78   33.00 
  -7  -4   9  271.37   46.60 
  -7  -4   9  164.98   34.80 
  -7  -4   9  161.58   32.80 
   7   3 -10   24.50   14.40 
   7   3 -10   34.30   10.60 
   7   3 -10   -0.20   18.10 
   7   3 -10    5.90   14.20 
   7   3 -10   36.80   11.60 
   7   3 -10   36.50   18.40 
   7   3 -10   28.50   12.50 
  -7  -3  10   26.10   18.80 
  -7  -3  10   41.30   24.90 
  -7  -3  10   38.60   20.70 
  -7  -3  10   39.40   31.40 
  -7  -3  10   -1.50   17.20 
   7   2 -11  137.49   28.60 
   7   2 -11  154.98   23.90 
   7   2 -11   75.19   22.50 
   7   2 -11  113.99   22.40 
   7   2 -11  144.39   23.60 
   7   2 -11  164.88   32.30 
  -7  -2  11  190.48   46.40 
  -7  -2  11  131.19   29.00 
  -7  -2  11  150.28   30.70 
  -7  -2  11  168.18   45.90 
   7   1 -12    8.70   10.30 
   7   1 -12    5.50   10.80 
   7   1 -12  -11.60   15.40 
   7   1 -12   -3.90   16.40 
   7   1 -12    3.80   17.90 
   7   1 -12    3.60    8.30 
   7   1 -12   -1.90    6.20 
  -7  -1  12   -8.30   15.40 
  -7  -1  12    7.30   26.90 
  -7  -1  12   40.10   31.10 
  -7  -1  12   33.30   20.40 
  -7  -1  12   -1.30   21.30 
  -7  -1  12  -12.30    6.60 
   7   0 -13  -10.90   11.60 
   7   0 -13   12.90   18.40 
   7   0 -13    7.80    8.80 
   7   0 -13   -3.70    7.00 
  -7   0  13  -33.90   19.90 
  -7   0  13   38.60   23.00 
  -7   0  13  -46.50   27.30 
  -7   0  13  -14.20   28.50 
  -7   0  13    7.10    6.10 
   7  -1 -14   27.10   11.20 
   7  -1 -14   37.10   21.00 
   7  -1 -14   16.70   19.00 
   7  -1 -14   30.50   15.80 
  -7   1  14   56.59   33.40 
  -7   1  14   30.40   24.10 
  -7   1  14   24.90   33.50 
  -7   1  14   46.20   34.00 
  -7   1  14   66.59   36.50 
   7  -2 -15   89.59   25.30 
   7  -2 -15   50.29   14.60 
   7  -2 -15   87.39   21.50 
  -7   2  15  121.59   42.10 
  -7   2  15   79.29   50.29 
  -7   2  15   79.79   33.70 
   8   8  -6   20.50   20.80 
   8   8  -6   21.10   12.90 
   8   8  -6   51.89   37.60 
   8   8  -6   16.30   11.00 
  -8  -8   6   40.30   51.29 
  -8  -8   6   18.40   23.10 
   8   7  -7  231.38   38.60 
   8   7  -7  297.87   35.20 
   8   7  -7  147.49   34.10 
   8   7  -7  279.87   50.29 
   8   7  -7  235.28   33.40 
  -8  -7   7  226.88   52.69 
  -8  -7   7  331.97   71.39 
  -8  -7   7  226.08   74.19 
  -8  -7   7  153.38   49.10 
  -8  -7   7  227.48   45.80 
   8   6  -8  114.79   33.30 
   8   6  -8   77.09   19.80 
   8   6  -8   53.99   20.00 
   8   6  -8  104.19   20.70 
   8   6  -8  122.29   21.50 
  -8  -6   8   79.09   27.80 
  -8  -6   8  127.99   50.79 
  -8  -6   8  102.69   34.60 
  -8  -6   8  170.38   52.19 
  -8  -6   8  129.19   46.90 
   8   5  -9  369.16   69.89 
   8   5  -9  565.84   62.49 
   8   5  -9  440.76   59.69 
   8   5  -9  485.15   60.79 
  -8  -5   9  417.96   66.99 
  -8  -5   9  563.24   84.69 
  -8  -5   9  483.15   88.49 
  -8  -5   9  522.45   97.29 
  -8  -5   9  546.95   71.09 
   8   4 -10    5.90   22.40 
   8   4 -10    3.20    8.50 
   8   4 -10    6.00   11.40 
   8   4 -10   31.00   14.10 
  -8  -4  10   22.70   30.80 
  -8  -4  10   -6.60   22.50 
  -8  -4  10    7.40   19.10 
  -8  -4  10   74.29   46.50 
  -8  -4  10  -15.20   36.90 
   8   3 -11   20.60   14.30 
   8   3 -11    3.60   10.40 
   8   3 -11   -0.50   10.60 
   8   3 -11  -11.00   19.90 
   8   3 -11    1.60   16.70 
   8   3 -11    1.90    8.30 
  -8  -3  11   -7.60   28.70 
  -8  -3  11   49.90   22.60 
  -8  -3  11    9.80   26.10 
  -8  -3  11  -33.10   37.00 
  -8  -3  11  -29.30   31.60 
   8   2 -12  163.68   27.60 
   8   2 -12  190.78   27.50 
   8   2 -12  110.19   25.80 
   8   2 -12  229.78   38.60 
   8   2 -12  165.28   26.40 
  -8  -2  12  167.18   36.60 
  -8  -2  12  266.87   40.20 
  -8  -2  12  221.78   53.19 
  -8  -2  12  201.18   55.89 
   8   1 -13   39.80   24.50 
   8   1 -13   39.80   14.00 
   8   1 -13   34.00   17.30 
   8   1 -13   21.60   13.90 
  -8  -1  13   32.30   21.70 
  -8  -1  13   86.09   46.00 
  -8  -1  13  102.89   31.60 
   8   0 -14   40.50   25.10 
   8   0 -14   30.30   14.80 
  -8   0  14   -9.70   44.20 
  -8   0  14   30.20   25.80 
  -8   0  14   71.89   46.10 
 -11   2   5  185.68   36.60 
 -11   2   5  185.58   36.50 
 -11   2   5  221.08   52.49 
 -11   2   5  230.68   47.60 
 -11   1   4  -27.90   30.90 
 -11   1   4   56.59   36.10 
 -11   1   4    6.90   21.40 
 -11   1   4   28.20   18.20 
 -11   1   4   22.70   19.20 
 -11   0   3   -9.80   21.50 
 -11   0   3    7.00   17.60 
 -11   0   3   -1.20   22.80 
 -11   0   3    0.50   33.90 
 -11   0   3    0.50   17.00 
  11   0  -3    5.90    8.50 
  11   0  -3    9.30    7.60 
 -11  -1   2   28.60   18.70 
 -11  -1   2   44.30   30.00 
 -11  -1   2   -7.50   23.70 
 -11  -1   2   10.60   23.00 
 -11  -1   2    6.40   20.40 
  11   1  -2   -4.30    7.00 
 -11  -2   1  468.15   73.29 
 -11  -2   1  452.35   76.09 
 -11  -2   1  557.04   68.99 
 -11  -2   1  654.53   88.19 
 -11  -2   1  432.76   71.99 
 -11  -2   1  498.75   72.19 
 -11  -3   0   83.49   37.40 
 -11  -3   0  105.39   35.60 
 -11  -3   0   54.59   28.80 
 -11  -3   0   48.70   31.00 
 -11  -3   0  101.39   27.10 
 -11  -3   0  108.59   30.10 
  11   3   0   64.29   15.60 
  11   3   0   50.49   14.20 
 -11  -4  -1  545.85   76.29 
 -11  -4  -1  549.25   85.39 
 -11  -4  -1  383.66   75.29 
  11   4   1  517.85   72.39 
 -10   4   6  135.69   32.10 
 -10   4   6  125.49   29.20 
 -10   4   6   95.99   36.10 
 -10   4   6   81.89   20.40 
 -10   4   6  117.09   19.50 
 -10   4   6  125.69   31.80 
  10  -4  -6   87.09   19.40 
  10  -4  -6  105.09   28.90 
 -10   3   5   11.70    9.70 
 -10   3   5  -18.70   17.70 
 -10   3   5   22.10   25.40 
 -10   3   5   -7.90   22.70 
 -10   3   5   -5.80   17.20 
  10  -3  -5   -6.90    9.70 
  10  -3  -5   22.50    8.70 
 -10   2   4  776.92   86.29 
 -10   2   4  469.65   71.39 
 -10   2   4  676.43   76.39 
 -10   2   4  493.95   86.29 
 -10   2   4  651.73   74.59 
 -10   1   3  149.29   31.60 
 -10   1   3  230.98   46.50 
 -10   1   3  164.98   40.30 
 -10   1   3  144.19   26.70 
  10  -1  -3  139.09   23.30 
  10  -1  -3  163.88   24.10 
 -10   0   2  426.16   56.39 
 -10   0   2  442.26   63.49 
 -10   0   2  495.95   54.69 
 -10   0   2  681.03   86.89 
 -10   0   2  487.85   63.09 
  10   0  -2  402.36   53.29 
  10   0  -2  337.77   52.29 
 -10  -1   1  474.95   59.49 
 -10  -1   1  419.46   57.99 
 -10  -1   1  478.15   59.99 
  10   1  -1  363.56   48.50 
  10   1  -1  326.97   47.90 
 -10  -2   0 1951.80  190.78 
 -10  -2   0 1456.25  190.98 
 -10  -2   0 1537.75  187.58 
 -10  -2   0 1519.35  189.68 
 -10  -3  -1    6.40   27.80 
 -10  -3  -1   36.00   21.60 
 -10  -3  -1    2.10   16.10 
 -10  -3  -1    0.30   19.00 
 -10  -3  -1   -8.90   14.50 
  10   3   1   13.70   15.20 
  10   3   1    7.00    7.40 
  10   3   1    3.80    7.10 
  10   3   1    0.10    6.80 
 -10  -4  -2   36.50   20.50 
 -10  -4  -2  -16.80   32.50 
 -10  -4  -2    9.30   26.40 
 -10  -4  -2    4.60    9.00 
 -10  -4  -2    4.20    8.60 
  10   4   2   26.40   12.20 
  10   4   2   12.20    7.80 
  10   4   2   -3.80    7.70 
 -10  -5  -3  130.39   34.90 
 -10  -5  -3  141.79   23.00 
 -10  -5  -3  160.38   35.20 
 -10  -5  -3  165.88   42.20 
 -10  -5  -3  106.59   21.00 
  10   5   3   84.39   19.40 
  10   5   3  103.39   19.40 
 -10  -6  -4  -12.20   24.70 
 -10  -6  -4   19.80   33.20 
 -10  -6  -4   -6.00   15.50 
 -10  -6  -4   22.20   24.90 
  10   6   4   27.90   15.90 
  10   6   4   -0.80    8.60 
  10   6   4   14.20   20.90 
  10   6   4    8.40    8.50 
  -9   6   7    5.10   24.10 
  -9   6   7    5.90   23.40 
  -9   6   7   52.19   23.70 
  -9   6   7   19.80   26.20 
  -9   6   7   16.10   15.70 
  -9   6   7   45.90   21.60 
   9  -6  -7   33.10   18.10 
  -9   5   6   79.69   29.90 
  -9   5   6   42.60   15.40 
  -9   5   6   36.20   17.80 
  -9   5   6   86.69   32.30 
  -9   5   6   90.39   26.20 
  -9   5   6   56.49   21.70 
   9  -5  -6   60.99   21.50 
   9  -5  -6   46.70   16.50 
  -9   4   5   -8.90   15.10 
  -9   4   5  -19.00   19.10 
  -9   4   5    6.30   20.20 
  -9   4   5    8.60   12.10 
  -9   4   5   27.20   12.00 
  -9   4   5   26.50    9.90 
  -9   4   5   -0.80   12.20 
  -9   4   5   -2.50   17.00 
   9  -4  -5   11.00   10.60 
   9  -4  -5   22.20   17.90 
  -9   3   4  148.59   24.20 
  -9   3   4  212.18   41.20 
  -9   3   4  191.38   23.10 
  -9   3   4  146.49   29.00 
  -9   3   4  142.49   34.20 
  -9   3   4  176.98   29.80 
  -9   3   4  207.58   23.30 
   9  -3  -4  151.98   23.60 
   9  -3  -4  191.38   24.50 
  -9   2   3  336.07   44.20 
  -9   2   3  284.37   43.00 
  -9   2   3  315.87   55.19 
  -9   2   3  326.67   42.70 
  -9   2   3  389.36   52.69 
  -9   1   2  405.16   49.70 
  -9   1   2  262.17   57.29 
  -9   1   2  384.06   43.70 
  -9   1   2  304.47   44.70 
  -9   1   2  370.06   54.09 
   9  -1  -2  368.26   44.50 
   9  -1  -2  345.17   44.20 
  -9   0   1   -9.70   21.10 
  -9   0   1    6.50    7.50 
  -9   0   1    4.30   13.50 
  -9   0   1    0.20   14.10 
  -9   0   1   -7.60    9.30 
   9   0  -1   -5.80    4.50 
   9   0  -1    2.50    6.00 
  -9  -1   0 1398.06  148.89 
   9   1   0 1277.37  142.39 
   9   1   0 1097.89  141.39 
  -9  -2  -1  -18.00   16.80 
  -9  -2  -1   10.10   12.20 
  -9  -2  -1   -0.10   18.50 
  -9  -2  -1   23.20   16.00 
  -9  -2  -1   17.60   16.70 
   9   2   1    4.30    5.80 
   9   2   1   17.50   12.00 
   9   2   1   22.60    8.50 
  -9  -3  -2  541.15   59.09 
  -9  -3  -2  544.65   69.69 
  -9  -3  -2  547.45   58.69 
   9   3   2  487.35   61.09 
   9   3   2  486.05   59.99 
   9   3   2  474.55   60.19 
   9   3   2  541.55   60.49 
   9   3   2  431.76   58.89 
  -9  -4  -3  122.49   20.70 
  -9  -4  -3  166.28   30.10 
  -9  -4  -3  102.09   33.80 
  -9  -4  -3  107.39   21.60 
  -9  -4  -3  120.29   30.70 
  -9  -4  -3  117.69   21.10 
  -9  -4  -3  176.58   43.30 
   9   4   3  117.39   19.20 
   9   4   3  110.19   22.80 
   9   4   3  145.79   20.50 
  -9  -5  -4  502.75   61.79 
  -9  -5  -4  728.13   89.59 
  -9  -5  -4  465.05   68.99 
  -9  -5  -4  472.05   61.39 
  -9  -5  -4  620.84   76.59 
   9   5   4  493.35   63.89 
   9   5   4  407.86   57.69 
   9   5   4  477.85   59.29 
  -9  -6  -5    7.30   23.30 
  -9  -6  -5   -1.60   18.50 
  -9  -6  -5   -1.20   17.10 
  -9  -6  -5   -0.90   15.30 
  -9  -6  -5   -1.60   21.00 
   9   6   5   11.60   10.30 
   9   6   5   13.00   18.50 
   9   6   5   -8.90    6.70 
   9   6   5   -1.40    9.10 
  -8   7   7  183.08   46.00 
  -8   7   7  136.49   33.60 
  -8   7   7  185.38   32.00 
  -8   7   7  141.99   34.20 
  -8   7   7  167.68   31.30 
   8  -7  -7  132.59   30.60 
   8  -7  -7  161.58   30.50 
  -8   6   6   39.00   15.80 
  -8   6   6   26.50   24.80 
  -8   6   6   29.40   17.00 
  -8   6   6   15.60   17.30 
  -8   6   6   58.59   19.00 
  -8   6   6   26.50   23.10 
   8  -6  -6   13.20   15.40 
   8  -6  -6   51.89   10.60 
   8  -6  -6   33.30   17.50 
  -8   5   5  348.27   58.69 
  -8   5   5  306.47   46.40 
  -8   5   5  368.66   45.80 
  -8   5   5  329.07   50.29 
  -8   5   5  285.77   44.30 
  -8   5   5  261.87   44.60 
  -8   5   5  278.47   60.39 
   8  -5  -5  369.16   44.40 
   8  -5  -5  297.37   46.40 
   8  -5  -5  402.76   41.20 
  -8   4   4 1235.98  127.09 
  -8   4   4  892.71  126.19 
  -8   4   4 1162.98  131.99 
  -8   4   4 1074.59  130.39 
  -8   4   4  991.00  129.69 
  -8   4   4 1214.38  138.19 
  -8   4   4 1084.99  126.29 
  -8   4   4 1172.58  126.69 
   8  -4  -4 1171.88  125.89 
   8  -4  -4 1040.30  128.89 
  -8   3   3   88.79   14.20 
  -8   3   3   67.29   12.90 
  -8   3   3   84.89   23.50 
  -8   3   3   44.00   15.70 
  -8   3   3   71.59   14.00 
  -8   3   3   47.10   12.60 
  -8   3   3   80.29   12.50 
  -8   3   3   92.59   13.00 
  -8   3   3   70.29   21.60 
   8  -3  -3   82.19   13.70 
   8  -3  -3   77.89   12.20 
  -8   2   2    3.00    7.60 
  -8   2   2    6.30    7.50 
  -8   2   2    3.40    5.50 
  -8   2   2   -3.60   13.20 
  -8   2   2    9.10    9.50 
  -8   2   2    9.80   16.90 
   8  -2  -2    8.30    6.30 
   8  -2  -2   13.30    5.10 
  -8   1   1  420.86   57.89 
  -8   1   1  603.84   68.39 
  -8   1   1  471.85   70.69 
  -8   1   1  400.66   60.69 
  -8   1   1  582.54   65.19 
  -8   1   1  529.65   57.29 
   8  -1  -1  551.14   59.89 
   8  -1  -1  517.65   59.79 
   8  -1  -1  468.75   58.99 
  -8   0   0 1219.58  128.99 
  -8   0   0 1130.99  125.19 
  -8   0   0 1123.89  118.69 
   8   0   0  965.40  120.99 
   8   0   0  899.11  120.69 
  -8  -1  -1  631.54   76.59 
  -8  -1  -1  679.03   71.49 
   8   1   1  558.14   71.79 
   8   1   1  571.44   71.69 
  -8  -2  -2   10.40    4.40 
  -8  -2  -2   13.80   15.30 
  -8  -2  -2   20.60   16.50 
  -8  -2  -2   12.70    8.70 
  -8  -2  -2  -10.60   16.40 
  -8  -2  -2    6.30    3.40 
  -8  -2  -2   12.50   12.40 
  -8  -2  -2    7.00    8.70 
   8   2   2    9.50    5.60 
   8   2   2    1.80    4.00 
   8   2   2    3.10    7.90 
   8   2   2    6.90    5.90 
  -8  -3  -3  191.48   32.60 
  -8  -3  -3   79.79   28.70 
  -8  -3  -3  100.49   16.00 
  -8  -3  -3   77.99   22.40 
  -8  -3  -3   89.49   16.80 
  -8  -3  -3   97.09   16.50 
  -8  -3  -3  100.09   19.90 
   8   3   3   84.19   17.50 
   8   3   3   72.89   15.20 
   8   3   3   76.99   15.70 
   8   3   3  168.98   24.90 
   8   3   3  111.59   16.10 
   8   3   3  111.49   18.60 
  -8  -4  -4 1286.37  146.89 
  -8  -4  -4 1384.96  146.59 
  -8  -4  -4 1390.36  149.79 
  -8  -4  -4 1322.47  153.08 
  -8  -4  -4 1391.36  156.28 
   8   4   4 1329.77  147.89 
   8   4   4 1215.68  145.29 
   8   4   4 1081.89  145.39 
   8   4   4 1151.78  144.29 
  -8  -5  -5  504.15   56.29 
  -8  -5  -5  371.56   56.89 
  -8  -5  -5  363.96   58.09 
  -8  -5  -5  410.06   57.29 
  -8  -5  -5  400.86   53.69 
   8   5   5  440.46   56.59 
   8   5   5  525.75   56.59 
   8   5   5  409.06   55.39 
   8   5   5  332.07   48.80 
  -8  -6  -6   12.30   20.70 
  -8  -6  -6   52.69   23.30 
  -8  -6  -6   38.50   20.60 
   8   6   6   48.50   10.90 
   8   6   6   29.30   18.80 
   8   6   6   57.19   12.30 
   8   6   6   50.09   15.10 
  -8  -7  -7  231.68   44.00 
  -8  -7  -7  206.48   40.10 
  -8  -7  -7  279.37   48.70 
  -8  -7  -7  263.47   43.80 
   8   7   7  258.87   34.70 
   8   7   7  204.48   32.60 
   8   7   7  143.29   36.60 
   8   7   7  204.88   29.10 
  -7   8   7  149.88   32.70 
  -7   8   7  164.58   37.80 
  -7   8   7  118.89   38.50 
  -7   8   7   95.49   39.50 
  -7   8   7  184.88   39.30 
   7  -8  -7  171.48   25.30 
   7  -8  -7  181.88   32.40 
   7  -8  -7  219.78   23.40 
   7  -8  -7  141.99   33.70 
   7  -8  -7  163.88   24.10 
  -7   7   6  146.89   33.60 
  -7   7   6  215.08   41.10 
  -7   7   6  179.68   43.70 
  -7   7   6  156.08   37.20 
  -7   7   6  101.99   32.10 
   7  -7  -6  171.68   30.50 
   7  -7  -6  205.58   34.10 
   7  -7  -6  235.48   24.90 
  -7   6   5   -3.70   14.20 
  -7   6   5   16.00   21.00 
  -7   6   5   10.10   16.60 
  -7   6   5   24.50   11.70 
  -7   6   5    7.40   14.40 
  -7   6   5   31.60   27.70 
  -7   6   5   -5.00   11.10 
   7  -6  -5    2.10   12.60 
   7  -6  -5    4.90   12.40 
   7  -6  -5    8.90    5.20 
  -7   5   4   17.50   11.90 
  -7   5   4    7.70   19.00 
  -7   5   4   11.40    9.40 
  -7   5   4    9.70   10.10 
  -7   5   4   17.30   14.70 
  -7   5   4  -10.20   14.40 
  -7   5   4   16.80    9.10 
   7  -5  -4   30.00   11.90 
   7  -5  -4   10.00   10.60 
   7  -5  -4   23.90   11.30 
  -7   4   3  297.87   41.10 
  -7   4   3  356.16   48.20 
  -7   4   3  250.07   43.30 
  -7   4   3  283.37   41.50 
  -7   4   3  369.06   51.89 
  -7   4   3  287.07   41.70 
  -7   4   3  339.67   41.10 
  -7   4   3  312.77   43.40 
  -7   4   3  325.77   39.10 
  -7   4   3  398.76   48.20 
   7  -4  -3  298.07   40.30 
   7  -4  -3  406.36   40.30 
   7  -4  -3  407.06   45.80 
  -7   3   2  446.36   58.19 
  -7   3   2  408.36   47.90 
  -7   3   2  379.76   48.00 
  -7   3   2  479.45   56.99 
  -7   3   2  350.96   49.40 
  -7   3   2  358.56   50.89 
  -7   3   2  337.77   49.50 
  -7   3   2  460.85   47.90 
  -7   3   2  455.35   52.49 
   7  -3  -2  361.76   47.00 
   7  -3  -2  428.06   48.30 
   7  -3  -2  462.05   48.70 
  -7   2   1  616.84   88.49 
  -7   2   1  665.53   92.89 
  -7   2   1  847.72   86.59 
  -7   2   1  721.73   93.89 
  -7   2   1  782.02   87.79 
   7  -2  -1  788.82   86.59 
  -7   1   0   72.29   17.30 
  -7   1   0   51.39   12.10 
  -7   1   0   72.99   20.60 
  -7   1   0  105.29   13.90 
  -7   1   0   58.59   12.20 
  -7   1   0   94.19   25.30 
  -7   1   0   72.59   17.90 
   7  -1   0   69.19   12.70 
   7  -1   0   72.39   12.70 
   7  -1   0   79.19   19.00 
   7  -1   0   78.69   14.00 
  -7   0  -1   13.00   14.50 
  -7   0  -1    4.90    4.90 
  -7   0  -1   -1.10    4.70 
  -7   0  -1   10.00    5.60 
  -7   0  -1    8.60    8.30 
  -7   0  -1   12.60   11.10 
   7   0   1    5.40    4.10 
   7   0   1    1.40    3.50 
   7   0   1    0.80    4.40 
   7   0   1   10.50    8.60 
  -7  -1  -2   31.60   11.60 
  -7  -1  -2   20.90    7.00 
  -7  -1  -2   26.90    7.10 
  -7  -1  -2   19.50    5.80 
  -7  -1  -2   21.20   14.00 
  -7  -1  -2   24.20   11.40 
  -7  -1  -2   36.50   16.40 
  -7  -1  -2   13.70    5.80 
   7   1   2   18.20    3.60 
   7   1   2   30.50    7.60 
   7   1   2   21.00    3.50 
   7   1   2   17.10    6.10 
   7   1   2   32.90   12.20 
   7   1   2   19.60    6.60 
  -7  -2  -3  922.41  109.29 
  -7  -2  -3  942.61  101.19 
  -7  -2  -3  840.02  101.89 
  -7  -2  -3  913.01  100.39 
  -7  -2  -3  973.00  107.39 
   7   2   3  821.92  100.09 
   7   2   3  756.32  101.29 
   7   2   3  909.91  101.89 
   7   2   3  948.31  101.79 
   7   2   3  870.81  101.49 
  -7  -3  -4  745.13   87.79 
  -7  -3  -4  686.53   86.39 
  -7  -3  -4  747.03   91.29 
  -7  -3  -4  752.52   86.99 
  -7  -3  -4  787.02   86.09 
   7   3   4  696.53   85.79 
   7   3   4  767.82   85.69 
   7   3   4  716.53   86.79 
   7   3   4  675.13   84.59 
   7   3   4  813.72   87.49 
  -7  -4  -5  412.66   50.19 
  -7  -4  -5  378.76   52.09 
  -7  -4  -5  365.26   50.89 
  -7  -4  -5  487.35   64.89 
  -7  -4  -5  373.26   57.59 
   7   4   5  392.46   47.60 
   7   4   5  364.86   49.90 
   7   4   5  394.66   51.29 
   7   4   5  423.26   51.89 
   7   4   5  379.76   46.40 
   7   4   5  365.06   50.39 
  -7  -5  -6    1.40   30.30 
  -7  -5  -6   -3.80   12.70 
  -7  -5  -6    6.80   13.60 
  -7  -5  -6   24.70   15.60 
  -7  -5  -6   -1.90   12.80 
   7   5   6   -2.30   12.20 
   7   5   6    8.40    5.50 
   7   5   6   11.80    8.30 
   7   5   6    0.30    4.90 
   7   5   6    6.10   14.00 
  -7  -6  -7  -13.10   19.30 
  -7  -6  -7   25.10   15.20 
  -7  -6  -7    9.00   13.80 
  -7  -6  -7   12.20   16.40 
  -7  -6  -7   19.00   20.10 
   7   6   7    4.30   10.00 
   7   6   7   15.60   15.30 
   7   6   7    2.90   13.30 
   7   6   7    3.10    6.10 
   7   6   7   -4.20   11.10 
   7   6   7   -3.60    4.80 
   7   6   7    9.10    7.40 
  -7  -7  -8   20.00   18.00 
  -7  -7  -8   -1.30   15.60 
  -7  -7  -8    5.50   15.80 
  -7  -7  -8   -3.10   25.30 
   7   7   8    1.10    6.00 
   7   7   8    4.80    8.90 
   7   7   8   -4.60   16.30 
   7   7   8   14.80   16.50 
   7   7   8    5.90    5.70 
   7   7   8   16.50   18.80 
  -6   9   7   26.60   34.80 
  -6   9   7   47.50   26.40 
  -6   9   7   31.90   19.90 
  -6   9   7    0.80   23.00 
   6  -9  -7   15.30   23.20 
   6  -9  -7   13.10   18.10 
   6  -9  -7   24.30    7.00 
   6  -9  -7   13.30   36.90 
   6  -9  -7    4.00   19.00 
  -6   8   6   23.40   20.70 
  -6   8   6   25.40   26.30 
  -6   8   6   71.39   24.00 
  -6   8   6   23.50   18.80 
  -6   8   6   26.70   15.70 
  -6   8   6   11.40   23.50 
   6  -8  -6   77.19   21.20 
   6  -8  -6   59.19   16.50 
   6  -8  -6   10.10   15.90 
   6  -8  -6   30.80   16.00 
   6  -8  -6   35.30    7.90 
  -6   7   5    3.00    7.50 
  -6   7   5    1.70    7.20 
  -6   7   5  -18.90   14.80 
  -6   7   5   13.30   10.80 
  -6   7   5  -14.20   19.90 
  -6   7   5   -3.50   20.60 
   6  -7  -5    8.20    4.40 
   6  -7  -5   21.80    9.80 
   6  -7  -5    4.20   14.60 
  -6   6   4 2244.58  260.37 
  -6   6   4 2084.79  246.78 
  -6   6   4 2379.16  249.18 
  -6   6   4 1959.90  250.77 
  -6   6   4 2171.28  251.47 
  -6   6   4 2037.80  261.07 
  -6   6   4 1976.50  253.17 
  -6   6   4 1924.31  250.27 
   6  -6  -4 2328.37  251.47 
   6  -6  -4 2361.76  246.08 
   6  -6  -4 2065.89  248.48 
   6  -6  -4 2264.07  245.68 
   6  -6  -4 2571.14  247.18 
   6  -6  -4 2268.77  251.77 
  -6   5   3  241.98   46.40 
  -6   5   3  299.77   40.10 
  -6   5   3  269.27   48.00 
  -6   5   3  321.17   38.10 
  -6   5   3  276.17   38.20 
  -6   5   3  303.57   42.50 
  -6   5   3  355.16   38.60 
  -6   5   3  258.47   39.70 
  -6   5   3  296.57   39.50 
   6  -5  -3  339.67   36.20 
   6  -5  -3  259.67   39.60 
   6  -5  -3  330.97   40.30 
   6  -5  -3  265.77   38.20 
  -6   4   2  655.13   81.99 
  -6   4   2  703.43   83.89 
  -6   4   2  779.52   91.49 
  -6   4   2  569.04   87.29 
  -6   4   2  617.44   81.99 
  -6   4   2  731.33   82.29 
  -6   4   2  603.24   81.99 
  -6   4   2  815.52   82.29 
   6  -4  -2  756.32   82.59 
   6  -4  -2  809.32   80.59 
   6  -4  -2  732.43   82.09 
   6  -4  -2  620.44   80.99 
  -6   3   1   14.50    8.40 
  -6   3   1    6.00    4.50 
  -6   3   1   25.90   10.90 
  -6   3   1    9.50    5.60 
  -6   3   1   11.40    4.70 
  -6   3   1    8.40    7.60 
  -6   3   1   10.50    6.50 
  -6   3   1   35.90    7.80 
  -6   3   1   23.00    7.30 
  -6   3   1   22.70    7.30 
  -6   3   1   11.10    6.30 
   6  -3  -1    4.60    4.50 
   6  -3  -1   10.10    4.60 
   6  -3  -1   14.50    6.90 
  -6   2   0  381.36   45.30 
  -6   2   0  298.07   41.60 
  -6   2   0  283.47   33.40 
  -6   2   0  279.67   35.50 
  -6   2   0  314.27   37.20 
  -6   2   0  280.37   38.00 
  -6   2   0  238.38   34.50 
  -6   2   0  225.28   34.50 
  -6   2   0  321.17   36.60 
   6  -2   0  266.67   32.20 
   6  -2   0  310.67   32.50 
   6  -2   0  363.66   37.10 
  -6   1  -1   25.20    6.00 
  -6   1  -1   28.10   14.60 
  -6   1  -1   19.30   11.20 
  -6   1  -1   11.70    5.40 
  -6   1  -1   23.60   10.00 
  -6   1  -1    9.10    5.30 
  -6   1  -1   16.90    7.50 
   6  -1   1   17.20    5.40 
   6  -1   1   21.50    9.60 
   6  -1   1   45.60    8.60 
   6  -1   1   22.10    6.00 
  -6   0  -2  497.85   62.19 
  -6   0  -2  489.55   62.59 
  -6   0  -2  517.55   61.99 
  -6   0  -2  574.64   68.49 
  -6   0  -2  597.24   65.49 
   6   0   2  579.44   63.49 
   6   0   2  535.55   62.69 
   6   0   2  504.65   62.29 
  -6  -1  -3  404.46   56.39 
  -6  -1  -3  496.15   55.19 
  -6  -1  -3  474.75   54.59 
  -6  -1  -3  488.25   55.59 
  -6  -1  -3  514.55   64.09 
  -6  -1  -3  545.05   60.89 
  -6  -1  -3  471.05   55.99 
   6   1   3  485.45   55.59 
   6   1   3  434.66   54.59 
   6   1   3  540.05   55.79 
   6   1   3  460.85   56.09 
   6   1   3  434.66   56.59 
   6   1   3  576.54   60.79 
   6   1   3  459.55   56.09 
  -6  -2  -4  460.05   59.99 
  -6  -2  -4  482.05   54.79 
  -6  -2  -4  502.25   56.69 
  -6  -2  -4  558.44   61.79 
  -6  -2  -4  433.76   55.99 
   6   2   4  505.85   56.99 
   6   2   4  485.95   59.29 
   6   2   4  423.96   54.69 
   6   2   4  439.26   54.99 
  -6  -3  -5   11.20   10.20 
  -6  -3  -5    7.80    8.00 
  -6  -3  -5    4.40   14.20 
  -6  -3  -5   -0.70    7.20 
  -6  -3  -5    9.40    7.30 
   6   3   5    0.20    8.00 
   6   3   5   -1.40    3.10 
   6   3   5    4.40    5.50 
   6   3   5   10.40    7.70 
   6   3   5    2.10    3.30 
   6   3   5    8.50    8.20 
  -6  -4  -6 1491.05  185.48 
  -6  -4  -6 1656.73  186.38 
  -6  -4  -6 1758.02  185.68 
  -6  -4  -6 1711.43  194.18 
  -6  -4  -6 1557.14  188.28 
  -6  -4  -6 1603.54  186.38 
   6   4   6 1560.34  186.58 
   6   4   6 1673.73  181.48 
   6   4   6 1536.15  181.28 
   6   4   6 1705.63  182.18 
   6   4   6 1638.24  185.68 
   6   4   6 1482.95  184.98 
  -6  -5  -7   67.89   18.10 
  -6  -5  -7   57.09   29.50 
  -6  -5  -7   55.99   17.50 
  -6  -5  -7   33.40   16.60 
  -6  -5  -7   57.09   16.90 
   6   5   7   46.20   13.50 
   6   5   7  109.79   20.20 
   6   5   7   34.60   16.50 
   6   5   7   53.19    9.70 
   6   5   7   47.00   10.60 
  -6  -6  -8 1628.14  187.58 
  -6  -6  -8 1516.05  188.08 
  -6  -6  -8 1786.22  189.78 
  -6  -6  -8 1763.52  188.18 
   6   6   8 1601.34  182.08 
   6   6   8 1580.84  186.68 
   6   6   8 1478.55  185.88 
   6   6   8 1647.64  179.78 
   6   6   8 1464.35  184.58 
   6   6   8 1554.94  183.78 
  -6  -7  -9   21.40   18.00 
  -6  -7  -9   28.20   17.90 
  -6  -7  -9   20.90   19.90 
  -6  -7  -9   -1.70   23.50 
   6   7   9   -5.20   16.80 
   6   7   9   13.10   17.50 
   6   7   9   14.30    6.20 
   6   7   9   15.80    9.80 
  -6  -8 -10  143.49   35.00 
  -6  -8 -10  134.89   34.00 
   6   8  10  190.58   29.10 
   6   8  10  114.59   34.80 
   6   8  10  154.48   21.20 
  -5   9   6   67.79   24.20 
  -5   9   6   88.09   28.00 
  -5   9   6   35.40   22.30 
  -5   9   6   50.89   29.70 
  -5   9   6   19.70   18.60 
   5  -9  -6   63.99   24.00 
   5  -9  -6   85.09   23.20 
   5  -9  -6   23.00   26.60 
   5  -9  -6   48.80   34.90 
   5  -9  -6   77.59   18.30 
  -5   8   5  301.87   49.90 
  -5   8   5  310.17   51.49 
  -5   8   5  220.08   45.00 
  -5   8   5  255.27   36.50 
  -5   8   5  223.88   57.89 
  -5   8   5  298.37   47.80 
   5  -8  -5  300.27   44.60 
   5  -8  -5  307.67   45.50 
   5  -8  -5  342.97   50.59 
   5  -8  -5  328.27   36.30 
   5  -8  -5  271.57   39.60 
  -5   7   4    2.60   12.80 
  -5   7   4    0.40   14.30 
  -5   7   4   10.00   14.30 
  -5   7   4   15.80   17.40 
  -5   7   4   -5.30   15.60 
  -5   7   4   16.30    7.10 
  -5   7   4    4.90   11.90 
  -5   7   4   24.60   27.70 
   5  -7  -4    5.30   13.60 
   5  -7  -4  -11.00   16.60 
   5  -7  -4   22.60   12.60 
   5  -7  -4   25.50   10.00 
   5  -7  -4   19.10   11.20 
   5  -7  -4    9.60    4.80 
  -5   6   3  291.07   42.60 
  -5   6   3  310.87   49.30 
  -5   6   3  323.57   42.40 
  -5   6   3  243.08   49.20 
  -5   6   3  281.67   38.10 
  -5   6   3  329.57   44.80 
  -5   6   3  271.57   40.80 
  -5   6   3  311.97   43.70 
   5  -6  -3  366.46   45.80 
   5  -6  -3  357.46   37.30 
   5  -6  -3  328.67   39.60 
   5  -6  -3  328.57   39.10 
   5  -6  -3  258.67   38.10 
   5  -6  -3  326.17   43.50 
   5  -6  -3  272.47   45.50 
  -5   5   2   12.90    9.90 
  -5   5   2    8.60    5.40 
  -5   5   2   15.50    9.30 
  -5   5   2    3.90    7.70 
  -5   5   2    5.60   12.40 
  -5   5   2    5.90    6.80 
  -5   5   2    8.50    5.00 
  -5   5   2   10.30    5.70 
  -5   5   2    3.40    8.60 
  -5   5   2   -3.40   15.00 
   5  -5  -2    0.60    8.50 
   5  -5  -2   10.20    9.60 
   5  -5  -2   12.60    4.10 
   5  -5  -2   17.50    6.40 
   5  -5  -2    6.80    4.00 
   5  -5  -2   10.30    4.90 
  -5   4   1  620.54   74.99 
  -5   4   1  720.23   76.19 
  -5   4   1  743.73   84.89 
  -5   4   1  542.55   74.49 
  -5   4   1  666.93   76.89 
  -5   4   1  645.74   76.29 
  -5   4   1  661.43   73.59 
  -5   4   1  591.54   75.49 
  -5   4   1  552.94   79.49 
  -5   4   1  538.35   75.39 
  -5   4   1  755.22   75.19 
   5  -4  -1  737.13   76.49 
   5  -4  -1  663.43   76.49 
   5  -4  -1  614.74   73.89 
   5  -4  -1  652.43   75.99 
  -5   3   0 1273.27  150.08 
  -5   3   0 1228.88  150.08 
  -5   3   0 1369.86  149.29 
  -5   3   0 1106.89  150.38 
  -5   3   0 1420.16  150.28 
  -5   3   0 1330.17  150.18 
  -5   3   0 1369.26  157.78 
  -5   3   0 1125.49  150.58 
  -5   3   0 1457.25  149.88 
  -5   3   0 1541.35  150.88 
   5  -3   0 1343.87  149.49 
   5  -3   0 1340.67  149.19 
  -5   2  -1  531.45   62.19 
  -5   2  -1  533.05   61.59 
  -5   2  -1  555.84   61.99 
  -5   2  -1  550.34   63.49 
  -5   2  -1  524.95   63.19 
  -5   2  -1  576.74   61.29 
  -5   2  -1  693.03   73.19 
  -5   2  -1  522.15   65.99 
  -5   2  -1  473.35   62.99 
  -5   2  -1  433.36   65.79 
   5  -2   1  511.35   61.49 
   5  -2   1  497.15   66.39 
   5  -2   1  601.94   61.49 
   5  -2   1  569.54   62.09 
   5  -2   1  613.54   63.19 
  -5   1  -2   49.99   11.00 
  -5   1  -2   65.69   13.20 
  -5   1  -2   54.29   14.80 
  -5   1  -2   75.29   10.60 
  -5   1  -2   54.09   13.70 
  -5   1  -2   61.39   10.00 
  -5   1  -2   95.49   21.00 
   5  -1   2   72.69   10.00 
   5  -1   2   93.89   14.30 
   5  -1   2   72.19   10.40 
   5  -1   2   64.69   10.60 
  -5   0  -3    2.50    2.70 
  -5   0  -3   -0.30    2.40 
  -5   0  -3    1.30    5.30 
  -5   0  -3    0.20    2.30 
  -5   0  -3    3.40    3.10 
  -5   0  -3    0.50    2.70 
  -5   0  -3    0.00    3.10 
  -5   0  -3    5.30    4.20 
  -5   0  -3   -6.70    6.00 
  -5   0  -3   -1.90   10.30 
   5   0   3   -1.90    2.70 
   5   0   3   -2.30    2.80 
   5   0   3    4.90    3.10 
   5   0   3    2.10    3.00 
   5   0   3   -0.20    1.90 
   5   0   3    6.90    3.20 
   5   0   3   -4.40    3.20 
   5   0   3    3.70    3.00 
  -5  -1  -4  180.88   21.80 
  -5  -1  -4  140.29   21.40 
  -5  -1  -4  183.48   22.10 
  -5  -1  -4  184.98   27.00 
  -5  -1  -4  152.78   24.40 
  -5  -1  -4  159.28   24.30 
  -5  -1  -4  199.38   21.00 
  -5  -1  -4  176.38   21.10 
   5   1   4  148.49   20.90 
   5   1   4  153.78   21.00 
   5   1   4  165.38   20.90 
   5   1   4  171.78   24.40 
   5   1   4  141.39   21.40 
   5   1   4  173.88   20.90 
   5   1   4  149.29   21.70 
  -5  -2  -5 1063.69  114.89 
  -5  -2  -5  971.80  114.29 
  -5  -2  -5  968.80  117.49 
  -5  -2  -5 1059.29  113.99 
  -5  -2  -5 1027.30  117.19 
  -5  -2  -5  943.51  110.99 
   5   2   5  905.61  113.99 
   5   2   5 1043.20  112.29 
   5   2   5 1049.79  112.69 
   5   2   5  967.00  116.39 
   5   2   5  949.60  113.69 
   5   2   5  974.10  113.79 
  -5  -3  -6  228.18   30.00 
  -5  -3  -6  206.98   30.70 
  -5  -3  -6  204.28   37.10 
  -5  -3  -6  213.08   32.50 
  -5  -3  -6  199.18   27.80 
  -5  -3  -6  233.88   31.20 
   5   3   6  187.58   29.80 
   5   3   6  223.18   26.30 
   5   3   6  198.98   28.40 
   5   3   6  246.78   27.70 
   5   3   6  215.68   28.00 
   5   3   6  208.88   30.80 
   5   3   6  276.37   31.90 
   5   3   6  218.18   31.00 
  -5  -4  -7  338.37   44.20 
  -5  -4  -7  373.86   45.40 
  -5  -4  -7  297.27   53.69 
  -5  -4  -7  305.87   44.80 
  -5  -4  -7  326.77   44.10 
  -5  -4  -7  263.87   41.50 
   5   4   7  366.16   43.60 
   5   4   7  328.87   43.50 
   5   4   7  283.27   43.20 
   5   4   7  329.77   44.70 
   5   4   7  306.67   43.20 
   5   4   7  369.36   40.20 
   5   4   7  336.87   44.10 
   5   4   7  348.67   38.60 
  -5  -5  -8   91.19   21.10 
  -5  -5  -8   87.79   24.20 
  -5  -5  -8   90.59   21.90 
  -5  -5  -8   82.79   21.30 
  -5  -5  -8   37.80   29.40 
   5   5   8   93.69   11.90 
   5   5   8   83.09   18.30 
   5   5   8   96.79   20.60 
   5   5   8   48.60   17.90 
   5   5   8   82.49   20.10 
   5   5   8   89.99   18.60 
  -5  -6  -9   83.89   26.00 
  -5  -6  -9   97.79   23.30 
  -5  -6  -9  114.39   26.00 
  -5  -6  -9   64.59   20.90 
   5   6   9  122.29   20.50 
   5   6   9  134.29   26.50 
   5   6   9  110.89   26.80 
   5   6   9  112.09   14.30 
   5   6   9   89.89   22.50 
   5   6   9  103.79   28.20 
  -5  -7 -10   20.90   17.10 
  -5  -7 -10   35.60   18.40 
  -5  -7 -10   28.00   27.20 
  -5  -7 -10    1.80   15.70 
   5   7  10   18.50    5.50 
   5   7  10   40.30   20.40 
   5   7  10   31.80   11.50 
   5   7  10   35.00   18.00 
   5   7  10   21.80   18.30 
  -5  -8 -11  148.99   34.40 
  -5  -8 -11  134.69   35.90 
   5   8  11  170.28   44.10 
   5   8  11  161.38   20.10 
   5   8  11  218.08   39.50 
   5   8  11  174.68   35.80 
  -4  10   6  124.99   37.40 
  -4  10   6   36.10   35.00 
  -4  10   6  133.59   35.80 
   4 -10  -6  158.38   32.30 
   4 -10  -6  111.79   23.50 
   4 -10  -6   89.49   29.70 
   4 -10  -6  132.89   25.50 
   4 -10  -6   86.69   49.10 
   4 -10  -6  104.89   16.50 
  -4   9   5   10.10    6.10 
  -4   9   5   25.70   16.40 
  -4   9   5   -0.80   18.70 
  -4   9   5   -3.10   23.80 
  -4   9   5   -8.00   21.20 
  -4   9   5  -40.30   35.90 
  -4   9   5   12.40   22.10 
   4  -9  -5   33.40   33.50 
   4  -9  -5   25.50   12.30 
   4  -9  -5   18.20   16.70 
   4  -9  -5   14.20   17.70 
   4  -9  -5  -14.50   30.90 
   4  -9  -5   -9.00   12.60 
  -4   8   4  804.82   98.69 
  -4   8   4 1057.59  111.59 
  -4   8   4  806.32  109.89 
  -4   8   4  742.33  111.59 
  -4   8   4  692.83  103.79 
  -4   8   4  954.70  107.79 
  -4   8   4  809.72  106.09 
   4  -8  -4  845.92  100.09 
   4  -8  -4 1013.90  107.89 
   4  -8  -4  987.00  113.69 
   4  -8  -4  974.60  101.59 
   4  -8  -4  797.02  106.19 
  -4   7   3  318.67   46.40 
  -4   7   3  299.27   37.70 
  -4   7   3  281.67   46.20 
  -4   7   3  298.77   45.00 
  -4   7   3  307.07   49.80 
  -4   7   3  276.87   56.09 
  -4   7   3  302.57   50.09 
  -4   7   3  276.07   42.30 
   4  -7  -3  334.27   44.70 
   4  -7  -3  299.27   44.30 
   4  -7  -3  302.97   38.30 
   4  -7  -3  420.06   45.70 
   4  -7  -3  331.37   39.80 
  -4   6   2  663.53   86.49 
  -4   6   2  719.83   85.59 
  -4   6   2  705.23   85.89 
  -4   6   2  639.94   78.59 
  -4   6   2  512.15   82.19 
  -4   6   2  481.95   88.29 
  -4   6   2  669.93   89.69 
   4  -6  -2  812.32   80.69 
   4  -6  -2  707.83   87.29 
   4  -6  -2  665.93   83.49 
   4  -6  -2  722.83   81.99 
   4  -6  -2  680.73   78.29 
   4  -6  -2  794.62   78.79 
  -4   5   1  687.23   81.99 
  -4   5   1  692.03   76.19 
  -4   5   1  648.54   74.49 
  -4   5   1  554.04   79.29 
  -4   5   1  705.83   76.19 
  -4   5   1  488.05   72.69 
  -4   5   1  513.15   73.29 
  -4   5   1  618.14   71.89 
   4  -5  -1  679.83   72.59 
   4  -5  -1  604.74   75.69 
   4  -5  -1  552.44   75.09 
   4  -5  -1  616.54   69.39 
   4  -5  -1  645.94   74.79 
   4  -5  -1  579.44   71.39 
  -4   4   0 4560.24  596.94 
  -4   4   0 5689.33  595.64 
  -4   4   0 5091.19  595.34 
  -4   4   0 5169.38  594.84 
  -4   4   0 5351.76  595.14 
  -4   4   0 5111.19  594.74 
  -4   4   0 5695.73  602.64 
  -4   4   0 5319.07  593.44 
   4  -4   0 5476.55  591.54 
   4  -4   0 5387.86  595.64 
   4  -4   0 5004.90  594.94 
   4  -4   0 5141.49  595.44 
   4  -4   0 6112.49  592.04 
  -4   3  -1    6.90    4.40 
  -4   3  -1    2.50    5.10 
  -4   3  -1   -4.40    7.40 
  -4   3  -1   18.50    5.20 
  -4   3  -1   15.00    4.00 
  -4   3  -1   11.40    3.50 
  -4   3  -1    7.10    7.90 
  -4   3  -1    6.70    5.40 
  -4   3  -1    6.70    6.00 
  -4   3  -1   11.00    6.30 
  -4   3  -1   -4.40    8.70 
   4  -3   1    3.70    2.70 
   4  -3   1    0.40    9.50 
   4  -3   1    1.70    3.70 
   4  -3   1   -9.50    5.40 
   4  -3   1    1.70    6.20 
  -4   2  -2   95.19   14.90 
  -4   2  -2  110.79   24.10 
  -4   2  -2   87.39   13.80 
  -4   2  -2  106.59   13.40 
  -4   2  -2   93.49   13.70 
  -4   2  -2   96.89   15.30 
  -4   2  -2   96.99   12.80 
  -4   2  -2   90.79   13.90 
  -4   2  -2   76.39   13.30 
  -4   2  -2  101.19   13.50 
   4  -2   2   92.39   14.20 
   4  -2   2  114.19   13.40 
   4  -2   2   93.79   14.00 
   4  -2   2   77.19   18.50 
   4  -2   2   79.89   13.30 
   4  -2   2  125.49   15.80 
  -4   1  -3 2415.76  272.87 
  -4   1  -3 2271.17  264.67 
  -4   1  -3 2164.88  265.17 
  -4   1  -3 2252.17  264.67 
  -4   1  -3 2616.64  264.17 
  -4   1  -3 2390.16  264.17 
  -4   1  -3 2382.86  264.87 
  -4   1  -3 2503.95  264.37 
   4  -1   3 2526.65  265.27 
   4  -1   3 2423.16  264.87 
   4  -1   3 2193.58  264.07 
   4  -1   3 2397.66  264.47 
   4  -1   3 2241.38  266.97 
   4  -1   3 2433.06  264.97 
   4  -1   3 2315.57  268.57 
  -4   0  -4 1853.61  210.88 
  -4   0  -4 1705.63  209.98 
  -4   0  -4 1969.70  209.78 
  -4   0  -4 1664.33  215.18 
  -4   0  -4 1845.22  210.98 
  -4   0  -4 2063.69  211.18 
  -4   0  -4 1912.81  210.08 
   4   0   4 1964.50  210.38 
   4   0   4 1832.12  212.68 
   4   0   4 1874.91  210.18 
   4   0   4 1943.21  210.68 
   4   0   4 1781.02  212.18 
   4   0   4 1937.41  209.78 
   4   0   4 1822.82  210.18 
   4   0   4 1914.11  210.18 
  -4  -1  -5 1041.80  106.49 
  -4  -1  -5  871.01  105.99 
  -4  -1  -5  871.71  104.39 
  -4  -1  -5  968.10  108.89 
  -4  -1  -5  957.90  107.59 
  -4  -1  -5  952.60  106.69 
  -4  -1  -5  915.01  107.99 
   4   1   5  940.41  108.39 
   4   1   5  980.50  106.59 
   4   1   5  919.31  106.19 
   4   1   5 1005.20  106.79 
   4   1   5  876.91  105.89 
   4   1   5  865.21  104.19 
   4   1   5  987.70  104.89 
   4   1   5  903.11  106.49 
   4   1   5  880.61  104.09 
   4   1   5  928.51  106.29 
  -4  -2  -6   -1.30    8.00 
  -4  -2  -6    4.00    4.80 
  -4  -2  -6    2.50    3.30 
  -4  -2  -6   -2.10    4.40 
  -4  -2  -6   13.50    6.30 
   4   2   6   28.10    7.10 
   4   2   6    4.40    2.40 
   4   2   6    4.10    3.50 
   4   2   6    3.10    4.00 
   4   2   6   -2.10    6.30 
   4   2   6    0.70    4.40 
   4   2   6   11.40    6.10 
   4   2   6   -0.30    2.20 
   4   2   6   28.10    8.70 
   4   2   6    1.20    4.90 
   4   2   6    2.40    5.00 
  -4  -3  -7    0.40   16.40 
  -4  -3  -7   13.70   14.60 
  -4  -3  -7    2.80    6.10 
  -4  -3  -7    3.30    7.80 
  -4  -3  -7   13.90    4.80 
  -4  -3  -7    4.90    7.30 
  -4  -3  -7    6.80    7.80 
   4   3   7   13.80    7.20 
   4   3   7   25.40   10.30 
   4   3   7   13.60    8.00 
   4   3   7   13.00    7.90 
   4   3   7    9.30    5.60 
   4   3   7    9.80    3.10 
   4   3   7   -0.50    8.30 
  -4  -4  -8 1812.12  209.38 
  -4  -4  -8 1743.23  209.88 
  -4  -4  -8 1620.84  216.48 
  -4  -4  -8 1757.32  214.98 
  -4  -4  -8 1619.24  205.48 
  -4  -4  -8 2014.70  209.98 
  -4  -4  -8 1951.30  210.18 
   4   4   8 1789.62  204.98 
   4   4   8 1848.02  209.58 
   4   4   8 1849.52  208.18 
   4   4   8 1864.91  209.08 
   4   4   8 1919.91  203.18 
   4   4   8 1843.32  209.18 
  -4  -5  -9  761.52   88.39 
  -4  -5  -9  612.34   94.49 
  -4  -5  -9  647.04   86.59 
  -4  -5  -9  680.23   90.79 
  -4  -5  -9  632.74   86.69 
  -4  -5  -9  663.03   82.29 
   4   5   9  780.32   86.79 
   4   5   9  676.53   86.99 
   4   5   9  815.42   88.09 
   4   5   9  783.32   86.29 
   4   5   9  757.82   79.09 
   4   5   9  744.13   87.49 
   4   5   9  622.84   80.79 
   4   5   9  670.73   81.79 
  -4  -6 -10  168.88   31.60 
  -4  -6 -10  154.88   32.90 
  -4  -6 -10  162.68   30.10 
  -4  -6 -10  164.98   31.60 
   4   6  10  157.28   25.50 
   4   6  10  137.99   30.10 
   4   6  10  144.79   32.70 
   4   6  10  157.38   24.70 
   4   6  10  180.78   32.30 
   4   6  10  140.69   22.90 
   4   6  10  156.98   32.60 
   4   6  10  162.38   31.40 
  -4  -7 -11   35.00   25.50 
  -4  -7 -11   79.99   25.00 
  -4  -7 -11  123.49   28.70 
   4   7  11  106.59   20.80 
   4   7  11   45.20   28.70 
   4   7  11  109.89   27.60 
   4   7  11   81.29   16.50 
   4   7  11   86.29   19.20 
   4   7  11   68.29   23.00 
   4   7  11  108.09   28.80 
  -4  -8 -12  166.68   35.00 
  -4  -8 -12  198.88   39.90 
  -4  -8 -12  161.38   37.00 
   4   8  12  204.08   49.10 
   4   8  12  227.28   39.40 
   4   8  12  140.29   25.30 
   4   8  12  163.28   28.20 
   4   8  12  155.28   36.50 
  -3  10   5   15.90   16.10 
  -3  10   5   26.80   23.20 
  -3  10   5   43.30   28.20 
  -3  10   5   16.20   25.70 
  -3  10   5   83.89   35.30 
   3 -10  -5  -19.40   38.30 
   3 -10  -5   -3.00   20.50 
   3 -10  -5  -13.30   16.20 
   3 -10  -5    4.60   16.70 
   3 -10  -5   -9.00   13.80 
  -3   9   4   72.89   30.70 
  -3   9   4  173.08   32.90 
  -3   9   4   81.19   33.30 
  -3   9   4  208.88   39.30 
  -3   9   4  142.59   36.60 
   3  -9  -4  113.19   23.10 
   3  -9  -4  152.28   33.40 
   3  -9  -4  203.98   32.80 
   3  -9  -4  169.58   27.00 
  -3   8   3   43.70   17.10 
  -3   8   3   58.19   20.00 
  -3   8   3   34.80   22.70 
  -3   8   3   61.69    9.90 
  -3   8   3   44.60   24.80 
   3  -8  -3   62.89   14.30 
   3  -8  -3   96.19   23.10 
   3  -8  -3  122.59   23.40 
   3  -8  -3   63.79   15.90 
   3  -8  -3  130.09   32.80 
  -3   7   2  401.66   53.49 
  -3   7   2  351.66   42.80 
  -3   7   2  341.57   55.19 
  -3   7   2  352.36   50.39 
  -3   7   2  381.46   55.49 
  -3   7   2  328.67   49.80 
  -3   7   2  252.97   47.60 
   3  -7  -2  457.25   48.00 
   3  -7  -2  364.06   58.59 
   3  -7  -2  385.36   44.50 
   3  -7  -2  239.88   53.39 
   3  -7  -2  379.06   52.19 
   3  -7  -2  469.45   53.39 
   3  -7  -2  473.15   51.39 
  -3   6   1   14.30    8.70 
  -3   6   1   -1.00    9.00 
  -3   6   1    4.30   16.90 
  -3   6   1    8.30    3.30 
  -3   6   1    4.00   11.00 
  -3   6   1   21.60   12.30 
  -3   6   1    7.60   10.70 
  -3   6   1   70.29   18.60 
   3  -6  -1   14.10   11.90 
   3  -6  -1    0.60   14.80 
   3  -6  -1    0.70   10.70 
   3  -6  -1   10.60    6.60 
   3  -6  -1   16.40    4.60 
   3  -6  -1   24.90   11.60 
   3  -6  -1    6.50   14.50 
  -3   5   0 1189.18  138.29 
  -3   5   0 1083.59  136.29 
  -3   5   0 1151.68  131.69 
  -3   5   0 1082.09  136.69 
  -3   5   0 1221.68  138.49 
  -3   5   0 1165.38  136.69 
  -3   5   0 1184.08  143.09 
  -3   5   0 1046.20  139.89 
   3  -5   0 1260.27  137.89 
   3  -5   0 1193.98  135.59 
   3  -5   0 1211.98  143.79 
   3  -5   0 1123.99  138.29 
   3  -5   0 1082.69  138.29 
   3  -5   0 1392.56  135.09 
  -3   4  -1   -3.90    9.90 
  -3   4  -1    3.70    2.60 
  -3   4  -1   -8.40    6.40 
  -3   4  -1   -6.10    7.20 
  -3   4  -1   12.90    8.90 
  -3   4  -1    3.00    6.20 
  -3   4  -1    4.10   10.00 
  -3   4  -1    9.20    7.50 
   3  -4   1    8.00    9.20 
   3  -4   1   -2.30    6.50 
   3  -4   1    4.70   11.80 
   3  -4   1   28.30    8.00 
   3  -4   1   -2.20    5.50 
   3  -4   1   -0.80    8.40 
  -3   3  -2 1218.18  165.78 
  -3   3  -2 1333.77  165.48 
  -3   3  -2 1508.35  167.28 
  -3   3  -2 1415.06  172.08 
  -3   3  -2 1318.47  165.18 
  -3   3  -2 1614.74  166.78 
  -3   3  -2 1342.27  163.88 
  -3   3  -2 1564.64  167.28 
   3  -3   2 1707.43  163.48 
   3  -3   2 1546.45  163.38 
   3  -3   2 1470.95  166.38 
   3  -3   2 1454.45  166.08 
   3  -3   2 1531.75  166.18 
   3  -3   2 1340.47  169.48 
   3  -3   2 1421.66  164.18 
  -3   2  -3  436.66   43.50 
  -3   2  -3  314.07   44.70 
  -3   2  -3  364.26   51.49 
  -3   2  -3  333.27   44.80 
  -3   2  -3  416.96   47.00 
  -3   2  -3  341.47   44.30 
  -3   2  -3  363.46   42.70 
  -3   2  -3  411.16   45.00 
   3  -2   3  330.77   44.70 
   3  -2   3  335.57   44.20 
   3  -2   3  359.86   44.50 
   3  -2   3  416.76   45.40 
   3  -2   3  361.86   48.40 
   3  -2   3  411.66   43.60 
  -3   1  -4 1763.32  200.08 
  -3   1  -4 1697.43  205.58 
  -3   1  -4 1651.03  200.98 
  -3   1  -4 1916.91  199.78 
  -3   1  -4 1658.93  198.98 
  -3   1  -4 1758.32  198.38 
  -3   1  -4 1842.52  199.58 
  -3   1  -4 1923.91  199.98 
  -3   1  -4 1922.41  200.68 
   3  -1   4 1833.42  200.18 
   3  -1   4 1707.33  200.48 
   3  -1   4 1697.13  199.28 
   3  -1   4 1562.54  197.78 
   3  -1   4 1870.11  199.28 
   3  -1   4 1776.32  199.78 
   3  -1   4 1755.42  198.08 
   3  -1   4 1908.91  197.88 
   3  -1   4 1730.93  202.48 
  -3   0  -5    2.90    2.60 
  -3   0  -5    1.60    1.50 
  -3   0  -5    3.80    4.00 
  -3   0  -5   -0.40    4.30 
  -3   0  -5   -2.40    3.00 
  -3   0  -5    3.90    7.10 
  -3   0  -5    2.90    5.40 
  -3   0  -5    0.30    3.50 
   3   0   5    7.50    4.70 
   3   0   5   -2.00    3.30 
   3   0   5    7.60    3.70 
   3   0   5    5.40    3.60 
   3   0   5    0.50    1.30 
   3   0   5   -0.60    3.80 
   3   0   5    2.00    5.50 
   3   0   5    2.50    2.10 
   3   0   5    0.30    2.90 
  -3  -1  -6 1967.80  218.88 
  -3  -1  -6 1956.20  220.48 
  -3  -1  -6 1967.80  220.68 
  -3  -1  -6 2021.50  219.48 
  -3  -1  -6 1935.21  221.88 
  -3  -1  -6 1719.93  215.68 
  -3  -1  -6 1776.12  217.48 
  -3  -1  -6 2078.89  219.68 
  -3  -1  -6 2214.68  219.28 
   3   1   6 1903.21  218.58 
   3   1   6 1924.61  219.08 
   3   1   6 1786.22  217.48 
   3   1   6 1956.70  219.28 
   3   1   6 1950.01  218.68 
   3   1   6 1884.11  220.68 
   3   1   6 1982.90  219.08 
   3   1   6 2022.40  216.38 
  -3  -2  -7   44.00   13.00 
  -3  -2  -7   52.19   16.50 
  -3  -2  -7   69.29   14.40 
  -3  -2  -7   41.20   12.10 
  -3  -2  -7   74.89   17.40 
  -3  -2  -7   90.79   15.50 
  -3  -2  -7   72.19   10.50 
   3   2   7   53.69   13.20 
   3   2   7   73.89   10.60 
   3   2   7   71.99   14.50 
   3   2   7   82.69   15.10 
   3   2   7   95.89   15.50 
  -3  -3  -8  241.58   38.10 
  -3  -3  -8  297.67   45.50 
  -3  -3  -8  311.97   39.50 
  -3  -3  -8  294.27   43.40 
  -3  -3  -8  296.87   39.20 
  -3  -3  -8  298.67   35.80 
   3   3   8  350.96   41.00 
   3   3   8  286.97   38.60 
   3   3   8  282.47   39.90 
   3   3   8  301.57   38.00 
   3   3   8  255.77   38.70 
   3   3   8  311.97   40.90 
   3   3   8  282.17   40.40 
  -3  -4  -9   54.79   16.30 
  -3  -4  -9   30.50   22.20 
  -3  -4  -9   31.70   12.90 
  -3  -4  -9   33.90   12.50 
  -3  -4  -9   38.10    8.50 
  -3  -4  -9   50.99   22.20 
  -3  -4  -9   35.60   12.80 
   3   4   9   48.10   14.60 
   3   4   9   37.20   13.70 
   3   4   9   52.49   17.10 
   3   4   9   26.90   14.60 
   3   4   9   45.70   15.20 
   3   4   9   26.50   11.10 
   3   4   9   15.60   12.50 
  -3  -5 -10  235.78   32.30 
  -3  -5 -10  216.18   36.40 
  -3  -5 -10  300.67   41.00 
  -3  -5 -10  273.77   40.40 
  -3  -5 -10  206.88   35.30 
   3   5  10  258.47   38.70 
   3   5  10  235.68   37.60 
   3   5  10  231.28   38.00 
   3   5  10  242.18   34.80 
   3   5  10  250.17   39.70 
   3   5  10  236.48   41.40 
  -3  -6 -11    5.30   13.20 
  -3  -6 -11   -6.50   11.40 
  -3  -6 -11    3.80    7.50 
  -3  -6 -11   11.10   16.00 
   3   6  11   13.40   14.30 
   3   6  11    5.10   11.20 
   3   6  11   21.50   18.10 
   3   6  11  -24.30   19.40 
   3   6  11   -9.80   15.00 
   3   6  11   16.90   12.30 
  -3  -7 -12  623.24   71.69 
  -3  -7 -12  463.85   68.49 
   3   7  12  585.54   70.09 
   3   7  12  416.16   63.09 
   3   7  12  518.35   68.59 
   3   7  12  435.16   66.59 
   3   7  12  501.05   77.39 
  -3  -8 -13   -9.10   20.30 
  -3  -8 -13   10.50   20.90 
  -3  -8 -13   14.80   21.50 
   3   8  13   49.90   45.10 
   3   8  13    1.50   10.50 
   3   8  13    4.60   23.20 
   3   8  13  -16.20   24.40 
   3   8  13   25.60   18.60 
  -2  11   5  198.68   50.79 
  -2  11   5  243.78   49.70 
  -2  11   5  231.88   27.70 
  -2  11   5  279.67   52.39 
   2 -11  -5  174.18   46.10 
   2 -11  -5  120.49   65.89 
   2 -11  -5  224.58   38.40 
   2 -11  -5  324.87   48.30 
  -2  10   4  631.84   79.79 
  -2  10   4  637.44   85.39 
  -2  10   4  626.54   67.99 
  -2  10   4  475.85   84.79 
  -2  10   4  622.84   82.29 
   2 -10  -4  512.45   75.49 
   2 -10  -4  655.53   76.19 
   2 -10  -4  459.05   94.29 
   2 -10  -4  614.94   83.49 
  -2   9   3  239.58   45.00 
  -2   9   3  322.17   34.80 
  -2   9   3  266.07   54.99 
  -2   9   3  348.97   48.20 
  -2   9   3  213.38   50.59 
  -2   9   3  300.37   50.49 
  -2   9   3  263.07   51.89 
   2  -9  -3  331.07   52.19 
   2  -9  -3  263.37   41.60 
   2  -9  -3  286.37   42.90 
   2  -9  -3  356.06   64.39 
  -2   8   2  -14.30   15.00 
  -2   8   2    8.80   24.00 
  -2   8   2   -5.30   15.70 
  -2   8   2    3.80   11.90 
  -2   8   2    8.90    2.50 
  -2   8   2   40.00   19.70 
  -2   8   2    4.00   14.00 
   2  -8  -2    5.70   18.60 
   2  -8  -2  -19.00   22.80 
   2  -8  -2  -13.10   14.80 
   2  -8  -2   16.00   10.40 
   2  -8  -2   14.80   15.20 
  -2   7   1  605.94   78.19 
  -2   7   1  419.96   69.49 
  -2   7   1  623.34   75.39 
  -2   7   1  691.83   77.59 
  -2   7   1  511.25   71.69 
  -2   7   1  544.15   76.49 
  -2   7   1  521.85   78.79 
   2  -7  -1  587.34   79.69 
   2  -7  -1  589.84   79.19 
   2  -7  -1  610.54   70.19 
   2  -7  -1  584.64   67.49 
   2  -7  -1  699.83   75.09 
   2  -7  -1  481.15   74.19 
  -2   6   0  253.87   44.10 
  -2   6   0  285.67   44.30 
  -2   6   0  323.17   43.40 
  -2   6   0  270.47   39.20 
  -2   6   0  262.47   45.00 
  -2   6   0  258.77   38.40 
  -2   6   0  296.17   40.60 
   2  -6   0  280.77   41.10 
   2  -6   0  267.17   46.90 
   2  -6   0  271.67   46.60 
   2  -6   0  270.87   34.10 
   2  -6   0  335.97   37.60 
   2  -6   0  267.87   34.50 
   2  -6   0  234.88   39.00 
   2  -6   0  294.27   44.30 
   2  -6   0  282.27   39.20 
  -2   5  -1  447.16   61.79 
  -2   5  -1  466.35   64.39 
  -2   5  -1  527.85   65.49 
  -2   5  -1  586.64   69.99 
  -2   5  -1  448.66   63.09 
  -2   5  -1  622.24   65.29 
  -2   5  -1  491.85   66.19 
   2  -5   1  501.35   65.59 
   2  -5   1  518.85   69.19 
   2  -5   1  516.75   65.79 
   2  -5   1  475.25   57.69 
   2  -5   1  505.15   57.29 
   2  -5   1  459.65   62.49 
   2  -5   1  479.15   63.79 
   2  -5   1  553.04   62.99 
  -2   4  -2   91.59   20.20 
  -2   4  -2  119.39   21.20 
  -2   4  -2   82.69   19.60 
  -2   4  -2   76.19   15.90 
  -2   4  -2  110.29   24.40 
  -2   4  -2  101.29   19.80 
  -2   4  -2   85.99   18.80 
   2  -4   2   75.39   21.40 
   2  -4   2  103.99   15.60 
   2  -4   2  103.09   16.40 
   2  -4   2   93.99   19.20 
   2  -4   2   91.99   11.10 
   2  -4   2   73.59   16.40 
   2  -4   2  103.89   20.20 
  -2   3  -3  292.17   43.20 
  -2   3  -3  413.76   41.50 
  -2   3  -3  323.27   45.50 
  -2   3  -3  324.27   44.70 
  -2   3  -3  419.86   47.90 
  -2   3  -3  265.37   43.70 
  -2   3  -3  381.36   46.80 
  -2   3  -3  398.16   51.39 
   2  -3   3  393.66   48.20 
   2  -3   3  388.46   40.70 
   2  -3   3  319.87   45.10 
   2  -3   3  330.07   41.00 
   2  -3   3  326.97   45.30 
   2  -3   3  391.76   45.40 
   2  -3   3  309.77   43.50 
   2  -3   3  395.56   43.70 
  -2   2  -4 3889.21  425.56 
  -2   2  -4 3621.04  424.46 
  -2   2  -4 3864.01  425.26 
  -2   2  -4 3495.15  429.46 
  -2   2  -4 3877.01  422.76 
  -2   2  -4 3855.91  425.66 
  -2   2  -4 3879.21  427.56 
   2  -2   4 3892.71  423.66 
   2  -2   4 3807.12  424.86 
   2  -2   4 3803.82  425.06 
   2  -2   4 3704.23  425.16 
   2  -2   4 4057.59  423.16 
   2  -2   4 3517.75  426.96 
  -2   1  -5 1455.55  151.08 
  -2   1  -5 1211.28  148.29 
  -2   1  -5 1321.07  151.38 
  -2   1  -5 1509.85  151.88 
  -2   1  -5 1283.67  154.88 
  -2   1  -5 1345.57  151.48 
  -2   1  -5 1219.78  152.78 
  -2   1  -5 1384.26  151.38 
   2  -1   5 1331.77  151.28 
   2  -1   5 1306.17  151.68 
   2  -1   5 1343.57  151.18 
   2  -1   5 1248.08  153.58 
   2  -1   5 1443.16  149.88 
   2  -1   5 1411.66  151.38 
   2  -1   5 1105.39  150.88 
   2  -1   5 1391.66  150.88 
  -2   0  -6 2886.81  315.47 
  -2   0  -6 2414.56  310.87 
  -2   0  -6 2889.21  314.27 
  -2   0  -6 2896.51  313.67 
  -2   0  -6 3124.79  313.37 
  -2   0  -6 2878.21  312.97 
  -2   0  -6 3034.80  313.07 
  -2   0  -6 2898.01  313.97 
   2   0   6 2757.32  312.87 
   2   0   6 2686.83  312.97 
   2   0   6 2969.50  314.27 
   2   0   6 2421.26  314.07 
   2   0   6 2782.02  311.37 
   2   0   6 2687.53  312.97 
   2   0   6 2722.23  309.67 
   2   0   6 2630.44  314.57 
  -2  -1  -7  217.38   29.80 
  -2  -1  -7  207.28   29.30 
  -2  -1  -7  251.77   28.70 
  -2  -1  -7  214.08   28.00 
  -2  -1  -7  211.38   28.70 
  -2  -1  -7  215.18   25.40 
   2   1   7  206.58   29.00 
   2   1   7  230.48   29.20 
   2   1   7  186.88   25.20 
   2   1   7  194.48   28.40 
   2   1   7  209.98   28.30 
   2   1   7  221.98   29.40 
   2   1   7  177.78   27.70 
   2   1   7  211.38   28.40 
  -2  -2  -8 2597.24  265.47 
  -2  -2  -8 2168.18  261.27 
  -2  -2  -8 2321.47  266.47 
  -2  -2  -8 2236.88  264.17 
  -2  -2  -8 2372.26  264.87 
  -2  -2  -8 2326.97  266.67 
   2   2   8 2400.16  265.37 
   2   2   8 2482.85  261.67 
   2   2   8 2217.68  264.87 
   2   2   8 2341.37  264.67 
   2   2   8 2331.27  265.37 
   2   2   8 2161.48  264.57 
   2   2   8 2361.66  265.17 
   2   2   8 2366.36  264.57 
  -2  -3  -9   77.99   18.20 
  -2  -3  -9  124.89   23.70 
  -2  -3  -9   74.49   11.80 
  -2  -3  -9   97.99   18.50 
  -2  -3  -9   91.29   21.50 
  -2  -3  -9   80.39   17.00 
  -2  -3  -9   61.19   15.40 
   2   3   9  102.29   18.80 
   2   3   9   79.39   18.10 
   2   3   9   90.79   19.30 
   2   3   9   70.99   17.90 
   2   3   9   94.99   19.90 
   2   3   9   82.29   17.90 
   2   3   9   55.89   15.40 
  -2  -4 -10   65.59   16.50 
  -2  -4 -10   55.49   16.00 
  -2  -4 -10   88.99   25.20 
  -2  -4 -10   71.39   18.70 
  -2  -4 -10   71.09   20.60 
  -2  -4 -10   75.29   12.20 
  -2  -4 -10   65.79   16.10 
   2   4  10   68.79   17.30 
   2   4  10   70.39   19.40 
   2   4  10   54.19   16.80 
   2   4  10   55.99   17.70 
   2   4  10   77.29   20.00 
   2   4  10   74.59   20.40 
  -2  -5 -11  543.95   65.79 
  -2  -5 -11  557.24   67.49 
  -2  -5 -11  473.15   60.59 
  -2  -5 -11  552.74   67.89 
  -2  -5 -11  533.85   69.99 
   2   5  11  507.65   68.59 
   2   5  11  502.35   72.69 
   2   5  11  405.16   66.29 
   2   5  11  619.54   73.19 
   2   5  11  522.95   68.29 
   2   5  11  591.74   70.59 
  -2  -6 -12   65.39   18.80 
  -2  -6 -12   51.09   11.30 
  -2  -6 -12   25.70   17.90 
   2   6  12   58.49   24.10 
   2   6  12   48.60   28.10 
   2   6  12   58.29   25.40 
   2   6  12   58.79   22.50 
  -2  -7 -13  127.69   29.20 
  -2  -7 -13   75.99   24.40 
  -2  -7 -13  101.79   25.20 
   2   7  13   98.69   30.90 
   2   7  13   98.49   30.30 
   2   7  13   31.90   35.20 
   2   7  13  111.29   29.70 
   2   7  13  152.68   34.80 
   2   7  13   85.89   24.20 
  -1  11   4  -17.60   20.50 
  -1  11   4    3.80   28.10 
   1 -11  -4   26.20   25.00 
   1 -11  -4    3.40   18.90 
   1 -11  -4  -11.10   24.20 
   1 -11  -4   -7.10   20.60 
   1 -11  -4  -59.69   52.09 
   1 -11  -4  -12.90   16.40 
  -1  10   3  168.18   36.30 
  -1  10   3  103.29   34.20 
  -1  10   3  184.68   39.20 
  -1  10   3  105.39   30.10 
   1 -10  -3  181.28   54.49 
   1 -10  -3  130.09   29.50 
   1 -10  -3  246.38   42.90 
   1 -10  -3  143.89   36.10 
   1 -10  -3  112.09   26.40 
  -1   9   2  210.98   42.40 
  -1   9   2  260.87   55.49 
  -1   9   2  293.27   47.30 
  -1   9   2  298.27   48.30 
  -1   9   2  327.67   47.10 
  -1   9   2  194.58   45.70 
   1  -9  -2  329.37   41.00 
   1  -9  -2  221.58   39.80 
   1  -9  -2  254.77   39.50 
   1  -9  -2  279.57   58.79 
   1  -9  -2  322.97   45.30 
  -1   8   1  368.96   69.09 
  -1   8   1  379.66   60.29 
  -1   8   1  517.75   64.59 
  -1   8   1  423.76   60.29 
  -1   8   1  515.15   69.89 
  -1   8   1  388.66   61.59 
   1  -8  -1  409.36   63.69 
   1  -8  -1  479.75   57.09 
   1  -8  -1  427.86   73.19 
   1  -8  -1  493.85   56.09 
   1  -8  -1  367.46   55.19 
   1  -8  -1  386.66   69.39 
   1  -8  -1  485.05   61.49 
  -1   7   0   46.30   14.60 
  -1   7   0   72.79   20.30 
  -1   7   0   57.09   20.30 
  -1   7   0   19.70   15.80 
  -1   7   0   44.70   19.00 
  -1   7   0   61.99   25.00 
  -1   7   0   47.40   24.20 
   1  -7   0   63.99   23.90 
   1  -7   0   67.59   19.20 
   1  -7   0   89.09   27.70 
   1  -7   0   65.89   25.30 
   1  -7   0   40.70   13.70 
   1  -7   0   67.29   14.30 
   1  -7   0   40.40   18.80 
  -1   6  -1    0.50   10.10 
  -1   6  -1   28.40   14.40 
  -1   6  -1   34.20   17.40 
  -1   6  -1   10.40   13.40 
  -1   6  -1    7.30   13.80 
  -1   6  -1   44.20   14.30 
  -1   6  -1   17.20   14.00 
   1  -6   1   26.40   15.50 
   1  -6   1   27.30    8.60 
   1  -6   1    1.10   13.90 
   1  -6   1   -0.70    8.20 
   1  -6   1   21.00   12.30 
   1  -6   1   15.20   13.50 
   1  -6   1   13.50   17.40 
   1  -6   1   14.50    8.90 
  -1   5  -2   83.59   20.10 
  -1   5  -2   83.89   18.90 
  -1   5  -2   66.29   18.20 
  -1   5  -2   32.40   15.30 
  -1   5  -2   48.60   13.30 
  -1   5  -2   56.99   18.10 
  -1   5  -2   49.00   15.80 
   1  -5   2   54.69   15.10 
   1  -5   2   53.89   16.00 
   1  -5   2   51.89   16.50 
   1  -5   2   65.39   13.40 
   1  -5   2   54.59   18.50 
   1  -5   2   50.89   18.30 
   1  -5   2   54.09   15.60 
   1  -5   2   68.59   12.50 
  -1   4  -3 2203.18  242.28 
  -1   4  -3 2052.89  238.18 
  -1   4  -3 1937.71  240.08 
  -1   4  -3 1978.70  240.88 
  -1   4  -3 2053.39  236.88 
   1  -4   3 1750.52  238.78 
   1  -4   3 2234.48  242.98 
   1  -4   3 2048.90  241.28 
   1  -4   3 2307.47  241.08 
   1  -4   3 2389.46  239.18 
   1  -4   3 2110.89  235.78 
   1  -4   3 1813.62  242.18 
   1  -4   3 2443.06  240.78 
  -1   3  -4 1937.21  199.48 
  -1   3  -4 1608.84  195.28 
  -1   3  -4 1889.11  193.18 
  -1   3  -4 1647.84  196.08 
  -1   3  -4 1742.03  199.68 
  -1   3  -4 1552.94  193.88 
  -1   3  -4 1564.34  195.88 
  -1   3  -4 1843.02  197.68 
   1  -3   4 1743.13  192.08 
   1  -3   4 1897.51  194.98 
   1  -3   4 1563.54  196.28 
   1  -3   4 1875.31  195.48 
   1  -3   4 1553.84  199.58 
   1  -3   4 1672.13  197.28 
   1  -3   4 1516.95  194.98 
  -1   2  -5 1117.89  146.09 
  -1   2  -5 1213.48  147.99 
  -1   2  -5 1355.26  145.59 
  -1   2  -5 1484.15  148.59 
  -1   2  -5 1248.28  146.99 
  -1   2  -5 1254.67  149.19 
  -1   2  -5 1327.37  150.78 
  -1   2  -5 1366.46  148.19 
   1  -2   5 1364.26  145.39 
   1  -2   5 1137.29  146.99 
   1  -2   5 1385.26  148.19 
   1  -2   5 1190.88  146.79 
   1  -2   5 1168.88  146.29 
   1  -2   5 1247.58  149.39 
   1  -2   5 1417.16  147.49 
  -1   1  -6  732.33   84.19 
  -1   1  -6  802.92   84.79 
  -1   1  -6  656.93   86.39 
  -1   1  -6  681.93   85.69 
  -1   1  -6  789.72   84.79 
  -1   1  -6  735.13   84.59 
  -1   1  -6  793.62   83.69 
   1  -1   6  610.54   83.49 
   1  -1   6  730.63   83.49 
   1  -1   6  682.13   84.09 
   1  -1   6  716.13   84.09 
   1  -1   6  734.23   84.39 
   1  -1   6  688.33   84.09 
   1  -1   6  689.23   85.99 
  -1   0  -7    5.50    4.80 
  -1   0  -7    0.70    6.80 
  -1   0  -7    2.40    5.80 
  -1   0  -7   -1.20    3.40 
  -1   0  -7    7.50    6.00 
  -1   0  -7   -1.70    4.60 
  -1   0  -7   -0.70    5.30 
   1   0   7    3.70    2.10 
   1   0   7   -3.50    4.80 
   1   0   7    6.80    4.80 
   1   0   7   -4.50    4.50 
   1   0   7    0.70    4.10 
   1   0   7    0.70    6.10 
   1   0   7   -1.60    4.60 
  -1  -1  -8  148.59   22.20 
  -1  -1  -8  138.79   21.80 
  -1  -1  -8  153.88   21.90 
  -1  -1  -8  163.08   22.80 
   1   1   8  110.59   21.70 
   1   1   8  125.49   17.20 
   1   1   8  121.39   22.40 
   1   1   8  145.39   22.00 
   1   1   8  121.29   22.30 
   1   1   8  150.58   22.10 
   1   1   8  159.48   22.40 
  -1  -2  -9 2086.59  225.78 
  -1  -2  -9 1995.20  225.08 
  -1  -2  -9 2057.09  224.78 
  -1  -2  -9 1965.70  226.78 
  -1  -2  -9 2128.29  225.38 
  -1  -2  -9 2004.90  226.28 
   1   2   9 2061.79  226.58 
   1   2   9 1893.41  226.08 
   1   2   9 1917.61  226.08 
   1   2   9 1761.12  225.38 
   1   2   9 1817.92  225.38 
   1   2   9 2016.20  226.58 
   1   2   9 2008.60  221.08 
   1   2   9 1903.71  225.48 
  -1  -3 -10   12.20   10.00 
  -1  -3 -10   41.80   16.90 
  -1  -3 -10   33.10   11.60 
  -1  -3 -10   38.10   12.60 
  -1  -3 -10   33.00   15.40 
  -1  -3 -10   49.00   12.00 
  -1  -3 -10   39.90    7.00 
   1   3  10   38.70   14.30 
   1   3  10   44.40   15.10 
   1   3  10   47.20   14.60 
   1   3  10   23.10   15.80 
   1   3  10    8.70   13.80 
   1   3  10   45.60   14.40 
   1   3  10   26.40   14.10 
  -1  -4 -11  274.67   50.69 
  -1  -4 -11  410.06   48.00 
  -1  -4 -11  407.06   47.50 
  -1  -4 -11  279.07   48.80 
  -1  -4 -11  341.27   44.80 
  -1  -4 -11  315.47   45.00 
  -1  -4 -11  304.57   39.20 
   1   4  11  350.06   51.79 
   1   4  11  299.67   48.40 
   1   4  11  342.67   48.90 
   1   4  11  341.57   48.30 
   1   4  11  361.46   50.09 
   1   4  11  395.66   52.09 
  -1  -5 -12   28.10   17.00 
  -1  -5 -12   38.30   13.40 
  -1  -5 -12   46.60    8.20 
  -1  -5 -12   27.70   15.60 
  -1  -5 -12   26.30   14.30 
   1   5  12   41.50   20.10 
   1   5  12   31.30   18.70 
   1   5  12   14.10   20.30 
   1   5  12   45.70   22.70 
   1   5  12   44.30   18.30 
  -1  -6 -13   11.50    5.60 
  -1  -6 -13   -3.00   18.20 
  -1  -6 -13   12.10   14.90 
  -1  -6 -13   12.60   13.30 
   1   6  13    4.80   19.10 
   1   6  13   40.30   25.70 
   1   6  13    4.50   29.10 
   1   6  13  -13.10   23.00 
  -1  -7 -14   29.90   22.70 
  -1  -7 -14   -6.90   19.90 
  -1  -7 -14   46.10   19.40 
   1   7  14   62.19   30.50 
   1   7  14   51.69   43.00 
   1   7  14   34.20   24.50 
   0  11   3   13.50   21.60 
   0  11   3   30.30   24.30 
   0  11   3   24.50   27.30 
   0  11   3   -8.10   26.60 
   0 -11  -3    8.70   26.80 
   0 -11  -3   23.10   41.80 
   0 -11  -3    8.70   21.80 
   0 -11  -3    0.50   30.30 
   0 -11  -3  -37.80   18.70 
   0 -11  -3    8.10   16.40 
   0  10   2  418.06   59.49 
   0  10   2  327.67   62.69 
   0  10   2  320.97   59.79 
   0  10   2  383.96   58.69 
   0 -10  -2  336.77   58.99 
   0 -10  -2  322.97   49.50 
   0 -10  -2  505.35   59.69 
   0 -10  -2  336.67   74.09 
   0 -10  -2  347.57   51.99 
   0 -10  -2  257.37   51.69 
   0   9   1    8.20   35.00 
   0   9   1  -25.20   18.50 
   0   9   1   22.40   18.30 
   0   9   1   -3.30   15.10 
   0   9   1    6.70   18.40 
   0  -9  -1    6.10   19.10 
   0  -9  -1   14.40   16.60 
   0  -9  -1   29.50   32.20 
   0  -9  -1   17.20   14.80 
   0   8   0  659.13  102.69 
   0   8   0  914.11  108.59 
   0   8   0  689.43  102.39 
   0   8   0  881.11  108.39 
   0   8   0  844.62  105.19 
   0  -8   0  867.01  101.09 
   0  -8   0  773.52  100.09 
   0  -8   0 1013.90  113.69 
   0  -8   0  749.03  107.59 
   0  -8   0 1020.00  107.79 
   0  -8   0  728.23  108.59 
   0  -8   0 1017.40  115.39 
   0   7  -1    4.80   15.70 
   0   7  -1   14.30   11.00 
   0   7  -1  -12.80   12.30 
   0   7  -1   11.40   17.70 
   0   7  -1   -9.70   12.70 
   0   7  -1   10.50   14.10 
   0   7  -1    2.40   14.70 
   0  -7   1  -20.70   19.30 
   0  -7   1    8.60   11.50 
   0  -7   1    2.40   20.00 
   0  -7   1  -29.00   15.40 
   0  -7   1    8.80    8.90 
   0  -7   1    0.70   20.80 
   0  -7   1  -13.00   11.00 
   0   6  -2  545.05   63.89 
   0   6  -2  366.16   59.99 
   0   6  -2  506.05   64.09 
   0   6  -2  462.65   63.19 
   0   6  -2  365.36   55.89 
   0   6  -2  493.35   60.99 
   0  -6   2  522.35   57.79 
   0  -6   2  397.56   61.39 
   0  -6   2  496.05   64.69 
   0  -6   2  553.84   64.59 
   0  -6   2  406.46   62.49 
   0  -6   2  410.46   59.29 
   0  -6   2  401.76   60.19 
   0  -6   2  399.46   55.99 
   0   5  -3    2.60   12.00 
   0   5  -3    5.60    8.20 
   0   5  -3    1.00   13.00 
   0   5  -3   11.10   11.70 
   0   5  -3   12.80   11.40 
   0   5  -3   -6.40   10.20 
   0  -5   3   -3.50   10.50 
   0  -5   3   -2.40    8.10 
   0  -5   3   10.20   12.10 
   0  -5   3   47.00   13.50 
   0  -5   3   13.10    8.40 
   0  -5   3    4.90   11.50 
   0  -5   3   12.90    7.90 
   0  -5   3    9.50    7.20 
   0   4  -4 1718.63  191.28 
   0   4  -4 1634.84  191.28 
   0   4  -4 1658.43  192.38 
   0   4  -4 1495.75  187.48 
   0   4  -4 1840.82  188.88 
   0   4  -4 1691.73  193.08 
   0  -4   4 1842.32  189.18 
   0  -4   4 1651.03  189.88 
   0  -4   4 1794.22  191.78 
   0  -4   4 1670.63  187.38 
   0  -4   4 1725.23  192.38 
   0  -4   4 1363.26  189.08 
   0  -4   4 1475.35  191.18 
   0  -4   4 1458.45  189.48 
   0   3  -5    7.90    8.60 
   0   3  -5   -3.00    7.60 
   0   3  -5   -2.00    7.50 
   0   3  -5   -0.60    5.50 
   0   3  -5    3.70    5.60 
   0   3  -5    6.30    6.40 
   0   3  -5    3.20    8.20 
   0   3  -5    9.10    9.80 
   0  -3   5   -0.10    5.60 
   0  -3   5   20.00    9.90 
   0  -3   5   -1.10    6.50 
   0  -3   5   -2.20    7.30 
   0  -3   5    3.00    5.10 
   0  -3   5    5.10    6.10 
   0  -3   5   -0.60    8.50 
   0  -3   5   -7.90    4.60 
   0   2  -6 2910.71  291.07 
   0   2  -6 2451.95  292.17 
   0   2  -6 2660.53  291.87 
   0   2  -6 2599.84  290.67 
   0   2  -6 2750.82  289.17 
   0   2  -6 2175.08  291.77 
   0   2  -6 2224.68  285.37 
   0   2  -6 2529.75  291.17 
   0  -2   6 2785.62  291.87 
   0  -2   6 2875.81  291.77 
   0  -2   6 2602.74  289.07 
   0  -2   6 2549.65  290.17 
   0  -2   6 2358.86  291.67 
   0   1  -7   -0.40    4.20 
   0   1  -7    1.20    7.60 
   0   1  -7    6.40    6.70 
   0   1  -7    4.10    8.00 
   0   1  -7    5.10    6.40 
   0   1  -7    5.60    5.10 
   0   1  -7   -1.10    6.30 
   0  -1   7   -2.90    5.40 
   0  -1   7   10.80    7.00 
   0  -1   7    9.40    7.60 
   0  -1   7   13.00    7.40 
   0  -1   7   -0.10    4.40 
   0  -1   7    0.20    4.30 
   0   0  -8 5315.97  649.34 
   0   0  -8 6810.12  650.63 
   0   0  -8 5547.25  645.94 
   0   0  -8 5982.40  652.13 
   0   0  -8 6512.15  651.13 
   0   0  -8 6352.36  651.53 
   0   0  -8 5776.62  650.53 
   0   0   8 5685.53  650.33 
   0   0   8 5275.07  650.13 
   0   0   8 5411.46  650.03 
   0   0   8 5955.50  651.73 
   0   0   8 5847.42  645.34 
   0   0   8 5578.64  646.44 
   0   0   8 5461.45  651.53 
   0  -1  -9   -9.00    7.30 
   0  -1  -9    1.70    1.70 
   0  -1  -9   -1.10    5.70 
   0  -1  -9    3.70    6.70 
   0  -1  -9    4.10    5.10 
   0  -1  -9    7.30    7.10 
   0  -1  -9   -8.80    6.90 
   0   1   9   -3.20    5.00 
   0   1   9    3.90    2.30 
   0   1   9   -7.80    7.30 
   0   1   9    1.90    1.60 
   0   1   9    1.10    8.40 
   0   1   9   41.90   13.50 
   0   1   9    7.40    6.60 
   0   1   9    5.60    7.90 
   0   1   9    1.30    7.50 
   0  -2 -10  717.53   88.39 
   0  -2 -10  759.52   89.39 
   0  -2 -10  778.62   86.89 
   0  -2 -10  723.53   87.99 
   0  -2 -10  766.02   87.99 
   0  -2 -10  843.52   88.79 
   0   2  10  629.74   88.39 
   0   2  10  643.54   89.09 
   0   2  10  741.53   89.79 
   0   2  10  662.73   88.59 
   0   2  10  758.02   82.59 
   0   2  10  695.63   88.89 
   0   2  10  713.33   89.59 
   0   2  10  731.63   89.39 
   0   2  10  751.22   89.99 
   0  -3 -11   -4.40    8.30 
   0  -3 -11   -1.00    6.30 
   0  -3 -11    9.20   11.00 
   0  -3 -11   15.80   14.10 
   0  -3 -11   -2.90    7.90 
   0  -3 -11    1.70    6.30 
   0   3  11   -9.90    9.30 
   0   3  11   -9.20    7.60 
   0   3  11    7.90   14.30 
   0   3  11   -2.40   10.00 
   0   3  11   -4.80    9.90 
   0   3  11   11.20   12.60 
   0   3  11   27.50   14.90 
   0  -4 -12   23.50   10.20 
   0  -4 -12  -23.00   10.50 
   0  -4 -12    3.70   11.90 
   0  -4 -12    9.20   11.70 
   0   4  12   -8.40   15.20 
   0   4  12  -10.20   15.80 
   0   4  12  -12.20   13.10 
   0   4  12   13.00   17.40 
   0   4  12   24.60   25.00 
   0  -5 -13    2.70   13.20 
   0  -5 -13    6.90    9.30 
   0  -5 -13   -2.30   12.00 
   0   5  13  -26.90   20.40 
   0   5  13    7.00   20.20 
   0   5  13  -43.70   21.10 
   0   5  13    7.30   23.10 
   0   5  13   -6.10   15.80 
   0  -6 -14  141.29   30.70 
   0  -6 -14   77.99   20.80 
   0  -6 -14   95.79   25.50 
   0   6  14  110.39   31.80 
   0   6  14  113.79   31.20 
   0   6  14   61.19   32.30 
   0   6  14   93.29   39.90 
   0  -7 -15   -7.60   19.30 
   0  -7 -15    4.60   17.00 
   0   7  15  -18.50   42.00 
   0   7  15  -31.90   24.90 
   0   7  15   -1.60   24.50 
   0   7  15   -2.30   31.50 
   1  11   2   16.30   25.70 
   1  11   2   -7.70   22.90 
   1  11   2    0.10   30.10 
   1  11   2    8.20   27.30 
  -1 -11  -2   46.50   43.90 
  -1 -11  -2  -17.50   20.90 
  -1 -11  -2  -14.80   19.40 
  -1 -11  -2  -20.70   25.00 
  -1 -11  -2    0.50   28.00 
   1  10   1  256.67   54.49 
   1  10   1  323.07   65.59 
   1  10   1  390.06   62.09 
   1  10   1  347.47   60.49 
  -1 -10  -1  302.37   51.79 
  -1 -10  -1  436.26   79.59 
  -1 -10  -1  418.36   56.89 
  -1 -10  -1  430.66   78.79 
  -1 -10  -1  569.14   70.09 
   1   9   0  780.52  127.59 
   1   9   0  926.41  130.39 
   1   9   0 1108.29  132.39 
   1   9   0 1018.50  130.69 
  -1  -9   0  957.70  125.49 
  -1  -9   0 1400.26  143.49 
  -1  -9   0 1176.78  142.89 
  -1  -9   0 1237.88  129.39 
   1   8  -1  486.65   69.69 
   1   8  -1  457.75   65.69 
   1   8  -1  586.74   68.49 
   1   8  -1  538.05   72.19 
   1   8  -1  478.45   67.89 
   1   8  -1  398.96   67.49 
   1   8  -1  329.67   60.79 
  -1  -8   1  522.35   69.69 
  -1  -8   1  454.85   61.79 
  -1  -8   1  452.55   75.89 
  -1  -8   1  545.35   74.69 
  -1  -8   1  507.45   64.29 
  -1  -8   1  446.76   71.39 
   1   7  -2   12.30   16.70 
   1   7  -2   14.90   14.80 
   1   7  -2   50.09   22.00 
   1   7  -2  161.98   33.50 
   1   7  -2    3.60   15.60 
   1   7  -2   17.90   16.80 
  -1  -7   2   38.90   13.30 
  -1  -7   2   40.80   17.20 
  -1  -7   2   34.40   22.80 
  -1  -7   2   32.80   18.20 
  -1  -7   2    5.40   14.30 
  -1  -7   2   38.10   15.20 
  -1  -7   2   15.50   15.70 
   1   6  -3  358.26   54.69 
   1   6  -3  515.55   61.49 
   1   6  -3  451.85   57.09 
   1   6  -3  356.46   51.29 
   1   6  -3  473.15   59.09 
  -1  -6   3  328.97   53.89 
  -1  -6   3  332.37   55.29 
  -1  -6   3  380.96   57.29 
  -1  -6   3  358.76   45.90 
  -1  -6   3  493.55   57.29 
  -1  -6   3  367.06   51.39 
  -1  -6   3  372.16   56.89 
  -1  -6   3  475.95   58.79 
   1   5  -4  141.39   25.60 
   1   5  -4  221.28   31.90 
   1   5  -4  137.89   24.00 
   1   5  -4  136.09   29.00 
   1   5  -4  171.68   30.60 
   1   5  -4  205.88   37.10 
   1   5  -4  100.59   25.20 
   1   5  -4  195.38   29.00 
  -1  -5   4   93.99   24.80 
  -1  -5   4  114.39   25.30 
  -1  -5   4  113.79   26.80 
  -1  -5   4  105.49   26.20 
  -1  -5   4  115.19   26.50 
  -1  -5   4  133.49   18.10 
  -1  -5   4  114.69   23.00 
  -1  -5   4  127.29   27.10 
  -1  -5   4  151.88   29.70 
   1   4  -5  964.70  106.59 
   1   4  -5  795.02  104.39 
   1   4  -5 1000.60  104.19 
   1   4  -5 1016.40  105.79 
   1   4  -5  741.13  103.09 
   1   4  -5  804.02  100.99 
   1   4  -5  842.52  105.99 
  -1  -4   5  938.41  106.39 
  -1  -4   5  682.23  102.09 
  -1  -4   5  814.52  102.39 
  -1  -4   5  916.61  106.39 
  -1  -4   5  964.00  103.59 
  -1  -4   5  901.31  103.49 
  -1  -4   5  732.73  104.79 
   1   3  -6 1690.93  196.58 
   1   3  -6 1770.12  194.98 
   1   3  -6 1634.74  192.58 
   1   3  -6 1674.13  196.78 
   1   3  -6 1801.02  198.48 
  -1  -3   6 1790.82  194.58 
  -1  -3   6 1856.81  195.08 
  -1  -3   6 1458.95  193.78 
  -1  -3   6 1475.45  194.58 
  -1  -3   6 1670.53  196.48 
  -1  -3   6 1623.34  193.88 
  -1  -3   6 1734.13  196.78 
  -1  -3   6 1864.31  197.58 
   1   2  -7  202.58   31.10 
   1   2  -7  210.08   27.40 
   1   2  -7  226.58   32.00 
   1   2  -7  187.58   28.80 
   1   2  -7  264.27   30.40 
   1   2  -7  205.08   28.50 
   1   2  -7  181.48   29.40 
   1   2  -7  214.78   24.10 
  -1  -2   7  206.88   30.00 
  -1  -2   7  175.08   28.70 
  -1  -2   7  203.88   29.00 
  -1  -2   7  166.78   29.90 
  -1  -2   7  184.48   27.90 
  -1  -2   7  245.78   32.40 
  -1  -2   7  155.48   28.10 
   1   1  -8  122.59   20.50 
   1   1  -8  128.59   24.70 
   1   1  -8  132.29   23.00 
   1   1  -8  128.39   15.10 
   1   1  -8  109.09   21.40 
   1   1  -8  144.39   22.00 
   1   1  -8  103.39   18.10 
   1   1  -8  160.48   21.60 
   1   1  -8  121.59   22.40 
  -1  -1   8  126.19   22.80 
  -1  -1   8  161.08   22.60 
  -1  -1   8  146.49   23.80 
  -1  -1   8  124.19   22.60 
  -1  -1   8  106.49   14.70 
  -1  -1   8  113.39   21.10 
  -1  -1   8  146.19   25.00 
  -1  -1   8  138.39   21.00 
   1   0  -9   -2.10    1.90 
   1   0  -9   -0.20    7.30 
   1   0  -9   -2.30    5.30 
   1   0  -9    6.20    8.10 
   1   0  -9   17.60    8.20 
   1   0  -9    3.40    6.40 
   1   0  -9   -6.20    7.10 
  -1   0   9   -5.20    5.00 
  -1   0   9   10.20    8.90 
  -1   0   9    1.40    8.40 
  -1   0   9   15.30   10.20 
  -1   0   9   -9.60    8.30 
  -1   0   9    4.10    8.40 
  -1   0   9    3.10    1.90 
  -1   0   9    6.50    8.70 
   1  -1 -10    0.50    6.20 
   1  -1 -10    5.30    2.80 
   1  -1 -10   -5.40    7.20 
   1  -1 -10   15.60   10.30 
   1  -1 -10   -1.10    6.80 
   1  -1 -10    5.70    8.00 
   1  -1 -10    9.60    9.00 
  -1   1  10    3.30    7.80 
  -1   1  10    5.00    8.00 
  -1   1  10    9.00   10.70 
  -1   1  10   -1.50    6.10 
  -1   1  10    1.90    9.70 
  -1   1  10    3.50    2.30 
  -1   1  10    3.70    2.60 
  -1   1  10   24.50   11.70 
  -1   1  10    5.20   10.80 
   1  -2 -11  813.52   88.19 
   1  -2 -11  633.64   87.59 
   1  -2 -11  716.33   87.49 
   1  -2 -11  690.13   84.89 
   1  -2 -11  737.03   81.19 
   1  -2 -11  872.41   88.49 
  -1   2  11  817.12   91.39 
  -1   2  11  607.94   87.99 
  -1   2  11  661.33   81.59 
  -1   2  11  733.23   80.79 
  -1   2  11  755.22   89.69 
  -1   2  11  606.04   89.59 
  -1   2  11  691.43   89.99 
  -1   2  11  683.93   88.99 
  -1   2  11  714.63   89.29 
  -1   2  11  814.42   91.79 
   1  -3 -12 1026.80  126.59 
   1  -3 -12  981.80  124.69 
   1  -3 -12  930.71  122.59 
   1  -3 -12 1050.59  120.39 
   1  -3 -12 1234.58  125.59 
   1  -3 -12 1073.79  123.59 
  -1   3  12 1013.60  126.19 
  -1   3  12 1135.99  127.59 
  -1   3  12 1152.68  128.29 
  -1   3  12 1085.19  127.69 
  -1   3  12  936.31  126.39 
  -1   3  12 1053.49  126.29 
  -1   3  12 1056.79  126.59 
  -1   3  12  912.21  117.29 
   1  -4 -13   88.99   20.20 
   1  -4 -13   68.29   16.70 
  -1   4  13  102.89   27.40 
  -1   4  13   83.19   24.50 
  -1   4  13  109.59   26.70 
  -1   4  13   79.89   27.10 
  -1   4  13   68.29   27.10 
   1  -5 -14  -21.90   10.00 
   1  -5 -14    7.80   13.70 
   1  -5 -14   18.30   12.70 
  -1   5  14   43.10   30.90 
  -1   5  14   86.99   27.20 
  -1   5  14   -4.00   24.20 
   1  -6 -15   23.40   14.10 
   1  -6 -15   -8.90   18.30 
   1  -6 -15   28.30   18.30 
  -1   6  15   -4.10   23.70 
  -1   6  15   66.29   38.60 
  -1   6  15  -17.50   32.70 
  -1   6  15   26.20   25.00 
   2  11   1  308.77   56.59 
   2  11   1  261.77   55.69 
   2  11   1  275.27   56.79 
  -2 -11  -1  232.58   75.89 
  -2 -11  -1  408.06   60.19 
  -2 -11  -1  347.97   61.19 
  -2 -11  -1  513.65   71.99 
  -2 -11  -1  233.98   48.50 
   2  10   0  839.72  117.09 
   2  10   0  702.83  108.29 
   2  10   0  898.61  110.49 
   2  10   0  886.91  113.09 
  -2 -10   0  897.41  125.49 
  -2 -10   0  796.02  108.79 
   2   9  -1    5.80   16.90 
   2   9  -1  -12.80   24.10 
   2   9  -1   -4.10   18.50 
  -2  -9   1   13.50   14.30 
  -2  -9   1  -16.20   35.90 
  -2  -9   1   -5.20   23.10 
  -2  -9   1   39.80   34.40 
  -2  -9   1    6.00   19.50 
  -2  -9   1    1.40   19.40 
   2   8  -2   -4.40   23.20 
   2   8  -2  -23.60   15.60 
   2   8  -2   18.50   23.00 
   2   8  -2   -4.00   18.30 
   2   8  -2    7.20   18.10 
   2   8  -2   26.30   27.90 
  -2  -8   2   35.40   29.30 
  -2  -8   2   21.80   21.40 
  -2  -8   2   39.60   19.40 
  -2  -8   2    7.20   25.90 
  -2  -8   2   13.10   16.00 
  -2  -8   2   12.10   12.60 
  -2  -8   2   17.00   28.80 
   2   7  -3  785.82   90.99 
   2   7  -3  559.64   85.69 
   2   7  -3  903.71   97.39 
   2   7  -3  577.74   88.49 
   2   7  -3  817.92   94.19 
  -2  -7   3  659.53   92.69 
  -2  -7   3  640.34   91.79 
  -2  -7   3  762.82   92.59 
  -2  -7   3  653.83   80.69 
  -2  -7   3  727.33   86.39 
  -2  -7   3  939.71   96.99 
  -2  -7   3  555.64   87.49 
  -2  -7   3  700.13   94.69 
   2   6  -4  424.76   53.89 
   2   6  -4  465.25   58.19 
   2   6  -4  330.87   48.90 
   2   6  -4  393.26   56.29 
   2   6  -4  242.08   49.70 
  -2  -6   4  291.17   53.99 
  -2  -6   4  345.07   54.09 
  -2  -6   4  325.27   44.00 
  -2  -6   4  403.36   55.39 
  -2  -6   4  389.26   49.50 
  -2  -6   4  394.86   53.89 
  -2  -6   4  392.26   53.69 
  -2  -6   4  337.67   53.09 
  -2  -6   4  500.75   58.19 
   2   5  -5  747.83   97.09 
   2   5  -5  914.51   99.19 
   2   5  -5  854.81  102.89 
   2   5  -5  729.73   94.39 
   2   5  -5  972.50  100.59 
  -2  -5   5  814.62   98.49 
  -2  -5   5 1017.00  103.19 
  -2  -5   5  804.82  101.79 
  -2  -5   5  813.42  101.19 
  -2  -5   5  686.73   98.29 
  -2  -5   5  665.23   91.59 
  -2  -5   5  718.83   97.29 
  -2  -5   5  868.91   97.79 
  -2  -5   5  720.53   98.09 
   2   4  -6    8.40    3.60 
   2   4  -6    1.90   10.50 
   2   4  -6    5.20   14.40 
   2   4  -6   -2.10    7.40 
   2   4  -6    3.30    9.30 
   2   4  -6    1.00   12.40 
   2   4  -6    5.60    9.10 
   2   4  -6    3.90   10.00 
   2   4  -6  -14.00   11.30 
  -2  -4   6   20.20   12.90 
  -2  -4   6   -6.40   11.60 
  -2  -4   6   35.70   15.00 
  -2  -4   6    1.70    9.90 
  -2  -4   6   -2.80   10.10 
  -2  -4   6   -2.60    9.90 
  -2  -4   6   -6.70    8.40 
  -2  -4   6    6.00   11.40 
   2   3  -7   85.99   20.80 
   2   3  -7   75.59   17.00 
   2   3  -7   59.99   16.50 
   2   3  -7   54.29    9.60 
   2   3  -7   87.49   18.40 
   2   3  -7   34.90   14.10 
   2   3  -7   49.99   14.90 
   2   3  -7   56.29   18.30 
   2   3  -7   49.60   13.30 
  -2  -3   7   67.69   16.60 
  -2  -3   7   65.19   16.60 
  -2  -3   7   61.39   15.70 
  -2  -3   7   51.89   17.90 
  -2  -3   7   61.19   16.90 
  -2  -3   7   51.09   16.20 
  -2  -3   7   69.39   15.50 
  -2  -3   7   44.70   15.60 
   2   2  -8 2024.60  245.78 
   2   2  -8 2048.70  246.08 
   2   2  -8 2497.65  245.08 
   2   2  -8 2362.46  245.08 
   2   2  -8 2069.39  243.78 
   2   2  -8 2216.38  245.68 
   2   2  -8 2241.38  239.68 
   2   2  -8 2015.80  245.58 
   2   2  -8 2065.69  241.78 
  -2  -2   8 1915.31  242.88 
  -2  -2   8 2225.38  246.38 
  -2  -2   8 2407.06  248.88 
  -2  -2   8 2317.37  246.58 
  -2  -2   8 1964.90  243.78 
  -2  -2   8 2055.39  245.88 
  -2  -2   8 1861.01  243.68 
   2   1  -9 2219.48  213.58 
   2   1  -9 1959.40  213.78 
   2   1  -9 1899.71  213.58 
   2   1  -9 1870.51  207.88 
   2   1  -9 1778.62  212.68 
   2   1  -9 1864.51  208.58 
   2   1  -9 2028.00  216.18 
   2   1  -9 1716.43  210.08 
   2   1  -9 1947.31  214.58 
   2   1  -9 1921.31  213.28 
  -2  -1   9 1899.21  215.68 
  -2  -1   9 1570.14  207.28 
  -2  -1   9 1710.43  213.28 
  -2  -1   9 1758.22  212.88 
  -2  -1   9 1831.52  214.58 
  -2  -1   9 1688.63  213.18 
  -2  -1   9 2001.60  215.38 
  -2  -1   9 1955.10  216.38 
   2   0 -10  746.73   85.99 
   2   0 -10  618.94   81.89 
   2   0 -10  693.13   85.39 
   2   0 -10  741.73   85.59 
   2   0 -10  695.43   80.09 
   2   0 -10  846.22   86.09 
   2   0 -10  862.51   86.89 
   2   0 -10  635.54   84.69 
  -2   0  10  624.74   85.29 
  -2   0  10  664.33   79.59 
  -2   0  10  601.54   85.79 
  -2   0  10  748.03   87.39 
  -2   0  10  691.13   87.99 
  -2   0  10  840.02   90.09 
  -2   0  10  680.93   85.89 
  -2   0  10  671.83   86.59 
   2  -1 -11  672.53   84.39 
   2  -1 -11  767.62   84.29 
   2  -1 -11  660.73   83.79 
   2  -1 -11  752.82   84.49 
   2  -1 -11  702.13   77.99 
   2  -1 -11  694.73   83.59 
   2  -1 -11  633.04   80.19 
  -2   1  11  642.44   84.29 
  -2   1  11  616.44   90.09 
  -2   1  11  670.13   77.09 
  -2   1  11  746.73   86.79 
  -2   1  11  695.43   85.59 
  -2   1  11  762.32   88.69 
  -2   1  11  581.54   85.79 
  -2   1  11  696.43   85.89 
  -2   1  11  660.03   77.99 
   2  -2 -12  988.10  122.59 
   2  -2 -12 1060.39  127.29 
   2  -2 -12 1134.59  120.49 
   2  -2 -12 1083.19  123.59 
   2  -2 -12  983.80  123.89 
   2  -2 -12 1003.80  116.99 
   2  -2 -12  973.40  123.69 
  -2   2  12  877.41  127.09 
  -2   2  12 1093.69  126.59 
  -2   2  12  994.40  117.59 
  -2   2  12 1130.89  128.09 
  -2   2  12 1009.90  125.59 
  -2   2  12 1141.49  126.29 
  -2   2  12  973.10  126.69 
  -2   2  12 1171.68  129.09 
  -2   2  12 1037.20  125.79 
   2  -3 -13    0.10   11.50 
   2  -3 -13   10.40    9.70 
   2  -3 -13   15.00    8.90 
  -2   3  13   46.60   19.40 
  -2   3  13   18.80   16.60 
  -2   3  13    6.90   22.30 
  -2   3  13   18.00   18.30 
  -2   3  13    6.90    6.80 
  -2   3  13   39.30   21.70 
  -2   3  13   40.60   20.90 
   2  -4 -14    7.60    9.90 
   2  -4 -14   -9.30   13.70 
   2  -4 -14   12.10   15.10 
  -2   4  14   16.50   19.10 
  -2   4  14    5.10   13.20 
  -2   4  14    2.80   17.30 
  -2   4  14   -2.30    7.50 
  -2   4  14  -28.90   22.00 
   2  -5 -15  231.48   35.10 
  -2   5  15  264.67   50.39 
  -2   5  15  241.78   50.19 
  -2   5  15  336.77   57.09 
  -2   5  15  233.68   47.70 
  -2   5  15  254.87   52.89 
   2  -6 -16    8.00   14.20 
   2  -6 -16  -10.90   22.10 
   2  -6 -16   42.10   23.90 
  -2   6  16  -15.20   41.70 
  -2   6  16   59.89   34.60 
  -2   6  16   32.80   40.60 
  -2   6  16   66.69   32.20 
   3  11   0   59.09   30.30 
   3  11   0   30.10   29.60 
   3  11   0   47.00   30.70 
  -3 -11   0  106.59   34.50 
  -3 -11   0    4.80   22.70 
  -3 -11   0   22.50   35.30 
   3  10  -1   17.80   25.10 
   3  10  -1  -33.60   29.60 
   3  10  -1   18.10   21.30 
  -3 -10   1    7.60   25.50 
  -3 -10   1  -14.50   22.60 
  -3 -10   1   77.29   44.80 
  -3 -10   1   -6.50   42.60 
  -3 -10   1   10.00   18.20 
  -3 -10   1   18.50   29.60 
   3   9  -2  457.75   70.09 
   3   9  -2  699.53   81.79 
   3   9  -2  543.65   79.99 
   3   9  -2  451.55   82.29 
  -3  -9   2  644.34   98.99 
  -3  -9   2  483.15   74.69 
  -3  -9   2  549.35   84.89 
  -3  -9   2  387.96   66.59 
  -3  -9   2  524.75   77.69 
   3   8  -3   73.49   24.50 
   3   8  -3  115.69   31.10 
   3   8  -3  114.69   36.40 
   3   8  -3   49.40   22.90 
  -3  -8   3  130.99   33.90 
  -3  -8   3   84.49   28.60 
  -3  -8   3   88.09   32.80 
  -3  -8   3   71.69   23.40 
  -3  -8   3  137.89   35.00 
  -3  -8   3   73.29   16.10 
  -3  -8   3  105.69   32.20 
  -3  -8   3   85.99   30.70 
   3   7  -4  514.85   77.39 
   3   7  -4  729.33   87.89 
   3   7  -4  745.33   81.89 
   3   7  -4  667.23   84.69 
   3   7  -4  534.15   80.09 
  -3  -7   4  611.14   78.99 
  -3  -7   4  558.84   83.29 
  -3  -7   4  580.24   73.79 
  -3  -7   4  774.92   88.09 
  -3  -7   4  650.93   86.69 
  -3  -7   4  535.45   82.99 
  -3  -7   4  702.03   85.59 
  -3  -7   4  536.35   86.19 
  -3  -7   4  538.05   86.49 
   3   6  -5    0.10   13.60 
   3   6  -5   10.00   12.30 
   3   6  -5  -17.90   11.30 
   3   6  -5   -0.80   21.10 
   3   6  -5    2.40   14.30 
   3   6  -5   -3.20   13.00 
   3   6  -5   12.20   15.30 
  -3  -6   5   -1.70   18.70 
  -3  -6   5   19.70   17.90 
  -3  -6   5   -3.70   15.20 
  -3  -6   5    1.50   11.50 
  -3  -6   5    7.20   12.60 
  -3  -6   5  -15.20   14.70 
  -3  -6   5   21.80   20.00 
  -3  -6   5   -6.90   16.70 
  -3  -6   5    0.40    5.40 
   3   5  -6  183.58   35.20 
   3   5  -6  272.97   41.40 
   3   5  -6  178.48   35.70 
   3   5  -6  201.28   31.70 
   3   5  -6  251.77   37.60 
   3   5  -6  240.48   27.60 
   3   5  -6  286.77   46.60 
   3   5  -6  202.98   34.80 
  -3  -5   6  283.07   41.40 
  -3  -5   6  174.58   35.30 
  -3  -5   6  154.28   35.90 
  -3  -5   6  263.47   39.90 
  -3  -5   6  183.98   34.80 
  -3  -5   6  255.77   45.10 
  -3  -5   6  152.48   35.20 
  -3  -5   6  164.18   35.00 
   3   4  -7    7.20    8.70 
   3   4  -7   13.90    5.20 
   3   4  -7    7.40   10.30 
   3   4  -7    7.60   10.80 
   3   4  -7   14.30   17.00 
   3   4  -7   -2.00   13.10 
   3   4  -7   55.89   23.00 
   3   4  -7   -5.80   12.40 
   3   4  -7    1.90   13.20 
  -3  -4   7   11.90   18.40 
  -3  -4   7   12.70   14.20 
  -3  -4   7    1.50   10.00 
  -3  -4   7    3.30    9.50 
  -3  -4   7    7.20   11.60 
  -3  -4   7   -7.40   12.50 
  -3  -4   7   11.40   10.40 
  -3  -4   7    9.50   11.20 
   3   3  -8  265.67   40.50 
   3   3  -8  263.07   41.60 
   3   3  -8  282.07   40.30 
   3   3  -8  308.67   52.09 
   3   3  -8  270.57   34.50 
   3   3  -8  371.96   44.50 
   3   3  -8  224.38   44.10 
   3   3  -8  273.07   40.60 
  -3  -3   8  288.97   39.90 
  -3  -3   8  333.27   41.90 
  -3  -3   8  248.28   39.50 
  -3  -3   8  214.48   39.60 
  -3  -3   8  323.07   46.80 
  -3  -3   8  253.57   41.70 
  -3  -3   8  302.67   43.10 
  -3  -3   8  298.97   44.20 
   3   2  -9   76.89   18.80 
   3   2  -9  101.39   20.40 
   3   2  -9  103.49   21.90 
   3   2  -9   57.89   18.60 
   3   2  -9   83.99   16.30 
   3   2  -9   67.49   19.50 
   3   2  -9   99.89   13.00 
   3   2  -9   57.39   17.30 
  -3  -2   9   74.59   21.50 
  -3  -2   9   75.09   21.60 
  -3  -2   9   81.49   20.40 
  -3  -2   9   72.49   18.80 
  -3  -2   9   72.29   17.30 
  -3  -2   9   76.99   19.10 
  -3  -2   9   59.99   20.90 
   3   1 -10   37.00   14.40 
   3   1 -10   47.20   14.70 
   3   1 -10   51.89   15.70 
   3   1 -10   28.40   13.00 
   3   1 -10   40.80    8.00 
   3   1 -10   39.40   11.00 
   3   1 -10   43.80   15.20 
   3   1 -10   29.00   14.40 
  -3  -1  10   14.20   17.30 
  -3  -1  10   37.30   14.20 
  -3  -1  10   44.70   15.60 
  -3  -1  10   25.30   14.30 
  -3  -1  10   60.69   17.70 
  -3  -1  10   56.29   16.80 
  -3  -1  10   33.20    6.70 
   3   0 -11   10.40   12.70 
   3   0 -11   15.90   13.10 
   3   0 -11    5.30    9.60 
   3   0 -11    0.70    7.80 
   3   0 -11    3.50    9.60 
   3   0 -11    0.50   12.00 
  -3   0  11   -6.20    9.20 
  -3   0  11  -10.60   13.40 
  -3   0  11   17.10   15.00 
  -3   0  11  -28.40   10.60 
  -3   0  11    6.90   16.00 
  -3   0  11  -19.70   12.90 
  -3   0  11    5.40   11.10 
  -3   0  11    5.90    3.70 
   3  -1 -12 1007.30  120.59 
   3  -1 -12  946.61  120.09 
   3  -1 -12  987.00  116.59 
   3  -1 -12 1212.38  138.89 
   3  -1 -12 1067.99  120.69 
  -3   1  12 1132.39  125.79 
  -3   1  12  949.90  122.29 
  -3   1  12  848.02  126.29 
  -3   1  12  975.90  121.69 
  -3   1  12  981.50  114.89 
  -3   1  12  996.40  122.89 
  -3   1  12  982.40  129.39 
  -3   1  12  985.10  113.29 
  -3   1  12 1264.47  129.19 
   3  -2 -13   26.50   11.30 
   3  -2 -13   15.40    9.00 
   3  -2 -13   25.50   10.80 
   3  -2 -13    9.80   11.30 
  -3   2  13   10.50   16.20 
  -3   2  13    3.60   14.20 
  -3   2  13   53.69   22.30 
  -3   2  13   21.90   20.40 
  -3   2  13   32.80   21.90 
  -3   2  13   12.90   21.50 
   3  -3 -14  456.95   57.39 
   3  -3 -14  395.06   51.59 
   3  -3 -14  400.66   52.49 
   3  -3 -14  433.16   60.59 
  -3   3  14  434.96   51.59 
  -3   3  14  393.76   63.19 
  -3   3  14  442.56   64.59 
  -3   3  14  471.85   64.99 
  -3   3  14  373.36   65.29 
  -3   3  14  401.66   62.09 
   3  -4 -15    0.00   13.70 
   3  -4 -15  -27.70   16.20 
   3  -4 -15    6.50   15.70 
   3  -4 -15    4.40    9.80 
  -3   4  15   -7.50   20.70 
  -3   4  15   14.80   28.40 
  -3   4  15  106.29   32.20 
  -3   4  15   12.20   23.30 
   3  -5 -16   81.79   25.10 
   3  -5 -16  100.69   20.40 
   3  -5 -16  138.19   33.00 
   3  -5 -16   83.59   23.40 
  -3   5  16  149.29   39.50 
  -3   5  16  127.89   40.10 
  -3   5  16   95.89   42.60 
  -3   5  16  224.28   47.10 
  -3   5  16  141.99   33.80 
   4  11  -1  251.47   56.59 
   4  11  -1  197.38   51.99 
   4  11  -1  319.77   58.69 
   4  11  -1  261.37   49.00 
  -4 -11   1  229.88   75.19 
  -4 -11   1  292.27   57.29 
  -4 -11   1  182.98   46.50 
  -4 -11   1  303.37   59.79 
  -4 -11   1  416.46   68.49 
   4  10  -2   31.00   30.90 
   4  10  -2    8.70   24.50 
   4  10  -2  -11.50   22.00 
  -4 -10   2    8.90   22.10 
  -4 -10   2   43.00   34.40 
  -4 -10   2   16.10   28.10 
  -4 -10   2   29.30   21.70 
  -4 -10   2   50.69   42.30 
   4   9  -3  193.28   39.00 
   4   9  -3  125.39   43.60 
   4   9  -3  113.39   41.60 
   4   9  -3  177.38   35.50 
  -4  -9   3   93.79   24.90 
  -4  -9   3   93.79   36.00 
  -4  -9   3  169.08   47.80 
  -4  -9   3  149.49   33.40 
  -4  -9   3  161.08   44.90 
  -4  -9   3  115.29   36.50 
  -4  -9   3  166.38   41.70 
   4   8  -4 1282.07  156.58 
   4   8  -4 1517.45  152.48 
  -4  -8   4 1031.80  152.78 
  -4  -8   4  902.61  152.58 
  -4  -8   4 1258.57  155.78 
  -4  -8   4 1144.59  149.19 
  -4  -8   4 1605.74  162.28 
  -4  -8   4 1191.38  144.79 
   4   7  -5  268.57   47.00 
   4   7  -5  398.56   60.39 
  -4  -7   5  214.98   53.79 
  -4  -7   5  358.56   57.69 
  -4  -7   5  311.97   53.79 
  -4  -7   5  295.47   42.50 
  -4  -7   5  360.76   52.39 
  -4  -7   5  212.48   47.40 
  -4  -7   5  284.37   49.90 
  -4  -7   5  317.57   63.69 
   4   6  -6 1831.82  175.98 
   4   6  -6 1315.37  170.08 
   4   6  -6 1690.93  180.28 
  -4  -6   6 1269.17  174.48 
  -4  -6   6 1462.15  173.58 
  -4  -6   6 1580.74  182.28 
  -4  -6   6 1580.74  177.58 
  -4  -6   6 1396.66  175.88 
  -4  -6   6 1487.05  174.48 
  -4  -6   6 1232.48  172.68 
  -4  -6   6 1257.67  177.38 
   4   5  -7  251.27   45.90 
   4   5  -7  371.96   50.79 
   4   5  -7  366.36   47.70 
   4   5  -7  374.66   52.89 
   4   5  -7  502.75   60.49 
   4   5  -7  339.57   39.50 
  -4  -5   7  362.06   56.89 
  -4  -5   7  233.98   47.70 
  -4  -5   7  219.28   46.50 
  -4  -5   7  278.57   49.30 
  -4  -5   7  234.68   39.50 
  -4  -5   7  327.17   46.70 
  -4  -5   7  343.97   48.20 
  -4  -5   7  380.16   53.59 
  -4  -5   7  363.66   54.49 
   4   4  -8 1649.23  203.48 
   4   4  -8 1651.63  194.08 
   4   4  -8 2117.29  207.78 
   4   4  -8 1668.53  196.28 
   4   4  -8 1728.93  198.68 
   4   4  -8 1650.73  200.58 
  -4  -4   8 1515.15  198.48 
  -4  -4   8 1910.81  202.68 
  -4  -4   8 1723.23  201.28 
  -4  -4   8 1819.12  202.98 
  -4  -4   8 1946.61  209.48 
  -4  -4   8 1748.23  205.98 
  -4  -4   8 1414.96  200.38 
  -4  -4   8 1635.14  198.38 
   4   3  -9   26.10   11.40 
   4   3  -9   64.09   17.10 
   4   3  -9   15.80   15.10 
   4   3  -9   94.29   19.30 
   4   3  -9   32.40   17.90 
   4   3  -9   19.60    8.00 
   4   3  -9   60.89   18.40 
   4   3  -9   38.90    9.50 
   4   3  -9   21.40   13.90 
  -4  -3   9   52.09   16.00 
  -4  -3   9   47.90   16.90 
  -4  -3   9   13.60   17.40 
  -4  -3   9   45.10   17.50 
  -4  -3   9   22.60   13.80 
  -4  -3   9   55.89   23.00 
  -4  -3   9   32.20   18.10 
  -4  -3   9   75.69   19.80 
   4   2 -10   78.69   21.00 
   4   2 -10   84.09   20.00 
   4   2 -10   76.49   14.20 
   4   2 -10   68.29   14.20 
   4   2 -10   95.39   22.50 
   4   2 -10   83.19   22.70 
   4   2 -10  138.19   26.70 
   4   2 -10  141.69   18.50 
  -4  -2  10   64.49   19.20 
  -4  -2  10   74.29   21.50 
  -4  -2  10   78.49   21.60 
  -4  -2  10   93.59   27.80 
  -4  -2  10   56.09   23.50 
  -4  -2  10   72.59   19.10 
  -4  -2  10  113.99   27.50 
   4   1 -11  350.36   48.20 
   4   1 -11  320.57   46.70 
   4   1 -11  355.06   40.80 
   4   1 -11  328.57   45.20 
   4   1 -11  314.37   40.50 
   4   1 -11  307.67   48.30 
   4   1 -11  356.46   43.00 
   4   1 -11  294.47   47.00 
   4   1 -11  324.97   47.70 
  -4  -1  11  343.77   50.59 
  -4  -1  11  321.97   52.99 
  -4  -1  11  352.56   47.60 
  -4  -1  11  338.77   48.10 
  -4  -1  11  392.36   54.39 
  -4  -1  11  297.27   48.30 
  -4  -1  11  326.27   39.90 
  -4  -1  11  310.97   52.39 
   4   0 -12   -0.30   10.80 
   4   0 -12   -0.50    5.10 
   4   0 -12   12.30   12.50 
   4   0 -12   11.50   14.30 
   4   0 -12    0.10    8.60 
   4   0 -12   17.00   14.90 
  -4   0  12    4.30    5.30 
  -4   0  12   35.50   22.70 
  -4   0  12   17.40   20.10 
  -4   0  12   23.50   15.80 
  -4   0  12    8.10   16.50 
  -4   0  12   29.40   15.60 
   4  -1 -13   78.29   21.60 
   4  -1 -13   77.99   19.00 
   4  -1 -13   99.39   14.70 
   4  -1 -13   94.59   17.20 
  -4   1  13   78.09   10.60 
  -4   1  13   86.89   11.00 
  -4   1  13   91.49   25.80 
  -4   1  13  140.69   32.90 
  -4   1  13  112.99   26.60 
  -4   1  13  108.99   28.30 
  -4   1  13   66.49   25.50 
  -4   1  13   68.69   14.60 
   4  -2 -14   20.10   13.70 
   4  -2 -14    5.20   10.40 
   4  -2 -14   18.70   13.80 
   4  -2 -14    5.20   13.80 
   4  -2 -14    0.90    5.50 
  -4   2  14   28.20   24.50 
  -4   2  14  -12.50   25.40 
  -4   2  14   39.40   21.20 
  -4   2  14   11.60   23.20 
  -4   2  14    3.40   20.10 
   4  -3 -15   -4.00   16.00 
   4  -3 -15   -1.30   11.50 
   4  -3 -15    6.70   13.70 
  -4   3  15    3.90   23.30 
  -4   3  15    5.40   22.10 
  -4   3  15   -6.60   29.10 
  -4   3  15   27.30   30.60 
  -4   3  15  -13.70   19.60 
   4  -4 -16   89.59   25.10 
  -4   4  16   70.19   28.40 
  -4   4  16   76.59   41.10 
  -4   4  16  139.49   41.30 
  -4   4  16   96.79   61.49 
  -4   4  16  115.39   37.30 
   5  10  -3  113.89   45.10 
   5  10  -3  174.58   42.60 
   5  10  -3  119.89   51.89 
   5  10  -3  171.18   37.20 
  -5 -10   3  274.07   57.29 
  -5 -10   3  138.79   48.40 
  -5 -10   3   98.39   49.70 
  -5 -10   3  115.39   55.09 
   5   9  -4  643.04   91.79 
   5   9  -4  510.35   73.89 
   5   9  -4  612.84   78.89 
  -5  -9   4  592.94   90.09 
  -5  -9   4  407.26   80.39 
  -5  -9   4  404.36   71.69 
  -5  -9   4  733.63   90.19 
  -5  -9   4  347.27   75.19 
   5   8  -5  476.95   58.09 
   5   8  -5  462.25   75.99 
   5   8  -5  485.25   65.89 
   5   8  -5  593.44   81.79 
  -5  -8   5  338.17   74.99 
  -5  -8   5  469.75   68.29 
  -5  -8   5  436.46   78.09 
  -5  -8   5  367.96   75.39 
  -5  -8   5  328.77   61.09 
  -5  -8   5  526.35   78.29 
   5   7  -6   27.00   23.50 
   5   7  -6   12.80   16.20 
   5   7  -6   -7.30   27.00 
   5   7  -6    8.20    6.60 
   5   7  -6   27.40   21.70 
   5   7  -6    4.40   17.90 
  -5  -7   6   -7.00   17.20 
  -5  -7   6  -21.80   21.40 
  -5  -7   6  -11.90   19.70 
  -5  -7   6   28.10   28.70 
  -5  -7   6  -13.50   26.20 
  -5  -7   6    6.40   28.60 
  -5  -7   6   25.40   18.80 
   5   6  -7   31.00   18.30 
   5   6  -7   17.20   19.50 
   5   6  -7  102.19   31.90 
   5   6  -7   28.70   25.90 
   5   6  -7   63.39   12.90 
   5   6  -7   61.09   20.00 
  -5  -6   7   44.20   28.40 
  -5  -6   7   47.20   27.90 
  -5  -6   7   40.60   21.50 
  -5  -6   7   73.29   22.80 
  -5  -6   7   21.00   27.20 
  -5  -6   7   38.70   29.00 
  -5  -6   7   46.70   22.50 
   5   5  -8   53.79   18.60 
   5   5  -8   99.09   22.90 
   5   5  -8   77.19   29.80 
   5   5  -8  112.39   32.40 
   5   5  -8   81.39   25.50 
   5   5  -8  111.09   15.00 
   5   5  -8   69.49   18.80 
  -5  -5   8   32.10   20.80 
  -5  -5   8   92.69   27.10 
  -5  -5   8  104.09   32.70 
  -5  -5   8   69.49   32.10 
  -5  -5   8   43.30   21.60 
  -5  -5   8   43.00   21.40 
  -5  -5   8   49.20   26.30 
   5   4  -9  707.33   94.29 
   5   4  -9  715.33   82.89 
   5   4  -9  676.63   86.79 
   5   4  -9  705.83   83.59 
   5   4  -9  624.94   86.29 
   5   4  -9  664.43   88.19 
   5   4  -9  694.33   93.09 
  -5  -4   9  776.12   93.29 
  -5  -4   9  688.63   96.29 
  -5  -4   9  732.83   88.99 
  -5  -4   9  850.21  101.69 
  -5  -4   9  658.83   90.99 
  -5  -4   9  767.22  103.99 
  -5  -4   9  642.84  104.29 
  -5  -4   9  706.03   92.89 
   5   3 -10  208.88   41.60 
   5   3 -10  215.78   43.70 
   5   3 -10  247.48   34.40 
   5   3 -10  241.68   37.50 
   5   3 -10  231.78   32.80 
   5   3 -10  279.27   32.60 
   5   3 -10  256.37   41.50 
  -5  -3  10  315.37   48.30 
  -5  -3  10  237.18   49.80 
  -5  -3  10  258.97   39.50 
  -5  -3  10  249.68   49.99 
  -5  -3  10  231.68   45.20 
  -5  -3  10  169.08   39.50 
   5   2 -11  532.15   71.39 
   5   2 -11  547.75   66.09 
   5   2 -11  501.75   62.59 
   5   2 -11  562.54   64.29 
   5   2 -11  588.74   72.39 
   5   2 -11  458.25   61.69 
  -5  -2  11  613.84   79.59 
  -5  -2  11  528.05   68.09 
  -5  -2  11  453.95   70.69 
  -5  -2  11  675.83   86.69 
  -5  -2  11  408.76   68.89 
   5   1 -12   45.30   17.10 
   5   1 -12   63.49   20.20 
   5   1 -12   35.70    9.40 
   5   1 -12   44.90   12.50 
   5   1 -12   58.79   19.40 
   5   1 -12   38.00   14.90 
  -5  -1  12   59.99   26.20 
  -5  -1  12   56.39   20.70 
  -5  -1  12   30.10   19.40 
  -5  -1  12    3.60   17.00 
  -5  -1  12   18.50    7.80 
  -5  -1  12   24.90   24.00 
   5   0 -13   -4.10    6.20 
   5   0 -13    9.00   15.20 
   5   0 -13  -16.80   14.40 
   5   0 -13    4.70   15.10 
   5   0 -13   -0.20   10.00 
   5   0 -13   21.90   12.50 
  -5   0  13  -11.70   15.90 
  -5   0  13   15.90   21.90 
  -5   0  13    7.80   20.90 
  -5   0  13   33.80   20.70 
  -5   0  13  -22.50   21.20 
   5  -1 -14    7.80   10.30 
   5  -1 -14   -3.70   15.90 
   5  -1 -14    1.20    6.80 
  -5   1  14   -4.40   16.60 
  -5   1  14    4.80   24.40 
  -5   1  14    4.20   21.70 
  -5   1  14   15.10   31.60 
   5  -2 -15  222.88   30.60 
   5  -2 -15  277.47   38.70 
   5  -2 -15  222.48   31.60 
   5  -2 -15  247.78   32.20 
  -5   2  15  210.18   48.20 
  -5   2  15  262.67   52.89 
  -5   2  15  259.57   51.69 
  -5   2  15  183.78   44.50 
  -5   2  15  234.08   47.70 
   5  -3 -16  120.99   30.80 
   5  -3 -16  115.19   29.60 
   5  -3 -16  109.99   16.70 
   5  -3 -16  105.99   17.20 
  -5   3  16   84.59   34.90 
  -5   3  16  118.09   43.30 
  -5   3  16  150.38   45.00 
   6  10  -4   14.50   10.60 
   6  10  -4  -12.70   28.30 
   6  10  -4   35.00   37.00 
  -6 -10   4   37.80   31.30 
  -6 -10   4    5.90   27.90 
  -6 -10   4   24.40   40.40 
   6   9  -5  -30.00   31.60 
   6   9  -5   24.10   24.70 
   6   9  -5   20.30   22.10 
  -6  -9   5  -19.90   24.00 
  -6  -9   5   18.10   36.30 
  -6  -9   5   24.90   37.60 
  -6  -9   5   -2.50   28.00 
   6   8  -6   92.19   31.10 
   6   8  -6   63.79   14.90 
   6   8  -6   53.29   30.70 
   6   8  -6  119.29   40.00 
   6   8  -6   41.70   22.20 
  -6  -8   6   26.00   24.10 
  -6  -8   6    8.10   30.70 
  -6  -8   6   38.10   35.70 
  -6  -8   6   82.09   38.90 
  -6  -8   6   29.10   24.50 
  -6  -8   6   33.00   38.20 
   6   7  -7  -16.20   18.10 
   6   7  -7   -7.30   15.20 
   6   7  -7   14.10   21.60 
   6   7  -7  -20.10   25.60 
   6   7  -7   -7.50    6.80 
   6   7  -7    4.00   30.10 
  -6  -7   7   26.70   31.80 
  -6  -7   7  -28.00   25.70 
  -6  -7   7    8.70   20.90 
  -6  -7   7   34.20   24.60 
   6   6  -8 1529.85  199.18 
   6   6  -8 1802.42  208.88 
   6   6  -8 1884.11  196.18 
  -6  -6   8 1953.60  218.98 
  -6  -6   8 1617.44  201.58 
  -6  -6   8 1785.32  206.58 
  -6  -6   8 1634.64  214.68 
  -6  -6   8 1494.35  206.28 
   6   5  -9  115.89   20.00 
   6   5  -9   65.19   25.10 
   6   5  -9   82.99   34.20 
   6   5  -9   75.59   21.70 
   6   5  -9  168.28   37.90 
  -6  -5   9  116.39   42.00 
  -6  -5   9   88.69   26.40 
  -6  -5   9  121.59   40.70 
  -6  -5   9  142.49   32.00 
  -6  -5   9  164.48   36.10 
   6   4 -10  107.09   34.30 
   6   4 -10  175.18   24.60 
   6   4 -10  158.58   29.10 
   6   4 -10  143.99   29.40 
   6   4 -10  168.08   35.90 
   6   4 -10  159.68   24.50 
  -6  -4  10  111.19   31.20 
  -6  -4  10  167.48   43.60 
  -6  -4  10  164.18   44.60 
  -6  -4  10  187.58   41.10 
  -6  -4  10  204.28   35.10 
   6   3 -11    0.50    5.80 
   6   3 -11   10.50    7.50 
   6   3 -11    5.30   21.70 
   6   3 -11   22.40   20.20 
   6   3 -11    0.40   13.10 
   6   3 -11   19.10   12.90 
  -6  -3  11    8.70   16.70 
  -6  -3  11   48.00   31.40 
  -6  -3  11   12.70   28.70 
  -6  -3  11   -9.90   19.00 
  -6  -3  11  -12.10   20.90 
   6   2 -12   83.39   25.20 
   6   2 -12   61.69   16.40 
   6   2 -12   57.89   21.40 
   6   2 -12   52.89   14.00 
   6   2 -12   60.19   14.10 
   6   2 -12   49.30   25.80 
   6   2 -12   73.69   18.30 
  -6  -2  12   95.79   35.40 
  -6  -2  12   69.79   24.60 
  -6  -2  12   71.99   25.60 
   6   1 -13  -14.60   16.60 
   6   1 -13   33.70   19.30 
   6   1 -13   33.90   13.10 
   6   1 -13   27.40   10.10 
   6   1 -13   22.80   14.10 
   6   1 -13   19.90   20.10 
  -6  -1  13   -3.50   26.20 
  -6  -1  13    2.00   20.40 
  -6  -1  13   14.80   22.70 
  -6  -1  13    0.90   26.80 
  -6  -1  13   11.10   20.90 
   6   0 -14   99.59   18.60 
   6   0 -14  100.59   19.00 
   6   0 -14   96.29   22.40 
   6   0 -14  111.59   26.90 
   6   0 -14   79.99   24.80 
  -6   0  14  101.09   15.20 
  -6   0  14  181.08   45.00 
  -6   0  14   94.39   30.20 
  -6   0  14  101.59   31.80 
  -6   0  14  127.49   42.20 
   6  -1 -15   21.70   16.10 
   6  -1 -15   13.80   10.50 
   6  -1 -15    7.90    8.00 
   6  -1 -15    9.50    9.40 
   6  -1 -15   -1.00   19.80 
  -6   1  15    7.40   28.10 
  -6   1  15   18.70   35.80 
  -6   1  15   21.80   22.90 
  -6   1  15   55.69   34.20 
  -6   1  15   53.89   35.50 
   6  -2 -16   17.70   19.90 
   6  -2 -16  -10.00   22.40 
  -6   2  16   28.10   29.30 
  -6   2  16   61.09   36.80 
  -6   2  16   73.89   42.50 
   7   8  -7  325.77   42.40 
   7   8  -7  302.07   61.29 
   7   8  -7  316.37   42.80 
  -7  -8   7  343.57   72.49 
  -7  -8   7  227.78   56.79 
  -7  -8   7  281.17   57.29 
   7   7  -8  -17.40   29.40 
   7   7  -8   -6.70   17.70 
   7   7  -8    4.30    9.00 
   7   7  -8    2.30    8.30 
   7   7  -8   14.10   22.60 
  -7  -7   8   10.00   40.20 
  -7  -7   8   22.50   24.00 
  -7  -7   8   -2.20   28.10 
  -7  -7   8  -27.10   37.40 
  -7  -7   8   -3.60   28.10 
   7   6  -9   21.20   28.50 
   7   6  -9   49.70   18.40 
   7   6  -9   30.30   12.60 
   7   6  -9   32.00   11.80 
   7   6  -9   13.60   22.20 
  -7  -6   9   24.60   41.50 
  -7  -6   9   47.00   27.10 
  -7  -6   9   15.10   28.10 
  -7  -6   9   40.90   41.50 
  -7  -6   9   45.40   23.00 
   7   5 -10   18.80    9.80 
   7   5 -10   37.80   17.10 
   7   5 -10    0.60   24.50 
   7   5 -10    6.20   20.60 
   7   5 -10   32.90   11.80 
  -7  -5  10  -11.80   36.00 
  -7  -5  10   53.49   29.70 
  -7  -5  10   -0.50   19.60 
  -7  -5  10    6.80   36.40 
  -7  -5  10   45.10   24.20 
   7   4 -11  118.49   20.50 
   7   4 -11   84.59   30.70 
   7   4 -11   71.59   20.40 
  -7  -4  11  143.49   31.50 
  -7  -4  11   75.59   29.20 
  -7  -4  11   97.29   35.70 
  -7  -4  11  126.09   45.40 
  -7  -4  11   62.59   39.40 
   7   3 -12  604.24   72.49 
   7   3 -12  520.85   81.99 
   7   3 -12  561.44   74.49 
   7   3 -12  570.64   74.69 
   7   3 -12  558.44   72.99 
  -7  -3  12  559.34   80.69 
  -7  -3  12  659.83   94.59 
  -7  -3  12  725.33   82.09 
  -7  -3  12  727.83  100.29 
   7   2 -13  103.69   19.00 
   7   2 -13   83.49   18.00 
   7   2 -13   88.49   20.40 
   7   2 -13  100.09   31.00 
   7   2 -13   88.09   24.50 
   7   2 -13   69.19   20.00 
  -7  -2  13   57.69   38.80 
  -7  -2  13   75.29   42.90 
  -7  -2  13   91.79   29.60 
  -7  -2  13   84.39   28.70 
   7   1 -14   32.90   25.10 
   7   1 -14   29.60   16.10 
   7   1 -14   43.20   23.70 
   7   1 -14   28.10   15.30 
   7   1 -14   20.50   11.40 
  -7  -1  14   15.10   10.20 
  -7  -1  14   31.00   27.70 
  -7  -1  14   26.00   35.80 
  -7  -1  14   46.50   26.50 
  -7  -1  14   56.89   41.10 
   7   0 -15   -6.80   17.00 
   7   0 -15   14.70   10.90 
  -7   0  15  -29.10   31.40 
  -7   0  15  -35.40   25.20 
  -7   0  15   -8.00   36.80 
   8   6 -10  205.68   28.40 
   8   6 -10  131.69   42.50 
   8   6 -10  102.89   27.90 
   8   6 -10  169.78   26.20 
  -8  -6  10  179.18   50.49 
  -8  -6  10  225.98   63.79 
  -8  -6  10  175.58   63.49 
  -8  -6  10  175.38   51.79 
  -8  -6  10  107.59   35.00 
   8   5 -11  115.39   39.60 
   8   5 -11  130.89   32.20 
   8   5 -11  189.28   27.30 
   8   5 -11  201.78   31.10 
   8   5 -11  137.49   29.40 
  -8  -5  11  177.98   53.39 
  -8  -5  11  221.08   64.59 
  -8  -5  11  187.48   37.60 
  -8  -5  11   85.49   49.50 
  -8  -5  11  234.58   45.20 
   8   4 -12  207.88   31.60 
   8   4 -12  120.79   27.60 
   8   4 -12  121.99   30.50 
   8   4 -12  199.48   43.80 
   8   4 -12  177.18   28.00 
  -8  -4  12  176.68   39.40 
  -8  -4  12  290.57   48.60 
  -8  -4  12  249.97   53.19 
  -8  -4  12  174.18   59.69 
  -8  -4  12  229.28   65.69 
   8   3 -13   -1.70   24.10 
   8   3 -13    2.20    9.70 
   8   3 -13  -13.70   20.30 
   8   3 -13    5.20    9.20 
   8   3 -13   -0.10   15.10 
   8   3 -13   20.20   27.50 
  -8  -3  13   56.69   43.00 
  -8  -3  13  -22.70   24.20 
  -8  -3  13   82.59   48.00 
 -11   3   4  388.86   64.79 
 -11   3   4  252.97   45.70 
 -11   3   4  342.87   48.30 
 -11   3   4  269.27   59.69 
 -11   2   3  457.05   81.19 
 -11   2   3  486.45   66.69 
 -11   2   3  547.65   66.59 
 -11   2   3  585.34   69.39 
 -11   1   2    7.70   24.70 
 -11   1   2  -10.50   13.00 
 -11   1   2   31.30   22.50 
 -11   1   2    5.50   12.70 
 -11   1   2  -16.50   31.90 
  11  -1  -2    2.30    7.20 
 -11   0   1  -13.20   13.00 
 -11   0   1   49.20   25.80 
 -11   0   1    4.10   13.50 
 -11   0   1   -7.90   22.20 
 -11   0   1   37.80   33.30 
  11   0  -1   -9.40    8.00 
 -11  -1   0  142.19   36.10 
 -11  -1   0  201.88   45.20 
 -11  -1   0  188.98   41.70 
 -11  -1   0  223.38   52.49 
 -11  -1   0  208.18   33.30 
 -11  -2  -1  417.26   71.19 
 -11  -2  -1  616.44   71.09 
 -11  -2  -1  641.34   81.39 
 -11  -2  -1  591.34   78.29 
 -11  -2  -1  662.63   89.99 
 -11  -2  -1  396.56   73.49 
  11   2   1  581.74   76.89 
 -11  -3  -2  325.27   40.30 
 -11  -3  -2  305.27   48.30 
 -11  -3  -2  215.68   50.69 
 -11  -3  -2  228.88   49.10 
 -11  -3  -2  243.18   55.69 
  11   3   2  324.77   49.30 
 -11  -4  -3  323.17   52.89 
 -11  -4  -3  445.96   73.29 
  11   4   3  229.28   34.20 
  11   4   3  225.98   35.00 
 -10   5   5  124.19   21.50 
 -10   5   5  118.29   29.00 
 -10   5   5  131.89   23.50 
 -10   5   5  125.89   31.50 
 -10   5   5  150.88   37.50 
 -10   5   5  186.08   53.99 
  10  -5  -5  118.59   22.20 
 -10   4   4  364.46   51.99 
 -10   4   4  382.16   64.89 
 -10   4   4  317.97   49.70 
 -10   4   4  306.07   51.59 
 -10   3   3    9.30   13.90 
 -10   3   3   14.20   20.10 
 -10   3   3    5.30   12.90 
 -10   3   3    0.20   20.50 
 -10   3   3   -2.80   11.10 
 -10   3   3   -0.60   12.80 
 -10   2   2    1.10   10.20 
 -10   2   2   50.19   24.50 
 -10   2   2   19.50   10.30 
 -10   2   2   26.20   24.60 
  10  -2  -2   18.20    8.50 
 -10   1   1  399.16   48.90 
 -10   1   1  413.86   50.29 
 -10   1   1  519.65   64.89 
  10  -1  -1  350.06   50.69 
  10  -1  -1  434.16   51.29 
 -10   0   0  190.28   36.50 
 -10   0   0  149.39   21.00 
 -10   0   0  219.48   44.10 
 -10   0   0  145.99   29.10 
  10   0   0  103.99   19.80 
  10   0   0   77.19   19.30 
 -10  -1  -1  778.62  102.69 
 -10  -1  -1  585.54   93.59 
 -10  -1  -1  771.32   99.49 
 -10  -1  -1  777.92   92.49 
 -10  -1  -1  782.82   89.49 
  10   1   1  835.22   98.79 
 -10  -2  -2   45.40   24.70 
 -10  -2  -2    8.20   18.50 
 -10  -2  -2   32.40   21.80 
 -10  -2  -2    7.10   22.00 
  10   2   2   15.70    8.10 
  10   2   2    8.50    7.10 
  10   2   2   22.40   16.40 
 -10  -3  -3   12.90   15.10 
 -10  -3  -3   17.20   20.60 
 -10  -3  -3  -14.40   25.70 
 -10  -3  -3   24.60   25.00 
  10   3   3   11.80    8.60 
  10   3   3   -7.10    6.10 
  10   3   3   -4.00   11.90 
  10   3   3   11.20    6.10 
 -10  -4  -4  429.36   61.39 
 -10  -4  -4  435.06   47.30 
 -10  -4  -4  555.94   68.69 
 -10  -4  -4  294.27   46.70 
  10   4   4  380.66   47.40 
  10   4   4  367.36   50.39 
  10   4   4  425.26   49.40 
  10   4   4  364.76   48.20 
 -10  -5  -5  131.19   25.20 
 -10  -5  -5  219.78   38.60 
 -10  -5  -5  141.19   25.40 
 -10  -5  -5  127.09   37.10 
  10   5   5  184.08   24.40 
  10   5   5  157.68   25.30 
  10   5   5  109.79   26.10 
  -9   6   5   -0.60   16.40 
  -9   6   5   -4.70   16.00 
  -9   6   5   24.20   27.30 
  -9   6   5    0.20   11.80 
   9  -6  -5   -3.30    7.00 
   9  -6  -5   -5.50   15.00 
  -9   5   4  459.65   51.39 
  -9   5   4  366.86   54.49 
  -9   5   4  413.96   51.19 
  -9   5   4  413.86   66.49 
  -9   5   4  303.77   51.09 
  -9   5   4  413.26   57.69 
  -9   5   4  434.66   62.79 
   9  -5  -4  510.45   50.49 
   9  -5  -4  330.07   51.09 
  -9   4   3  138.49   36.40 
  -9   4   3  133.69   26.50 
  -9   4   3   98.09   18.20 
  -9   4   3   90.19   24.40 
  -9   4   3  122.59   24.10 
  -9   4   3  102.59   18.40 
  -9   4   3  148.09   17.50 
  -9   4   3  154.18   18.30 
   9  -4  -3   97.09   17.10 
   9  -4  -3   99.79   18.20 
   9  -4  -3  161.58   19.70 
  -9   3   2  452.15   68.09 
  -9   3   2  532.85   62.69 
  -9   3   2  550.94   75.19 
  -9   3   2  421.66   61.29 
  -9   3   2  610.24   63.29 
   9  -3  -2  487.85   60.39 
  -9   2   1    0.80    7.00 
  -9   2   1    7.40    8.10 
  -9   2   1   18.20   22.10 
  -9   2   1    4.80   17.80 
  -9   2   1    6.60   11.10 
   9  -2  -1    5.50    4.90 
   9  -2  -1    6.80    6.40 
  -9   1   0 1672.83  170.38 
  -9   1   0 1520.95  157.08 
  -9   1   0 1480.55  163.48 
  -9   1   0 1287.57  156.18 
   9  -1   0 1314.27  160.08 
   9  -1   0 1241.58  159.38 
  -9   0  -1  -11.90   12.10 
  -9   0  -1    3.60   18.10 
  -9   0  -1   -0.20   16.50 
  -9   0  -1   -0.10    5.00 
  -9   0  -1    6.40    5.60 
   9   0   1    0.30    4.70 
   9   0   1   38.30   16.50 
   9   0   1    7.90    6.10 
  -9  -1  -2  418.56   48.40 
  -9  -1  -2  426.66   55.89 
   9   1   2  354.86   48.40 
  -9  -2  -3  356.26   53.89 
  -9  -2  -3  446.96   49.90 
  -9  -2  -3  468.25   48.90 
   9   2   3  347.07   47.30 
   9   2   3  315.67   46.70 
  -9  -3  -4  216.18   31.70 
  -9  -3  -4  224.38   39.00 
  -9  -3  -4  182.68   24.80 
  -9  -3  -4  239.48   41.00 
  -9  -3  -4  204.18   25.50 
  -9  -3  -4  333.07   44.00 
   9   3   4  195.08   26.40 
   9   3   4  152.38   27.20 
   9   3   4  176.98   27.80 
   9   3   4  153.28   24.80 
  -9  -4  -5   25.00   11.00 
  -9  -4  -5   -9.80   29.00 
  -9  -4  -5   11.00   20.40 
  -9  -4  -5   30.10   20.90 
  -9  -4  -5    4.60   10.30 
  -9  -4  -5    0.00   13.00 
   9   4   5   12.70   11.00 
   9   4   5    3.40   10.80 
   9   4   5   54.89   10.50 
   9   4   5   17.20    8.00 
   9   4   5    8.80   15.80 
  -9  -5  -6   87.99   20.30 
  -9  -5  -6   70.29   27.20 
  -9  -5  -6  134.09   22.50 
  -9  -5  -6   65.89   29.30 
   9   5   6   68.89   15.20 
   9   5   6   92.99   16.30 
   9   5   6   94.39   22.70 
  -9  -6  -7   48.70   26.20 
  -9  -6  -7    1.20   17.30 
  -9  -6  -7    7.20   19.40 
   9   6   7   31.50   19.40 
   9   6   7   25.20    9.30 
   9   6   7  -14.30   19.50 
   9   6   7   28.20   13.40 
  -8   8   6  -17.00   15.90 
  -8   8   6   -0.40   23.20 
  -8   8   6   -4.40   22.00 
  -8   8   6  -24.20   28.50 
   8  -8  -6   12.30    7.60 
  -8   7   5  159.38   31.30 
  -8   7   5  119.59   39.80 
  -8   7   5  156.78   35.70 
  -8   7   5  143.19   30.90 
  -8   7   5  159.38   29.40 
   8  -7  -5  161.38   31.40 
   8  -7  -5  201.88   24.10 
  -8   6   4   32.30   18.50 
  -8   6   4   41.10   15.40 
  -8   6   4   47.90   14.30 
  -8   6   4   42.40   29.70 
  -8   6   4   22.10   15.70 
  -8   6   4   52.19   28.20 
  -8   6   4   16.80   13.10 
   8  -6  -4   38.60   16.00 
   8  -6  -4   56.89   10.80 
  -8   5   3 1178.78  130.59 
  -8   5   3 1278.67  122.99 
  -8   5   3 1061.19  126.49 
  -8   5   3 1065.39  122.19 
  -8   5   3 1110.09  122.69 
  -8   5   3  899.11  121.99 
  -8   5   3 1124.29  135.79 
  -8   5   3  973.40  122.49 
   8  -5  -3  930.21  120.99 
  -8   4   2   37.40   15.80 
  -8   4   2   -6.00    8.50 
  -8   4   2    9.80   11.70 
  -8   4   2   -0.80   19.10 
  -8   4   2   17.20    8.10 
  -8   4   2    8.50    8.50 
  -8   4   2   19.50    7.20 
  -8   4   2    1.50    6.10 
  -8   4   2   -9.50    9.60 
   8  -4  -2   -6.10    7.80 
   8  -4  -2   -2.10    4.50 
   8  -4  -2    2.90    5.80 
  -8   3   1   -5.00   13.90 
  -8   3   1    0.00    7.50 
  -8   3   1   35.40   11.50 
  -8   3   1   16.80    9.70 
  -8   3   1   24.60   16.20 
  -8   3   1   -4.10    5.90 
   8  -3  -1    7.50    5.00 
  -8   2   0  913.51  138.39 
  -8   2   0 1157.38  134.29 
  -8   2   0 1404.76  143.59 
   8  -2   0 1171.28  132.59 
  -8   1  -1  594.84   69.29 
   8  -1   1  522.45   66.19 
   8  -1   1  577.84   65.79 
   8  -1   1  538.25   65.89 
  -8   0  -2  695.63   78.19 
   8   0   2  568.14   73.39 
   8   0   2  593.84   73.19 
   8   0   2  668.73   73.39 
  -8  -1  -3 1638.84  177.58 
   8   1   3 1786.02  179.38 
   8   1   3 1363.26  178.78 
   8   1   3 1521.45  178.58 
  -8  -2  -4 1385.56  148.99 
  -8  -2  -4 1442.86  159.28 
  -8  -2  -4 1277.97  148.39 
  -8  -2  -4 1215.18  150.88 
  -8  -2  -4 1558.44  157.98 
   8   2   4 1428.86  151.08 
   8   2   4 1190.18  150.08 
   8   2   4 1135.29  148.69 
   8   2   4 1425.56  149.69 
   8   2   4 1329.67  149.69 
  -8  -3  -5    3.90   12.90 
  -8  -3  -5   16.10    8.70 
  -8  -3  -5    5.70   19.20 
  -8  -3  -5   -6.80    7.30 
  -8  -3  -5   23.70   11.50 
   8   3   5   -2.20    5.20 
   8   3   5   10.30    9.20 
   8   3   5   18.00   10.60 
   8   3   5    8.20    5.30 
   8   3   5   -0.90   10.50 
   8   3   5    4.80    7.80 
  -8  -4  -6   28.00   13.00 
  -8  -4  -6   34.70   13.80 
  -8  -4  -6   59.09   20.60 
  -8  -4  -6   54.19   29.10 
  -8  -4  -6   42.00   16.30 
   8   4   6   38.90    9.70 
   8   4   6   56.09   15.80 
   8   4   6   46.50   13.90 
   8   4   6   27.90   12.30 
   8   4   6   27.90    8.50 
   8   4   6   35.60   12.70 
  -8  -5  -7  189.08   30.60 
  -8  -5  -7  168.38   28.40 
  -8  -5  -7  185.58   35.80 
   8   5   7  135.49   21.30 
   8   5   7  127.49   27.30 
   8   5   7  133.69   27.80 
   8   5   7  160.38   22.80 
   8   5   7  184.68   28.10 
  -8  -6  -8   70.99   23.70 
  -8  -6  -8  100.29   27.50 
  -8  -6  -8   98.09   27.00 
   8   6   8  117.09   18.80 
   8   6   8   89.79   25.20 
   8   6   8   83.69   15.70 
   8   6   8   98.99   23.90 
  -7   8   5  167.88   32.50 
  -7   8   5  172.48   39.00 
  -7   8   5  126.59   41.00 
  -7   8   5  130.39   25.40 
  -7   8   5   91.79   26.60 
   7  -8  -5  171.98   25.70 
   7  -8  -5  118.69   30.90 
   7  -8  -5  206.18   22.30 
  -7   7   4  110.29   40.30 
  -7   7   4   65.49   17.40 
  -7   7   4   58.39   19.90 
  -7   7   4   43.10   12.00 
  -7   7   4   65.29   28.10 
   7  -7  -4   56.29   13.00 
   7  -7  -4   79.49   20.70 
   7  -7  -4   82.09   12.50 
  -7   6   3   41.30   10.60 
  -7   6   3   67.59   14.70 
  -7   6   3   19.70   14.10 
  -7   6   3   59.39   13.80 
  -7   6   3   24.40    9.50 
  -7   6   3   42.60   23.20 
  -7   6   3   16.90   24.80 
  -7   6   3   34.70   16.80 
   7  -6  -3   40.70    8.90 
   7  -6  -3   61.69   15.80 
  -7   5   2   19.90   12.00 
  -7   5   2   21.30    8.60 
  -7   5   2   24.50   19.60 
  -7   5   2    8.40   12.70 
  -7   5   2   17.10   21.00 
  -7   5   2    9.50    7.10 
  -7   5   2   19.70   10.50 
  -7   5   2   26.60   11.80 
   7  -5  -2   16.80    5.40 
   7  -5  -2   22.00   10.20 
  -7   4   1  531.15   61.09 
  -7   4   1  559.04   59.89 
  -7   4   1  533.85   61.69 
  -7   4   1  505.55   61.49 
  -7   4   1  429.86   62.89 
  -7   4   1  588.74   72.79 
  -7   4   1  569.04   61.49 
  -7   4   1  638.14   70.49 
  -7   4   1  429.06   61.89 
  -7   4   1  429.56   62.29 
   7  -4  -1  495.65   60.89 
   7  -4  -1  588.44   60.39 
   7  -4  -1  441.56   59.29 
  -7   3   0 3643.04  413.76 
  -7   3   0 3442.16  415.76 
  -7   3   0 4083.29  410.06 
  -7   3   0 3648.64  410.56 
  -7   3   0 4147.08  414.86 
  -7   3   0 3335.27  412.16 
  -7   3   0 3295.37  415.46 
   7  -3   0 3623.54  410.66 
   7  -3   0 3954.40  413.06 
  -7   2  -1  695.83   75.39 
  -7   2  -1  603.94   70.79 
  -7   2  -1  497.35   72.59 
  -7   2  -1  552.24   69.99 
  -7   2  -1  788.32   79.29 
  -7   2  -1  663.63   73.59 
  -7   2  -1  785.02   81.79 
  -7   1  -2   25.60   13.10 
  -7   1  -2   22.30    9.40 
  -7   1  -2   17.00    6.10 
  -7   1  -2   16.50    6.60 
  -7   1  -2    9.60    6.50 
  -7   1  -2   21.50   16.10 
  -7   1  -2   32.50   12.60 
   7  -1   2   38.60   12.60 
   7  -1   2   19.20    6.00 
   7  -1   2   16.20    6.20 
   7  -1   2   11.10    6.10 
  -7   0  -3    5.50    8.40 
  -7   0  -3    1.20   10.20 
  -7   0  -3    5.10   15.00 
  -7   0  -3   -0.30    5.20 
  -7   0  -3    8.80    6.30 
  -7   0  -3    0.90    3.20 
  -7   0  -3   11.20    9.20 
  -7   0  -3   -9.30    5.50 
   7   0   3    0.60    4.50 
   7   0   3    8.40    5.10 
   7   0   3    3.90    6.70 
   7   0   3    4.10    3.30 
  -7  -1  -4  350.36   38.50 
  -7  -1  -4  282.07   34.20 
  -7  -1  -4  274.07   32.30 
  -7  -1  -4  269.17   39.00 
   7   1   4  313.17   38.80 
   7   1   4  240.08   34.60 
   7   1   4  266.47   32.70 
   7   1   4  247.38   33.00 
   7   1   4  319.77   33.60 
   7   1   4  250.57   33.90 
   7   1   4  329.07   34.70 
   7   1   4  238.88   32.60 
  -7  -2  -5  470.35   63.19 
  -7  -2  -5  656.63   80.99 
  -7  -2  -5  464.35   67.19 
  -7  -2  -5  590.54   63.49 
  -7  -2  -5  543.15   62.09 
   7   2   5  483.35   62.09 
   7   2   5  503.85   62.69 
   7   2   5  612.84   67.59 
   7   2   5  521.55   61.99 
   7   2   5  546.95   64.19 
  -7  -3  -6 1665.43  175.78 
  -7  -3  -6 1465.15  178.98 
  -7  -3  -6 1602.24  174.28 
  -7  -3  -6 1429.36  175.48 
   7   3   6 1406.86  174.18 
   7   3   6 1627.24  175.28 
   7   3   6 1391.06  173.78 
   7   3   6 1410.96  174.58 
   7   3   6 1666.63  178.38 
   7   3   6 1619.34  173.28 
  -7  -4  -7  418.06   56.49 
  -7  -4  -7  384.06   52.49 
  -7  -4  -7  478.35   70.79 
  -7  -4  -7  413.96   51.79 
  -7  -4  -7  397.96   53.29 
   7   4   7  355.16   47.60 
   7   4   7  360.46   51.59 
   7   4   7  431.96   48.70 
   7   4   7  459.55   53.89 
   7   4   7  345.67   50.99 
   7   4   7  427.76   55.49 
  -7  -5  -8   33.80   17.10 
  -7  -5  -8   17.50   16.20 
  -7  -5  -8   16.20   19.10 
   7   5   8   38.50    8.90 
   7   5   8   28.50   16.30 
   7   5   8   59.29   14.90 
   7   5   8   32.90   16.70 
   7   5   8   41.50   15.90 
  -7  -6  -9   15.20   18.60 
  -7  -6  -9   -4.30   18.60 
  -7  -6  -9   29.60   19.90 
  -7  -6  -9   36.60   18.00 
   7   6   9   14.40    6.90 
   7   6   9   21.20   18.50 
   7   6   9    8.00   21.50 
   7   6   9   32.40   12.20 
   7   6   9    9.00   18.90 
  -7  -7 -10  -13.90   20.70 
  -7  -7 -10    6.00   20.00 
  -7  -7 -10    3.20   20.60 
  -7  -7 -10   29.50   31.90 
   7   7  10    6.20   18.50 
   7   7  10  -18.50   26.90 
   7   7  10   15.10    7.00 
   7   7  10   17.10   21.10 
   7   7  10    3.70   19.70 
   7   7  10    1.50    6.80 
   7   7  10   19.10   11.70 
  -6   9   5   18.40   31.80 
  -6   9   5   10.40   22.10 
  -6   9   5  -33.90   26.40 
  -6   9   5  -28.00   14.60 
  -6   9   5   25.80   25.10 
  -6   9   5   23.00    8.80 
   6  -9  -5  -47.60   25.40 
   6  -9  -5   -4.80    5.80 
   6  -9  -5    8.70   11.60 
   6  -9  -5   -1.10   14.40 
   6  -9  -5   14.20   19.80 
   6  -9  -5  -43.60   17.50 
  -6   8   4   41.10   19.90 
  -6   8   4   19.80    8.40 
  -6   8   4   52.49   22.90 
  -6   8   4   22.80   24.20 
  -6   8   4   29.70   22.30 
   6  -8  -4   61.69   24.80 
   6  -8  -4   25.10   10.00 
   6  -8  -4    5.10   18.60 
   6  -8  -4   43.90    8.90 
  -6   7   3   40.20   23.70 
  -6   7   3   37.10   29.70 
  -6   7   3   19.70   13.60 
  -6   7   3   20.00   15.70 
  -6   7   3   22.90    7.70 
  -6   7   3   38.40   16.80 
  -6   7   3   32.90   16.20 
  -6   7   3   56.89   17.60 
   6  -7  -3   31.70    8.00 
   6  -7  -3   29.80   18.10 
   6  -7  -3    9.90   14.30 
   6  -7  -3   48.70    9.00 
   6  -7  -3   27.20    8.10 
   6  -7  -3   46.80    9.70 
  -6   6   2  326.57   50.49 
  -6   6   2  344.97   60.49 
  -6   6   2  391.46   51.99 
  -6   6   2  323.07   49.60 
  -6   6   2  389.36   51.29 
  -6   6   2  396.76   53.89 
  -6   6   2  432.16   62.39 
   6  -6  -2  426.66   52.59 
   6  -6  -2  446.56   47.10 
   6  -6  -2  385.56   51.49 
   6  -6  -2  404.56   52.59 
  -6   5   1   39.40   18.90 
  -6   5   1   17.50    6.90 
  -6   5   1    1.20    9.90 
  -6   5   1   16.50    5.30 
  -6   5   1   -1.00   17.70 
  -6   5   1   26.10   10.20 
  -6   5   1   13.40   11.00 
  -6   5   1   22.30   13.20 
  -6   5   1   14.40    9.50 
   6  -5  -1    2.40    9.40 
   6  -5  -1   16.80   10.00 
   6  -5  -1   23.10   10.50 
   6  -5  -1   17.50    5.10 
  -6   4   0   16.40   15.80 
  -6   4   0   29.70    9.20 
  -6   4   0    8.60    5.40 
  -6   4   0   -0.20    8.70 
  -6   4   0    4.80    4.60 
  -6   4   0   17.50    6.60 
  -6   4   0    0.90    8.20 
  -6   4   0   22.90   13.00 
   6  -4   0   33.50    8.40 
   6  -4   0   11.20    4.50 
   6  -4   0    1.00    6.40 
  -6   3  -1   12.30    6.30 
  -6   3  -1   10.70    9.20 
  -6   3  -1   10.50    5.20 
  -6   3  -1   14.70    7.90 
  -6   3  -1   11.50    9.80 
  -6   3  -1   15.50    4.30 
  -6   3  -1   -0.60   13.10 
  -6   3  -1   13.30    6.60 
  -6   3  -1   26.80    6.10 
  -6   3  -1    2.50    6.10 
   6  -3   1   17.00    4.70 
   6  -3   1    8.40    4.20 
   6  -3   1   26.30    6.90 
   6  -3   1   20.10    5.40 
  -6   2  -2  873.31  119.09 
  -6   2  -2 1003.00  118.19 
  -6   2  -2 1259.97  123.99 
  -6   2  -2  923.51  116.29 
  -6   2  -2 1068.49  116.29 
   6  -2   2 1148.39  118.39 
  -6   1  -3  450.55   58.19 
  -6   1  -3  522.25   62.09 
  -6   1  -3  475.35   59.29 
  -6   1  -3  405.26   55.99 
  -6   1  -3  500.55   53.39 
  -6   1  -3  437.66   55.29 
  -6   1  -3  448.46   55.29 
   6  -1   3  498.05   55.39 
   6  -1   3  502.95   55.99 
  -6   0  -4 4177.18  537.75 
  -6   0  -4 5351.76  536.95 
  -6   0  -4 4871.21  535.65 
  -6   0  -4 4369.06  543.45 
  -6   0  -4 4884.81  537.15 
  -6   0  -4 4650.03  540.45 
  -6   0  -4 4915.21  537.65 
  -6   0  -4 4990.50  535.65 
  -6   0  -4 4679.43  536.85 
   6   0   4 5045.90  535.85 
   6   0   4 5009.90  537.55 
   6   0   4 4842.52  537.95 
   6   0   4 4686.13  536.85 
   6   0   4 4536.15  535.75 
   6   0   4 5433.36  541.45 
   6   0   4 4534.35  536.45 
   6   0   4 4875.51  535.85 
  -6  -1  -5   17.60    9.30 
  -6  -1  -5    3.10    4.80 
  -6  -1  -5   20.50   13.40 
  -6  -1  -5   19.00    7.10 
  -6  -1  -5   14.20    5.20 
  -6  -1  -5   16.00    9.90 
  -6  -1  -5    3.40    5.10 
  -6  -1  -5   21.20    6.90 
   6   1   5   27.80    6.80 
   6   1   5    1.70    6.00 
   6   1   5   20.00    7.80 
   6   1   5   19.40    6.30 
   6   1   5   16.70    6.20 
   6   1   5   13.80    5.60 
   6   1   5    4.40    4.80 
  -6  -2  -6 1143.79  119.99 
  -6  -2  -6 1162.78  120.99 
  -6  -2  -6 1118.79  124.19 
  -6  -2  -6 1054.89  120.69 
  -6  -2  -6 1108.69  117.29 
  -6  -2  -6 1159.58  124.69 
   6   2   6  987.50  118.09 
   6   2   6  936.41  119.39 
   6   2   6 1066.89  123.19 
   6   2   6  935.21  119.49 
   6   2   6 1085.79  120.39 
   6   2   6  895.01  119.59 
   6   2   6 1042.80  118.39 
   6   2   6  957.20  119.29 
  -6  -3  -7   67.99   14.70 
  -6  -3  -7   17.10   12.10 
  -6  -3  -7   26.50   18.40 
  -6  -3  -7   24.80   10.40 
  -6  -3  -7   19.80   10.50 
   6   3   7    4.20    9.40 
   6   3   7   33.80   12.00 
   6   3   7   15.30   10.10 
   6   3   7   11.20    9.60 
   6   3   7    9.10    7.90 
   6   3   7   18.70    5.60 
   6   3   7   28.50    6.40 
  -6  -4  -8   87.99   21.20 
  -6  -4  -8   99.29   21.70 
  -6  -4  -8   95.59   20.50 
  -6  -4  -8   33.20   29.00 
  -6  -4  -8  113.19   24.70 
   6   4   8  106.69   14.30 
   6   4   8  117.79   19.80 
   6   4   8   99.59   14.80 
   6   4   8   88.29   16.60 
   6   4   8   83.69   20.10 
   6   4   8  115.49   21.90 
  -6  -5  -9   99.69   25.40 
  -6  -5  -9  101.19   25.30 
  -6  -5  -9  115.49   24.90 
  -6  -5  -9  116.09   25.40 
   6   5   9  110.99   21.00 
   6   5   9  101.99   24.10 
   6   5   9   83.39   20.80 
   6   5   9  131.29   24.20 
   6   5   9  117.19   15.50 
   6   5   9  114.79   24.30 
   6   5   9  114.39   16.90 
  -6  -6 -10   96.99   26.60 
  -6  -6 -10  115.49   25.60 
  -6  -6 -10   82.69   23.50 
  -6  -6 -10   91.99   27.60 
   6   6  10  129.89   15.10 
   6   6  10   98.29   22.30 
   6   6  10   47.10   24.50 
   6   6  10   76.59   22.90 
   6   6  10  102.09   24.50 
   6   6  10   85.19   24.60 
   6   6  10  137.29   17.60 
  -6  -7 -11   -5.80   19.90 
  -6  -7 -11   72.29   28.90 
  -6  -7 -11    5.50   18.80 
   6   7  11    3.30   20.10 
   6   7  11   -8.70    7.60 
   6   7  11  -16.10   18.20 
   6   7  11    2.30   25.90 
  -5  10   5  160.38   33.90 
  -5  10   5   31.60   40.40 
  -5  10   5   81.59   29.40 
  -5  10   5  142.19   40.80 
  -5  10   5   85.59   37.00 
   5 -10  -5  180.58   31.60 
   5 -10  -5  125.59   18.60 
   5 -10  -5   86.39   30.20 
   5 -10  -5  110.29   44.80 
  -5   9   4  280.17   53.89 
  -5   9   4  327.77   63.69 
  -5   9   4  409.36   60.09 
  -5   9   4  393.16   55.99 
  -5   9   4  334.07   41.40 
  -5   9   4  342.17   49.99 
   5  -9  -4  327.17   56.29 
   5  -9  -4  369.86   53.49 
   5  -9  -4  374.36   42.60 
   5  -9  -4  328.37   43.00 
  -5   8   3  959.60  113.39 
  -5   8   3  732.43  108.59 
  -5   8   3 1020.90  115.79 
  -5   8   3  772.22  103.59 
  -5   8   3 1019.60  115.09 
  -5   8   3  890.91  120.39 
  -5   8   3  851.11  111.19 
   5  -8  -3 1077.49  118.89 
   5  -8  -3 1058.09  109.19 
   5  -8  -3 1119.49  113.49 
   5  -8  -3  859.61  103.59 
  -5   7   2   21.60   13.30 
  -5   7   2   -8.30   26.90 
  -5   7   2   16.60    5.40 
  -5   7   2   13.30   17.80 
  -5   7   2   49.50   18.70 
  -5   7   2   26.20   14.50 
  -5   7   2   14.00   13.10 
  -5   7   2   15.60   17.60 
   5  -7  -2   35.80   14.90 
   5  -7  -2   28.70   17.60 
   5  -7  -2   10.50   16.80 
   5  -7  -2   14.30    5.70 
   5  -7  -2   23.70   11.50 
  -5   6   1   16.00   17.30 
  -5   6   1    4.70   10.40 
  -5   6   1   14.60   13.00 
  -5   6   1   10.00   19.70 
  -5   6   1   10.60   12.60 
  -5   6   1   22.30    6.10 
  -5   6   1    9.20   12.10 
  -5   6   1   -2.70   12.30 
   5  -6  -1   25.80   11.50 
   5  -6  -1   20.90    7.60 
   5  -6  -1   -8.90   12.60 
   5  -6  -1   20.10    7.80 
   5  -6  -1   11.30    5.10 
   5  -6  -1   13.40   12.80 
  -5   5   0  251.57   29.80 
  -5   5   0  219.48   33.20 
  -5   5   0  220.28   34.30 
  -5   5   0  206.28   29.70 
  -5   5   0  254.47   34.00 
  -5   5   0  188.58   39.20 
  -5   5   0  254.57   33.70 
  -5   5   0  251.57   42.10 
   5  -5   0  259.37   34.20 
   5  -5   0  236.68   33.40 
   5  -5   0  254.47   34.80 
  -5   4  -1  690.73   87.29 
  -5   4  -1  717.03   86.29 
  -5   4  -1  728.73   87.59 
  -5   4  -1  728.23   84.89 
  -5   4  -1  710.53   85.39 
  -5   4  -1  681.73   86.09 
  -5   4  -1  839.52   87.89 
  -5   4  -1  805.42   96.89 
   5  -4   1  754.72   87.49 
   5  -4   1  776.22   86.99 
  -5   3  -2  565.94   68.09 
  -5   3  -2  617.84   69.89 
  -5   3  -2  646.44   68.79 
  -5   3  -2  564.74   67.69 
  -5   3  -2  565.94   69.09 
  -5   3  -2  563.14   67.99 
  -5   3  -2  691.03   80.69 
  -5   3  -2  576.14   70.39 
  -5   3  -2  535.95   68.79 
   5  -3   2  526.05   74.19 
   5  -3   2  587.84   68.49 
   5  -3   2  628.74   68.69 
  -5   2  -3 4003.80  420.66 
  -5   2  -3 3703.43  421.06 
  -5   2  -3 3274.27  421.46 
  -5   2  -3 3645.04  425.06 
  -5   2  -3 3567.54  420.56 
  -5   2  -3 3920.51  421.46 
  -5   2  -3 3996.50  421.66 
   5  -2   3 3430.06  420.16 
   5  -2   3 3932.51  426.96 
   5  -2   3 4311.47  421.26 
  -5   1  -4  163.18   19.90 
  -5   1  -4  189.68   23.80 
  -5   1  -4  156.48   20.80 
  -5   1  -4  172.48   20.70 
  -5   1  -4  157.18   20.80 
  -5   1  -4  134.19   21.00 
  -5   1  -4  258.07   36.70 
  -5   1  -4  139.19   20.50 
   5  -1   4  182.18   24.00 
   5  -1   4  177.08   20.30 
   5  -1   4  180.48   21.30 
   5  -1   4  158.78   21.00 
   5  -1   4  130.49   24.90 
   5  -1   4  151.48   19.70 
  -5   0  -5    3.50    3.30 
  -5   0  -5    5.70    4.70 
  -5   0  -5    7.20    3.30 
  -5   0  -5   -0.70    4.10 
  -5   0  -5    5.20    5.80 
  -5   0  -5    4.20    6.60 
  -5   0  -5    6.20   11.70 
  -5   0  -5    1.30    5.20 
   5   0   5    0.90    4.30 
   5   0   5   -2.10    3.80 
   5   0   5    2.10    3.20 
   5   0   5    1.30    4.30 
   5   0   5    5.20    7.10 
   5   0   5    3.70    2.60 
  -5  -1  -6   17.70    7.30 
  -5  -1  -6   32.90    7.80 
  -5  -1  -6   28.70    7.60 
  -5  -1  -6   31.40   10.60 
  -5  -1  -6   26.00   10.80 
  -5  -1  -6   20.80    9.50 
  -5  -1  -6   33.90    5.90 
   5   1   6   30.40    8.90 
   5   1   6   28.00    9.80 
   5   1   6   21.80    7.80 
   5   1   6   18.70    7.40 
   5   1   6   11.40    5.40 
   5   1   6   18.70    7.00 
   5   1   6   19.90    5.10 
  -5  -2  -7  137.09   25.30 
  -5  -2  -7  128.89   20.20 
  -5  -2  -7  167.48   23.30 
  -5  -2  -7  130.99   29.90 
  -5  -2  -7  163.28   19.60 
  -5  -2  -7  174.48   23.10 
  -5  -2  -7  178.78   22.10 
  -5  -2  -7  115.19   25.70 
   5   2   7  163.98   22.80 
   5   2   7  148.79   23.30 
   5   2   7  145.39   18.70 
   5   2   7  117.69   19.10 
   5   2   7  137.89   22.60 
   5   2   7  127.69   19.90 
   5   2   7  132.79   23.20 
   5   2   7  152.28   19.90 
   5   2   7  172.28   19.00 
   5   2   7  163.08   24.20 
   5   2   7  122.09   19.70 
  -5  -3  -8  684.63   98.99 
  -5  -3  -8  732.03   91.09 
  -5  -3  -8  747.73   89.99 
  -5  -3  -8  755.42   89.49 
  -5  -3  -8  720.63   87.29 
  -5  -3  -8  658.93   93.79 
  -5  -3  -8  836.92   89.89 
   5   3   8  768.62   87.59 
   5   3   8  770.72   88.39 
   5   3   8  764.22   89.89 
   5   3   8  694.33   84.49 
   5   3   8  693.83   89.39 
   5   3   8  845.72   84.89 
   5   3   8  807.92   87.19 
   5   3   8  679.83   88.79 
   5   3   8  678.53   89.39 
   5   3   8  775.42   90.59 
  -5  -4  -9  647.94   99.79 
  -5  -4  -9  704.73   93.79 
  -5  -4  -9  879.91   94.69 
  -5  -4  -9  769.52   94.59 
  -5  -4  -9  707.23   98.29 
   5   4   9  868.81   89.79 
   5   4   9  779.92   97.39 
   5   4   9  763.12   94.39 
   5   4   9  762.32   93.49 
   5   4   9  730.03   93.59 
   5   4   9  833.92   94.59 
  -5  -5 -10   12.30   13.60 
  -5  -5 -10    5.70   15.40 
  -5  -5 -10   23.50   13.50 
  -5  -5 -10   14.40   12.70 
   5   5  10   12.50   15.20 
   5   5  10  -10.00   12.70 
   5   5  10   11.10   13.40 
   5   5  10   14.60    7.70 
   5   5  10    8.20   12.90 
  -5  -6 -11   48.30   20.60 
  -5  -6 -11   66.39   25.20 
  -5  -6 -11   38.50   16.90 
  -5  -6 -11   27.00   17.00 
   5   6  11   18.90   18.90 
   5   6  11   45.40   20.10 
   5   6  11   61.99   20.20 
   5   6  11   26.60   11.60 
   5   6  11   26.20   21.70 
   5   6  11   42.50   22.10 
  -5  -7 -12    6.80   21.70 
  -5  -7 -12    8.00   15.00 
  -5  -7 -12  -20.10   18.40 
   5   7  12   27.00   28.70 
   5   7  12    6.90    9.60 
   5   7  12   14.50   19.90 
  -4  10   4  223.18   53.99 
  -4  10   4  235.48   56.49 
  -4  10   4  354.16   52.89 
  -4  10   4  197.58   55.69 
  -4  10   4  294.17   34.40 
  -4  10   4  324.77   56.99 
  -4  10   4  230.58   46.00 
   4 -10  -4  371.06   55.69 
   4 -10  -4  307.27   63.59 
   4 -10  -4  320.57   44.70 
   4 -10  -4  461.25   53.39 
  -4   9   3   58.59   21.40 
  -4   9   3  105.59   33.10 
  -4   9   3  121.79   30.80 
  -4   9   3   74.79   26.00 
  -4   9   3   87.89   11.50 
  -4   9   3   11.30   28.50 
  -4   9   3   52.19   28.60 
   4  -9  -3  109.29   20.40 
   4  -9  -3  143.49   42.30 
   4  -9  -3   84.39   14.90 
   4  -9  -3   49.90   27.60 
   4  -9  -3  129.69   26.20 
   4  -9  -3   51.99   24.50 
  -4   8   2    8.30   20.20 
  -4   8   2   11.60   12.50 
  -4   8   2   10.80   21.10 
  -4   8   2   -1.40   17.70 
  -4   8   2   15.30   16.80 
  -4   8   2   -0.90   14.50 
  -4   8   2    8.20    3.40 
   4  -8  -2    2.60   24.10 
   4  -8  -2   -1.60   16.60 
   4  -8  -2   -3.40   14.30 
   4  -8  -2    1.30    5.80 
   4  -8  -2    1.50   11.70 
   4  -8  -2   14.90   10.40 
  -4   7   1  473.05   61.49 
  -4   7   1  378.46   55.49 
  -4   7   1  383.56   63.39 
  -4   7   1  427.46   56.99 
  -4   7   1  379.56   49.20 
  -4   7   1  488.55   62.39 
  -4   7   1  402.96   58.69 
   4  -7  -1  483.35   62.09 
   4  -7  -1  414.26   64.29 
   4  -7  -1  493.15   55.59 
   4  -7  -1  493.05   56.89 
  -4   6   0    0.90   11.10 
  -4   6   0    2.10   10.20 
  -4   6   0   -7.70   11.90 
  -4   6   0   -0.70   11.00 
  -4   6   0  -11.30   10.20 
  -4   6   0    7.50   10.80 
  -4   6   0   10.30   20.30 
  -4   6   0    9.10    4.20 
   4  -6   0  -16.40   10.90 
   4  -6   0   16.60    8.50 
   4  -6   0   16.70   16.30 
   4  -6   0   26.50   12.00 
  -4   5  -1  606.64   87.79 
  -4   5  -1  535.05   84.09 
  -4   5  -1  709.63   82.19 
  -4   5  -1  584.44   80.49 
  -4   5  -1  592.24   80.99 
  -4   5  -1  707.93   83.99 
  -4   5  -1  648.84   76.89 
  -4   5  -1  666.03   81.59 
   4  -5   1  797.52   78.59 
   4  -5   1  677.33   82.39 
   4  -5   1  703.73   82.59 
   4  -5   1  709.03   89.29 
   4  -5   1  711.03   77.89 
   4  -5   1  642.94   81.59 
  -4   4  -2   82.29   16.30 
  -4   4  -2   69.19   12.20 
  -4   4  -2   88.29   18.80 
  -4   4  -2   44.10   16.40 
  -4   4  -2   76.99   16.40 
  -4   4  -2   85.09   16.60 
  -4   4  -2   70.19   23.10 
  -4   4  -2   59.59   17.30 
   4  -4   2   69.29   10.30 
   4  -4   2   76.29   11.30 
   4  -4   2   91.79   22.70 
   4  -4   2   74.39   15.80 
   4  -4   2   79.29   16.50 
   4  -4   2  102.09   17.80 
   4  -4   2   75.69   12.40 
   4  -4   2   87.89   10.50 
  -4   3  -3  108.89   20.80 
  -4   3  -3  106.99   19.30 
  -4   3  -3  142.69   30.80 
  -4   3  -3   95.39   20.00 
  -4   3  -3  160.88   23.80 
  -4   3  -3  139.49   16.00 
  -4   3  -3  123.09   16.40 
  -4   3  -3   93.29   16.60 
   4  -3   3  142.89   18.50 
   4  -3   3  127.79   19.80 
   4  -3   3  149.79   17.30 
   4  -3   3  139.09   19.60 
   4  -3   3  136.59   20.00 
   4  -3   3  125.29   26.20 
  -4   2  -4 2853.91  335.67 
  -4   2  -4 3276.47  335.37 
  -4   2  -4 2897.91  345.17 
  -4   2  -4 2863.41  335.37 
  -4   2  -4 2976.80  334.07 
  -4   2  -4 2789.32  335.27 
  -4   2  -4 3091.59  334.47 
  -4   2  -4 3212.78  335.47 
   4  -2   4 2722.23  334.77 
   4  -2   4 3280.17  335.07 
   4  -2   4 3102.19  336.47 
   4  -2   4 2871.61  339.77 
   4  -2   4 2952.30  336.27 
  -4   1  -5  836.32  112.19 
  -4   1  -5  920.21  113.19 
  -4   1  -5 1047.40  112.69 
  -4   1  -5 1053.99  115.09 
  -4   1  -5  920.31  120.49 
  -4   1  -5 1162.18  115.99 
  -4   1  -5 1006.80  111.79 
  -4   1  -5 1048.30  113.59 
   4  -1   5 1004.90  114.49 
   4  -1   5  934.31  112.89 
   4  -1   5  996.20  113.59 
   4  -1   5 1029.40  111.29 
   4  -1   5  972.30  116.39 
   4  -1   5  895.91  112.19 
   4  -1   5 1032.20  112.69 
  -4   0  -6 4045.40  490.15 
  -4   0  -6 3931.81  485.45 
  -4   0  -6 4842.92  487.75 
  -4   0  -6 4081.19  486.85 
  -4   0  -6 4533.15  486.05 
  -4   0  -6 4734.13  486.25 
  -4   0  -6 4305.37  489.15 
   4   0   6 4251.57  483.95 
   4   0   6 4577.64  486.45 
   4   0   6 4049.09  485.55 
   4   0   6 4516.35  485.65 
   4   0   6 4298.07  486.05 
   4   0   6 4426.06  487.95 
   4   0   6 4167.78  487.95 
   4   0   6 4511.05  484.05 
  -4  -1  -7  482.65   58.89 
  -4  -1  -7  407.86   55.79 
  -4  -1  -7  444.16   53.79 
  -4  -1  -7  494.65   59.89 
  -4  -1  -7  558.64   57.69 
  -4  -1  -7  458.75   61.79 
  -4  -1  -7  453.85   56.89 
  -4  -1  -7  498.65   60.09 
   4   1   7  460.15   56.09 
   4   1   7  498.45   56.29 
   4   1   7  472.95   56.49 
   4   1   7  491.75   57.69 
   4   1   7  524.65   58.79 
   4   1   7  442.86   57.09 
   4   1   7  484.05   57.49 
   4   1   7  438.76   56.89 
   4   1   7  506.65   54.39 
  -4  -2  -8 1816.42  230.38 
  -4  -2  -8 2014.40  234.38 
  -4  -2  -8 2113.79  233.38 
  -4  -2  -8 2070.49  238.28 
  -4  -2  -8 1953.60  235.28 
  -4  -2  -8 2319.37  233.08 
  -4  -2  -8 2077.19  232.68 
   4   2   8 2174.18  234.08 
   4   2   8 2241.18  229.18 
   4   2   8 2057.59  232.18 
   4   2   8 2107.19  232.08 
   4   2   8 2037.20  232.18 
   4   2   8 1886.31  232.38 
   4   2   8 1889.21  230.58 
   4   2   8 1970.10  232.68 
   4   2   8 2024.50  233.08 
   4   2   8 2063.19  232.88 
  -4  -3  -9  -10.40   19.80 
  -4  -3  -9   43.50   12.50 
  -4  -3  -9   34.00    9.40 
  -4  -3  -9   79.39   15.70 
  -4  -3  -9   25.20   17.80 
  -4  -3  -9   35.90   13.20 
   4   3   9   41.30   13.30 
   4   3   9   47.50   14.90 
   4   3   9   26.90   13.20 
   4   3   9   35.20   12.90 
   4   3   9   35.90   11.80 
   4   3   9   42.40   12.00 
   4   3   9   33.10   10.70 
   4   3   9   27.70    7.90 
  -4  -4 -10  185.38   27.00 
  -4  -4 -10  157.88   32.30 
  -4  -4 -10  214.48   41.80 
  -4  -4 -10  188.58   31.20 
  -4  -4 -10  189.78   33.00 
   4   4  10  198.78   33.00 
   4   4  10  207.98   35.00 
   4   4  10  216.68   34.90 
   4   4  10  225.28   30.20 
   4   4  10  178.28   33.20 
   4   4  10  190.18   29.70 
   4   4  10  215.58   32.10 
  -4  -5 -11  226.38   41.30 
  -4  -5 -11  271.97   43.60 
  -4  -5 -11  232.18   41.00 
  -4  -5 -11  243.08   40.10 
   4   5  11  274.97   39.40 
   4   5  11  321.27   39.00 
   4   5  11  344.77   45.70 
   4   5  11  232.68   41.30 
   4   5  11  247.18   37.70 
   4   5  11  250.27   40.50 
   4   5  11  257.27   43.10 
  -4  -6 -12   20.80   14.80 
  -4  -6 -12    8.90   14.20 
  -4  -6 -12   12.60   15.70 
  -4  -6 -12   40.90   25.60 
   4   6  12    8.00    8.30 
   4   6  12   -0.10   16.90 
   4   6  12   -0.40   19.10 
   4   6  12    5.80   26.10 
   4   6  12    3.70   14.60 
   4   6  12    2.20   17.00 
   4   6  12   -3.20    9.60 
  -4  -7 -13  118.19   28.30 
  -4  -7 -13   83.49   27.30 
   4   7  13   96.59   37.60 
   4   7  13  115.59   30.20 
   4   7  13  105.79   23.70 
  -3  11   4  227.08   49.70 
  -3  11   4  251.37   60.29 
  -3  11   4  308.77   55.29 
  -3  11   4  333.37   59.29 
   3 -11  -4  272.97   46.20 
   3 -11  -4  307.87   44.80 
   3 -11  -4  235.98   68.79 
   3 -11  -4  349.27   57.59 
   3 -11  -4  398.96   53.49 
   3 -11  -4  277.17   42.90 
  -3  10   3   18.70   22.80 
  -3  10   3   23.30   26.50 
  -3  10   3   41.70   23.20 
  -3  10   3   -2.20   32.90 
  -3  10   3   -3.00   16.90 
   3 -10  -3    5.40   13.90 
   3 -10  -3    0.90   19.80 
   3 -10  -3    1.20   38.50 
   3 -10  -3   -8.70   12.20 
   3 -10  -3   22.30   18.30 
  -3   9   2  394.96   58.69 
  -3   9   2  303.67   60.89 
  -3   9   2  289.97   51.49 
  -3   9   2  332.87   61.39 
  -3   9   2  395.26   55.19 
  -3   9   2  386.36   60.69 
   3  -9  -2  484.55   58.39 
   3  -9  -2  398.46   46.30 
   3  -9  -2  367.06   67.19 
   3  -9  -2  346.07   45.50 
   3  -9  -2  404.26   50.49 
   3  -9  -2  292.87   56.99 
  -3   8   1   -0.60   29.10 
  -3   8   1  -22.40   16.70 
  -3   8   1   25.30   18.60 
  -3   8   1    8.70   10.30 
  -3   8   1    3.40   14.40 
  -3   8   1   13.00   21.20 
  -3   8   1    9.60   17.20 
   3  -8  -1   44.50   23.80 
   3  -8  -1   -5.30    5.70 
   3  -8  -1  -23.20   18.40 
   3  -8  -1    8.20    9.80 
   3  -8  -1    0.00    6.50 
   3  -8  -1   31.70   15.20 
   3  -8  -1    2.50   15.20 
  -3   7   0 3153.88  336.67 
  -3   7   0 2589.34  341.47 
  -3   7   0 3254.97  339.97 
  -3   7   0 2549.74  334.77 
  -3   7   0 2698.73  335.17 
  -3   7   0 2689.13  337.07 
  -3   7   0 2740.13  341.37 
   3  -7   0 3594.24  348.07 
   3  -7   0 3271.37  333.37 
   3  -7   0 3099.89  327.77 
   3  -7   0 3457.45  341.37 
   3  -7   0 2572.34  327.97 
   3  -7   0 2746.03  334.67 
   3  -7   0 3212.28  337.17 
   3  -7   0 2833.62  334.17 
  -3   6  -1   13.80   12.50 
  -3   6  -1    4.50   11.40 
  -3   6  -1    0.80   13.80 
  -3   6  -1  -10.20   11.60 
  -3   6  -1   16.70   12.00 
  -3   6  -1   21.90   11.90 
  -3   6  -1  -19.90   15.00 
   3  -6   1   96.39   26.90 
   3  -6   1    2.70   10.60 
   3  -6   1   12.50   15.40 
   3  -6   1   25.80   10.40 
   3  -6   1   19.90   12.40 
  -3   5  -2  504.05   64.69 
  -3   5  -2  440.26   63.29 
  -3   5  -2  477.85   62.79 
  -3   5  -2  470.75   66.59 
  -3   5  -2  593.04   66.69 
  -3   5  -2  518.35   71.89 
  -3   5  -2  495.45   65.79 
   3  -5   2  516.75   65.59 
   3  -5   2  460.05   69.19 
   3  -5   2  538.55   65.59 
   3  -5   2  472.85   61.69 
   3  -5   2  466.25   64.59 
   3  -5   2  630.74   63.29 
  -3   4  -3  107.69   21.50 
  -3   4  -3  105.09   26.30 
  -3   4  -3  104.69   22.70 
  -3   4  -3  140.19   26.30 
  -3   4  -3  103.69   20.50 
  -3   4  -3  112.59   21.50 
  -3   4  -3   94.89   27.40 
   3  -4   3  133.19   23.10 
   3  -4   3  128.49   22.60 
   3  -4   3  147.29   16.50 
   3  -4   3   88.09   20.10 
   3  -4   3  126.29   18.50 
   3  -4   3  104.39   25.00 
  -3   3  -4   28.50    9.40 
  -3   3  -4   19.90    4.90 
  -3   3  -4   14.90    7.70 
  -3   3  -4   14.90    8.90 
  -3   3  -4   43.40   14.00 
  -3   3  -4    9.40    9.00 
  -3   3  -4   16.80   13.90 
  -3   3  -4   28.20    9.10 
   3  -3   4   40.20   10.30 
   3  -3   4   13.20    6.40 
   3  -3   4   20.70    5.50 
   3  -3   4   26.30   12.40 
   3  -3   4    9.70    5.70 
   3  -3   4   12.50    8.90 
   3  -3   4   20.90    5.20 
   3  -3   4    8.80    8.10 
  -3   2  -5    8.60    4.90 
  -3   2  -5    8.60    9.10 
  -3   2  -5   22.90    7.70 
  -3   2  -5    7.90    7.50 
  -3   2  -5    2.70    5.70 
  -3   2  -5    0.80   11.20 
  -3   2  -5   10.80    6.90 
  -3   2  -5   12.90    2.90 
   3  -2   5    4.60    6.60 
   3  -2   5    4.40    3.90 
   3  -2   5    4.50    5.70 
   3  -2   5    3.80    6.00 
   3  -2   5    8.20    4.00 
   3  -2   5   15.90    4.40 
  -3   1  -6 1927.81  223.98 
  -3   1  -6 1863.51  218.48 
  -3   1  -6 1881.11  217.88 
  -3   1  -6 1946.91  218.48 
  -3   1  -6 2166.58  218.88 
  -3   1  -6 1902.01  220.58 
  -3   1  -6 1668.83  215.28 
  -3   1  -6 2035.20  218.38 
   3  -1   6 1700.03  217.68 
   3  -1   6 1894.51  221.18 
   3  -1   6 2017.40  217.18 
   3  -1   6 2085.29  217.08 
   3  -1   6 1958.70  218.28 
   3  -1   6 2033.90  218.88 
  -3   0  -7   -3.50    6.00 
  -3   0  -7   16.60    6.50 
  -3   0  -7    1.80    4.70 
  -3   0  -7   -3.80    7.40 
  -3   0  -7   -4.20    1.60 
  -3   0  -7   -4.40    7.60 
  -3   0  -7    1.20    2.80 
  -3   0  -7   -0.60    7.00 
  -3   0  -7   -1.20    4.30 
   3   0   7   -5.10    5.00 
   3   0   7   -8.70    9.40 
   3   0   7   -4.10    4.50 
   3   0   7    1.80    2.30 
   3   0   7    8.00    5.10 
   3   0   7    1.00    1.20 
   3   0   7    3.10    4.90 
   3   0   7    1.10    6.20 
  -3  -1  -8 1698.73  211.28 
  -3  -1  -8 1857.41  214.48 
  -3  -1  -8 2080.79  213.98 
  -3  -1  -8 1924.31  215.48 
  -3  -1  -8 2002.10  215.78 
  -3  -1  -8 1883.21  213.68 
  -3  -1  -8 1979.60  216.78 
  -3  -1  -8 1974.40  214.98 
   3   1   8 1782.52  213.98 
   3   1   8 1793.42  214.88 
   3   1   8 1795.22  213.98 
   3   1   8 1988.50  209.78 
   3   1   8 1964.10  221.28 
   3   1   8 1794.02  213.78 
   3   1   8 1761.62  211.38 
  -3  -2  -9  113.29   18.60 
  -3  -2  -9  105.39   19.50 
  -3  -2  -9   98.39   14.20 
  -3  -2  -9  103.89   23.70 
  -3  -2  -9   88.79   19.10 
   3   2   9   92.39   14.10 
   3   2   9   64.09   16.90 
   3   2   9   86.59   19.40 
   3   2   9   99.89   18.60 
   3   2   9   85.69   18.70 
   3   2   9   85.89   18.20 
   3   2   9   98.79   19.30 
  -3  -3 -10  154.28   30.00 
  -3  -3 -10  184.68   29.10 
  -3  -3 -10  221.38   31.10 
  -3  -3 -10  182.98   36.80 
  -3  -3 -10  213.08   30.40 
  -3  -3 -10  169.98   24.80 
   3   3  10  223.38   33.20 
   3   3  10  206.68   32.00 
   3   3  10  199.98   25.20 
   3   3  10  179.28   29.10 
   3   3  10  218.28   31.60 
   3   3  10  202.48   30.50 
   3   3  10  190.08   32.10 
  -3  -4 -11   17.10   11.70 
  -3  -4 -11    2.50   10.00 
  -3  -4 -11   29.80   15.60 
  -3  -4 -11   14.60    9.00 
   3   4  11    2.90   10.20 
   3   4  11   16.40   14.40 
   3   4  11    5.10   13.00 
   3   4  11  -15.90   11.10 
   3   4  11   14.60   14.50 
   3   4  11   10.50   14.90 
  -3  -5 -12  322.17   45.40 
  -3  -5 -12  355.46   50.19 
  -3  -5 -12  307.17   45.10 
   3   5  12  321.37   51.89 
   3   5  12  276.87   47.90 
   3   5  12  316.27   50.59 
   3   5  12  256.87   47.00 
   3   5  12  283.27   45.90 
  -3  -6 -13    7.30   15.90 
  -3  -6 -13  -25.60   14.40 
  -3  -6 -13    7.10    9.20 
  -3  -6 -13   -4.40   15.70 
   3   6  13    6.90   20.60 
   3   6  13   17.60   19.30 
   3   6  13  -14.10   16.00 
   3   6  13    7.50   24.70 
  -3  -7 -14  115.59   30.40 
  -3  -7 -14  210.78   37.30 
  -3  -7 -14  191.98   35.40 
   3   7  14  194.58   44.90 
   3   7  14   81.59   25.20 
   3   7  14  134.69   43.70 
   3   7  14   91.69   34.40 
   3   7  14  153.28   36.30 
  -2  11   3  490.75   84.09 
  -2  11   3  591.94   80.59 
   2 -11  -3  670.53   80.59 
   2 -11  -3  505.75   69.99 
   2 -11  -3  563.94   97.99 
   2 -11  -3  541.05   68.19 
   2 -11  -3  441.36   68.89 
  -2  10   2   -4.90   20.30 
  -2  10   2   -0.10   16.60 
  -2  10   2   15.30   20.30 
  -2  10   2    1.00   25.90 
   2 -10  -2   -4.80   39.70 
   2 -10  -2   25.30   17.40 
   2 -10  -2    4.10   13.80 
   2 -10  -2   18.80   19.50 
   2 -10  -2    5.30   12.60 
  -2   9   1   -6.50   28.00 
  -2   9   1   13.40   15.20 
  -2   9   1   15.20   19.70 
  -2   9   1  -15.10   17.20 
  -2   9   1   20.80   23.40 
  -2   9   1   -4.60   18.10 
   2  -9  -1    3.10   16.00 
   2  -9  -1   -2.80    9.70 
   2  -9  -1   26.40   32.00 
   2  -9  -1   17.20   13.10 
   2  -9  -1   13.20   15.50 
  -2   8   0  678.83  102.39 
  -2   8   0  809.62  108.59 
  -2   8   0  743.03  110.59 
  -2   8   0  754.22  102.49 
  -2   8   0 1071.09  109.39 
  -2   8   0  653.23  106.29 
   2  -8   0  992.10  106.39 
   2  -8   0  904.81  100.49 
   2  -8   0 1057.79  118.29 
   2  -8   0  842.42   96.59 
   2  -8   0  915.61  111.19 
   2  -8   0  726.43   95.89 
  -2   7  -1  503.45   74.19 
  -2   7  -1  450.45   79.99 
  -2   7  -1  502.45   74.59 
  -2   7  -1  665.13   77.39 
  -2   7  -1  610.44   79.09 
  -2   7  -1  713.63   81.19 
  -2   7  -1  665.13   83.19 
   2  -7   1  635.44   72.79 
   2  -7   1  658.03   81.39 
   2  -7   1  701.63   90.29 
   2  -7   1  591.64   68.49 
   2  -7   1  558.64   75.69 
   2  -7   1  587.14   74.49 
   2  -7   1  745.43   82.99 
   2  -7   1  670.93   78.39 
   2  -7   1  469.85   68.29 
  -2   6  -2 1039.40  115.99 
  -2   6  -2  952.50  120.59 
  -2   6  -2 1023.20  118.19 
  -2   6  -2  784.92  115.69 
  -2   6  -2  813.62  112.09 
   2  -6   2 1156.98  118.59 
   2  -6   2  952.30  113.09 
   2  -6   2 1018.10  111.69 
   2  -6   2  915.01  106.89 
   2  -6   2  951.30  119.29 
   2  -6   2  828.92  117.79 
   2  -6   2  972.60  116.89 
  -2   5  -3 3787.02  428.96 
  -2   5  -3 3470.95  427.46 
  -2   5  -3 3419.56  425.46 
  -2   5  -3 3355.96  428.36 
  -2   5  -3 3975.90  434.96 
   2  -5   3 3733.43  420.76 
   2  -5   3 4482.35  429.36 
   2  -5   3 3835.72  428.26 
   2  -5   3 4106.89  425.96 
   2  -5   3 4070.49  432.36 
   2  -5   3 3404.16  431.96 
  -2   4  -4 2596.34  325.07 
  -2   4  -4 2513.35  323.57 
  -2   4  -4 3139.29  334.27 
  -2   4  -4 3230.38  322.17 
  -2   4  -4 3001.00  327.37 
  -2   4  -4 3362.16  329.17 
  -2   4  -4 2625.44  325.77 
   2  -4   4 2987.80  324.17 
   2  -4   4 2685.33  327.77 
   2  -4   4 2571.24  319.87 
   2  -4   4 2871.91  320.07 
   2  -4   4 2661.83  326.27 
   2  -4   4 3269.17  326.67 
  -2   3  -5    2.70   10.70 
  -2   3  -5    5.50    4.60 
  -2   3  -5   12.10    8.80 
  -2   3  -5    2.50    5.10 
  -2   3  -5    4.40    8.00 
  -2   3  -5    6.90    9.90 
  -2   3  -5   -1.20    9.00 
  -2   3  -5    3.50    7.00 
   2  -3   5   21.70    9.30 
   2  -3   5    4.00    6.60 
   2  -3   5    4.50    5.70 
   2  -3   5    8.50    7.60 
   2  -3   5    9.10    4.40 
   2  -3   5   15.20    8.70 
  -2   2  -6   85.79   19.70 
  -2   2  -6  116.99   19.10 
  -2   2  -6   89.59   11.50 
  -2   2  -6  115.69   18.70 
  -2   2  -6   83.89   17.70 
  -2   2  -6  105.79   18.30 
  -2   2  -6   97.69   15.10 
  -2   2  -6   94.69   22.70 
   2  -2   6  102.89   15.20 
   2  -2   6  103.39   21.40 
   2  -2   6   66.89   15.90 
   2  -2   6  142.09   18.30 
   2  -2   6  106.29   17.40 
   2  -2   6  110.09   16.20 
  -2   1  -7  220.18   28.30 
  -2   1  -7  155.98   30.80 
  -2   1  -7  225.28   33.30 
  -2   1  -7  208.78   28.60 
  -2   1  -7  202.18   28.40 
  -2   1  -7  231.38   29.50 
   2  -1   7  145.09   27.70 
   2  -1   7  177.18   35.50 
   2  -1   7  239.68   26.00 
   2  -1   7  225.08   28.50 
   2  -1   7  187.48   28.40 
   2  -1   7  219.88   28.40 
   2  -1   7  215.78   28.60 
   2  -1   7  235.48   28.50 
  -2   0  -8  726.73   82.99 
  -2   0  -8  715.63   81.79 
  -2   0  -8  743.63   81.99 
  -2   0  -8  741.23   83.59 
  -2   0  -8  740.53   85.29 
  -2   0  -8  758.42   82.69 
  -2   0  -8  695.23   81.59 
   2   0   8  671.73   78.99 
   2   0   8  631.74   86.49 
   2   0   8  685.53   83.79 
   2   0   8  685.33   82.09 
   2   0   8  615.14   81.39 
   2   0   8  626.24   81.39 
   2   0   8  748.53   82.99 
   2   0   8  665.43   76.69 
   2   0   8  625.04   81.49 
  -2  -1  -9 2085.59  228.78 
  -2  -1  -9 2140.29  230.28 
  -2  -1  -9 2078.69  230.48 
  -2  -1  -9 2320.57  231.68 
  -2  -1  -9 2082.39  229.78 
   2   1   9 2055.09  229.58 
   2   1   9 2040.70  230.28 
   2   1   9 1901.81  225.28 
   2   1   9 1884.51  228.48 
   2   1   9 1976.40  229.08 
   2   1   9 2003.90  229.18 
   2   1   9 1935.21  229.58 
   2   1   9 1666.93  230.38 
  -2  -2 -10  109.69   22.50 
  -2  -2 -10   69.39   11.60 
  -2  -2 -10   84.49   17.30 
  -2  -2 -10  109.29   19.90 
  -2  -2 -10   98.99   18.70 
  -2  -2 -10   93.49   18.60 
  -2  -2 -10   57.19   19.20 
   2   2  10   96.89   20.70 
   2   2  10   89.49   19.30 
   2   2  10   84.89   18.10 
   2   2  10   93.69   19.50 
   2   2  10   86.09   12.60 
   2   2  10  104.39   20.30 
   2   2  10   66.79   18.60 
   2   2  10   90.39   19.60 
  -2  -3 -11   49.80   19.40 
  -2  -3 -11   30.70    6.90 
  -2  -3 -11   18.00   12.50 
  -2  -3 -11   26.90   11.90 
  -2  -3 -11   41.40   11.60 
  -2  -3 -11   67.19   20.50 
  -2  -3 -11   15.50   10.40 
   2   3  11   47.00   18.50 
   2   3  11   29.60   13.70 
   2   3  11   15.90   14.00 
   2   3  11   26.70   13.50 
   2   3  11   41.70   14.30 
   2   3  11   14.80   13.00 
   2   3  11   32.60    7.30 
   2   3  11   30.00   14.70 
  -2  -4 -12  998.30  115.49 
  -2  -4 -12 1118.69  116.99 
  -2  -4 -12  819.02  108.49 
  -2  -4 -12  903.91  113.59 
   2   4  12 1050.19  118.59 
   2   4  12 1108.59  119.79 
   2   4  12  922.21  115.99 
   2   4  12  992.30  116.49 
   2   4  12  843.92  115.69 
   2   4  12  961.00  116.89 
  -2  -5 -13    7.10   16.00 
  -2  -5 -13   17.90   14.70 
  -2  -5 -13   22.50   12.30 
  -2  -5 -13   18.60    6.90 
   2   5  13   46.20   23.50 
   2   5  13    5.30   19.30 
   2   5  13   12.00   22.40 
   2   5  13   -0.20   19.20 
   2   5  13   15.90   16.80 
  -2  -6 -14   92.79   18.40 
  -2  -6 -14  166.38   32.30 
  -2  -6 -14  123.09   30.00 
  -2  -6 -14  137.29   27.70 
   2   6  14  111.49   31.50 
   2   6  14  177.38   38.10 
   2   6  14  156.58   41.00 
   2   6  14  147.79   40.20 
   2   6  14  193.28   36.00 
  -2  -7 -15   58.49   27.50 
  -2  -7 -15   91.19   28.10 
  -2  -7 -15   76.39   24.60 
   2   7  15   86.19   31.60 
   2   7  15   40.10   43.50 
   2   7  15  139.09   36.60 
  -1  11   2   23.60   26.80 
  -1  11   2   16.60   21.20 
  -1  11   2  -58.79   23.90 
   1 -11  -2   17.90   17.90 
   1 -11  -2   15.90   22.80 
   1 -11  -2  -18.50   23.00 
   1 -11  -2   -0.80   54.19 
  -1  10   1  327.07   60.29 
  -1  10   1  266.27   57.09 
  -1  10   1  409.16   60.69 
  -1  10   1  317.87   55.99 
   1 -10  -1  302.27   70.39 
   1 -10  -1  367.46   48.60 
   1 -10  -1  315.87   48.60 
   1 -10  -1  407.26   59.79 
  -1   9   0  812.82  133.79 
  -1   9   0  801.62  130.89 
  -1   9   0 1047.20  138.99 
  -1   9   0  789.22  125.09 
  -1   9   0  982.60  127.99 
  -1   9   0 1138.79  133.19 
   1  -9   0 1193.88  122.99 
   1  -9   0 1142.69  124.79 
   1  -9   0 1356.36  132.29 
   1  -9   0  987.00  136.59 
  -1   8  -1  473.05   68.99 
  -1   8  -1  418.96   73.89 
  -1   8  -1  529.75   70.29 
  -1   8  -1  435.26   70.39 
  -1   8  -1  495.65   64.89 
  -1   8  -1  346.97   62.49 
  -1   8  -1  402.76   62.09 
   1  -8   1  425.86   70.79 
   1  -8   1  466.35   60.29 
   1  -8   1  436.16   58.39 
   1  -8   1  583.24   66.29 
   1  -8   1  447.06   71.29 
   1  -8   1  587.14   77.29 
   1  -8   1  478.55   72.89 
   1  -8   1  523.55   67.99 
  -1   7  -2   30.60   17.50 
  -1   7  -2   33.90   20.20 
  -1   7  -2   -5.00   12.70 
  -1   7  -2   14.90   22.50 
  -1   7  -2    8.60   10.30 
  -1   7  -2   19.40   18.30 
  -1   7  -2   17.10   16.60 
   1  -7   2   24.90   20.20 
   1  -7   2   48.60   22.20 
   1  -7   2   20.00   10.40 
   1  -7   2   17.20   12.30 
   1  -7   2   24.00   10.30 
   1  -7   2    1.30   11.60 
   1  -7   2   19.50   16.20 
  -1   6  -3  393.66   52.19 
  -1   6  -3  533.25   64.59 
  -1   6  -3  343.57   56.29 
  -1   6  -3  324.87   55.99 
  -1   6  -3  428.96   56.89 
   1  -6   3  563.34   60.39 
   1  -6   3  441.16   52.29 
   1  -6   3  370.06   53.99 
   1  -6   3  446.06   60.19 
   1  -6   3  353.86   48.50 
   1  -6   3  352.16   53.69 
   1  -6   3  373.46   56.29 
   1  -6   3  415.56   57.59 
  -1   5  -4  163.68   29.70 
  -1   5  -4  160.58   25.90 
  -1   5  -4  200.38   34.60 
  -1   5  -4  119.79   28.10 
  -1   5  -4  152.38   23.30 
  -1   5  -4  197.38   33.90 
  -1   5  -4  109.69   29.60 
  -1   5  -4  110.79   27.10 
   1  -5   4  112.19   25.70 
   1  -5   4  143.69   20.60 
   1  -5   4  168.68   30.20 
   1  -5   4  132.79   28.40 
   1  -5   4  118.99   25.80 
   1  -5   4  143.99   30.60 
   1  -5   4  170.28   24.30 
   1  -5   4  159.38   29.10 
  -1   4  -5  823.02  105.19 
  -1   4  -5  947.71  109.09 
  -1   4  -5 1025.20  111.39 
  -1   4  -5  827.72  111.69 
  -1   4  -5  887.61  107.69 
  -1   4  -5  891.11  108.99 
   1  -4   5  831.92  108.69 
   1  -4   5  874.61  109.69 
   1  -4   5 1027.90  108.09 
   1  -4   5  932.51  107.49 
   1  -4   5  740.83  105.89 
   1  -4   5  872.51  107.29 
   1  -4   5  986.50  106.79 
   1  -4   5  921.61  102.99 
  -1   3  -6 1889.41  218.98 
  -1   3  -6 2165.88  216.08 
  -1   3  -6 1740.93  215.58 
  -1   3  -6 1852.21  214.38 
  -1   3  -6 2096.49  212.48 
  -1   3  -6 1618.14  212.38 
  -1   3  -6 2024.40  218.28 
  -1   3  -6 1937.41  216.88 
   1  -3   6 1873.81  211.38 
   1  -3   6 1713.73  213.98 
   1  -3   6 1658.93  216.28 
   1  -3   6 2040.80  217.18 
   1  -3   6 1859.51  213.78 
   1  -3   6 1797.42  215.18 
  -1   2  -7  215.78   29.40 
  -1   2  -7  211.48   28.10 
  -1   2  -7  199.58   31.60 
  -1   2  -7  232.18   28.90 
  -1   2  -7  181.08   26.80 
  -1   2  -7  204.18   26.30 
  -1   2  -7  178.68   21.50 
  -1   2  -7  149.19   30.90 
  -1   2  -7  176.88   27.60 
   1  -2   7  172.38   30.00 
   1  -2   7  192.58   27.70 
   1  -2   7  216.48   26.30 
   1  -2   7  183.68   27.80 
   1  -2   7  191.08   27.00 
   1  -2   7  178.98   27.80 
  -1   1  -8  114.59   19.50 
  -1   1  -8  148.39   20.50 
  -1   1  -8  101.29   24.30 
  -1   1  -8  106.29   23.30 
  -1   1  -8  129.69   21.50 
  -1   1  -8  160.58   22.10 
  -1   1  -8  141.59   21.60 
   1  -1   8  135.29   17.00 
   1  -1   8  126.29   22.10 
   1  -1   8  162.28   22.40 
   1  -1   8  115.69   21.40 
   1  -1   8  127.69   21.20 
   1  -1   8  128.29   21.40 
   1  -1   8  142.79   20.60 
   1  -1   8  110.29   24.00 
  -1   0  -9    3.60    9.40 
  -1   0  -9    4.60    6.80 
  -1   0  -9    5.40    5.60 
  -1   0  -9    6.00    7.50 
  -1   0  -9   -2.40    7.50 
  -1   0  -9    9.60    7.50 
  -1   0  -9    1.50    5.30 
   1   0   9   -2.70    7.10 
   1   0   9   10.00    3.50 
   1   0   9    5.40    8.00 
   1   0   9   -2.00    7.00 
   1   0   9    5.60    9.20 
   1   0   9   -3.00    8.70 
   1   0   9   10.50    9.00 
   1   0   9    2.00    6.20 
  -1  -1 -10    0.30    7.80 
  -1  -1 -10    1.20    1.10 
  -1  -1 -10   -1.30    9.40 
  -1  -1 -10   -9.80    8.60 
  -1  -1 -10    7.30    8.70 
   1   1  10    8.00    8.20 
   1   1  10    5.20    2.90 
   1   1  10   34.80   11.70 
   1   1  10   -4.80    7.90 
   1   1  10   -0.80   10.20 
   1   1  10   -2.50    9.30 
   1   1  10   11.10    9.20 
  -1  -2 -11  827.32   89.09 
  -1  -2 -11  787.92   89.79 
  -1  -2 -11  727.83   90.49 
  -1  -2 -11  680.53   89.79 
  -1  -2 -11  678.43   87.59 
  -1  -2 -11  705.23   88.29 
   1   2  11  731.63   90.39 
   1   2  11  665.53   89.39 
   1   2  11  748.63   90.59 
   1   2  11  773.42   90.79 
   1   2  11  634.64   89.09 
   1   2  11  806.02   91.59 
   1   2  11  732.23   83.49 
   1   2  11  738.33   90.79 
  -1  -3 -12 1192.28  128.19 
  -1  -3 -12 1030.40  126.09 
  -1  -3 -12 1021.90  126.49 
  -1  -3 -12 1098.39  125.39 
   1   3  12 1215.48  131.29 
   1   3  12  919.41  127.39 
   1   3  12 1048.60  128.59 
   1   3  12 1045.20  128.69 
   1   3  12 1182.68  135.49 
   1   3  12 1027.20  127.79 
   1   3  12 1009.10  127.99 
  -1  -4 -13   85.49   20.10 
  -1  -4 -13  114.89   26.00 
  -1  -4 -13   96.39   23.80 
  -1  -4 -13   85.39   22.50 
   1   4  13   74.99   23.50 
   1   4  13   76.59   27.10 
   1   4  13   93.19   25.60 
   1   4  13  198.98   34.50 
   1   4  13  151.28   31.50 
  -1  -5 -14   15.60   15.60 
  -1  -5 -14   11.60   14.60 
  -1  -5 -14    4.10   13.30 
   1   5  14    2.00   18.10 
   1   5  14   10.00   25.50 
   1   5  14  -14.10   25.30 
   1   5  14   17.10   14.80 
   1   5  14   -7.20   23.80 
  -1  -6 -15    6.20   20.20 
  -1  -6 -15   10.20   15.70 
  -1  -6 -15   11.90   18.20 
   1   6  15   23.40   28.70 
   1   6  15    5.20   24.70 
   1   6  15   25.90   27.00 
   1   6  15   44.80   32.20 
   0  11   1  -10.60   29.90 
   0  11   1    0.30   29.90 
   0  11   1   12.10   22.20 
   0  11   1   26.70   26.60 
   0 -11  -1   -8.40   27.10 
   0 -11  -1   -7.80   23.40 
   0 -11  -1  -29.40   16.20 
   0 -11  -1   16.00   27.60 
   0 -11  -1  -71.29   49.00 
   0 -11  -1   -0.60   19.70 
   0  10   0   84.59   32.90 
   0  10   0  102.89   33.60 
   0  10   0   48.50   21.50 
   0  10   0  118.59   37.10 
   0 -10   0  173.98   37.80 
   0 -10   0  120.49   27.00 
   0 -10   0  127.59   47.10 
   0 -10   0  125.09   26.50 
   0 -10   0  152.28   33.90 
   0   9  -1   13.40   19.00 
   0   9  -1    7.00   18.30 
   0   9  -1  -15.40   29.80 
   0   9  -1   -6.00   17.50 
   0   9  -1   14.40   19.00 
   0  -9   1   -3.40   21.40 
   0  -9   1   -7.60   27.40 
   0  -9   1  -17.40   16.20 
   0  -9   1    7.20   13.70 
   0  -9   1   33.50   31.10 
   0  -9   1   -2.10   14.50 
   0   8  -2  417.46   70.29 
   0   8  -2  403.56   76.89 
   0   8  -2  544.25   74.99 
   0   8  -2  616.94   78.39 
   0   8  -2  564.94   76.69 
   0  -8   2  630.44   74.79 
   0  -8   2  722.63   84.99 
   0  -8   2  486.45   68.09 
   0  -8   2  585.84   78.09 
   0  -8   2  448.36   78.79 
   0  -8   2  495.65   68.59 
   0  -8   2  712.23   84.49 
   0  -8   2  531.35   77.29 
   0   7  -3   24.00   18.70 
   0   7  -3   -2.80   10.70 
   0   7  -3   19.80   19.80 
   0   7  -3  -14.20   13.70 
   0   7  -3    8.50   12.90 
   0   7  -3   14.50   16.30 
   0   7  -3  -14.10   19.10 
   0  -7   3   -5.90   16.90 
   0  -7   3   -3.60   18.00 
   0  -7   3    0.00   12.10 
   0  -7   3   -1.20   14.30 
   0  -7   3   10.20   14.20 
   0  -7   3   -8.60    6.70 
   0  -7   3  -32.90   17.60 
   0   6  -4 4371.76  436.86 
   0   6  -4 3479.45  427.66 
   0   6  -4 4226.28  434.66 
   0   6  -4 3301.57  429.86 
   0  -6   4 4153.58  431.96 
   0  -6   4 3633.94  433.16 
   0  -6   4 3672.93  421.56 
   0  -6   4 3635.14  430.96 
   0  -6   4 3511.95  430.56 
   0  -6   4 4066.69  429.16 
   0  -6   4 3999.10  432.46 
   0  -6   4 3276.37  425.76 
   0  -6   4 4213.58  434.66 
   0   5  -5   -0.10    8.30 
   0   5  -5   18.70   13.90 
   0   5  -5   -8.50   14.40 
   0   5  -5    4.90   11.80 
   0   5  -5   12.70   10.80 
   0   5  -5    8.70   13.30 
   0   5  -5   20.30   14.40 
   0   5  -5  -16.80   12.60 
   0  -5   5   -4.20   12.40 
   0  -5   5   -7.80   11.20 
   0  -5   5    2.20   11.30 
   0  -5   5   -0.40   10.80 
   0  -5   5   -2.40    7.50 
   0  -5   5   -4.30   11.80 
   0  -5   5   -3.90   13.10 
   0   4  -6 4043.30  444.76 
   0   4  -6 3519.25  441.66 
   0   4  -6 4855.31  451.25 
   0   4  -6 3690.23  446.36 
   0   4  -6 3887.71  447.66 
   0  -4   6 3350.46  443.06 
   0  -4   6 4295.07  444.36 
   0  -4   6 4083.59  448.16 
   0  -4   6 3638.54  443.26 
   0  -4   6 3607.94  445.76 
   0  -4   6 4377.36  446.46 
   0  -4   6 4019.30  441.66 
   0   3  -7   80.29   18.40 
   0   3  -7   11.70   11.10 
   0   3  -7    3.90    6.80 
   0   3  -7    9.50    7.20 
   0   3  -7    1.10    7.30 
   0   3  -7    8.10    7.10 
   0   3  -7   -0.50    9.30 
   0   3  -7    3.00   10.30 
   0  -3   7   -2.90    7.20 
   0  -3   7   -4.90   10.60 
   0  -3   7    2.50    9.30 
   0  -3   7    7.50    6.60 
   0  -3   7   -1.20    9.90 
   0  -3   7    9.80    9.60 
   0  -3   7    1.60    8.80 
   0   2  -8  732.83   77.49 
   0   2  -8  655.33   78.69 
   0   2  -8  552.04   78.69 
   0   2  -8  697.23   76.19 
   0   2  -8  606.24   70.69 
   0   2  -8  611.04   76.79 
   0   2  -8  545.35   79.09 
   0   2  -8  593.24   77.89 
   0   2  -8  622.04   75.09 
   0  -2   8  690.93   77.49 
   0  -2   8  546.05   76.09 
   0  -2   8  692.23   78.29 
   0  -2   8  603.94   75.59 
   0  -2   8  622.44   79.39 
   0  -2   8  683.43   78.59 
   0  -2   8  665.43   76.09 
   0   1  -9   -6.30    8.00 
   0   1  -9    1.60    8.10 
   0   1  -9    7.20    7.90 
   0   1  -9   -3.70    8.60 
   0   1  -9   -9.00    6.30 
   0   1  -9    0.70    8.00 
   0   1  -9    5.20    7.20 
   0   1  -9    7.80    6.50 
   0  -1   9   13.90    9.00 
   0  -1   9   -0.50    6.20 
   0  -1   9   -4.00    6.00 
   0  -1   9   -5.10    7.50 
   0  -1   9   -8.50    8.10 
   0  -1   9   -0.40   10.00 
   0  -1   9    7.80    8.60 
   0   0 -10   36.00   11.30 
   0   0 -10   27.40    5.70 
   0   0 -10   25.90   12.70 
   0   0 -10   51.39   13.70 
   0   0 -10   24.80   11.20 
   0   0 -10   43.70   14.00 
   0   0 -10   45.80   12.50 
   0   0  10   42.00   13.00 
   0   0  10  114.59   19.20 
   0   0  10   33.90    4.60 
   0   0  10   16.80   11.30 
   0   0  10   28.40   11.60 
   0   0  10   36.00   12.90 
   0   0  10   36.50   12.80 
   0   0  10   33.90    6.70 
   0   0  10   17.70   12.30 
   0  -1 -11    1.40    8.90 
   0  -1 -11   12.50    9.20 
   0  -1 -11    0.60    8.30 
   0  -1 -11   13.30    3.00 
   0  -1 -11    3.10    7.80 
   0  -1 -11    3.40   10.60 
   0   1  11   21.70   13.60 
   0   1  11    0.60   10.30 
   0   1  11    1.10    2.20 
   0   1  11    1.90   10.70 
   0   1  11   -3.90   11.40 
   0   1  11   -4.30    9.00 
   0   1  11   10.00   11.10 
   0   1  11   -5.00   11.10 
   0   1  11    2.10    2.80 
   0  -2 -12  135.99   25.60 
   0  -2 -12  232.38   31.50 
   0  -2 -12  163.28   31.60 
   0  -2 -12  136.19   26.80 
   0  -2 -12  149.09   29.50 
   0  -2 -12  148.09   26.90 
   0   2  12  184.58   32.00 
   0   2  12  169.08   29.90 
   0   2  12  197.78   33.70 
   0   2  12  165.58   30.40 
   0   2  12  157.38   30.30 
   0   2  12  160.78   19.40 
   0   2  12  145.19   31.10 
   0   2  12  129.39   18.90 
   0   2  12  124.09   27.90 
   0   2  12  156.18   30.30 
   0  -3 -13   10.40   11.40 
   0  -3 -13    1.70   11.10 
   0  -3 -13    0.40    7.90 
   0  -3 -13   -1.70   12.30 
   0   3  13    0.70   13.60 
   0   3  13    8.80   14.10 
   0   3  13   17.90   17.30 
   0   3  13  -15.70   15.70 
   0   3  13   17.60   14.80 
   0   3  13    5.70   12.80 
   0  -4 -14  772.72   84.59 
   0  -4 -14  581.54   79.09 
   0  -4 -14  634.14   82.89 
   0   4  14  565.44   84.89 
   0   4  14  762.52   89.89 
   0   4  14  506.75   90.29 
   0   4  14  716.13   89.49 
   0   4  14  682.03   87.99 
   0  -5 -15   -1.00   16.20 
   0  -5 -15    2.50   15.00 
   0   5  15   22.50   28.90 
   0   5  15    0.00   20.60 
   0   5  15   19.70   22.80 
   0  -6 -16  258.17   44.00 
   0  -6 -16  293.17   49.50 
   0   6  16  266.57   50.69 
   0   6  16  243.18   61.39 
   0   6  16  307.27   61.49 
   0   6  16  364.06   57.29 
   1  11   0  115.19   39.80 
   1  11   0  101.49   39.10 
   1  11   0  131.29   38.40 
  -1 -11   0  133.29   31.60 
  -1 -11   0  102.89   57.29 
  -1 -11   0  178.78   42.10 
  -1 -11   0  140.79   43.50 
  -1 -11   0  111.39   30.60 
   1  10  -1  267.27   57.29 
   1  10  -1  314.07   60.69 
   1  10  -1  243.18   54.49 
  -1 -10   1  357.36   72.09 
  -1 -10   1  468.25   63.89 
  -1 -10   1  334.07   50.39 
  -1 -10   1  342.97   53.69 
   1   9  -2  284.37   58.29 
   1   9  -2  335.37   61.59 
   1   9  -2  405.86   60.99 
   1   9  -2  359.96   61.59 
  -1  -9   2  220.28   59.79 
  -1  -9   2  488.95   60.89 
  -1  -9   2  407.06   70.89 
  -1  -9   2  363.16   54.39 
  -1  -9   2  331.27   51.59 
  -1  -9   2  428.26   67.69 
   1   8  -3 1543.15  190.68 
   1   8  -3 1717.63  190.58 
   1   8  -3 1610.74  190.18 
  -1  -8   3 1254.97  182.08 
  -1  -8   3 1244.98  188.18 
  -1  -8   3 1973.70  196.98 
  -1  -8   3 1680.93  189.08 
  -1  -8   3 1887.01  194.18 
  -1  -8   3 1404.26  182.68 
  -1  -8   3 1589.94  191.58 
   1   7  -4  239.48   46.60 
   1   7  -4  424.26   57.59 
   1   7  -4  141.79   38.70 
   1   7  -4  279.27   47.10 
   1   7  -4  190.58   36.80 
   1   7  -4  274.07   43.20 
  -1  -7   4  212.68   42.40 
  -1  -7   4  208.28   35.20 
  -1  -7   4  296.07   42.60 
  -1  -7   4  163.38   40.70 
  -1  -7   4  223.98   43.80 
  -1  -7   4  255.87   36.20 
  -1  -7   4  246.98   46.30 
  -1  -7   4  204.58   27.50 
  -1  -7   4  246.18   44.70 
   1   6  -5    5.90   15.80 
   1   6  -5   16.50   13.10 
   1   6  -5  -12.20   17.20 
   1   6  -5   -4.30   14.40 
   1   6  -5   23.20   17.50 
   1   6  -5   23.50   20.90 
   1   6  -5   -5.80   18.00 
   1   6  -5    5.90   12.10 
  -1  -6   5   19.10   17.60 
  -1  -6   5   16.60   14.90 
  -1  -6   5  -12.60   10.10 
  -1  -6   5   10.10   13.00 
  -1  -6   5    5.20   16.10 
  -1  -6   5   17.40   12.90 
  -1  -6   5   15.60   16.50 
  -1  -6   5   17.30    5.30 
  -1  -6   5  -19.90   15.90 
   1   5  -6   22.20   10.00 
   1   5  -6   22.40   14.50 
   1   5  -6    9.70   11.70 
   1   5  -6   17.30   13.40 
   1   5  -6   27.70   16.20 
   1   5  -6    1.40   19.80 
   1   5  -6   48.30   18.70 
   1   5  -6   11.10   13.30 
  -1  -5   6    8.10   13.10 
  -1  -5   6   20.30   10.90 
  -1  -5   6    9.30   11.90 
  -1  -5   6   34.90   15.80 
  -1  -5   6    6.20   12.60 
  -1  -5   6    2.70   14.70 
  -1  -5   6   33.50   16.80 
   1   4  -7  430.06   56.79 
   1   4  -7  595.74   62.99 
   1   4  -7  550.84   64.59 
   1   4  -7  565.84   60.69 
   1   4  -7  426.86   58.99 
   1   4  -7  463.85   62.69 
   1   4  -7  451.15   62.79 
   1   4  -7  535.55   67.19 
  -1  -4   7  491.95   59.59 
  -1  -4   7  458.05   59.09 
  -1  -4   7  400.66   58.49 
  -1  -4   7  441.56   62.59 
  -1  -4   7  407.06   59.09 
  -1  -4   7  372.36   59.39 
  -1  -4   7  346.77   60.59 
  -1  -4   7  479.25   62.89 
   1   3  -8 2016.70  194.68 
   1   3  -8 1443.46  196.08 
   1   3  -8 1754.92  198.18 
   1   3  -8 1551.44  196.38 
   1   3  -8 1731.53  194.68 
   1   3  -8 1643.94  197.08 
   1   3  -8 1522.55  188.28 
   1   3  -8 1651.53  192.08 
  -1  -3   8 1565.34  194.58 
  -1  -3   8 1628.74  193.18 
  -1  -3   8 1788.22  194.38 
  -1  -3   8 1642.94  193.98 
  -1  -3   8 1709.93  197.18 
  -1  -3   8 1894.21  198.18 
  -1  -3   8 1754.02  197.18 
   1   2  -9 1889.51  212.58 
   1   2  -9 1656.33  212.98 
   1   2  -9 1964.30  213.68 
   1   2  -9 1990.10  210.38 
   1   2  -9 1906.21  204.58 
   1   2  -9 1755.12  208.28 
   1   2  -9 1873.11  210.98 
   1   2  -9 1698.23  212.08 
  -1  -2   9 1763.12  209.48 
  -1  -2   9 1848.12  212.68 
  -1  -2   9 1887.21  213.18 
  -1  -2   9 1969.90  211.38 
  -1  -2   9 1631.74  209.98 
  -1  -2   9 1892.21  212.58 
  -1  -2   9 1715.23  210.18 
   1   1 -10  -16.80    8.50 
   1   1 -10    9.60    9.00 
   1   1 -10   12.20   10.90 
   1   1 -10   -2.50    8.40 
   1   1 -10   29.60   12.60 
   1   1 -10   31.20   11.60 
   1   1 -10    3.20    3.20 
   1   1 -10    6.00   10.20 
  -1  -1  10   -4.60    6.40 
  -1  -1  10    0.00    5.70 
  -1  -1  10  -10.30   10.10 
  -1  -1  10   -4.40   10.80 
  -1  -1  10    3.40    9.80 
  -1  -1  10    0.20    9.20 
  -1  -1  10   17.10   11.40 
   1   0 -11    7.10    3.50 
   1   0 -11   -7.40    8.10 
   1   0 -11    7.00   10.80 
   1   0 -11   -3.30    8.50 
   1   0 -11   -2.00    7.20 
   1   0 -11    5.60    9.30 
   1   0 -11    0.50   10.60 
   1   0 -11    3.80   10.20 
  -1   0  11    4.50    3.00 
  -1   0  11    2.50   12.60 
  -1   0  11    0.90    1.90 
  -1   0  11   -4.50    9.10 
  -1   0  11   -7.40   11.30 
  -1   0  11    4.30    9.40 
  -1   0  11    4.50   10.60 
  -1   0  11    6.30   11.20 
  -1   0  11   -2.60    8.50 
   1  -1 -12    9.50   11.60 
   1  -1 -12   10.70    9.20 
   1  -1 -12   20.70   14.40 
   1  -1 -12    3.90    3.30 
   1  -1 -12   12.40   10.40 
   1  -1 -12   16.80   14.10 
  -1   1  12   12.70   14.30 
  -1   1  12    9.20    3.60 
  -1   1  12   -4.70   11.80 
  -1   1  12    5.00   12.80 
  -1   1  12   22.60   18.50 
  -1   1  12    3.30    3.20 
  -1   1  12   13.90   12.40 
  -1   1  12   -4.70    7.80 
  -1   1  12    9.60   14.10 
   1  -2 -13    3.80   12.10 
   1  -2 -13   17.80   11.50 
   1  -2 -13   15.00    5.00 
   1  -2 -13    9.40   14.50 
  -1   2  13   36.60   20.40 
  -1   2  13   40.50   18.20 
  -1   2  13   50.09   18.80 
  -1   2  13   33.80    5.50 
  -1   2  13   24.20   20.80 
  -1   2  13   27.90    6.30 
  -1   2  13   22.60   19.40 
   1  -3 -14  222.78   33.60 
   1  -3 -14  173.28   28.10 
   1  -3 -14  199.58   34.90 
  -1   3  14  167.28   24.70 
  -1   3  14  248.38   42.30 
  -1   3  14  179.58   37.00 
  -1   3  14  248.28   43.00 
  -1   3  14  151.58   36.70 
  -1   3  14  260.67   49.40 
   1  -4 -15  137.39   26.30 
   1  -4 -15  231.58   33.80 
   1  -4 -15  161.48   32.90 
  -1   4  15  182.58   41.10 
  -1   4  15  196.08   39.60 
  -1   4  15  187.08   41.50 
  -1   4  15  225.38   43.00 
  -1   4  15  127.79   22.60 
   1  -5 -16    9.50   19.00 
   1  -5 -16   11.70   18.10 
   1  -5 -16   -2.20   13.60 
  -1   5  16   -5.90   24.20 
  -1   5  16    1.50   36.10 
  -1   5  16   31.00   34.30 
  -1   5  16   44.60   28.10 
   2  11  -1  230.58   56.39 
   2  11  -1  166.08   49.80 
   2  11  -1  260.67   55.59 
   2  11  -1  374.16   59.29 
  -2 -11   1  485.75   71.09 
  -2 -11   1  272.67   49.80 
  -2 -11   1  331.27   72.49 
  -2 -11   1  302.97   53.99 
   2  10  -2   30.40   25.30 
   2  10  -2   48.50   29.00 
   2  10  -2  -10.60   24.80 
  -2 -10   2   20.30   24.00 
  -2 -10   2  -11.50   23.50 
  -2 -10   2   -3.80   17.70 
  -2 -10   2  -50.69   35.70 
   2   9  -3  373.96   59.89 
   2   9  -3  423.06   64.89 
   2   9  -3  300.07   62.19 
   2   9  -3  543.45   70.89 
  -2  -9   3  292.57   51.39 
  -2  -9   3  438.76   60.29 
  -2  -9   3  338.67   67.19 
  -2  -9   3  431.86   63.19 
  -2  -9   3  412.26   71.89 
  -2  -9   3  296.77   63.89 
   2   8  -4 1295.57  143.39 
   2   8  -4 1368.36  147.09 
  -2  -8   4 1343.47  148.29 
  -2  -8   4 1295.57  145.79 
  -2  -8   4 1349.36  145.39 
  -2  -8   4 1081.89  144.69 
  -2  -8   4  852.31  142.09 
  -2  -8   4 1042.90  130.49 
  -2  -8   4 1081.09  138.09 
  -2  -8   4  968.50  139.29 
   2   7  -5  540.45   69.59 
   2   7  -5  523.65   63.79 
   2   7  -5  597.24   71.29 
   2   7  -5  357.06   59.99 
   2   7  -5  412.16   57.69 
  -2  -7   5  375.46   58.69 
  -2  -7   5  366.96   61.09 
  -2  -7   5  489.65   64.39 
  -2  -7   5  386.46   57.39 
  -2  -7   5  266.07   61.99 
  -2  -7   5  531.55   67.79 
  -2  -7   5  397.06   50.69 
  -2  -7   5  448.76   67.09 
  -2  -7   5  368.86   64.19 
   2   6  -6  816.52  101.19 
   2   6  -6 1017.30  112.39 
  -2  -6   6  749.92  104.09 
  -2  -6   6  977.30  110.09 
  -2  -6   6  958.90  104.69 
  -2  -6   6  935.71  106.39 
  -2  -6   6 1003.10  111.49 
  -2  -6   6  786.02  106.69 
  -2  -6   6  721.33   96.59 
  -2  -6   6  820.82  108.69 
  -2  -6   6  681.03  103.09 
   2   5  -7  180.28   34.60 
   2   5  -7  145.79   34.50 
   2   5  -7  172.08   38.40 
   2   5  -7  186.58   25.80 
   2   5  -7  174.08   30.70 
   2   5  -7  191.28   32.40 
   2   5  -7  221.98   36.30 
   2   5  -7  195.88   34.90 
  -2  -5   7  210.08   39.10 
  -2  -5   7   97.09   28.50 
  -2  -5   7  127.29   28.10 
  -2  -5   7  114.59   28.20 
  -2  -5   7  146.59   28.70 
  -2  -5   7   88.29   26.20 
  -2  -5   7  148.89   34.00 
   2   4  -8 2202.88  215.18 
   2   4  -8 1931.51  216.68 
   2   4  -8 1607.64  214.78 
   2   4  -8 1888.51  207.38 
   2   4  -8 1833.72  210.88 
   2   4  -8 1865.11  218.18 
   2   4  -8 1987.60  220.18 
  -2  -4   8 1542.25  211.08 
  -2  -4   8 1687.63  215.88 
  -2  -4   8 1658.43  213.68 
  -2  -4   8 1655.53  212.58 
  -2  -4   8 2020.10  219.28 
  -2  -4   8 1982.30  214.68 
  -2  -4   8 1999.20  217.08 
  -2  -4   8 1835.22  214.38 
   2   3  -9   81.79   16.70 
   2   3  -9   38.40   16.90 
   2   3  -9   89.09   22.20 
   2   3  -9   85.89   20.20 
   2   3  -9   93.99   25.00 
   2   3  -9   72.79   11.60 
   2   3  -9   67.09   19.50 
   2   3  -9   71.39   17.80 
   2   3  -9   55.09   19.10 
  -2  -3   9   72.29   20.70 
  -2  -3   9   51.89   17.40 
  -2  -3   9   86.29   23.60 
  -2  -3   9  124.29   23.50 
  -2  -3   9   80.99   18.60 
  -2  -3   9  140.89   28.30 
  -2  -3   9   57.99   18.50 
   2   2 -10   94.09   20.70 
   2   2 -10   72.49   21.20 
   2   2 -10   81.19   19.70 
   2   2 -10   89.89   16.90 
   2   2 -10   83.49   20.40 
   2   2 -10   97.99   22.40 
   2   2 -10   53.49   19.70 
   2   2 -10   76.09   19.70 
   2   2 -10   73.29   11.30 
  -2  -2  10   86.89   23.50 
  -2  -2  10   56.79   20.40 
  -2  -2  10  101.79   21.00 
  -2  -2  10   86.89   18.70 
  -2  -2  10   77.99   20.60 
  -2  -2  10   90.79   21.50 
  -2  -2  10   68.89   19.40 
   2   1 -11  702.13   85.69 
   2   1 -11  696.13   82.49 
   2   1 -11  724.33   86.49 
   2   1 -11  703.73   85.99 
   2   1 -11  699.93   79.49 
   2   1 -11  651.83   86.09 
   2   1 -11  714.73   86.39 
   2   1 -11  885.31   90.19 
  -2  -1  11  692.73   87.19 
  -2  -1  11  722.33   86.39 
  -2  -1  11  614.84   77.89 
  -2  -1  11  722.03   89.89 
  -2  -1  11  717.83   86.39 
  -2  -1  11  662.03   87.49 
  -2  -1  11  702.73   88.49 
  -2  -1  11  563.44   85.59 
   2   0 -12  130.09   27.00 
   2   0 -12  157.58   28.30 
   2   0 -12  152.38   28.30 
   2   0 -12  163.88   29.10 
   2   0 -12  124.89   18.70 
   2   0 -12  168.88   28.70 
   2   0 -12  168.18   28.70 
   2   0 -12  133.69   23.60 
  -2   0  12  180.38   31.30 
  -2   0  12  146.89   29.50 
  -2   0  12  174.38   34.00 
  -2   0  12  133.09   28.40 
  -2   0  12  180.18   30.60 
  -2   0  12  126.29   17.90 
  -2   0  12  162.28   33.30 
  -2   0  12  188.48   32.40 
   2  -1 -13    7.50   11.20 
   2  -1 -13   35.20    7.50 
   2  -1 -13   37.60   14.50 
  -2   1  13   58.69   27.70 
  -2   1  13   24.70   16.70 
  -2   1  13   25.60    6.60 
  -2   1  13   33.30    6.00 
  -2   1  13   28.60   19.30 
  -2   1  13   14.30   18.00 
   2  -2 -14   45.40   13.90 
   2  -2 -14   37.10    8.00 
   2  -2 -14   27.00   14.50 
   2  -2 -14   24.90   13.20 
   2  -2 -14   40.70   17.60 
  -2   2  14   40.10   18.60 
  -2   2  14   11.10   22.50 
  -2   2  14   37.80    8.50 
  -2   2  14   28.70   24.00 
  -2   2  14   35.50   20.50 
  -2   2  14   34.50   19.80 
   2  -3 -15    2.00   10.40 
   2  -3 -15    4.30   14.00 
   2  -3 -15    6.30   14.70 
  -2   3  15    4.60   24.80 
  -2   3  15   35.10   26.60 
  -2   3  15   17.00    8.30 
  -2   3  15   -4.60   18.70 
  -2   3  15    8.80   20.10 
   2  -4 -16  197.08   39.80 
   2  -4 -16  182.28   39.50 
   2  -4 -16  217.98   34.70 
  -2   4  16  274.07   51.69 
  -2   4  16  282.97   54.69 
  -2   4  16  303.67   52.79 
  -2   4  16  226.38   45.50 
  -2   4  16  308.17   54.19 
   3  11  -2   68.39   42.00 
   3  11  -2  157.88   60.29 
   3  11  -2  148.79   40.60 
   3  11  -2  151.28   45.20 
  -3 -11   2  242.58   59.89 
  -3 -11   2  199.28   46.50 
  -3 -11   2  313.07   65.79 
   3  10  -3  -11.50   28.40 
   3  10  -3   -8.00   35.00 
  -3 -10   3   22.00   26.40 
  -3 -10   3   -6.30   18.10 
  -3 -10   3  -17.30   38.30 
  -3 -10   3   24.00   26.80 
  -3 -10   3    3.00   31.60 
   3   9  -4  299.27   50.29 
   3   9  -4  228.68   43.90 
   3   9  -4  267.47   50.19 
  -3  -9   4  173.18   48.10 
  -3  -9   4  237.38   53.59 
  -3  -9   4  172.08   46.30 
  -3  -9   4  148.89   41.50 
  -3  -9   4  142.19   26.00 
   3   8  -5  -26.70   17.80 
   3   8  -5   -5.10   29.20 
   3   8  -5    0.60   18.40 
   3   8  -5   15.20   25.10 
  -3  -8   5    7.00    8.20 
  -3  -8   5  -26.00   23.30 
  -3  -8   5    6.50   24.80 
  -3  -8   5  -29.40   14.20 
  -3  -8   5    4.80   23.40 
  -3  -8   5  -27.00   29.80 
  -3  -8   5    1.70   19.10 
  -3  -8   5  -11.20   17.30 
   3   7  -6 1065.59  129.39 
  -3  -7   6 1068.39  130.19 
  -3  -7   6  997.10  121.09 
  -3  -7   6 1101.09  132.69 
   3   6  -7   28.30   20.60 
   3   6  -7   35.40   18.10 
   3   6  -7   27.40   14.50 
   3   6  -7   56.99   21.00 
   3   6  -7   18.20   21.10 
   3   6  -7   -8.20   22.90 
   3   6  -7    4.70   21.40 
   3   6  -7   18.60    6.90 
   3   6  -7   40.60   18.70 
  -3  -6   7   16.30    8.30 
  -3  -6   7   16.40   14.10 
  -3  -6   7   27.60   21.50 
  -3  -6   7    4.20   17.30 
  -3  -6   7   34.30   22.00 
  -3  -6   7   38.50   23.10 
  -3  -6   7    4.10   17.40 
  -3  -6   7   27.80   16.10 
   3   5  -8  618.04   87.79 
   3   5  -8  722.73   86.39 
   3   5  -8  724.93   84.89 
   3   5  -8  695.63   73.89 
   3   5  -8  563.04   79.49 
  -3  -5   8  778.42   90.99 
  -3  -5   8  500.45   73.89 
  -3  -5   8  575.94   79.49 
  -3  -5   8  634.64   84.09 
  -3  -5   8  536.85   82.89 
  -3  -5   8  554.64   79.39 
  -3  -5   8  733.63   91.69 
  -3  -5   8  565.44   81.99 
  -3  -5   8  756.22   83.79 
   3   4  -9   15.40   13.60 
   3   4  -9   24.70   16.20 
   3   4  -9   26.20   21.70 
   3   4  -9   27.00   14.70 
   3   4  -9   33.80   13.30 
   3   4  -9   28.70   16.10 
   3   4  -9   27.70    7.70 
   3   4  -9   33.10   17.80 
   3   4  -9   46.60   18.00 
  -3  -4   9   66.79   25.80 
  -3  -4   9   31.60   17.30 
  -3  -4   9   24.00   15.90 
  -3  -4   9   35.30   13.20 
  -3  -4   9   38.10   16.60 
  -3  -4   9   61.29   22.90 
  -3  -4   9   34.80   19.20 
  -3  -4   9   46.60   19.30 
   3   3 -10  227.18   36.70 
   3   3 -10  168.88   27.90 
   3   3 -10  194.18   38.30 
   3   3 -10  204.98   33.90 
   3   3 -10  181.88   34.00 
   3   3 -10  124.89   33.20 
   3   3 -10  191.38   33.50 
   3   3 -10  168.28   23.90 
   3   3 -10  175.08   35.10 
  -3  -3  10  197.78   36.70 
  -3  -3  10  203.78   41.60 
  -3  -3  10  189.88   34.00 
  -3  -3  10  162.18   34.90 
  -3  -3  10  223.18   38.70 
  -3  -3  10  171.38   30.70 
  -3  -3  10  184.98   32.30 
   3   2 -11   37.80   16.00 
   3   2 -11   19.10   14.80 
   3   2 -11   30.50   14.20 
   3   2 -11   17.20   14.20 
   3   2 -11   23.50   14.40 
   3   2 -11   41.90   18.00 
   3   2 -11   30.00   11.10 
   3   2 -11   31.80    8.50 
   3   2 -11   17.10   14.50 
   3   2 -11   33.80    7.40 
  -3  -2  11   19.80   19.00 
  -3  -2  11   15.50   14.60 
  -3  -2  11   27.00   19.40 
  -3  -2  11   23.10   14.70 
  -3  -2  11    2.70   14.60 
  -3  -2  11    2.70   15.40 
   3   1 -12 1056.49  121.89 
   3   1 -12 1035.10  116.89 
   3   1 -12 1173.38  124.69 
   3   1 -12  984.10  120.19 
   3   1 -12  874.11  113.89 
   3   1 -12 1015.20  122.39 
  -3  -1  12  823.82  112.59 
  -3  -1  12 1034.10  123.79 
  -3  -1  12 1167.28  128.29 
  -3  -1  12 1056.69  124.69 
  -3  -1  12 1054.39  121.79 
  -3  -1  12 1066.39  122.49 
   3   0 -13  -11.50   14.40 
   3   0 -13   -7.20   11.50 
   3   0 -13  -12.70   11.90 
   3   0 -13    5.40    4.80 
   3   0 -13   -4.70   10.10 
  -3   0  13    0.50    3.90 
  -3   0  13    7.20   18.30 
  -3   0  13   -0.50   14.50 
  -3   0  13   16.50   12.60 
  -3   0  13    0.90   13.10 
  -3   0  13   23.70   18.30 
   3  -1 -14  211.68   31.80 
   3  -1 -14  230.78   26.70 
   3  -1 -14  205.38   34.20 
  -3   1  14  193.78   43.30 
  -3   1  14  178.58   23.90 
  -3   1  14  215.28   26.00 
  -3   1  14  164.08   38.90 
  -3   1  14  207.48   40.50 
  -3   1  14  178.08   38.70 
  -3   1  14  247.98   40.10 
   3  -2 -15   10.80   15.40 
   3  -2 -15   -7.10   15.40 
   3  -2 -15   17.90   12.30 
   3  -2 -15    1.10   11.00 
   3  -2 -15   -2.40    5.20 
  -3   2  15   17.80   16.10 
  -3   2  15    6.10   19.80 
  -3   2  15    1.20   21.70 
  -3   2  15   12.20    7.10 
  -3   2  15   19.40   25.40 
  -3   2  15   41.40   29.30 
   3  -3 -16   17.60   18.80 
   3  -3 -16   14.60   16.20 
   3  -3 -16    7.90   11.60 
   3  -3 -16   13.00   15.50 
  -3   3  16   16.70   28.00 
  -3   3  16   -7.90   23.00 
  -3   3  16   40.80   31.00 
  -3   3  16    7.40   25.00 
   3  -4 -17    0.40   17.10 
   3  -4 -17   17.60   13.80 
   3  -4 -17    6.20   18.40 
   3  -4 -17   45.50   29.40 
  -3   4  17   22.80   28.80 
  -3   4  17   10.70   32.20 
  -3   4  17  -28.10   28.60 
  -3   4  17  -28.10   37.60 
   4  11  -3  263.77   54.59 
   4  11  -3  257.37   68.59 
   4  11  -3  230.08   59.99 
   4  11  -3  334.17   60.89 
  -4 -11   3  455.45   71.59 
  -4 -11   3  449.16   69.89 
  -4 -11   3  269.07   69.59 
  -4 -11   3  218.78   52.89 
  -4 -11   3  428.66   71.59 
   4  10  -4  452.75   75.09 
   4  10  -4  547.25   87.99 
   4  10  -4  389.66   76.49 
   4  10  -4  464.65   69.09 
  -4 -10   4  634.84   82.39 
  -4 -10   4  226.08   79.39 
  -4 -10   4  356.66   66.99 
  -4 -10   4  445.86   76.79 
   4   9  -5   32.10   24.30 
   4   9  -5   10.80   22.10 
   4   9  -5   24.70   23.10 
   4   9  -5   51.79   39.80 
  -4  -9   5    7.70   16.50 
  -4  -9   5    2.50   13.00 
  -4  -9   5    8.60   26.30 
  -4  -9   5  -23.20   26.60 
  -4  -9   5   20.80   27.80 
  -4  -9   5  -13.10   26.40 
   4   8  -6   77.89   25.90 
   4   8  -6   53.19   22.90 
   4   8  -6   55.69   31.70 
   4   8  -6   84.79   38.00 
  -4  -8   6   30.00   28.50 
  -4  -8   6   31.10   20.90 
  -4  -8   6    8.00   27.10 
  -4  -8   6   19.10   26.30 
  -4  -8   6   72.19   30.30 
  -4  -8   6   40.30   29.20 
  -4  -8   6   42.70   35.20 
  -4  -8   6   35.30   12.90 
   4   7  -7  466.45   71.29 
   4   7  -7  573.44   68.09 
   4   7  -7  526.25   54.89 
   4   7  -7  556.14   66.49 
  -4  -7   7  280.87   63.79 
  -4  -7   7  361.66   69.79 
  -4  -7   7  398.56   73.79 
  -4  -7   7  360.56   62.29 
  -4  -7   7  434.76   70.69 
  -4  -7   7  382.46   64.89 
  -4  -7   7  351.66   64.69 
   4   6  -8   98.59   25.40 
   4   6  -8  119.49   27.60 
   4   6  -8   59.69   28.60 
   4   6  -8   93.29   25.70 
   4   6  -8  139.59   39.20 
  -4  -6   8   97.99   27.60 
  -4  -6   8   78.69   25.00 
  -4  -6   8   49.70   30.10 
  -4  -6   8   52.39   20.80 
  -4  -6   8  100.59   36.50 
  -4  -6   8  106.79   26.00 
  -4  -6   8   63.99   16.60 
  -4  -6   8  105.29   31.60 
   4   5  -9  716.73   93.79 
   4   5  -9  690.63   96.19 
   4   5  -9  877.01  104.49 
   4   5  -9  816.72   88.39 
   4   5  -9  727.03   95.59 
   4   5  -9  653.03   90.79 
  -4  -5   9  871.61  101.39 
  -4  -5   9  850.11   99.29 
  -4  -5   9  688.43   97.89 
  -4  -5   9  760.62   94.89 
  -4  -5   9  641.24   99.49 
   4   4 -10  215.98   40.80 
   4   4 -10  163.08   40.90 
   4   4 -10  181.88   25.50 
   4   4 -10  214.68   37.20 
   4   4 -10  155.78   34.00 
   4   4 -10  153.38   35.50 
   4   4 -10  171.28   31.40 
  -4  -4  10  183.38   34.20 
  -4  -4  10  241.98   47.80 
  -4  -4  10  157.98   32.30 
  -4  -4  10  178.48   39.30 
  -4  -4  10  225.88   39.00 
   4   3 -11   44.40   13.20 
   4   3 -11   20.60   17.60 
   4   3 -11    8.60    6.20 
   4   3 -11    3.20    6.00 
   4   3 -11  -14.10   17.20 
   4   3 -11   -1.70   11.90 
   4   3 -11   49.90   20.50 
  -4  -3  11   35.70   19.80 
  -4  -3  11   13.40   16.20 
  -4  -3  11    1.80   20.00 
  -4  -3  11    4.90   15.00 
   4   2 -12  970.70  122.69 
   4   2 -12 1043.80  119.59 
   4   2 -12  932.61  112.99 
   4   2 -12  990.00  113.59 
   4   2 -12 1060.19  122.89 
   4   2 -12  982.00  115.99 
   4   2 -12 1002.10  119.29 
  -4  -2  12 1094.09  129.29 
  -4  -2  12 1006.50  121.59 
  -4  -2  12  898.61  121.79 
  -4  -2  12 1059.19  126.89 
  -4  -2  12  838.62  117.89 
   4   1 -13  107.29   25.00 
   4   1 -13   80.49   22.10 
   4   1 -13   83.39   15.80 
   4   1 -13  100.19   25.90 
   4   1 -13   88.79   18.50 
  -4  -1  13   83.69   25.00 
  -4  -1  13   73.19   28.30 
  -4  -1  13  134.99   28.40 
  -4  -1  13   83.39   30.60 
  -4  -1  13   76.69   26.60 
   4   0 -14  605.14   82.69 
   4   0 -14  631.14   80.99 
   4   0 -14  630.34   77.09 
   4   0 -14  655.23   75.39 
   4   0 -14  626.14   83.29 
  -4   0  14  543.45   84.69 
  -4   0  14  611.94   74.39 
  -4   0  14  588.54   85.29 
  -4   0  14  774.42   92.29 
  -4   0  14  679.33   87.09 
  -4   0  14  757.92   94.09 
   4  -1 -15  146.99   27.40 
   4  -1 -15  232.98   33.00 
   4  -1 -15  121.89   36.70 
   4  -1 -15  209.18   25.60 
  -4   1  15  193.48   46.20 
  -4   1  15  174.58   24.80 
  -4   1  15  102.49   34.10 
  -4   1  15  188.78   42.60 
   4  -2 -16  282.17   40.40 
   4  -2 -16  169.08   29.80 
   4  -2 -16  171.28   30.30 
   4  -2 -16  165.28   38.40 
   4  -2 -16  205.58   27.70 
  -4   2  16  313.07   55.39 
  -4   2  16  252.57   49.70 
  -4   2  16  210.58   51.69 
  -4   2  16  238.78   48.30 
  -4   2  16  183.28   44.30 
   4  -3 -17    7.90   18.50 
   4  -3 -17   28.30   22.70 
   4  -3 -17    4.00   12.30 
  -4   3  17   -7.60   31.80 
  -4   3  17  -10.00   42.60 
  -4   3  17   23.90   34.20 
  -4   3  17    7.70   29.10 
   5  10  -5  181.98   28.70 
   5  10  -5  272.37   48.00 
   5  10  -5  160.78   56.69 
   5  10  -5  227.78   47.90 
  -5 -10   5  156.98   55.19 
  -5 -10   5  222.48   57.49 
  -5 -10   5   77.29   42.50 
  -5 -10   5  145.29   37.90 
   5   9  -6  154.78   36.10 
   5   9  -6  177.98   38.70 
   5   9  -6  136.49   22.90 
   5   9  -6  141.39   46.60 
  -5  -9   6   99.19   39.90 
  -5  -9   6   42.30   33.60 
  -5  -9   6   71.49   33.30 
  -5  -9   6   81.79   42.00 
  -5  -9   6   81.59   42.00 
   5   8  -7  250.67   54.99 
   5   8  -7  195.58   42.70 
   5   8  -7  229.98   30.70 
   5   8  -7  342.37   48.00 
  -5  -8   7  166.78   42.40 
  -5  -8   7  209.28   55.29 
  -5  -8   7   86.09   38.50 
   5   7  -8   20.00   37.30 
   5   7  -8   36.50   11.20 
   5   7  -8   36.60   23.20 
   5   7  -8   40.80   21.70 
   5   7  -8   64.59   32.30 
  -5  -7   8    9.20   22.20 
  -5  -7   8    8.90   29.40 
  -5  -7   8    8.60   26.00 
  -5  -7   8   30.40   35.20 
  -5  -7   8   35.70   25.40 
   5   6  -9  109.29   31.50 
   5   6  -9  161.58   44.90 
   5   6  -9  211.08   43.20 
   5   6  -9  159.28   21.30 
   5   6  -9  139.99   30.10 
  -5  -6   9   79.29   27.30 
  -5  -6   9   84.69   25.30 
  -5  -6   9   55.89   28.30 
  -5  -6   9  130.69   33.10 
  -5  -6   9  117.29   37.80 
  -5  -6   9   88.59   37.20 
   5   5 -10   24.20   17.40 
   5   5 -10  -19.20   19.50 
   5   5 -10   11.60    7.40 
   5   5 -10    4.20    8.00 
   5   5 -10   -1.40   16.60 
   5   5 -10   58.29   28.30 
   5   5 -10   32.80   25.50 
  -5  -5  10   14.20   26.00 
  -5  -5  10   -5.70   18.00 
  -5  -5  10  -22.90   17.40 
  -5  -5  10    1.60   20.80 
  -5  -5  10   30.50   31.60 
  -5  -5  10    8.90   17.60 
   5   4 -11  213.98   41.40 
   5   4 -11  237.28   33.90 
   5   4 -11  287.47   35.30 
   5   4 -11  235.38   39.40 
   5   4 -11  243.18   49.00 
   5   4 -11  320.17   47.20 
   5   4 -11  257.07   49.80 
  -5  -4  11  256.87   45.10 
  -5  -4  11  248.98   44.00 
  -5  -4  11  263.17   55.89 
  -5  -4  11  177.28   42.20 
  -5  -4  11  379.46   51.29 
  -5  -4  11  321.97   58.59 
   5   3 -12  301.17   36.10 
   5   3 -12  208.48   45.40 
   5   3 -12  243.38   34.50 
   5   3 -12  245.38   42.30 
   5   3 -12  223.68   47.70 
   5   3 -12  265.27   40.30 
   5   3 -12  316.17   47.70 
  -5  -3  12  299.07   55.79 
  -5  -3  12  319.37   50.89 
  -5  -3  12  306.67   58.69 
  -5  -3  12  259.97   48.80 
  -5  -3  12  232.38   44.30 
   5   2 -13   -5.60   19.20 
   5   2 -13   23.90   13.90 
   5   2 -13   44.90   18.10 
   5   2 -13   25.00    8.50 
   5   2 -13   28.70   21.10 
   5   2 -13   13.80    7.70 
  -5  -2  13   41.90   22.20 
  -5  -2  13    2.00   21.30 
  -5  -2  13   27.00   27.70 
   5   1 -14    2.60   18.40 
   5   1 -14    8.30    6.80 
   5   1 -14  -17.40   12.20 
   5   1 -14   -3.10   12.50 
  -5  -1  14    1.90   21.60 
  -5  -1  14    0.50   27.50 
  -5  -1  14  -24.90   18.80 
  -5  -1  14   35.80   26.50 
   5   0 -15   16.50   15.10 
   5   0 -15   -0.30   15.00 
   5   0 -15    4.80    6.60 
   5   0 -15    5.10   19.80 
  -5   0  15   16.40   22.70 
  -5   0  15   38.50   30.80 
  -5   0  15  -47.90   24.10 
  -5   0  15  -11.70   24.20 
   5  -1 -16  -26.20   19.50 
   5  -1 -16   35.60   17.90 
   5  -1 -16    2.00   14.70 
   5  -1 -16   13.60    8.70 
  -5   1  16  -14.30   35.10 
  -5   1  16   -9.60   28.70 
  -5   1  16   15.30   33.30 
  -5   1  16   -1.50   47.40 
   6   9  -7   27.40   26.00 
   6   9  -7   27.60   12.70 
   6   9  -7   66.49   41.20 
  -6  -9   7   39.60   29.30 
  -6  -9   7   40.90   40.60 
  -6  -9   7   69.99   50.29 
   6   8  -8  142.19   23.20 
   6   8  -8  102.69   33.50 
   6   8  -8  145.29   34.80 
   6   8  -8  116.09   44.80 
  -6  -8   8  121.99   55.59 
  -6  -8   8   47.90   31.30 
  -6  -8   8  103.69   35.50 
  -6  -8   8   71.39   43.30 
   6   7  -9   29.40   10.60 
   6   7  -9   50.39   32.60 
   6   7  -9   21.90   41.20 
   6   7  -9   71.19   26.30 
   6   7  -9   21.10   12.10 
   6   7  -9   33.70   24.50 
  -6  -7   9   21.70   45.60 
  -6  -7   9   15.20   26.40 
  -6  -7   9    9.00   24.80 
  -6  -7   9   28.20   30.60 
  -6  -7   9   29.50   30.80 
  -6  -7   9   -2.70   36.40 
   6   6 -10  184.58   45.00 
   6   6 -10  136.19   42.60 
   6   6 -10  149.59   24.30 
   6   6 -10  119.99   23.30 
  -6  -6  10   79.29   31.10 
  -6  -6  10   92.39   44.10 
  -6  -6  10  139.19   39.20 
  -6  -6  10  150.98   48.10 
  -6  -6  10  144.69   36.10 
  -6  -6  10  115.19   35.00 
   6   5 -11   44.90   12.70 
   6   5 -11   47.20   32.60 
   6   5 -11   39.30   11.30 
   6   5 -11  -18.40   26.60 
   6   5 -11   12.30   18.50 
  -6  -5  11   14.30   34.60 
  -6  -5  11   35.20   30.00 
  -6  -5  11   32.80   25.70 
  -6  -5  11   34.70   23.20 
  -6  -5  11   15.40   22.50 
  -6  -5  11  -17.30   30.10 
   6   4 -12   16.00   16.40 
   6   4 -12   -2.30   26.10 
   6   4 -12   -5.90    7.00 
   6   4 -12  -34.00   23.00 
   6   4 -12    6.40    7.00 
  -6  -4  12   32.40   22.00 
  -6  -4  12    6.30   22.30 
  -6  -4  12   -1.80   25.30 
  -6  -4  12   28.40   25.70 
  -6  -4  12  -28.50   32.40 
   6   3 -13  -10.30   23.40 
   6   3 -13   16.60   16.50 
   6   3 -13   21.90   18.20 
   6   3 -13    2.00    7.80 
   6   3 -13   16.40    8.30 
   6   3 -13   18.60   27.00 
  -6  -3  13    9.30   35.20 
  -6  -3  13   13.30   31.70 
  -6  -3  13  -11.70   21.20 
  -6  -3  13   11.30   22.50 
  -6  -3  13    9.70   24.90 
   6   2 -14  127.19   28.80 
   6   2 -14  108.49   34.90 
   6   2 -14  128.79   36.10 
   6   2 -14  163.18   23.10 
  -6  -2  14  148.19   43.90 
  -6  -2  14   94.19   34.60 
  -6  -2  14  137.49   47.40 
  -6  -2  14  178.48   36.80 
  -6  -2  14  167.38   38.40 
   6   1 -15    1.40    7.80 
   6   1 -15  -19.90   15.10 
   6   1 -15    7.30   16.80 
  -6  -1  15  -16.50   37.20 
  -6  -1  15   10.00   24.10 
  -6  -1  15   23.30   32.00 
   6   0 -16  234.58   38.60 
   6   0 -16  308.67   41.60 
   6   0 -16  317.27   46.80 
  -6   0  16  313.07   67.29 
  -6   0  16  217.18   53.99 
  -6   0  16  403.96   71.19 
   7   7 -10   27.60   12.00 
   7   7 -10   36.20   23.20 
   7   7 -10   17.70   12.50 
   7   7 -10   23.20   40.40 
  -7  -7  10    6.30   44.80 
  -7  -7  10   35.00   35.70 
  -7  -7  10  -17.90   23.30 
   7   6 -11   14.30    9.80 
   7   6 -11    2.30    9.20 
   7   6 -11    4.20   32.00 
   7   6 -11    0.10   20.90 
  -7  -6  11   19.30   50.09 
  -7  -6  11  -24.90   22.70 
  -7  -6  11   18.90   38.20 
  -7  -6  11  -39.60   45.80 
  -7  -6  11   14.10   32.20 
   7   5 -12    6.30    9.60 
   7   5 -12  -26.10   33.70 
   7   5 -12   -4.60    7.60 
  -7  -5  12  -32.60   40.40 
  -7  -5  12   54.39   37.60 
  -7  -5  12   -8.40   43.90 
  -7  -5  12   33.10   30.70 
   7   4 -13   84.29   34.30 
   7   4 -13   78.49   18.90 
   7   4 -13  108.89   20.40 
  -7  -4  13   42.30   50.49 
  -7  -4  13   -9.20   40.70 
  -7  -4  13  118.19   35.30 
  -7  -4  13  101.29   36.80 
   7   3 -14  149.99   38.60 
   7   3 -14   93.99   28.90 
   7   3 -14   90.69   23.00 
   7   3 -14  118.89   32.20 
  -7  -3  14  164.38   58.49 
  -7  -3  14  185.78   53.49 
  -7  -3  14  206.88   50.79 
  -7  -3  14  145.49   37.20 
   7   2 -15   16.70   29.30 
   7   2 -15   94.69   23.50 
  -7  -2  15   58.59   29.40 
  -7  -2  15   67.69   49.30 
  -7  -2  15   98.59   48.30 
 -11   4   3  324.07   62.99 
 -11   4   3  268.57   44.90 
 -11   3   2  139.09   25.60 
 -11   3   2  108.89   35.70 
 -11   3   2  165.28   29.40 
 -11   3   2  174.88   43.10 
 -11   3   2  138.19   25.90 
 -11   2   1  473.05   66.19 
 -11   2   1  437.66   52.99 
 -11   2   1  386.26   66.39 
 -11   2   1  338.27   43.00 
 -11   2   1  273.97   42.00 
 -11   1   0  196.18   34.70 
 -11   1   0  123.89   20.50 
 -11   1   0  193.28   47.60 
  11  -1   0  135.89   25.10 
 -11   0  -1  -25.00   24.70 
 -11   0  -1   -4.50    9.90 
 -11   0  -1  -35.80   25.60 
 -11   0  -1   16.60   20.60 
  11   0   1   -1.10    6.90 
  11   0   1   -8.60   13.50 
 -11  -1  -2  -18.70   26.30 
 -11  -1  -2    8.90   17.40 
 -11  -1  -2   46.80   30.00 
 -11  -1  -2    2.80   12.00 
 -11  -1  -2  -11.40   21.30 
  11   1   2    2.90   11.80 
  11   1   2   -1.20   14.60 
  11   1   2    2.90    8.30 
 -11  -2  -3 1145.59  134.59 
 -11  -2  -3  929.41  120.79 
 -11  -2  -3  987.40  122.49 
 -11  -2  -3 1003.80  125.59 
  11   2   3 1214.98  131.19 
 -11  -3  -4  453.75   66.19 
 -11  -3  -4  458.05   60.59 
 -11  -3  -4  440.46   64.19 
 -11  -3  -4  415.86   54.89 
  11   3   4  343.27   46.00 
  11   3   4  279.77   44.60 
 -10   6   4   14.20   13.70 
 -10   6   4   16.40   33.30 
 -10   6   4   27.90   12.80 
  10  -6  -4   13.80    9.60 
 -10   5   3   99.69   24.80 
 -10   5   3  160.18   32.30 
 -10   5   3   50.09   21.70 
 -10   5   3  193.18   42.40 
  10  -5  -3  133.89   19.30 
  10  -5  -3   88.99   17.00 
 -10   4   2   -8.80   23.00 
 -10   4   2   12.40   17.10 
 -10   4   2    7.00   13.90 
 -10   4   2    8.60   18.00 
 -10   4   2   -4.20   13.30 
 -10   4   2    1.70   17.40 
  10  -4  -2   15.80    8.70 
 -10   3   1    9.60   14.30 
 -10   3   1    7.30   22.80 
 -10   3   1   10.00   10.80 
 -10   3   1  -12.70   11.40 
 -10   3   1    2.20   20.70 
  10  -3  -1    5.70    6.40 
 -10   2   0 1115.19  124.09 
 -10   2   0 1236.88  130.99 
 -10   2   0 1000.10  123.89 
  10  -2   0 1093.19  126.69 
 -10   1  -1  481.05   58.59 
  10  -1   1  393.76   52.09 
 -10   0  -2  488.35   53.09 
 -10   0  -2  422.66   62.49 
  10   0   2  446.66   57.09 
  10   0   2  415.96   58.19 
 -10  -1  -3  241.08   34.20 
 -10  -1  -3  227.48   39.10 
 -10  -1  -3  222.08   28.60 
 -10  -1  -3  354.66   48.20 
  10   1   3  139.39   26.90 
  10   1   3  171.28   26.60 
 -10  -2  -4 1089.99  117.59 
 -10  -2  -4  846.72  112.69 
 -10  -2  -4  879.21  118.19 
 -10  -2  -4 1159.38  125.39 
 -10  -3  -5    7.00   19.50 
 -10  -3  -5  -18.40   24.00 
 -10  -3  -5    7.50   14.30 
 -10  -3  -5   10.90   18.30 
  10   3   5    8.50   12.40 
  10   3   5   -2.50    7.40 
  10   3   5    6.20    9.40 
  10   3   5  -11.40    5.60 
 -10  -4  -6  120.49   21.00 
 -10  -4  -6  120.79   33.20 
 -10  -4  -6  191.08   40.50 
 -10  -4  -6  216.68   45.00 
 -10  -4  -6  154.08   29.20 
  10   4   6  105.99   23.70 
  10   4   6  125.79   21.70 
  10   4   6  149.99   22.10 
  10   4   6  136.29   22.70 
  -9   7   4  246.98   41.30 
  -9   7   4  281.57   58.59 
  -9   7   4  272.37   41.70 
  -9   7   4  159.18   37.80 
  -9   7   4  290.57   46.60 
   9  -7  -4  288.07   41.00 
  -9   6   3   69.99   29.90 
  -9   6   3   29.10   14.30 
  -9   6   3   28.80   29.90 
  -9   6   3   25.90   12.90 
  -9   6   3   29.10   18.00 
  -9   6   3   48.30   20.90 
  -9   6   3   51.39   16.10 
   9  -6  -3   46.10   15.70 
   9  -6  -3   50.79   11.50 
  -9   5   2  153.28   29.70 
  -9   5   2  241.38   27.70 
  -9   5   2  156.78   31.40 
  -9   5   2  201.98   31.60 
  -9   5   2  214.38   38.90 
  -9   5   2  217.38   35.40 
  -9   5   2  278.07   29.10 
  -9   5   2  256.17   30.20 
   9  -5  -2  241.08   29.20 
   9  -5  -2  209.08   30.10 
   9  -5  -2  150.58   27.30 
  -9   4   1    7.50   11.30 
  -9   4   1   17.10   23.40 
  -9   4   1  -22.20   13.10 
  -9   4   1   33.70   15.90 
   9  -4  -1   13.30    7.00 
  -9   3   0  390.56   52.69 
  -9   3   0  429.76   56.29 
  -9   3   0  394.96   61.49 
  -9   3   0  484.25   68.29 
  -9   3   0  528.15   55.79 
   9  -3   0  435.36   53.49 
  -9   2  -1   -0.40    4.00 
  -9   2  -1    7.80   11.70 
  -9   2  -1    4.10    6.40 
  -9   2  -1    4.30   20.00 
  -9   2  -1   18.10   21.80 
   9  -2   1   10.60    6.70 
  -9   1  -2  390.46   53.39 
   9  -1   2  400.86   48.80 
   9  -1   2  386.86   48.00 
  -9   0  -3   -3.10   21.10 
  -9   0  -3  -25.60   12.40 
  -9   0  -3    9.90    7.90 
  -9   0  -3   13.30    4.80 
  -9   0  -3   -4.20   14.20 
   9   0   3   -1.40    5.60 
   9   0   3   -0.80    5.60 
   9   0   3   42.10   16.00 
   9   0   3    0.80    4.90 
  -9  -1  -4  932.51   99.19 
  -9  -1  -4  743.63   88.69 
  -9  -1  -4  852.21   96.29 
   9   1   4  760.72   89.49 
   9   1   4  669.13   89.29 
  -9  -2  -5   39.90   20.80 
  -9  -2  -5   37.70   11.80 
  -9  -2  -5   21.30   16.90 
  -9  -2  -5   27.50    8.40 
  -9  -2  -5   31.70   15.70 
  -9  -2  -5   27.50   11.00 
   9   2   5   17.60    7.50 
   9   2   5   26.80    7.60 
   9   2   5   16.20    7.00 
   9   2   5   23.10    7.20 
   9   2   5   38.00   13.70 
   9   2   5   25.10    8.30 
  -9  -3  -6  606.94   66.29 
  -9  -3  -6  600.34   65.39 
  -9  -3  -6  527.65   68.99 
  -9  -3  -6  681.83   81.19 
  -9  -3  -6  574.74   77.49 
   9   3   6  589.44   67.49 
   9   3   6  502.65   65.39 
   9   3   6  609.74   67.69 
   9   3   6  514.95   65.59 
   9   3   6  526.95   66.29 
   9   3   6  465.95   66.29 
  -9  -4  -7    3.60   16.70 
  -9  -4  -7   -8.40   14.90 
  -9  -4  -7   69.69   33.10 
  -9  -4  -7  -13.20   11.50 
   9   4   7    5.60    6.20 
   9   4   7   21.50   12.70 
   9   4   7   -6.30    6.70 
   9   4   7   18.20   14.00 
   9   4   7   -1.10   10.50 
  -9  -5  -8  166.48   32.20 
  -9  -5  -8  195.98   37.60 
  -9  -5  -8  231.28   34.80 
   9   5   8  134.39   32.10 
   9   5   8  182.18   26.30 
   9   5   8  189.48   27.10 
   9   5   8  239.88   33.20 
  -8   8   4  142.09   29.60 
  -8   8   4  167.48   40.50 
  -8   8   4  132.19   46.00 
  -8   8   4  122.29   32.00 
  -8   8   4  128.69   33.00 
   8  -8  -4  149.09   30.20 
  -8   7   3  150.78   28.90 
  -8   7   3  140.09   24.50 
  -8   7   3  196.68   30.60 
  -8   7   3  304.17   53.69 
  -8   7   3  135.89   30.60 
  -8   7   3  165.28   22.60 
   8  -7  -3  212.48   31.80 
  -8   6   2  240.68   33.40 
  -8   6   2  244.58   38.70 
  -8   6   2  214.48   42.60 
  -8   6   2  175.88   33.00 
  -8   6   2  158.88   31.70 
  -8   6   2  224.28   29.60 
   8  -6  -2  241.38   28.90 
   8  -6  -2  217.38   32.70 
  -8   5   1  458.45   47.20 
  -8   5   1  347.57   54.59 
  -8   5   1  374.76   49.80 
  -8   5   1  370.86   46.20 
  -8   5   1  319.47   46.90 
  -8   5   1  297.87   43.90 
  -8   5   1  365.96   44.30 
  -8   5   1  323.07   46.20 
  -8   5   1  494.45   64.29 
   8  -5  -1  403.96   45.00 
   8  -5  -1  352.46   46.70 
  -8   4   0  693.53   80.29 
  -8   4   0  664.73   79.89 
  -8   4   0  654.63   75.79 
  -8   4   0  715.93   76.69 
  -8   4   0  564.84   79.59 
   8  -4   0  653.53   76.59 
   8  -4   0  735.73   78.79 
  -8   3  -1   23.90   16.60 
  -8   3  -1   -3.40    8.40 
  -8   3  -1    1.60   17.00 
  -8   3  -1   27.40   10.60 
  -8   3  -1   26.20    7.90 
  -8   2  -2    1.90    9.30 
  -8   2  -2  -16.20   18.60 
  -8   2  -2    8.90    3.90 
  -8   2  -2   19.10   17.90 
  -8   2  -2    9.00    5.00 
   8  -2   2   18.70   12.00 
   8  -2   2   11.40    5.80 
  -8   1  -3 1650.73  216.98 
  -8   1  -3 2163.98  211.58 
   8  -1   3 1806.62  214.08 
   8  -1   3 1875.91  215.08 
  -8   0  -4  125.89   25.50 
  -8   0  -4  106.89   16.30 
  -8   0  -4  132.89   18.80 
  -8   0  -4  111.59   22.60 
   8   0   4  110.99   17.90 
   8   0   4  112.59   17.00 
  -8  -1  -5  724.23   74.29 
  -8  -1  -5  588.14   70.69 
  -8  -1  -5  594.94   70.69 
  -8  -1  -5  568.14   76.19 
   8   1   5  632.84   68.79 
   8   1   5  591.44   70.49 
   8   1   5  581.84   68.59 
   8   1   5  580.14   70.79 
   8   1   5  561.74   71.49 
  -8  -2  -6   51.59   11.90 
  -8  -2  -6   50.09   10.80 
  -8  -2  -6   45.40   13.20 
  -8  -2  -6   62.59   19.90 
  -8  -2  -6   24.20   16.60 
   8   2   6   43.80    9.90 
   8   2   6   57.99   12.40 
   8   2   6   66.59   15.70 
   8   2   6   43.60   12.70 
   8   2   6   58.09   12.50 
   8   2   6   47.20   10.80 
   8   2   6   54.69   12.00 
  -8  -3  -7   26.80   10.20 
  -8  -3  -7   24.70   10.90 
  -8  -3  -7   23.00   22.20 
  -8  -3  -7   17.50   14.70 
  -8  -3  -7   -1.20   11.60 
   8   3   7   -4.80   11.10 
   8   3   7   17.10    9.80 
   8   3   7   10.70    6.30 
   8   3   7   18.80   11.50 
   8   3   7   29.50    7.50 
   8   3   7    8.30   12.00 
   8   3   7   -1.40    9.50 
  -8  -4  -8  485.15   60.09 
  -8  -4  -8  464.25   66.29 
  -8  -4  -8  689.03   79.99 
  -8  -4  -8  483.75   61.39 
  -8  -4  -8  487.65   63.19 
   8   4   8  419.86   55.89 
   8   4   8  472.75   60.29 
   8   4   8  501.75   62.39 
   8   4   8  422.16   60.89 
   8   4   8  483.95   57.09 
  -8  -5  -9  651.23   76.59 
  -8  -5  -9  601.74   78.59 
  -8  -5  -9  600.14   76.09 
  -8  -5  -9  606.34   80.59 
   8   5   9  564.44   75.19 
   8   5   9  533.35   75.59 
  -8  -6 -10  206.68   38.60 
  -8  -6 -10  133.99   34.80 
  -8  -6 -10  160.68   39.00 
   8   6  10  186.58   25.30 
   8   6  10  205.28   31.50 
   8   6  10  198.38   26.40 
   8   6  10  131.09   35.20 
   8   6  10  163.48   33.30 
  -7   9   4  246.78   46.60 
  -7   9   4  248.88   57.59 
  -7   9   4  193.38   49.80 
  -7   9   4  264.87   51.19 
  -7   9   4  247.78   43.00 
   7  -9  -4  316.77   48.30 
   7  -9  -4  303.17   35.40 
   7  -9  -4  285.67   51.19 
  -7   8   3  180.78   47.30 
  -7   8   3  113.09   31.80 
  -7   8   3  196.58   34.60 
  -7   8   3  120.09   30.00 
  -7   8   3  172.08   25.90 
  -7   8   3  171.48   37.30 
   7  -8  -3  215.68   34.50 
   7  -8  -3  228.48   25.40 
   7  -8  -3  195.68   36.40 
  -7   7   2    4.00   12.80 
  -7   7   2   10.10   16.10 
  -7   7   2    1.70    7.40 
  -7   7   2    1.70   26.60 
  -7   7   2    9.40   15.20 
  -7   7   2   -2.00   23.20 
  -7   7   2   -8.20   15.10 
   7  -7  -2   20.70    6.50 
   7  -7  -2   25.80   16.10 
   7  -7  -2   -3.50   13.30 
  -7   6   1    8.30   12.70 
  -7   6   1    1.70   10.20 
  -7   6   1  -20.10   17.50 
  -7   6   1    0.90    7.30 
  -7   6   1   23.40   18.00 
  -7   6   1  -14.70   21.90 
  -7   6   1   26.50   13.90 
  -7   6   1    9.70   10.80 
   7  -6  -1    0.60    4.50 
   7  -6  -1   -5.10   11.10 
   7  -6  -1   29.90   13.60 
   7  -6  -1   10.90   11.90 
  -7   5   0   62.69   24.80 
  -7   5   0  108.99   20.40 
  -7   5   0   87.19   12.10 
  -7   5   0  100.49   18.40 
  -7   5   0  145.99   33.60 
  -7   5   0  111.19   21.70 
  -7   5   0   80.79   21.40 
  -7   5   0   91.59   16.30 
  -7   5   0   83.99   17.70 
   7  -5   0  107.49   14.60 
   7  -5   0  111.19   17.60 
   7  -5   0   76.69   17.30 
  -7   4  -1  801.52   86.89 
  -7   4  -1  503.95   67.29 
  -7   4  -1  561.94   66.09 
  -7   4  -1  613.14   68.39 
  -7   4  -1  659.63   70.69 
  -7   4  -1  561.44   73.19 
  -7   4  -1  552.24   72.09 
   7  -4   1  609.64   67.89 
   7  -4   1  505.45   66.39 
   7  -4   1  589.64   67.99 
   7  -4   1  561.94   66.39 
  -7   3  -2  501.55   56.49 
  -7   3  -2  464.65   56.79 
  -7   3  -2  374.86   52.49 
  -7   3  -2  431.26   51.29 
   7  -3   2  359.46   47.40 
   7  -3   2  504.45   51.19 
  -7   2  -3  760.62   88.59 
  -7   2  -3  721.93   86.89 
  -7   2  -3  757.92   88.99 
  -7   2  -3  840.52   91.79 
  -7   1  -4  239.68   33.40 
  -7   1  -4  343.97   43.00 
  -7   1  -4  291.77   38.30 
  -7   1  -4  263.27   32.90 
  -7   1  -4  230.88   36.70 
  -7   1  -4  264.67   34.00 
   7  -1   4  302.57   34.60 
  -7   0  -5    5.50    5.80 
  -7   0  -5   -2.80   19.10 
  -7   0  -5   -0.60    2.90 
  -7   0  -5    0.30    7.10 
  -7   0  -5    1.70    5.40 
  -7   0  -5    7.90    8.80 
   7   0   5   -0.10    3.40 
   7   0   5   12.20    4.90 
   7   0   5    4.40    4.50 
   7   0   5    5.80    5.00 
   7   0   5   -2.00    5.60 
   7   0   5   11.50    4.80 
   7   0   5    7.10    4.60 
  -7  -1  -6  420.06   46.90 
  -7  -1  -6  401.56   52.69 
  -7  -1  -6  362.56   47.10 
  -7  -1  -6  397.96   53.09 
  -7  -1  -6  393.06   46.90 
  -7  -1  -6  384.06   48.30 
   7   1   6  322.07   50.99 
   7   1   6  379.66   47.20 
   7   1   6  381.86   48.20 
   7   1   6  463.45   52.19 
   7   1   6  404.16   47.50 
   7   1   6  389.96   47.10 
   7   1   6  383.86   46.70 
  -7  -2  -7  600.74   64.19 
  -7  -2  -7  475.95   57.09 
  -7  -2  -7  455.95   60.59 
  -7  -2  -7  420.26   57.09 
  -7  -2  -7  478.95   55.89 
   7   2   7  480.95   56.79 
   7   2   7  527.65   55.29 
   7   2   7  507.65   60.49 
   7   2   7  433.86   55.89 
   7   2   7  499.85   54.99 
   7   2   7  383.16   55.59 
   7   2   7  400.66   56.29 
   7   2   7  387.76   57.79 
  -7  -3  -8 1019.90  119.79 
  -7  -3  -8 1063.59  122.19 
  -7  -3  -8  929.01  115.79 
  -7  -3  -8  973.90  115.09 
  -7  -3  -8 1029.00  114.49 
   7   3   8  879.01  113.89 
   7   3   8  942.81  114.89 
   7   3   8 1047.90  117.89 
   7   3   8  814.62  113.89 
   7   3   8 1024.50  111.79 
   7   3   8 1049.49  112.19 
  -7  -4  -9  235.38   44.50 
  -7  -4  -9  241.48   34.00 
  -7  -4  -9  187.88   33.00 
  -7  -4  -9  226.68   33.50 
   7   4   9  208.78   32.20 
   7   4   9  169.48   31.50 
   7   4   9  189.18   32.70 
   7   4   9  203.28   27.30 
   7   4   9  226.48   26.70 
   7   4   9  178.48   32.60 
  -7  -5 -10   34.20   16.80 
  -7  -5 -10    9.00   17.20 
  -7  -5 -10   22.80   19.20 
  -7  -5 -10   22.80   15.00 
   7   5  10   24.40    9.40 
   7   5  10   11.60   17.60 
   7   5  10   13.00    7.40 
   7   5  10   24.30   10.60 
   7   5  10   11.80   10.40 
   7   5  10   20.20   15.50 
  -7  -6 -11    1.40   17.10 
  -7  -6 -11    2.10   19.60 
  -7  -6 -11    3.20   17.80 
  -7  -6 -11  -15.10   25.90 
   7   6  11    0.80    6.00 
   7   6  11   13.10   19.50 
   7   6  11    8.40   10.10 
   7   6  11  -22.00   17.40 
  -6  10   4   20.50   20.40 
  -6  10   4  -25.00   31.80 
  -6  10   4   29.20   32.90 
   6 -10  -4   -0.80   16.60 
   6 -10  -4   29.40   23.80 
   6 -10  -4  -22.30   33.40 
   6 -10  -4   -0.50    7.40 
  -6   9   3   45.60   20.30 
  -6   9   3   21.00   20.80 
  -6   9   3   48.60    9.60 
  -6   9   3   11.90   28.60 
  -6   9   3  -24.90   27.60 
  -6   9   3   24.00   25.10 
  -6   9   3   21.80   29.30 
   6  -9  -3   47.40   23.10 
   6  -9  -3   78.39   30.60 
   6  -9  -3   31.10   14.60 
   6  -9  -3   47.80   16.20 
   6  -9  -3   38.90   10.00 
  -6   8   2  164.98   35.50 
  -6   8   2  187.98   38.10 
  -6   8   2  173.58   45.00 
  -6   8   2  208.98   39.70 
  -6   8   2  173.48   26.20 
  -6   8   2  236.68   44.10 
  -6   8   2  147.49   31.90 
   6  -8  -2  254.77   27.70 
   6  -8  -2  204.48   39.90 
   6  -8  -2  204.28   27.80 
   6  -8  -2  227.08   28.10 
  -6   7   1    7.00   15.10 
  -6   7   1    3.20   14.60 
  -6   7   1   -4.10   23.70 
  -6   7   1    9.70   20.50 
  -6   7   1  -11.40   12.40 
  -6   7   1   31.40   19.50 
  -6   7   1   22.20   14.00 
  -6   7   1   -4.80    5.50 
   6  -7  -1    6.60    5.00 
   6  -7  -1    7.70   16.10 
   6  -7  -1    7.40   12.40 
  -6   6   0 3869.61  421.26 
  -6   6   0 3600.74  417.96 
  -6   6   0 3739.63  420.16 
  -6   6   0 3423.86  421.56 
  -6   6   0 3784.42  421.26 
  -6   6   0 3939.51  423.36 
   6  -6   0 3760.72  420.76 
   6  -6   0 3746.23  421.16 
  -6   5  -1   26.60   11.30 
  -6   5  -1   -3.80   16.60 
  -6   5  -1   14.90   13.70 
  -6   5  -1    3.50    8.50 
  -6   5  -1   13.70    7.90 
  -6   5  -1   27.10   12.80 
  -6   5  -1   -7.80   15.50 
  -6   5  -1    1.10   12.50 
   6  -5   1   20.80   12.10 
   6  -5   1   18.20    7.20 
   6  -5   1    6.30   10.70 
   6  -5   1   23.10   10.90 
  -6   4  -2  998.90  105.69 
  -6   4  -2  840.52  101.39 
  -6   4  -2  998.30  102.89 
  -6   4  -2  873.81  103.29 
  -6   4  -2  869.01  103.69 
  -6   4  -2 1138.19  118.79 
  -6   4  -2  787.12   98.99 
  -6   4  -2  801.02  101.19 
  -6   4  -2  788.62   99.19 
   6  -4   2 1014.60  102.59 
   6  -4   2  900.81  104.59 
   6  -4   2  895.31  101.39 
   6  -4   2  838.52  102.09 
  -6   3  -3   39.40    8.50 
  -6   3  -3   35.90   11.60 
  -6   3  -3   44.30    9.50 
  -6   3  -3   81.09   26.80 
  -6   3  -3   33.30    9.70 
  -6   3  -3   23.30   11.80 
  -6   3  -3   81.79   15.00 
  -6   3  -3   55.59   13.60 
  -6   3  -3   44.30    9.10 
   6  -3   3   76.59   10.80 
   6  -3   3   30.90    7.90 
   6  -3   3   83.39   15.30 
   6  -3   3   46.90    9.80 
   6  -3   3   34.10    8.50 
  -6   2  -4  440.66   52.59 
  -6   2  -4  457.35   54.19 
  -6   2  -4  463.95   52.59 
  -6   2  -4  394.96   53.89 
   6  -2   4  502.45   54.59 
   6  -2   4  485.85   53.29 
   6  -2   4  379.86   52.09 
   6  -2   4  547.55   53.39 
   6  -2   4  487.55   60.39 
  -6   1  -5    9.20   19.80 
  -6   1  -5   15.90    8.60 
  -6   1  -5    5.50    8.20 
  -6   1  -5   24.90    6.40 
  -6   1  -5   16.10    5.80 
  -6   1  -5   11.80    6.80 
  -6   1  -5   10.30    4.70 
  -6   1  -5    5.60    4.40 
   6  -1   5   14.10    5.10 
   6  -1   5   15.60    4.70 
   6  -1   5    6.00    6.20 
   6  -1   5    9.90    4.20 
   6  -1   5   19.00    6.80 
   6  -1   5   -5.10    9.50 
   6  -1   5   19.10    7.80 
   6  -1   5   17.60    5.20 
  -6   0  -6 1445.66  184.08 
  -6   0  -6 1564.34  182.58 
  -6   0  -6 1494.45  182.18 
  -6   0  -6 1872.71  184.98 
  -6   0  -6 1398.26  184.18 
  -6   0  -6 1613.84  183.08 
  -6   0  -6 1566.24  187.18 
   6   0   6 1785.02  183.58 
   6   0   6 1463.85  184.98 
   6   0   6 1584.34  182.98 
   6   0   6 1723.83  184.08 
   6   0   6 1695.53  182.98 
   6   0   6 1735.23  187.18 
   6   0   6 1769.42  182.58 
  -6  -1  -7   51.09   15.20 
  -6  -1  -7   35.20   14.50 
  -6  -1  -7   53.19    9.60 
  -6  -1  -7   89.99   14.80 
  -6  -1  -7   43.00   10.70 
  -6  -1  -7   45.30   14.60 
  -6  -1  -7   49.60   11.60 
  -6  -1  -7   52.79   20.80 
   6   1   7   47.60   11.30 
   6   1   7   69.19   15.30 
   6   1   7   66.09   12.40 
   6   1   7   62.69   12.00 
   6   1   7   34.40   11.10 
   6   1   7   45.70   11.60 
   6   1   7   44.20   11.20 
   6   1   7   51.69    9.00 
  -6  -2  -8  259.77   49.60 
  -6  -2  -8  259.47   41.40 
  -6  -2  -8  275.27   40.00 
  -6  -2  -8  266.87   35.60 
  -6  -2  -8  280.37   37.00 
  -6  -2  -8  309.57   36.60 
   6   2   8  264.17   39.00 
   6   2   8  220.38   35.10 
   6   2   8  274.87   32.60 
   6   2   8  229.98   33.90 
   6   2   8  270.27   37.80 
   6   2   8  270.37   36.10 
   6   2   8  288.77   33.20 
   6   2   8  268.97   36.50 
  -6  -3  -9    3.80   12.10 
  -6  -3  -9   21.70   10.60 
  -6  -3  -9   22.60   19.80 
  -6  -3  -9   13.10   10.90 
  -6  -3  -9   18.90   10.20 
   6   3   9    5.30   10.30 
   6   3   9    2.20    7.10 
   6   3   9    1.90    8.80 
   6   3   9   19.20    5.20 
   6   3   9   10.30   11.20 
   6   3   9    0.20    6.00 
   6   3   9   10.90    6.60 
  -6  -4 -10  165.48   31.80 
  -6  -4 -10  192.98   32.00 
  -6  -4 -10  169.88   33.90 
  -6  -4 -10  169.48   30.90 
   6   4  10  230.08   25.10 
   6   4  10  177.68   32.00 
   6   4  10  185.58   32.30 
   6   4  10  173.98   31.20 
   6   4  10  152.18   28.50 
   6   4  10  188.98   35.50 
  -6  -5 -11   52.09   20.80 
  -6  -5 -11   22.00   19.30 
  -6  -5 -11   31.90   17.40 
  -6  -5 -11   14.60   17.40 
   6   5  11   34.00   17.90 
   6   5  11   60.09   22.60 
   6   5  11   35.70   17.60 
   6   5  11   27.60   15.90 
   6   5  11   31.50   12.60 
   6   5  11   30.00   20.50 
   6   5  11   39.30    9.00 
  -6  -6 -12  971.50  119.89 
  -6  -6 -12  858.11  119.49 
  -6  -6 -12  916.51  119.19 
   6   6  12 1132.79  118.19 
   6   6  12  849.61  119.69 
   6   6  12 1076.09  111.59 
   6   6  12  793.02  116.99 
  -5  10   3  131.39   30.10 
  -5  10   3   97.29   35.70 
  -5  10   3  105.29   38.80 
  -5  10   3  128.79   47.20 
  -5  10   3   65.49   27.60 
  -5  10   3   71.69   39.80 
   5 -10  -3  126.99   32.60 
   5 -10  -3  105.89   18.20 
   5 -10  -3   83.29   30.70 
   5 -10  -3  151.38   28.80 
  -5   9   2  172.58   39.40 
  -5   9   2  142.09   34.30 
  -5   9   2  138.89   32.40 
  -5   9   2  166.78   20.60 
  -5   9   2  180.18   44.60 
  -5   9   2  171.48   40.90 
  -5   9   2  133.09   38.80 
   5  -9  -2  217.28   25.10 
   5  -9  -2  248.38   38.00 
   5  -9  -2  224.38   32.10 
   5  -9  -2  219.18   42.90 
   5  -9  -2  122.59   31.30 
  -5   8   1  300.17   36.60 
  -5   8   1  263.37   47.50 
  -5   8   1  214.18   45.00 
  -5   8   1  277.37   45.70 
  -5   8   1  259.47   49.60 
  -5   8   1  244.18   54.49 
   5  -8  -1  358.96   44.50 
   5  -8  -1  401.06   49.50 
   5  -8  -1  331.07   43.00 
   5  -8  -1  372.86   55.89 
   5  -8  -1  359.16   39.20 
  -5   7   0   87.19   22.50 
  -5   7   0  104.29   30.90 
  -5   7   0  133.09   24.90 
  -5   7   0   77.09   13.30 
  -5   7   0   50.29   18.40 
  -5   7   0   96.29   24.10 
  -5   7   0  112.69   25.50 
   5  -7   0  111.79   26.40 
   5  -7   0  107.39   23.90 
   5  -7   0   93.99   14.40 
   5  -7   0  102.89   17.60 
   5  -7   0  111.29   18.10 
  -5   6  -1   19.80   19.00 
  -5   6  -1   30.90   12.70 
  -5   6  -1   21.70   12.60 
  -5   6  -1   29.90   15.80 
  -5   6  -1   -3.70   20.00 
  -5   6  -1   -5.20   13.80 
   5  -6   1   14.80    6.00 
   5  -6   1   14.60   18.80 
   5  -6   1    9.40   11.00 
   5  -6   1   14.80    6.20 
  -5   5  -2   10.40   10.50 
  -5   5  -2   10.80    5.00 
  -5   5  -2    6.10   11.70 
  -5   5  -2   10.20    5.30 
  -5   5  -2    0.30   14.80 
  -5   5  -2  -12.70   15.50 
  -5   5  -2   11.40   12.40 
  -5   5  -2   11.70   12.20 
   5  -5   2   12.00   11.40 
   5  -5   2    4.80   10.40 
   5  -5   2    6.70   17.00 
   5  -5   2   19.20    5.80 
   5  -5   2  -10.70   12.90 
  -5   4  -3 1986.80  223.18 
  -5   4  -3 2207.58  222.98 
  -5   4  -3 1797.62  219.48 
   5  -4   3 1910.41  225.38 
   5  -4   3 1789.62  227.78 
   5  -4   3 2014.20  222.18 
   5  -4   3 1885.01  222.18 
   5  -4   3 2036.30  220.28 
  -5   3  -4 1854.21  223.38 
  -5   3  -4 2285.67  223.68 
  -5   3  -4 1850.21  222.08 
  -5   3  -4 1639.84  223.78 
  -5   3  -4 1730.23  221.48 
  -5   3  -4 1851.11  221.58 
   5  -3   4 2171.18  223.68 
   5  -3   4 2307.67  226.58 
   5  -3   4 1916.81  229.18 
   5  -3   4 2113.89  223.38 
   5  -3   4 2084.69  222.58 
  -5   2  -5 1165.38  121.19 
  -5   2  -5 1033.70  119.99 
  -5   2  -5  999.50  117.99 
  -5   2  -5 1093.29  118.59 
  -5   2  -5  922.61  119.19 
  -5   2  -5  930.71  117.59 
  -5   2  -5  952.80  118.29 
   5  -2   5 1131.09  120.99 
   5  -2   5 1037.00  118.69 
   5  -2   5 1153.48  119.69 
   5  -2   5 1079.59  119.59 
  -5   1  -6   23.20    9.70 
  -5   1  -6   32.40   11.70 
  -5   1  -6   22.40    6.20 
  -5   1  -6   20.60   18.90 
  -5   1  -6   21.30    5.90 
  -5   1  -6   18.60    7.20 
  -5   1  -6   22.80    8.10 
  -5   1  -6   25.90    6.00 
  -5   1  -6   13.60    7.80 
   5  -1   6   30.90    8.80 
   5  -1   6   14.90    7.70 
   5  -1   6   28.20   13.30 
   5  -1   6   20.10    4.80 
   5  -1   6   25.40    6.50 
   5  -1   6   17.50    6.40 
  -5   0  -7    7.40   11.50 
  -5   0  -7   10.90    7.20 
  -5   0  -7   -1.40   10.70 
  -5   0  -7    0.50    3.20 
  -5   0  -7    0.90    5.00 
  -5   0  -7    0.10    6.90 
  -5   0  -7    1.80    4.30 
  -5   0  -7    1.70    6.00 
   5   0   7    4.20    2.50 
   5   0   7    4.00    9.70 
   5   0   7   -1.30    6.00 
   5   0   7    2.20    3.40 
   5   0   7    4.30    5.60 
   5   0   7   -0.20    6.40 
   5   0   7    1.30    5.80 
   5   0   7   -8.00    3.30 
  -5  -1  -8  154.38   28.80 
  -5  -1  -8  179.98   24.60 
  -5  -1  -8  181.58   33.10 
  -5  -1  -8  163.18   25.70 
  -5  -1  -8  170.78   24.40 
  -5  -1  -8  126.29   22.30 
  -5  -1  -8  129.69   27.10 
  -5  -1  -8  191.98   27.90 
   5   1   8  226.28   27.10 
   5   1   8  160.18   25.40 
   5   1   8  194.28   20.90 
   5   1   8  184.08   21.90 
   5   1   8  179.68   25.40 
   5   1   8  157.38   21.30 
   5   1   8  142.79   25.50 
   5   1   8  150.68   22.30 
   5   1   8  135.99   23.40 
  -5  -2  -9 1523.55  198.48 
  -5  -2  -9 1665.43  203.18 
  -5  -2  -9 1677.03  195.58 
  -5  -2  -9 1761.42  197.08 
  -5  -2  -9 1966.10  196.48 
  -5  -2  -9 1688.03  198.38 
   5   2   9 1914.61  198.28 
   5   2   9 1694.33  195.88 
   5   2   9 1853.91  192.18 
   5   2   9 1468.35  193.68 
   5   2   9 1684.43  194.48 
   5   2   9 1760.62  194.08 
   5   2   9 1655.63  196.08 
   5   2   9 1554.54  195.38 
   5   2   9 1772.42  194.98 
  -5  -3 -10  268.97   37.90 
  -5  -3 -10  275.47   47.90 
  -5  -3 -10  321.77   42.20 
  -5  -3 -10  278.87   38.00 
  -5  -3 -10  268.17   39.60 
   5   3  10  221.88   37.00 
   5   3  10  247.38   38.20 
   5   3  10  243.98   37.50 
   5   3  10  244.78   35.40 
   5   3  10  251.17   37.20 
   5   3  10  241.68   36.80 
   5   3  10  252.87   33.90 
   5   3  10  332.57   38.90 
  -5  -4 -11  263.37   40.90 
  -5  -4 -11  303.57   42.90 
  -5  -4 -11  324.77   43.20 
  -5  -4 -11  303.37   43.20 
   5   4  11  256.47   41.90 
   5   4  11  241.58   42.20 
   5   4  11  242.58   42.30 
   5   4  11  308.57   35.20 
   5   4  11  269.57   37.90 
   5   4  11  327.47   43.90 
   5   4  11  300.97   43.10 
   5   4  11  269.27   42.00 
  -5  -5 -12   23.40   17.80 
  -5  -5 -12   49.60   20.80 
  -5  -5 -12   31.30   22.40 
  -5  -5 -12   31.90   16.90 
   5   5  12   39.90   22.20 
   5   5  12   77.69   17.50 
   5   5  12   40.00   20.30 
   5   5  12   32.60   12.30 
   5   5  12   17.70   18.10 
   5   5  12   74.29   20.60 
   5   5  12   39.90    9.80 
   5   5  12   47.60   22.60 
  -5  -6 -13   35.10   19.10 
  -5  -6 -13   27.10   18.90 
  -5  -6 -13  -16.00   29.20 
  -5  -6 -13   10.40   19.60 
   5   6  13   16.10    9.50 
   5   6  13    4.50   20.20 
   5   6  13   14.30    7.40 
   5   6  13    6.70   21.80 
   5   6  13   -3.50   29.50 
   5   6  13   14.10   10.60 
  -4  11   3  178.78   42.90 
  -4  11   3  258.47   53.69 
  -4  11   3  169.28   49.90 
  -4  11   3  216.78   63.79 
   4 -11  -3  190.78   44.30 
   4 -11  -3  269.27   67.69 
   4 -11  -3  204.78   39.40 
   4 -11  -3  289.77   45.10 
   4 -11  -3  265.97   30.50 
  -4  10   2  -10.80   19.70 
  -4  10   2    4.50   17.40 
  -4  10   2  -34.50   46.50 
  -4  10   2   -4.50   26.00 
  -4  10   2  -28.50   31.20 
  -4  10   2   -4.90   25.10 
   4 -10  -2   15.60   15.20 
   4 -10  -2    2.40   17.30 
   4 -10  -2    9.90   20.70 
   4 -10  -2    7.60   34.60 
  -4   9   1   -0.50   16.30 
  -4   9   1    7.40   18.60 
  -4   9   1    6.60   26.30 
  -4   9   1    8.60   23.10 
  -4   9   1    5.90   16.60 
  -4   9   1    7.90   27.40 
   4  -9  -1    9.50   14.40 
   4  -9  -1   15.20   12.50 
   4  -9  -1  -12.90   17.70 
   4  -9  -1  -34.10   29.20 
  -4   8   0  418.66   67.09 
  -4   8   0  573.24   73.79 
  -4   8   0  537.95   69.99 
  -4   8   0  500.05   78.09 
  -4   8   0  496.85   71.59 
  -4   8   0  436.46   70.29 
   4  -8   0  605.64   66.09 
   4  -8   0  548.05   69.19 
   4  -8   0  515.15   66.79 
   4  -8   0  598.34   71.69 
  -4   7  -1  424.66   81.79 
  -4   7  -1  485.45   67.09 
  -4   7  -1  450.25   68.69 
  -4   7  -1  445.66   65.89 
  -4   7  -1  509.55   68.79 
  -4   7  -1  526.35   77.19 
   4  -7   1  584.74   64.89 
   4  -7   1  592.24   72.09 
   4  -7   1  492.95   64.99 
   4  -7   1  594.84   72.09 
   4  -7   1  544.35   78.39 
   4  -7   1  497.05   67.49 
  -4   6  -2  841.02   97.59 
  -4   6  -2  723.73   95.29 
  -4   6  -2  585.64   98.69 
  -4   6  -2  799.72   98.29 
  -4   6  -2  725.93   95.19 
  -4   6  -2  666.63  102.69 
  -4   6  -2  647.94   93.99 
   4  -6   2  914.91   92.59 
   4  -6   2  800.52   92.39 
   4  -6   2  901.31   97.69 
   4  -6   2  859.01  103.99 
   4  -6   2  876.51   97.69 
   4  -6   2  748.13   95.79 
  -4   5  -3 2019.10  213.48 
  -4   5  -3 1580.74  209.68 
  -4   5  -3 1860.81  211.68 
  -4   5  -3 1601.14  219.08 
  -4   5  -3 1514.55  209.28 
   4  -5   3 1917.91  206.78 
   4  -5   3 2001.40  211.48 
   4  -5   3 1853.81  216.88 
   4  -5   3 2009.90  206.68 
   4  -5   3 2040.50  211.98 
   4  -5   3 1794.72  206.88 
   4  -5   3 1759.72  211.18 
  -4   4  -4 1397.56  191.98 
  -4   4  -4 1606.14  192.38 
  -4   4  -4 1719.33  186.08 
  -4   4  -4 1605.64  202.48 
  -4   4  -4 1788.02  192.18 
  -4   4  -4 1413.46  190.18 
   4  -4   4 1706.63  186.98 
   4  -4   4 1755.62  191.28 
   4  -4   4 1639.34  187.28 
   4  -4   4 1929.31  191.88 
   4  -4   4 1589.84  195.68 
   4  -4   4 1681.13  191.88 
   4  -4   4 1793.32  188.38 
  -4   3  -5   11.10    8.30 
  -4   3  -5   -1.60    2.60 
  -4   3  -5   16.70   17.30 
  -4   3  -5   11.30   12.40 
  -4   3  -5    7.30    8.10 
  -4   3  -5    5.10    4.40 
  -4   3  -5    2.80    7.90 
  -4   3  -5    7.80    6.90 
   4  -3   5   13.40    8.10 
   4  -3   5    1.00    2.70 
   4  -3   5   -1.30    5.40 
   4  -3   5    4.50    3.00 
   4  -3   5   49.40   11.80 
   4  -3   5   -5.70   10.70 
   4  -3   5    0.90    3.00 
  -4   2  -6   17.20   15.80 
  -4   2  -6   17.10   10.40 
  -4   2  -6   20.20    7.80 
  -4   2  -6    4.10    5.40 
  -4   2  -6    5.40    4.20 
  -4   2  -6   -2.30    6.70 
  -4   2  -6    7.60    7.80 
  -4   2  -6   11.60    6.20 
   4  -2   6   -2.30    9.70 
   4  -2   6    2.00    6.80 
   4  -2   6    1.80    3.00 
   4  -2   6   10.10    7.30 
   4  -2   6    1.00    5.20 
   4  -2   6    4.90    3.60 
   4  -2   6    0.60    3.30 
   4  -2   6    3.50    3.70 
  -4   1  -7  545.75   59.19 
  -4   1  -7  488.25   61.59 
  -4   1  -7  521.05   62.89 
  -4   1  -7  521.35   62.49 
  -4   1  -7  539.85   65.19 
  -4   1  -7  589.84   62.09 
   4  -1   7  443.76   60.99 
   4  -1   7  554.24   60.79 
   4  -1   7  457.05   61.69 
   4  -1   7  506.25   59.79 
   4  -1   7  501.95   65.19 
   4  -1   7  512.75   62.39 
  -4   0  -8  199.58   28.90 
  -4   0  -8  184.18   35.10 
  -4   0  -8  208.28   30.70 
  -4   0  -8  227.58   24.90 
  -4   0  -8  182.18   27.10 
  -4   0  -8  193.88   27.90 
  -4   0  -8  217.88   30.90 
  -4   0  -8  212.98   31.80 
   4   0   8  208.58   27.30 
   4   0   8  239.38   29.70 
   4   0   8  200.08   29.10 
   4   0   8  192.58   28.10 
   4   0   8  223.68   24.50 
   4   0   8  207.88   28.40 
   4   0   8  193.28   26.30 
   4   0   8  186.18   27.50 
  -4  -1  -9  989.50  119.69 
  -4  -1  -9 1033.70  124.59 
  -4  -1  -9 1106.79  122.09 
  -4  -1  -9 1142.09  120.69 
  -4  -1  -9 1016.80  121.69 
  -4  -1  -9 1024.30  122.69 
  -4  -1  -9  988.80  122.39 
   4   1   9  986.60  120.69 
   4   1   9 1022.80  120.39 
   4   1   9 1012.70  121.99 
   4   1   9 1010.80  120.59 
   4   1   9 1061.49  115.99 
   4   1   9 1038.20  118.29 
   4   1   9  972.40  120.69 
   4   1   9 1056.09  119.59 
  -4  -2 -10   81.79   25.10 
  -4  -2 -10   83.09   17.50 
  -4  -2 -10   81.69   14.90 
  -4  -2 -10   89.89   22.20 
  -4  -2 -10  107.79   20.40 
  -4  -2 -10   94.19   20.00 
   4   2  10   84.09   20.20 
   4   2  10   90.99   18.20 
   4   2  10   68.69   14.30 
   4   2  10   89.09   11.60 
   4   2  10   79.19   18.10 
   4   2  10  108.09   21.40 
   4   2  10   54.09   18.30 
   4   2  10   98.39   18.30 
  -4  -3 -11    8.30    9.90 
  -4  -3 -11   15.10    6.50 
  -4  -3 -11   -2.80   10.70 
  -4  -3 -11  -11.90   18.20 
  -4  -3 -11   20.70   12.80 
   4   3  11   13.70   11.80 
   4   3  11    6.00    3.60 
   4   3  11    7.50   11.20 
   4   3  11   12.50   13.10 
   4   3  11    7.60   13.80 
   4   3  11    6.00   12.30 
   4   3  11   40.20    8.80 
  -4  -4 -12 1322.07  132.09 
  -4  -4 -12 1124.09  130.49 
  -4  -4 -12 1138.99  131.59 
  -4  -4 -12 1019.20  129.79 
   4   4  12 1087.09  132.09 
   4   4  12 1014.30  128.69 
   4   4  12 1139.59  132.89 
   4   4  12 1034.60  129.89 
   4   4  12  951.10  129.99 
   4   4  12 1111.49  131.19 
  -4  -5 -13   79.19   23.60 
  -4  -5 -13   66.79   26.50 
  -4  -5 -13  102.09   23.40 
  -4  -5 -13   55.29   22.00 
   4   5  13   38.20   20.80 
   4   5  13   94.19   22.40 
   4   5  13   94.29   26.30 
   4   5  13   17.40   24.00 
  -4  -6 -14  180.58   37.30 
  -4  -6 -14  216.38   40.60 
   4   6  14  293.47   41.30 
   4   6  14  172.58   36.10 
   4   6  14  237.38   34.50 
   4   6  14  133.29   39.30 
   4   6  14  247.28   50.79 
  -3  11   2  115.59   35.20 
  -3  11   2   76.89   37.60 
  -3  11   2  158.28   40.00 
   3 -11  -2  226.48   60.99 
   3 -11  -2  136.69   36.10 
   3 -11  -2   89.09   20.30 
   3 -11  -2  155.28   22.70 
   3 -11  -2  154.48   38.20 
   3 -11  -2  132.99   28.00 
  -3  10   1   -6.20   20.70 
  -3  10   1   28.20   18.00 
  -3  10   1   -1.30   21.50 
  -3  10   1   12.50   34.60 
  -3  10   1   17.90   26.50 
   3 -10  -1    4.10   16.30 
   3 -10  -1  -15.20   21.40 
   3 -10  -1    9.20    8.80 
   3 -10  -1    9.60    9.50 
  -3   9   0  284.97   50.19 
  -3   9   0  293.27   58.09 
  -3   9   0  406.26   57.09 
  -3   9   0  205.28   45.70 
  -3   9   0  251.07   52.29 
  -3   9   0  315.87   53.89 
   3  -9   0  442.86   53.59 
   3  -9   0  302.87   36.60 
   3  -9   0  351.96   45.00 
   3  -9   0  332.07   46.10 
   3  -9   0  360.46   60.89 
   3  -9   0  332.47   52.29 
   3  -9   0  267.77   35.90 
  -3   8  -1   15.20   20.40 
  -3   8  -1   17.10   16.40 
  -3   8  -1    8.70   28.70 
  -3   8  -1   14.60   16.60 
  -3   8  -1   -7.50   19.10 
  -3   8  -1   15.00   16.40 
   3  -8   1   -1.50   21.40 
   3  -8   1   10.00   16.00 
   3  -8   1   -2.40    9.40 
   3  -8   1   14.30   16.50 
   3  -8   1    3.40   11.50 
  -3   7  -2  431.86   59.29 
  -3   7  -2  380.86   57.79 
  -3   7  -2  425.56   57.89 
  -3   7  -2  334.07   57.89 
  -3   7  -2  492.75   63.19 
  -3   7  -2  397.76   65.49 
  -3   7  -2  415.26   69.79 
   3  -7   2  333.87   56.09 
   3  -7   2  466.95   62.59 
   3  -7   2  486.85   55.49 
   3  -7   2  409.16   55.69 
   3  -7   2  478.75   68.09 
   3  -7   2  424.16   59.59 
   3  -7   2  470.65   62.69 
  -3   6  -3   40.60   20.50 
  -3   6  -3   27.10   14.70 
  -3   6  -3   29.50   13.80 
  -3   6  -3   65.09   17.30 
  -3   6  -3   41.40   18.30 
  -3   6  -3   25.70   19.00 
  -3   6  -3   32.80   17.90 
   3  -6   3   38.00   13.20 
   3  -6   3   39.70   16.40 
   3  -6   3   57.29   22.30 
   3  -6   3   23.70   13.10 
   3  -6   3   35.00   17.60 
  -3   5  -4 1973.90  219.18 
  -3   5  -4 1649.04  216.38 
  -3   5  -4 1949.01  227.78 
  -3   5  -4 1559.34  215.18 
  -3   5  -4 1726.93  219.58 
  -3   5  -4 2264.77  222.18 
   3  -5   4 1779.32  217.98 
   3  -5   4 2131.99  215.28 
   3  -5   4 2034.80  217.48 
   3  -5   4 1876.21  221.98 
   3  -5   4 1871.41  217.08 
  -3   4  -5  -10.20   13.60 
  -3   4  -5   13.50   17.90 
  -3   4  -5   11.20    5.60 
  -3   4  -5    6.00    8.30 
  -3   4  -5   15.40    9.60 
  -3   4  -5    4.30   12.10 
  -3   4  -5    5.50   10.60 
  -3   4  -5   -1.90    9.20 
   3  -4   5   -3.20    8.10 
   3  -4   5  -12.10    8.80 
   3  -4   5    2.80    9.60 
   3  -4   5    6.60    3.50 
   3  -4   5    2.50    8.70 
   3  -4   5    7.20    5.80 
   3  -4   5    5.90    7.40 
  -3   3  -6 3253.87  445.86 
  -3   3  -6 3955.90  441.96 
  -3   3  -6 3665.93  446.66 
  -3   3  -6 4656.73  458.15 
  -3   3  -6 3931.61  443.66 
  -3   3  -6 4412.26  448.16 
  -3   3  -6 4129.39  456.85 
  -3   3  -6 3583.34  447.06 
  -3   3  -6 3945.71  447.26 
   3  -3   6 4409.36  443.86 
   3  -3   6 4260.07  444.76 
   3  -3   6 3847.31  446.16 
   3  -3   6 3795.72  446.76 
   3  -3   6 3724.53  449.76 
   3  -3   6 3959.60  444.16 
   3  -3   6 3917.11  446.76 
   3  -3   6 4214.78  444.36 
  -3   2  -7   50.59   20.40 
  -3   2  -7   79.39   16.00 
  -3   2  -7   69.99   13.30 
  -3   2  -7   71.89    9.00 
  -3   2  -7   73.59   19.20 
  -3   2  -7   56.59   13.70 
  -3   2  -7   59.99   15.50 
  -3   2  -7   57.19   14.00 
   3  -2   7   60.89   13.10 
   3  -2   7   86.39   12.40 
   3  -2   7   70.49   13.10 
   3  -2   7   72.39   15.00 
   3  -2   7   68.29   13.80 
   3  -2   7   70.39   18.20 
   3  -2   7   50.79   13.30 
  -3   1  -8 1970.10  217.88 
  -3   1  -8 1862.61  214.28 
  -3   1  -8 1958.10  214.78 
  -3   1  -8 1928.71  214.68 
  -3   1  -8 1991.50  220.78 
  -3   1  -8 1894.01  215.28 
  -3   1  -8 2074.89  215.08 
   3  -1   8 1837.32  217.68 
   3  -1   8 1676.53  213.88 
   3  -1   8 1792.92  214.18 
   3  -1   8 1944.01  213.88 
   3  -1   8 1823.32  214.48 
   3  -1   8 1790.22  214.68 
  -3   0  -9    6.20    2.30 
  -3   0  -9   -2.20    8.70 
  -3   0  -9    7.00    7.30 
  -3   0  -9    3.80    8.70 
  -3   0  -9   15.10    7.60 
  -3   0  -9   -1.30   10.20 
  -3   0  -9    2.10    7.30 
  -3   0  -9   -2.10    7.30 
   3   0   9    5.80    6.80 
   3   0   9    4.20    8.00 
   3   0   9    0.70    1.10 
   3   0   9  -17.70   10.20 
   3   0   9   -0.40    2.70 
   3   0   9    4.30    6.50 
  -3  -1 -10   56.79   17.10 
  -3  -1 -10   41.90   12.60 
  -3  -1 -10   35.40   13.30 
  -3  -1 -10   40.80   11.60 
  -3  -1 -10   40.40   13.80 
  -3  -1 -10   50.69   16.50 
   3   1  10   53.19   13.30 
   3   1  10   43.80    9.00 
   3   1  10   48.80   15.30 
   3   1  10   44.90    6.10 
   3   1  10   27.70   11.40 
   3   1  10   33.20   12.30 
   3   1  10   58.19   15.30 
   3   1  10   47.90   16.60 
   3   1  10   40.00   13.00 
  -3  -2 -11   21.20   10.80 
  -3  -2 -11   30.00    7.40 
  -3  -2 -11   35.10   13.20 
  -3  -2 -11   37.70   13.10 
  -3  -2 -11   28.40   12.30 
  -3  -2 -11   21.30   16.30 
  -3  -2 -11   13.10   15.70 
   3   2  11   23.30   13.10 
   3   2  11   23.90   12.90 
   3   2  11   41.80    8.90 
   3   2  11    7.00   14.30 
   3   2  11   12.70   13.70 
   3   2  11   41.50   15.40 
   3   2  11   32.40   12.60 
   3   2  11   34.20   13.10 
  -3  -3 -12  378.36   51.59 
  -3  -3 -12  427.56   57.29 
  -3  -3 -12  415.66   57.29 
  -3  -3 -12  567.24   59.89 
   3   3  12  407.06   56.79 
   3   3  12  371.76   63.69 
   3   3  12  409.86   58.79 
   3   3  12  445.86   52.29 
   3   3  12  489.85   60.69 
   3   3  12  476.85   60.19 
   3   3  12  462.15   59.39 
  -3  -4 -13    3.50   11.90 
  -3  -4 -13    4.30   12.90 
  -3  -4 -13   -9.90   16.80 
  -3  -4 -13    9.00    6.50 
  -3  -4 -13    8.30    9.10 
   3   4  13   10.40   18.50 
   3   4  13    2.00   16.30 
   3   4  13   -1.90   15.40 
   3   4  13    8.10   18.50 
   3   4  13   13.50   15.40 
  -3  -5 -14   37.10   18.10 
  -3  -5 -14   31.50   17.60 
  -3  -5 -14   28.00    9.90 
   3   5  14   38.10   28.20 
   3   5  14   12.40   25.50 
   3   5  14   -1.00   17.00 
   3   5  14    8.60   20.70 
   3   5  14    7.30   22.40 
  -3  -6 -15   11.30   22.00 
  -3  -6 -15   13.90   17.80 
  -3  -6 -15  -27.50   17.10 
   3   6  15   34.40   28.20 
   3   6  15   -2.70   32.40 
   3   6  15   39.50   25.10 
  -2  11   1  270.17   54.69 
  -2  11   1  282.97   55.69 
  -2  11   1  230.48   51.09 
  -2  11   1  189.38   45.40 
   2 -11  -1   88.79   59.79 
   2 -11  -1  234.58   44.00 
   2 -11  -1  400.66   52.19 
   2 -11  -1  389.16   59.59 
   2 -11  -1  318.47   41.10 
   2 -11  -1  221.78   39.80 
  -2  10   0  826.62  136.49 
  -2  10   0  771.32  126.69 
  -2  10   0 1057.19  132.89 
   2 -10   0 1203.18  132.39 
   2 -10   0 1106.79  124.09 
   2 -10   0 1202.88  128.19 
   2 -10   0  984.50  118.79 
   2 -10   0 1000.10  139.39 
  -2   9  -1   13.30   19.60 
  -2   9  -1   -4.60   20.40 
  -2   9  -1  -19.50   24.30 
  -2   9  -1   12.90   17.90 
  -2   9  -1   20.00   20.00 
   2  -9   1   11.80    9.40 
   2  -9   1   -3.50   11.30 
   2  -9   1   -8.30   26.20 
   2  -9   1   -3.90   10.00 
   2  -9   1   17.10   29.50 
   2  -9   1    3.10   19.40 
   2  -9   1   20.30   16.70 
  -2   8  -2   10.90   18.90 
  -2   8  -2   28.10   29.20 
  -2   8  -2   12.20   17.30 
  -2   8  -2  -21.90   18.70 
  -2   8  -2    5.50   17.40 
  -2   8  -2   35.20   22.60 
  -2   8  -2   11.00   18.90 
   2  -8   2   22.80   13.60 
   2  -8   2   -6.90   21.50 
   2  -8   2    9.10   17.60 
   2  -8   2    9.80   26.80 
   2  -8   2   -7.80   21.40 
   2  -8   2    6.30    7.10 
   2  -8   2   14.70   11.70 
  -2   7  -3  826.82  101.79 
  -2   7  -3  950.40  100.09 
  -2   7  -3  879.91   95.49 
  -2   7  -3  599.74   89.39 
  -2   7  -3  553.64   97.99 
  -2   7  -3  649.93   92.59 
   2  -7   3  802.92   99.39 
   2  -7   3  664.93   90.09 
   2  -7   3  710.83   82.99 
   2  -7   3  799.62   95.79 
   2  -7   3  836.72   89.69 
   2  -7   3  553.24   91.39 
  -2   6  -4  397.46   54.69 
  -2   6  -4  526.75   68.79 
  -2   6  -4  374.26   57.99 
  -2   6  -4  430.36   58.79 
  -2   6  -4  586.64   64.69 
  -2   6  -4  359.66   58.99 
   2  -6   4  341.27   57.39 
   2  -6   4  399.06   57.59 
   2  -6   4  317.07   53.49 
   2  -6   4  406.06   48.40 
   2  -6   4  481.25   57.19 
   2  -6   4  501.35   55.39 
   2  -6   4  425.36   57.59 
   2  -6   4  392.76   61.49 
  -2   5  -5  939.91  115.69 
  -2   5  -5 1138.79  125.59 
  -2   5  -5 1129.69  119.29 
  -2   5  -5  752.62  110.89 
  -2   5  -5  906.61  114.39 
  -2   5  -5  995.80  116.59 
  -2   5  -5  965.10  109.69 
   2  -5   5 1112.69  115.79 
   2  -5   5 1012.00  112.99 
   2  -5   5  932.11  107.29 
   2  -5   5  882.71  106.39 
   2  -5   5  880.71  113.69 
   2  -5   5  863.71  115.19 
   2  -5   5  959.60  117.59 
  -2   4  -6    3.50    7.00 
  -2   4  -6    0.10   10.00 
  -2   4  -6   -3.10    8.30 
  -2   4  -6   -8.20   12.70 
  -2   4  -6   15.30   11.10 
  -2   4  -6   14.50   11.50 
  -2   4  -6   16.20   13.10 
  -2   4  -6    1.70   14.50 
   2  -4   6    2.90    9.10 
   2  -4   6   -7.40    7.00 
   2  -4   6    2.70    4.10 
   2  -4   6   -3.70    9.20 
   2  -4   6   -5.30    8.10 
   2  -4   6   -1.00    8.40 
   2  -4   6    6.00    9.60 
  -2   3  -7   67.39   20.00 
  -2   3  -7   62.29   14.70 
  -2   3  -7   62.19   16.30 
  -2   3  -7   53.79   15.60 
  -2   3  -7   76.29   20.10 
  -2   3  -7   46.60   15.40 
  -2   3  -7   76.89   17.30 
  -2   3  -7   64.39   12.80 
   2  -3   7   80.79   17.00 
   2  -3   7   83.69   15.00 
   2  -3   7   65.09   16.60 
   2  -3   7   50.79   18.20 
   2  -3   7   46.40   14.70 
  -2   2  -8 2378.16  269.57 
  -2   2  -8 2406.66  270.07 
  -2   2  -8 2371.06  275.17 
  -2   2  -8 2425.26  267.67 
  -2   2  -8 2331.37  269.47 
  -2   2  -8 2449.75  269.47 
  -2   2  -8 2243.88  272.67 
   2  -2   8 2249.18  272.27 
   2  -2   8 2307.87  268.37 
   2  -2   8 2325.27  269.07 
   2  -2   8 2121.39  269.07 
   2  -2   8 2695.53  271.47 
   2  -2   8 2595.74  269.67 
   2  -2   8 2614.64  266.07 
   2  -2   8 1998.30  268.37 
  -2   1  -9 2092.69  235.58 
  -2   1  -9 2035.60  240.08 
  -2   1  -9 2169.88  234.88 
  -2   1  -9 1900.81  237.48 
  -2   1  -9 2250.67  236.88 
  -2   1  -9 1955.00  234.88 
  -2   1  -9 2303.87  236.08 
   2  -1   9 2235.28  232.38 
   2  -1   9 2174.78  235.68 
   2  -1   9 1995.80  234.98 
   2  -1   9 2253.37  235.98 
   2  -1   9 1943.11  235.18 
   2  -1   9 1790.52  234.28 
   2  -1   9 2003.00  238.18 
   2  -1   9 1843.82  234.88 
  -2   0 -10  738.03   93.19 
  -2   0 -10  820.12   91.89 
  -2   0 -10  861.71   92.19 
  -2   0 -10  806.22   92.99 
  -2   0 -10  737.93   91.29 
  -2   0 -10  821.22   92.19 
  -2   0 -10  734.53   94.49 
   2   0  10  769.62   92.19 
   2   0  10  672.63   93.89 
   2   0  10  780.12   92.59 
   2   0  10  740.23   87.89 
   2   0  10  744.13   91.69 
   2   0  10  736.43   91.69 
   2   0  10  696.23   93.19 
   2   0  10  806.22   92.69 
  -2  -1 -11  769.82   97.79 
  -2  -1 -11  774.12   93.09 
  -2  -1 -11  825.62   93.29 
  -2  -1 -11  823.12   95.09 
  -2  -1 -11  766.82   94.39 
   2   1  11  812.82   95.39 
   2   1  11  689.03   94.99 
   2   1  11  693.63   93.09 
   2   1  11  755.52   93.69 
   2   1  11  769.02   94.39 
   2   1  11  759.42   88.79 
   2   1  11  822.02   94.49 
   2   1  11  798.22   95.19 
  -2  -2 -12 1060.49  132.39 
  -2  -2 -12 1092.19  130.59 
  -2  -2 -12 1107.39  129.39 
  -2  -2 -12 1107.79  132.39 
  -2  -2 -12 1294.47  130.39 
  -2  -2 -12 1087.99  129.59 
   2   2  12 1105.59  132.69 
   2   2  12 1112.59  132.09 
   2   2  12 1010.10  130.69 
   2   2  12 1102.99  126.29 
   2   2  12 1109.09  131.29 
   2   2  12  957.10  130.19 
   2   2  12 1043.50  133.89 
   2   2  12 1145.99  132.39 
  -2  -3 -13   10.00    9.20 
  -2  -3 -13   10.00   18.20 
  -2  -3 -13   37.00   14.30 
  -2  -3 -13   14.20   11.70 
   2   3  13   14.30   18.70 
   2   3  13   27.40   17.60 
   2   3  13   42.00   17.10 
   2   3  13   -5.20   14.60 
   2   3  13   24.70   17.80 
   2   3  13   38.30    9.20 
   2   3  13   25.90   18.50 
  -2  -4 -14   13.20   12.00 
   2   4  14   23.00   19.50 
   2   4  14    5.40   21.20 
   2   4  14    8.50   20.00 
   2   4  14    1.40   24.00 
   2   4  14    9.00   15.60 
  -2  -5 -15  235.28   40.10 
  -2  -5 -15  228.48   41.50 
  -2  -5 -15  270.97   42.60 
   2   5  15  256.87   46.30 
   2   5  15  205.58   45.80 
   2   5  15  175.98   46.70 
   2   5  15  251.37   53.09 
   2   5  15  234.18   43.70 
  -2  -6 -16   48.00   25.10 
  -2  -6 -16   39.40   23.20 
  -2  -6 -16   77.99   22.10 
   2   6  16   92.99   39.50 
   2   6  16   32.10   26.50 
   2   6  16   16.70   35.30 
   2   6  16   65.99   31.10 
  -1  11   0  111.09   40.30 
  -1  11   0  135.59   39.10 
  -1  11   0  142.39   41.60 
  -1  11   0   91.89   34.00 
   1 -11   0  138.89   31.30 
   1 -11   0  160.28   36.70 
   1 -11   0  189.28   55.49 
   1 -11   0  100.69   27.50 
   1 -11   0  164.78   29.70 
   1 -11   0  175.18   43.40 
  -1  10  -1  376.16   63.39 
  -1  10  -1  293.17   58.69 
  -1  10  -1  356.86   68.29 
  -1  10  -1  381.76   63.89 
   1 -10   1  536.95   65.49 
   1 -10   1  462.65   77.39 
   1 -10   1  438.26   62.09 
   1 -10   1  372.56   51.69 
   1 -10   1  299.27   52.49 
  -1   9  -2  425.26   59.09 
  -1   9  -2  297.87   64.99 
  -1   9  -2  346.87   59.89 
  -1   9  -2  299.17   53.99 
  -1   9  -2  309.57   61.29 
   1  -9   2  316.07   47.40 
   1  -9   2  340.67   52.39 
   1  -9   2  352.76   59.09 
   1  -9   2  310.57   61.29 
  -1   8  -3 1058.79  141.79 
  -1   8  -3 1483.15  149.69 
   1  -8   3 1226.18  147.69 
   1  -8   3  976.20  135.79 
   1  -8   3 1260.77  141.09 
   1  -8   3 1176.98  143.49 
   1  -8   3 1159.38  147.59 
   1  -8   3 1406.76  151.28 
  -1   7  -4  192.38   42.70 
  -1   7  -4  232.38   47.00 
  -1   7  -4  209.38   43.50 
  -1   7  -4  152.08   39.10 
  -1   7  -4  367.36   53.29 
  -1   7  -4  278.27   44.70 
  -1   7  -4  362.96   49.60 
   1  -7   4  303.67   46.40 
   1  -7   4  203.28   43.70 
   1  -7   4  224.08   41.60 
   1  -7   4  247.18   35.70 
   1  -7   4  218.78   37.30 
   1  -7   4  269.67   48.10 
   1  -7   4  173.58   30.50 
   1  -7   4  238.68   43.70 
  -1   6  -5   15.70   18.30 
  -1   6  -5    5.50   17.50 
  -1   6  -5   25.40   16.40 
  -1   6  -5   13.70   11.70 
  -1   6  -5   21.80   14.80 
  -1   6  -5   23.40   12.90 
  -1   6  -5   23.40   13.30 
   1  -6   5   13.90   17.20 
   1  -6   5   13.60   18.40 
   1  -6   5   22.70   15.90 
   1  -6   5   10.40    7.50 
   1  -6   5   18.00    3.80 
   1  -6   5    7.00    9.60 
   1  -6   5   14.10   12.60 
   1  -6   5   25.60   15.00 
   1  -6   5    7.80   15.60 
  -1   5  -6   19.80   10.90 
  -1   5  -6    7.20   10.30 
  -1   5  -6   19.20   16.70 
  -1   5  -6   32.70   19.00 
  -1   5  -6    4.50   17.90 
  -1   5  -6   29.90   17.10 
  -1   5  -6   14.60   15.70 
  -1   5  -6   38.50   16.90 
   1  -5   6   30.70   14.10 
   1  -5   6   10.80   11.70 
   1  -5   6   28.40   13.80 
   1  -5   6   -3.40   13.40 
   1  -5   6   28.60    8.30 
   1  -5   6   22.30   11.60 
   1  -5   6   18.90   11.50 
   1  -5   6   25.00   14.00 
  -1   4  -7  445.26   59.09 
  -1   4  -7  557.54   61.19 
  -1   4  -7  561.44   64.09 
  -1   4  -7  473.25   61.59 
  -1   4  -7  382.96   55.99 
  -1   4  -7  550.74   66.39 
  -1   4  -7  423.56   61.99 
   1  -4   7  425.66   59.89 
   1  -4   7  509.85   58.79 
   1  -4   7  449.66   61.89 
   1  -4   7  331.17   55.59 
   1  -4   7  410.86   57.59 
   1  -4   7  443.46   55.09 
   1  -4   7  393.66   56.69 
  -1   3  -8 1682.63  212.48 
  -1   3  -8 1888.01  216.58 
  -1   3  -8 2011.10  209.18 
  -1   3  -8 1844.42  211.48 
  -1   3  -8 2090.29  212.58 
  -1   3  -8 1594.84  208.78 
  -1   3  -8 1637.24  211.58 
  -1   3  -8 1941.21  216.18 
   1  -3   8 1926.41  208.68 
   1  -3   8 1726.53  213.88 
   1  -3   8 1775.62  210.38 
   1  -3   8 1747.23  209.78 
   1  -3   8 1836.82  216.38 
   1  -3   8 1955.90  211.38 
  -1   2  -9 1886.01  225.48 
  -1   2  -9 1865.21  226.38 
  -1   2  -9 2040.00  222.48 
  -1   2  -9 2148.49  222.28 
  -1   2  -9 2071.89  220.78 
  -1   2  -9 1850.41  222.38 
  -1   2  -9 1878.81  222.88 
  -1   2  -9 1844.12  220.68 
   1  -2   9 1951.50  225.28 
   1  -2   9 2051.49  222.68 
   1  -2   9 1987.20  220.88 
   1  -2   9 1940.21  222.78 
   1  -2   9 1810.72  220.68 
   1  -2   9 1775.52  221.38 
   1  -2   9 1907.01  221.78 
  -1   1 -10   -1.80    7.80 
  -1   1 -10    3.40    9.60 
  -1   1 -10   -4.20    9.10 
  -1   1 -10    3.40    8.70 
  -1   1 -10    4.40    8.50 
  -1   1 -10   48.50   17.20 
   1  -1  10  -15.40   11.00 
   1  -1  10   -4.90    2.20 
   1  -1  10    3.20    7.70 
   1  -1  10   -0.90    7.70 
   1  -1  10    4.80    8.90 
   1  -1  10   -5.40    9.20 
   1  -1  10   -6.30    7.70 
   1  -1  10   -2.20    9.20 
  -1   0 -11   -3.70   10.10 
  -1   0 -11  -10.10    8.10 
  -1   0 -11   10.50   10.30 
  -1   0 -11    7.90    8.90 
  -1   0 -11    6.40    2.70 
  -1   0 -11   -4.40    9.30 
  -1   0 -11   10.70   11.20 
  -1   0 -11   -7.80   10.70 
   1   0  11    1.50   10.40 
   1   0  11   29.50   12.80 
   1   0  11    3.90   14.50 
   1   0  11    0.50    9.50 
   1   0  11  -10.10    8.20 
   1   0  11   -1.40    8.80 
   1   0  11   -2.60   11.50 
  -1  -1 -12    4.10   10.40 
  -1  -1 -12   76.59   17.10 
  -1  -1 -12   26.90    9.90 
  -1  -1 -12    3.00   12.60 
  -1  -1 -12    0.20   12.10 
   1   1  12   26.50   16.40 
   1   1  12   21.40   13.30 
   1   1  12  -15.40   12.10 
   1   1  12    5.50    4.00 
   1   1  12   14.30    9.50 
   1   1  12   14.20   13.70 
   1   1  12   39.50   15.60 
   1   1  12    7.40   12.20 
  -1  -2 -13   15.00   12.10 
  -1  -2 -13   34.40   17.60 
  -1  -2 -13   23.80   17.30 
  -1  -2 -13   25.60   14.70 
   1   2  13   20.10   17.10 
   1   2  13   39.10    7.70 
   1   2  13   31.00   16.20 
   1   2  13   30.80   17.40 
   1   2  13   14.00   17.70 
   1   2  13   14.60   14.80 
   1   2  13   37.10   18.50 
  -1  -3 -14  202.98   33.80 
  -1  -3 -14  223.28   35.40 
  -1  -3 -14  213.78   36.20 
   1   3  14  196.18   38.90 
   1   3  14  277.77   42.80 
   1   3  14  176.08   37.60 
   1   3  14  201.08   41.30 
   1   3  14  171.48   38.80 
  -1  -4 -15  142.79   30.30 
  -1  -4 -15  170.38   32.90 
  -1  -4 -15  196.28   35.80 
   1   4  15  166.98   40.40 
   1   4  15  194.18   39.60 
   1   4  15  219.88   43.20 
  -1  -5 -16   -6.40   19.40 
  -1  -5 -16    7.50   14.80 
   1   5  16   -6.00   22.00 
   1   5  16   21.40   40.70 
   1   5  16   52.29   28.60 
   1   5  16  -10.80   31.50 
   0  11  -1   49.10   50.39 
   0  11  -1  -34.50   24.20 
   0 -11   1    7.70   19.40 
   0 -11   1  -14.60   29.30 
   0 -11   1   32.70   20.30 
   0  10  -2  415.26   67.29 
   0  10  -2  350.16   67.89 
   0  10  -2  430.76   68.99 
   0 -10   2  530.75   69.19 
   0 -10   2  348.97   55.69 
   0 -10   2  344.27   72.49 
   0 -10   2  568.14   66.79 
   0 -10   2  346.57   56.99 
   0   9  -3    9.80   25.80 
   0   9  -3  -12.30   20.80 
   0   9  -3    4.60   15.50 
   0  -9   3    6.90   14.30 
   0  -9   3    0.50   17.40 
   0  -9   3    0.80   13.50 
   0  -9   3    4.00   29.30 
   0  -9   3  -17.70   23.30 
   0   8  -4  115.99   34.20 
   0   8  -4  147.59   38.90 
   0   8  -4   70.19   30.50 
   0   8  -4   99.79   27.80 
   0  -8   4   51.99   18.30 
   0  -8   4  127.39   35.40 
   0  -8   4   68.09   28.30 
   0  -8   4  124.19   24.90 
   0  -8   4  114.39   32.90 
   0  -8   4   70.39   24.50 
   0  -8   4   77.09   29.00 
   0   7  -5   -6.30   18.30 
   0   7  -5   -6.80   17.30 
   0   7  -5   -3.30   13.70 
   0   7  -5   -4.80   21.10 
   0   7  -5  -15.60   17.50 
   0   7  -5   10.10   19.40 
   0   7  -5   -8.50   22.90 
   0  -7   5    6.10   19.00 
   0  -7   5   -0.10    2.50 
   0  -7   5   -1.50   19.60 
   0  -7   5  -16.40   17.10 
   0  -7   5  -19.90   16.00 
   0  -7   5    5.40   20.80 
   0  -7   5    0.00   13.90 
   0  -7   5  -16.70   10.70 
   0  -7   5   16.00   10.40 
   0   6  -6 1216.98  164.38 
   0   6  -6 1709.63  168.58 
   0   6  -6 1668.13  171.88 
   0   6  -6 1544.95  171.78 
   0   6  -6 1568.94  173.08 
   0  -6   6 1171.18  155.98 
   0  -6   6 1507.75  169.48 
   0  -6   6 1250.47  164.58 
   0  -6   6 1483.45  163.98 
   0  -6   6 1449.85  167.58 
   0  -6   6 1220.38  167.68 
   0  -6   6 1515.05  166.58 
   0  -6   6 1292.77  164.58 
   0  -6   6 1279.37  160.18 
   0   5  -7  -15.40   17.70 
   0   5  -7    1.80   14.00 
   0   5  -7   -0.90   13.60 
   0   5  -7    4.30   10.00 
   0   5  -7    5.70   16.10 
   0   5  -7   25.40   13.80 
   0   5  -7    8.70   14.10 
   0  -5   7   14.20   13.20 
   0  -5   7    0.60    8.10 
   0  -5   7  -11.70   12.80 
   0  -5   7    5.00   10.40 
   0  -5   7   46.90   17.40 
   0  -5   7    4.70    9.90 
   0  -5   7    5.80   12.50 
   0  -5   7   -7.20   14.40 
   0   4  -8  212.08   30.60 
   0   4  -8  246.28   35.80 
   0   4  -8  164.38   35.70 
   0   4  -8  211.28   39.80 
   0   4  -8  235.08   31.80 
   0   4  -8  214.48   34.50 
   0   4  -8  226.08   41.50 
   0   4  -8  274.47   39.40 
   0  -4   8  143.49   33.20 
   0  -4   8  156.78   33.10 
   0  -4   8  188.28   29.70 
   0  -4   8  200.08   38.80 
   0  -4   8  183.38   33.50 
   0  -4   8  270.97   37.90 
   0  -4   8  162.68   32.00 
   0   3  -9   33.70   13.60 
   0   3  -9  -15.80    8.50 
   0   3  -9    3.40   12.90 
   0   3  -9  -11.80    9.50 
   0   3  -9   13.30   12.70 
   0   3  -9    4.70    2.30 
   0   3  -9    9.30   11.40 
   0   3  -9    6.50    9.90 
   0   3  -9    1.70    8.90 
   0  -3   9   -3.40   12.10 
   0  -3   9   -2.00    9.60 
   0  -3   9   11.60   10.20 
   0  -3   9   -9.30    9.30 
   0  -3   9   -9.30   12.70 
   0  -3   9   24.20   10.30 
   0  -3   9    6.30   10.90 
   0   2 -10  676.03   90.29 
   0   2 -10  697.23   88.49 
   0   2 -10  637.14   88.29 
   0   2 -10  746.63   86.79 
   0   2 -10  584.74   89.79 
   0   2 -10  711.03   87.89 
   0   2 -10  693.13   85.59 
   0   2 -10  885.71   88.49 
   0  -2  10  745.03   89.49 
   0  -2  10  726.23   87.69 
   0  -2  10  687.93   87.19 
   0  -2  10  708.83   88.79 
   0  -2  10  698.73   90.39 
   0  -2  10  727.63   87.19 
   0  -2  10  781.42   87.69 
   0   1 -11    8.80    9.10 
   0   1 -11  -15.30   10.60 
   0   1 -11   -5.50   10.10 
   0   1 -11    6.70   12.00 
   0   1 -11    2.00   11.00 
   0   1 -11   13.10   11.50 
   0   1 -11   10.10   11.20 
   0   1 -11    2.20    7.70 
   0  -1  11  -21.60   10.60 
   0  -1  11    6.60   10.80 
   0  -1  11    1.50    8.50 
   0  -1  11   -3.70   10.80 
   0  -1  11    4.80   10.90 
   0  -1  11   17.30   14.60 
   0  -1  11    5.60    8.50 
   0  -1  11    1.30    2.80 
   0   0 -12 4138.99  481.05 
   0   0 -12 4540.55  482.35 
   0   0 -12 4192.58  474.95 
   0   0 -12 4279.17  482.25 
   0   0 -12 4309.47  481.95 
   0   0 -12 4450.95  483.75 
   0   0 -12 4713.03  485.75 
   0   0  12 4645.24  485.35 
   0   0  12 4145.29  482.15 
   0   0  12 4337.77  476.25 
   0   0  12 3938.41  473.65 
   0   0  12 4122.59  483.05 
   0   0  12 3977.30  483.95 
   0   0  12 4403.66  483.25 
   0   0  12 4444.06  483.25 
   0   0  12 3795.52  481.75 
   0  -1 -13    1.70    2.70 
   0  -1 -13    2.30   10.80 
   0  -1 -13   17.40   12.40 
   0   1  13   -0.80   13.10 
   0   1  13  -17.50   16.70 
   0   1  13   -3.00   12.30 
   0   1  13   -2.20    3.40 
   0   1  13    1.30    2.50 
   0   1  13   -1.30   15.60 
   0   1  13   -3.90   12.50 
   0   1  13  -15.60   15.10 
   0   1  13    6.60   18.80 
   0  -2 -14  374.76   57.79 
   0  -2 -14  446.66   59.29 
   0  -2 -14  408.56   56.59 
   0   2  14  366.66   62.79 
   0   2  14  491.25   65.69 
   0   2  14  415.16   74.09 
   0   2  14  469.45   50.59 
   0   2  14  444.16   62.59 
   0   2  14  410.96   62.79 
   0   2  14  430.66   61.09 
   0   2  14  419.46   49.70 
   0  -3 -15    0.70   12.30 
   0  -3 -15   16.80   15.50 
   0   3  15   -3.00    5.20 
   0   3  15  -16.10   17.00 
   0   3  15    8.80   23.60 
   0   3  15  -10.00   18.80 
   0   3  15   25.50   19.90 
   0   3  15   -2.20   18.50 
   0  -4 -16  202.98   34.70 
   0  -4 -16  221.18   39.80 
   0  -4 -16  254.97   41.20 
   0   4  16  198.48   45.00 
   0   4  16  192.98   47.40 
   0   4  16  226.68   45.20 
   0   4  16  164.18   31.60 
   0   4  16  214.28   48.60 
   0  -5 -17    1.30   20.60 
   0  -5 -17  -12.40   20.00 
   0  -5 -17  -23.70   16.50 
   0   5  17   57.79   42.60 
   0   5  17   35.20   29.20 
   0   5  17   -1.30   37.10 
   0   5  17   -1.70   28.30 
   1  11  -2  -46.90   34.70 
   1  11  -2  -17.40   29.70 
   1  11  -2  -13.40   27.00 
  -1 -11   2   16.10   25.40 
  -1 -11   2   69.49   36.20 
  -1 -11   2  -15.00   47.10 
  -1 -11   2    1.20   18.60 
  -1 -11   2  -34.90   20.80 
   1  10  -3  166.58   46.40 
   1  10  -3  250.97   52.79 
   1  10  -3  153.68   41.40 
   1  10  -3  199.38   47.40 
  -1 -10   3  145.59   49.00 
  -1 -10   3  227.68   44.80 
  -1 -10   3  137.39   33.70 
  -1 -10   3  174.38   36.70 
  -1 -10   3  253.87   50.89 
   1   9  -4  723.23   94.49 
  -1  -9   4  615.54   95.69 
  -1  -9   4  591.64   83.79 
  -1  -9   4  549.65   93.99 
  -1  -9   4  865.91   94.59 
  -1  -9   4  624.14   84.59 
   1   8  -5  533.75   75.29 
   1   8  -5  597.74   79.59 
   1   8  -5  610.74   73.69 
  -1  -8   5  466.95   54.19 
  -1  -8   5  552.64   79.59 
  -1  -8   5  351.76   60.69 
  -1  -8   5  441.06   74.29 
  -1  -8   5  408.66   71.59 
  -1  -8   5  448.76   63.99 
  -1  -8   5  427.46   76.19 
   1   7  -6  454.15   56.89 
   1   7  -6  333.47   47.70 
   1   7  -6  467.95   59.79 
   1   7  -6  390.66   61.89 
   1   7  -6  275.57   52.99 
  -1  -7   6  274.67   44.70 
  -1  -7   6  297.47   52.99 
  -1  -7   6  425.86   51.89 
  -1  -7   6  412.26   57.69 
  -1  -7   6  262.67   39.40 
  -1  -7   6  351.06   55.29 
  -1  -7   6  225.18   51.69 
  -1  -7   6  313.77   53.09 
  -1  -7   6  363.26   48.60 
   1   6  -7   72.69   23.40 
   1   6  -7   60.69   22.00 
   1   6  -7   82.29   22.60 
   1   6  -7   71.49   22.80 
   1   6  -7   49.00   24.00 
   1   6  -7   98.19   31.60 
   1   6  -7   93.99   26.10 
   1   6  -7   59.59   16.60 
  -1  -6   7   57.29   18.90 
  -1  -6   7   38.10    9.60 
  -1  -6   7   67.49   17.60 
  -1  -6   7   42.60   22.00 
  -1  -6   7   52.99   24.80 
  -1  -6   7   53.59   19.60 
  -1  -6   7   32.50   17.80 
  -1  -6   7   67.79   23.30 
  -1  -6   7   48.60   22.60 
   1   5  -8  247.18   35.50 
   1   5  -8  126.29   27.80 
   1   5  -8  206.68   38.40 
   1   5  -8  189.78   36.90 
   1   5  -8  235.38   38.20 
   1   5  -8  204.68   37.90 
   1   5  -8  239.78   43.80 
  -1  -5   8   95.49   27.80 
  -1  -5   8  203.28   36.60 
  -1  -5   8  215.38   42.40 
  -1  -5   8  148.89   30.20 
  -1  -5   8  146.39   30.20 
  -1  -5   8  125.09   33.50 
  -1  -5   8  159.98   31.60 
   1   4  -9 1084.89  122.89 
   1   4  -9 1057.89  120.99 
   1   4  -9  929.81  119.29 
   1   4  -9  988.10  108.39 
   1   4  -9 1059.09  116.59 
   1   4  -9 1168.78  122.19 
   1   4  -9  904.91  112.39 
  -1  -4   9 1112.09  120.59 
  -1  -4   9  916.61  118.69 
  -1  -4   9  818.52  113.99 
  -1  -4   9  985.60  114.79 
  -1  -4   9  739.83  114.59 
  -1  -4   9  784.02  112.89 
  -1  -4   9  914.91  118.19 
   1   3 -10   34.50   17.30 
   1   3 -10   42.30   16.80 
   1   3 -10   36.20   13.40 
   1   3 -10   34.20    7.30 
   1   3 -10   65.59   18.10 
   1   3 -10   41.20   18.30 
   1   3 -10   71.89   22.20 
   1   3 -10   21.50   15.20 
   1   3 -10   44.60   15.10 
  -1  -3  10   64.79   19.80 
  -1  -3  10   29.70   16.00 
  -1  -3  10   60.49   16.80 
  -1  -3  10   30.90   19.40 
  -1  -3  10   55.89   15.10 
  -1  -3  10   51.49   17.80 
  -1  -3  10   67.89   16.60 
   1   2 -11  751.52   87.09 
   1   2 -11  850.61   88.39 
   1   2 -11  664.93   90.69 
   1   2 -11  732.03   89.49 
   1   2 -11  747.83   88.49 
   1   2 -11  658.63   84.39 
   1   2 -11  663.33   89.29 
   1   2 -11  680.03   89.39 
  -1  -2  11  704.13   90.79 
  -1  -2  11  592.44   86.79 
  -1  -2  11  772.72   88.49 
  -1  -2  11  663.43   88.99 
  -1  -2  11  639.24   86.39 
  -1  -2  11  676.63   86.49 
  -1  -2  11  757.72   91.19 
   1   1 -12   14.80    5.30 
   1   1 -12  -10.80   11.60 
   1   1 -12    8.70   13.50 
   1   1 -12    2.30    9.50 
   1   1 -12   20.10   13.60 
   1   1 -12   12.70   13.40 
   1   1 -12    2.60   10.60 
   1   1 -12   17.80   12.50 
  -1  -1  12  -10.00   12.60 
  -1  -1  12   15.20   12.10 
  -1  -1  12   17.50   11.90 
  -1  -1  12    5.60   16.10 
  -1  -1  12    5.00   13.20 
  -1  -1  12   -3.20   13.80 
   1   0 -13    6.60   14.40 
   1   0 -13   -3.10   11.20 
   1   0 -13   12.30   12.20 
   1   0 -13   -1.00    9.70 
   1   0 -13   -3.40    3.40 
   1   0 -13   21.00   14.80 
  -1   0  13   15.40   11.70 
  -1   0  13    1.00    4.00 
  -1   0  13   -2.30   17.20 
  -1   0  13    3.30   14.20 
  -1   0  13   -2.60   16.10 
  -1   0  13   -9.20   11.00 
  -1   0  13   -0.70    2.40 
  -1   0  13   -5.70   11.80 
   1  -1 -14   73.59   17.80 
   1  -1 -14   67.49   20.50 
   1  -1 -14   81.29   11.30 
  -1   1  14   83.09   22.00 
  -1   1  14   73.49   11.20 
  -1   1  14   88.09   25.60 
  -1   1  14   59.79   10.30 
  -1   1  14   71.29   25.60 
   1  -2 -15  314.37   48.50 
   1  -2 -15  372.46   44.90 
   1  -2 -15  313.97   47.90 
  -1   2  15  303.17   53.49 
  -1   2  15  380.06   66.79 
  -1   2  15  271.07   52.09 
  -1   2  15  264.27   53.19 
  -1   2  15  294.97   38.10 
  -1   2  15  371.16   53.39 
  -1   2  15  328.27   37.50 
   1  -3 -16   70.59   22.40 
   1  -3 -16   66.39   18.40 
   1  -3 -16   86.19   26.00 
  -1   3  16   71.29   27.60 
  -1   3  16   88.39   14.00 
  -1   3  16   40.20   31.10 
  -1   3  16   55.59   29.40 
  -1   3  16   58.19   31.70 
  -1   3  16   55.89   31.70 
   1  -4 -17   78.79   26.60 
   1  -4 -17   57.29   20.30 
  -1   4  17  146.89   44.10 
  -1   4  17   63.69   14.80 
  -1   4  17   49.80   33.60 
  -1   4  17  141.89   40.80 
   2  11  -3  528.15   97.09 
   2  11  -3  754.62  102.29 
   2  11  -3  725.83  108.99 
   2  11  -3  569.94   95.69 
  -2 -11   3  796.32   94.29 
  -2 -11   3  614.54  106.69 
  -2 -11   3  894.91  134.09 
  -2 -11   3  830.72  100.59 
  -2 -11   3  481.85   86.99 
   2  10  -4  695.13   97.39 
   2  10  -4  668.33  104.79 
   2  10  -4  899.71  111.79 
  -2 -10   4  922.51  104.69 
  -2 -10   4  705.63  100.79 
  -2 -10   4  610.54  106.29 
  -2 -10   4  654.73   94.39 
  -2 -10   4  603.24   91.89 
   2   9  -5   19.60   28.80 
   2   9  -5   82.09   39.80 
   2   9  -5   -4.30   23.40 
   2   9  -5    5.40   21.50 
  -2  -9   5   18.80   18.10 
  -2  -9   5   -0.80   23.40 
  -2  -9   5   23.50   20.70 
  -2  -9   5   -1.60   28.00 
  -2  -9   5  -27.60   30.30 
   2   8  -6   64.89   27.50 
   2   8  -6   97.09   40.20 
   2   8  -6   80.69   29.20 
   2   8  -6   68.99   38.40 
  -2  -8   6   39.10   20.30 
  -2  -8   6   39.50   10.80 
  -2  -8   6   32.80   27.90 
  -2  -8   6   81.79   28.60 
  -2  -8   6   43.10   21.60 
  -2  -7   7  313.67   54.09 
  -2  -7   7  493.45   71.89 
  -2  -7   7  429.86   57.09 
  -2  -7   7  267.67   58.39 
  -2  -7   7  321.17   42.00 
  -2  -7   7  331.07   50.69 
   2   6  -8  428.06   62.39 
   2   6  -8  266.77   39.40 
   2   6  -8  346.77   47.40 
   2   6  -8  223.08   36.70 
   2   6  -8  299.57   51.59 
  -2  -6   8  258.87   48.10 
  -2  -6   8  163.98   28.50 
  -2  -6   8  192.18   38.80 
  -2  -6   8  224.88   39.30 
  -2  -6   8  272.77   49.10 
  -2  -6   8  232.58   40.60 
  -2  -6   8  170.98   40.40 
  -2  -6   8  163.48   42.10 
  -2  -6   8  223.48   40.10 
   2   5  -9 1550.24  181.28 
   2   5  -9 1772.32  192.88 
   2   5  -9 1992.90  191.18 
  -2  -5   9 1330.07  186.48 
  -2  -5   9 1374.66  182.38 
  -2  -5   9 1578.84  184.98 
  -2  -5   9 1572.44  187.98 
  -2  -5   9 1285.47  183.38 
  -2  -5   9 1414.86  182.58 
  -2  -5   9 1716.63  191.28 
  -2  -5   9 1739.73  186.58 
   2   4 -10   70.29   24.20 
   2   4 -10   50.89   21.70 
   2   4 -10   83.19   27.00 
   2   4 -10   57.19   26.20 
   2   4 -10   68.99   21.10 
   2   4 -10   71.89   12.50 
   2   4 -10  135.79   27.00 
   2   4 -10   56.99   20.60 
  -2  -4  10   56.49   21.50 
  -2  -4  10  115.89   27.30 
  -2  -4  10   47.50   22.70 
  -2  -4  10   70.59   20.40 
  -2  -4  10   68.29   25.20 
  -2  -4  10   66.69   18.00 
  -2  -4  10   85.69   23.40 
   2   3 -11   29.70   16.80 
   2   3 -11   57.49   18.20 
   2   3 -11   26.30   19.10 
   2   3 -11   34.10    7.50 
   2   3 -11   25.50   16.70 
   2   3 -11   30.10   13.50 
   2   3 -11   16.00   17.50 
   2   3 -11   52.99   18.90 
   2   3 -11   19.20   14.50 
  -2  -3  11   24.20   18.50 
  -2  -3  11   33.80   17.60 
  -2  -3  11    8.60   15.90 
  -2  -3  11   98.59   24.80 
  -2  -3  11   26.30   12.30 
  -2  -3  11   35.10   16.80 
  -2  -3  11   33.60   16.00 
   2   2 -12  861.61  115.09 
   2   2 -12 1002.20  118.59 
   2   2 -12 1099.59  122.99 
   2   2 -12 1244.28  123.49 
   2   2 -12  931.41  124.59 
   2   2 -12 1161.28  123.19 
   2   2 -12 1019.10  124.59 
   2   2 -12 1066.09  124.59 
   2   2 -12  924.31  123.49 
  -2  -2  12 1002.50  123.99 
  -2  -2  12 1026.50  125.99 
  -2  -2  12  989.70  125.89 
  -2  -2  12  949.01  122.29 
  -2  -2  12 1137.69  128.39 
  -2  -2  12  876.31  122.29 
   2   1 -13   17.10    7.20 
   2   1 -13   42.90   20.90 
   2   1 -13    8.80   16.90 
   2   1 -13   66.79   19.80 
   2   1 -13   44.00   15.10 
  -2  -1  13   39.20   19.60 
  -2  -1  13   44.70   20.00 
  -2  -1  13   50.99   19.40 
  -2  -1  13   36.10   23.80 
   2   0 -14  486.85   60.29 
   2   0 -14  427.36   58.39 
   2   0 -14  425.06   53.09 
   2   0 -14  387.66   49.30 
   2   0 -14  420.26   58.19 
  -2   0  14  371.66   59.59 
  -2   0  14  445.06   64.09 
  -2   0  14  411.56   58.99 
  -2   0  14  413.96   47.50 
  -2   0  14  380.06   48.30 
  -2   0  14  426.16   61.19 
   2  -1 -15  260.27   42.30 
   2  -1 -15  303.87   46.60 
   2  -1 -15  349.47   48.60 
   2  -1 -15  342.07   38.20 
  -2   1  15  309.07   51.39 
  -2   1  15  287.47   52.19 
  -2   1  15  325.37   37.10 
  -2   1  15  298.07   52.29 
  -2   1  15  300.27   37.40 
  -2   1  15  297.37   56.49 
   2  -2 -16  321.47   49.60 
   2  -2 -16  311.27   45.60 
   2  -2 -16  251.77   45.80 
   2  -2 -16  250.87   49.60 
  -2   2  16  497.75   62.09 
  -2   2  16  361.56   59.49 
  -2   2  16  405.76   60.49 
  -2   2  16  326.07   57.89 
  -2   2  16  388.76   70.89 
   2  -3 -17   27.00   20.10 
   2  -3 -17   15.10   14.80 
   2  -3 -17   43.60   20.00 
   2  -3 -17    7.50   19.30 
  -2   3  17   -7.90   26.30 
  -2   3  17   -5.60   35.90 
  -2   3  17   71.09   37.50 
  -2   3  17    7.70   27.50 
  -2   3  17    0.60    9.90 
   3  11  -4  404.56   80.49 
   3  11  -4  300.87   68.29 
   3  11  -4  511.35  120.99 
   3  11  -4  415.36   72.69 
  -3 -11   4  516.05   79.79 
  -3 -11   4  300.47   60.79 
  -3 -11   4  342.27   72.69 
   3  10  -5   -4.50   25.70 
   3  10  -5   10.90   43.50 
  -3 -10   5    5.70   28.00 
  -3 -10   5    4.90   28.60 
  -3 -10   5    8.80   29.20 
  -3 -10   5    7.70   32.70 
  -3 -10   5    3.50   21.10 
   3   9  -6  755.62   89.19 
  -3  -9   6  468.95   69.49 
  -3  -9   6  395.26   77.09 
  -3  -9   6  431.46   58.89 
  -3  -9   6  517.55   71.89 
  -3  -9   6  547.45   80.39 
  -3  -9   6  458.45   77.69 
   3   8  -7    9.60   20.10 
   3   8  -7   25.80   36.50 
   3   8  -7   52.49   35.90 
   3   8  -7   20.90   23.30 
  -3  -8   7   -3.90   19.00 
  -3  -8   7   37.80   29.60 
  -3  -8   7   21.60   19.60 
  -3  -8   7  -19.70   21.40 
  -3  -8   7   20.60    8.90 
  -3  -7   8  804.32   93.19 
  -3  -7   8  734.13   96.69 
  -3  -7   8  629.14   90.89 
  -3  -7   8  913.41   94.89 
  -3  -7   8  564.04   82.79 
  -3  -7   8  696.63   92.59 
   3   6  -9   25.70   26.60 
   3   6  -9   -6.10   18.90 
   3   6  -9   24.00   21.30 
   3   6  -9    0.10   20.90 
   3   6  -9   19.60   31.80 
   3   6  -9   18.70    7.30 
  -3  -6   9    3.50   17.70 
  -3  -6   9   19.70   20.40 
  -3  -6   9   33.60   26.00 
  -3  -6   9   11.70   17.80 
  -3  -6   9   23.60   19.90 
  -3  -6   9   11.90    8.00 
   3   5 -10  349.87   51.49 
   3   5 -10  395.66   57.49 
   3   5 -10  274.47   56.09 
   3   5 -10  251.77   42.60 
   3   5 -10  318.57   38.20 
   3   5 -10  481.55   58.49 
   3   5 -10  375.06   61.49 
   3   5 -10  289.27   49.20 
  -3  -5  10  267.57   50.69 
  -3  -5  10  293.97   48.20 
  -3  -5  10  236.18   56.79 
  -3  -5  10  252.37   49.99 
  -3  -5  10  219.68   45.00 
   3   4 -11   -0.40   21.00 
   3   4 -11    9.30   12.90 
   3   4 -11   -5.50   19.90 
   3   4 -11   11.60   15.40 
   3   4 -11   12.50   18.00 
  -3  -4  11   18.80   16.30 
  -3  -4  11   13.70   17.30 
  -3  -4  11  -28.80   21.90 
  -3  -4  11    5.20   12.90 
   3   3 -12  410.46   49.10 
   3   3 -12  387.16   57.89 
   3   3 -12  406.16   63.59 
   3   3 -12  383.76   58.29 
   3   3 -12  374.56   61.49 
   3   3 -12  400.26   49.80 
   3   3 -12  486.15   57.29 
  -3  -3  12  358.46   58.29 
  -3  -3  12  461.05   67.69 
  -3  -3  12  434.96   66.19 
  -3  -3  12  491.65   59.19 
  -3  -3  12  320.77   56.19 
   3   2 -13   22.60   14.30 
   3   2 -13    8.70   17.70 
   3   2 -13   11.10   19.20 
   3   2 -13   23.30    7.70 
  -3  -2  13   10.30   19.40 
  -3  -2  13   33.50   21.40 
  -3  -2  13   45.60   18.70 
  -3  -2  13   -2.10   16.40 
  -3  -2  13  -10.90   16.80 
   3   1 -14  212.28   38.20 
   3   1 -14  201.68   36.30 
   3   1 -14  182.48   31.50 
   3   1 -14  185.58   26.30 
   3   1 -14  170.18   37.80 
  -3  -1  14  222.58   45.00 
  -3  -1  14  189.08   38.60 
  -3  -1  14  237.98   41.80 
  -3  -1  14  208.28   42.20 
  -3  -1  14  195.48   40.20 
   3   0 -15   -4.10    5.30 
   3   0 -15    1.90   13.90 
   3   0 -15   32.40   20.20 
   3   0 -15    4.20   16.30 
   3   0 -15    0.50   16.20 
  -3   0  15    2.70    5.50 
  -3   0  15  -42.90   22.90 
  -3   0  15   -1.90    4.60 
  -3   0  15  -39.00   19.00 
  -3   0  15   12.70   23.60 
  -3   0  15  -12.10   25.90 
   3  -1 -16   97.59   24.70 
   3  -1 -16   65.69   13.70 
   3  -1 -16   62.09   20.50 
   3  -1 -16   51.49   25.10 
  -3   1  16   71.99   13.40 
  -3   1  16   98.19   30.90 
  -3   1  16   78.19   10.50 
  -3   1  16   30.70   29.90 
  -3   1  16   79.19   29.30 
  -3   1  16   99.09   34.60 
   3  -2 -17   45.00   21.60 
   3  -2 -17   -4.50   13.80 
   3  -2 -17   18.10    7.30 
   3  -2 -17   25.20   21.20 
  -3   2  17   10.20    9.80 
  -3   2  17  -27.50   27.10 
  -3   2  17   48.30   32.50 
  -3   2  17    7.40   39.40 
   4  10  -6  317.97   66.29 
   4  10  -6  231.58   47.90 
   4  10  -6  197.78   53.89 
   4  10  -6  156.88   42.40 
  -4 -10   6  126.09   25.00 
  -4 -10   6   90.19   39.00 
  -4 -10   6  131.49   49.80 
   4   9  -7    1.70   21.70 
   4   9  -7    4.20    7.60 
   4   9  -7   19.20   26.30 
   4   9  -7  -13.90   44.30 
   4   9  -7    2.60   34.10 
  -4  -9   7  -17.50   31.40 
  -4  -9   7   13.40   24.20 
  -4  -9   7   31.20   35.60 
  -4  -9   7    6.30   12.20 
  -4  -9   7   23.70   31.30 
   4   8  -8  513.35   93.99 
   4   8  -8  762.02   95.09 
   4   8  -8  964.90  115.29 
   4   8  -8  778.92   96.39 
   4   8  -8  672.13   81.39 
  -4  -8   8  480.85  101.09 
   4   7  -9  364.06   67.89 
   4   7  -9  334.47   39.70 
   4   7  -9  311.07   60.89 
   4   7  -9  294.17   53.59 
   4   7  -9  342.37   52.49 
  -4  -7   9  177.78   46.70 
  -4  -7   9  214.98   53.69 
   4   6 -10  224.18   28.80 
   4   6 -10  254.27   54.59 
   4   6 -10  242.58   45.70 
   4   6 -10  226.18   43.00 
   4   6 -10  218.78   48.40 
  -4  -6  10  159.38   37.50 
  -4  -6  10  185.88   44.80 
  -4  -6  10  209.68   43.40 
  -4  -6  10  184.18   36.90 
  -4  -6  10  190.58   49.50 
  -4  -6  10  124.69   38.90 
   4   5 -11  328.97   39.10 
   4   5 -11  261.27   48.30 
   4   5 -11  336.17   58.59 
   4   5 -11  399.76   64.09 
   4   5 -11  312.47   50.29 
  -4  -5  11  249.68   46.30 
  -4  -5  11  202.48   49.30 
  -4  -5  11  221.58   45.70 
  -4  -5  11  288.57   55.99 
  -4  -5  11  338.07   63.09 
   4   4 -12  965.40  132.99 
   4   4 -12 1016.50  120.09 
   4   4 -12 1100.29  120.69 
   4   4 -12 1044.00  123.19 
   4   4 -12  967.30  129.39 
   4   4 -12  997.10  134.29 
   4   4 -12  923.81  127.59 
  -4  -4  12 1132.89  128.59 
  -4  -4  12 1083.39  125.69 
  -4  -4  12 1114.19  134.59 
  -4  -4  12  992.10  129.69 
   4   3 -13  -15.50   14.80 
   4   3 -13   47.80   24.70 
   4   3 -13    2.30    5.90 
   4   3 -13    4.50   15.70 
   4   3 -13    0.50    5.60 
   4   3 -13    8.70   23.40 
  -4  -3  13   25.80   17.30 
  -4  -3  13   16.70   18.70 
  -4  -3  13   12.30   20.20 
  -4  -3  13    2.10   24.20 
  -4  -3  13   -4.10   20.50 
   4   2 -14   49.50   25.90 
   4   2 -14   15.10    7.60 
   4   2 -14  -14.10   21.90 
   4   2 -14   23.60   15.90 
   4   2 -14  -19.40   14.90 
  -4  -2  14    9.80   20.60 
   4   1 -15  194.48   39.60 
   4   1 -15  155.38   35.10 
   4   1 -15  194.68   25.20 
   4   1 -15  145.49   36.60 
  -4  -1  15   65.99   35.50 
  -4  -1  15  211.08   44.00 
  -4  -1  15  252.67   51.39 
  -4  -1  15  158.28   37.90 
   4   0 -16  210.88   36.60 
   4   0 -16  161.58   44.80 
   4   0 -16  214.68   42.30 
   4   0 -16  230.28   30.10 
  -4   0  16  203.28   27.10 
  -4   0  16  165.48   44.50 
  -4   0  16  242.78   28.80 
  -4   0  16  219.98   51.19 
  -4   0  16  191.58   47.10 
   4  -1 -17  106.39   27.20 
   4  -1 -17   69.89   14.20 
   4  -1 -17   58.69   22.70 
   4  -1 -17   80.09   33.20 
  -4   1  17   63.19   37.20 
  -4   1  17   63.19   40.30 
  -4   1  17   59.19   45.00 
  -4   1  17   51.39   39.20 
  -4   1  17   46.80   39.40 
   5   9  -8  414.26   70.29 
   5   9  -8  353.56   84.99 
   5   9  -8  287.97   36.60 
   5   9  -8  274.17   52.59 
  -5  -9   8  109.99   53.99 
  -5  -9   8  276.77   51.79 
  -5  -9   8  155.28   50.49 
  -5  -9   8  172.18   52.29 
  -5  -8   9  461.65   68.69 
  -5  -8   9  371.36   74.69 
  -5  -8   9  353.66   67.59 
  -5  -8   9  666.43   93.49 
  -5  -8   9  461.75   73.29 
   5   7 -10   41.20   23.00 
   5   7 -10   -6.50   33.90 
   5   7 -10   23.60   11.50 
   5   7 -10   67.89   45.70 
   5   7 -10   30.20   22.80 
  -5  -7  10   64.09   40.30 
  -5  -7  10   26.50   25.50 
  -5  -7  10   35.60   31.50 
  -5  -7  10   36.40   26.50 
  -5  -7  10   15.10   26.90 
   5   6 -11   39.70   13.30 
   5   6 -11   12.10   22.20 
   5   6 -11   76.69   26.40 
   5   6 -11   84.49   35.20 
  -5  -6  11    7.60   24.70 
  -5  -6  11   20.60   24.70 
  -5  -6  11   61.19   36.20 
  -5  -6  11   34.60   32.50 
   5   5 -12   34.90   13.10 
   5   5 -12   36.40   30.70 
   5   5 -12   91.89   26.70 
   5   5 -12   54.39   13.60 
   5   5 -12   41.80   27.20 
  -5  -5  12   34.90   24.60 
  -5  -5  12   38.10   31.80 
  -5  -5  12   72.79   32.70 
  -5  -5  12   79.69   41.00 
   5   4 -13   56.79   14.20 
   5   4 -13   72.99   15.90 
   5   4 -13   36.60   20.60 
   5   4 -13   37.30   32.90 
  -5  -4  13   76.39   40.10 
  -5  -4  13   59.49   29.00 
  -5  -4  13   68.29   31.40 
   5   3 -14   10.40   27.30 
   5   3 -14   10.40   19.10 
   5   3 -14   17.80   18.10 
   5   3 -14   21.80    9.00 
  -5  -3  14   22.50   28.30 
  -5  -3  14   -0.20   31.50 
  -5  -3  14    8.50   24.10 
  -5  -3  14   15.10   23.80 
   5   2 -15  279.57   44.40 
   5   2 -15  223.98   33.80 
   5   2 -15  199.88   36.80 
   5   2 -15  213.78   48.10 
   5   2 -15  243.58   48.00 
  -5  -2  15  254.97   49.20 
  -5  -2  15  287.47   56.99 
  -5  -2  15  273.97   60.99 
  -5  -2  15  294.07   48.90 
   5   1 -16    4.30   30.90 
   5   1 -16   -1.20   25.20 
   5   1 -16   -1.10    7.30 
   5   1 -16    0.10   17.40 
  -5  -1  16  -16.80   27.50 
  -5  -1  16    5.40   36.10 
  -5  -1  16   12.00   26.70 
   5   0 -17   -0.20   22.40 
   5   0 -17    8.80   18.90 
   5   0 -17   -3.20    9.50 
  -5   0  17   18.30   36.00 
  -5   0  17  -30.90   29.20 
  -5   0  17    4.90    6.10 
  -5   0  17   33.50   40.50 
   6   8 -10  224.18   32.10 
   6   8 -10  227.88   47.90 
   6   8 -10  184.88   57.19 
   6   8 -10  249.78   50.89 
  -6  -8  10  113.79   42.40 
  -6  -8  10  199.98   51.99 
  -6  -8  10  316.07   75.39 
  -6  -8  10  154.08   59.69 
   6   7 -11    9.20   38.20 
   6   7 -11    3.10   23.20 
   6   7 -11    3.70   10.30 
   6   7 -11   -8.60   11.10 
   6   7 -11   11.50   25.80 
  -6  -7  11   -2.10   32.80 
  -6  -7  11  -11.80   29.80 
  -6  -7  11    7.70   38.70 
   6   6 -12  980.80  141.19 
   6   6 -12 1337.77  156.68 
   6   6 -12 1154.28  137.29 
  -6  -6  12 1372.16  156.48 
  -6  -6  12 1060.59  157.78 
  -6  -6  12 1316.57  167.98 
   6   5 -13   37.70   23.90 
   6   5 -13   24.60   33.90 
   6   5 -13   35.10   14.50 
  -6  -5  13    7.70   36.70 
  -6  -5  13   11.90   41.10 
   6   4 -14  252.57   33.30 
   6   4 -14  177.88   40.10 
   6   4 -14  232.28   53.29 
   6   4 -14  196.48   30.60 
  -6  -4  14  259.57   64.39 
   6   3 -15  -12.60   28.30 
   6   3 -15    4.00    9.10 
   6   3 -15   -3.30   20.40 
   6   3 -15    1.20    9.90 
  -6  -3  15   45.40   50.89 
  -6  -3  15  -15.40   25.00 
  -6  -3  15  -45.30   34.50 
   6   2 -16   37.80   12.20 
   6   2 -16   18.00   29.90 
   6   2 -16   33.60   23.30 
   6   2 -16    6.30   21.80 
  -6  -2  16   37.60   31.00 
  -6  -2  16   46.20   42.20 
  -6  -2  16   88.89   46.20 
 -11   4   1  275.57   41.70 
 -11   4   1  180.78   42.10 
 -11   4   1  286.57   59.79 
  11  -4  -1  342.87   38.80 
 -11   3   0   43.90   29.40 
 -11   3   0   36.00   21.10 
 -11   3   0   51.59   14.00 
 -11   3   0   58.39   14.80 
  11  -3   0   67.89   14.90 
 -11   2  -1  327.37   35.90 
 -11   2  -1  280.37   35.80 
  11  -2   1  290.87   39.60 
 -11   1  -2   36.90   30.40 
 -11   1  -2   24.50   18.80 
  11  -1   2    2.70    6.30 
  11  -1   2   13.70   16.70 
 -11   0  -3    2.50   25.10 
 -11   0  -3    0.10    7.80 
 -11   0  -3   42.30   11.20 
 -11   0  -3  -16.50   32.20 
 -11   0  -3    4.80   17.00 
  11   0   3    0.90    7.00 
  11   0   3    1.90    6.80 
 -11  -1  -4   23.80   32.60 
 -11  -1  -4  -12.70   11.30 
 -11  -1  -4   31.90   16.70 
  11   1   4    0.10    7.60 
  11   1   4   27.50   17.50 
  11   1   4    4.40    6.30 
 -11  -2  -5  324.17   56.09 
 -11  -2  -5  376.86   52.19 
 -11  -2  -5  319.17   43.50 
 -11  -2  -5  295.27   50.89 
  11   2   5  243.48   38.10 
 -10   6   2  216.18   36.10 
 -10   6   2  232.38   42.10 
 -10   6   2  132.19   21.70 
 -10   6   2  106.49   22.80 
 -10   6   2  200.38   26.30 
  10  -6  -2  196.28   27.30 
 -10   5   1  333.17   46.50 
 -10   5   1  323.07   49.00 
 -10   5   1  347.17   53.59 
 -10   5   1  359.46   64.39 
  10  -5  -1  319.87   44.30 
 -10   4   0  881.31  119.39 
 -10   4   0 1077.69  118.89 
 -10   3  -1   -4.20   26.50 
 -10   3  -1   -0.70   11.10 
 -10   3  -1    1.00    8.80 
 -10   3  -1  -15.90   20.90 
 -10   3  -1   14.30   15.00 
  10  -3   1    8.10    8.00 
 -10   2  -2   14.40    8.50 
 -10   2  -2    4.60   23.00 
 -10   2  -2   15.40   16.50 
 -10   2  -2   18.90    6.40 
 -10   2  -2   24.20   28.30 
 -10   1  -3  223.48   35.30 
 -10   1  -3  206.18   24.90 
 -10   1  -3  216.28   25.60 
  10  -1   3  196.88   29.20 
 -10   0  -4  128.19   20.70 
 -10   0  -4  211.28   38.10 
 -10   0  -4  111.99   18.90 
 -10   0  -4  290.17   51.99 
 -10   0  -4  138.89   28.60 
  10   0   4  125.19   21.00 
  10   0   4  116.39   21.80 
  10   0   4  199.98   30.90 
 -10  -1  -5  280.67   43.40 
 -10  -1  -5  238.98   35.30 
 -10  -1  -5  314.47   49.10 
 -10  -2  -6   13.90   19.00 
 -10  -2  -6   24.70   20.30 
 -10  -2  -6   16.90   13.60 
  10   2   6   19.90    9.40 
  10   2   6   46.00   10.90 
 -10  -3  -7   -6.50    7.70 
 -10  -3  -7    1.00   20.50 
 -10  -3  -7    2.90   15.10 
 -10  -3  -7   -3.60   19.10 
 -10  -3  -7   28.00    8.60 
  10   3   7    7.20    7.90 
  10   3   7   -3.00   11.90 
  10   3   7   19.40   12.90 
  10   3   7    5.30    7.90 
  10   3   7   10.70   11.10 
 -10  -4  -8  429.26   71.29 
 -10  -4  -8  527.95   67.89 
 -10  -4  -8  371.06   55.09 
 -10  -4  -8  427.36   62.09 
 -10  -4  -8  372.56   55.29 
  10   4   8  555.74   62.19 
  10   4   8  491.45   55.09 
  10   4   8  434.26   56.19 
  10   4   8  401.96   53.99 
  -9   7   2  122.19   30.30 
  -9   7   2  183.08   30.70 
  -9   7   2  210.68   28.30 
  -9   7   2  194.48   34.40 
  -9   7   2  187.38   32.10 
   9  -7  -2  240.28   28.30 
  -9   6   1   11.70   11.60 
  -9   6   1   -5.80   15.00 
  -9   6   1  -27.40   26.10 
  -9   6   1   25.10   30.80 
  -9   6   1   37.10   17.90 
  -9   6   1    7.50    9.50 
  -9   6   1   11.10   23.90 
  -9   6   1    6.40   12.80 
   9  -6  -1   12.30    8.00 
   9  -6  -1   22.70   13.80 
  -9   5   0  341.97   42.40 
  -9   5   0  190.78   42.40 
  -9   5   0  370.26   46.90 
  -9   5   0  205.48   34.10 
  -9   5   0  366.96   60.09 
  -9   5   0  280.37   38.40 
  -9   5   0  308.97   32.60 
   9  -5   0  348.27   36.80 
   9  -5   0  222.38   32.20 
   9  -5   0  278.27   33.20 
  -9   4  -1   -8.80   12.30 
  -9   4  -1   19.00   20.30 
  -9   4  -1   19.80   12.40 
  -9   4  -1   10.80   23.00 
  -9   4  -1   -7.80   14.30 
  -9   4  -1    9.10   11.20 
   9  -4   1   10.50    6.40 
  -9   3  -2  673.03   75.69 
  -9   3  -2  513.65   77.69 
  -9   3  -2  735.43   84.19 
  -9   3  -2  886.11   98.49 
   9  -3   2  577.14   77.29 
  -9   2  -3  406.66   50.99 
  -9   2  -3  386.26   56.59 
   9  -2   3  512.35   54.09 
  -9   1  -4  888.41   94.39 
  -9   1  -4  725.33   99.69 
  -9   1  -4  791.62   94.19 
   9  -1   4  833.22   97.09 
   9  -1   4  852.11   95.79 
  -9   0  -5   55.39   30.00 
  -9   0  -5    1.90    6.80 
  -9   0  -5   -8.40    9.50 
  -9   0  -5    7.30   14.50 
   9   0   5  -10.90    3.70 
   9   0   5    4.30    9.50 
  -9  -1  -6  467.05   60.29 
  -9  -1  -6  524.95   62.79 
  -9  -1  -6  460.15   65.09 
   9   1   6  463.75   59.39 
   9   1   6  498.85   57.99 
  -9  -2  -7    7.20   17.70 
  -9  -2  -7   48.30    9.90 
  -9  -2  -7   17.50   12.20 
  -9  -2  -7   25.20    9.00 
  -9  -2  -7   34.60   21.10 
   9   2   7    9.10   17.00 
   9   2   7   46.30   11.30 
   9   2   7   32.00    8.80 
   9   2   7   31.60   11.50 
   9   2   7   67.29   15.80 
  -9  -3  -8   97.89   20.00 
  -9  -3  -8  115.49   19.30 
  -9  -3  -8  184.38   33.40 
  -9  -3  -8   96.39   28.10 
  -9  -3  -8   91.49   22.10 
   9   3   8  114.09   17.10 
   9   3   8   80.29   19.40 
   9   3   8   97.79   22.20 
  -9  -4  -9   34.90   26.60 
  -9  -4  -9   49.90   18.10 
  -9  -4  -9   68.29   22.10 
   9   4   9   97.59   21.40 
   9   4   9   46.60   19.10 
   9   4   9   77.39   14.60 
   9   4   9   62.39   20.30 
  -8   8   2  -10.40   16.90 
  -8   8   2   14.80   19.30 
  -8   8   2   -9.80   23.60 
  -8   8   2  -28.80   21.90 
  -8   8   2    8.10   22.20 
  -8   8   2    1.70   10.50 
   8  -8  -2  -20.60   19.30 
   8  -8  -2   36.80   19.20 
   8  -8  -2   12.10    7.10 
  -8   7   1  266.67   44.20 
  -8   7   1  255.07   40.40 
  -8   7   1  241.88   46.80 
  -8   7   1  403.16   51.59 
  -8   7   1  344.27   58.49 
  -8   7   1  317.07   49.20 
  -8   7   1  296.67   42.90 
  -8   7   1  344.17   65.19 
   8  -7  -1  340.17   45.90 
   8  -7  -1  332.27   39.10 
   8  -7  -1  321.77   44.20 
  -8   6   0  422.56   47.30 
  -8   6   0  353.76   50.89 
  -8   6   0  308.97   52.59 
  -8   6   0  351.06   64.09 
  -8   6   0  328.37   44.00 
  -8   6   0  433.86   60.59 
  -8   6   0  315.27   45.60 
  -8   6   0  322.27   52.59 
   8  -6   0  289.17   44.70 
   8  -6   0  372.86   43.10 
  -8   5  -1  506.65   61.09 
  -8   5  -1  470.75   49.40 
  -8   5  -1  429.76   54.59 
  -8   5  -1  267.67   54.89 
  -8   5  -1  567.74   70.69 
  -8   5  -1  431.86   51.19 
  -8   5  -1  408.96   52.59 
   8  -5   1  390.06   49.10 
   8  -5   1  316.67   48.10 
   8  -5   1  398.26   49.60 
  -8   4  -2   13.50   21.70 
  -8   4  -2   10.50   10.00 
  -8   4  -2   -1.30   11.50 
  -8   4  -2   -6.60   14.30 
  -8   4  -2    2.30    2.50 
  -8   4  -2   11.20   11.60 
  -8   4  -2   24.90   17.60 
   8  -4   2   36.80    9.40 
   8  -4   2    0.90    3.50 
  -8   3  -3   93.39   20.50 
  -8   3  -3   90.49   20.60 
  -8   3  -3  170.68   40.80 
  -8   3  -3  158.28   27.40 
  -8   3  -3  121.39   20.90 
   8  -3   3   87.39   16.90 
  -8   2  -4 1249.57  155.88 
   8  -2   4 1418.06  153.48 
  -8   1  -5  596.24   73.59 
  -8   1  -5  675.43   79.09 
  -8   1  -5  536.15   77.39 
  -8   1  -5  716.03   74.49 
   8  -1   5  615.04   73.19 
   8  -1   5  624.14   74.59 
  -8   0  -6  115.09   25.20 
  -8   0  -6  119.69   22.80 
  -8   0  -6  136.19   21.00 
  -8   0  -6  118.59   19.90 
   8   0   6  145.39   16.80 
   8   0   6  134.79   17.80 
   8   0   6  124.89   18.20 
   8   0   6  120.19   17.50 
   8   0   6  151.08   17.00 
   8   0   6  138.99   20.40 
   8   0   6  144.29   23.30 
  -8  -1  -7  236.08   41.40 
  -8  -1  -7  289.07   33.60 
  -8  -1  -7  296.67   40.20 
  -8  -1  -7  269.17   32.70 
  -8  -1  -7  270.77   33.30 
  -8  -1  -7  239.98   35.50 
   8   1   7  227.58   33.10 
   8   1   7  235.48   33.60 
   8   1   7  263.17   32.70 
   8   1   7  255.37   33.60 
   8   1   7  263.77   37.50 
   8   1   7  267.17   34.70 
  -8  -2  -8  678.03   88.99 
  -8  -2  -8  641.84   82.19 
  -8  -2  -8  766.62   89.79 
  -8  -2  -8  766.92   83.59 
  -8  -2  -8  807.22   85.79 
   8   2   8  763.32   83.69 
   8   2   8  725.73   83.19 
   8   2   8  667.63   81.39 
   8   2   8  636.54   83.29 
   8   2   8  708.43   86.89 
   8   2   8  584.74   84.09 
  -8  -3  -9   72.69   28.00 
  -8  -3  -9   37.70   13.70 
  -8  -3  -9   48.00   14.40 
  -8  -3  -9   22.40   16.60 
  -8  -3  -9   41.20   15.60 
   8   3   9   33.70   14.10 
   8   3   9   34.10   12.70 
   8   3   9   26.00    8.10 
   8   3   9   17.90   13.80 
  -8  -4 -10   21.50   15.30 
  -8  -4 -10   19.80   16.50 
  -8  -4 -10   -0.90   18.60 
  -8  -4 -10   30.30   17.00 
   8   4  10   13.80   11.90 
   8   4  10   13.00   15.70 
   8   4  10   17.70    6.90 
   8   4  10    2.30   15.60 
  -8  -5 -11  214.98   43.60 
  -8  -5 -11  191.88   36.20 
  -8  -5 -11  230.58   41.10 
   8   5  11  184.78   37.00 
   8   5  11  188.68   36.70 
   8   5  11  252.27   36.40 
  -7   9   2  200.68   57.59 
  -7   9   2  156.08   40.60 
  -7   9   2  162.28   36.20 
  -7   9   2  254.47   46.80 
  -7   9   2  121.99   38.20 
   7  -9  -2  260.87   40.80 
   7  -9  -2  250.17   29.80 
   7  -9  -2  263.97   45.20 
  -7   8   1  292.77   46.70 
  -7   8   1  238.78   47.30 
  -7   8   1  235.38   45.90 
  -7   8   1  413.46   53.29 
  -7   8   1  291.07   60.19 
  -7   8   1  218.88   49.40 
  -7   8   1  283.87   38.10 
   7  -8  -1  336.87   49.99 
   7  -8  -1  282.17   46.30 
   7  -8  -1  373.96   39.40 
  -7   7   0   98.39   24.50 
  -7   7   0  162.28   33.30 
  -7   7   0  104.19   28.30 
  -7   7   0  124.79   21.50 
  -7   7   0  139.89   27.70 
  -7   7   0  120.99   37.70 
  -7   7   0  181.58   49.20 
  -7   7   0  146.79   31.60 
   7  -7   0  134.99   27.70 
   7  -7   0  186.98   21.70 
   7  -7   0  143.09   28.30 
  -7   6  -1   36.50   22.70 
  -7   6  -1    7.50   22.00 
  -7   6  -1   18.20   13.00 
  -7   6  -1   13.80   10.90 
  -7   6  -1    3.10    7.40 
  -7   6  -1   19.20   16.40 
  -7   6  -1   -9.00   15.00 
  -7   6  -1   21.50   18.20 
   7  -6   1    0.80    4.50 
   7  -6   1   14.80   12.90 
   7  -6   1   16.60   12.80 
   7  -6   1   -1.20   13.50 
  -7   5  -2   30.70   10.60 
  -7   5  -2    7.50   16.50 
  -7   5  -2   35.60   10.90 
  -7   5  -2   50.49   15.10 
  -7   5  -2   13.40    9.10 
  -7   5  -2   33.80   15.80 
  -7   5  -2   21.30   22.10 
  -7   5  -2    9.80   17.50 
   7  -5   2   29.50    9.00 
   7  -5   2   19.80   11.50 
   7  -5   2   33.10   11.40 
  -7   4  -3  356.16   50.79 
  -7   4  -3  304.37   56.69 
  -7   4  -3  411.46   49.60 
  -7   4  -3  502.95   50.69 
  -7   4  -3  450.95   51.49 
   7  -4   3  420.56   50.89 
   7  -4   3  519.45   51.19 
   7  -4   3  369.86   49.70 
   7  -4   3  427.96   50.99 
  -7   3  -4  687.73   85.19 
  -7   3  -4  796.62   82.69 
  -7   3  -4  623.54   86.79 
  -7   3  -4  645.84   85.89 
  -7   3  -4  807.52   82.99 
  -7   3  -4  664.83   82.99 
   7  -3   4  856.01   86.19 
   7  -3   4  823.12   85.79 
   7  -3   4  600.74   82.59 
   7  -3   4  833.62   84.09 
  -7   2  -5  439.26   58.59 
  -7   2  -5  449.86   62.39 
  -7   2  -5  476.75   59.69 
  -7   2  -5  529.15   55.89 
  -7   2  -5  402.86   58.79 
   7  -2   5  442.36   56.19 
   7  -2   5  565.94   57.19 
   7  -2   5  545.85   56.29 
   7  -2   5  547.35   59.49 
  -7   1  -6  511.25   52.29 
  -7   1  -6  430.26   47.60 
  -7   1  -6  328.57   55.39 
  -7   1  -6  339.47   49.99 
  -7   1  -6  410.96   47.10 
  -7   1  -6  401.26   49.40 
  -7   1  -6  368.26   52.99 
  -7   1  -6  368.76   48.40 
   7  -1   6  491.75   53.19 
   7  -1   6  384.46   53.79 
   7  -1   6  420.66   48.30 
   7  -1   6  351.46   47.30 
   7  -1   6  412.86   48.00 
   7  -1   6  430.96   49.80 
   7  -1   6  410.16   48.40 
   7  -1   6  418.96   47.60 
  -7   0  -7    1.00   16.70 
  -7   0  -7    9.00    6.90 
  -7   0  -7    9.10    5.90 
  -7   0  -7   -3.10    5.60 
  -7   0  -7    8.80   11.00 
  -7   0  -7    8.70   11.40 
   7   0   7   -1.80    7.50 
   7   0   7    3.70    3.90 
   7   0   7   -0.20    6.60 
   7   0   7   -0.40    6.20 
   7   0   7    3.60    6.40 
   7   0   7    9.90    6.60 
   7   0   7    1.40   10.00 
   7   0   7    1.00    7.90 
  -7  -1  -8   18.00    9.10 
  -7  -1  -8   -6.00   12.50 
  -7  -1  -8    0.00    7.70 
  -7  -1  -8  -14.70   20.40 
  -7  -1  -8   14.70    6.10 
  -7  -1  -8   21.90   15.20 
  -7  -1  -8    9.60   13.20 
  -7  -1  -8   27.20   11.10 
   7   1   8   19.00   10.10 
   7   1   8    6.00    8.40 
   7   1   8   16.10    5.10 
   7   1   8   11.10    6.80 
   7   1   8    4.50    7.30 
   7   1   8   10.20    9.10 
  -7  -2  -9  406.96   54.49 
  -7  -2  -9  411.66   55.99 
  -7  -2  -9  496.75   62.89 
  -7  -2  -9  474.65   54.59 
  -7  -2  -9  391.76   57.69 
   7   2   9  386.56   54.29 
   7   2   9  454.55   51.59 
   7   2   9  481.65   57.99 
   7   2   9  410.26   53.59 
   7   2   9  444.76   54.79 
  -7  -3 -10   99.89   28.70 
  -7  -3 -10   47.40   15.90 
  -7  -3 -10   53.29   17.40 
  -7  -3 -10   63.89   15.80 
   7   3  10   44.50    9.90 
   7   3  10   42.70   15.80 
   7   3  10   45.40   15.70 
   7   3  10   39.50   14.50 
   7   3  10   48.70   17.50 
  -7  -4 -11  104.69   24.90 
  -7  -4 -11  135.59   27.40 
  -7  -4 -11  127.19   29.50 
   7   4  11  121.69   26.60 
   7   4  11  112.79   17.50 
   7   4  11  118.19   24.90 
  -7  -5 -12   57.69   24.80 
  -7  -5 -12   -9.60   20.70 
  -7  -5 -12    2.30   18.30 
  -7  -5 -12   13.70   16.80 
   7   5  12    8.60   17.10 
   7   5  12    3.20    6.60 
   7   5  12    3.30    9.30 
   7   5  12  -26.30   21.30 
  -6  10   2   99.59   36.80 
  -6  10   2  188.88   49.90 
  -6  10   2  117.59   36.10 
  -6  10   2  172.58   42.30 
  -6  10   2  114.99   46.30 
  -6  10   2   84.99   40.10 
   6 -10  -2  183.08   32.60 
   6 -10  -2  147.59   27.90 
   6 -10  -2  154.48   46.80 
   6 -10  -2  227.48   26.50 
   6 -10  -2  172.98   38.80 
  -6   9   1    7.10   16.40 
  -6   9   1   40.30   24.10 
  -6   9   1    0.80   26.70 
  -6   9   1   30.20   32.40 
  -6   9   1   24.90   22.80 
   6  -9  -1   48.50   10.90 
   6  -9  -1    5.80   10.90 
   6  -9  -1    9.30   30.80 
   6  -9  -1   -1.80   17.30 
  -6   8   0  267.87   50.69 
  -6   8   0  265.17   44.90 
  -6   8   0  240.68   46.10 
  -6   8   0  278.47   49.00 
  -6   8   0  371.36   64.49 
   6  -8   0  326.57   50.59 
   6  -8   0  392.16   53.99 
   6  -8   0  375.56   40.50 
   6  -8   0  302.07   36.80 
  -6   7  -1    2.90   12.60 
  -6   7  -1    3.60   21.20 
  -6   7  -1   -8.80   29.60 
  -6   7  -1  -10.60   21.80 
  -6   7  -1    8.90   18.10 
  -6   7  -1    7.80   16.50 
   6  -7   1    5.70    5.50 
   6  -7   1   -8.80   16.30 
   6  -7   1   -3.20   14.00 
  -6   6  -2  511.65   60.09 
  -6   6  -2  353.46   64.89 
  -6   6  -2  394.56   56.99 
  -6   6  -2  479.75   61.79 
  -6   6  -2  387.96   59.99 
  -6   6  -2  475.75   63.19 
   6  -6   2  507.15   60.69 
   6  -6   2  514.35   60.39 
   6  -6   2  436.66   58.69 
  -6   5  -3  304.57   49.99 
  -6   5  -3  372.66   48.40 
  -6   5  -3  459.95   52.79 
  -6   5  -3  415.36   54.39 
  -6   5  -3  450.25   57.19 
  -6   5  -3  312.37   53.69 
  -6   5  -3  316.87   57.39 
  -6   5  -3  554.04   71.59 
   6  -5   3  383.26   51.69 
   6  -5   3  448.76   51.19 
   6  -5   3  466.95   52.79 
   6  -5   3  446.56   63.29 
   6  -5   3  410.76   48.80 
   6  -5   3  413.36   52.19 
  -6   4  -4  488.25   55.99 
  -6   4  -4  466.85   57.29 
  -6   4  -4  426.26   57.69 
  -6   4  -4  449.26   58.89 
  -6   4  -4  548.55   58.39 
  -6   4  -4  408.66   53.89 
   6  -4   4  482.85   58.19 
   6  -4   4  484.05   56.29 
   6  -4   4  467.35   66.99 
   6  -4   4  540.25   58.39 
  -6   3  -5    5.30    6.10 
  -6   3  -5    7.20    6.70 
  -6   3  -5  -10.20   20.70 
  -6   3  -5    1.00    6.60 
  -6   3  -5   15.00   14.00 
  -6   3  -5    4.80    6.60 
  -6   3  -5   -6.50    9.20 
  -6   3  -5    0.00    4.00 
  -6   3  -5    4.90    6.00 
   6  -3   5   -6.90    7.70 
   6  -3   5    8.00    5.10 
   6  -3   5    5.30    7.60 
   6  -3   5   12.60   13.80 
   6  -3   5   14.00    6.70 
  -6   2  -6  931.41  124.89 
  -6   2  -6 1154.38  125.29 
  -6   2  -6 1003.60  125.19 
  -6   2  -6 1033.40  128.19 
  -6   2  -6 1133.59  126.19 
   6  -2   6 1200.48  126.49 
   6  -2   6 1116.39  126.09 
   6  -2   6 1204.18  128.79 
   6  -2   6 1084.59  132.29 
   6  -2   6 1171.88  126.59 
  -6   1  -7   95.99   30.10 
  -6   1  -7   53.69   10.50 
  -6   1  -7   45.80   10.10 
  -6   1  -7   51.79   10.80 
  -6   1  -7   69.39   17.50 
  -6   1  -7   79.29   16.80 
   6  -1   7   60.09   17.00 
   6  -1   7   48.70   10.60 
   6  -1   7   71.29   14.90 
   6  -1   7   63.39   11.60 
   6  -1   7   59.79    9.00 
   6  -1   7   62.19   13.10 
   6  -1   7   37.80   11.50 
   6  -1   7   52.99   12.00 
  -6   0  -8 3374.36  437.16 
  -6   0  -8 4106.29  437.76 
  -6   0  -8 3792.52  435.16 
  -6   0  -8 3502.85  440.26 
  -6   0  -8 3878.71  439.96 
  -6   0  -8 4100.29  436.06 
  -6   0  -8 3686.03  433.36 
   6   0   8 4042.40  436.26 
   6   0   8 4036.20  433.46 
   6   0   8 4375.36  436.46 
   6   0   8 3688.93  435.56 
   6   0   8 3988.40  437.56 
   6   0   8 4356.16  439.56 
   6   0   8 4031.30  438.36 
   6   0   8 3376.76  434.86 
  -6  -1  -9  160.78   24.40 
  -6  -1  -9  159.28   26.20 
  -6  -1  -9  143.69   24.10 
  -6  -1  -9  169.28   29.90 
  -6  -1  -9  168.88   20.30 
  -6  -1  -9  113.69   32.40 
  -6  -1  -9  177.08   29.10 
  -6  -1  -9  125.69   28.30 
   6   1   9  163.98   23.00 
   6   1   9  151.38   20.10 
   6   1   9  123.89   24.10 
   6   1   9  182.58   26.10 
   6   1   9  157.08   25.10 
   6   1   9  175.88   26.10 
   6   1   9  169.48   26.70 
   6   1   9  194.98   26.80 
  -6  -2 -10  437.46   57.69 
  -6  -2 -10  415.66   53.39 
  -6  -2 -10  489.45   54.69 
  -6  -2 -10  446.86   55.39 
   6   2  10  396.16   48.60 
   6   2  10  444.16   49.20 
   6   2  10  414.16   52.79 
   6   2  10  406.96   54.79 
   6   2  10  486.65   56.19 
   6   2  10  427.96   54.29 
   6   2  10  371.86   51.39 
   6   2  10  349.37   52.69 
  -6  -3 -11   22.20   12.50 
  -6  -3 -11   -6.20   12.30 
  -6  -3 -11   -7.30   10.10 
   6   3  11    8.50   12.20 
   6   3  11   25.90    8.30 
   6   3  11   13.40   10.50 
   6   3  11    9.50    4.50 
   6   3  11   -0.10   12.70 
   6   3  11    3.40    7.70 
   6   3  11   30.00   15.00 
   6   3  11    4.20    9.00 
   6   3  11  -12.20   13.30 
  -6  -4 -12   -4.50   13.10 
  -6  -4 -12   -1.00   15.30 
  -6  -4 -12  -13.60   18.40 
  -6  -4 -12    2.70   14.60 
   6   4  12   -0.50    7.80 
   6   4  12   -0.10    4.60 
   6   4  12    4.80   16.60 
   6   4  12    0.40   16.30 
   6   4  12   10.60   15.90 
   6   4  12   -3.60   12.80 
  -6  -5 -13   75.69   25.60 
  -6  -5 -13   27.20   20.50 
  -6  -5 -13   42.30   18.50 
  -6  -5 -13    8.00   17.30 
   6   5  13   37.90   13.10 
   6   5  13    1.60   25.10 
   6   5  13   36.40   24.70 
   6   5  13   -3.70   17.40 
   6   5  13   -8.10   18.20 
   6   5  13   23.50    7.80 
  -5  10   1  245.58   62.29 
  -5  10   1  143.59   39.70 
  -5  10   1  238.78   49.00 
  -5  10   1  229.88   54.19 
  -5  10   1  243.58   46.00 
  -5  10   1  122.49   42.50 
   5 -10  -1  299.87   40.90 
   5 -10  -1  247.38   44.70 
   5 -10  -1  246.98   31.50 
   5 -10  -1  284.47   53.99 
  -5   9   0  208.28   49.20 
  -5   9   0  223.68   46.70 
  -5   9   0  216.18   53.19 
  -5   9   0  299.47   50.79 
  -5   9   0  221.68   44.00 
  -5   9   0  166.78   41.30 
   5  -9   0  356.66   55.09 
   5  -9   0  342.77   48.80 
   5  -9   0  262.97   39.50 
   5  -9   0  219.08   39.90 
   5  -9   0  298.57   34.20 
  -5   8  -1  243.28   51.99 
  -5   8  -1  335.67   53.89 
  -5   8  -1  314.47   62.19 
  -5   8  -1  302.67   50.29 
  -5   8  -1  269.17   49.10 
  -5   8  -1  221.08   46.10 
   5  -8   1  332.07   40.00 
   5  -8   1  355.56   43.50 
   5  -8   1  397.36   50.89 
   5  -8   1  439.26   56.69 
   5  -8   1  310.07   44.20 
  -5   7  -2    8.50   22.00 
  -5   7  -2   25.10   19.20 
  -5   7  -2   22.70   18.60 
  -5   7  -2   12.60   16.40 
  -5   7  -2   31.50   15.60 
  -5   7  -2   28.80   20.80 
   5  -7   2   16.60    9.90 
   5  -7   2   17.80    7.70 
   5  -7   2   14.90   16.80 
   5  -7   2   17.30   15.60 
   5  -7   2   11.10    8.80 
  -5   6  -3  506.65   68.19 
  -5   6  -3  241.98   53.59 
  -5   6  -3  473.75   58.49 
  -5   6  -3  414.26   52.49 
  -5   6  -3  316.67   51.09 
  -5   6  -3  263.37   48.60 
   5  -6   3  344.77   43.40 
   5  -6   3  457.15   56.09 
   5  -6   3  365.26   60.59 
   5  -6   3  368.26   43.40 
   5  -6   3  410.16   45.30 
   5  -6   3  413.36   51.29 
   5  -6   3  368.06   51.89 
  -5   5  -4  237.98   37.30 
  -5   5  -4  189.38   27.30 
  -5   5  -4  144.29   21.40 
  -5   5  -4  124.09   26.40 
  -5   5  -4  125.29   24.30 
  -5   5  -4  160.48   41.40 
  -5   5  -4  156.58   29.40 
  -5   5  -4  121.09   29.50 
   5  -5   4  219.38   29.60 
   5  -5   4  136.59   33.30 
   5  -5   4  140.69   26.70 
   5  -5   4  148.79   20.80 
  -5   4  -5  734.53   83.29 
  -5   4  -5  715.43   87.99 
  -5   4  -5  807.02   88.09 
  -5   4  -5  585.84   88.59 
  -5   4  -5  651.53   85.79 
  -5   4  -5  675.63   82.39 
   5  -4   5  893.91   90.49 
   5  -4   5  673.23   92.69 
   5  -4   5  795.92   84.79 
   5  -4   5  839.12   87.39 
   5  -4   5  664.73   85.89 
  -5   3  -6  242.88   32.10 
  -5   3  -6  211.58   28.70 
  -5   3  -6  221.08   29.00 
  -5   3  -6  211.08   31.20 
  -5   3  -6  165.78   32.00 
  -5   3  -6  354.36   53.49 
  -5   3  -6  195.28   27.30 
  -5   3  -6  262.97   31.30 
   5  -3   6  290.67   34.90 
   5  -3   6  247.88   54.49 
   5  -3   6  213.88   31.60 
   5  -3   6  251.77   30.60 
   5  -3   6  250.77   29.10 
   5  -3   6  179.88   29.20 
  -5   2  -7  155.08   19.40 
  -5   2  -7  116.69   21.70 
  -5   2  -7  154.58   20.00 
  -5   2  -7  154.48   22.30 
  -5   2  -7  142.49   24.70 
  -5   2  -7  171.48   38.70 
  -5   2  -7  146.69   23.40 
  -5   2  -7  188.08   25.50 
   5  -2   7  168.38   22.80 
   5  -2   7  158.68   23.80 
   5  -2   7  145.99   20.70 
   5  -2   7  118.19   21.10 
   5  -2   7  166.58   30.20 
  -5   1  -8  162.78   26.20 
  -5   1  -8  204.78   30.30 
  -5   1  -8  174.78   29.90 
  -5   1  -8  180.88   22.20 
  -5   1  -8  193.88   25.10 
  -5   1  -8  162.68   37.50 
  -5   1  -8  135.69   27.10 
  -5   1  -8  182.48   25.60 
   5  -1   8  203.48   26.60 
   5  -1   8  173.58   29.50 
   5  -1   8  157.08   25.90 
   5  -1   8  191.98   23.80 
   5  -1   8  144.39   24.20 
   5  -1   8  171.58   26.20 
  -5   0  -9   -0.10   14.50 
  -5   0  -9    2.80    9.00 
  -5   0  -9   -1.30    7.90 
  -5   0  -9   16.70   13.70 
  -5   0  -9    2.90    3.10 
  -5   0  -9   -4.10   11.30 
  -5   0  -9    4.90    7.00 
   5   0   9   -3.10    1.90 
   5   0   9   -1.20    5.50 
   5   0   9    4.20    7.40 
   5   0   9    4.80    4.50 
   5   0   9   29.70   10.50 
   5   0   9   -4.30   11.80 
   5   0   9   -2.90    8.70 
   5   0   9   -4.00    4.60 
  -5  -1 -10   59.09   13.60 
  -5  -1 -10   41.00   14.50 
  -5  -1 -10   50.19   20.90 
  -5  -1 -10   48.60   14.30 
  -5  -1 -10   47.20   13.80 
  -5  -1 -10   51.79   19.00 
   5   1  10   36.80   12.60 
   5   1  10   40.10   13.60 
   5   1  10   47.70   11.70 
   5   1  10   23.50   11.30 
   5   1  10   54.19   15.90 
   5   1  10   36.90    7.00 
   5   1  10   55.89   11.10 
   5   1  10   24.80   14.40 
   5   1  10   52.09   12.60 
   5   1  10   60.79   14.30 
  -5  -2 -11  615.24   81.49 
  -5  -2 -11  600.14   81.79 
  -5  -2 -11  749.42   83.19 
  -5  -2 -11  626.24   85.89 
   5   2  11  603.14   82.09 
   5   2  11  638.14   78.69 
   5   2  11  683.23   81.29 
   5   2  11  703.03   81.19 
   5   2  11  667.63   78.89 
   5   2  11  663.83   74.39 
   5   2  11  690.93   81.29 
   5   2  11  599.34   76.99 
  -5  -3 -12  322.07   46.60 
  -5  -3 -12  312.17   47.70 
  -5  -3 -12  345.97   48.50 
  -5  -3 -12  362.26   48.00 
   5   3  12  355.46   50.79 
   5   3  12  362.66   46.90 
   5   3  12  295.57   42.40 
   5   3  12  392.66   48.30 
   5   3  12  358.06   40.60 
   5   3  12  341.57   48.60 
   5   3  12  314.27   47.10 
  -5  -4 -13   80.39   23.70 
  -5  -4 -13   84.49   25.10 
  -5  -4 -13   73.59   21.90 
   5   4  13   67.89   20.60 
   5   4  13  100.19   13.70 
   5   4  13   82.99   25.00 
   5   4  13   64.49   41.70 
   5   4  13   97.09   24.80 
   5   4  13  113.99   22.20 
  -5  -5 -14   -2.10   16.90 
  -5  -5 -14    9.40   18.80 
  -5  -5 -14  -24.90   24.60 
  -5  -5 -14   16.20   17.00 
   5   5  14  -10.00   27.00 
   5   5  14   23.90   30.40 
   5   5  14   -1.70    5.40 
   5   5  14   10.90   10.80 
   5   5  14   22.30   19.60 
  -4  11   1  211.48   47.10 
  -4  11   1  148.39   38.80 
  -4  11   1  190.88   60.29 
   4 -11  -1  192.28   58.89 
   4 -11  -1  233.88   40.80 
   4 -11  -1  223.28   37.10 
   4 -11  -1  216.38   46.80 
  -4  10   0 1119.99  149.99 
  -4  10   0  958.30  138.29 
  -4  10   0 1388.26  147.39 
  -4  10   0  987.90  143.19 
   4 -10   0 1245.28  136.79 
   4 -10   0 1146.19  144.69 
   4 -10   0 1065.19  134.49 
  -4   9  -1  -17.00   24.50 
  -4   9  -1    8.30   24.90 
  -4   9  -1   28.50   23.70 
  -4   9  -1    8.00   22.60 
  -4   9  -1   29.10   17.50 
  -4   9  -1    4.20   20.20 
   4  -9   1  -26.10   24.30 
   4  -9   1   25.10   20.30 
   4  -9   1    6.70   14.50 
   4  -9   1  -10.60   23.60 
  -4   8  -2   -9.80   20.30 
  -4   8  -2   11.20   17.90 
  -4   8  -2   -6.50   23.20 
  -4   8  -2    5.10   14.40 
  -4   8  -2   -9.00   18.70 
  -4   8  -2   33.30   21.10 
   4  -8   2   10.00   16.70 
   4  -8   2   12.40   19.40 
   4  -8   2   13.40   14.20 
  -4   7  -3  217.18   54.99 
  -4   7  -3  338.17   53.69 
  -4   7  -3  371.66   53.99 
  -4   7  -3  507.55   64.09 
  -4   7  -3  366.46   64.09 
  -4   7  -3  516.25   59.89 
  -4   7  -3  259.47   62.49 
   4  -7   3  370.06   50.79 
   4  -7   3  441.06   59.69 
   4  -7   3  476.75   57.09 
   4  -7   3  395.96   49.80 
   4  -7   3  323.27   54.59 
  -4   6  -4  556.94   66.99 
  -4   6  -4  460.35   73.19 
  -4   6  -4  350.76   60.09 
  -4   6  -4  506.65   62.79 
  -4   6  -4  329.27   65.59 
  -4   6  -4  636.94   71.09 
  -4   6  -4  373.86   59.89 
   4  -6   4  432.56   61.19 
   4  -6   4  388.56   66.19 
   4  -6   4  491.45   56.09 
   4  -6   4  474.45   61.29 
   4  -6   4  513.05   62.99 
  -4   5  -5  816.72   89.09 
  -4   5  -5  733.73  101.79 
  -4   5  -5  713.93   90.59 
  -4   5  -5  558.14   85.29 
  -4   5  -5  766.32   90.49 
  -4   5  -5  610.54   85.19 
   4  -5   5  736.83   88.09 
   4  -5   5  766.42   87.19 
   4  -5   5  732.03   81.89 
   4  -5   5  655.63   91.59 
   4  -5   5  722.73   82.09 
   4  -5   5  740.23   86.79 
   4  -5   5  661.03   82.59 
  -4   4  -6  234.18   37.00 
  -4   4  -6  230.58   39.80 
  -4   4  -6  188.68   37.00 
  -4   4  -6  267.57   32.20 
  -4   4  -6  260.87   33.30 
  -4   4  -6  278.27   55.39 
  -4   4  -6  255.57   39.50 
  -4   4  -6  304.77   39.30 
   4  -4   6  300.67   33.90 
   4  -4   6  270.07   34.60 
   4  -4   6  305.97   38.50 
   4  -4   6  272.37   37.60 
   4  -4   6  271.87   43.70 
   4  -4   6  281.67   33.90 
   4  -4   6  281.07   33.80 
   4  -4   6  258.47   38.60 
  -4   3  -7   16.30    4.10 
  -4   3  -7    8.80    8.90 
  -4   3  -7    8.80    7.30 
  -4   3  -7  -11.70   17.30 
  -4   3  -7    8.10   11.30 
  -4   3  -7   -4.00    7.50 
  -4   3  -7   20.30   11.90 
  -4   3  -7   10.00   12.30 
   4  -3   7   12.10    5.00 
   4  -3   7    7.00   13.10 
   4  -3   7    0.20    9.70 
   4  -3   7   11.70    7.50 
   4  -3   7   14.10    9.20 
   4  -3   7   20.30    6.60 
   4  -3   7   17.20    8.10 
  -4   2  -8 2287.67  258.07 
  -4   2  -8 2295.57  246.68 
  -4   2  -8 2259.77  247.38 
  -4   2  -8 2289.77  252.27 
  -4   2  -8 1965.90  247.38 
  -4   2  -8 2073.99  242.88 
  -4   2  -8 2341.17  248.38 
  -4   2  -8 2014.10  246.58 
   4  -2   8 1908.31  244.78 
   4  -2   8 2257.47  251.87 
   4  -2   8 1969.10  246.18 
   4  -2   8 2461.05  245.48 
   4  -2   8 2395.26  247.28 
   4  -2   8 2271.27  244.88 
   4  -2   8 2101.69  247.08 
   4  -2   8 2000.20  246.28 
  -4   1  -9 1200.78  126.49 
  -4   1  -9 1022.90  123.19 
  -4   1  -9  992.20  121.49 
  -4   1  -9 1064.79  122.79 
  -4   1  -9 1069.09  117.79 
  -4   1  -9 1088.29  122.29 
  -4   1  -9 1066.09  121.69 
  -4   1  -9 1034.30  129.59 
   4  -1   9 1080.39  126.19 
   4  -1   9  930.61  120.29 
   4  -1   9 1071.89  122.59 
   4  -1   9 1088.09  119.99 
   4  -1   9  886.41  120.89 
   4  -1   9 1093.79  120.49 
   4  -1   9 1026.10  121.89 
  -4   0 -10  246.68   36.20 
  -4   0 -10  262.37   37.00 
  -4   0 -10  225.48   39.50 
  -4   0 -10  227.68   32.70 
  -4   0 -10  248.68   34.60 
  -4   0 -10  279.87   27.90 
  -4   0 -10  211.38   35.80 
   4   0  10  214.08   32.80 
   4   0  10  232.18   27.30 
   4   0  10  238.88   36.40 
   4   0  10  189.98   33.20 
   4   0  10  205.28   37.30 
   4   0  10  238.98   30.30 
   4   0  10  214.78   33.80 
  -4  -1 -11  390.26   51.99 
  -4  -1 -11  447.56   55.29 
  -4  -1 -11  345.87   56.09 
  -4  -1 -11  440.86   55.59 
  -4  -1 -11  395.26   52.59 
  -4  -1 -11  423.16   55.39 
   4   1  11  382.76   56.09 
   4   1  11  460.35   58.69 
   4   1  11  378.46   52.49 
   4   1  11  411.56   52.49 
   4   1  11  418.26   46.50 
   4   1  11  426.46   54.59 
   4   1  11  388.36   49.30 
  -4  -2 -12 1004.20  128.19 
  -4  -2 -12 1109.59  130.69 
  -4  -2 -12 1180.28  129.59 
  -4  -2 -12 1089.49  137.79 
  -4  -2 -12 1143.19  130.89 
   4   2  12 1163.48  122.49 
   4   2  12 1039.70  128.39 
   4   2  12  985.00  125.19 
   4   2  12 1104.89  131.29 
   4   2  12 1083.39  128.79 
   4   2  12 1104.99  130.49 
   4   2  12 1116.29  130.69 
   4   2  12 1042.70  129.69 
  -4  -3 -13    1.30   12.30 
  -4  -3 -13    4.30   15.10 
  -4  -3 -13   15.10   11.50 
  -4  -3 -13   -3.60   11.60 
   4   3  13    3.60   18.00 
   4   3  13   15.80   14.70 
   4   3  13   -2.00    4.90 
   4   3  13   45.80   20.40 
   4   3  13   18.90   13.60 
   4   3  13   -8.30   17.90 
   4   3  13    6.00   16.10 
   4   3  13    2.60    3.50 
  -4  -4 -14   33.40   22.50 
  -4  -4 -14    8.80   15.40 
  -4  -4 -14   -2.10   15.00 
  -4  -4 -14    5.50   14.90 
   4   4  14   10.80    5.20 
   4   4  14   20.80   20.90 
   4   4  14   53.69   23.40 
   4   4  14   -8.70   17.70 
   4   4  14  -12.00   19.60 
  -4  -5 -15  150.48   39.10 
  -4  -5 -15  175.58   36.70 
  -4  -5 -15  201.18   36.90 
   4   5  15  180.28   42.50 
   4   5  15  177.08   37.70 
   4   5  15  178.88   35.10 
   4   5  15  167.68   38.00 
  -3  11   0   35.10   31.80 
  -3  11   0   68.89   33.60 
  -3  11   0   60.99   36.70 
   3 -11   0   65.59   32.00 
   3 -11   0   13.40   46.80 
   3 -11   0   55.69   24.50 
   3 -11   0   50.09   22.00 
  -3  10  -1   11.60   29.10 
  -3  10  -1  -35.80   17.80 
  -3  10  -1    4.10   26.00 
  -3  10  -1    9.00   27.80 
  -3  10  -1   30.40   31.90 
   3 -10   1   47.60   24.80 
   3 -10   1    2.70   16.70 
   3 -10   1    8.50   39.00 
   3 -10   1  -14.60   15.10 
  -3   9  -2  409.26   66.19 
  -3   9  -2  482.85   74.29 
  -3   9  -2  454.25   63.79 
  -3   9  -2  352.06   60.09 
  -3   9  -2  297.27   62.49 
   3  -9   2  430.56   57.09 
   3  -9   2  464.75   65.19 
   3  -9   2  441.16   59.49 
   3  -9   2  548.65   72.79 
   3  -9   2  385.16   63.99 
  -3   8  -3   82.69   27.00 
  -3   8  -3   26.50   24.20 
  -3   8  -3   38.70   21.60 
  -3   8  -3   58.19   23.80 
  -3   8  -3   87.59   32.90 
  -3   8  -3   98.79   28.00 
   3  -8   3   71.99   22.90 
   3  -8   3   66.09   21.70 
   3  -8   3   87.69   28.30 
   3  -8   3  107.39   20.90 
   3  -8   3   56.79   23.20 
  -3   7  -4  823.42   92.59 
  -3   7  -4  642.44   91.79 
  -3   7  -4  734.33  101.89 
  -3   7  -4  900.41   95.99 
  -3   7  -4  598.04   92.49 
  -3   7  -4  577.54   88.59 
   3  -7   4  578.44   85.49 
   3  -7   4  672.13   90.29 
   3  -7   4  717.53   91.29 
   3  -7   4  739.03   97.39 
   3  -7   4  782.32   91.39 
   3  -7   4  755.72   87.19 
  -3   6  -5    4.30   12.10 
  -3   6  -5  -12.80   18.80 
  -3   6  -5  -19.80   18.20 
  -3   6  -5   35.10   19.90 
  -3   6  -5   -6.40   12.90 
  -3   6  -5   -7.80   12.40 
  -3   6  -5  -13.90   17.00 
   3  -6   5   14.90   15.20 
   3  -6   5  -11.20    7.90 
   3  -6   5    0.70    2.70 
   3  -6   5  -12.00   13.00 
   3  -6   5    1.40    3.60 
   3  -6   5    0.10   16.90 
   3  -6   5    5.70   10.50 
  -3   5  -6  352.26   48.90 
  -3   5  -6  220.88   40.80 
  -3   5  -6  213.98   37.90 
  -3   5  -6  264.27   38.70 
  -3   5  -6  291.37   53.09 
  -3   5  -6  299.37   32.70 
  -3   5  -6  247.18   41.70 
  -3   5  -6  201.08   35.10 
   3  -5   6  210.58   29.20 
   3  -5   6  227.68   39.10 
   3  -5   6  220.98   34.40 
   3  -5   6  255.67   33.90 
   3  -5   6  251.87   37.00 
   3  -5   6  202.48   41.80 
   3  -5   6  218.38   28.90 
  -3   4  -7   12.90    7.70 
  -3   4  -7   37.10   13.50 
  -3   4  -7   17.00   12.90 
  -3   4  -7   14.80   13.60 
  -3   4  -7   -7.50   13.90 
  -3   4  -7  -29.50   15.80 
  -3   4  -7   -6.20   11.40 
  -3   4  -7   -1.40    9.80 
   3  -4   7   10.10    6.30 
   3  -4   7    8.30    9.80 
   3  -4   7    7.30   10.40 
   3  -4   7    1.40   13.80 
   3  -4   7    4.50   10.40 
   3  -4   7   17.90    9.80 
  -3   3  -8  261.67   43.20 
  -3   3  -8  333.07   45.70 
  -3   3  -8  310.47   44.00 
  -3   3  -8  390.86   55.19 
  -3   3  -8  279.07   43.60 
  -3   3  -8  311.87   40.60 
  -3   3  -8  296.87   43.00 
  -3   3  -8  343.67   49.60 
  -3   3  -8  321.77   36.50 
   3  -3   8  320.87   47.70 
   3  -3   8  302.87   42.50 
   3  -3   8  383.66   44.30 
   3  -3   8  361.06   41.50 
   3  -3   8  277.57   42.10 
   3  -3   8  257.97   41.00 
   3  -3   8  267.67   44.40 
   3  -3   8  378.16   39.50 
  -3   2  -9  106.49   19.80 
  -3   2  -9   56.39   22.50 
  -3   2  -9   66.19   17.00 
  -3   2  -9  107.19   18.00 
  -3   2  -9   79.39   19.30 
  -3   2  -9   75.99   22.20 
  -3   2  -9  106.59   19.70 
   3  -2   9   79.09   18.40 
   3  -2   9  100.29   23.50 
   3  -2   9   99.39   14.00 
   3  -2   9   66.39   17.30 
   3  -2   9   90.29   18.20 
   3  -2   9   80.19   17.80 
   3  -2   9   95.19   17.50 
  -3   1 -10   39.10   12.90 
  -3   1 -10   27.80   16.70 
  -3   1 -10   54.79   14.70 
  -3   1 -10   25.00   15.00 
  -3   1 -10   33.20   14.60 
  -3   1 -10   32.90   14.60 
  -3   1 -10   32.40   12.60 
   3  -1  10   53.79   14.10 
   3  -1  10   65.59   10.70 
   3  -1  10   40.70   12.60 
   3  -1  10   55.29   19.70 
   3  -1  10   34.30   12.70 
   3  -1  10   40.20   13.60 
   3  -1  10   48.80   13.70 
  -3   0 -11    5.20    9.20 
  -3   0 -11  -12.70    9.90 
  -3   0 -11   13.90   12.40 
  -3   0 -11   -2.40   11.30 
  -3   0 -11   -1.40    9.60 
  -3   0 -11    4.20    2.20 
  -3   0 -11   -8.10   13.00 
   3   0  11    8.10   15.00 
   3   0  11   32.70   12.60 
   3   0  11   -8.80   10.90 
   3   0  11   -7.00   10.40 
   3   0  11   -5.10    8.50 
   3   0  11    1.50    3.70 
   3   0  11   -1.00    9.10 
  -3  -1 -12 1307.37  135.89 
  -3  -1 -12 1154.08  137.29 
  -3  -1 -12 1108.39  136.59 
  -3  -1 -12 1051.29  137.19 
  -3  -1 -12 1216.48  137.99 
  -3  -1 -12 1157.18  136.59 
  -3  -1 -12 1111.19  134.79 
   3   1  12 1167.08  127.89 
   3   1  12 1231.58  137.19 
   3   1  12 1077.29  138.09 
   3   1  12 1076.39  134.69 
   3   1  12 1113.59  136.29 
   3   1  12 1161.58  135.69 
   3   1  12 1197.78  131.39 
   3   1  12 1039.60  135.29 
  -3  -2 -13   40.90   14.00 
  -3  -2 -13   13.90   12.90 
  -3  -2 -13    5.60   15.50 
  -3  -2 -13    0.90   12.10 
   3   2  13   30.50    7.90 
   3   2  13   32.30   14.00 
   3   2  13   33.90   19.70 
   3   2  13    5.00   16.30 
   3   2  13   29.50   16.80 
   3   2  13   47.20   16.10 
   3   2  13   36.40   15.60 
   3   2  13   23.40    4.60 
  -3  -3 -14  492.95   63.49 
  -3  -3 -14  355.96   62.99 
  -3  -3 -14  426.26   61.39 
  -3  -3 -14  534.25   64.29 
   3   3  14  454.75   65.99 
   3   3  14  485.85   66.59 
   3   3  14  496.55   56.09 
   3   3  14  429.76   66.09 
   3   3  14  436.56   64.19 
   3   3  14  457.85   66.59 
  -3  -4 -15   14.60   16.20 
  -3  -4 -15   -1.30   14.90 
  -3  -4 -15   -5.80   15.70 
   3   4  15    9.40   20.80 
   3   4  15    3.50   24.00 
   3   4  15   34.30   21.70 
   3   4  15   20.90   24.10 
  -3  -5 -16   75.19   25.40 
  -3  -5 -16   62.19   26.40 
  -3  -5 -16  109.79   28.10 
   3   5  16  163.38   39.20 
   3   5  16   99.69   39.70 
   3   5  16  122.89   34.10 
   3   5  16   65.89   32.40 
  -2  11  -1  103.99   38.70 
  -2  11  -1  340.27   57.49 
  -2  11  -1  312.87   60.59 
  -2  11  -1  207.08   48.70 
   2 -11   1  412.86   59.69 
   2 -11   1  171.98   31.60 
   2 -11   1  230.98   40.70 
   2 -11   1  246.78   33.20 
   2 -11   1  236.88   60.49 
  -2  10  -2   35.10   21.00 
  -2  10  -2   23.50   25.50 
  -2  10  -2   -4.90   24.60 
   2 -10   2   23.60   26.80 
   2 -10   2    6.30   11.40 
   2 -10   2    9.30   20.70 
   2 -10   2    5.80   10.00 
   2 -10   2  -20.90   13.70 
   2 -10   2   61.59   37.40 
  -2   9  -3  476.45   58.59 
  -2   9  -3  288.07   50.99 
  -2   9  -3  160.28   49.50 
  -2   9  -3  302.77   61.09 
   2  -9   3  277.57   45.00 
   2  -9   3  307.97   43.90 
   2  -9   3  253.07   35.50 
   2  -9   3  351.86   54.39 
   2  -9   3  318.37   57.09 
  -2   8  -4  987.10  126.09 
  -2   8  -4  963.50  128.39 
  -2   8  -4 1114.09  129.39 
   2  -8   4 1144.69  128.69 
   2  -8   4 1008.00  126.09 
   2  -8   4 1129.29  124.59 
   2  -8   4  950.30  116.99 
   2  -8   4  906.91  127.49 
   2  -8   4 1146.09  132.39 
  -2   7  -5  516.25   67.79 
  -2   7  -5  440.16   62.29 
  -2   7  -5  390.86   66.79 
  -2   7  -5  453.15   66.29 
  -2   7  -5  460.35   73.39 
   2  -7   5  422.56   66.29 
   2  -7   5  356.76   60.39 
   2  -7   5  540.35   66.99 
   2  -7   5  490.45   61.09 
   2  -7   5  459.35   69.99 
   2  -7   5  426.96   62.49 
   2  -7   5  505.65   54.09 
   2  -7   5  434.56   64.59 
  -2   6  -6 1105.09  127.19 
  -2   6  -6 1187.08  135.29 
  -2   6  -6 1046.00  117.39 
  -2   6  -6 1254.47  128.09 
  -2   6  -6  983.60  122.69 
   2  -6   6  886.91  123.79 
   2  -6   6 1162.18  123.89 
   2  -6   6  949.90  125.69 
   2  -6   6  958.00  120.79 
   2  -6   6  916.31  112.69 
   2  -6   6  961.10  122.99 
   2  -6   6  931.11  114.29 
  -2   5  -7  192.98   33.30 
  -2   5  -7  214.38   27.00 
  -2   5  -7  133.59   29.80 
  -2   5  -7  173.48   32.80 
  -2   5  -7  131.59   26.80 
  -2   5  -7  167.28   34.10 
  -2   5  -7  228.48   42.70 
  -2   5  -7  195.18   40.60 
   2  -5   7  146.99   27.20 
   2  -5   7  100.19   27.40 
   2  -5   7  106.49   26.90 
   2  -5   7  122.59   26.30 
   2  -5   7  207.18   36.30 
   2  -5   7  146.89   29.30 
   2  -5   7  127.99   20.90 
  -2   4  -8 2244.28  231.38 
  -2   4  -8 1938.11  236.68 
  -2   4  -8 1660.93  231.68 
  -2   4  -8 2280.77  244.18 
  -2   4  -8 2064.09  236.58 
  -2   4  -8 1879.11  233.98 
   2  -4   8 2004.30  237.78 
   2  -4   8 2244.98  233.58 
   2  -4   8 2063.89  233.18 
   2  -4   8 1954.10  239.18 
   2  -4   8 2123.49  230.18 
   2  -4   8 1914.91  233.58 
  -2   3  -9   97.69   11.20 
  -2   3  -9  102.99   27.60 
  -2   3  -9  138.69   24.40 
  -2   3  -9  122.89   29.10 
  -2   3  -9  102.69   21.90 
  -2   3  -9   67.69   18.90 
  -2   3  -9   93.79   22.80 
  -2   3  -9  109.69   19.00 
  -2   3  -9   79.69   20.20 
   2  -3   9   81.59   24.30 
   2  -3   9   97.99   20.30 
   2  -3   9   83.89   19.00 
   2  -3   9   90.79   23.60 
   2  -3   9   66.89   19.80 
   2  -3   9  118.39   19.50 
   2  -3   9   85.59   19.80 
  -2   2 -10   96.19   21.40 
  -2   2 -10   95.19   25.60 
  -2   2 -10   65.69   21.80 
  -2   2 -10   83.39   20.20 
  -2   2 -10   77.09   19.20 
  -2   2 -10  104.29   19.20 
  -2   2 -10   86.99   19.40 
   2  -2  10   73.29   18.60 
   2  -2  10   93.39   13.50 
   2  -2  10  102.69   20.50 
   2  -2  10   80.29   18.50 
   2  -2  10   70.19   18.40 
   2  -2  10   75.79   19.40 
   2  -2  10  129.79   21.60 
   2  -2  10   63.59   21.20 
  -2   1 -11  669.93   98.39 
  -2   1 -11  825.62   94.59 
  -2   1 -11  869.51   94.49 
  -2   1 -11  713.63   93.89 
  -2   1 -11  779.42   97.79 
  -2   1 -11  817.92   95.99 
  -2   1 -11  777.82   94.39 
   2  -1  11  677.93   92.89 
   2  -1  11  686.63   93.99 
   2  -1  11  759.22   94.49 
   2  -1  11  841.12   94.89 
   2  -1  11  852.31   90.19 
   2  -1  11  686.63   96.99 
   2  -1  11  693.33   93.19 
   2  -1  11  965.00   96.29 
  -2   0 -12  151.48   19.20 
  -2   0 -12  166.48   32.10 
  -2   0 -12  163.28   33.10 
  -2   0 -12  170.98   29.00 
  -2   0 -12  191.78   30.30 
  -2   0 -12  177.28   32.20 
  -2   0 -12  169.88   29.20 
  -2   0 -12  133.09   26.80 
   2   0  12  186.08   31.40 
   2   0  12  192.78   22.70 
   2   0  12  147.39   31.60 
   2   0  12  159.08   28.50 
   2   0  12  155.68   29.50 
   2   0  12  157.98   29.90 
   2   0  12  151.88   30.20 
  -2  -1 -13   37.60   16.00 
  -2  -1 -13   35.20   17.10 
   2   1  13   55.29   19.40 
   2   1  13   24.00   15.20 
   2   1  13   22.60    7.70 
   2   1  13   17.60   16.40 
   2   1  13   35.20   16.90 
   2   1  13   61.79   22.30 
   2   1  13   82.19   19.70 
   2   1  13   35.00   14.80 
  -2  -2 -14   36.80   15.40 
  -2  -2 -14   35.40   16.90 
  -2  -2 -14   21.00   18.10 
  -2  -2 -14   58.69   16.10 
   2   2  14   31.50   25.50 
   2   2  14   55.49   21.00 
   2   2  14   33.90    9.40 
   2   2  14   66.79   22.70 
   2   2  14   45.40    6.80 
   2   2  14   56.49   19.70 
   2   2  14   22.70   19.60 
  -2  -3 -15   12.00   14.60 
  -2  -3 -15   14.50   15.40 
  -2  -3 -15    3.00   12.60 
   2   3  15  -13.20   21.60 
   2   3  15    9.50    5.60 
   2   3  15   31.20   23.50 
   2   3  15    5.30   24.00 
   2   3  15   10.70   18.90 
  -2  -4 -16  267.47   44.80 
  -2  -4 -16  228.68   42.20 
   2   4  16  207.78   44.40 
   2   4  16  234.98   44.00 
   2   4  16  248.88   50.49 
   2   4  16  196.28   47.80 
  -1  11  -2  -32.80   32.20 
  -1  11  -2   51.19   33.10 
  -1  11  -2  -54.79   24.70 
   1 -11   2   24.00   20.20 
   1 -11   2   -7.50   23.90 
   1 -11   2   -2.60   45.60 
   1 -11   2    2.20   14.90 
   1 -11   2   -4.60   30.30 
  -1  10  -3  109.59   40.30 
  -1  10  -3  165.88   39.20 
  -1  10  -3  153.38   43.20 
  -1  10  -3  129.79   47.30 
   1 -10   3  174.28   43.40 
   1 -10   3  200.58   49.40 
   1 -10   3  136.29   26.00 
   1 -10   3  210.88   40.10 
  -1   9  -4  554.64   86.59 
  -1   9  -4  878.41   96.49 
  -1   9  -4  745.83   95.89 
  -1   9  -4  713.13   88.39 
   1  -9   4  639.54   87.99 
   1  -9   4  567.24   79.59 
   1  -9   4  476.85   73.89 
   1  -9   4  691.93   93.49 
   1  -9   4  684.23   90.09 
  -1   8  -5  503.35   72.09 
  -1   8  -5  630.24   82.99 
   1  -8   5  488.45   67.99 
   1  -8   5  521.05   73.79 
   1  -8   5  386.36   72.99 
   1  -8   5  431.46   69.09 
  -1   7  -6  488.75   57.99 
  -1   7  -6  334.77   50.99 
  -1   7  -6  353.46   59.89 
  -1   7  -6  355.66   60.29 
  -1   7  -6  454.15   64.49 
   1  -7   6  364.46   60.79 
   1  -7   6  329.57   45.50 
   1  -7   6  364.36   59.59 
   1  -7   6  410.16   55.29 
   1  -7   6  315.27   52.89 
   1  -7   6  409.06   51.19 
   1  -7   6  315.47   52.39 
   1  -7   6  321.17   39.20 
   1  -7   6  319.67   59.49 
  -1   6  -7   93.49   26.10 
  -1   6  -7   77.19   28.30 
  -1   6  -7   58.39   19.40 
  -1   6  -7   72.79   28.70 
  -1   6  -7   71.69   24.80 
  -1   6  -7   59.29   23.90 
  -1   6  -7  108.39   20.90 
  -1   6  -7   22.00   18.80 
   1  -6   7   34.20   16.80 
   1  -6   7   20.70   17.90 
   1  -6   7   74.99   22.50 
   1  -6   7   63.09   21.10 
   1  -6   7   26.90   17.50 
   1  -6   7   54.99   24.10 
  -1   5  -8  220.18   41.80 
  -1   5  -8  185.18   39.60 
  -1   5  -8  215.28   34.50 
  -1   5  -8  226.88   30.50 
  -1   5  -8  137.59   32.10 
  -1   5  -8  214.08   40.80 
   1  -5   8  110.09   28.40 
   1  -5   8  117.59   23.80 
   1  -5   8  106.89   31.00 
   1  -5   8  167.88   30.90 
  -1   4  -9  912.71  122.89 
  -1   4  -9  963.10  130.09 
  -1   4  -9 1237.38  130.19 
  -1   4  -9 1176.88  119.29 
  -1   4  -9  892.71  120.19 
  -1   4  -9  916.01  118.39 
   1  -4   9  971.80  124.19 
   1  -4   9  942.01  118.99 
   1  -4   9 1025.20  117.29 
   1  -4   9  897.41  123.69 
   1  -4   9  973.20  122.69 
   1  -4   9 1093.79  121.79 
  -1   3 -10   33.30   13.20 
  -1   3 -10   80.89   18.40 
  -1   3 -10   37.60   19.30 
  -1   3 -10   27.50   16.10 
  -1   3 -10   52.69   18.80 
  -1   3 -10   67.59   15.20 
  -1   3 -10   41.00   21.10 
  -1   3 -10   13.10   13.60 
   1  -3  10   32.30   13.70 
   1  -3  10   36.70   14.10 
   1  -3  10   51.99   13.30 
   1  -3  10   53.89   18.00 
   1  -3  10   30.50   19.80 
   1  -3  10   67.99   18.20 
  -1   2 -11  729.93   92.29 
  -1   2 -11  838.42   90.89 
  -1   2 -11  698.03   95.09 
  -1   2 -11  720.43   96.79 
  -1   2 -11  630.64   88.79 
  -1   2 -11  864.61   92.19 
  -1   2 -11  699.43   92.19 
   1  -2  11  711.23   95.09 
   1  -2  11  658.03   90.49 
   1  -2  11  781.72   91.89 
   1  -2  11  762.72   92.49 
   1  -2  11  788.82   86.09 
   1  -2  11  763.02   90.29 
   1  -2  11  814.32   93.19 
   1  -2  11  645.24   92.19 
  -1   1 -12   14.50   13.70 
  -1   1 -12   -3.80   10.30 
  -1   1 -12   27.00   14.10 
  -1   1 -12   10.30   14.30 
  -1   1 -12    9.30   12.80 
  -1   1 -12   15.10   14.00 
  -1   1 -12   -4.80   10.90 
   1  -1  12   21.60    6.50 
   1  -1  12   12.80   18.40 
   1  -1  12   16.40   12.40 
   1  -1  12   -9.30   13.30 
   1  -1  12    5.00   13.80 
   1  -1  12   11.10   12.50 
   1  -1  12    8.20   10.50 
  -1   0 -13    5.40   12.90 
  -1   0 -13   19.40   13.90 
  -1   0 -13   15.30   11.30 
  -1   0 -13   -4.60   12.10 
  -1   0 -13   -4.30    7.70 
  -1   0 -13   12.80   14.50 
  -1   0 -13    5.00    3.10 
   1   0  13   -0.60    3.90 
   1   0  13   -6.70   14.00 
   1   0  13   14.20   16.10 
   1   0  13   14.40   13.10 
   1   0  13    7.60   13.20 
   1   0  13   38.60   18.50 
   1   0  13  -13.20   11.40 
  -1  -1 -14   56.99   19.00 
  -1  -1 -14   81.49   22.00 
  -1  -1 -14  107.39   23.10 
   1   1  14   52.19   20.30 
   1   1  14   68.99   21.10 
   1   1  14   71.39   13.30 
   1   1  14   65.09   23.90 
   1   1  14   62.89   23.00 
  -1  -2 -15  283.67   49.30 
  -1  -2 -15  330.97   50.19 
  -1  -2 -15  288.27   48.00 
   1   2  15  324.07   56.19 
   1   2  15  343.27   38.20 
   1   2  15  378.76   53.89 
   1   2  15  324.47   51.89 
   1   2  15  337.17   60.79 
  -1  -3 -16   96.09   25.80 
  -1  -3 -16   68.79   23.90 
  -1  -3 -16   68.39   21.40 
   1   3  16  108.39   13.90 
   1   3  16   74.59   27.80 
   1   3  16   75.99   30.10 
   1   3  16   82.59   33.50 
   1   3  16   95.69   34.60 
  -1  -4 -17   72.59   27.30 
   1   4  17   38.50   29.60 
   1   4  17   70.99   16.70 
   1   4  17   89.79   31.00 
   1   4  17  108.69   46.60 
   0  11  -3  -17.10   28.70 
   0  11  -3  -30.70   28.00 
   0  11  -3   29.50   58.59 
   0  11  -3   19.80   29.70 
   0 -11   3  -17.80   19.30 
   0 -11   3    9.40   24.30 
   0 -11   3   -8.20   33.40 
   0 -11   3   13.90   18.50 
   0  10  -4  108.19   38.30 
   0  10  -4  230.28   49.10 
   0  10  -4  170.98   44.20 
   0  10  -4  144.29   34.70 
   0 -10   4   63.89   25.70 
   0 -10   4  100.69   24.50 
   0 -10   4  125.59   38.90 
   0 -10   4  120.69   43.30 
   0   9  -5   -2.10   21.40 
   0   9  -5  -15.60   29.70 
   0   9  -5  -15.40   22.70 
   0   9  -5   -4.20   23.70 
   0  -9   5   10.50   19.00 
   0  -9   5    8.40   14.00 
   0  -9   5  -10.20   20.80 
   0  -9   5   21.60   16.40 
   0  -9   5  -30.70   27.10 
   0   8  -6  164.78   37.20 
   0   8  -6  149.88   40.10 
   0   8  -6  162.98   36.50 
   0   8  -6  161.98   44.10 
   0  -8   6  169.08   40.60 
   0  -8   6   82.59   31.70 
   0  -8   6   99.89   26.40 
   0   7  -7    6.40   26.30 
   0   7  -7    6.60   20.80 
   0   7  -7   13.70   27.70 
   0   7  -7   -7.50   20.00 
   0   7  -7   17.30   16.90 
   0   7  -7   11.50   19.90 
   0  -7   7    6.10   10.90 
   0  -7   7   14.00   13.90 
   0  -7   7   -3.60    4.00 
   0  -7   7   -8.30   19.60 
   0  -7   7    3.20   15.00 
   0  -7   7   -1.60   15.60 
   0  -7   7  -10.20   19.60 
   0  -7   7   -3.30   20.60 
   0  -7   7   19.50   19.20 
   0   6  -8 3114.89  367.96 
   0  -6   8 2873.61  374.16 
   0  -6   8 3104.49  366.26 
   0  -6   8 2996.00  369.86 
   0  -6   8 3524.05  371.16 
   0  -6   8 2772.12  369.96 
   0  -6   8 3711.03  374.86 
   0  -6   8 3483.35  375.86 
   0  -6   8 3649.63  371.96 
   0   5  -9   21.70   21.50 
   0   5  -9    5.80   16.90 
   0   5  -9   17.90   18.60 
   0   5  -9   11.60    9.80 
   0   5  -9    7.00   16.20 
   0   5  -9  -12.80   13.20 
   0   5  -9    4.40   17.90 
   0   5  -9   14.30   19.40 
   0  -5   9   -2.20   13.00 
   0  -5   9    5.10   10.50 
   0  -5   9    6.70   16.60 
   0  -5   9    1.80   13.30 
   0  -5   9   20.10   19.50 
   0  -5   9    8.80    9.50 
   0   4 -10  288.77   35.60 
   0   4 -10  272.57   47.40 
   0   4 -10  177.88   38.20 
   0   4 -10  197.58   41.80 
   0   4 -10  190.88   26.00 
   0   4 -10  177.88   37.20 
   0   4 -10  193.68   34.50 
   0   4 -10  315.07   46.00 
   0   4 -10  248.38   35.90 
   0  -4  10  154.28   33.70 
   0  -4  10  222.38   36.90 
   0  -4  10  210.68   42.40 
   0  -4  10  242.68   40.80 
   0  -4  10  243.88   38.90 
   0   3 -11   -0.20    1.60 
   0   3 -11   21.10   17.50 
   0   3 -11   36.10   16.10 
   0   3 -11   -2.10   14.00 
   0   3 -11    0.70   13.70 
   0   3 -11    5.70   11.50 
   0   3 -11    7.80   14.70 
   0   3 -11    5.30   14.10 
   0  -3  11   -6.40   12.30 
   0  -3  11   24.80   12.20 
   0  -3  11    5.30   12.30 
   0  -3  11    3.10   12.90 
   0  -3  11    4.40   12.70 
   0  -3  11    1.50   17.40 
   0  -3  11   -0.70   13.50 
   0   2 -12  131.79   29.00 
   0   2 -12   92.39   28.80 
   0   2 -12  164.78   28.80 
   0   2 -12  156.18   32.90 
   0   2 -12  171.18   31.20 
   0   2 -12  197.08   30.00 
   0   2 -12  159.68   30.50 
   0   2 -12  163.48   30.60 
   0  -2  12  176.88   35.30 
   0  -2  12  142.59   27.90 
   0  -2  12  170.28   30.10 
   0  -2  12  137.29   28.20 
   0  -2  12  155.88   31.70 
   0  -2  12  114.59   26.90 
   0  -2  12  115.49   28.90 
   0   1 -13   -4.50   12.70 
   0   1 -13   -4.20   11.10 
   0   1 -13   -3.50    4.00 
   0   1 -13   21.80   12.10 
   0   1 -13    3.40   12.80 
   0   1 -13   -6.10   14.20 
   0   1 -13    8.70   11.20 
   0   1 -13  -10.50   13.60 
   0  -1  13    1.40   16.40 
   0  -1  13   -5.10   14.90 
   0  -1  13  -12.20   17.60 
   0  -1  13   33.60   17.10 
   0  -1  13    0.40    3.80 
   0  -1  13  -15.80   12.50 
   0  -1  13   11.00   11.40 
   0  -1  13   -7.10   15.50 
   0   0 -14  291.27   46.20 
   0   0 -14  253.87   42.00 
   0   0 -14  277.87   34.10 
   0   0 -14  248.88   41.30 
   0   0 -14  385.16   47.50 
   0   0 -14  274.17   44.90 
   0   0  14  316.97   48.00 
   0   0  14  286.17   45.90 
   0   0  14  273.27   47.70 
   0   0  14  372.86   49.80 
   0  -1 -15   -0.70    2.80 
   0  -1 -15   -2.20   13.10 
   0  -1 -15   -6.70   15.20 
   0   1  15    3.40    2.20 
   0   1  15    3.70   20.90 
   0   1  15   27.80    6.80 
   0   1  15   -5.80   16.80 
   0   1  15  -17.80   16.80 
   0   1  15   12.60   16.50 
   0  -2 -16  117.29   30.80 
   0  -2 -16  119.79   27.80 
   0  -2 -16  127.99   31.50 
   0   2  16  171.48   40.30 
   0   2  16  166.18   35.40 
   0   2  16  205.08   40.30 
   0   2  16  152.88   20.20 
   0   2  16  214.58   47.20 
   0   2  16  143.79   35.40 
   0  -3 -17   -2.60   18.70 
   0  -3 -17   27.50   20.30 
   0  -3 -17   10.50   14.70 
   0   3  17  -25.50   24.90 
   0   3  17   -5.80   32.90 
   0   3  17   -0.40   22.90 
   0   3  17   -8.80   32.50 
   0   3  17   -1.00    6.60 
   0   3  17   17.10   24.40 
   1  11  -4   -7.30   41.10 
   1  11  -4   68.99   38.20 
   1  11  -4   11.10   35.20 
  -1 -11   4   -6.90   27.60 
  -1 -11   4   -0.70   30.10 
  -1 -11   4   24.30   47.70 
  -1 -11   4   -8.30   21.30 
  -1 -11   4   -9.50   21.00 
   1  10  -5  266.47   52.19 
   1  10  -5  246.08   50.49 
   1  10  -5  302.67   61.09 
   1  10  -5  320.47   59.69 
  -1 -10   5  187.98   38.20 
  -1 -10   5   87.89   48.20 
  -1 -10   5  128.69   37.10 
  -1 -10   5  255.57   49.20 
   1   9  -6  445.96   72.79 
   1   9  -6  570.84   70.29 
  -1  -9   6  350.46   54.09 
  -1  -9   6  246.58   57.49 
  -1  -9   6  408.26   66.59 
  -1  -9   6  272.17   65.59 
  -1  -9   6  408.26   62.49 
   1   8  -7  401.36   63.69 
   1   8  -7  343.37   55.69 
   1   8  -7  297.67   51.09 
   1   8  -7  228.08   49.60 
  -1  -8   7  139.89   33.90 
  -1  -8   7  189.48   42.30 
  -1  -8   7  172.78   28.80 
  -1  -8   7  269.07   59.19 
  -1  -8   7  136.69   33.60 
  -1  -8   7  180.28   40.80 
   1   7  -8   49.10   24.10 
   1   7  -8    5.10   24.40 
   1   7  -8   52.39   33.10 
   1   7  -8   10.40   20.50 
   1   7  -8   86.89   30.20 
  -1  -7   8    5.80   16.80 
  -1  -7   8   -2.80   18.40 
  -1  -7   8   36.10   15.30 
  -1  -7   8    8.90   22.60 
  -1  -7   8   16.20    6.70 
  -1  -7   8  -24.40   18.50 
   1   6  -9  271.07   41.50 
   1   6  -9  248.48   37.60 
   1   6  -9  145.19   40.40 
   1   6  -9  217.58   41.50 
   1   6  -9  191.78   40.40 
   1   6  -9  254.17   50.69 
  -1  -6   9  108.89   26.80 
  -1  -6   9  113.29   30.10 
  -1  -6   9  182.08   35.10 
  -1  -6   9  141.69   36.60 
  -1  -6   9  118.19   30.50 
  -1  -6   9  130.29   36.70 
   1   5 -10   55.69   26.30 
   1   5 -10   61.09   10.90 
   1   5 -10  128.99   28.60 
   1   5 -10   59.89   24.50 
   1   5 -10   56.69   22.40 
   1   5 -10   34.80   16.00 
   1   5 -10   66.89   21.50 
   1   5 -10   31.70   21.00 
   1   5 -10   84.79   30.10 
  -1  -5  10   10.30   18.30 
  -1  -5  10   19.30   21.90 
  -1  -5  10   57.99   23.50 
  -1  -5  10   80.49   21.50 
  -1  -5  10   60.39   18.70 
  -1  -5  10   36.90   16.70 
  -1  -5  10   70.39   26.20 
   1   4 -11  276.97   56.89 
   1   4 -11  360.66   49.30 
   1   4 -11  353.16   58.19 
   1   4 -11  439.56   59.89 
   1   4 -11  332.27   61.39 
   1   4 -11  362.76   43.20 
   1   4 -11  408.16   54.39 
  -1  -4  11  317.27   53.99 
  -1  -4  11  347.67   50.89 
  -1  -4  11  367.76   58.39 
  -1  -4  11  345.47   55.89 
  -1  -4  11  358.06   55.29 
  -1  -4  11  338.27   51.79 
  -1  -4  11  426.56   53.29 
   1   3 -12 1029.10  128.69 
   1   3 -12 1243.38  125.09 
   1   3 -12 1018.30  121.09 
   1   3 -12 1250.87  125.59 
   1   3 -12  924.41  126.89 
   1   3 -12  991.20  128.89 
   1   3 -12  792.82  124.19 
   1   3 -12  937.71  114.59 
  -1  -3  12 1136.89  125.39 
  -1  -3  12  985.50  128.19 
  -1  -3  12  987.90  127.19 
  -1  -3  12 1110.39  127.99 
  -1  -3  12 1054.99  124.19 
  -1  -3  12  923.51  122.49 
   1   2 -13   31.30   13.90 
   1   2 -13   10.50   17.00 
   1   2 -13   36.20   20.80 
   1   2 -13   75.49   21.00 
  -1  -2  13   17.90   16.80 
  -1  -2  13   33.80   19.10 
  -1  -2  13   26.00   19.70 
  -1  -2  13   40.90   17.00 
   1   1 -14   63.39   22.50 
   1   1 -14   58.39   21.80 
   1   1 -14   92.59   20.00 
   1   1 -14   92.19   12.80 
  -1  -1  14   43.00   25.10 
  -1  -1  14   52.69   23.60 
  -1  -1  14   57.19   21.30 
  -1  -1  14   76.99   22.90 
  -1  -1  14   73.49   13.30 
   1   0 -15   -7.10   14.90 
   1   0 -15    5.10    4.50 
   1   0 -15   -2.20   14.80 
   1   0 -15    0.80   13.40 
  -1   0  15  -13.10   18.60 
  -1   0  15  -11.70   18.20 
  -1   0  15    6.80   15.50 
  -1   0  15   20.00   21.40 
  -1   0  15    1.60    4.90 
   1  -1 -16   19.00   19.70 
   1  -1 -16   60.39    9.50 
   1  -1 -16   46.00   22.70 
   1  -1 -16   69.09   23.20 
  -1   1  16   47.10   24.90 
  -1   1  16   53.99   10.10 
  -1   1  16   66.99   30.50 
  -1   1  16   21.50   23.40 
  -1   1  16   48.80   22.80 
  -1   1  16   80.09   40.90 
   1  -2 -17  226.78   40.30 
   1  -2 -17  168.48   33.60 
   1  -2 -17  208.08   40.30 
  -1   2  17  229.48   48.50 
  -1   2  17  216.88   44.40 
  -1   2  17  220.28   52.29 
  -1   2  17  203.28   25.10 
  -1   2  17  164.78   43.80 
  -1   2  17  151.48   42.30 
   1  -3 -18   55.49   24.10 
   1  -3 -18   -1.20   25.70 
   1  -3 -18   29.30   20.00 
  -1   3  18   44.70   40.70 
  -1   3  18   59.29   33.80 
  -1   3  18   66.79   44.80 
  -1   3  18   53.79   30.60 
   2  11  -5  248.28   61.69 
   2  11  -5  340.37   72.79 
   2  11  -5  201.78   55.69 
  -2 -11   5  273.67   63.99 
  -2 -11   5  177.18   45.70 
  -2 -11   5  322.67   67.29 
  -2 -11   5  301.37   51.39 
  -2 -11   5  329.07   61.59 
   2  10  -6   -0.60   73.89 
   2  10  -6   47.60   33.60 
   2  10  -6   42.00   38.00 
  -2 -10   6   30.00   24.60 
  -2 -10   6    2.50   39.10 
  -2 -10   6    5.60   17.00 
  -2 -10   6   41.20   30.20 
  -2 -10   6   52.29   39.70 
   2   9  -7   43.90   30.80 
   2   9  -7   34.30   27.70 
   2   9  -7   82.59   43.10 
   2   9  -7   71.39   29.10 
  -2  -9   7   27.00   27.30 
  -2  -9   7   31.40   29.00 
  -2  -9   7   46.00   32.20 
  -2  -9   7   -4.30   14.70 
  -2  -9   7   26.70    9.40 
  -2  -9   7   27.70   22.40 
   2   8  -8  712.53  105.09 
  -2  -8   8  414.36   55.99 
  -2  -8   8  482.05   69.09 
  -2  -8   8  456.55   71.09 
  -2  -8   8  460.75   67.89 
  -2  -8   8  473.25   79.89 
  -2  -8   8  685.63   82.29 
   2   7  -9  675.43  100.39 
   2   7  -9  811.82   96.09 
   2   7  -9  643.34   84.89 
   2   7  -9  949.11  113.09 
   2   7  -9  787.22  102.29 
   2   7  -9  714.73  129.99 
   2   6 -10  562.94   80.39 
   2   6 -10  735.43   85.69 
   2   6 -10  589.44   83.69 
   2   6 -10  726.13   79.29 
   2   6 -10  646.44   67.29 
  -2  -6  10  414.76   79.49 
  -2  -6  10  403.66   72.89 
  -2  -6  10  429.66   74.69 
   2   5 -11  726.23   78.19 
   2   5 -11  578.24   92.79 
   2   5 -11  792.52   99.59 
   2   5 -11  827.22   94.09 
   2   5 -11  858.11   95.39 
  -2  -5  11  528.55   85.09 
  -2  -5  11  568.04   84.29 
  -2  -5  11  687.93   94.09 
  -2  -5  11  509.85   84.59 
   2   4 -12  977.80  128.99 
   2   4 -12  959.40  129.49 
   2   4 -12  948.41  128.99 
   2   4 -12 1012.70  122.19 
   2   4 -12 1005.30  138.09 
   2   4 -12 1053.89  116.99 
  -2  -4  12 1078.39  127.49 
  -2  -4  12 1278.87  135.89 
  -2  -4  12  972.80  124.19 
  -2  -4  12  948.71  124.69 
   2   3 -13   12.80   17.90 
   2   3 -13   22.40   17.90 
   2   3 -13   17.50   15.80 
   2   3 -13   36.70   25.90 
   2   3 -13   21.00    6.00 
   2   3 -13   23.60   19.40 
  -2  -3  13    3.30   17.20 
  -2  -3  13   71.59   25.40 
  -2  -3  13   27.30   18.10 
   2   2 -14   49.40   23.40 
   2   2 -14   26.10    9.20 
   2   2 -14   60.69   21.00 
   2   2 -14   33.00   15.50 
   2   2 -14   25.20   17.80 
  -2  -2  14   54.09   20.60 
  -2  -2  14   71.29   23.90 
  -2  -2  14   54.69   25.60 
  -2  -2  14   65.39   21.50 
   2   1 -15  249.48   47.30 
   2   1 -15  265.67   35.90 
   2   1 -15  291.17   47.60 
   2   1 -15  299.77   51.09 
   2   1 -15  279.77   44.10 
  -2  -1  15  290.57   50.89 
  -2  -1  15  268.27   53.59 
  -2  -1  15  300.27   36.00 
  -2  -1  15  304.37   53.69 
  -2  -1  15  307.27   47.40 
   2   0 -16  117.99   33.90 
   2   0 -16  137.89   27.80 
   2   0 -16  127.59   19.50 
   2   0 -16  126.29   32.50 
   2   0 -16  148.09   33.30 
  -2   0  16  115.99   36.30 
  -2   0  16  125.59   33.20 
  -2   0  16  147.29   34.40 
  -2   0  16   89.39   36.10 
  -2   0  16  140.99   19.30 
   2  -1 -17  225.88   41.60 
   2  -1 -17  144.59   37.70 
   2  -1 -17  217.48   26.80 
  -2   1  17  193.38   46.70 
  -2   1  17  272.67   50.19 
  -2   1  17  191.18   24.80 
  -2   1  17  196.08   45.10 
  -2   1  17  223.58   51.99 
  -2   1  17  182.98   24.70 
  -2   1  17  173.68   47.20 
   2  -2 -18   18.50   18.30 
   2  -2 -18   13.60   23.40 
  -2   2  18   10.30   28.40 
  -2   2  18   16.50   31.40 
  -2   2  18   10.30   42.70 
   3  10  -7   43.60   51.69 
   3  10  -7   41.10   42.10 
   3  10  -7   25.90   28.40 
  -3 -10   7   11.60   28.40 
  -3 -10   7   19.00   29.60 
  -3 -10   7  -13.40   35.20 
   3   9  -8  198.98   43.90 
   3   9  -8  170.78   53.79 
   3   9  -8  215.88   57.89 
   3   9  -8  159.78   46.80 
  -3  -9   8   77.89   35.70 
  -3  -9   8   87.89   17.80 
  -3  -9   8   47.10   29.10 
  -3  -9   8  161.08   44.10 
  -3  -9   8   37.60   37.90 
  -3  -9   8   59.59   28.60 
   3   8  -9   40.00   35.10 
   3   8  -9   55.39   12.50 
   3   8  -9   69.39   29.10 
   3   8  -9   84.89   38.50 
  -3  -8   9   38.10   35.70 
  -3  -8   9   17.60   23.50 
  -3  -8   9   36.70   25.40 
  -3  -8   9   10.50   25.90 
  -3  -8   9   42.60   30.00 
   3   7 -10   65.59   14.00 
   3   7 -10   23.60   48.40 
   3   7 -10   42.70   27.60 
   3   7 -10  145.49   41.20 
   3   7 -10   96.89   30.50 
  -3  -7  10   46.80   29.90 
  -3  -7  10    4.60   21.50 
  -3  -7  10   48.40   27.10 
  -3  -7  10   18.70   11.40 
  -3  -7  10  -12.50   19.80 
   3   6 -11    5.70   29.90 
   3   6 -11   13.50   20.60 
   3   6 -11   34.70   23.50 
   3   6 -11   56.59   30.90 
   3   6 -11    9.60    7.20 
  -3  -6  11    8.30   22.80 
  -3  -6  11  -21.80   14.70 
  -3  -6  11   25.50   21.60 
  -3  -6  11   -5.30   26.50 
  -3  -6  11  -12.00   22.90 
   3   5 -12  385.16   45.40 
   3   5 -12  365.96   59.09 
   3   5 -12  428.56   69.89 
   3   5 -12  338.57   57.89 
  -3  -5  12  319.97   60.79 
  -3  -5  12  310.27   55.49 
  -3  -5  12  414.26   70.39 
  -3  -5  12  277.97   56.69 
   3   4 -13    5.20   18.20 
   3   4 -13    6.50   27.40 
   3   4 -13   27.40   20.70 
  -3  -4  13   15.10   23.00 
  -3  -4  13   26.10   26.90 
  -3  -4  13   10.40   21.00 
  -3  -4  13   37.50   22.00 
   3   3 -14  384.36   59.79 
   3   3 -14  368.16   64.69 
   3   3 -14  371.56   65.19 
   3   3 -14  363.36   49.10 
   3   3 -14  435.06   48.00 
  -3  -3  14  539.85   77.39 
  -3  -3  14  351.36   59.99 
  -3  -3  14  428.66   64.49 
  -3  -3  14  350.76   66.49 
   3   2 -15   15.40   18.60 
   3   2 -15    9.20    6.40 
   3   2 -15   29.20   20.10 
   3   2 -15   10.90   25.10 
   3   2 -15    2.30   22.60 
  -3  -2  15   10.30   22.30 
  -3  -2  15  -13.90   17.80 
  -3  -2  15   -5.60   16.40 
  -3  -2  15   -0.70   25.60 
   3   1 -16  126.39   33.10 
   3   1 -16   73.69   21.30 
   3   1 -16   49.30   26.40 
   3   1 -16   70.89   15.00 
  -3  -1  16   75.59   13.70 
  -3  -1  16  118.19   35.10 
  -3  -1  16  109.29   34.20 
  -3  -1  16   71.49   33.40 
  -3  -1  16   80.49   30.10 
   3   0 -17    6.50   20.20 
   3   0 -17   -3.20    6.90 
   3   0 -17   44.80   27.70 
   3   0 -17  -15.50   20.70 
  -3   0  17   10.50   31.70 
  -3   0  17  -56.39   22.90 
  -3   0  17    4.20    6.10 
  -3   0  17    1.00   28.70 
   3  -1 -18   27.90   24.20 
   3  -1 -18   37.20   23.70 
   3  -1 -18   48.80   11.20 
   3  -1 -18   21.80   27.10 
  -3   1  18   43.30   47.50 
  -3   1  18    4.50   31.70 
  -3   1  18   31.00   38.90 
  -3   1  18   71.19   39.40 
  -3   1  18   72.09   34.30 
   4  10  -8  565.64   91.69 
   4  10  -8  674.53  105.09 
  -4 -10   8  493.45   72.49 
  -4 -10   8  354.86   76.89 
  -4 -10   8  255.07   71.39 
  -4 -10   8  474.35   86.69 
  -4 -10   8  339.57   72.79 
   4   9  -9  116.69   42.20 
   4   9  -9   75.19   40.30 
   4   9  -9   66.89   54.19 
   4   9  -9  108.59   49.40 
   4   9  -9  126.69   20.70 
  -4  -9   9   63.29   36.30 
  -4  -9   9   36.00   35.40 
  -4  -9   9   21.50   38.70 
  -4  -9   9   20.70   30.90 
   4   8 -10   80.39   53.79 
   4   8 -10   -2.80   30.80 
   4   8 -10   14.20   29.90 
   4   8 -10  -13.50   39.80 
   4   8 -10   29.10   11.10 
  -4  -8  10   17.80   27.60 
  -4  -8  10   27.40   32.70 
  -4  -8  10   29.50   38.70 
  -4  -8  10  -30.00   29.50 
   4   7 -11  169.48   57.39 
   4   7 -11  183.78   23.40 
   4   7 -11  202.68   43.10 
   4   7 -11  153.18   50.09 
  -4  -7  11   58.29   35.30 
  -4  -7  11  101.39   44.40 
  -4  -7  11  120.79   38.30 
  -4  -7  11   48.90   33.80 
   4   6 -12  -24.70   38.50 
   4   6 -12   -4.70    8.50 
   4   6 -12   -7.80   34.20 
   4   6 -12  -17.60   24.30 
   4   6 -12   -9.70   21.50 
  -4  -6  12   11.90   24.90 
  -4  -6  12  -14.50   24.90 
  -4  -6  12   27.90   32.40 
  -4  -6  12  -16.70   23.60 
  -4  -6  12   16.60   25.10 
   4   5 -13   88.59   17.00 
   4   5 -13   61.39   27.70 
   4   5 -13   69.19   35.70 
   4   5 -13   44.60   24.40 
   4   5 -13   74.49   16.20 
   4   5 -13  110.59   44.90 
  -4  -5  13   18.10   26.00 
  -4  -5  13   30.30   26.60 
  -4  -5  13   91.29   40.40 
  -4  -5  13   45.60   28.80 
   4   4 -14   10.10   19.70 
   4   4 -14   10.60    7.90 
   4   4 -14   35.50   31.70 
   4   4 -14    8.40   20.00 
   4   4 -14    4.20   31.80 
   4   4 -14   14.50    8.30 
  -4  -4  14   26.20   33.40 
  -4  -4  14  -44.70   23.00 
  -4  -4  14   29.60   26.30 
   4   3 -15   23.70   30.80 
   4   3 -15   20.70   28.50 
   4   3 -15   -4.70    6.40 
  -4  -3  15   -9.90   29.90 
  -4  -3  15    1.20   25.80 
  -4  -3  15   -8.90   24.60 
   4   2 -16  191.58   28.10 
   4   2 -16  221.88   46.50 
   4   2 -16  131.99   35.40 
   4   2 -16  196.38   45.50 
  -4  -2  16  201.58   46.70 
  -4  -2  16  189.88   50.69 
  -4  -2  16  241.68   55.29 
  -4  -2  16  187.48   47.40 
   4   1 -17   67.99   14.90 
   4   1 -17   67.19   35.30 
   4   1 -17  108.59   34.50 
   4   1 -17   72.19   26.40 
  -4  -1  17   60.99   41.20 
  -4  -1  17   17.50   39.30 
  -4  -1  17   67.89   13.70 
  -4  -1  17  100.99   39.30 
  -4  -1  17   74.19   37.20 
   5   8 -11  263.57   66.29 
   5   8 -11  332.87   54.39 
   5   8 -11  271.27   54.29 
  -5  -8  11  199.48   50.59 
  -5  -8  11  218.88   53.59 
  -5  -8  11  207.68   63.39 
  -5  -8  11  117.99   45.80 
   5   7 -12   10.70   40.70 
   5   7 -12    7.90   12.50 
   5   7 -12   -8.60   23.90 
   5   7 -12  -11.30   25.70 
   5   7 -12   56.19   47.60 
  -5  -7  12   96.59   37.10 
  -5  -7  12   21.10   32.90 
  -5  -7  12  -15.40   44.00 
  -5  -7  12  -26.50   24.20 
   5   6 -13   37.30   28.80 
   5   6 -13  -17.00   42.90 
   5   6 -13   60.49   16.10 
   5   6 -13  -16.30   22.20 
   5   6 -13   22.40   40.80 
  -5  -6  13    6.80   28.40 
  -5  -6  13   47.70   49.00 
  -5  -6  13  -14.50   28.80 
  -5  -6  13  -12.50   30.10 
   5   5 -14  -27.20   37.90 
   5   5 -14   -4.70   36.00 
   5   5 -14  -24.10   23.00 
   5   5 -14   -6.20    9.20 
   5   5 -14   -7.50    7.10 
  -5  -5  14   10.70   33.90 
  -5  -5  14   -7.30   26.90 
  -5  -5  14    6.30   41.60 
   5   4 -15  104.19   22.00 
   5   4 -15  120.99   50.89 
   5   4 -15   88.19   30.00 
   5   4 -15  170.88   22.80 
   5   4 -15  112.09   37.20 
  -5  -4  15  158.98   39.40 
   5   3 -16   88.59   19.30 
   5   3 -16   84.99   30.90 
   5   3 -16  146.69   47.70 
  -5  -3  16  127.69   39.60 
  -5  -3  16  113.29   49.80 
  -5  -3  16  109.99   44.40 
 -11   4  -1  353.36   46.50 
 -11   4  -1  318.97   45.30 
 -11   4  -1  424.06   70.69 
 -11   4  -1  196.28   43.00 
 -11   4  -1  152.38   51.19 
  11  -4   1  296.37   38.80 
 -11   3  -2  227.98   32.40 
 -11   3  -2  200.88   38.40 
 -11   3  -2  278.57   46.50 
 -11   3  -2  283.97   34.40 
 -11   3  -2  229.18   55.69 
  11  -3   2  179.08   31.10 
 -11   2  -3 1390.26  161.98 
 -11   2  -3 1623.04  187.78 
 -11   2  -3 1448.66  175.48 
  11  -2   3 1404.66  172.18 
 -11   1  -4   12.30    6.90 
 -11   1  -4   38.00   28.90 
 -11   1  -4   -1.60   18.50 
 -11   1  -4   29.50    9.50 
 -11   1  -4   17.40   40.20 
  11  -1   4    5.60    8.70 
 -11   0  -5   16.50   13.50 
 -11   0  -5    6.50   22.20 
 -11   0  -5    9.40   22.30 
 -11   0  -5    9.30   38.70 
 -11   0  -5   10.00    9.60 
  11   0   5   11.10    8.70 
  11   0   5   -9.60   12.60 
  11   0   5   21.90    8.10 
 -11  -1  -6    7.10   13.30 
 -11  -1  -6   14.30   23.80 
 -11  -1  -6   40.50   36.60 
 -11  -1  -6   26.50   21.30 
 -11  -1  -6  100.09   29.70 
  11   1   6   22.70    8.50 
  11   1   6   22.70   17.20 
 -10   6   0   36.50   43.70 
 -10   6   0    9.00   15.70 
 -10   6   0   10.50   20.80 
 -10   6   0   37.60   31.20 
 -10   6   0   34.10   31.50 
  10  -6   0   19.80    9.90 
 -10   5  -1  335.57   55.69 
 -10   5  -1  541.45   75.49 
 -10   5  -1  282.67   48.90 
 -10   5  -1  395.26   53.79 
  10  -5   1  370.36   46.30 
 -10   4  -2   -1.40   29.60 
 -10   4  -2    5.20   14.30 
 -10   4  -2    8.50   17.90 
 -10   4  -2  -16.10   13.10 
  10  -4   2    3.50    7.20 
 -10   3  -3   -1.00   14.10 
 -10   3  -3    8.40   28.90 
 -10   3  -3   10.90   13.50 
 -10   3  -3   27.90   21.70 
 -10   2  -4  891.91   98.49 
 -10   2  -4  960.70   98.59 
 -10   2  -4  695.63  105.69 
  10  -2   4  765.22   99.69 
 -10   1  -5  232.28   41.00 
 -10   1  -5  273.87   33.10 
 -10   1  -5  389.56   47.70 
 -10   1  -5  230.08   34.10 
  10  -1   5  257.47   34.80 
  10  -1   5  228.58   32.90 
 -10   0  -6 1053.99  123.79 
 -10   0  -6 1071.29  130.79 
 -10   0  -6 1339.57  133.49 
  10   0   6 1043.20  125.49 
  10   0   6  983.10  123.39 
 -10  -1  -7  318.87   47.90 
 -10  -1  -7  290.87   47.80 
 -10  -1  -7  305.97   40.80 
 -10  -1  -7  338.57   49.80 
  10   1   7  252.37   39.20 
  10   1   7  307.97   38.00 
 -10  -2  -8  432.16   68.79 
 -10  -2  -8  416.66   62.89 
 -10  -2  -8  519.45   72.79 
 -10  -2  -8  531.55   71.39 
  10   2   8  442.26   58.79 
  10   2   8  486.25   58.69 
  10   2   8  609.34   67.59 
  10   2   8  550.84   61.69 
 -10  -3  -9   13.00   11.90 
 -10  -3  -9    9.00   10.70 
 -10  -3  -9    1.80   22.00 
  10   3   9    6.00   10.40 
  10   3   9   -7.50   14.40 
  10   3   9    3.10    7.70 
  -9   7   0  549.95   84.49 
  -9   7   0  531.25   79.39 
  -9   7   0  523.15   91.39 
  -9   7   0  674.53   76.69 
  -9   7   0  679.63   97.29 
   9  -7   0  666.33   74.19 
   9  -7   0  632.54   77.29 
  -9   6  -1   18.10    9.60 
  -9   6  -1   17.70    8.00 
  -9   6  -1   13.60   14.00 
  -9   6  -1   36.30   26.40 
  -9   6  -1   11.50   18.40 
  -9   6  -1   -1.20   26.00 
  -9   6  -1   10.10   27.60 
   9  -6   1   15.00   11.00 
   9  -6   1   29.20   11.00 
  -9   5  -2  210.48   40.90 
  -9   5  -2  342.07   49.20 
  -9   5  -2  345.07   45.80 
  -9   5  -2  331.27   61.19 
  -9   4  -3  114.99   24.10 
  -9   4  -3  305.47   55.69 
  -9   4  -3   57.69   32.70 
  -9   4  -3  148.39   25.50 
  -9   4  -3  112.19   21.90 
  -9   4  -3  247.68   48.00 
  -9   3  -4  490.35   77.99 
  -9   3  -4  467.95   58.59 
  -9   3  -4  324.57   52.09 
  -9   3  -4  344.57   52.89 
   9  -3   4  471.55   56.79 
  -9   2  -5   21.00   11.90 
  -9   2  -5   30.00   16.00 
  -9   2  -5   25.70   35.80 
  -9   2  -5   16.40   10.80 
  -9   2  -5   31.90   17.70 
   9  -2   5   11.00    7.40 
   9  -2   5   44.00   14.40 
  -9   1  -6  488.05   64.29 
  -9   1  -6  526.55   68.69 
  -9   1  -6  563.64   63.99 
  -9   1  -6  541.25   69.29 
   9  -1   6  515.95   62.39 
   9  -1   6  526.95   64.19 
  -9   0  -7   -4.50   14.00 
  -9   0  -7   -9.70   27.60 
  -9   0  -7   -6.00    9.00 
  -9   0  -7    4.50   13.10 
   9   0   7    4.60    8.40 
   9   0   7   -1.80    6.10 
   9   0   7    6.20    5.30 
  -9  -1  -8  469.35   61.39 
  -9  -1  -8  494.85   66.09 
  -9  -1  -8  482.25   57.09 
  -9  -1  -8  525.85   57.29 
   9   1   8  453.15   58.49 
   9   1   8  449.76   58.59 
   9   1   8  454.15   58.09 
   9   1   8  444.06   58.89 
   9   1   8  504.05   60.99 
   9   1   8  570.44   65.09 
   9   1   8  547.75   58.49 
  -9  -2  -9  128.89   27.20 
  -9  -2  -9  165.88   38.20 
  -9  -2  -9  194.38   25.40 
  -9  -2  -9  147.19   33.20 
   9   2   9  141.79   21.40 
   9   2   9  163.58   32.20 
   9   2   9  138.39   24.90 
   9   2   9  146.89   24.70 
  -9  -3 -10  164.38   30.50 
  -9  -3 -10  167.08   41.30 
  -9  -3 -10  219.38   36.80 
  -9  -3 -10  222.08   33.10 
   9   3  10  208.78   27.50 
   9   3  10  234.98   34.50 
   9   3  10  176.78   31.90 
   9   3  10  197.28   32.50 
  -8   8   0  190.68   61.49 
  -8   8   0  375.06   66.89 
  -8   8   0  285.97   37.70 
  -8   8   0  127.49   49.30 
  -8   8   0  310.67   45.90 
  -8   8   0  421.06   56.29 
  -8   8   0  233.88   42.20 
   8  -8   0  245.58   58.99 
   8  -8   0  318.47   45.10 
  -8   7  -1  352.26   56.29 
  -8   7  -1  441.76   69.39 
  -8   7  -1  239.38   54.29 
  -8   7  -1  295.87   48.80 
  -8   7  -1  400.46   64.69 
  -8   7  -1  457.85   52.09 
   8  -7   1  317.27   50.09 
   8  -7   1  387.56   45.50 
  -8   6  -2  290.37   41.50 
  -8   6  -2  236.98   35.10 
  -8   6  -2  318.57   61.19 
  -8   6  -2  332.07   50.29 
  -8   6  -2  241.28   37.90 
  -8   6  -2  329.37   38.50 
  -8   6  -2  343.17   46.90 
  -8   6  -2  227.58   45.20 
   8  -6   2  275.97   34.70 
   8  -6   2  298.37   37.80 
   8  -6   2  197.68   36.40 
   8  -6   2  232.08   37.70 
  -8   5  -3 1578.04  158.98 
  -8   5  -3 1399.36  159.68 
  -8   5  -3 1258.07  157.58 
   8  -5   3 1493.25  158.78 
   8  -5   3 1287.47  158.68 
  -8   4  -4 1063.29  131.19 
  -8   4  -4 1126.69  133.19 
  -8   4  -4  863.91  142.29 
   8  -4   4 1373.36  132.89 
   8  -4   4 1001.00  130.89 
   8  -4   4 1392.26  135.09 
   8  -4   4 1289.67  131.89 
  -8   3  -5    6.80   11.70 
  -8   3  -5   28.90   17.00 
  -8   3  -5   -8.90   29.00 
  -8   3  -5    8.50   13.10 
   8  -3   5    9.20    6.10 
   8  -3   5    1.40    3.10 
   8  -3   5    9.30   10.40 
  -8   2  -6   19.90   14.50 
  -8   2  -6   60.99   16.20 
  -8   2  -6   72.29   19.20 
  -8   2  -6   89.99   18.40 
  -8   2  -6   61.99   12.00 
  -8   2  -6  167.18   47.70 
  -8   2  -6   38.00   13.90 
   8  -2   6   42.30    7.20 
   8  -2   6   45.70   11.40 
   8  -2   6   48.80    7.70 
  -8   1  -7  311.17   35.40 
  -8   1  -7  229.78   36.70 
  -8   1  -7  204.28   41.90 
  -8   1  -7  253.17   30.90 
  -8   1  -7  248.18   30.70 
   8  -1   7  224.78   31.80 
   8  -1   7  292.17   32.40 
   8  -1   7  275.37   32.90 
   8  -1   7  260.47   34.60 
   8  -1   7  334.27   38.60 
   8  -1   7  272.97   33.10 
  -8   0  -8  402.26   42.30 
  -8   0  -8  347.57   48.70 
  -8   0  -8  327.27   44.80 
  -8   0  -8  281.57   41.00 
  -8   0  -8  306.07   47.70 
  -8   0  -8  377.76   41.60 
  -8   0  -8  283.57   52.89 
   8   0   8  339.07   40.80 
   8   0   8  387.66   42.90 
   8   0   8  331.87   41.70 
   8   0   8  286.67   41.50 
   8   0   8  397.96   47.30 
   8   0   8  289.87   43.70 
  -8  -1  -9  775.32   96.19 
  -8  -1  -9  758.92  102.39 
  -8  -1  -9  838.32  102.69 
  -8  -1  -9  814.02   96.59 
  -8  -1  -9  813.52   98.89 
   8   1   9  931.51  102.09 
   8   1   9  824.92   96.69 
   8   1   9  878.51   99.19 
   8   1   9  842.02   97.69 
   8   1   9  788.82   94.79 
  -8  -2 -10  -11.40   22.80 
  -8  -2 -10  -12.20   11.10 
  -8  -2 -10   -9.20   10.70 
  -8  -2 -10   -9.20   12.60 
  -8  -2 -10  -24.10   11.20 
   8   2  10    4.20    8.30 
   8   2  10    1.30    6.60 
   8   2  10   -6.40    4.70 
   8   2  10    4.00   13.00 
   8   2  10    4.00   12.10 
  -8  -3 -11   12.10   19.00 
  -8  -3 -11    5.70   15.10 
  -8  -3 -11  -13.70   15.10 
   8   3  11  -18.00   16.00 
   8   3  11   17.00   11.30 
   8   3  11    5.50   15.10 
   8   3  11   10.90    6.90 
  -8  -4 -12  244.38   39.10 
  -8  -4 -12  254.07   42.70 
  -8  -4 -12  260.47   45.30 
   8   4  12  188.68   39.50 
   8   4  12  208.28   29.90 
   8   4  12  226.88   39.60 
   8   4  12  249.08   38.00 
  -7   9   0  426.86   71.69 
  -7   9   0  452.15   65.69 
  -7   9   0  360.16   76.49 
  -7   9   0  464.95   71.59 
   7  -9   0  554.54   71.69 
  -7   8  -1  359.86   55.29 
  -7   8  -1  443.46   73.69 
  -7   8  -1  226.78   46.30 
  -7   8  -1  365.56   57.79 
  -7   8  -1  309.97   48.60 
   7  -8   1  445.96   54.79 
   7  -8   1  310.47   49.40 
   7  -8   1  338.67   42.60 
  -7   7  -2   22.10   15.00 
  -7   7  -2   11.50   19.30 
  -7   7  -2    5.40   14.60 
  -7   7  -2  -40.40   18.90 
  -7   7  -2   -7.00   30.40 
  -7   7  -2   51.39   26.60 
   7  -7   2   21.90   18.20 
   7  -7   2    9.80   15.40 
   7  -7   2    0.60    4.70 
  -7   6  -3   66.49   26.80 
  -7   6  -3   35.50   29.90 
  -7   6  -3   33.90   19.20 
  -7   6  -3   59.49   16.30 
  -7   6  -3   32.50   22.80 
  -7   6  -3   45.20   14.10 
  -7   6  -3   84.59   24.30 
   7  -6   3   30.20   15.20 
   7  -6   3   46.80   16.50 
   7  -6   3   31.70   16.00 
  -7   5  -4   26.60   21.70 
  -7   5  -4   23.20   18.10 
  -7   5  -4   39.10   13.10 
  -7   5  -4   10.30    9.80 
  -7   5  -4   22.90   20.80 
  -7   5  -4   30.30   14.50 
   7  -5   4   19.30    7.40 
   7  -5   4   16.60   11.60 
   7  -5   4   12.00   10.10 
  -7   4  -5  370.96   47.30 
  -7   4  -5  237.08   55.79 
  -7   4  -5  328.77   45.90 
  -7   4  -5  363.46   46.80 
  -7   4  -5  370.26   54.39 
  -7   4  -5  464.65   47.90 
   7  -4   5  487.25   48.80 
   7  -4   5  446.06   49.20 
   7  -4   5  317.47   46.00 
   7  -4   5  483.05   61.59 
   7  -4   5  405.36   47.60 
  -7   3  -6 1271.67  173.58 
  -7   3  -6 1374.36  178.68 
  -7   3  -6 1568.54  170.88 
  -7   3  -6 1413.96  170.68 
  -7   3  -6 1645.64  170.68 
  -7   3  -6 1486.65  171.58 
   7  -3   6 1282.87  169.98 
   7  -3   6 1660.93  172.58 
   7  -3   6 1785.42  171.88 
   7  -3   6 1636.34  180.48 
  -7   2  -7  500.55   59.29 
  -7   2  -7  509.65   60.19 
  -7   2  -7  436.56   64.39 
  -7   2  -7  438.16   59.49 
  -7   2  -7  500.05   60.09 
  -7   2  -7  431.76   62.69 
  -7   2  -7  644.04   71.39 
   7  -2   7  532.05   61.09 
   7  -2   7  554.94   61.29 
   7  -2   7  512.35   68.19 
   7  -2   7  575.84   60.99 
  -7   1  -8   27.60   26.40 
  -7   1  -8   32.10    7.80 
  -7   1  -8    3.90    6.40 
  -7   1  -8    2.90    8.70 
  -7   1  -8    1.80   11.70 
  -7   1  -8    6.50   12.20 
  -7   1  -8   17.10   11.90 
  -7   1  -8   -8.10   16.30 
   7  -1   8    3.70    9.70 
   7  -1   8   15.90    8.90 
   7  -1   8   10.70    5.20 
   7  -1   8   13.70    7.20 
   7  -1   8   24.10   15.80 
   7  -1   8   14.50    9.80 
   7  -1   8    6.10    8.10 
  -7   0  -9    8.10   10.80 
  -7   0  -9   -4.70    4.90 
  -7   0  -9    8.40    9.70 
  -7   0  -9   56.79   22.90 
  -7   0  -9   -1.70   19.00 
  -7   0  -9    8.30    7.20 
  -7   0  -9    7.00   14.50 
  -7   0  -9    5.60   11.70 
   7   0   9   -1.90    4.50 
   7   0   9   -0.70    6.70 
   7   0   9   10.80    8.60 
   7   0   9    3.10   10.10 
   7   0   9   14.50   14.00 
   7   0   9   14.70   11.40 
   7   0   9    9.30    8.50 
  -7  -1 -10   27.80   12.60 
  -7  -1 -10   22.80   15.00 
  -7  -1 -10   11.50   10.90 
  -7  -1 -10   10.10   14.70 
  -7  -1 -10   12.30   18.20 
  -7  -1 -10   14.80   10.00 
   7   1  10   13.00   11.60 
   7   1  10    4.20    6.60 
   7   1  10   20.20   11.70 
   7   1  10   17.10    9.70 
   7   1  10   29.40   11.50 
   7   1  10   10.40    4.80 
  -7  -2 -11  172.88   28.00 
  -7  -2 -11  173.38   28.10 
  -7  -2 -11  152.48   29.20 
  -7  -2 -11  152.78   34.30 
  -7  -2 -11  162.48   33.00 
   7   2  11  160.68   27.70 
   7   2  11  175.38   28.20 
   7   2  11  144.89   27.60 
   7   2  11  175.98   29.00 
   7   2  11  152.28   25.30 
   7   2  11  130.29   26.00 
   7   2  11  167.28   21.20 
  -7  -3 -12  748.63   87.09 
  -7  -3 -12  669.73   89.39 
  -7  -3 -12  732.83   91.99 
  -7  -3 -12  643.34   89.39 
   7   3  12  702.93   88.39 
   7   3  12  568.64   87.69 
   7   3  12  826.82   93.59 
   7   3  12  720.33   81.39 
  -7  -4 -13   67.59   30.00 
  -7  -4 -13   49.00   27.80 
  -7  -4 -13  118.79   29.80 
  -7  -4 -13  144.59   28.40 
   7   4  13  104.79   26.20 
   7   4  13  102.59   26.90 
   7   4  13  138.29   17.90 
   7   4  13  141.49   27.10 
  -6  10   0   13.40   26.10 
  -6  10   0  -29.30   27.30 
  -6  10   0  -13.30   34.30 
   6 -10   0    5.50    7.20 
   6 -10   0   25.70   26.60 
   6 -10   0   12.60   18.50 
  -6   9  -1   19.80   31.50 
  -6   9  -1   35.80   33.60 
  -6   9  -1   -8.50   21.80 
  -6   9  -1   19.20   26.40 
  -6   9  -1    6.40   28.00 
  -6   9  -1    5.90   16.90 
   6  -9   1   27.80   28.30 
   6  -9   1   14.20   10.10 
   6  -9   1   18.00    8.90 
   6  -9   1   53.99   12.60 
   6  -9   1   50.79   21.50 
  -6   8  -2  290.27   45.50 
  -6   8  -2  223.68   48.60 
  -6   8  -2  170.28   43.80 
  -6   8  -2  175.98   38.30 
  -6   8  -2  214.98   39.80 
  -6   8  -2  243.68   55.79 
   6  -8   2  200.08   38.10 
   6  -8   2  241.78   30.80 
   6  -8   2  251.77   41.20 
  -6   7  -3   29.40   22.10 
  -6   7  -3   52.69   18.90 
  -6   7  -3   28.90   29.30 
  -6   7  -3   66.39   32.20 
  -6   7  -3   36.30   17.70 
  -6   7  -3   21.50   24.90 
  -6   7  -3   39.80   22.40 
   6  -7   3   47.40   19.80 
   6  -7   3   32.20   10.80 
   6  -7   3   33.70   17.80 
  -6   6  -4 3507.05  387.16 
  -6   6  -4 3269.27  387.66 
   6  -6   4 3434.46  383.06 
   6  -6   4 3284.07  385.76 
   6  -6   4 3549.94  386.16 
  -6   5  -5   18.10   18.80 
  -6   5  -5   13.70   10.40 
  -6   5  -5   14.70   16.30 
  -6   5  -5   24.80   30.10 
  -6   5  -5   31.70   13.10 
  -6   5  -5   16.70    6.30 
  -6   5  -5   17.70   19.30 
   6  -5   5    1.10   19.50 
   6  -5   5   11.60    5.90 
   6  -5   5    9.10    7.40 
   6  -5   5   21.90   12.20 
   6  -5   5   16.20   10.40 
   6  -5   5   16.00   13.50 
  -6   4  -6 1479.85  203.88 
  -6   4  -6 1643.04  201.08 
  -6   4  -6 1989.90  202.38 
  -6   4  -6 1566.04  198.78 
  -6   4  -6 1779.52  202.48 
   6  -4   6 1811.82  209.88 
   6  -4   6 2014.90  202.28 
   6  -4   6 1962.10  201.08 
   6  -4   6 1969.10  202.28 
   6  -4   6 1540.75  200.58 
  -6   3  -7   32.60    9.80 
  -6   3  -7   21.60    6.50 
  -6   3  -7   54.59   18.30 
  -6   3  -7   18.00    9.20 
  -6   3  -7    9.00    9.90 
  -6   3  -7   18.90   12.80 
  -6   3  -7   66.89   34.00 
  -6   3  -7   16.50    8.00 
   6  -3   7   23.20   16.50 
   6  -3   7   17.70    8.60 
   6  -3   7   29.30    8.80 
   6  -3   7   15.60   11.40 
   6  -3   7   25.60   11.50 
   6  -3   7   15.80    6.90 
  -6   2  -8  314.77   40.20 
  -6   2  -8  246.48   39.70 
  -6   2  -8  281.27   41.10 
  -6   2  -8  375.86   46.30 
  -6   2  -8  307.67   38.00 
  -6   2  -8  269.97   38.20 
  -6   2  -8  269.27   36.00 
  -6   2  -8  495.85   67.49 
   6  -2   8  368.26   40.70 
   6  -2   8  290.07   37.10 
   6  -2   8  234.68   36.80 
   6  -2   8  325.27   40.60 
   6  -2   8  295.67   47.10 
  -6   1  -9  207.08   42.60 
  -6   1  -9  142.39   23.60 
  -6   1  -9  162.18   29.90 
  -6   1  -9  152.28   28.30 
  -6   1  -9  151.48   21.40 
  -6   1  -9  193.28   27.30 
  -6   1  -9  159.38   29.10 
   6  -1   9  140.79   25.80 
   6  -1   9  160.58   22.90 
   6  -1   9  163.68   25.70 
   6  -1   9  251.87   28.30 
   6  -1   9  153.68   24.30 
   6  -1   9  188.08   32.80 
  -6   0 -10   25.40   14.70 
  -6   0 -10   51.99   14.90 
  -6   0 -10   57.89   14.00 
  -6   0 -10  110.19   26.50 
  -6   0 -10   59.89   17.10 
  -6   0 -10   97.99   21.80 
  -6   0 -10   51.19    9.40 
  -6   0 -10   31.60   20.60 
   6   0  10   33.90   12.30 
   6   0  10   51.79   17.70 
   6   0  10   51.89   14.40 
   6   0  10   40.30   14.30 
   6   0  10   51.19    8.70 
   6   0  10   32.00   13.10 
   6   0  10   68.19   12.90 
   6   0  10   70.99   16.50 
  -6  -1 -11   51.39   15.30 
  -6  -1 -11   62.29   18.70 
  -6  -1 -11   42.50   21.80 
  -6  -1 -11   50.49   17.00 
  -6  -1 -11   57.29   18.20 
  -6  -1 -11   37.90   13.40 
   6   1  11   54.29    8.70 
   6   1  11   40.40   15.30 
   6   1  11   58.19   16.40 
   6   1  11   34.30   17.60 
   6   1  11   37.00   10.90 
   6   1  11   47.40   17.00 
   6   1  11   55.99   14.90 
  -6  -2 -12   84.09   19.80 
   6   2  12   67.49   15.40 
   6   2  12   74.49   34.40 
   6   2  12   80.09   19.00 
   6   2  12   92.09   12.10 
   6   2  12   84.49   16.90 
   6   2  12   63.69   15.70 
   6   2  12   52.09   18.90 
   6   2  12   85.89   20.40 
  -6  -3 -13   19.20   13.60 
  -6  -3 -13   -6.70   15.50 
  -6  -3 -13    0.50   16.20 
  -6  -3 -13   -9.30   18.50 
   6   3  13   10.60   14.00 
   6   3  13    7.30   14.60 
   6   3  13   24.80   14.80 
   6   3  13   21.60   19.20 
   6   3  13    6.00   14.90 
   6   3  13   17.80   11.50 
   6   3  13    6.60    4.50 
  -6  -4 -14  237.78   42.70 
  -6  -4 -14  221.08   44.80 
  -6  -4 -14  251.17   46.10 
  -6  -4 -14  225.28   48.30 
   6   4  14  253.17   44.50 
   6   4  14  283.17   32.60 
   6   4  14  306.27   44.40 
   6   4  14  217.38   41.70 
   6   4  14  326.07   42.00 
   6   4  14  226.48   37.00 
   6   4  14  260.67   44.50 
  -5  10  -1  198.98   57.29 
  -5  10  -1  233.88   48.70 
  -5  10  -1  198.98   44.80 
  -5  10  -1  261.97   53.19 
   5 -10   1  365.36   58.39 
   5 -10   1  248.38   43.60 
   5 -10   1  260.27   34.10 
   5 -10   1  261.97   41.80 
   5 -10   1  282.67   49.50 
  -5   9  -2  184.38   51.39 
  -5   9  -2  238.38   47.30 
  -5   9  -2  162.78   37.10 
  -5   9  -2  131.99   36.70 
  -5   9  -2  286.07   47.50 
   5  -9   2  203.98   32.90 
   5  -9   2  199.18   38.60 
   5  -9   2  204.98   27.40 
   5  -9   2  315.17   47.60 
   5  -9   2  153.88   33.10 
  -5   8  -3 1046.80  156.98 
  -5   8  -3 1104.19  148.69 
  -5   8  -3 1453.65  151.18 
  -5   8  -3 1164.08  145.79 
   5  -8   3 1500.35  150.28 
   5  -8   3 1032.00  144.89 
   5  -8   3 1256.77  138.89 
   5  -8   3 1160.08  139.99 
  -5   7  -4    5.80   16.00 
  -5   7  -4    6.50   27.00 
  -5   7  -4   12.30   26.90 
  -5   7  -4   -2.80   18.20 
  -5   7  -4   -1.10   21.10 
  -5   7  -4  -16.60   17.60 
   5  -7   4   10.60    8.30 
   5  -7   4   14.10   10.70 
   5  -7   4   13.50    5.80 
   5  -7   4   14.00   17.00 
   5  -7   4  -17.40   17.00 
  -5   6  -5   14.40   19.80 
  -5   6  -5   16.20   14.80 
  -5   6  -5   19.80   14.40 
  -5   6  -5    4.60   20.90 
  -5   6  -5   22.70   27.30 
  -5   6  -5    5.80    5.10 
  -5   6  -5   21.70   16.60 
   5  -6   5   29.40   16.50 
   5  -6   5   18.90    7.80 
   5  -6   5   10.30   16.50 
   5  -6   5    7.40    6.20 
   5  -6   5   13.70    6.50 
   5  -6   5   13.80    6.40 
  -5   5  -6  -12.30   11.10 
  -5   5  -6    7.10   15.50 
  -5   5  -6   10.50    5.00 
  -5   5  -6   10.40   15.30 
  -5   5  -6   33.10   21.60 
  -5   5  -6   14.50   13.80 
  -5   5  -6   -1.70    5.50 
  -5   5  -6   35.20   30.70 
  -5   5  -6   20.70   16.80 
   5  -5   6   -3.70    3.60 
   5  -5   6   27.30   15.00 
   5  -5   6    4.70    4.10 
   5  -5   6    3.00   11.60 
   5  -5   6    2.20    4.10 
   5  -5   6    6.40   17.50 
   5  -5   6   22.00   12.80 
   5  -5   6    9.00    5.30 
  -5   4  -7  405.86   50.79 
  -5   4  -7  366.26   45.20 
  -5   4  -7  365.66   53.19 
  -5   4  -7  349.96   51.29 
  -5   4  -7  269.97   51.29 
  -5   4  -7  582.14   76.79 
  -5   4  -7  345.97   50.19 
  -5   4  -7  372.66   46.60 
   5  -4   7  382.16   49.40 
   5  -4   7  335.37   62.09 
   5  -4   7  432.36   47.50 
   5  -4   7  422.36   47.80 
   5  -4   7  401.46   51.09 
  -5   3  -8  732.03   92.69 
  -5   3  -8  948.71   97.99 
  -5   3  -8  696.83   97.69 
  -5   3  -8  979.90  118.49 
  -5   3  -8  758.92   95.29 
  -5   3  -8 1011.90   99.59 
  -5   3  -8  662.83   96.09 
   5  -3   8  854.91   94.99 
   5  -3   8  680.13   95.39 
   5  -3   8  934.81   96.79 
   5  -3   8  841.82  103.49 
   5  -3   8  895.51   98.39 
  -5   2  -9 1790.72  214.48 
  -5   2  -9 1917.21  214.48 
  -5   2  -9 1808.82  210.88 
  -5   2  -9 2229.68  230.98 
  -5   2  -9 2156.98  221.28 
  -5   2  -9 2141.69  216.18 
  -5   2  -9 1629.54  215.38 
   5  -2   9 1897.71  214.88 
   5  -2   9 1921.61  212.98 
   5  -2   9 1525.75  212.88 
   5  -2   9 1917.71  210.08 
   5  -2   9 1767.12  218.88 
   5  -2   9 1779.92  210.08 
   5  -2   9 2074.59  215.48 
  -5   1 -10   42.20   16.30 
  -5   1 -10   31.90   15.00 
  -5   1 -10   60.19   24.80 
  -5   1 -10   54.19   16.80 
  -5   1 -10   40.90   14.30 
  -5   1 -10   38.00   13.80 
  -5   1 -10   39.60    8.40 
   5  -1  10   39.40   10.50 
   5  -1  10   43.30   19.30 
   5  -1  10   34.30   14.20 
   5  -1  10   58.39   11.00 
   5  -1  10   49.70   13.10 
   5  -1  10   40.40   12.80 
   5  -1  10   52.59   10.60 
  -5   0 -11  -11.40   14.70 
  -5   0 -11   -1.70   11.70 
  -5   0 -11    9.10   16.10 
  -5   0 -11    0.40    8.90 
  -5   0 -11    3.40   10.80 
   5   0  11    0.10    6.20 
   5   0  11    8.50   11.00 
   5   0  11   39.00   11.20 
   5   0  11   13.60   12.90 
   5   0  11    1.40    4.50 
   5   0  11  -14.90    8.60 
   5   0  11   -4.20   10.10 
   5   0  11    0.00   14.60 
  -5  -1 -12   51.29   14.40 
  -5  -1 -12   57.79   21.20 
  -5  -1 -12   43.40   17.70 
  -5  -1 -12   36.50   18.50 
  -5  -1 -12   31.20   17.20 
  -5  -1 -12   34.50   17.40 
   5   1  12   44.80   19.60 
   5   1  12   51.09   17.30 
   5   1  12   55.29    8.00 
   5   1  12   76.69   17.20 
   5   1  12   47.60   14.20 
   5   1  12   75.89   19.00 
   5   1  12   64.09   12.90 
   5   1  12   53.99   18.50 
   5   1  12   25.70   14.70 
  -5  -2 -13   -9.70   13.70 
  -5  -2 -13   21.10   16.10 
  -5  -2 -13   18.70   11.70 
  -5  -2 -13   42.50   17.20 
   5   2  13   17.30   16.90 
   5   2  13    9.90    9.50 
   5   2  13   17.50   19.00 
   5   2  13   29.50   19.00 
   5   2  13   17.80   15.80 
   5   2  13   37.40    9.30 
   5   2  13   14.60   13.60 
   5   2  13   25.30    5.50 
   5   2  13   45.80   19.20 
  -5  -3 -14   41.80   18.60 
  -5  -3 -14    2.10   19.60 
  -5  -3 -14   33.30   17.60 
  -5  -3 -14    9.80   21.00 
   5   3  14   -1.80   20.70 
   5   3  14   15.30   16.60 
   5   3  14   46.30   14.80 
   5   3  14   32.70    6.50 
   5   3  14    8.00   21.20 
   5   3  14   19.60    8.50 
   5   3  14   27.90   19.10 
  -5  -4 -15  163.08   35.00 
  -5  -4 -15  145.69   36.00 
  -5  -4 -15  183.08   37.20 
   5   4  15  161.38   34.80 
   5   4  15  190.48   39.30 
   5   4  15  141.59   32.30 
   5   4  15  184.18   37.20 
   5   4  15  198.38   30.80 
   5   4  15  149.19   21.40 
  -4  11  -1  214.88   58.49 
  -4  11  -1  177.88   46.40 
  -4  11  -1  168.88   41.90 
   4 -11   1  249.18   62.99 
   4 -11   1  232.58   42.80 
   4 -11   1  338.67   53.99 
  -4  10  -2   -7.30   19.10 
  -4  10  -2  -30.00   29.70 
  -4  10  -2   18.90   27.10 
  -4  10  -2   16.30   26.60 
  -4  10  -2   12.50   32.00 
   4 -10   2  -15.00   17.50 
   4 -10   2   44.10   29.80 
   4 -10   2   31.70   24.90 
   4 -10   2   19.50   31.60 
  -4   9  -3  153.38   39.40 
  -4   9  -3  117.29   36.80 
  -4   9  -3  114.29   42.60 
  -4   9  -3  111.99   35.80 
   4  -9   3  114.49   25.30 
   4  -9   3  130.19   32.60 
   4  -9   3   82.59   31.60 
  -4   8  -4 1430.76  151.58 
  -4   8  -4 1153.38  146.49 
  -4   8  -4 1270.97  160.48 
   4  -8   4 1167.48  141.39 
   4  -8   4 1120.29  142.69 
   4  -8   4 1177.88  147.79 
  -4   7  -5  289.97   51.39 
  -4   7  -5  304.67   52.99 
  -4   7  -5  230.28   57.69 
  -4   7  -5  552.64   66.79 
  -4   7  -5  537.75   62.29 
  -4   7  -5  400.26   73.19 
   4  -7   5  390.86   48.20 
   4  -7   5  286.47   54.99 
   4  -7   5  418.06   54.99 
   4  -7   5  354.76   49.40 
  -4   6  -6 1581.44  206.08 
  -4   6  -6 2150.38  227.98 
  -4   6  -6 1447.26  205.48 
  -4   6  -6 1900.61  209.48 
  -4   6  -6 1701.43  211.08 
  -4   6  -6 2218.18  213.48 
   4  -6   6 1494.25  206.78 
   4  -6   6 1871.41  207.18 
   4  -6   6 1775.02  213.58 
   4  -6   6 1829.52  204.28 
   4  -6   6 1857.21  206.88 
  -4   5  -7  368.36   44.60 
  -4   5  -7  391.46   47.00 
  -4   5  -7  422.26   54.29 
  -4   5  -7  288.07   50.99 
  -4   5  -7  425.76   70.19 
  -4   5  -7  441.66   53.59 
  -4   5  -7  427.16   56.69 
  -4   5  -7  336.47   54.29 
   4  -5   7  423.46   52.99 
   4  -5   7  361.96   52.29 
   4  -5   7  374.16   45.90 
   4  -5   7  418.36   46.60 
   4  -5   7  351.36   47.20 
   4  -5   7  385.76   59.39 
   4  -5   7  322.57   51.29 
  -4   4  -8 2510.25  266.47 
  -4   4  -8 1999.40  249.08 
  -4   4  -8 2183.08  244.78 
  -4   4  -8 1808.02  248.48 
  -4   4  -8 2022.00  242.18 
  -4   4  -8 2326.47  249.78 
   4  -4   8 2226.28  248.38 
   4  -4   8 2254.47  245.08 
   4  -4   8 2305.57  245.08 
   4  -4   8 2270.97  248.48 
   4  -4   8 2046.60  247.78 
   4  -4   8 2394.36  244.88 
   4  -4   8 1940.21  246.38 
  -4   3  -9   48.10   16.30 
  -4   3  -9   61.79   21.30 
  -4   3  -9   56.39   26.30 
  -4   3  -9   71.59   16.50 
  -4   3  -9   28.10    6.50 
  -4   3  -9   26.60   14.50 
  -4   3  -9   32.20   11.40 
   4  -3   9   46.60   15.10 
   4  -3   9   64.99   15.90 
   4  -3   9   46.10   11.50 
   4  -3   9   59.59   21.70 
   4  -3   9   65.99   11.30 
   4  -3   9   43.10   10.50 
   4  -3   9   23.60   11.80 
  -4   2 -10   79.39   25.40 
  -4   2 -10   97.49   28.70 
  -4   2 -10  117.39   20.60 
  -4   2 -10   80.69   18.20 
  -4   2 -10   94.29   19.60 
  -4   2 -10  102.99   22.50 
  -4   2 -10  125.89   22.40 
   4  -2  10   77.89   18.30 
   4  -2  10   89.49   18.60 
   4  -2  10  108.19   15.40 
   4  -2  10  106.79   28.10 
   4  -2  10   86.19   19.40 
   4  -2  10   86.59   20.00 
  -4   1 -11  409.06   53.19 
  -4   1 -11  390.16   63.59 
  -4   1 -11  456.85   59.29 
  -4   1 -11  380.06   55.79 
  -4   1 -11  438.96   53.79 
  -4   1 -11  428.66   54.99 
  -4   1 -11  408.96   47.60 
   4  -1  11  410.36   54.79 
   4  -1  11  440.26   50.49 
   4  -1  11  384.56   53.89 
   4  -1  11  358.06   53.09 
   4  -1  11  439.86   52.69 
   4  -1  11  449.26   60.59 
   4  -1  11  367.06   52.89 
  -4   0 -12    5.70    2.70 
  -4   0 -12    2.60   14.60 
  -4   0 -12   24.50   15.90 
  -4   0 -12    4.10   11.20 
  -4   0 -12   13.50   15.60 
  -4   0 -12   12.50   16.90 
   4   0  12    1.50    4.80 
   4   0  12   -3.80   17.70 
   4   0  12    4.70   12.80 
   4   0  12    3.10   11.10 
   4   0  12    4.30   10.50 
  -4  -1 -13   95.69   27.50 
  -4  -1 -13  118.89   22.00 
  -4  -1 -13  124.09   27.50 
  -4  -1 -13  138.89   27.00 
  -4  -1 -13  105.29   24.10 
   4   1  13   86.29   22.50 
   4   1  13  108.09   22.70 
   4   1  13  112.59   29.80 
   4   1  13  100.89   23.50 
   4   1  13  100.29   16.80 
   4   1  13   89.19   25.60 
   4   1  13   93.89   25.30 
  -4  -2 -14   -3.70   15.60 
  -4  -2 -14    0.40   14.50 
  -4  -2 -14   43.10   17.10 
   4   2  14   26.80   19.40 
   4   2  14    7.80    6.30 
   4   2  14  -11.00   22.50 
   4   2  14    8.30   14.30 
   4   2  14    9.70   16.10 
   4   2  14   19.90    4.00 
   4   2  14   11.40   18.80 
  -4  -3 -15   28.40   12.80 
  -4  -3 -15    0.40   14.30 
  -4  -3 -15   16.30   22.40 
  -4  -3 -15    6.30   16.00 
   4   3  15   11.40    6.70 
   4   3  15    9.80   19.00 
   4   3  15    6.80   25.50 
   4   3  15   22.30   22.20 
   4   3  15    4.30    3.80 
   4   3  15   33.20   25.90 
  -4  -4 -16   72.79   26.60 
  -4  -4 -16  124.79   28.10 
   4   4  16  100.89   28.40 
   4   4  16   81.89   38.40 
   4   4  16   65.99   29.70 
  -3  11  -2   84.09   40.00 
  -3  11  -2  132.99   40.10 
  -3  11  -2  164.88   51.39 
  -3  11  -2  110.19   45.50 
   3 -11   2  236.98   57.99 
   3 -11   2  236.08   46.90 
   3 -11   2  134.79   34.90 
   3 -11   2  141.39   33.60 
  -3  10  -3    3.70   36.20 
  -3  10  -3  -45.90   19.40 
  -3  10  -3    3.10   27.00 
  -3  10  -3  -11.40   32.30 
   3 -10   3  -30.60   18.40 
   3 -10   3   11.60   16.40 
   3 -10   3   19.50   24.90 
   3 -10   3  -39.80   30.50 
  -3   9  -4  136.29   48.40 
  -3   9  -4  141.69   41.90 
  -3   9  -4  259.87   47.00 
  -3   9  -4  165.78   42.00 
   3  -9   4  151.38   49.60 
   3  -9   4  154.08   33.80 
   3  -9   4  245.58   47.00 
   3  -9   4  149.99   38.10 
  -3   8  -5   -8.60   18.80 
  -3   8  -5   32.80   26.60 
  -3   8  -5  -16.00   25.60 
  -3   8  -5   23.60   23.50 
  -3   8  -5    1.20   22.80 
   3  -8   5   39.00   16.30 
   3  -8   5   38.40   22.50 
   3  -8   5   -4.10   20.00 
   3  -8   5  -20.60   18.20 
  -3   7  -6 1494.55  178.18 
  -3   7  -6 1807.52  202.08 
  -3   7  -6 1205.68  170.88 
  -3   7  -6 1474.75  174.48 
   3  -7   6 1375.66  170.58 
   3  -7   6 1571.44  171.18 
   3  -7   6 1357.56  174.98 
   3  -7   6 1423.16  163.08 
   3  -7   6 1596.14  174.38 
  -3   6  -7   22.60   16.30 
  -3   6  -7   34.80   26.40 
  -3   6  -7   12.00   17.40 
  -3   6  -7   42.30   13.10 
  -3   6  -7   22.80   24.90 
  -3   6  -7   10.70   21.50 
  -3   6  -7   30.30   20.30 
  -3   6  -7   42.30   24.10 
   3  -6   7   12.70   17.20 
   3  -6   7   31.20    8.60 
   3  -6   7   24.60   14.50 
   3  -6   7   10.00   11.10 
   3  -6   7   22.10   22.10 
   3  -6   7   42.00   19.70 
   3  -6   7    9.60   15.20 
   3  -6   7   27.90    6.80 
  -3   5  -8  793.22  102.39 
  -3   5  -8  925.81   96.29 
  -3   5  -8  933.31  116.19 
  -3   5  -8  715.73  100.99 
  -3   5  -8 1015.10  104.09 
  -3   5  -8  633.14   97.79 
  -3   5  -8  733.93  102.89 
   3  -5   8  709.63   99.99 
   3  -5   8  889.91  100.99 
   3  -5   8  781.52  104.09 
   3  -5   8  803.32   93.29 
   3  -5   8  809.62   96.89 
   3  -5   8  820.52   94.39 
  -3   4  -9   35.00   16.10 
  -3   4  -9   14.00   16.10 
  -3   4  -9   40.60   22.30 
  -3   4  -9   81.59   30.00 
  -3   4  -9    4.90   10.80 
  -3   4  -9   37.00   13.50 
  -3   4  -9   40.10    6.40 
  -3   4  -9   30.50   17.80 
  -3   4  -9   53.89   17.10 
   3  -4   9   39.70   12.80 
   3  -4   9   38.00   11.40 
   3  -4   9   29.20   13.90 
   3  -4   9   43.30   21.60 
   3  -4   9   48.80    9.70 
   3  -4   9   36.60   15.60 
  -3   3 -10  213.58   41.90 
  -3   3 -10  204.18   30.70 
  -3   3 -10  198.68   33.60 
  -3   3 -10  215.38   35.80 
  -3   3 -10  213.58   35.20 
  -3   3 -10  170.98   32.90 
  -3   3 -10  243.78   34.60 
  -3   3 -10  276.77   49.50 
   3  -3  10  201.38   32.70 
   3  -3  10  201.38   26.60 
   3  -3  10  212.48   30.60 
   3  -3  10  198.58   30.20 
   3  -3  10  115.99   30.20 
   3  -3  10  222.18   40.10 
   3  -3  10  172.98   34.50 
  -3   2 -11   35.80   22.80 
  -3   2 -11   30.30   13.50 
  -3   2 -11   20.20   12.90 
  -3   2 -11   30.30   15.10 
  -3   2 -11   32.70   14.60 
  -3   2 -11   67.59   20.50 
   3  -2  11   22.40   12.50 
   3  -2  11   35.20    9.10 
   3  -2  11   44.70   14.20 
   3  -2  11   41.80   19.80 
   3  -2  11   13.70   12.10 
   3  -2  11   43.80   15.50 
   3  -2  11   35.00   14.50 
  -3   1 -12 1200.08  142.39 
  -3   1 -12 1137.59  144.19 
  -3   1 -12 1202.08  149.59 
  -3   1 -12 1214.68  142.59 
  -3   1 -12 1152.28  142.39 
  -3   1 -12 1296.87  143.09 
  -3   1 -12 1218.38  146.59 
   3  -1  12 1259.97  144.19 
   3  -1  12 1226.88  143.39 
   3  -1  12 1191.98  146.99 
   3  -1  12 1204.58  142.19 
   3  -1  12 1141.89  142.69 
   3  -1  12 1264.67  138.69 
   3  -1  12 1181.98  142.49 
  -3   0 -13   14.50   14.60 
  -3   0 -13    1.50    1.60 
  -3   0 -13  -13.50   15.80 
  -3   0 -13   -5.50   16.20 
  -3   0 -13   -0.30   12.20 
   3   0  13    0.00   12.10 
   3   0  13   -3.00   20.30 
   3   0  13    3.20   15.80 
   3   0  13   21.70   13.10 
   3   0  13    1.50    4.10 
   3   0  13  -10.10   14.80 
  -3  -1 -14  225.28   39.40 
  -3  -1 -14  261.97   37.00 
  -3  -1 -14  201.78   38.90 
  -3  -1 -14  233.88   39.10 
   3   1  14  218.98   36.60 
   3   1  14  226.38   40.30 
   3   1  14  215.78   38.20 
   3   1  14  251.37   41.10 
   3   1  14  220.98   30.10 
   3   1  14  217.58   40.90 
   3   1  14  252.17   51.49 
  -3  -2 -15    7.70   18.20 
  -3  -2 -15   16.50   18.50 
  -3  -2 -15    1.30   14.70 
  -3  -2 -15   -2.40   13.00 
   3   2  15   22.10   19.60 
   3   2  15   -3.00    5.90 
   3   2  15    4.70   20.40 
   3   2  15   29.40   24.80 
   3   2  15    9.40   16.70 
   3   2  15    3.80   22.00 
  -3  -3 -16  -13.20   15.20 
  -3  -3 -16    6.00   17.90 
  -3  -3 -16    0.40   14.40 
   3   3  16   11.80   30.10 
   3   3  16    3.90    3.40 
   3   3  16   11.60   25.90 
   3   3  16    6.10    6.80 
   3   3  16   -2.70   20.50 
   3   3  16  -25.40   26.00 
   3   3  16  -15.70   21.20 
  -3  -4 -17   22.50   21.50 
  -3  -4 -17   37.90   20.40 
  -3  -4 -17  -14.70   17.90 
   3   4  17    9.10   34.70 
   3   4  17   19.00   24.90 
  -2  11  -3  534.15   92.39 
  -2  11  -3  407.66   79.69 
  -2  11  -3  656.73   91.79 
   2 -11   3  729.53   86.19 
   2 -11   3  452.95   59.19 
   2 -11   3  547.25   69.39 
   2 -11   3  586.14   91.79 
   2 -11   3  420.76   57.49 
  -2  10  -4  676.93   98.09 
  -2  10  -4  543.15   79.19 
   2 -10   4  772.82   92.89 
   2 -10   4  471.75   63.99 
   2 -10   4  606.44   79.09 
  -2   9  -5   65.09   32.90 
  -2   9  -5   -6.00   23.00 
  -2   9  -5  -22.10   28.80 
  -2   9  -5   39.90   33.00 
  -2   9  -5   27.90   30.40 
   2  -9   5   21.50    8.60 
   2  -9   5    7.10   15.00 
   2  -9   5   -9.00   28.50 
   2  -9   5   15.90   27.10 
  -2   8  -6   38.20   49.20 
  -2   8  -6   72.39   31.20 
  -2   8  -6  129.89   40.50 
  -2   8  -6   15.20   22.40 
  -2   8  -6   36.60   29.10 
   2  -8   6   43.00   25.30 
   2  -8   6   27.20   17.80 
   2  -8   6   29.20    9.70 
   2  -8   6   62.59   25.90 
   2  -8   6   91.59   36.10 
  -2   7  -7  587.44   86.79 
  -2   7  -7  487.95   66.59 
  -2   7  -7  495.45   72.49 
  -2   7  -7  461.15   57.29 
   2  -7   7  390.76   52.09 
   2  -7   7  419.56   49.50 
   2  -7   7  466.55   61.79 
   2  -7   7  404.26   62.39 
   2  -7   7  439.26   69.99 
   2  -7   7  394.26   68.39 
  -2   6  -8  317.47   51.49 
  -2   6  -8  316.77   54.29 
  -2   6  -8  428.96   51.49 
  -2   6  -8  223.78   39.40 
  -2   6  -8  358.06   51.99 
  -2   6  -8  425.16   61.09 
   2  -6   8  309.77   49.99 
   2  -6   8  285.87   37.20 
   2  -6   8  224.58   51.39 
   2  -6   8  249.08   41.50 
   2  -6   8  220.38   43.30 
   2  -6   8  231.88   47.60 
   2  -6   8  207.78   41.30 
  -2   5  -9 1912.21  199.78 
  -2   5  -9 1934.11  198.38 
  -2   5  -9 1367.06  189.78 
  -2   5  -9 1675.53  194.08 
   2  -5   9 1584.74  191.08 
   2  -5   9 1869.61  192.48 
   2  -5   9 1539.05  195.98 
   2  -5   9 1643.94  186.98 
   2  -5   9 1424.86  190.48 
   2  -5   9 1600.34  194.18 
  -2   4 -10   80.99   21.00 
  -2   4 -10  125.89   33.30 
  -2   4 -10   78.49   23.40 
  -2   4 -10  185.48   37.10 
  -2   4 -10   79.39   10.50 
  -2   4 -10   71.69   24.10 
  -2   4 -10  100.79   24.40 
  -2   4 -10   95.79   23.60 
  -2   4 -10  116.59   20.50 
   2  -4  10   69.99   19.60 
   2  -4  10   66.89   25.00 
   2  -4  10   96.59   21.50 
   2  -4  10   80.89   17.50 
   2  -4  10   86.49   21.70 
   2  -4  10   68.29   21.20 
  -2   3 -11   21.20   16.10 
  -2   3 -11   34.90   13.50 
  -2   3 -11    7.90   15.10 
  -2   3 -11   59.79   16.80 
  -2   3 -11   39.40   16.70 
  -2   3 -11   26.40   20.20 
  -2   3 -11   16.50   18.10 
  -2   3 -11   31.10   16.00 
   2  -3  11    3.70   18.20 
   2  -3  11   41.40    9.10 
   2  -3  11   36.80   12.20 
   2  -3  11   20.10   14.80 
   2  -3  11   28.70   15.00 
   2  -3  11   53.59   16.10 
   2  -3  11   23.90   14.10 
   2  -3  11   43.90   14.60 
  -2   2 -12 1038.10  134.49 
  -2   2 -12 1340.27  136.29 
  -2   2 -12 1215.58  143.89 
  -2   2 -12 1112.69  135.59 
  -2   2 -12 1207.48  136.99 
  -2   2 -12 1057.99  135.59 
  -2   2 -12 1091.39  140.49 
   2  -2  12 1185.48  135.79 
   2  -2  12 1023.70  134.49 
   2  -2  12 1262.37  130.59 
   2  -2  12 1070.69  134.59 
   2  -2  12 1196.68  135.89 
   2  -2  12  945.01  145.49 
   2  -2  12 1057.59  135.59 
  -2   1 -13   26.50   16.10 
  -2   1 -13   41.80   18.50 
  -2   1 -13   16.70   16.20 
  -2   1 -13   35.00   15.80 
  -2   1 -13    8.70   16.70 
   2  -1  13   15.80   15.70 
   2  -1  13  123.39   24.00 
   2  -1  13   41.90   16.90 
   2  -1  13   55.79   10.70 
   2  -1  13   33.30   16.00 
   2  -1  13   52.09   17.40 
   2  -1  13   34.50   23.80 
  -2   0 -14  440.66   63.39 
  -2   0 -14  491.25   66.49 
  -2   0 -14  559.54   69.49 
  -2   0 -14  499.35   68.09 
   2   0  14  478.05   65.39 
   2   0  14  464.75   56.99 
   2   0  14  502.05   71.59 
   2   0  14  449.46   64.29 
   2   0  14  488.35   65.49 
   2   0  14  426.06   63.69 
   2   0  14  472.15   65.69 
  -2  -1 -15  409.56   53.19 
  -2  -1 -15  373.46   52.29 
  -2  -1 -15  266.87   46.90 
   2   1  15  326.67   56.19 
   2   1  15  269.17   51.09 
   2   1  15  345.87   54.59 
   2   1  15  351.26   61.39 
   2   1  15  352.86   42.10 
   2   1  15  325.47   50.59 
   2   1  15  318.37   51.49 
  -2  -2 -16  384.06   50.89 
  -2  -2 -16  321.37   52.29 
  -2  -2 -16  331.47   49.10 
   2   2  16  266.57   54.29 
   2   2  16  318.47   41.60 
   2   2  16  364.46   55.79 
   2   2  16  345.97   57.69 
   2   2  16  310.07   56.89 
  -2  -3 -17   10.80   16.90 
  -2  -3 -17   -0.20   20.20 
  -2  -3 -17   -6.80   21.00 
   2   3  17    3.00   31.40 
   2   3  17   12.50    4.70 
   2   3  17  -17.90   26.40 
   2   3  17   55.99   30.60 
   2   3  17   14.00   22.00 
  -1  11  -4   16.40   33.40 
  -1  11  -4   38.40   32.20 
  -1  11  -4   65.39   41.40 
   1 -11   4    7.80   14.60 
   1 -11   4   43.90   26.00 
   1 -11   4   14.90   44.60 
   1 -11   4   -8.80   19.30 
  -1  10  -5  195.88   46.30 
  -1  10  -5  360.36   62.99 
  -1  10  -5  316.37   58.99 
  -1  10  -5  237.68   53.69 
   1 -10   5  195.08   49.70 
   1 -10   5  227.68   44.10 
   1 -10   5  188.48   38.20 
   1 -10   5  251.97   57.19 
   1 -10   5  132.99   28.50 
  -1   9  -6  636.14   80.19 
  -1   9  -6  468.95   74.19 
  -1   9  -6  546.45   76.79 
   1  -9   6  404.36   68.49 
   1  -9   6  327.97   51.09 
   1  -9   6  368.86   68.79 
   1  -9   6  364.26   57.09 
   1  -9   6  422.66   64.69 
  -1   8  -7  379.96   63.79 
  -1   8  -7  349.96   62.39 
  -1   8  -7  322.77   56.39 
  -1   8  -7  358.96   58.79 
  -1   8  -7  454.45   71.09 
   1  -8   7  184.28   45.30 
   1  -8   7  256.87   45.60 
   1  -8   7  221.58   36.60 
   1  -8   7  244.08   50.19 
  -1   7  -8   11.10   30.10 
  -1   7  -8    7.70   26.90 
  -1   7  -8    3.00   22.10 
  -1   7  -8   22.20   18.10 
  -1   7  -8  -12.40   21.40 
  -1   7  -8   -3.70   24.70 
   1  -7   8   -8.80   14.80 
   1  -7   8   17.70   20.20 
   1  -7   8    1.60   16.50 
   1  -7   8    5.10   19.30 
   1  -7   8   22.20   10.70 
  -1   6  -9  197.48   42.60 
  -1   6  -9  299.37   44.50 
  -1   6  -9  161.28   39.80 
  -1   6  -9  189.18   40.50 
   1  -6   9  113.79   30.40 
   1  -6   9  101.99   29.50 
   1  -6   9  113.59   23.00 
   1  -6   9  159.08   32.60 
   1  -6   9  119.59   28.90 
  -1   5 -10   54.59   22.50 
  -1   5 -10   36.00   21.30 
  -1   5 -10   23.10   16.40 
  -1   5 -10   39.60   23.50 
  -1   5 -10   41.80   25.60 
  -1   5 -10   33.20   18.80 
  -1   5 -10   60.59   18.30 
  -1   5 -10   49.90   26.20 
   1  -5  10   39.90   17.80 
   1  -5  10   23.90   15.00 
   1  -5  10   38.00   24.50 
   1  -5  10   55.09   19.90 
   1  -5  10   52.19   13.90 
   1  -5  10   42.60   18.50 
   1  -5  10   28.80   18.10 
  -1   4 -11  551.94   67.89 
  -1   4 -11  367.56   43.80 
  -1   4 -11  348.47   55.09 
  -1   4 -11  328.87   50.99 
  -1   4 -11  556.54   59.89 
  -1   4 -11  443.56   54.19 
  -1   4 -11  548.25   66.99 
  -1   4 -11  344.17   57.09 
  -1   4 -11  363.36   61.59 
   1  -4  11  353.86   60.49 
   1  -4  11  358.36   53.89 
   1  -4  11  383.06   50.69 
   1  -4  11  358.86   56.39 
   1  -4  11  438.06   56.19 
   1  -4  11  324.87   53.89 
   1  -4  11  354.16   53.49 
  -1   3 -12  930.01  136.19 
  -1   3 -12 1006.50  141.19 
  -1   3 -12 1275.67  145.39 
  -1   3 -12 1056.99  137.79 
  -1   3 -12 1217.38  142.29 
  -1   3 -12 1075.49  133.69 
  -1   3 -12 1401.76  137.89 
   1  -3  12 1053.39  135.79 
   1  -3  12 1214.68  134.99 
   1  -3  12 1011.60  134.69 
   1  -3  12 1145.49  141.19 
   1  -3  12 1215.68  138.09 
   1  -3  12 1169.38  138.29 
  -1   2 -13   23.90   20.70 
  -1   2 -13   52.29   18.00 
  -1   2 -13   37.90   17.00 
  -1   2 -13   19.00   15.90 
  -1   2 -13   30.80   17.60 
   1  -2  13   28.10   14.30 
   1  -2  13   27.60   16.20 
   1  -2  13   28.20   16.80 
   1  -2  13    9.00   22.20 
   1  -2  13   57.69   20.80 
   1  -2  13   34.80   18.10 
   1  -2  13   49.00   10.50 
  -1   1 -14   52.29   10.60 
  -1   1 -14   56.99   17.60 
  -1   1 -14  100.49   21.20 
  -1   1 -14   36.60   24.50 
  -1   1 -14   67.89   21.40 
  -1   1 -14   81.19   22.90 
   1  -1  14   75.89   23.30 
   1  -1  14   66.59   12.60 
   1  -1  14   68.99   21.60 
   1  -1  14   71.39   22.10 
   1  -1  14   51.49   22.80 
  -1   0 -15   -4.10   13.60 
  -1   0 -15    2.40   16.80 
  -1   0 -15    5.80   21.40 
  -1   0 -15    0.20    3.00 
  -1   0 -15   -2.20   16.00 
   1   0  15  -17.80   17.00 
   1   0  15   -1.70    5.10 
   1   0  15   -2.60   17.00 
   1   0  15   40.10   18.30 
   1   0  15   26.40   18.90 
  -1  -1 -16   97.89   27.90 
  -1  -1 -16   41.20   20.70 
   1   1  16   73.49   31.00 
   1   1  16   81.79   29.80 
   1   1  16   51.79   24.40 
   1   1  16   76.99   13.80 
   1   1  16   63.39   23.30 
   1   1  16   54.99   24.10 
  -1  -2 -17  178.78   37.10 
  -1  -2 -17  186.08   39.10 
  -1  -2 -17  257.37   45.50 
   1   2  17  249.58   50.99 
   1   2  17  214.78   44.90 
   1   2  17  207.58   28.70 
   1   2  17  224.18   49.70 
   1   2  17  240.68   48.40 
   1   2  17  246.08   48.30 
  -1  -3 -18   48.70   24.90 
  -1  -3 -18   54.59   24.80 
  -1  -3 -18   91.29   28.00 
   1   3  18   60.29   40.50 
   1   3  18   62.09   42.10 
   1   3  18   51.89   31.00 
   1   3  18  -10.70   31.40 
   0  11  -5    9.00   44.30 
   0  11  -5  -23.60   32.30 
   0  11  -5   21.70   36.60 
   0  11  -5   45.70   43.70 
   0 -11   5   -1.70   17.60 
   0 -11   5    1.20   30.00 
   0 -11   5    9.90   22.90 
   0 -11   5    0.50   35.90 
   0 -11   5    3.30   44.50 
   0  10  -6 1043.10  117.39 
   0 -10   6 1033.80  117.69 
   0 -10   6  849.61  103.09 
   0 -10   6  639.84   95.29 
   0 -10   6  645.04  111.89 
   0   9  -7  -14.30   28.50 
   0   9  -7  -46.70   35.90 
   0   9  -7   23.20   27.10 
   0  -9   7   20.10   22.80 
   0  -9   7   -5.10   22.80 
   0  -9   7   -9.80   18.30 
   0  -9   7  -27.30   27.10 
   0  -9   7   -3.40   13.70 
   0   8  -8  415.96   64.29 
   0   8  -8  318.17   56.69 
   0   8  -8  479.95   70.89 
   0  -8   8  206.78   34.90 
   0  -8   8  226.68   44.80 
   0  -8   8  223.08   49.90 
   0  -8   8  192.78   26.80 
   0  -8   8  228.08   42.10 
   0   7  -9   -4.50   24.50 
   0   7  -9  -21.90   18.40 
   0   7  -9   29.60   24.70 
   0   7  -9    4.40   26.10 
   0   7  -9  -20.50   32.20 
   0   7  -9  -54.49   23.00 
   0  -7   9   -6.10   22.80 
   0  -7   9   -6.30   18.50 
   0  -7   9    9.20   16.00 
   0  -7   9   19.20   13.10 
   0   6 -10   72.39   27.20 
   0   6 -10   71.19   22.30 
   0   6 -10   82.69   28.70 
   0   6 -10   45.80   26.50 
   0   6 -10   86.29   36.30 
   0   6 -10  121.89   32.80 
   0  -6  10   84.09   19.90 
   0  -6  10   38.20   25.40 
   0  -6  10   75.39   24.90 
   0  -6  10   38.20   23.00 
   0   5 -11   -4.40   21.00 
   0   5 -11  -28.90   16.20 
   0   5 -11  -12.80   17.90 
   0   5 -11    3.50   20.10 
   0   5 -11   21.10   16.80 
   0   5 -11   -6.50    4.10 
   0   5 -11   13.00   23.20 
   0  -5  11   65.99   25.80 
   0  -5  11  -12.90   11.60 
   0  -5  11   32.90   20.10 
   0  -5  11    7.30   17.00 
   0   4 -12  -10.50   19.00 
   0   4 -12   -7.90   20.60 
   0   4 -12    6.90   14.80 
   0   4 -12   13.50   16.20 
   0   4 -12   41.90   26.20 
   0   4 -12  -39.10   15.80 
   0  -4  12   -7.60   16.20 
   0  -4  12    0.20   16.60 
   0  -4  12   -4.30   11.20 
   0  -4  12    2.10   17.30 
   0   3 -13   16.00   20.00 
   0   3 -13   12.90   20.70 
   0   3 -13  -17.90   17.00 
   0   3 -13   -7.70   14.60 
   0   3 -13   15.10   19.50 
   0   3 -13   -4.70   18.70 
   0  -3  13   13.20   15.10 
   0  -3  13   15.20   18.60 
   0  -3  13    7.90   12.40 
   0   2 -14  447.86   66.29 
   0   2 -14  368.56   65.49 
   0   2 -14  402.16   62.99 
   0   2 -14  485.75   63.19 
   0   2 -14  386.36   62.79 
   0  -2  14  446.36   63.09 
   0  -2  14  432.16   61.29 
   0  -2  14  467.75   53.69 
   0  -2  14  444.86   64.79 
   0  -2  14  486.55   65.99 
   0   1 -15   -5.40   14.90 
   0   1 -15   14.30   19.70 
   0   1 -15    7.40    4.80 
   0   1 -15  -23.30   17.10 
   0   1 -15   21.70   18.70 
   0  -1  15   11.60   20.70 
   0  -1  15    8.50    5.70 
   0  -1  15   10.80   20.60 
   0  -1  15   14.80   18.70 
   0  -1  15   19.80   16.20 
   0   0 -16  477.85   70.19 
   0   0 -16  460.85   55.59 
   0   0 -16  435.26   68.59 
   0   0  16  471.05   57.79 
   0   0  16  518.75   73.69 
   0   0  16  510.85   71.59 
   0   0  16  541.35   77.09 
   0   0  16  565.94   72.39 
   0  -1 -17   -2.90   19.10 
   0  -1 -17   -3.70   17.90 
   0   1  17    6.70   20.70 
   0   1  17    4.10    6.40 
   0   1  17   10.80   23.50 
   0   1  17    7.10   31.10 
   0  -2 -18  173.78   39.70 
   0  -2 -18  166.08   37.60 
   0  -2 -18  168.88   35.40 
   0   2  18  127.49   38.20 
   0   2  18  116.39   38.80 
   0   2  18  206.48   48.20 
   0   2  18  173.88   22.70 
   0   2  18  132.19   49.20 
   1  11  -6   23.30   65.29 
   1  11  -6   59.89   37.70 
   1  11  -6  -34.20   35.10 
  -1 -11   6   25.90   24.50 
  -1 -11   6   12.00   24.50 
  -1 -11   6  -26.00   36.90 
  -1 -11   6   60.49   35.10 
   1  10  -7  391.26   69.59 
   1  10  -7  340.87   63.89 
   1  10  -7  305.67   64.39 
   1  10  -7  553.64   81.59 
  -1 -10   7  240.18   45.20 
  -1 -10   7  270.27   58.69 
  -1 -10   7  254.97   50.09 
  -1 -10   7  122.29   52.89 
  -1 -10   7  229.88   59.19 
   1   9  -8  608.24   80.59 
  -1  -9   8  407.66   59.99 
  -1  -9   8  397.06   68.69 
  -1  -9   8  412.66   74.39 
  -1  -9   8  308.77   54.99 
  -1  -9   8  336.67   68.89 
  -1  -8   9  547.35   70.59 
  -1  -8   9  504.05   77.79 
  -1  -8   9  547.95   80.69 
  -1  -8   9  512.35   62.19 
   1   7 -10  -19.60   21.10 
   1   7 -10    1.20   25.90 
   1   7 -10  -39.00   22.50 
   1   7 -10   19.40   22.90 
   1   7 -10   30.20   39.00 
  -1  -7  10    8.80   19.90 
  -1  -7  10   -6.10   14.20 
  -1  -7  10  -27.10   19.30 
  -1  -7  10   -3.70   23.00 
  -1  -7  10   12.70   31.80 
   1   6 -11   68.39   25.00 
   1   6 -11   75.89   32.50 
   1   6 -11   65.09   28.60 
   1   6 -11   72.99   34.40 
   1   6 -11   69.59   13.40 
   1   6 -11  101.59   34.90 
  -1  -6  11   37.80   19.70 
  -1  -6  11   43.10   25.10 
  -1  -6  11   37.00   18.50 
  -1  -6  11   70.39   31.40 
   1   5 -12   59.59   28.00 
   1   5 -12   38.40   24.70 
   1   5 -12   31.20   26.00 
   1   5 -12   68.59   32.60 
   1   5 -12   65.39   11.40 
   1   5 -12   47.70   28.60 
  -1  -5  12   28.40   21.50 
  -1  -5  12   49.90   18.90 
  -1  -5  12   57.69   25.30 
   1   4 -13  110.39   32.80 
   1   4 -13   94.99   13.00 
   1   4 -13  142.19   35.90 
   1   4 -13   99.19   33.50 
   1   4 -13   50.09   29.50 
  -1  -4  13   49.50   23.10 
  -1  -4  13  135.09   31.70 
  -1  -4  13   61.09   28.00 
   1   3 -14  239.38   44.80 
   1   3 -14  157.28   39.20 
   1   3 -14  177.98   42.20 
   1   3 -14  179.78   40.80 
  -1  -3  14  215.18   42.90 
  -1  -3  14  186.88   36.30 
  -1  -3  14  238.68   41.20 
  -1  -3  14  144.79   39.80 
   1   2 -15  269.77   54.19 
   1   2 -15  284.37   52.49 
   1   2 -15  273.67   37.60 
   1   2 -15  281.87   52.49 
  -1  -2  15  308.87   38.40 
  -1  -2  15  344.87   57.99 
  -1  -2  15  320.37   51.99 
  -1  -2  15  358.16   50.39 
   1   1 -16   74.29   26.40 
   1   1 -16   64.19   26.10 
   1   1 -16   53.49   26.80 
  -1  -1  16   27.70   22.20 
  -1  -1  16   61.29   12.50 
  -1  -1  16   76.49   23.80 
  -1  -1  16   57.09   27.70 
  -1  -1  16   13.30   23.90 
   1   0 -17   -0.40    5.60 
   1   0 -17   -2.70   23.90 
   1   0 -17   -5.90   20.80 
  -1   0  17  -22.30   23.90 
  -1   0  17   18.90   28.70 
  -1   0  17   -5.30    6.00 
  -1   0  17   -6.90   23.70 
  -1   0  17  -32.20   24.30 
   1  -1 -18   -3.30   18.10 
   1  -1 -18    5.90   23.40 
  -1   1  18   34.90   29.50 
  -1   1  18   54.49   37.00 
  -1   1  18   32.50   31.60 
  -1   1  18   17.40   40.60 
  -1   1  18   17.10    7.30 
  -1   1  18   21.00   28.10 
   2  10  -8  543.85   84.99 
   2  10  -8  724.33   97.99 
  -2 -10   8  260.77   55.59 
  -2 -10   8  235.88   69.09 
  -2 -10   8  373.86   46.90 
  -2 -10   8  362.66   77.49 
  -2 -10   8  389.96   69.79 
   2   9  -9  160.38   46.80 
   2   9  -9  181.68   72.59 
   2   9  -9  177.08   53.69 
  -2  -9   9   75.99   15.00 
  -2  -9   9   98.29   44.00 
  -2  -9   9   76.99   30.60 
  -2  -9   9   41.50   34.50 
  -2  -9   9   42.50   26.70 
   2   8 -10    1.20   25.90 
   2   8 -10  -20.40   35.70 
   2   8 -10   39.50   33.00 
   2   8 -10  -79.29   44.90 
   2   8 -10    0.50    7.70 
  -2  -8  10    0.60   27.00 
  -2  -8  10  -28.00   33.90 
  -2  -8  10    2.10   22.10 
  -2  -8  10   12.00   29.00 
  -2  -8  10    5.50   22.10 
   2   7 -11  338.87   57.69 
   2   7 -11  267.77   64.39 
  -2  -7  11  206.88   48.90 
  -2  -7  11   99.99   37.50 
  -2  -7  11  193.68   37.70 
  -2  -7  11  170.68   26.80 
  -2  -7  11  149.29   38.40 
   2   6 -12  120.49   39.50 
   2   6 -12  166.48   19.40 
   2   6 -12  139.89   47.10 
   2   6 -12  105.49   35.90 
   2   6 -12   68.79   40.30 
  -2  -6  12   23.20   25.00 
  -2  -6  12   90.59   27.40 
  -2  -6  12   23.20   28.30 
   2   5 -13   30.90    8.80 
   2   5 -13   13.50   33.90 
   2   5 -13   13.40   25.90 
   2   5 -13   19.50   24.10 
   2   5 -13   19.60   22.90 
  -2  -5  13   14.60   19.50 
  -2  -5  13   -2.80   21.80 
  -2  -5  13    1.20   19.80 
  -2  -5  13   29.00   28.60 
   2   4 -14    9.70   27.80 
   2   4 -14   17.80   23.50 
   2   4 -14  -14.20   20.20 
   2   4 -14   -1.80    4.90 
  -2  -4  14   25.60   20.20 
  -2  -4  14   40.40   21.70 
  -2  -4  14    9.80   21.30 
   2   3 -15   21.30   22.70 
   2   3 -15   21.20   27.10 
   2   3 -15   12.50    7.30 
   2   3 -15   28.90   28.20 
  -2  -3  15    4.70   24.20 
  -2  -3  15   19.80   22.40 
  -2  -3  15  -27.70   22.90 
   2   2 -16  215.68   56.89 
   2   2 -16  328.87   57.29 
   2   2 -16  298.07   63.29 
   2   2 -16  305.87   40.70 
  -2  -2  16  476.25   67.59 
  -2  -2  16  241.78   55.59 
  -2  -2  16  400.86   58.59 
  -2  -2  16  367.86   56.99 
   2   1 -17  111.29   37.60 
   2   1 -17  163.88   24.90 
   2   1 -17  232.38   46.20 
   2   1 -17  155.98   39.30 
  -2  -1  17  202.48   41.80 
  -2  -1  17   76.89   40.00 
  -2  -1  17  161.88   45.80 
  -2  -1  17  208.08   25.70 
  -2  -1  17  224.48   43.50 
   2   0 -18  169.38   23.10 
   2   0 -18  164.88   43.60 
  -2   0  18  159.38   47.40 
  -2   0  18  118.09   43.00 
  -2   0  18  117.09   45.00 
   3  10  -9   -9.40   41.50 
   3  10  -9   -5.80   34.80 
   3  10  -9   -2.50   46.10 
   3  10  -9  -30.40   61.59 
   3  10  -9    0.60   10.80 
  -3 -10   9   -2.20   29.40 
  -3 -10   9  -10.40   39.50 
  -3 -10   9   26.00   41.20 
  -3 -10   9  -31.80   26.30 
   3   9 -10  397.16   86.89 
   3   9 -10  321.97   74.79 
   3   9 -10  339.87   47.10 
   3   9 -10  308.67   65.19 
   3   8 -11    5.90   43.30 
   3   8 -11  -13.50   27.50 
   3   8 -11   -4.50   27.80 
   3   8 -11    9.80   10.60 
   3   8 -11   38.10   53.39 
  -3  -8  11   44.90   37.80 
  -3  -8  11    9.20   29.80 
  -3  -8  11   16.80   26.50 
  -3  -8  11   43.10   36.20 
   3   7 -12 1392.16  173.08 
   3   7 -12 1214.58  158.48 
   3   7 -12 1012.20  165.18 
   3   7 -12 1229.98  141.09 
   3   6 -13   12.50   26.10 
   3   6 -13   31.70   10.90 
   3   6 -13   16.30   44.60 
   3   6 -13   39.50   29.20 
   3   6 -13  -12.00   27.10 
  -3  -6  13   14.60   24.40 
  -3  -6  13   -9.90   25.00 
  -3  -6  13   61.89   36.50 
  -3  -6  13   13.80   29.70 
   3   5 -14   20.90   26.00 
   3   5 -14   -3.90   25.00 
   3   5 -14   57.39   39.30 
   3   5 -14   30.70   10.70 
   3   5 -14   -7.90   33.70 
  -3  -5  14    4.80   25.70 
  -3  -5  14   44.80   33.80 
  -3  -5  14   45.50   31.30 
  -3  -5  14  -14.20   24.30 
   3   4 -15   11.80   22.80 
   3   4 -15  -18.30   23.00 
   3   4 -15   10.90   23.80 
   3   4 -15   40.20   34.80 
   3   4 -15   19.00    8.90 
  -3  -4  15   33.60   32.70 
  -3  -4  15    1.50   28.30 
  -3  -4  15   34.50   24.90 
  -3  -4  15    7.40   25.20 
   3   3 -16   29.60   31.70 
   3   3 -16  -18.70   31.60 
  -3  -3  16   -8.50   26.00 
  -3  -3  16   11.70   25.60 
  -3  -3  16    5.80   31.70 
  -3  -3  16   24.30   30.00 
   3   2 -17   20.40   27.00 
   3   2 -17   28.50   29.20 
   3   2 -17   -3.90   33.40 
   3   2 -17   19.10    9.40 
  -3  -2  17  -30.80   29.50 
  -3  -2  17   25.80   30.00 
   3   1 -18   18.10   11.10 
   3   1 -18   66.19   33.50 
   3   1 -18   80.79   38.00 
  -3  -1  18   87.89   35.10 
  -3  -1  18   36.40   11.60 
  -3  -1  18   72.99   40.00 
  -3  -1  18   15.70   36.60 
  -3  -1  18   32.90   36.20 
   4   8 -12  437.26   84.09 
   4   8 -12  372.46   49.50 
   4   8 -12  434.06   68.99 
   4   8 -12  359.46   86.69 
   4   8 -12  453.75   68.39 
  -4  -8  12  258.97   60.89 
  -4  -8  12  180.88   59.69 
  -4  -8  12  237.08   69.89 
   4   7 -13  209.38   29.80 
   4   7 -13  291.87   75.99 
   4   7 -13  259.57   66.09 
   4   7 -13  208.88   47.10 
  -4  -7  13   54.09   50.59 
  -4  -7  13   82.69   38.70 
   4   6 -14  416.46   76.59 
   4   6 -14  305.77   66.39 
   4   6 -14  420.96   65.49 
   4   6 -14  353.76   80.89 
  -4  -6  14  355.96   61.79 
   4   5 -15  161.28   27.70 
   4   5 -15  193.78   56.09 
   4   5 -15  206.18   45.60 
   4   5 -15  140.89   51.29 
   4   5 -15  245.58   29.50 
  -4  -5  15  134.59   42.90 
  -4  -5  15  147.79   44.50 
   4   4 -16   13.10   42.50 
   4   4 -16   57.69   14.90 
   4   4 -16   60.19   41.90 
   4   4 -16   63.89   29.40 
  -4  -4  16  153.28   36.20 
  -4  -4  16   69.59   36.40 
  -4  -4  16   69.09   46.50 
   4   3 -17   37.30   36.00 
   4   3 -17    5.40   24.70 
   4   3 -17   12.40    9.80 
   4   3 -17  -49.90   37.20 
  -4  -3  17   13.00   29.50 
  -4  -3  17   -4.70   34.60 
  -4  -3  17    2.70   33.90 
  -4  -3  17   -4.30   38.50 
 -11   4  -3  513.75   84.59 
 -11   4  -3  419.36   56.99 
  11  -4   3  300.87   44.90 
 -11   3  -4  319.97   61.39 
 -11   3  -4  542.65   58.69 
 -11   3  -4  560.44   72.49 
  11  -3   4  403.36   55.99 
 -11   2  -5  260.67   46.40 
 -11   2  -5  326.87   39.40 
 -11   2  -5  261.47   45.50 
  11  -2   5  301.27   40.10 
 -11   1  -6   39.50   22.30 
 -11   1  -6   33.00   12.20 
 -11   1  -6   19.80   23.10 
 -11   1  -6  173.58   53.79 
  11  -1   6   37.00   17.40 
  11  -1   6   36.50   12.20 
 -11   0  -7  -15.00   36.00 
 -11   0  -7   -6.00   18.80 
 -11   0  -7   -8.40   22.50 
 -11   0  -7   17.60   12.20 
  11   0   7    4.80   12.20 
  11   0   7   -3.00    7.50 
  11   0   7   -2.30    6.00 
 -10   6  -2  250.07   47.30 
 -10   6  -2  176.48   36.00 
 -10   6  -2  156.98   48.30 
 -10   6  -2  419.16   70.49 
  10  -6   2  247.48   32.80 
 -10   5  -3  216.38   35.70 
 -10   5  -3  219.08   53.29 
 -10   5  -3   32.90   36.60 
 -10   5  -3  128.49   28.10 
  10  -5   3  130.19   21.80 
 -10   4  -4  645.34   85.49 
 -10   4  -4  612.94   81.29 
 -10   3  -5   -6.50   33.20 
 -10   3  -5    5.80   18.90 
 -10   3  -5    1.70   15.60 
 -10   3  -5   -3.50   13.90 
 -10   3  -5   16.70   21.20 
 -10   3  -5  -37.00   16.90 
  10  -3   5  -12.90   11.40 
  10  -3   5   12.30    7.80 
 -10   2  -6   22.70   19.20 
 -10   2  -6   52.89   15.00 
 -10   2  -6    1.10   15.00 
 -10   2  -6  -36.70   26.80 
 -10   2  -6  247.48   61.59 
 -10   2  -6   26.20   16.70 
  10  -2   6   35.10   15.50 
  10  -2   6   18.90   10.00 
 -10   1  -7  352.66   42.40 
 -10   1  -7  337.97   49.20 
 -10   1  -7  237.18   43.20 
  10  -1   7  306.27   43.20 
 -10   0  -8   26.40   13.60 
 -10   0  -8   30.90   31.20 
 -10   0  -8    8.30   18.30 
 -10   0  -8    4.70   18.20 
 -10   0  -8   11.80   19.90 
  10   0   8    1.20    7.90 
  10   0   8   27.70    8.90 
 -10  -1  -9  106.59   23.10 
 -10  -1  -9   87.89   33.10 
 -10  -1  -9  119.89   31.00 
  10   1   9   94.59   16.70 
  10   1   9  133.39   25.80 
  10   1   9   97.29   20.10 
  10   1   9  108.59   17.70 
  -9   7  -2  303.87   49.20 
  -9   7  -2  121.39   48.90 
  -9   7  -2  386.16   57.19 
  -9   7  -2  201.88   38.90 
  -9   7  -2  300.07   38.60 
  -9   7  -2  352.76   68.79 
  -9   7  -2  224.18   35.60 
   9  -7   2  276.67   37.90 
   9  -7   2  257.97   34.40 
   9  -7   2  219.68   37.30 
  -9   6  -3   46.20   14.90 
  -9   6  -3   57.49   24.70 
  -9   6  -3   72.39   12.20 
  -9   6  -3   47.00   32.60 
  -9   6  -3   99.29   40.80 
  -9   6  -3  149.29   33.70 
   9  -6   3   45.60   12.10 
   9  -6   3   16.30   11.90 
   9  -6   3   58.29   12.30 
   9  -6   3   53.19   14.30 
  -9   5  -4  283.67   62.99 
   9  -5   4  398.66   44.20 
  -9   4  -5  110.19   41.50 
  -9   4  -5    3.40   17.90 
  -9   4  -5   14.60   21.00 
  -9   4  -5   14.10   12.00 
  -9   4  -5   25.80   16.80 
  -9   4  -5   27.10   21.40 
   9  -4   5   15.00    8.20 
   9  -4   5   29.50   14.50 
  -9   3  -6  626.14   90.59 
  -9   3  -6  885.31   96.09 
  -9   3  -6  795.82   91.59 
   9  -3   6  681.63   86.69 
  -9   2  -7   20.70   16.20 
  -9   2  -7   29.30   15.20 
  -9   2  -7   39.40   16.40 
  -9   2  -7  177.58   51.99 
  -9   2  -7   29.90   21.60 
  -9   2  -7   32.20   15.80 
   9  -2   7   69.19   15.90 
   9  -2   7   38.50   10.80 
  -9   1  -8  501.85   72.89 
  -9   1  -8  547.55   63.09 
  -9   1  -8  489.85   63.29 
  -9   1  -8  401.96   65.29 
   9  -1   8  493.25   56.39 
   9  -1   8  492.45   60.89 
  -9   0  -9    6.90    7.00 
  -9   0  -9    3.20   12.20 
  -9   0  -9    5.60   26.70 
  -9   0  -9   14.80    7.60 
  -9   0  -9   -0.10   15.50 
  -9   0  -9  -17.80   18.20 
   9   0   9    3.50   11.30 
   9   0   9    1.50    9.00 
   9   0   9    1.30    9.90 
   9   0   9  -10.30    7.60 
   9   0   9   -6.60    4.60 
   9   0   9   13.80    8.30 
   9   0   9    5.70   10.00 
  -9  -1 -10  126.29   25.80 
  -9  -1 -10  133.59   32.90 
  -9  -1 -10  112.99   28.80 
  -9  -1 -10  122.99   22.00 
  -9  -1 -10  112.39   26.50 
   9   1  10  154.88   26.00 
   9   1  10  126.49   18.60 
   9   1  10  118.79   22.40 
  -9  -2 -11   36.00   15.30 
  -9  -2 -11   22.10   17.40 
  -9  -2 -11   37.10   24.90 
   9   2  11   65.19   17.00 
   9   2  11   51.39   10.50 
   9   2  11   19.20   14.10 
   9   2  11   38.70   18.70 
   9   2  11   41.50   12.70 
  -8   8  -2   12.90   20.90 
  -8   8  -2   51.39   26.40 
  -8   8  -2   11.20   35.70 
  -8   8  -2  -16.90   18.00 
  -8   8  -2   -0.70   37.00 
   8  -8   2    7.80   37.30 
   8  -8   2   14.10    8.60 
   8  -8   2  -19.30   19.60 
  -8   7  -3  264.47   52.99 
  -8   7  -3  268.77   43.10 
  -8   7  -3  378.56   69.79 
  -8   7  -3  206.08   49.30 
  -8   7  -3  240.78   44.10 
  -8   7  -3  357.96   54.39 
   8  -7   3  234.88   40.10 
   8  -7   3  338.77   44.20 
   8  -7   3  268.67   36.30 
  -8   6  -4   78.69   26.00 
  -8   6  -4  102.79   49.10 
  -8   6  -4   36.70   19.20 
  -8   6  -4   37.10   14.50 
  -8   6  -4   65.99   16.90 
  -8   6  -4  102.79   32.50 
  -8   6  -4   15.60   28.90 
   8  -6   4   41.30   15.00 
   8  -6   4   96.19   19.00 
   8  -6   4   67.79   15.70 
  -8   5  -5  387.06   54.59 
  -8   5  -5  471.55   55.59 
   8  -5   5  481.65   56.39 
   8  -5   5  516.05   57.79 
   8  -5   5  452.95   56.19 
  -8   4  -6   88.29   17.70 
  -8   4  -6   40.70    9.40 
  -8   4  -6  102.89   27.60 
  -8   4  -6   39.90    8.50 
  -8   4  -6   25.90   10.10 
  -8   4  -6   51.09   21.80 
  -8   4  -6   19.30   11.60 
   8  -4   6   27.30    9.20 
   8  -4   6   36.00   10.90 
   8  -4   6   41.90   12.60 
  -8   3  -7   75.89   43.60 
  -8   3  -7   24.90   13.40 
  -8   3  -7   22.90   17.00 
  -8   3  -7   18.40   10.30 
  -8   3  -7    8.60    6.00 
  -8   3  -7   31.20   12.50 
  -8   3  -7   23.70   15.90 
  -8   3  -7   17.80    6.70 
   8  -3   7   21.70    9.30 
   8  -3   7   12.00    7.20 
   8  -3   7   20.40    8.90 
   8  -3   7   -6.70   21.30 
   8  -3   7   23.40    8.90 
   8  -3   7   11.30    7.30 
  -8   2  -8  667.03   83.59 
  -8   2  -8  850.31   86.59 
  -8   2  -8  908.61   92.49 
  -8   2  -8  641.54   91.09 
  -8   2  -8  718.33   83.59 
  -8   2  -8  537.35   90.19 
  -8   2  -8  604.64   88.59 
   8  -2   8  884.01   89.89 
   8  -2   8  857.01   85.19 
   8  -2   8  791.82   86.79 
   8  -2   8  593.24   83.59 
   8  -2   8  718.13   97.09 
  -8   1  -9  843.92   97.39 
  -8   1  -9  942.81  102.99 
  -8   1  -9  993.80   98.99 
  -8   1  -9  746.63  103.99 
  -8   1  -9  623.94  105.39 
  -8   1  -9  820.12  102.69 
   8  -1   9  742.73   97.59 
   8  -1   9  733.23  102.69 
   8  -1   9  920.01   99.99 
   8  -1   9  954.90  103.19 
   8  -1   9  936.81   99.19 
   8  -1   9  857.81   98.09 
   8  -1   9  780.92   98.79 
  -8   0 -10  539.65   67.49 
  -8   0 -10  533.55   62.29 
  -8   0 -10  526.85   64.69 
  -8   0 -10  549.74   71.19 
  -8   0 -10  406.76   70.79 
  -8   0 -10  527.05   63.39 
   8   0  10  524.95   60.99 
   8   0  10  477.75   67.09 
   8   0  10  519.25   64.19 
   8   0  10  584.54   68.49 
   8   0  10  504.25   64.09 
  -8  -1 -11  291.37   45.60 
  -8  -1 -11  300.67   41.50 
  -8  -1 -11  284.67   50.89 
  -8  -1 -11  308.27   47.20 
  -8  -1 -11  304.17   42.60 
   8   1  11  307.47   44.40 
   8   1  11  220.58   41.30 
   8   1  11  281.77   36.40 
   8   1  11  352.26   41.20 
   8   1  11  370.66   45.60 
  -8  -2 -12  228.48   41.80 
  -8  -2 -12  314.17   45.80 
  -8  -2 -12  340.37   48.70 
  -8  -2 -12  292.47   41.30 
   8   2  12  345.37   44.60 
   8   2  12  256.27   43.40 
   8   2  12  280.07   35.30 
   8   2  12  290.77   41.20 
   8   2  12  243.38   41.90 
  -8  -3 -13   19.40   16.60 
  -8  -3 -13   16.10   19.00 
  -8  -3 -13   -2.50   16.20 
   8   3  13   -0.70   21.30 
   8   3  13    4.20   18.70 
   8   3  13   14.40   11.30 
   8   3  13    7.10    6.80 
  -7   9  -2  429.86   84.49 
  -7   9  -2  143.89   39.20 
  -7   9  -2  199.28   46.10 
  -7   9  -2  228.68   41.30 
   7  -9   2  247.68   47.40 
   7  -9   2  192.38   41.00 
   7  -9   2  266.57   32.60 
  -7   8  -3  244.88   47.70 
  -7   8  -3  271.27   51.79 
  -7   8  -3  413.46   73.39 
  -7   8  -3  165.38   38.60 
  -7   8  -3  282.57   48.00 
   7  -8   3  232.18   42.50 
   7  -8   3  264.87   34.70 
   7  -8   3  360.36   47.90 
  -7   7  -4   27.70   30.60 
  -7   7  -4   93.49   31.40 
  -7   7  -4   66.19   23.50 
  -7   7  -4  177.28   51.89 
  -7   7  -4  184.78   31.80 
  -7   7  -4  110.09   36.10 
  -7   7  -4  100.19   22.30 
   7  -7   4   60.19   22.40 
   7  -7   4  134.99   26.00 
   7  -7   4  100.39   17.70 
  -7   6  -5    6.90   12.90 
  -7   6  -5   19.50   35.80 
  -7   6  -5  -37.40   24.30 
  -7   6  -5   18.80   14.80 
  -7   6  -5   10.60   19.00 
  -7   6  -5   21.10   22.90 
  -7   6  -5  -29.90   25.80 
   7  -6   5   27.10   13.50 
   7  -6   5   -1.30   12.10 
   7  -6   5   20.80   13.60 
  -7   5  -6   19.00   34.90 
  -7   5  -6   49.20   13.40 
  -7   5  -6   45.90   23.60 
  -7   5  -6  -12.60   20.80 
  -7   5  -6   30.50   18.40 
  -7   5  -6    7.00   13.40 
  -7   5  -6    9.40   24.50 
   7  -5   6   12.40   10.20 
   7  -5   6   -1.20   13.40 
   7  -5   6   -2.30   11.30 
   7  -5   6   -1.30    4.60 
   7  -5   6   -1.80    7.40 
  -7   4  -7  345.67   50.79 
  -7   4  -7  356.46   49.40 
  -7   4  -7  366.26   49.00 
  -7   4  -7  432.36   51.09 
  -7   4  -7  362.96   56.99 
  -7   4  -7  392.46   51.49 
   7  -4   7  441.76   51.89 
   7  -4   7  429.56   64.79 
   7  -4   7  501.05   52.09 
   7  -4   7  435.26   50.29 
  -7   3  -8  930.51  122.59 
  -7   3  -8  874.61  121.09 
  -7   3  -8 1111.79  121.39 
  -7   3  -8  990.40  120.49 
  -7   3  -8 1040.90  122.69 
  -7   3  -8  832.42  124.29 
   7  -3   8 1267.07  124.69 
   7  -3   8 1028.80  131.19 
   7  -3   8 1108.59  121.99 
   7  -3   8 1148.79  122.99 
   7  -3   8 1256.47  123.29 
  -7   2  -9  434.66   56.79 
  -7   2  -9  338.37   60.79 
  -7   2  -9  605.14   66.19 
  -7   2  -9  570.04   57.19 
  -7   2  -9  354.86   60.69 
  -7   2  -9  411.66   55.89 
  -7   2  -9  552.84   59.59 
   7  -2   9  491.75   59.29 
   7  -2   9  376.96   56.39 
   7  -2   9  547.85   60.89 
   7  -2   9  503.75   57.69 
   7  -2   9  534.85   59.59 
   7  -2   9  446.96   66.79 
  -7   1 -10    7.80   19.10 
  -7   1 -10    9.90   14.30 
  -7   1 -10   22.60   15.20 
  -7   1 -10    9.80   12.60 
  -7   1 -10   12.10    9.00 
  -7   1 -10  -25.30   26.70 
  -7   1 -10  -15.80   14.70 
   7  -1  10    1.60    7.10 
   7  -1  10   10.50   11.80 
   7  -1  10   15.70    8.20 
   7  -1  10   25.30   12.60 
   7  -1  10   -3.20    9.90 
   7  -1  10   68.79   21.40 
  -7   0 -11   12.10   12.90 
  -7   0 -11    3.30   15.50 
  -7   0 -11   24.40   19.30 
  -7   0 -11    0.00    5.70 
  -7   0 -11    7.90   14.30 
  -7   0 -11   -0.60   21.80 
  -7   0 -11   -4.80    8.70 
   7   0  11  -14.80   16.40 
   7   0  11   -3.40    3.70 
   7   0  11    6.30   12.20 
   7   0  11    0.40   10.70 
   7   0  11   -3.90    6.00 
   7   0  11    0.60   13.60 
   7   0  11   -0.50    8.70 
  -7  -1 -12    4.60   15.40 
  -7  -1 -12  -19.00   13.20 
  -7  -1 -12    4.70   15.90 
  -7  -1 -12   -4.10   10.90 
   7   1  12    8.70    9.40 
   7   1  12   12.00   13.60 
   7   1  12   22.00    9.50 
   7   1  12    1.70    4.20 
   7   1  12    9.00   15.90 
   7   1  12   14.40   15.40 
  -7  -2 -13  134.49   30.90 
  -7  -2 -13  109.19   41.10 
  -7  -2 -13  128.89   28.90 
  -7  -2 -13  135.99   26.60 
   7   2  13  150.88   34.30 
   7   2  13  118.29   29.30 
   7   2  13  132.19   29.70 
   7   2  13  142.59   19.10 
   7   2  13  110.49   21.70 
   7   2  13  172.88   31.40 
  -7  -3 -14  202.68   40.10 
  -7  -3 -14  205.88   40.50 
  -7  -3 -14  190.78   46.80 
  -7  -3 -14  168.38   34.50 
   7   3  14  188.98   37.50 
   7   3  14  223.98   41.70 
   7   3  14  237.58   36.20 
   7   3  14  240.28   27.50 
   7   3  14  204.18   32.50 
  -6  10  -2  187.38   46.00 
  -6  10  -2  144.29   46.30 
  -6  10  -2  137.09   51.99 
  -6  10  -2   76.89   58.79 
   6 -10   2  248.78   45.50 
   6 -10   2  153.88   45.40 
   6 -10   2  194.48   27.60 
  -6   9  -3   27.50   30.00 
  -6   9  -3   81.99   39.60 
  -6   9  -3   57.69   22.70 
  -6   9  -3   22.40   23.20 
  -6   9  -3  156.88   40.20 
   6  -9   3   28.20    9.90 
   6  -9   3   36.70   10.30 
   6  -9   3   51.39   29.00 
   6  -9   3   36.70   10.80 
   6  -9   3   29.40   24.40 
  -6   8  -4   48.10   36.00 
  -6   8  -4   53.99   27.80 
  -6   8  -4    7.00   21.20 
  -6   8  -4   45.50   20.10 
  -6   8  -4  104.59   33.00 
   6  -8   4   51.09   12.30 
   6  -8   4   51.79   24.30 
   6  -8   4   92.99   26.70 
  -6   7  -5   -8.80   22.70 
  -6   7  -5  -27.50   14.80 
  -6   7  -5   34.90   33.60 
  -6   7  -5   -5.40   26.70 
  -6   7  -5   24.30   17.50 
   6  -7   5   -0.70    5.70 
   6  -7   5   -1.50   17.30 
   6  -7   5   25.10   18.10 
  -6   6  -6  591.14   90.39 
  -6   6  -6  797.02   97.79 
  -6   6  -6  840.22   99.69 
   6  -6   6  892.21   94.19 
   6  -6   6  767.22   88.89 
   6  -6   6  702.73   92.39 
  -6   5  -7   23.30   23.30 
  -6   5  -7   98.89   20.10 
  -6   5  -7   77.09   20.80 
  -6   5  -7   50.59   12.30 
  -6   5  -7   51.09   11.20 
  -6   5  -7   47.10   16.60 
  -6   5  -7   72.99   30.70 
   6  -5   7   59.79   12.80 
   6  -5   7   86.89   13.60 
   6  -5   7   69.99   18.10 
   6  -5   7   42.80   15.60 
   6  -5   7   52.19   17.90 
  -6   4  -8  115.59   22.00 
  -6   4  -8   91.99   15.30 
  -6   4  -8  212.78   36.70 
  -6   4  -8   52.99   24.20 
  -6   4  -8   67.49   19.90 
  -6   4  -8   85.89   18.90 
  -6   4  -8  110.99   21.30 
  -6   4  -8  252.97   59.29 
   6  -4   8  130.79   19.00 
   6  -4   8   99.29   28.90 
   6  -4   8  111.99   23.00 
   6  -4   8  148.09   23.00 
   6  -4   8  108.29   16.90 
   6  -4   8   70.19   18.30 
  -6   3  -9    4.50   11.70 
  -6   3  -9    5.90    7.00 
  -6   3  -9   19.40   10.00 
  -6   3  -9   13.60   11.50 
  -6   3  -9    4.10   33.00 
  -6   3  -9   66.59   22.50 
  -6   3  -9   16.00   15.30 
  -6   3  -9    2.90    5.60 
  -6   3  -9    6.30   12.70 
   6  -3   9  -13.40   17.90 
   6  -3   9    2.10    9.00 
   6  -3   9   -6.20   12.30 
   6  -3   9    9.10    6.40 
   6  -3   9    2.30   10.90 
   6  -3   9    8.40    7.30 
  -6   2 -10  468.75   66.29 
  -6   2 -10  429.66   59.59 
  -6   2 -10  406.36   63.19 
  -6   2 -10  553.54   62.39 
  -6   2 -10  360.16   61.39 
  -6   2 -10  537.85   59.89 
   6  -2  10  399.76   59.99 
   6  -2  10  535.95   61.19 
   6  -2  10  514.25   58.19 
   6  -2  10  556.14   70.09 
   6  -2  10  472.05   60.69 
  -6   1 -11   81.09   30.80 
  -6   1 -11   53.89   20.60 
  -6   1 -11   47.50   19.10 
  -6   1 -11   39.90    9.10 
  -6   1 -11   22.80   16.10 
   6  -1  11   40.10   13.90 
   6  -1  11   41.00   21.80 
   6  -1  11   34.80   15.50 
   6  -1  11   58.59   14.60 
   6  -1  11   55.89   12.10 
  -6   0 -12 2645.24  296.37 
  -6   0 -12 2607.24  293.07 
  -6   0 -12 2504.95  292.17 
  -6   0 -12 2162.98  295.17 
  -6   0 -12 2649.14  297.67 
  -6   0 -12 2479.05  287.17 
  -6   0 -12 2835.02  300.87 
   6   0  12 2503.75  293.57 
   6   0  12 2674.73  293.47 
   6   0  12 2246.28  291.97 
   6   0  12 2735.43  296.67 
   6   0  12 2913.51  291.87 
  -6  -1 -13   27.30   16.20 
  -6  -1 -13   36.20   14.20 
  -6  -1 -13   29.80   17.90 
  -6  -1 -13   42.80   19.90 
  -6  -1 -13    7.10   16.10 
   6   1  13    8.50   11.30 
   6   1  13   24.70   18.30 
   6   1  13   18.40   11.40 
   6   1  13   32.20   15.00 
   6   1  13    4.50   18.20 
   6   1  13   38.30   21.20 
   6   1  13   32.70    5.80 
   6   1  13   20.70   11.80 
  -6  -2 -14  194.88   35.30 
  -6  -2 -14  222.58   35.10 
  -6  -2 -14  183.68   36.20 
   6   2  14  225.68   39.10 
   6   2  14  188.38   28.60 
   6   2  14  170.28   35.00 
   6   2  14  221.18   24.10 
   6   2  14  135.99   29.20 
   6   2  14  211.28   33.90 
   6   2  14  168.18   35.90 
  -6  -3 -15    2.70   18.10 
  -6  -3 -15   29.60   26.40 
  -6  -3 -15   -0.50   19.10 
   6   3  15   -1.00    9.80 
   6   3  15    0.50    4.70 
   6   3  15    9.30   17.60 
   6   3  15  -22.10   20.60 
   6   3  15   32.20   24.30 
   6   3  15   18.80   20.20 
   6   3  15   18.70   21.90 
  -5  10  -3  128.29   35.90 
  -5  10  -3   95.59   38.00 
  -5  10  -3  132.49   42.20 
  -5  10  -3   99.29   30.40 
   5 -10   3  147.49   41.80 
   5 -10   3   94.69   30.40 
   5 -10   3   71.99   23.90 
   5 -10   3   78.79   31.10 
   5 -10   3  123.79   18.90 
  -5   9  -4  560.24   70.79 
  -5   9  -4  577.64   78.29 
  -5   9  -4  455.15   86.19 
   5  -9   4  411.66   61.29 
   5  -9   4  513.55   72.59 
   5  -9   4  432.06   67.19 
   5  -9   4  396.46   54.79 
  -5   8  -5  296.57   60.09 
  -5   8  -5  483.85   70.99 
  -5   8  -5  456.85   63.19 
  -5   8  -5  630.44   75.59 
   5  -8   5  386.96   53.49 
   5  -8   5  413.56   56.29 
   5  -8   5  415.06   62.29 
   5  -8   5  462.25   62.59 
  -5   7  -6   15.80   31.60 
  -5   7  -6  -16.00   22.80 
  -5   7  -6   -3.30   24.20 
  -5   7  -6  -39.90   30.50 
  -5   7  -6   12.00   16.00 
   5  -7   6    3.20    9.30 
   5  -7   6   17.80   16.30 
   5  -7   6    3.80    5.20 
   5  -7   6   12.80   17.20 
  -5   6  -7   80.59   26.70 
  -5   6  -7  144.19   46.20 
  -5   6  -7  113.99   23.50 
  -5   6  -7   54.59   11.60 
  -5   6  -7   53.49   30.00 
  -5   6  -7   81.79   35.30 
   5  -6   7   87.29   15.30 
   5  -6   7   48.00   12.30 
   5  -6   7   59.19   12.70 
   5  -6   7   36.30   18.80 
   5  -6   7   78.49   12.50 
  -5   5  -8   88.69   42.70 
  -5   5  -8   98.69   14.80 
  -5   5  -8  134.49   39.40 
  -5   5  -8  116.19   24.70 
  -5   5  -8  130.69   26.60 
  -5   5  -8  104.59   26.90 
  -5   5  -8   96.09   17.80 
   5  -5   8  120.59   17.00 
   5  -5   8   81.79   16.00 
   5  -5   8   70.29   21.20 
   5  -5   8   94.39   16.10 
   5  -5   8   83.19   24.00 
   5  -5   8  110.69   17.20 
  -5   4  -9  817.52  103.59 
  -5   4  -9  740.43  111.89 
  -5   4  -9  872.21  106.69 
  -5   4  -9  959.60  110.49 
   5  -4   9  872.01  104.59 
   5  -4   9 1063.09  107.69 
   5  -4   9  916.21  116.69 
   5  -4   9  757.62  107.69 
   5  -4   9  937.81  104.39 
   5  -4   9  993.00  116.39 
   5  -4   9  984.80  114.29 
   5  -4   9 1088.39  107.59 
  -5   3 -10  352.86   38.20 
  -5   3 -10  234.38   46.30 
  -5   3 -10  449.95   69.29 
  -5   3 -10  363.56   53.69 
  -5   3 -10  264.87   44.40 
  -5   3 -10  411.96   47.20 
  -5   3 -10  303.77   43.60 
  -5   3 -10  309.07   43.80 
  -5   3 -10  386.06   42.00 
   5  -3  10  278.17   43.30 
   5  -3  10  296.07   40.40 
   5  -3  10  335.97   42.40 
   5  -3  10  357.66   52.59 
   5  -3  10  300.97   40.70 
   5  -3  10  295.17   39.60 
  -5   2 -11  671.93   78.89 
  -5   2 -11  733.53   86.19 
  -5   2 -11  587.44   89.39 
  -5   2 -11  767.02   92.19 
  -5   2 -11  681.13   85.09 
  -5   2 -11  829.52  102.49 
  -5   2 -11  715.23   83.89 
  -5   2 -11  622.84   84.29 
   5  -2  11  636.64   80.69 
   5  -2  11  546.45   82.29 
   5  -2  11  723.93   81.49 
   5  -2  11  692.33   80.59 
   5  -2  11  680.63   84.49 
   5  -2  11  803.82   84.69 
  -5   1 -12   35.40   21.10 
  -5   1 -12   74.89   20.30 
  -5   1 -12   46.30   18.80 
  -5   1 -12    4.40   14.70 
  -5   1 -12   68.19   30.50 
  -5   1 -12   53.19    9.10 
   5  -1  12   30.20   19.80 
   5  -1  12   61.09   15.50 
   5  -1  12   26.30   14.20 
   5  -1  12   74.39   18.90 
   5  -1  12   63.29   12.20 
   5  -1  12   29.60   17.10 
  -5   0 -13   12.60   11.20 
  -5   0 -13   18.20   20.20 
  -5   0 -13    7.30    3.10 
  -5   0 -13   -8.20   14.00 
  -5   0 -13   -3.00   14.30 
  -5   0 -13  -15.20   14.00 
   5   0  13    3.10   14.40 
   5   0  13   26.60   15.60 
   5   0  13   -4.80   15.80 
   5   0  13    0.20    5.90 
   5   0  13   14.90    9.80 
   5   0  13  -14.60   13.00 
   5   0  13    3.40   11.10 
   5   0  13   -0.60   20.60 
  -5  -1 -14    2.00   14.50 
  -5  -1 -14  -16.60   13.80 
  -5  -1 -14    0.90   12.40 
  -5  -1 -14   -4.00   17.70 
  -5  -1 -14   18.20   17.00 
   5   1  14  -20.10   18.30 
   5   1  14    0.40   17.00 
   5   1  14   -6.70   18.80 
   5   1  14  -20.30   13.60 
   5   1  14   10.20   13.60 
   5   1  14   13.20    7.40 
   5   1  14   -2.20   21.30 
  -5  -2 -15  271.97   45.40 
  -5  -2 -15  296.77   47.90 
  -5  -2 -15  301.57   48.90 
  -5  -2 -15  308.67   45.00 
   5   2  15  259.37   49.99 
   5   2  15  277.37   44.90 
   5   2  15  318.37   39.80 
   5   2  15  313.57   34.10 
   5   2  15  272.27   47.90 
   5   2  15  269.27   47.30 
  -5  -3 -16   79.49   31.60 
  -5  -3 -16  183.28   38.90 
  -5  -3 -16  124.99   29.50 
   5   3  16  131.69   32.90 
   5   3  16  167.98   51.09 
   5   3  16  216.98   41.30 
   5   3  16  120.59   33.20 
   5   3  16  127.29   17.30 
   5   3  16  173.28   28.70 
  -4  11  -3  106.79   55.69 
  -4  11  -3  219.38   64.39 
  -4  11  -3  186.18   45.00 
   4 -11   3  306.77   60.09 
   4 -11   3  391.56   57.59 
   4 -11   3  236.58   43.90 
  -4  10  -4  306.77   58.59 
  -4  10  -4  462.45   72.29 
  -4  10  -4  195.28   56.39 
  -4  10  -4  362.86   75.69 
  -4  10  -4  348.97   65.19 
   4 -10   4  308.67   58.39 
   4 -10   4  547.25   69.39 
   4 -10   4  331.67   51.09 
   4 -10   4  291.27   58.99 
  -4   9  -5    6.40   26.80 
  -4   9  -5    7.90   34.50 
  -4   9  -5   21.50   24.50 
  -4   9  -5   43.30   30.20 
  -4   9  -5    4.50   29.60 
   4  -9   5    1.90   23.50 
   4  -9   5   23.70   16.50 
   4  -9   5  -20.50   24.90 
  -4   8  -6   72.49   37.20 
  -4   8  -6   64.59   32.70 
  -4   8  -6   85.19   25.60 
  -4   8  -6   35.30   23.70 
  -4   8  -6   48.80   38.20 
   4  -8   6   27.10   23.30 
   4  -8   6   33.20   16.70 
   4  -8   6   43.90   20.80 
  -4   7  -7  570.04   83.89 
  -4   7  -7  520.45   69.59 
  -4   7  -7  340.37   60.89 
  -4   7  -7  462.05   63.69 
   4  -7   7  324.37   55.79 
   4  -7   7  461.85   60.09 
   4  -7   7  405.86   54.59 
   4  -7   7  411.76   60.99 
  -4   6  -8   83.49   25.80 
  -4   6  -8  127.09   42.90 
  -4   6  -8  100.29   27.40 
  -4   6  -8  119.39   32.50 
  -4   6  -8  168.78   43.50 
  -4   6  -8  101.69   30.70 
  -4   6  -8  143.59   22.10 
   4  -6   8  103.79   21.00 
   4  -6   8  107.49   29.50 
   4  -6   8  121.19   16.90 
   4  -6   8  104.69   17.50 
   4  -6   8   75.59   21.80 
   4  -6   8  114.79   26.80 
  -4   5  -9  811.02  101.89 
  -4   5  -9  843.22  112.39 
  -4   5  -9 1151.78  133.79 
  -4   5  -9 1026.50  113.69 
  -4   5  -9  863.01  113.09 
   4  -5   9  899.21  104.39 
   4  -5   9  905.21  109.59 
   4  -5   9  908.81  106.29 
   4  -5   9  975.60  105.09 
   4  -5   9  827.42  107.19 
  -4   4 -10  338.37   53.59 
  -4   4 -10  214.88   32.50 
  -4   4 -10  166.78   36.10 
  -4   4 -10  160.38   38.40 
  -4   4 -10  323.77   59.59 
  -4   4 -10  193.88   36.60 
  -4   4 -10  185.98   26.20 
  -4   4 -10  269.87   38.80 
   4  -4  10  237.18   32.60 
   4  -4  10  204.88   37.90 
   4  -4  10  252.67   30.00 
   4  -4  10  212.38   46.80 
   4  -4  10  218.28   37.30 
   4  -4  10  292.47   34.80 
  -4   3 -11   18.80   13.80 
  -4   3 -11   14.20   23.70 
  -4   3 -11   37.70   22.50 
  -4   3 -11   19.60   11.20 
  -4   3 -11   13.00   11.80 
  -4   3 -11   17.60   15.40 
  -4   3 -11    0.60   15.50 
   4  -3  11    7.20   13.40 
   4  -3  11   11.60   12.90 
   4  -3  11    4.30   19.20 
   4  -3  11    0.50    9.40 
   4  -3  11    5.80   12.60 
   4  -3  11    7.40    6.10 
  -4   2 -12 1304.17  139.69 
  -4   2 -12 1020.70  139.59 
  -4   2 -12 1202.28  138.89 
  -4   2 -12 1280.87  145.99 
  -4   2 -12 1055.59  138.09 
  -4   2 -12 1495.85  154.68 
   4  -2  12 1178.58  136.69 
   4  -2  12 1201.68  145.39 
   4  -2  12 1040.70  137.99 
   4  -2  12 1131.89  138.79 
   4  -2  12 1294.77  135.29 
   4  -2  12 1005.60  136.39 
  -4   1 -13  123.19   23.70 
  -4   1 -13   90.69   32.90 
  -4   1 -13   93.49   24.50 
  -4   1 -13  131.79   28.80 
  -4   1 -13  104.49   24.70 
  -4   1 -13  104.89   14.60 
   4  -1  13  135.99   34.20 
   4  -1  13   84.59   23.50 
   4  -1  13  109.59   17.20 
   4  -1  13  108.89   22.40 
   4  -1  13  115.59   25.90 
  -4   0 -14  755.02   93.89 
  -4   0 -14  795.42   98.09 
  -4   0 -14  814.32   95.19 
  -4   0 -14  721.13  100.19 
   4   0  14  696.13  101.39 
   4   0  14  696.33   94.59 
   4   0  14  847.12   89.69 
   4   0  14  827.02   94.09 
   4   0  14  613.74   92.99 
   4   0  14  737.73   96.79 
  -4  -1 -15  189.88   38.80 
  -4  -1 -15  193.88   36.50 
  -4  -1 -15  171.48   38.70 
   4   1  15  255.87   42.70 
   4   1  15  186.38   37.60 
   4   1  15  232.88   43.30 
   4   1  15  269.97   42.60 
   4   1  15  231.38   47.30 
   4   1  15  246.58   31.20 
   4   1  15  244.38   38.40 
  -4  -2 -16  253.37   42.60 
  -4  -2 -16  220.18   42.50 
  -4  -2 -16  243.18   40.10 
  -4  -2 -16  257.27   44.30 
   4   2  16  232.08   48.00 
   4   2  16  229.58   42.90 
   4   2  16  207.28   31.70 
   4   2  16  203.88   43.80 
   4   2  16  232.48   40.00 
  -4  -3 -17   -9.80   18.20 
  -4  -3 -17  -17.20   19.20 
   4   3  17    5.70   22.50 
   4   3  17    1.10   25.30 
  -3  11  -4  354.66   64.99 
  -3  11  -4  241.08   62.69 
  -3  11  -4  335.07   75.09 
  -3  11  -4  229.08   53.09 
   3 -11   4  320.87   55.09 
   3 -11   4  273.07   66.39 
   3 -11   4  381.26   62.89 
  -3  10  -5   10.20   34.20 
  -3  10  -5    0.10   41.40 
  -3  10  -5   51.79   33.10 
  -3  10  -5  -14.40   36.20 
  -3  10  -5   12.40   26.10 
   3 -10   5   22.90   18.80 
   3 -10   5  -38.50   25.80 
   3 -10   5  -17.80   32.60 
  -3   9  -6  591.84   85.69 
  -3   9  -6  777.92  104.89 
  -3   9  -6  581.44   95.49 
  -3   9  -6  736.33   93.59 
   3  -9   6  602.24   86.99 
   3  -9   6  529.45   79.19 
   3  -9   6  474.85   86.89 
  -3   8  -7   27.70   30.00 
  -3   8  -7   48.20   35.60 
  -3   8  -7   27.30   23.40 
  -3   8  -7  -59.19   31.00 
  -3   8  -7    8.00   28.20 
   3  -8   7    3.50    6.90 
   3  -8   7   22.20   21.60 
   3  -8   7    6.60   16.40 
   3  -8   7   47.30   26.50 
   3  -8   7   -6.80   23.10 
  -3   7  -8 1218.88  127.99 
  -3   7  -8 1143.29  124.39 
   3  -7   8  812.22  117.19 
   3  -7   8  889.71  110.49 
   3  -7   8 1092.69  118.49 
   3  -7   8  938.21  119.59 
   3  -7   8  957.20  108.99 
   3  -7   8  854.21  120.59 
  -3   6  -9    9.00   24.00 
  -3   6  -9   59.29   32.60 
  -3   6  -9   28.30   21.80 
  -3   6  -9   -9.60   23.80 
  -3   6  -9    8.40   14.20 
  -3   6  -9   14.90   19.40 
   3  -6   9    7.90    9.80 
   3  -6   9   12.70   17.40 
   3  -6   9   19.60   16.40 
   3  -6   9    4.60    5.10 
   3  -6   9    1.00   15.00 
   3  -6   9   15.00   13.70 
  -3   5 -10  264.47   34.80 
  -3   5 -10  269.67   53.19 
  -3   5 -10  458.85   52.69 
  -3   5 -10  294.77   49.70 
  -3   5 -10  309.47   42.70 
  -3   5 -10  324.87   53.19 
   3  -5  10  236.78   46.40 
   3  -5  10  323.27   40.90 
   3  -5  10  318.77   43.60 
   3  -5  10  246.38   44.00 
   3  -5  10  316.07   45.60 
  -3   4 -11   17.50   22.70 
  -3   4 -11   54.79   21.20 
  -3   4 -11   -5.30   12.50 
  -3   4 -11    8.10   16.70 
  -3   4 -11   19.50   18.30 
  -3   4 -11    6.10   16.30 
  -3   4 -11   14.40   23.60 
   3  -4  11  -11.00   12.80 
   3  -4  11   15.70   17.40 
   3  -4  11   13.90   15.90 
   3  -4  11   21.00   10.80 
   3  -4  11    4.00    5.50 
   3  -4  11   11.80   12.70 
  -3   3 -12  508.45   67.99 
  -3   3 -12  432.46   66.59 
  -3   3 -12  701.43   84.29 
  -3   3 -12  547.65   75.79 
  -3   3 -12  483.35   67.69 
  -3   3 -12  528.85   64.89 
   3  -3  12  529.55   64.99 
   3  -3  12  535.65   65.49 
   3  -3  12  488.35   67.19 
   3  -3  12  477.45   73.49 
   3  -3  12  405.86   64.89 
   3  -3  12  548.25   61.29 
   3  -3  12  431.66   65.59 
  -3   2 -13  -10.50   14.40 
  -3   2 -13   27.90   16.00 
  -3   2 -13   55.29   18.80 
  -3   2 -13   27.80   16.40 
  -3   2 -13    3.40   21.00 
  -3   2 -13   24.70   24.00 
   3  -2  13   13.80   20.90 
   3  -2  13   29.70   13.50 
   3  -2  13   21.40    7.70 
   3  -2  13   11.50   13.20 
   3  -2  13    4.00   14.90 
   3  -2  13   29.00   21.60 
   3  -2  13   18.80   14.40 
  -3   1 -14  195.68   43.30 
  -3   1 -14  211.68   47.70 
  -3   1 -14  344.87   42.40 
  -3   1 -14  225.08   40.00 
  -3   1 -14  211.38   38.80 
   3  -1  14  208.68   39.50 
   3  -1  14  214.68   38.80 
   3  -1  14  214.98   40.10 
   3  -1  14  270.07   39.50 
   3  -1  14  227.28   41.00 
   3  -1  14  239.68   31.40 
   3  -1  14  268.37   50.19 
  -3   0 -15    1.00   17.20 
  -3   0 -15   22.50   21.40 
  -3   0 -15  -36.80   17.70 
   3   0  15    1.00    6.20 
   3   0  15  -41.20   20.70 
   3   0  15   -0.30   14.80 
   3   0  15   -3.60   16.10 
  -3  -1 -16  104.29   29.50 
  -3  -1 -16   59.19   21.90 
  -3  -1 -16   63.19   24.00 
  -3  -1 -16   67.19   26.40 
   3   1  16  113.29   27.10 
   3   1  16   87.39   16.40 
   3   1  16   77.99   27.50 
   3   1  16   77.69   27.30 
   3   1  16   90.59   31.30 
  -3  -2 -17   37.10   22.90 
  -3  -2 -17   35.40   20.10 
   3   2  17   19.00    8.90 
   3   2  17  -12.40   24.20 
   3   2  17    1.40   23.60 
   3   2  17   43.70   30.80 
  -2  11  -5  281.27   65.79 
  -2  11  -5  349.96   65.49 
  -2  11  -5  237.28   51.99 
   2 -11   5  216.58   47.30 
   2 -11   5  227.88   61.39 
   2 -11   5  195.68   29.50 
   2 -11   5  263.07   56.99 
   2 -11   5  218.08   42.70 
  -2  10  -6   28.70   29.50 
  -2  10  -6  -14.50   35.60 
  -2  10  -6   73.79   40.60 
  -2  10  -6   34.20   37.80 
   2 -10   6   13.60   22.50 
   2 -10   6    1.20   18.70 
   2 -10   6   -2.30   35.10 
   2 -10   6   40.70   11.50 
   2 -10   6   62.29   33.40 
  -2   9  -7   48.80   29.50 
  -2   9  -7   81.39   37.40 
  -2   9  -7   51.69   40.00 
  -2   9  -7   34.40   35.40 
  -2   9  -7   77.99   40.80 
   2  -9   7   33.90   11.30 
   2  -9   7   -1.30   27.90 
   2  -9   7   38.70   24.60 
   2  -9   7   45.60   21.60 
  -2   8  -8  823.92  107.09 
  -2   8  -8  759.92   93.09 
   2  -8   8  554.64   86.79 
   2  -8   8  623.34   86.19 
   2  -8   8  549.05   89.49 
  -2   7  -9  690.03   84.59 
  -2   7  -9  575.84   75.39 
  -2   7  -9  510.15   80.29 
   2  -7   9  458.35   69.09 
   2  -7   9  442.56   73.89 
   2  -7   9  367.06   54.39 
   2  -7   9  447.26   62.99 
   2  -7   9  394.16   63.89 
  -2   6 -10  553.54   75.39 
  -2   6 -10  537.05   69.79 
   2  -6  10  485.65   59.99 
   2  -6  10  397.86   63.69 
   2  -6  10  399.16   59.69 
   2  -6  10  330.17   60.69 
   2  -6  10  374.06   53.09 
  -2   5 -11  717.53   93.39 
  -2   5 -11  814.42   87.59 
  -2   5 -11  935.21  105.89 
  -2   5 -11  629.74   94.39 
   2  -5  11  645.54   90.69 
   2  -5  11  579.14   86.89 
   2  -5  11  554.34   86.19 
   2  -5  11  729.93   88.09 
  -2   4 -12 1088.09  148.29 
  -2   4 -12 1236.88  143.79 
   2  -4  12 1242.08  146.19 
   2  -4  12 1213.18  145.99 
   2  -4  12 1247.58  143.59 
   2  -4  12 1243.78  140.09 
   2  -4  12 1193.88  147.69 
  -2   3 -13   30.80   21.50 
  -2   3 -13   28.10   17.40 
  -2   3 -13   35.90   30.00 
  -2   3 -13    8.20   19.20 
  -2   3 -13   56.39   21.70 
  -2   3 -13   23.70   17.30 
   2  -3  13   22.20   12.90 
   2  -3  13   44.00   17.30 
   2  -3  13   53.09   20.30 
   2  -3  13   22.10    8.20 
   2  -3  13   42.30   21.50 
  -2   2 -14   54.79   29.10 
  -2   2 -14   34.40   19.20 
  -2   2 -14   46.60   19.70 
  -2   2 -14   39.50   22.00 
   2  -2  14   22.30   22.50 
   2  -2  14   30.10   19.60 
   2  -2  14   21.70   16.20 
   2  -2  14   59.99   12.00 
   2  -2  14   28.00   18.40 
  -2   1 -15  337.97   49.40 
  -2   1 -15  251.37   36.00 
  -2   1 -15  397.76   51.29 
  -2   1 -15  301.77   47.90 
  -2   1 -15  290.87   56.49 
  -2   1 -15  249.18   50.79 
   2  -1  15  301.27   47.90 
   2  -1  15  342.27   51.89 
   2  -1  15  330.57   48.00 
   2  -1  15  347.87   40.00 
   2  -1  15  346.77   49.20 
  -2   0 -16  179.38   37.80 
   2   0  16  150.78   39.30 
   2   0  16  158.08   23.50 
   2   0  16  168.88   33.80 
   2   0  16  159.28   37.60 
  -2  -1 -17  177.38   37.20 
  -2  -1 -17  192.68   41.40 
  -2  -1 -17  192.58   38.00 
   2   1  17  181.68   45.60 
   2   1  17  203.08   27.60 
   2   1  17  188.48   43.50 
   2   1  17  207.88   44.80 
  -2  -2 -18   28.90   22.30 
  -2  -2 -18   34.30   25.10 
  -2  -2 -18   29.20   20.60 
   2   2  18   31.00   26.50 
   2   2  18   16.80    9.70 
   2   2  18  -34.10   32.20 
   2   2  18   56.79   31.80 
  -1  11  -6   67.89   44.40 
  -1  11  -6    6.00   33.80 
  -1  11  -6   45.40   48.70 
   1 -11   6   25.90   47.20 
   1 -11   6  -13.00   29.90 
   1 -11   6   38.30   39.50 
   1 -11   6    3.40   14.90 
  -1  10  -7  335.07   60.69 
  -1  10  -7  469.55   71.59 
  -1  10  -7  282.37   64.79 
  -1  10  -7  357.86   70.29 
   1 -10   7  250.27   59.19 
   1 -10   7  213.18   46.20 
   1 -10   7  245.88   49.60 
   1 -10   7  188.98   35.20 
   1 -10   7  288.77   60.39 
   1  -9   8  271.87   42.50 
   1  -9   8  301.17   61.69 
   1  -9   8  356.06   57.49 
   1  -9   8  349.87   54.69 
   1  -8   9  511.75   66.59 
   1  -8   9  658.73   84.49 
   1  -8   9  737.03   84.89 
   1  -8   9  588.84   72.29 
   1  -8   9  701.13   90.49 
  -1   7 -10   31.30   28.00 
  -1   7 -10    8.10   29.30 
  -1   7 -10    4.80   34.40 
  -1   7 -10    3.90   27.50 
  -1   7 -10   67.49   24.50 
  -1   7 -10   52.59   30.70 
   1  -7  10  -48.90   23.20 
   1  -7  10   -2.80   18.40 
   1  -7  10   -2.30   20.60 
   1  -7  10    4.90   11.10 
  -1   6 -11   68.39   30.60 
  -1   6 -11   50.19   27.30 
  -1   6 -11   61.89   31.00 
  -1   6 -11   14.50   26.30 
  -1   6 -11   59.59   23.50 
  -1   6 -11   62.49   33.90 
   1  -6  11   51.69   22.10 
   1  -6  11   57.09   22.70 
   1  -6  11   31.40   15.80 
  -1   5 -12   80.99   35.20 
  -1   5 -12   21.00   27.60 
  -1   5 -12   62.89   29.90 
  -1   5 -12   85.39   22.00 
  -1   5 -12   44.00   21.70 
  -1   5 -12   65.79    9.50 
  -1   5 -12  105.29   29.60 
   1  -5  12   38.30   20.90 
   1  -5  12   20.70   21.90 
   1  -5  12   43.80   15.50 
   1  -5  12   45.40   28.90 
  -1   4 -13  105.49   25.50 
  -1   4 -13  123.99   32.30 
  -1   4 -13  136.39   31.00 
  -1   4 -13   65.99   30.20 
  -1   4 -13  132.69   37.20 
  -1   4 -13  182.98   41.20 
   1  -4  13  117.99   27.20 
   1  -4  13  135.99   33.00 
   1  -4  13   73.29   22.00 
  -1   3 -14  267.57   43.10 
  -1   3 -14  189.68   47.00 
  -1   3 -14  126.99   38.50 
  -1   3 -14  213.68   43.60 
  -1   3 -14  285.37   53.89 
   1  -3  14  247.18   30.50 
   1  -3  14  216.68   46.50 
   1  -3  14  228.98   39.10 
   1  -3  14  199.18   40.40 
  -1   2 -15  285.67   59.19 
  -1   2 -15  257.27   51.29 
  -1   2 -15  293.87   54.29 
  -1   2 -15  275.17   56.49 
   1  -2  15  370.66   56.09 
   1  -2  15  369.16   42.30 
   1  -2  15  331.57   52.49 
   1  -2  15  331.57   56.29 
  -1   1 -16   42.30   27.70 
  -1   1 -16   22.50   22.80 
  -1   1 -16   57.19   22.70 
  -1   1 -16   49.50   23.80 
  -1   1 -16   50.19    9.80 
   1  -1  16   80.09   25.70 
   1  -1  16   60.49   13.10 
   1  -1  16   46.40   24.30 
   1  -1  16   66.09   27.40 
  -1   0 -17   19.40   22.30 
   1   0  17    9.00    7.50 
   1   0  17    6.50   20.30 
   1   0  17   -8.30   19.70 
   1   0  17  -13.00   25.10 
   1   0  17    6.60   22.20 
  -1  -1 -18    3.30   25.70 
  -1  -1 -18   24.00   23.80 
   1   1  18   -0.40   25.60 
   1   1  18    1.60   27.40 
   1   1  18   21.60   36.00 
   1   1  18   17.30    8.40 
   1   1  18  -38.40   33.20 
   0  11  -7   30.90   43.90 
   0  11  -7   44.90   40.60 
   0  11  -7   15.00   53.99 
   0 -11   7  -48.30   46.10 
   0 -11   7    5.80   24.40 
   0 -11   7  -24.40   37.80 
   0 -11   7  -16.20   17.80 
   0  10  -8   14.20   38.30 
   0  10  -8  -44.90   49.20 
   0  10  -8   -6.80   32.40 
   0  10  -8   -7.70   27.10 
   0 -10   8   68.19   38.40 
   0 -10   8  -25.10   25.90 
   0 -10   8  -12.60   22.90 
   0 -10   8    3.90   16.90 
   0 -10   8   10.90   36.90 
   0   9  -9   12.80   33.80 
   0   9  -9  -24.60   31.30 
   0   9  -9   -7.80   32.90 
   0   9  -9  -55.99   43.50 
   0  -9   9  -52.39   30.80 
   0  -9   9  -10.70   15.30 
   0  -9   9   -7.30   20.00 
   0  -9   9  -36.00   27.10 
   0  -9   9    1.10    4.00 
   0   8 -10  639.94   81.49 
   0  -8  10  330.77   42.50 
   0  -8  10  334.77   50.49 
   0  -8  10  379.66   70.09 
   0  -8  10  273.67   56.69 
   0  -8  10  400.26   63.49 
   0   7 -11  -28.70   23.00 
   0   7 -11  -25.40   37.50 
   0   7 -11   -4.80   23.20 
   0  -7  11   10.50   23.20 
   0  -7  11   -0.80   21.70 
   0  -7  11   -7.50   14.50 
   0  -7  11   -5.50   26.50 
   0   6 -12 4024.00  458.45 
   0   6 -12 3292.97  464.95 
   0   6 -12 4161.18  470.25 
   0   6 -12 4394.96  450.65 
   0   6 -12 4076.09  469.75 
   0   5 -13    3.90    4.00 
   0   5 -13   35.90   27.60 
   0   5 -13   34.50   28.10 
   0   5 -13    0.60   28.70 
   0   5 -13  -12.00   24.10 
   0  -5  13   16.40   21.80 
   0  -5  13   -7.90   20.10 
   0  -5  13   18.90   14.10 
   0  -5  13  -16.70   19.40 
   0   4 -14  564.74   94.49 
   0   4 -14  910.81  104.49 
   0   4 -14  658.63   96.29 
   0  -4  14  793.12   95.49 
   0  -4  14  625.24   88.99 
   0  -4  14  670.33   89.29 
   0  -4  14  625.14   94.09 
   0   3 -15   13.10   24.20 
   0   3 -15   -1.00   24.70 
   0   3 -15   21.90   17.10 
   0  -3  15  -20.00   22.30 
   0  -3  15    7.50   23.20 
   0  -3  15   10.70   20.30 
   0  -3  15    9.90   15.90 
   0  -3  15    6.60    6.90 
   0   2 -16  121.29   34.60 
   0   2 -16  117.49   21.50 
   0   2 -16  171.38   37.10 
   0   2 -16  144.29   39.40 
   0   2 -16  144.59   37.80 
   0  -2  16  154.98   35.40 
   0  -2  16  172.18   23.10 
   0  -2  16  153.18   36.20 
   0   1 -17   -3.00    6.00 
   0   1 -17   -3.10   23.50 
   0   1 -17  -21.20   19.60 
   0  -1  17  -14.60   21.60 
   0  -1  17   -4.90   26.60 
   0  -1  17   14.30   27.40 
   0  -1  17   -7.10    6.00 
   0   0 -18   45.00    8.20 
   0   0  18   65.89   13.20 
   0   0  18   70.59   36.20 
   0   0  18   12.20   26.10 
   0   0  18   -0.10   31.70 
   1  10  -9  119.69   66.69 
   1  10  -9  159.48   54.39 
   1  10  -9  129.59   53.19 
   1  10  -9  130.39   45.80 
  -1 -10   9   55.99   44.20 
  -1 -10   9   82.89   27.50 
  -1 -10   9  106.09   45.90 
  -1 -10   9   47.90   41.10 
  -1 -10   9   90.29   33.30 
   1   9 -10  403.06   74.39 
   1   9 -10  171.08   46.70 
   1   9 -10  213.78   54.89 
   1   9 -10  166.88   49.20 
  -1  -9  10   69.69   27.50 
  -1  -9  10   45.70   32.30 
  -1  -9  10   86.59   41.30 
  -1  -9  10  112.29   39.70 
  -1  -9  10  138.89   45.00 
   1   8 -11  752.02  113.59 
   1   8 -11  465.05   98.69 
   1   8 -11  619.84   95.99 
   1   8 -11  492.35   93.59 
   1   8 -11  593.44   70.19 
   1   7 -12   31.90   27.90 
   1   7 -12   25.50   44.20 
   1   7 -12    8.50    8.10 
   1   7 -12   11.70   36.50 
   1   7 -12   19.60   32.40 
  -1  -7  12  -19.50   39.10 
  -1  -7  12   -2.80   16.30 
  -1  -7  12   -5.80   26.30 
  -1  -7  12  -45.30   21.30 
   1   6 -13   75.69   36.60 
   1   6 -13   20.90    9.40 
   1   6 -13   51.69   30.80 
  -1  -6  13   37.60   29.80 
  -1  -6  13   22.90   27.10 
  -1  -6  13   26.70   20.30 
   1   5 -14  -28.40   24.70 
   1   5 -14  -20.30   26.30 
   1   5 -14   30.20   28.40 
   1   5 -14    3.60    4.90 
   1   5 -14   -3.20   38.20 
  -1  -5  14   -8.70   24.60 
  -1  -5  14   -3.80   24.10 
  -1  -5  14  -14.90   16.60 
   1   4 -15  130.49   42.80 
   1   4 -15  214.68   47.10 
   1   4 -15  313.67   54.79 
  -1  -4  15  174.98   45.30 
  -1  -4  15  110.79   35.90 
  -1  -4  15  187.18   43.80 
  -1  -4  15  141.19   34.70 
   1   3 -16   73.39   15.50 
   1   3 -16   92.29   33.20 
   1   3 -16   66.69   28.70 
   1   3 -16   93.39   36.30 
   1   3 -16   41.60   29.40 
  -1  -3  16   46.10   29.30 
  -1  -3  16  131.79   37.30 
  -1  -3  16   57.19   27.90 
   1   2 -17  216.58   45.40 
   1   2 -17  197.98   43.60 
   1   2 -17  162.18   26.70 
   1   2 -17  181.88   45.90 
  -1  -2  17  215.38   28.10 
  -1  -2  17  178.18   40.60 
  -1  -2  17  218.48   48.70 
  -1  -2  17  218.18   48.70 
  -1  -2  17  168.38   42.00 
   1   1 -18   19.70    8.30 
   1   1 -18   18.60   26.50 
  -1  -1  18   -2.50   30.10 
  -1  -1  18   10.30   32.60 
  -1  -1  18    5.60   31.50 
  -1  -1  18    8.10    8.20 
   2   9 -11  112.69   52.79 
   2   9 -11   64.39   57.09 
   2   9 -11   77.39   53.59 
   2   9 -11   88.79   15.70 
  -2  -9  11   42.50   27.90 
  -2  -9  11  -14.80   32.70 
  -2  -9  11   35.70   33.20 
  -2  -9  11  -38.20   39.20 
   2   8 -12  485.25   96.39 
   2   8 -12  553.34   63.99 
   2   8 -12  669.23   98.49 
   2   8 -12  472.15   88.09 
   2   8 -12  629.94  108.69 
  -2  -8  12  287.77   80.89 
   2   7 -13  297.67   60.29 
   2   7 -13  228.28   53.09 
   2   7 -13  237.38   61.39 
   2   7 -13  254.87   30.30 
  -2  -7  13  131.69   49.99 
  -2  -7  13   95.59   45.90 
  -2  -7  13  120.89   39.30 
   2   6 -14  289.57   55.99 
   2   6 -14  222.98   59.89 
   2   6 -14  268.97   56.69 
  -2  -6  14  187.78   47.10 
  -2  -6  14  170.08   51.69 
  -2  -6  14  186.68   44.60 
   2   5 -15  416.26   71.69 
   2   5 -15  479.95   69.49 
   2   5 -15  335.87   43.20 
   2   5 -15  465.95   70.19 
  -2  -5  15  319.87   59.49 
  -2  -5  15  354.06   69.69 
  -2  -5  15  289.07   59.29 
   2   4 -16  290.37   57.39 
   2   4 -16  242.28   33.80 
   2   4 -16  199.38   52.89 
   2   4 -16  262.67   53.19 
   2   4 -16  163.38   53.69 
  -2  -4  16  233.88   56.59 
  -2  -4  16  233.08   48.20 
  -2  -4  16  246.78   55.09 
   2   3 -17    7.00   23.90 
   2   3 -17   11.90    8.00 
   2   3 -17   47.60   29.50 
   2   3 -17  -57.49   34.40 
  -2  -3  17    7.70   33.60 
  -2  -3  17   35.30   30.80 
  -2  -3  17   -3.70   26.90 
  -2  -3  17   39.20   33.80 
   2   2 -18   48.10   32.90 
   2   2 -18   42.30   39.10 
   2   2 -18   21.00   30.50 
   2   2 -18   21.60   10.00 
  -2  -2  18   18.60   35.50 
  -2  -2  18   -8.70   33.70 
  -2  -2  18    4.10   27.50 
  -2  -2  18    1.80    9.20 
   3   8 -13   26.80   13.40 
   3   8 -13    8.20   33.80 
   3   8 -13   65.69   50.29 
   3   8 -13   16.00   37.60 
  -3  -8  13    6.10   39.40 
  -3  -8  13   35.70   32.30 
  -3  -8  13  -17.90   40.70 
   3   7 -14  379.06   82.59 
   3   7 -14  388.06   76.59 
   3   7 -14  479.65   54.49 
   3   7 -14  375.06   94.59 
   3   7 -14  304.67   82.89 
  -3  -7  14  293.97   77.49 
   3   6 -15    1.70   33.10 
   3   6 -15   -0.40   33.50 
   3   6 -15   42.90   53.49 
   3   6 -15  -26.60   29.90 
   3   6 -15    5.80   10.30 
  -3  -6  15   12.30   40.40 
  -3  -6  15   -9.00   31.50 
   3   5 -16  148.19   45.90 
   3   5 -16  189.68   49.70 
   3   5 -16  228.28   32.20 
   3   5 -16  162.28   49.80 
   3   5 -16  194.08   28.10 
  -3  -5  16  123.89   52.29 
  -3  -5  16  101.69   42.80 
  -3  -5  16   88.49   51.99 
   3   4 -17   -3.20   47.60 
   3   4 -17    7.30   10.10 
   3   4 -17   60.39   42.20 
   3   4 -17  -47.20   30.10 
  -3  -4  17   -1.80   29.90 
  -3  -4  17    4.50   39.70 
  -3  -4  17  -17.70   37.00 
  -3  -4  17   60.39   41.70 
 -10   6  -4    2.90   19.50 
 -10   6  -4  -16.40   46.00 
  10  -6   4    5.20    8.60 
 -10   5  -5  262.27   46.00 
 -10   5  -5  149.59   33.30 
  10  -5   5  185.08   27.70 
 -10   4  -6  227.08   38.50 
 -10   4  -6  150.38   33.70 
  10  -4   6  166.08   26.30 
 -10   3  -7  -14.60   20.80 
 -10   3  -7    1.10   18.10 
 -10   3  -7   68.29   50.89 
 -10   3  -7   -7.50   22.60 
 -10   3  -7    1.20   20.10 
  10  -3   7    4.40    8.20 
  10  -3   7   49.00   17.50 
 -10   2  -8  591.64   72.79 
 -10   2  -8  470.35   79.99 
 -10   2  -8  604.94   71.69 
 -10   2  -8  463.75   72.39 
 -10   2  -8  616.64   73.09 
  10  -2   8  513.25   67.29 
 -10   1  -9   81.09   28.00 
 -10   1  -9  135.19   26.40 
 -10   1  -9  127.79   29.00 
 -10   1  -9   75.19   25.90 
  10  -1   9  112.09   22.00 
  10  -1   9  149.49   24.80 
 -10   0 -10  222.68   41.60 
 -10   0 -10  108.69   23.80 
 -10   0 -10   70.89   31.40 
  10   0  10   69.49   18.20 
  10   0  10   98.39   22.30 
  10   0  10   94.39   16.50 
  -9   7  -4  298.57   47.90 
  -9   7  -4  377.06   57.89 
  -9   7  -4  665.23   92.79 
  -9   7  -4  428.16   50.29 
   9  -7   4  273.37   49.50 
   9  -7   4  441.26   51.49 
   9  -7   4  407.46   50.29 
  -9   6  -5  -12.40   12.50 
  -9   6  -5  -26.00   42.20 
  -9   6  -5    9.60   27.00 
  -9   6  -5    9.00    9.00 
  -9   6  -5   10.10    8.30 
   9  -6   5    7.90   11.70 
   9  -6   5   -6.70    9.30 
   9  -6   5   -6.60    6.90 
  -9   5  -6   84.09   16.10 
  -9   5  -6  231.98   39.90 
  -9   5  -6  198.38   39.40 
   9  -5   6   93.99   18.50 
   9  -5   6   80.19   14.80 
   9  -5   6  128.69   21.70 
   9  -5   6  106.59   17.90 
  -9   4  -7  -26.20   23.00 
  -9   4  -7    3.20   21.30 
  -9   4  -7   -9.80   20.50 
  -9   4  -7  -24.50   46.10 
   9  -4   7    7.10    6.80 
   9  -4   7   -1.00    4.50 
   9  -4   7    7.50   10.10 
  -9   3  -8  136.59   25.10 
  -9   3  -8   53.49   23.40 
  -9   3  -8  384.06   83.89 
  -9   3  -8  205.98   32.80 
  -9   3  -8   73.39   25.70 
  -9   3  -8   87.99   27.70 
   9  -3   8  115.09   16.90 
   9  -3   8  110.69   20.50 
   9  -3   8  123.19   15.80 
  -9   2  -9  149.99   30.40 
  -9   2  -9   85.29   32.20 
  -9   2  -9  144.69   19.80 
  -9   2  -9  180.18   31.50 
  -9   2  -9  103.69   28.80 
   9  -2   9  167.28   23.10 
   9  -2   9  174.88   24.00 
   9  -2   9  143.19   22.10 
   9  -2   9  157.08   24.50 
   9  -2   9  201.78   27.50 
  -9   1 -10  149.88   33.40 
  -9   1 -10  103.89   27.60 
  -9   1 -10  151.48   19.80 
  -9   1 -10   82.19   17.80 
  -9   1 -10  114.49   26.10 
   9  -1  10  139.19   20.80 
   9  -1  10  104.49   19.80 
  -9   0 -11    7.60   13.30 
  -9   0 -11   -2.20   14.10 
  -9   0 -11  -28.20   24.50 
  -9   0 -11    4.70   27.20 
  -9   0 -11  -37.00   14.70 
  -9   0 -11   15.00   11.20 
   9   0  11    7.70   13.60 
   9   0  11    1.30   16.70 
   9   0  11   19.10   11.40 
   9   0  11    7.80    8.40 
  -9  -1 -12  379.36   55.19 
  -9  -1 -12  308.47   49.60 
  -9  -1 -12  307.77   49.40 
   9   1  12  317.87   46.60 
   9   1  12  354.56   43.20 
   9   1  12  334.17   38.90 
   9   1  12  215.98   42.70 
  -8   8  -4  186.48   43.00 
  -8   8  -4  274.27   42.40 
  -8   8  -4  176.38   36.00 
   8  -8   4  201.68   38.10 
   8  -8   4  321.87   44.50 
  -8   7  -5  530.35   87.89 
  -8   7  -5  235.48   47.60 
  -8   7  -5  331.57   43.10 
  -8   7  -5  236.98   44.00 
  -8   7  -5  386.26   58.69 
   8  -7   5  235.98   35.10 
   8  -7   5  279.17   43.00 
   8  -7   5  203.28   38.20 
  -8   6  -6    5.20   18.60 
  -8   6  -6   67.19   31.40 
  -8   6  -6   68.49   46.60 
  -8   6  -6   75.79   17.80 
  -8   6  -6  113.79   38.60 
  -8   6  -6   69.89   16.80 
   8  -6   6   83.59   17.60 
   8  -6   6   33.90   18.10 
   8  -6   6   42.20   12.70 
  -8   5  -7  185.38   27.10 
  -8   5  -7  135.69   21.40 
  -8   5  -7  320.57   44.80 
  -8   5  -7  184.78   27.10 
  -8   5  -7  174.48   27.40 
   8  -5   7  160.88   25.40 
   8  -5   7  169.08   25.10 
   8  -5   7  214.68   30.20 
  -8   4  -8  455.55   55.79 
  -8   4  -8  355.76   57.09 
  -8   4  -8  532.55   69.49 
  -8   4  -8  430.06   57.19 
  -8   4  -8  438.56   56.29 
   8  -4   8  531.35   57.69 
   8  -4   8  573.94   58.49 
   8  -4   8  580.14   62.09 
   8  -4   8  381.26   55.49 
  -8   3  -9   29.00   21.50 
  -8   3  -9  151.58   52.59 
  -8   3  -9   51.59   11.70 
  -8   3  -9   13.90   11.50 
  -8   3  -9   85.69   14.90 
  -8   3  -9   41.70   22.80 
  -8   3  -9   41.90   17.40 
   8  -3   9   44.90   13.00 
   8  -3   9   35.50   11.50 
   8  -3   9   25.90   10.00 
   8  -3   9   48.90   13.90 
  -8   2 -10   32.80   13.40 
  -8   2 -10   -6.90   15.90 
  -8   2 -10   -8.80    8.10 
  -8   2 -10   -0.30   16.10 
  -8   2 -10    1.70   20.20 
  -8   2 -10  -52.59   34.20 
  -8   2 -10    8.70   21.30 
   8  -2  10    6.70   12.80 
   8  -2  10   -2.70   11.70 
   8  -2  10   36.50   23.80 
   8  -2  10   12.50    7.80 
  -8   1 -11  339.07   54.69 
  -8   1 -11  321.47   42.90 
  -8   1 -11  324.97   49.60 
  -8   1 -11  260.67   50.09 
   8  -1  11  255.77   43.40 
   8  -1  11  344.17   56.19 
   8  -1  11  347.17   43.00 
   8  -1  11  393.46   47.30 
  -8   0 -12  210.48   25.80 
  -8   0 -12  160.48   28.60 
  -8   0 -12  150.88   30.50 
  -8   0 -12  323.27   49.50 
  -8   0 -12  177.28   37.30 
   8   0  12  222.88   33.90 
   8   0  12  184.68   30.50 
   8   0  12  175.98   29.30 
   8   0  12  123.59   28.20 
   8   0  12  169.08   34.00 
  -8  -1 -13   73.39   22.80 
  -8  -1 -13   60.79   19.00 
  -8  -1 -13   42.10   22.70 
  -8  -1 -13   26.10   24.30 
  -8  -1 -13   61.29   21.80 
   8   1  13   68.49   11.30 
   8   1  13   86.49   23.90 
   8   1  13   73.29   16.50 
   8   1  13   25.40   19.40 
   8   1  13   81.69   20.50 
   8   1  13   45.50   20.80 
  -7   9  -4  421.16   81.99 
  -7   9  -4  308.27   52.99 
  -7   9  -4  334.97   60.89 
   7  -9   4  240.18   51.99 
   7  -9   4  379.66   55.49 
  -7   8  -5  335.47   57.09 
  -7   8  -5  243.28   48.30 
  -7   8  -5  183.68   38.60 
  -7   8  -5  256.87   44.80 
  -7   8  -5  323.47   73.99 
   7  -8   5  277.17   45.20 
   7  -8   5  187.58   39.80 
   7  -8   5  271.67   34.50 
  -7   7  -6  210.68   40.00 
  -7   7  -6  303.97   47.00 
  -7   7  -6  551.04   88.09 
  -7   7  -6  258.57   47.60 
   7  -7   6  289.47   44.80 
   7  -7   6  276.07   36.80 
  -7   6  -7   10.00   31.30 
  -7   6  -7   13.00   20.70 
  -7   6  -7   16.80   15.50 
  -7   6  -7   16.10   41.40 
  -7   6  -7  -21.20   30.70 
  -7   6  -7   -1.30   13.90 
   7  -6   7    6.30    8.90 
   7  -6   7    7.70   13.70 
   7  -6   7    3.40    6.80 
   7  -6   7   22.60   15.90 
  -7   5  -8   46.60   15.90 
  -7   5  -8   39.90   17.00 
  -7   5  -8   47.50   18.50 
  -7   5  -8  147.49   53.19 
  -7   5  -8   53.49   31.90 
  -7   5  -8   57.29   12.30 
  -7   5  -8   34.40   11.80 
  -7   5  -8   44.70   11.30 
   7  -5   8   54.29   12.90 
   7  -5   8   57.29   17.90 
   7  -5   8   39.10   14.40 
   7  -5   8   65.79   14.00 
  -7   4  -9  265.47   48.70 
  -7   4  -9  210.18   34.10 
  -7   4  -9  220.88   29.20 
  -7   4  -9  188.38   43.20 
  -7   4  -9  158.58   31.30 
  -7   4  -9  200.68   33.20 
   7  -4   9  232.38   34.90 
   7  -4   9  264.87   32.30 
   7  -4   9  231.58   30.70 
   7  -4   9  208.08   32.40 
  -7   3 -10  154.78   48.50 
  -7   3 -10   36.80   15.30 
  -7   3 -10   34.60   17.40 
  -7   3 -10   52.59   18.00 
  -7   3 -10   54.79   16.40 
  -7   3 -10   60.69   26.50 
  -7   3 -10   41.00   10.90 
   7  -3  10   47.10   11.30 
   7  -3  10   28.40   15.80 
   7  -3  10   51.99   14.40 
   7  -3  10   41.10   13.00 
   7  -3  10   23.20   27.90 
  -7   2 -11  153.98   34.70 
  -7   2 -11  206.48   26.60 
  -7   2 -11  132.79   32.90 
  -7   2 -11  187.18   38.20 
  -7   2 -11  215.68   30.10 
  -7   2 -11  242.68   34.20 
   7  -2  11  199.18   32.80 
   7  -2  11  118.09   27.30 
   7  -2  11  193.88   26.90 
   7  -2  11  217.38   41.80 
   7  -2  11  210.18   29.70 
  -7   1 -12    7.10   17.10 
  -7   1 -12   -0.30   17.10 
  -7   1 -12   -4.80   29.40 
  -7   1 -12   -2.20    6.60 
  -7   1 -12   31.40   12.10 
  -7   1 -12  -20.20   14.50 
   7  -1  12   -1.30    6.30 
   7  -1  12  -10.80   12.90 
   7  -1  12    9.00   14.10 
   7  -1  12  -13.30   25.00 
  -7   0 -13    6.50   16.00 
  -7   0 -13    7.00   24.70 
  -7   0 -13   14.30   17.20 
  -7   0 -13    8.10    5.90 
  -7   0 -13  -11.20   17.40 
   7   0  13   -3.80   14.40 
   7   0  13   -4.70   17.20 
   7   0  13   -3.20    6.50 
   7   0  13   12.30   23.30 
   7   0  13   -3.40    8.60 
  -7  -1 -14   47.70   24.10 
  -7  -1 -14   41.00   25.50 
  -7  -1 -14   80.19   20.10 
   7   1  14   40.00   24.50 
   7   1  14   58.39   25.90 
   7   1  14   46.20   16.80 
   7   1  14   71.09   25.30 
   7   1  14   67.69   16.20 
  -7  -2 -15  133.69   32.90 
  -7  -2 -15   95.39   32.00 
  -7  -2 -15  162.38   33.40 
   7   2  15  146.79   29.00 
   7   2  15  135.09   34.50 
   7   2  15   46.90   28.90 
   7   2  15  152.78   23.80 
   7   2  15  145.39   18.00 
  -6  10  -4   20.80   58.69 
  -6  10  -4   14.70   24.00 
  -6  10  -4  -12.00   41.90 
   6 -10   4  -32.80   32.80 
   6 -10   4   13.70   26.60 
   6 -10   4    8.90    8.20 
   6 -10   4   15.20   12.10 
  -6   9  -5  -21.20   42.10 
  -6   9  -5    5.20   22.90 
  -6   9  -5    7.40   26.70 
  -6   9  -5   -4.80   32.50 
  -6   9  -5    3.30   33.30 
   6  -9   5    0.50    7.70 
   6  -9   5   24.90   24.90 
   6  -9   5    3.20    7.70 
   6  -9   5   18.50   26.10 
   6  -9   5    7.10    6.90 
  -6   8  -6  -23.80   29.50 
  -6   8  -6   55.29   44.20 
  -6   8  -6   59.19   27.90 
  -6   8  -6   66.09   37.10 
   6  -8   6   72.59   25.40 
   6  -8   6   44.30   12.40 
  -6   7  -7  -12.40   28.10 
  -6   7  -7   35.00   19.30 
  -6   7  -7   14.40   39.80 
  -6   7  -7   29.30   41.60 
  -6   7  -7   12.30   19.30 
   6  -7   7  -12.40   18.20 
   6  -7   7    0.30    6.30 
   6  -7   7   -1.60   18.80 
   6  -7   7   -4.80    5.80 
  -6   6  -8 1718.33  234.88 
  -6   6  -8 2288.37  238.98 
  -6   6  -8 2299.07  245.58 
  -6   6  -8 1731.63  230.48 
  -6   6  -8 1901.31  238.78 
   6  -6   8 1991.80  236.18 
   6  -6   8 2222.98  233.48 
   6  -6   8 2395.86  237.18 
  -6   5  -9  111.09   33.40 
  -6   5  -9  120.89   20.00 
  -6   5  -9  165.68   28.60 
  -6   5  -9  286.27   50.09 
  -6   5  -9   90.79   26.70 
  -6   5  -9  173.08   30.30 
  -6   5  -9  108.69   22.30 
  -6   5  -9  285.37   68.69 
   6  -5   9  144.99   21.70 
   6  -5   9  148.39   21.80 
   6  -5   9  186.48   29.80 
   6  -5   9   93.99   24.00 
  -6   4 -10  200.88   28.50 
  -6   4 -10  185.98   41.70 
  -6   4 -10  188.68   33.80 
  -6   4 -10  262.97   36.90 
  -6   4 -10  147.79   34.30 
  -6   4 -10  389.06   57.59 
  -6   4 -10  309.77   40.70 
  -6   4 -10  438.66   76.89 
   6  -4  10  187.88   34.20 
   6  -4  10  247.28   32.00 
   6  -4  10  223.98   31.00 
   6  -4  10  270.87   37.70 
  -6   3 -11   -2.80   13.80 
  -6   3 -11    4.80   22.10 
  -6   3 -11   12.50   32.50 
  -6   3 -11   -7.90   19.40 
  -6   3 -11    3.00   14.50 
  -6   3 -11   28.70   12.40 
  -6   3 -11    2.60    7.80 
  -6   3 -11   34.90   15.20 
   6  -3  11   13.80    8.20 
   6  -3  11    9.90   12.70 
   6  -3  11   12.70    8.00 
   6  -3  11   18.00   14.80 
  -6   2 -12  178.78   48.00 
  -6   2 -12   58.59   30.20 
  -6   2 -12   76.39   19.70 
  -6   2 -12  112.99   22.80 
  -6   2 -12   59.69   22.00 
  -6   2 -12   85.49   28.40 
   6  -2  12  106.69   31.60 
   6  -2  12   75.59   20.30 
   6  -2  12  103.69   20.70 
   6  -2  12   99.99   17.60 
   6  -2  12   75.99   20.60 
  -6   1 -13   22.90   12.90 
  -6   1 -13   17.70    7.10 
  -6   1 -13   75.39   24.00 
  -6   1 -13   10.10   19.00 
  -6   1 -13   64.69   32.80 
   6  -1  13   21.00   12.20 
   6  -1  13   24.30   15.00 
   6  -1  13    1.80   17.30 
   6  -1  13   30.70    7.40 
   6  -1  13   55.29   19.00 
   6  -1  13   17.90    8.10 
   6  -1  13   24.10   25.40 
   6  -1  13   44.70   11.20 
  -6   0 -14  133.39   29.00 
  -6   0 -14  185.58   35.20 
  -6   0 -14  127.19   35.40 
  -6   0 -14  151.98   28.80 
  -6   0 -14   92.99   30.60 
   6   0  14  157.28   27.10 
   6   0  14  169.58   38.90 
   6   0  14  139.39   31.50 
   6   0  14  170.48   24.30 
   6   0  14  165.28   25.00 
   6   0  14  116.29   29.40 
  -6  -1 -15    4.20   19.70 
  -6  -1 -15   17.80   14.30 
  -6  -1 -15  -12.40   20.40 
  -6  -1 -15   30.40   24.00 
   6   1  15   -6.20   20.20 
   6   1  15   10.10   21.60 
   6   1  15   14.50    9.70 
   6   1  15    0.90   16.40 
   6   1  15   -8.20   18.60 
   6   1  15   20.60   12.80 
  -6  -2 -16   51.59   26.30 
  -6  -2 -16   99.99   27.80 
  -6  -2 -16   54.89   23.50 
   6   2  16   58.19   20.70 
   6   2  16   22.80   22.90 
   6   2  16   14.70   29.00 
   6   2  16   78.39   17.50 
   6   2  16   58.39   18.40 
  -5  10  -5  220.78   52.79 
  -5  10  -5  165.08   58.39 
  -5  10  -5   78.79   40.90 
  -5  10  -5  190.28   44.40 
  -5  10  -5  208.18   42.80 
   5 -10   5  110.49   40.50 
   5 -10   5  140.79   53.99 
   5 -10   5  141.69   24.20 
   5 -10   5  153.38   42.50 
   5 -10   5  103.29   27.20 
  -5   9  -6  126.19   40.90 
  -5   9  -6  123.69   34.00 
  -5   9  -6  158.88   37.90 
  -5   9  -6  108.29   53.59 
  -5   9  -6  233.48   54.69 
   5  -9   6   81.69   16.60 
   5  -9   6   73.79   25.70 
   5  -9   6   75.29   32.60 
   5  -9   6   74.79   20.10 
   5  -9   6   35.20   28.70 
  -5   8  -7  297.47   57.39 
  -5   8  -7  242.98   47.70 
  -5   8  -7  244.48   63.59 
  -5   8  -7  186.28   37.60 
  -5   8  -7  193.98   39.50 
   5  -8   7  153.58   28.20 
   5  -8   7  198.28   41.20 
   5  -8   7  166.48   25.70 
   5  -8   7  157.88   30.50 
   5  -8   7  184.38   40.50 
  -5   7  -8   64.19   24.10 
  -5   7  -8   74.09   41.60 
  -5   7  -8   30.30   10.50 
  -5   7  -8   58.49   29.20 
  -5   7  -8   53.69   24.00 
   5  -7   8   46.80   12.00 
   5  -7   8   69.59   24.80 
   5  -7   8   72.39   11.80 
   5  -7   8   34.30   22.90 
   5  -7   8   27.80   16.30 
  -5   6  -9  116.09   18.50 
  -5   6  -9  117.49   31.50 
  -5   6  -9  201.38   56.49 
  -5   6  -9  153.88   31.00 
  -5   6  -9  171.18   35.50 
   5  -6   9  170.18   31.80 
   5  -6   9   97.29   20.20 
   5  -6   9  153.08   22.20 
   5  -6   9  136.59   20.70 
  -5   5 -10   22.00   26.00 
  -5   5 -10    0.30   13.00 
  -5   5 -10    3.40    5.50 
  -5   5 -10    6.20   14.30 
  -5   5 -10    0.30   18.50 
  -5   5 -10   51.69   37.20 
  -5   5 -10   25.70   27.70 
   5  -5  10    1.30   12.70 
   5  -5  10   12.00    6.80 
   5  -5  10   16.30   10.00 
   5  -5  10    8.10   15.90 
  -5   4 -11  490.45   69.89 
  -5   4 -11  401.76   42.30 
  -5   4 -11  486.05   81.59 
  -5   4 -11  314.77   49.10 
  -5   4 -11  257.37   50.39 
  -5   4 -11  246.58   53.19 
  -5   4 -11  388.76   53.39 
   5  -4  11  253.97   48.80 
   5  -4  11  338.67   50.29 
   5  -4  11  418.06   47.20 
   5  -4  11  379.16   47.70 
   5  -4  11  364.26   45.50 
  -5   3 -12  374.06   48.60 
  -5   3 -12  321.97   54.39 
  -5   3 -12  477.75   59.89 
  -5   3 -12  354.36   55.59 
  -5   3 -12  568.44   87.89 
  -5   3 -12  425.16   73.99 
  -5   3 -12  410.36   54.89 
   5  -3  12  391.96   55.89 
   5  -3  12  462.15   53.19 
   5  -3  12  391.76   57.99 
   5  -3  12  469.95   51.29 
   5  -3  12  319.17   50.99 
  -5   2 -13   12.00   15.20 
  -5   2 -13   11.60   17.00 
  -5   2 -13   22.10   15.70 
  -5   2 -13   22.50    7.40 
  -5   2 -13   24.40   31.70 
  -5   2 -13   34.40   18.50 
  -5   2 -13   20.00   21.00 
   5  -2  13    6.00   12.00 
   5  -2  13   13.30   14.10 
   5  -2  13   26.60   16.90 
   5  -2  13   14.20    7.50 
   5  -2  13   32.30   11.30 
   5  -2  13   43.90   15.20 
  -5   1 -14   24.90   25.70 
  -5   1 -14   -1.60   19.70 
  -5   1 -14   44.00   17.70 
  -5   1 -14  -14.10   17.20 
  -5   1 -14   -5.20    4.30 
   5  -1  14   -6.20   12.20 
   5  -1  14   -8.90   16.20 
   5  -1  14   -0.80   16.00 
   5  -1  14    7.10   26.30 
   5  -1  14   11.30   16.40 
  -5   0 -15    9.20   24.60 
  -5   0 -15   11.50   21.80 
  -5   0 -15   -0.50   18.00 
  -5   0 -15   17.90   14.90 
  -5   0 -15    2.50   20.80 
   5   0  15   -9.00    5.70 
   5   0  15  -11.60   16.80 
   5   0  15    6.10   20.50 
   5   0  15   15.20   15.70 
   5   0  15   17.50   21.60 
   5   0  15    5.80   30.80 
  -5  -1 -16    1.00   15.40 
  -5  -1 -16  -24.50   18.60 
  -5  -1 -16    0.00   20.40 
   5   1  16   21.00    9.10 
   5   1  16    5.80   23.70 
   5   1  16   -2.50   17.60 
   5   1  16   24.10   23.70 
   5   1  16   -0.30   36.60 
  -4  10  -6  132.19   47.40 
  -4  10  -6  237.88   54.39 
  -4  10  -6   34.70   41.50 
   4 -10   6  126.39   30.70 
   4 -10   6  159.28   43.10 
   4 -10   6   98.79   39.40 
  -4   9  -7   12.20   23.70 
  -4   9  -7   18.80   41.40 
  -4   9  -7   -5.10   30.70 
  -4   9  -7   50.89   35.80 
  -4   9  -7   10.50   38.90 
   4  -9   7   -0.90   24.30 
   4  -9   7   -3.70   29.00 
   4  -9   7  -20.20   26.20 
   4  -9   7    8.10   16.20 
  -4   8  -8  642.74   98.29 
  -4   8  -8  520.05   73.29 
  -4   8  -8  558.74   77.59 
  -4   8  -8  520.35   81.99 
   4  -8   8  481.65   70.49 
   4  -8   8  406.26   62.09 
   4  -8   8  408.56   68.29 
  -4   7  -9  257.17   53.09 
  -4   7  -9  423.66   69.99 
  -4   7  -9  243.18   48.00 
  -4   7  -9  298.17   75.69 
  -4   7  -9  289.17   45.90 
   4  -7   9  224.28   28.10 
   4  -7   9  185.38   36.90 
   4  -7   9  190.98   30.00 
   4  -7   9  199.78   42.30 
   4  -7   9  211.78   36.10 
  -4   6 -10  255.27   49.20 
  -4   6 -10  345.17   48.60 
  -4   6 -10  219.58   33.60 
  -4   6 -10  214.58   41.70 
  -4   6 -10  399.26   72.99 
  -4   6 -10  374.36   62.99 
  -4   6 -10  164.48   24.50 
   4  -6  10  226.48   33.80 
   4  -6  10  183.18   34.30 
   4  -6  10  152.38   26.70 
   4  -6  10  186.38   35.90 
   4  -6  10  190.28   37.40 
  -4   5 -11  296.17   53.49 
  -4   5 -11  404.66   47.20 
  -4   5 -11  264.57   38.40 
  -4   5 -11  426.36   53.79 
  -4   5 -11  394.06   74.49 
   4  -5  11  354.86   50.29 
   4  -5  11  323.57   48.10 
   4  -5  11  333.57   46.40 
   4  -5  11  330.47   43.70 
   4  -5  11  338.77   42.40 
   4  -5  11  286.17   50.39 
  -4   4 -12 1333.27  150.28 
  -4   4 -12 1330.17  154.58 
  -4   4 -12 1134.29  153.48 
   4  -4  12 1094.69  151.28 
   4  -4  12 1258.47  156.48 
   4  -4  12 1091.19  149.39 
   4  -4  12 1368.26  149.88 
   4  -4  12 1539.15  148.59 
  -4   3 -13   -9.20   17.70 
  -4   3 -13  -39.70   31.30 
  -4   3 -13   23.40   14.70 
  -4   3 -13   15.40   16.10 
  -4   3 -13    1.80   17.50 
  -4   3 -13   12.10   22.80 
   4  -3  13   19.90   17.20 
   4  -3  13  -26.30   12.50 
   4  -3  13    1.40    6.10 
   4  -3  13   11.00   16.10 
  -4   2 -14   -6.40   14.00 
  -4   2 -14    5.40   22.30 
  -4   2 -14   14.30    6.70 
  -4   2 -14    5.70   18.40 
  -4   2 -14   -5.90   30.40 
  -4   2 -14    3.00   17.80 
   4  -2  14   16.20   15.30 
   4  -2  14   31.80   15.40 
   4  -2  14    6.00    7.80 
   4  -2  14   10.80   18.40 
  -4   1 -15  229.18   39.10 
  -4   1 -15  217.08   38.60 
  -4   1 -15  176.98   45.10 
   4  -1  15  161.08   37.40 
   4  -1  15  180.78   38.00 
   4  -1  15  199.98   35.80 
   4  -1  15  216.98   29.00 
   4  -1  15  257.47   42.60 
  -4   0 -16  207.58   39.80 
  -4   0 -16  237.58   50.09 
  -4   0 -16  260.27   44.20 
  -4   0 -16  191.28   43.90 
   4   0  16  280.57   33.50 
   4   0  16  229.98   41.00 
   4   0  16  195.58   42.70 
   4   0  16  262.47   46.10 
  -4  -1 -17  107.09   26.70 
  -4  -1 -17   62.99   29.10 
  -4  -1 -17   81.89   27.80 
   4   1  17   88.09   26.80 
   4   1  17   80.39   31.60 
  -3  10  -7  -33.20   38.80 
  -3  10  -7    4.90   48.10 
   3 -10   7  -32.20   44.10 
   3 -10   7    6.10   23.00 
   3 -10   7   21.10   33.60 
  -3   9  -8  158.58   45.60 
  -3   9  -8  162.68   49.50 
  -3   9  -8  183.68   55.59 
  -3   9  -8   64.19   34.60 
  -3   9  -8   88.69   48.30 
   3  -9   8   86.69   36.00 
   3  -9   8  104.69   26.30 
   3  -9   8   69.19   14.40 
   3  -9   8   85.09   37.10 
  -3   8  -9    5.50   38.00 
  -3   8  -9   66.39   30.60 
  -3   8  -9   85.69   37.70 
  -3   8  -9   15.00   37.70 
   3  -8   9  -11.80   24.30 
   3  -8   9    3.40   19.40 
   3  -8   9   18.80   24.40 
   3  -8   9   30.10   11.90 
   3  -8   9   36.90    6.20 
  -3   7 -10   93.19   31.40 
  -3   7 -10   98.99   42.20 
  -3   7 -10   13.80   30.70 
  -3   7 -10  101.19   22.60 
   3  -7  10   21.30   19.20 
   3  -7  10   83.29   28.80 
   3  -7  10   42.60    9.70 
   3  -7  10   41.90   22.50 
   3  -7  10   33.20   13.70 
   3  -7  10   56.09   26.60 
  -3   6 -11   -0.50   30.70 
  -3   6 -11    5.70   17.60 
  -3   6 -11   38.10   25.00 
  -3   6 -11    9.90    4.80 
  -3   6 -11   -6.90   29.40 
  -3   6 -11   27.50   27.70 
  -3   6 -11   55.19   28.50 
   3  -6  11  -57.49   20.90 
   3  -6  11   16.70   16.80 
   3  -6  11    5.80   11.60 
   3  -6  11    3.60   19.80 
   3  -6  11   41.60   20.00 
  -3   5 -12  328.67   60.19 
  -3   5 -12  581.14   79.59 
  -3   5 -12  585.14   80.39 
  -3   5 -12  497.75   62.59 
  -3   5 -12  369.26   54.99 
  -3   5 -12  316.37   63.49 
   3  -5  12  321.67   58.29 
   3  -5  12  321.77   57.39 
   3  -5  12  329.07   55.49 
   3  -5  12  421.66   48.80 
   3  -5  12  356.46   53.79 
   3  -5  12  371.56   51.89 
  -3   4 -13  -22.80   20.20 
  -3   4 -13  -18.70   17.40 
  -3   4 -13   -8.40   24.60 
  -3   4 -13  -15.30   26.30 
  -3   4 -13    7.20   23.20 
  -3   4 -13   -9.70   17.00 
   3  -4  13    0.90    5.60 
   3  -4  13   -4.10   15.20 
   3  -4  13    9.40   18.80 
   3  -4  13   10.20   12.60 
   3  -4  13    1.50   17.10 
   3  -4  13   -1.60   17.30 
  -3   3 -14  432.36   70.59 
  -3   3 -14  619.34   82.59 
  -3   3 -14  491.95   72.09 
  -3   3 -14  523.95   72.89 
   3  -3  14  563.54   69.99 
   3  -3  14  507.75   70.69 
   3  -3  14  457.45   71.49 
   3  -3  14  580.14   64.69 
   3  -3  14  446.56   75.29 
   3  -3  14  566.74   70.49 
  -3   2 -15    4.20   21.80 
  -3   2 -15    9.50   16.00 
  -3   2 -15   20.40   20.30 
  -3   2 -15    7.60   28.50 
   3  -2  15   42.20   20.70 
   3  -2  15  -12.90   16.50 
   3  -2  15   11.50    7.40 
   3  -2  15    5.40   18.70 
   3  -2  15   14.60   17.20 
  -3   1 -16  104.19   34.70 
  -3   1 -16   84.99   24.20 
  -3   1 -16   87.99   29.30 
  -3   1 -16   35.80   26.00 
  -3   1 -16  104.69   32.00 
  -3   1 -16   74.29   11.80 
   3  -1  16  117.79   18.30 
   3  -1  16   78.99   27.00 
   3  -1  16   74.19   24.60 
   3  -1  16   42.30   29.10 
  -3   0 -17    0.70   17.90 
  -3   0 -17   -5.10   22.90 
   3   0  17    5.90   24.20 
   3   0  17   15.50   22.30 
   3   0  17   -1.40    7.20 
   3   0  17   12.20   20.00 
  -3  -1 -18   31.90   22.50 
  -3  -1 -18   57.99   25.50 
  -3  -1 -18   15.30   26.10 
   3   1  18   46.30   12.70 
   3   1  18   93.79   33.10 
   3   1  18   91.09   30.90 
   3   1  18   66.79   36.40 
  -2  10  -8  536.95  102.09 
   2 -10   8  313.37   73.29 
   2 -10   8  404.96   72.89 
   2 -10   8  457.45   75.39 
  -2   9  -9  174.38   46.50 
  -2   9  -9  229.18   58.49 
  -2   9  -9  186.38   55.99 
  -2   9  -9  229.48   60.09 
   2  -9   9  136.69   37.90 
   2  -9   9  106.39   39.10 
   2  -9   9  117.49   33.50 
   2  -9   9  116.09   22.40 
  -2   8 -10   14.20   34.10 
  -2   8 -10    8.20   22.80 
  -2   8 -10  -35.50   37.70 
  -2   8 -10   10.90   37.30 
  -2   8 -10   -3.70   20.60 
  -2   8 -10   12.30   34.60 
   2  -8  10   13.20   12.00 
   2  -8  10    4.10   27.00 
   2  -8  10    6.50    4.80 
   2  -8  10   11.60   22.00 
   2  -8  10   10.70   25.90 
  -2   7 -11  225.58   54.49 
  -2   7 -11  317.27   50.29 
  -2   7 -11  169.88   44.70 
  -2   7 -11  283.47   58.79 
   2  -7  11  171.28   36.20 
   2  -7  11  176.18   43.10 
   2  -7  11  153.48   36.30 
   2  -7  11  121.99   26.90 
  -2   6 -12  115.69   28.70 
  -2   6 -12  112.99   35.90 
  -2   6 -12  147.09   48.30 
  -2   6 -12  132.29   45.10 
   2  -6  12   49.99   30.50 
   2  -6  12   73.29   20.30 
   2  -6  12  102.89   28.40 
  -2   5 -13  -15.10   28.90 
  -2   5 -13   11.70   31.80 
  -2   5 -13  -28.90   25.50 
  -2   5 -13   -5.00   25.30 
  -2   5 -13   44.10   22.40 
  -2   5 -13   33.30   27.40 
   2  -5  13   15.20   19.70 
   2  -5  13   -2.80   14.20 
   2  -5  13   49.10   21.10 
  -2   4 -14   10.80   28.70 
  -2   4 -14    4.00   25.30 
  -2   4 -14  -18.80   28.60 
  -2   4 -14   -1.40   23.80 
   2  -4  14   15.00    7.70 
   2  -4  14   13.20   21.40 
   2  -4  14   25.50   19.70 
   2  -4  14   23.30   15.80 
   2  -4  14    9.60   19.80 
  -2   3 -15   39.90   24.90 
  -2   3 -15   -4.10   22.10 
  -2   3 -15   26.10   19.70 
  -2   3 -15   20.40   25.00 
  -2   3 -15   17.40   27.90 
   2  -3  15    5.70    6.60 
   2  -3  15   11.80   17.50 
   2  -3  15    2.60   17.20 
   2  -3  15    7.50   19.50 
   2  -3  15   -6.00   18.60 
  -2   2 -16  336.27   65.99 
  -2   2 -16  407.96   59.59 
  -2   2 -16  395.96   72.49 
  -2   2 -16  373.16   61.89 
   2  -2  16  343.27   67.29 
   2  -2  16  323.87   58.79 
   2  -2  16  410.16   49.50 
   2  -2  16  393.26   60.39 
   2  -2  16  441.46   58.39 
  -2   1 -17  181.08   38.70 
  -2   1 -17  169.38   24.10 
  -2   1 -17  215.38   42.00 
  -2   1 -17  245.48   47.90 
  -2   1 -17  256.07   59.99 
   2  -1  17  226.88   47.40 
   2  -1  17  237.68   29.40 
   2  -1  17  239.98   44.30 
   2  -1  17  194.68   42.30 
   2  -1  17  180.58   42.20 
  -2   0 -18  108.69   37.40 
  -2   0 -18  117.09   33.00 
   2   0  18  147.89   41.80 
   2   0  18  157.08   44.90 
   2   0  18  157.48   23.90 
   2   0  18  193.28   40.80 
   2   0  18  137.19   38.90 
   2   0  18  195.38   50.69 
  -1  10  -9  222.48   60.09 
  -1  10  -9  124.29   40.80 
  -1  10  -9  145.79   52.79 
   1 -10   9   91.09   45.40 
   1 -10   9  141.99   39.70 
   1 -10   9   83.29   42.30 
   1 -10   9   53.59   21.20 
  -1   9 -10  300.57   64.59 
  -1   9 -10  104.49   45.40 
  -1   9 -10  224.98   56.29 
  -1   9 -10  134.09   61.59 
   1  -9  10  110.69   34.70 
   1  -9  10  104.59   13.20 
   1  -9  10   36.60   34.60 
   1  -9  10   99.89   42.10 
   1  -9  10   93.49   23.10 
  -1   8 -11  445.46   72.99 
  -1   8 -11  489.95   84.49 
  -1   8 -11  513.15   81.79 
   1  -8  11  202.38   54.89 
   1  -8  11  229.58   50.19 
   1  -8  11  287.77   54.09 
   1  -8  11  254.77   42.20 
  -1   7 -12   -9.30   31.90 
  -1   7 -12   30.40   43.50 
  -1   7 -12   78.39   41.00 
  -1   7 -12   -6.00   25.00 
  -1   7 -12    6.40   33.10 
   1  -7  12    4.20   14.10 
   1  -7  12  -16.30   20.40 
   1  -7  12    5.60   28.80 
   1  -7  12   35.40   25.00 
  -1   6 -13   30.80   35.70 
  -1   6 -13   45.20    8.80 
  -1   6 -13   27.50   29.50 
  -1   6 -13   13.80   26.40 
  -1   6 -13   67.09   37.90 
  -1   6 -13   -3.50   32.40 
   1  -6  13   17.30   26.50 
   1  -6  13   14.40   16.00 
   1  -6  13   29.60   23.70 
   1  -6  13   47.90   24.70 
  -1   5 -14   18.10   32.70 
  -1   5 -14  -25.30   29.20 
  -1   5 -14   -6.10   27.90 
  -1   5 -14   -0.50   25.20 
   1  -5  14   -3.90   22.40 
   1  -5  14   22.10   17.30 
   1  -5  14  -11.10   17.60 
   1  -5  14   60.19   25.00 
  -1   4 -15  218.48   51.29 
  -1   4 -15  135.09   41.40 
  -1   4 -15  151.38   41.20 
   1  -4  15  196.98   27.70 
   1  -4  15  224.88   40.10 
   1  -4  15  208.88   42.00 
   1  -4  15  175.18   38.80 
   1  -4  15  148.79   34.80 
  -1   3 -16   99.19   34.70 
  -1   3 -16  118.69   34.60 
  -1   3 -16   20.50   26.50 
  -1   3 -16   94.09   38.10 
   1  -3  16   64.89   30.30 
   1  -3  16   85.39   29.70 
   1  -3  16   97.49   32.80 
   1  -3  16   40.00   23.70 
   1  -3  16   72.19   15.30 
  -1   2 -17  200.88   42.20 
  -1   2 -17  239.68   50.39 
  -1   2 -17  177.38   47.50 
  -1   2 -17  247.18   48.80 
   1  -2  17  230.48   30.20 
   1  -2  17  147.89   39.20 
   1  -2  17  184.48   44.10 
   1  -2  17  145.69   41.60 
   1  -2  17  255.47   48.20 
  -1   1 -18   29.60   33.20 
  -1   1 -18   -1.70   29.60 
  -1   1 -18   -9.20    5.40 
   1  -1  18   41.60   29.40 
   1  -1  18   28.00   29.60 
   1  -1  18    3.60   28.80 
   1  -1  18    8.10    9.00 
   0  10 -10  152.78   56.39 
   0  10 -10  164.18   52.09 
   0  10 -10   85.09   72.39 
   0  10 -10  162.98   47.80 
   0 -10  10   59.29   38.40 
   0 -10  10   94.89   46.70 
   0 -10  10   39.90   41.70 
   0 -10  10   36.00   23.40 
   0   9 -11  -38.30   35.60 
   0   9 -11   49.99   66.69 
   0   9 -11   15.00   44.00 
   0  -9  11   33.60   30.80 
   0  -9  11   -4.20   29.40 
   0  -9  11    1.90    6.80 
   0  -9  11   19.20   19.10 
   0  -9  11   -3.40   27.90 
   0   8 -12  430.66   79.39 
   0   8 -12  236.78   67.39 
   0   8 -12  284.17   66.89 
   0   8 -12  366.66   80.09 
   0   8 -12  360.36   41.80 
   0  -8  12  213.68   56.29 
   0   7 -13   -1.30    7.70 
   0   7 -13  -58.19   24.40 
   0   7 -13   68.69   43.30 
   0   7 -13   13.60   48.80 
   0   7 -13    3.40   32.80 
   0  -7  13   13.20   27.20 
   0  -7  13   15.50   15.70 
   0  -7  13   12.60   25.60 
   0  -7  13   -4.20   32.30 
   0   6 -14  211.18   53.39 
   0   6 -14  136.39   54.49 
   0   6 -14  152.68   47.70 
   0   6 -14  259.97   56.99 
   0  -6  14   80.09   38.60 
   0  -6  14   68.19   29.80 
   0  -6  14  104.79   27.50 
   0  -6  14  121.19   41.60 
   0   5 -15   48.30   33.40 
   0   5 -15  -11.20   36.10 
   0   5 -15   27.40   32.10 
   0   5 -15  -11.20   31.40 
   0  -5  15    4.40   30.20 
   0  -5  15   -1.40   25.20 
   0  -5  15    1.30   28.20 
   0  -5  15  -26.00   17.10 
   0   4 -16  118.99   44.90 
   0   4 -16  202.48   53.29 
   0   4 -16  290.27   57.79 
   0   4 -16  382.86   67.19 
   0  -4  16  204.38   43.80 
   0  -4  16  196.48   52.99 
   0  -4  16  216.78   54.79 
   0  -4  16  253.37   43.30 
   0   3 -17    6.50   29.10 
   0   3 -17    4.70   27.40 
   0   3 -17   17.60    9.20 
   0   3 -17  -11.00   26.20 
   0   3 -17  -13.90   52.99 
   0  -3  17  -13.00   25.30 
   0  -3  17    8.10   23.80 
   0  -3  17   17.10   26.40 
   0  -3  17    4.10   30.00 
   0  -3  17   -0.80    8.10 
   0   2 -18   34.90   41.10 
   0   2 -18  130.69   40.00 
   0   2 -18   90.69   41.10 
   0   2 -18  112.99   21.50 
   0  -2  18  158.48   44.60 
   0  -2  18  220.98   44.60 
   0  -2  18  158.68   41.50 
   0  -2  18  120.79   41.20 
   0  -2  18  199.18   25.30 
   1   9 -12  502.05  120.29 
   1   9 -12  578.24   72.89 
   1   9 -12  772.82  109.99 
   1   9 -12  579.04   98.99 
   1   9 -12  569.74  106.99 
   1   8 -13  150.38   61.79 
   1   8 -13  141.59   56.79 
   1   8 -13  135.89   52.39 
   1   8 -13  -58.69   60.89 
  -1  -8  13   30.40   41.10 
  -1  -8  13   31.60   34.50 
  -1  -8  13   62.19   26.80 
  -1  -8  13   34.50   31.70 
   1   7 -14  109.49   54.59 
   1   7 -14  129.99   65.19 
   1   7 -14  100.39   48.50 
   1   7 -14  110.19   47.80 
  -1  -7  14    2.90   36.40 
  -1  -7  14   61.19   32.10 
  -1  -7  14   31.10   33.70 
   1   6 -15  -25.90   34.40 
   1   6 -15   28.30   37.80 
   1   6 -15   45.70    9.70 
   1   6 -15   69.09   50.99 
   1   6 -15   35.40   41.90 
  -1  -6  15   50.99   36.60 
  -1  -6  15   19.30   29.20 
  -1  -6  15   17.40   32.40 
  -1  -6  15   32.80   26.00 
   1   5 -16   21.80   36.90 
   1   5 -16   54.39   46.10 
   1   5 -16    9.10   35.60 
  -1  -5  16   26.60   23.60 
  -1  -5  16    0.70   31.80 
  -1  -5  16    2.80   30.60 
  -1  -5  16   31.10   31.20 
   1   4 -17   80.09   18.70 
   1   4 -17   75.19   44.40 
   1   4 -17  136.19   45.80 
   1   4 -17   74.29   59.89 
   1   4 -17   89.29   49.00 
  -1  -4  17  120.29   42.60 
  -1  -4  17   99.19   34.20 
  -1  -4  17   78.39   32.20 
  -1  -4  17   68.89   34.60 
   1   3 -18   46.70   14.30 
   1   3 -18   26.80   35.00 
   1   3 -18   39.00   35.80 
   1   3 -18   49.20   41.60 
   1   3 -18   58.19   44.00 
  -1  -3  18   39.40   31.70 
  -1  -3  18   61.89   36.30 
  -1  -3  18   56.59   40.40 
  -1  -3  18   54.79   14.40 
   2   7 -15  287.37   73.49 
   2   7 -15  287.87   61.49 
   2   7 -15  201.18   55.09 
  -2  -7  15  124.39   38.60 
  -2  -7  15   89.89   42.20 
  -2  -7  15  149.19   46.40 
   2   6 -16   70.09   13.40 
   2   6 -16   53.59   60.39 
   2   6 -16   85.19   44.10 
   2   6 -16   89.29   42.30 
  -2  -6  16   58.59   31.80 
  -2  -6  16   55.09   44.30 
  -2  -6  16   91.99   48.70 
  -2  -6  16   58.89   36.50 
 -10   4  -8  635.64  101.09 
  10  -4   8  849.52   96.49 
 -10   3  -9  -44.20   17.50 
 -10   3  -9  -32.10   22.00 
 -10   3  -9  -64.79   50.09 
 -10   3  -9  -22.00   22.60 
  10  -3   9  -11.30   11.00 
  10  -3   9    7.80    8.70 
  -9   6  -7   11.70   12.10 
  -9   6  -7   70.99   60.59 
  -9   6  -7   26.60   16.90 
  -9   6  -7   16.00   12.20 
  -9   6  -7   45.40   34.30 
  -9   6  -7   37.90   47.40 
   9  -6   7    9.10   15.50 
   9  -6   7   33.00   11.00 
   9  -6   7   51.59   16.00 
   9  -6   7   20.40   13.40 
  -9   5  -8  195.08   30.80 
  -9   5  -8  370.96   55.49 
  -9   5  -8  184.78   30.10 
  -9   5  -8  247.38   34.50 
  -9   5  -8  393.56   54.89 
   9  -5   8  190.88   31.50 
   9  -5   8  283.07   34.50 
   9  -5   8  237.08   32.40 
  -9   4  -9  103.99   31.00 
  -9   4  -9   41.10   11.50 
  -9   4  -9   46.40   12.10 
  -9   4  -9   47.20   19.80 
  -9   4  -9   66.19   19.10 
  -9   4  -9  315.57   79.59 
  -9   4  -9  144.39   34.30 
   9  -4   9   51.89   15.30 
   9  -4   9   53.59   13.60 
   9  -4   9   76.99   15.90 
  -9   3 -10  266.87   48.00 
  -9   3 -10  345.47   52.29 
  -9   3 -10  174.38   43.10 
   9  -3  10  275.67   37.30 
   9  -3  10  249.68   36.90 
   9  -3  10  315.17   39.50 
  -9   2 -11   51.99   29.40 
  -9   2 -11   27.90   22.60 
  -9   2 -11   40.00   12.50 
  -9   2 -11   75.69   25.90 
  -9   2 -11   20.60   13.10 
   9  -2  11   33.20   12.00 
   9  -2  11   43.10   15.30 
   9  -2  11   41.40   16.10 
   9  -2  11   50.99   15.20 
  -9   1 -12  263.37   41.10 
  -9   1 -12  291.27   43.00 
  -9   1 -12  254.07   50.29 
  -9   1 -12  319.67   50.69 
   9  -1  12  181.58   47.80 
   9  -1  12  357.36   45.70 
   9  -1  12  367.16   45.40 
   9  -1  12  352.16   42.80 
  -8   8  -6  -12.30   21.50 
  -8   8  -6  107.79   46.00 
  -8   8  -6   20.70   31.60 
  -8   8  -6   52.19   49.70 
   8  -8   6    5.30   21.70 
   8  -8   6  -21.10   23.10 
   8  -8   6    9.40   10.00 
  -8   7  -7  569.44   97.69 
  -8   7  -7  399.46   55.29 
  -8   7  -7  453.45   69.99 
  -8   7  -7  187.08   41.10 
   8  -7   7  270.97   42.90 
   8  -7   7  283.77   45.50 
   8  -7   7  297.17   39.40 
  -8   6  -8  320.27   77.69 
  -8   6  -8   68.49   25.60 
  -8   6  -8  145.59   26.30 
   8  -6   8   75.79   23.10 
   8  -6   8  218.18   27.00 
   8  -6   8  137.19   26.50 
   8  -6   8  138.09   24.20 
  -8   5  -9  785.42   91.89 
  -8   5  -9  546.75   71.99 
  -8   5  -9  484.95   68.19 
  -8   5  -9  616.24   71.09 
  -8   5  -9  493.05   70.99 
   8  -5   9  721.83   72.89 
   8  -5   9  637.84   72.39 
   8  -5   9  482.75   69.49 
  -8   4 -10    6.60   11.70 
  -8   4 -10    4.80   28.30 
  -8   4 -10   -1.20   10.10 
  -8   4 -10  -10.30   16.40 
  -8   4 -10   23.70   26.80 
  -8   4 -10   13.00   15.50 
  -8   4 -10   46.10   54.79 
   8  -4  10   12.30    9.40 
   8  -4  10   -4.80   15.40 
   8  -4  10   10.10   12.50 
   8  -4  10    5.60    7.60 
  -8   3 -11   29.80   12.00 
  -8   3 -11   19.50   23.70 
  -8   3 -11   11.10   47.00 
  -8   3 -11  -14.00   27.50 
  -8   3 -11    6.20   23.00 
   8  -3  11   11.90   10.00 
   8  -3  11   -9.30   12.40 
   8  -3  11   13.60    8.30 
   8  -3  11   24.70   16.20 
  -8   2 -12  310.77   55.09 
  -8   2 -12  321.97   54.79 
  -8   2 -12  320.17   43.60 
  -8   2 -12  333.57   48.10 
   8  -2  12  292.47   49.10 
   8  -2  12  348.17   43.40 
   8  -2  12  353.26   46.80 
   8  -2  12  283.57   45.00 
  -8   1 -13   18.10   23.40 
  -8   1 -13   26.80   21.90 
  -8   1 -13   64.79   18.20 
  -8   1 -13  173.78   48.70 
   8  -1  13   31.90   19.30 
   8  -1  13   55.99   31.40 
   8  -1  13   66.79   20.30 
   8  -1  13   75.59   16.10 
  -8   0 -14   35.20   17.00 
  -8   0 -14   31.20   31.10 
  -8   0 -14   31.30   21.50 
  -8   0 -14   33.90   23.60 
   8   0  14   54.39   17.50 
   8   0  14   23.20   11.20 
   8   0  14   37.10   23.70 
   8   0  14  -11.90   19.50 
  -7   8  -7  373.56   57.89 
  -7   8  -7  278.27   50.09 
  -7   8  -7  202.68   43.70 
   7  -8   7  264.67   47.30 
   7  -8   7  275.97   38.10 
   7  -8   7  343.37   50.19 
  -7   7  -8   14.70   18.70 
  -7   7  -8    6.10   19.70 
  -7   7  -8  -11.50   25.80 
  -7   7  -8   -6.80   36.60 
  -7   7  -8   54.29   52.39 
   7  -7   8   -9.50    6.30 
   7  -7   8   28.70   20.30 
   7  -7   8    3.40   18.80 
   7  -7   8    8.10    9.00 
  -7   6  -9   28.90   23.10 
  -7   6  -9   23.20   17.30 
  -7   6  -9    5.50   29.10 
  -7   6  -9    2.60   18.70 
  -7   6  -9   19.50   49.10 
   7  -6   9   23.80   10.30 
   7  -6   9   25.80   19.40 
   7  -6   9    5.60   15.50 
   7  -6   9   30.90   11.70 
  -7   5 -10   89.19   54.09 
  -7   5 -10   44.50   18.10 
  -7   5 -10   34.80   19.50 
  -7   5 -10   11.70   21.30 
  -7   5 -10   -6.50   14.00 
   7  -5  10    3.90   13.90 
   7  -5  10   14.90   18.30 
   7  -5  10   16.90    8.70 
   7  -5  10   19.10    9.10 
  -7   4 -11  132.99   25.70 
  -7   4 -11  150.18   21.60 
  -7   4 -11  141.89   28.30 
  -7   4 -11  100.59   25.10 
  -7   4 -11  122.29   27.10 
   7  -4  11   94.59   24.00 
   7  -4  11  134.59   23.60 
   7  -4  11  146.79   21.90 
   7  -4  11  121.59   26.10 
  -7   3 -12 1038.00  109.09 
  -7   3 -12  731.03   96.99 
  -7   3 -12  660.83   98.99 
  -7   3 -12  815.02   96.39 
   7  -3  12  952.50   98.79 
   7  -3  12  843.22   94.49 
   7  -3  12  627.44   94.99 
  -7   2 -13  104.19   31.70 
  -7   2 -13  117.09   25.70 
  -7   2 -13  111.09   29.40 
  -7   2 -13  127.59   20.90 
   7  -2  13  123.39   29.30 
   7  -2  13  182.08   26.70 
   7  -2  13  181.38   23.70 
   7  -2  13  101.89   25.80 
  -7   1 -14   55.29   28.50 
  -7   1 -14   42.00   25.80 
  -7   1 -14   40.10   17.90 
  -7   1 -14   11.80   21.90 
  -7   1 -14  145.49   44.80 
  -7   1 -14   12.00   10.90 
   7  -1  14   31.90   20.50 
   7  -1  14   71.79   22.20 
   7  -1  14   37.60   15.80 
  -7   0 -15   -7.20   29.30 
  -7   0 -15    5.90   16.20 
  -7   0 -15   -0.20   21.60 
  -7   0 -15    0.00   23.50 
   7   0  15   -3.20   10.40 
   7   0  15   48.80   33.50 
   7   0  15  -17.10   18.30 
   7   0  15    0.30   19.50 
   7   0  15   -7.00    7.40 
  -6   9  -7  -14.00   27.00 
  -6   9  -7   39.40   36.40 
  -6   9  -7   54.29   36.70 
  -6   9  -7   23.80   48.10 
  -6   9  -7   26.70   42.10 
   6  -9   7   16.90    9.60 
   6  -9   7   37.30   31.10 
   6  -9   7  -35.50   25.70 
  -6   8  -8  123.29   35.10 
  -6   8  -8   81.99   42.40 
  -6   8  -8   38.80   29.80 
  -6   8  -8  256.07   68.09 
   6  -8   8   32.10   27.70 
   6  -8   8   85.69   18.00 
   6  -8   8  101.69   31.50 
  -6   7  -9   16.40   31.80 
  -6   7  -9   90.89   26.30 
  -6   7  -9   52.49   37.10 
  -6   7  -9   24.10   50.79 
  -6   7  -9   22.30   27.80 
   6  -7   9   34.80   22.60 
   6  -7   9   30.70   12.70 
   6  -7   9   59.59   27.40 
   6  -7   9   37.00   11.30 
  -6   6 -10  121.49   44.30 
  -6   6 -10  131.59   23.50 
  -6   6 -10  261.37   53.59 
  -6   6 -10  122.19   36.50 
  -6   6 -10  157.58   33.80 
  -6   6 -10  163.18   27.00 
  -6   6 -10  291.27   72.29 
   6  -6  10  178.78   25.30 
   6  -6  10  167.28   24.30 
   6  -6  10  179.48   33.10 
   6  -6  10  134.39   31.50 
  -6   5 -11   22.90   17.50 
  -6   5 -11   72.29   47.70 
  -6   5 -11    4.40   22.00 
  -6   5 -11   28.40    9.20 
  -6   5 -11   32.80   21.10 
  -6   5 -11   50.09   34.70 
  -6   5 -11   57.69   22.70 
   6  -5  11   35.70   20.40 
   6  -5  11   34.20   11.20 
   6  -5  11   22.20   18.00 
   6  -5  11   62.99   13.60 
  -6   4 -12  -11.00   18.60 
  -6   4 -12   60.79   42.10 
  -6   4 -12   13.10   29.70 
  -6   4 -12    9.30   20.00 
  -6   4 -12  -11.70   20.70 
   6  -4  12    7.70   13.80 
   6  -4  12    1.60    8.00 
   6  -4  12   -3.50   18.50 
   6  -4  12   -3.70    6.00 
  -6   3 -13    6.10   13.90 
  -6   3 -13   -0.80   17.60 
  -6   3 -13    3.40   23.40 
  -6   3 -13   -8.50   41.10 
  -6   3 -13  -12.20   20.20 
   6  -3  13   20.10   19.10 
   6  -3  13   22.00   10.50 
   6  -3  13   19.50    8.30 
  -6   2 -14  364.76   69.19 
  -6   2 -14  202.28   27.60 
  -6   2 -14  264.67   47.80 
  -6   2 -14  206.28   39.80 
  -6   2 -14  166.28   36.30 
   6  -2  14  247.18   30.80 
   6  -2  14  151.48   35.60 
   6  -2  14  179.48   36.60 
   6  -2  14  206.08   28.40 
   6  -2  14  221.78   33.60 
   6  -2  14  211.48   28.30 
  -6   1 -15   19.00   16.50 
  -6   1 -15  -10.50   21.60 
  -6   1 -15   21.10   24.10 
  -6   1 -15    6.90    7.00 
  -6   1 -15   32.30   33.60 
   6  -1  15   12.50   11.40 
   6  -1  15    7.90   18.40 
   6  -1  15   38.90   22.00 
   6  -1  15   29.20   13.30 
   6  -1  15   13.10    9.70 
  -6   0 -16  452.95   71.29 
  -6   0 -16  398.06   63.99 
  -6   0 -16  429.76   72.79 
   6   0  16  422.86   59.39 
   6   0  16  407.16   66.49 
   6   0  16  498.15   61.49 
  -5   9  -8  138.89   48.30 
  -5   9  -8  232.48   48.30 
  -5   9  -8  426.26   75.99 
  -5   9  -8  285.57   85.09 
  -5   9  -8  358.56   62.89 
   5  -9   8  185.18   33.60 
   5  -9   8  178.38   29.70 
   5  -9   8  235.08   46.20 
   5  -9   8  231.58   45.30 
   5  -9   8  194.18   37.70 
  -5   8  -9  622.44   91.59 
  -5   8  -9  699.03  106.59 
  -5   8  -9  982.30  129.39 
  -5   8  -9  763.12   97.49 
   5  -8   9  800.42   92.99 
   5  -8   9  595.84   81.29 
   5  -8   9  664.53   82.59 
   5  -8   9  529.05   88.99 
  -5   7 -10   15.20   27.10 
  -5   7 -10    8.10   24.70 
  -5   7 -10   83.89   15.30 
  -5   7 -10   36.70   49.50 
  -5   7 -10  -32.40   31.90 
  -5   7 -10   70.09   36.70 
  -5   7 -10   18.70    8.80 
   5  -7  10   46.80   23.50 
   5  -7  10   12.90   17.90 
   5  -7  10   27.70    8.40 
   5  -7  10   27.20   14.30 
   5  -7  10   22.70    9.50 
   5  -7  10   38.20   23.90 
  -5   6 -11   91.29   53.09 
  -5   6 -11   47.50    9.80 
  -5   6 -11   59.39   20.20 
  -5   6 -11   44.80   23.30 
  -5   6 -11   73.89   40.90 
  -5   6 -11   71.69   31.80 
  -5   6 -11   39.50   26.10 
   5  -6  11   23.90   18.50 
   5  -6  11   24.60   22.90 
   5  -6  11   50.89   13.40 
   5  -6  11   33.40   14.60 
   5  -6  11   48.90   12.20 
   5  -6  11   28.30   21.00 
  -5   5 -12   94.99   11.50 
  -5   5 -12   44.20   26.20 
  -5   5 -12   68.19   24.30 
  -5   5 -12  172.88   42.60 
  -5   5 -12  136.99   57.09 
  -5   5 -12   74.29   27.80 
  -5   5 -12   47.10   21.80 
   5  -5  12   80.89   16.60 
   5  -5  12   63.79   23.00 
   5  -5  12   24.40   21.70 
   5  -5  12   45.40   19.60 
   5  -5  12   46.40   17.10 
   5  -5  12   72.29   15.90 
  -5   4 -13  141.59   30.60 
  -5   4 -13   70.39   24.50 
  -5   4 -13  188.48   54.59 
  -5   4 -13  115.49   36.10 
  -5   4 -13   52.69   24.40 
  -5   4 -13   79.59   23.80 
   5  -4  13   75.59   18.60 
   5  -4  13   89.49   22.30 
   5  -4  13   83.29   26.80 
   5  -4  13   57.49   22.40 
   5  -4  13  105.89   18.70 
   5  -4  13   94.49   19.50 
  -5   3 -14   88.59   35.30 
  -5   3 -14  141.09   46.60 
  -5   3 -14   32.30   10.00 
  -5   3 -14   35.40   17.10 
  -5   3 -14   16.60   24.20 
  -5   3 -14   30.80   22.40 
   5  -3  14   23.60   10.20 
   5  -3  14   21.40   18.20 
   5  -3  14   15.60   15.00 
   5  -3  14   16.80   20.20 
   5  -3  14   33.30   12.80 
   5  -3  14   -5.50   17.50 
  -5   2 -15  273.77   50.19 
  -5   2 -15  352.36   40.70 
  -5   2 -15  304.27   59.19 
  -5   2 -15  341.07   53.49 
   5  -2  15  409.36   48.50 
   5  -2  15  297.97   50.69 
   5  -2  15  250.67   49.90 
   5  -2  15  313.47   47.50 
   5  -2  15  339.57   43.90 
   5  -2  15  397.06   54.79 
  -5   1 -16   49.00   28.30 
  -5   1 -16  -14.60   34.10 
  -5   1 -16    5.20    3.50 
  -5   1 -16   40.80   25.80 
  -5   1 -16   -6.20   18.00 
   5  -1  16    3.10    7.30 
   5  -1  16  -23.30   23.20 
   5  -1  16  -18.60   17.90 
   5  -1  16  -19.10   19.80 
  -5   0 -17   -0.10   29.50 
  -5   0 -17    4.90   22.70 
  -5   0 -17    1.00   30.70 
  -5   0 -17   15.10   19.20 
   5   0  17   -7.60   28.80 
   5   0  17    3.90   20.30 
   5   0  17    4.40    8.80 
   5   0  17   34.00   25.00 
  -4  10  -8  669.23  113.99 
  -4  10  -8  760.52  105.09 
  -4  10  -8  533.25   81.89 
   4 -10   8  375.76   70.09 
   4 -10   8  482.35   81.29 
  -4   9  -9   92.09   40.40 
  -4   9  -9  134.19   51.19 
  -4   9  -9   58.89   44.00 
  -4   9  -9   71.99   38.60 
   4  -9   9   53.89   31.40 
   4  -9   9   27.80   34.70 
   4  -9   9   37.10   22.00 
  -4   8 -10   19.80   39.10 
  -4   8 -10   64.39   48.90 
  -4   8 -10  -31.90   34.80 
  -4   8 -10  -10.20   31.00 
  -4   8 -10   29.00   43.10 
   4  -8  10  -12.70   26.10 
   4  -8  10   15.40    5.70 
   4  -8  10    7.40    8.50 
   4  -8  10   20.80   28.10 
   4  -8  10   34.40   28.00 
   4  -8  10    5.30   18.60 
  -4   7 -11  239.58   59.09 
  -4   7 -11  127.39   52.49 
  -4   7 -11  210.68   44.40 
  -4   7 -11  243.18   43.60 
  -4   7 -11  105.09   17.30 
  -4   7 -11  124.29   43.50 
   4  -7  11   88.89   25.90 
   4  -7  11  128.49   22.00 
   4  -7  11   83.29   28.80 
   4  -7  11  108.99   37.70 
  -4   6 -12    6.40   20.90 
  -4   6 -12  -39.00   36.50 
  -4   6 -12   15.10   22.80 
  -4   6 -12  -31.60   25.50 
  -4   6 -12   47.10   30.70 
   4  -6  12    3.10   23.80 
   4  -6  12   13.00    7.90 
   4  -6  12    9.20   16.80 
  -4   5 -13   89.89   34.30 
  -4   5 -13  143.19   59.49 
  -4   5 -13  155.38   33.90 
  -4   5 -13   90.79   32.20 
  -4   5 -13  110.19   47.20 
   4  -5  13   78.09   18.10 
   4  -5  13  112.59   19.30 
   4  -5  13   71.99   22.50 
   4  -5  13  128.19   29.80 
  -4   4 -14   28.00   20.50 
  -4   4 -14   12.40   23.40 
  -4   4 -14   35.70   20.80 
  -4   4 -14   41.90   26.10 
   4  -4  14   -2.00   15.90 
   4  -4  14    8.90   19.10 
   4  -4  14   -8.80   21.80 
   4  -4  14   10.40    8.60 
  -4   3 -15  -32.50   27.10 
  -4   3 -15   -8.50   29.60 
  -4   3 -15  113.79   46.40 
  -4   3 -15    9.50   25.30 
  -4   3 -15   28.10   21.00 
   4  -3  15   36.50   18.50 
   4  -3  15    7.70   19.70 
   4  -3  15   12.60    8.90 
   4  -3  15   11.40   20.30 
  -4   2 -16  256.17   48.50 
  -4   2 -16  297.67   34.20 
  -4   2 -16  313.87   61.49 
  -4   2 -16  228.78   45.10 
  -4   2 -16  241.68   48.60 
  -4   2 -16  366.46   75.99 
   4  -2  16  276.57   48.20 
   4  -2  16  244.68   49.10 
   4  -2  16  276.17   45.50 
   4  -2  16  274.87   38.00 
  -4   1 -17   48.60   31.50 
  -4   1 -17   74.29   29.50 
   4  -1  17   85.39   27.10 
   4  -1  17  153.98   36.10 
   4  -1  17   78.59   29.40 
   4  -1  17   97.89   19.10 
  -3  10  -9  -13.80   48.00 
  -3  10  -9  -52.79   44.10 
  -3  10  -9  -19.80   50.59 
  -3  10  -9   14.40   35.10 
   3 -10   9  -20.30   35.20 
   3 -10   9   -2.70   24.30 
   3 -10   9  -15.50   37.60 
  -3   9 -10  437.56   79.59 
  -3   9 -10  184.48   70.59 
   3  -9  10  172.48   40.20 
   3  -9  10  168.58   33.90 
   3  -9  10  181.48   49.80 
   3  -9  10  230.68   47.80 
  -3   8 -11  -67.69   35.70 
  -3   8 -11   25.60   22.40 
  -3   8 -11   24.90   40.70 
  -3   8 -11  -58.19   41.40 
  -3   8 -11   33.00   45.60 
  -3   8 -11    1.10   32.90 
   3  -8  11   16.10   29.00 
   3  -8  11   41.40   28.70 
   3  -8  11   -2.20   12.80 
   3  -8  11    0.10   21.70 
   3  -8  11    7.20    5.80 
  -3   7 -12  681.03   78.49 
   3  -7  12  642.14   84.19 
   3  -7  12  688.73   97.19 
   3  -7  12  690.63   80.89 
   3  -7  12  747.73   96.79 
   3  -7  12  673.33   91.29 
  -3   6 -13   32.30   27.40 
  -3   6 -13   82.49   42.20 
  -3   6 -13   28.40   31.90 
  -3   6 -13   14.90    3.30 
  -3   6 -13   21.60   32.80 
  -3   6 -13  -21.60   38.20 
  -3   6 -13   12.90   25.20 
   3  -6  13    7.50   21.90 
   3  -6  13    9.90   23.40 
   3  -6  13    7.60    7.30 
   3  -6  13    0.80   16.10 
  -3   5 -14   38.00   36.30 
  -3   5 -14  -23.30   26.40 
  -3   5 -14   68.99   40.40 
  -3   5 -14   28.80   25.20 
  -3   5 -14   42.10   25.50 
  -3   5 -14   69.39   32.50 
   3  -5  14   -4.20   22.10 
   3  -5  14   28.20   23.50 
   3  -5  14   21.00   16.90 
   3  -5  14   28.80   10.20 
  -3   4 -15  -10.40   26.30 
  -3   4 -15   31.70   37.80 
  -3   4 -15  -12.10   32.00 
  -3   4 -15   26.90   28.30 
  -3   4 -15   -9.50   21.40 
   3  -4  15   18.40    8.80 
   3  -4  15   23.90   20.50 
   3  -4  15   20.40   22.40 
   3  -4  15  -34.80   21.40 
   3  -4  15   -2.00   16.00 
  -3   3 -16   -3.80   31.80 
  -3   3 -16   22.80   36.00 
  -3   3 -16   36.20   23.50 
  -3   3 -16   -2.20   29.40 
   3  -3  16   14.60   20.80 
   3  -3  16   17.80   22.80 
   3  -3  16    8.00    7.60 
   3  -3  16   -3.90   19.80 
   3  -3  16   -8.10   23.30 
  -3   2 -17   -1.00   27.30 
  -3   2 -17   16.90   35.10 
  -3   2 -17  -21.70   27.30 
   3  -2  17   28.50   10.90 
   3  -2  17   28.80   26.00 
   3  -2  17   42.10   23.80 
   3  -2  17    1.60   25.20 
   3  -2  17   45.20   25.10 
  -3   1 -18   70.69   32.80 
  -3   1 -18   85.89   38.40 
   3  -1  18   45.50   31.90 
   3  -1  18  -14.00   30.20 
   3  -1  18  -38.70   32.90 
   3  -1  18   33.40   12.10 
  -2   9 -11   14.40   55.49 
  -2   9 -11   58.79   47.40 
  -2   9 -11  -18.10   36.90 
  -2   9 -11   60.69   57.89 
   2  -9  11   16.90   32.30 
   2  -9  11   33.40   28.10 
   2  -9  11   38.80    6.30 
   2  -9  11   32.80   17.40 
   2  -9  11   10.90   35.30 
  -2   8 -12  468.75   82.59 
  -2   8 -12  412.26   71.09 
   2  -8  12  232.38   56.89 
   2  -8  12  216.88   46.60 
   2  -8  12  221.78   38.50 
   2  -8  12  334.57   54.19 
  -2   7 -13  166.68   52.59 
  -2   7 -13  290.67   64.39 
  -2   7 -13  237.48   45.90 
  -2   7 -13  312.97   71.89 
  -2   7 -13  201.38   67.89 
  -2   7 -13  256.27   32.00 
  -2   6 -14  149.88   51.09 
  -2   6 -14  198.48   49.99 
   2  -6  14  194.38   35.70 
   2  -6  14  144.59   42.60 
   2  -6  14  247.78   42.90 
   2  -6  14  160.58   38.50 
  -2   5 -15  286.27   56.59 
  -2   5 -15  548.45   83.99 
  -2   5 -15  128.39   53.99 
   2  -5  15  331.27   52.49 
   2  -5  15  320.27   41.10 
   2  -5  15  260.17   48.00 
   2  -5  15  338.77   56.69 
   2  -5  15  358.66   59.49 
  -2   4 -16  483.05   74.79 
  -2   4 -16  229.78   52.09 
  -2   4 -16  239.28   50.19 
   2  -4  16  227.68   47.80 
   2  -4  16  260.87   36.30 
   2  -4  16  247.08   47.20 
   2  -4  16  222.28   43.60 
   2  -4  16  233.18   47.30 
  -2   3 -17  100.29   43.30 
  -2   3 -17    8.80   31.40 
  -2   3 -17  -19.50   34.60 
   2  -3  17   53.39   29.30 
   2  -3  17    0.80   22.10 
   2  -3  17   15.10   26.90 
   2  -3  17   -2.80   28.40 
   2  -3  17   -0.90    8.70 
  -2   2 -18   -1.90   23.80 
  -2   2 -18    7.20    8.20 
  -2   2 -18   11.70   32.60 
  -2   2 -18   -3.30   37.40 
  -2   2 -18   24.70   34.40 
   2  -2  18   -3.10   28.30 
   2  -2  18   20.80   26.10 
   2  -2  18    1.20   10.00 
   2  -2  18   42.00   30.90 
  -1   9 -12  622.14  112.59 
  -1   9 -12  579.84  109.29 
  -1   9 -12  564.44  101.99 
  -1   9 -12  535.75  102.19 
  -1   9 -12  591.54   93.69 
  -1   8 -13  123.29   20.00 
  -1   8 -13  156.58   66.59 
  -1   8 -13  173.38   62.49 
  -1   8 -13   76.99   48.00 
  -1   8 -13   66.09   51.89 
   1  -8  13   43.50   34.30 
   1  -8  13  103.99   35.30 
   1  -8  13   57.69   46.00 
  -1   7 -14   86.99   13.70 
  -1   7 -14   63.29   55.39 
  -1   7 -14   92.29   47.10 
   1  -7  14   59.29   22.90 
   1  -7  14   26.10   42.70 
   1  -7  14   12.20   30.60 
   1  -7  14   75.29   31.20 
  -1   6 -15   39.90   47.00 
  -1   6 -15   15.40   40.20 
  -1   6 -15   15.60   35.10 
  -1   6 -15  -52.79   42.50 
   1  -6  15    8.20   17.20 
   1  -6  15   69.69   36.30 
   1  -6  15   -2.10   29.90 
   1  -6  15   47.90   27.50 
  -1   5 -16   70.59   43.00 
  -1   5 -16   20.30   33.10 
  -1   5 -16   -1.40   36.90 
   1  -5  16  -16.70   33.60 
   1  -5  16   20.00    9.20 
   1  -5  16    6.20   29.20 
   1  -5  16  -26.20   27.30 
  -1   4 -17   53.59   41.60 
  -1   4 -17  238.38   61.79 
  -1   4 -17  144.39   48.80 
   1  -4  17   83.29   30.20 
   1  -4  17   87.19   34.40 
   1  -4  17   37.50   26.90 
   1  -4  17   53.59   34.80 
   1  -4  17   80.19   19.40 
  -1   3 -18   19.30   30.20 
  -1   3 -18   93.09   42.60 
  -1   3 -18   47.80   13.50 
  -1   3 -18   81.39   53.19 
  -1   3 -18   28.40   40.40 
   1  -3  18   82.59   34.40 
   1  -3  18    9.70   31.90 
   1  -3  18   52.19   14.00 
   1  -3  18   58.19   31.20 
   1  -3  18   77.99   39.50 
   0   8 -14   95.29   54.79 
   0   8 -14   11.20   65.09 
   0   8 -14  -13.20   37.00 
   0   8 -14   71.99   15.70 
   0   8 -14   97.99   47.40 
   0  -8  14  106.39   40.40 
   0  -8  14   35.30   43.10 
   0  -8  14   40.90   25.20 
   0   7 -15   26.00   58.39 
   0   7 -15   -1.80    7.20 
   0   7 -15   25.00   41.00 
   0   7 -15  -22.70   44.10 
   0   7 -15   26.00   46.60 
   0  -7  15   -4.80   27.90 
   0  -7  15   -2.10   22.30 
   0  -7  15   12.20   30.10 
   0  -7  15  -26.90   30.80 
   0   6 -16  676.13   96.09 
   0   6 -16  568.24   89.69 
   0  -6  16  373.46   75.49 
   0  -6  16  395.86   66.49 
   0  -6  16  315.37   62.39 
   0  -6  16  380.76   71.49 
   0   5 -17  -24.10   38.00 
   0   5 -17   28.60   38.30 
   0   5 -17   62.59   38.30 
   0   5 -17  -15.80   46.60 
   0  -5  17   19.00   23.30 
   0  -5  17  -33.10   32.40 
   0  -5  17   12.30   39.40 
  -8   6 -10  411.96   65.89 
  -8   6 -10  196.28   36.00 
  -8   6 -10  517.65   99.89 
  -8   6 -10  150.68   37.20 
   8  -6  10  221.48   32.10 
   8  -6  10  162.18   33.90 
   8  -6  10  281.87   40.00 
  -8   5 -11  200.38   41.30 
  -8   5 -11  214.08   49.60 
  -8   5 -11  368.16   63.89 
  -8   5 -11  311.77   41.90 
   8  -5  11  267.57   37.20 
   8  -5  11  352.06   44.50 
   8  -5  11  277.67   37.30 
   8  -5  11  202.18   38.40 
  -8   4 -12  422.66   62.49 
  -8   4 -12  224.38   53.79 
  -8   4 -12  204.48   40.70 
   8  -4  12  257.97   36.70 
   8  -4  12  328.57   44.20 
   8  -4  12  183.68   37.70 
   8  -4  12  318.57   39.60 
  -8   3 -13   -6.70   28.30 
  -8   3 -13    8.80   15.50 
  -8   3 -13   22.00   57.09 
   8  -3  13    5.50    8.80 
   8  -3  13  -17.20   20.10 
   8  -3  13    6.80   17.60 
   8  -3  13    6.40   10.50 
  -7   7 -10   26.00   23.50 
  -7   7 -10  -12.50   31.70 
  -7   7 -10   70.29   45.30 
   7  -7  10   24.50   21.70 
   7  -7  10   18.40   10.50 
   7  -7  10   29.50   10.90 
   7  -7  10   -3.60   24.00 
  -7   6 -11   -2.10   16.80 
  -7   6 -11   27.40   23.50 
  -7   6 -11   10.50   20.60 
  -7   6 -11   52.79   25.40 
  -7   6 -11  -10.20   57.09 
   7  -6  11    9.00   20.70 
   7  -6  11    3.50   18.50 
   7  -6  11    7.40    8.00 
   7  -6  11    3.10    9.00 
  -7   5 -12    9.10   22.40 
  -7   5 -12   -0.80   20.20 
  -7   5 -12   60.19   53.39 
  -7   5 -12    1.10   21.90 
  -7   5 -12   -6.10   16.80 
  -7   5 -12  -46.50   33.20 
   7  -5  12    9.50    9.00 
   7  -5  12    3.10    7.90 
   7  -5  12    4.40   18.50 
   7  -5  12   10.10   20.80 
  -7   4 -13   76.99   30.10 
  -7   4 -13  192.28   36.00 
  -7   4 -13  125.19   32.50 
  -7   4 -13  356.96   77.69 
  -7   4 -13  145.29   30.50 
   7  -4  13  178.18   26.80 
   7  -4  13  142.09   24.90 
   7  -4  13  116.99   30.40 
   7  -4  13  124.59   29.70 
  -7   3 -14  163.88   40.00 
  -7   3 -14  308.87   54.39 
   7  -3  14  162.98   37.60 
   7  -3  14  269.27   36.30 
   7  -3  14  207.88   40.20 
   7  -3  14  242.88   33.20 
  -7   2 -15  161.78   41.30 
  -7   2 -15  217.88   60.99 
  -7   2 -15  117.49   30.80 
   7  -2  15  149.99   34.70 
   7  -2  15  143.89   30.10 
   7  -2  15  133.59   28.10 
   7  -2  15  151.78   26.60 
  -6   8 -10  433.06   94.29 
  -6   8 -10  277.07   59.59 
  -6   8 -10  329.67   71.39 
   6  -8  10  206.78   34.70 
   6  -8  10  160.18   45.40 
   6  -8  10  317.17   33.80 
   6  -8  10  143.59   44.40 
  -6   7 -11    1.90   26.50 
  -6   7 -11   54.19   28.40 
  -6   7 -11  -16.40   53.79 
  -6   7 -11   -4.90   10.60 
  -6   7 -11  -23.70   31.70 
  -6   7 -11    3.00   40.00 
   6  -7  11   -6.60   24.40 
   6  -7  11   16.40    9.50 
   6  -7  11   11.10    7.50 
   6  -7  11  -15.50   21.70 
  -6   6 -12 1375.66  164.58 
  -6   6 -12 1239.78  154.18 
  -6   6 -12 1573.94  158.98 
   6  -6  12 1109.79  160.18 
   6  -6  12 1372.06  156.48 
   6  -6  12 1333.67  161.38 
   6  -6  12 1390.76  155.68 
  -6   5 -13   57.89   30.80 
  -6   5 -13   24.10   21.50 
  -6   5 -13   54.29   39.80 
  -6   5 -13   22.00   27.30 
  -6   5 -13    8.90   51.69 
   6  -5  13   20.00   10.30 
   6  -5  13   20.10   19.70 
   6  -5  13   21.30   11.30 
   6  -5  13   24.50   22.00 
  -6   4 -14  373.36   67.79 
  -6   4 -14  218.98   51.59 
  -6   4 -14  402.86   58.89 
  -6   4 -14  330.07   50.59 
   6  -4  14  372.96   46.60 
   6  -4  14  328.27   39.90 
   6  -4  14  309.07   50.79 
   6  -4  14  288.37   49.90 
   6  -4  14  334.27   44.30 
  -6   3 -15   19.80   20.10 
  -6   3 -15   22.20   27.60 
  -6   3 -15  -14.80   32.20 
  -6   3 -15  -53.49   41.90 
  -6   3 -15   54.69   29.70 
   6  -3  15   -4.10   22.70 
   6  -3  15  -21.30   22.00 
   6  -3  15   -1.40   11.00 
   6  -3  15   -4.10   12.60 
   6  -3  15    6.60   10.20 
   6  -3  15    2.10    7.80 
  -6   2 -16   52.49   32.40 
  -6   2 -16   19.60   20.00 
  -6   2 -16  101.99   53.29 
   6  -2  16   34.80   24.10 
   6  -2  16   39.80   16.00 
   6  -2  16   29.60   26.70 
   6  -2  16   28.50   22.60 
   6  -2  16   54.29   13.70 
  -5   8 -11  353.96   66.19 
  -5   8 -11  539.15   86.19 
  -5   8 -11  212.88   54.99 
  -5   8 -11  311.87   57.49 
  -5   8 -11  526.35   98.09 
   5  -8  11  274.27   48.90 
   5  -8  11  154.38   50.39 
   5  -8  11  281.57   34.30 
   5  -8  11  234.88   37.30 
  -5   7 -12   72.19   46.50 
  -5   7 -12    7.80   30.00 
  -5   7 -12   -8.20   51.99 
  -5   7 -12   18.50   42.70 
  -5   7 -12   13.10   22.10 
  -5   7 -12  -37.10   30.10 
   5  -7  12    5.70    7.90 
   5  -7  12    7.20   17.00 
   5  -7  12    5.00    7.50 
   5  -7  12   22.00   22.40 
   5  -7  12   36.10   26.80 
   5  -7  12   29.90   27.80 
  -5   6 -13   56.29   34.10 
  -5   6 -13   31.20   30.80 
  -5   6 -13   13.60   25.10 
  -5   6 -13   19.60   43.00 
  -5   6 -13    8.40   27.90 
  -5   6 -13  -11.70   48.20 
   5  -6  13   20.60   22.40 
   5  -6  13   33.50   10.60 
   5  -6  13   31.70   24.20 
   5  -6  13   21.30   10.40 
   5  -6  13   26.10   24.20 
   5  -6  13    9.30   16.90 
  -5   5 -14   -2.70   30.10 
  -5   5 -14  -20.70   23.70 
  -5   5 -14  -29.00   19.90 
  -5   5 -14  -40.40   35.70 
  -5   5 -14   29.80   47.10 
   5  -5  14    6.60   24.10 
   5  -5  14    4.50    9.20 
   5  -5  14   -9.40    7.20 
   5  -5  14  -55.29   23.10 
   5  -5  14    4.10   21.20 
   5  -5  14    3.90   16.40 
  -5   4 -15  203.68   41.10 
  -5   4 -15  247.98   48.30 
  -5   4 -15  314.07   61.29 
  -5   4 -15  388.86   80.69 
  -5   4 -15  151.78   42.50 
   5  -4  15  171.58   41.90 
   5  -4  15  212.68   38.80 
   5  -4  15  234.08   42.70 
   5  -4  15  233.68   32.80 
   5  -4  15  213.18   33.50 
  -5   3 -16  294.77   68.89 
  -5   3 -16  108.49   39.20 
  -5   3 -16  141.29   34.60 
  -5   3 -16  196.78   48.20 
   5  -3  16  136.69   37.20 
   5  -3  16  171.28   28.40 
   5  -3  16  174.58   38.40 
   5  -3  16  156.78   31.00 
   5  -3  16  157.08   25.90 
  -4   8 -12  413.36   90.59 
  -4   8 -12  377.96   65.49 
  -4   8 -12  435.06   72.19 
  -4   8 -12  429.66   69.89 
   4  -8  12  170.28   53.69 
   4  -8  12  262.97   34.10 
   4  -8  12  224.98   49.90 
   4  -8  12  234.08   36.80 
  -4   7 -13   95.79   49.60 
  -4   7 -13  373.96   73.19 
  -4   7 -13  241.88   39.20 
  -4   7 -13  238.18   47.50 
   4  -7  13  125.59   22.50 
   4  -7  13  138.69   36.10 
   4  -7  13  146.89   32.90 
   4  -7  13  117.69   40.20 
   4  -7  13  131.19   24.80 
  -4   6 -14  408.66   55.59 
  -4   6 -14  210.48   58.09 
   4  -6  14  300.77   40.20 
   4  -6  14  238.48   51.29 
   4  -6  14  309.57   50.79 
   4  -6  14  304.77   40.20 
   4  -6  14  233.78   45.40 
  -4   5 -15  157.38   44.80 
  -4   5 -15  338.97   74.49 
  -4   5 -15  305.77   71.39 
  -4   5 -15  258.77   48.00 
   4  -5  15  159.08   36.00 
   4  -5  15  203.38   30.20 
   4  -5  15  191.58   40.20 
   4  -5  15  155.58   41.30 
  -4   4 -16   78.59   36.60 
  -4   4 -16  130.79   35.20 
  -4   4 -16  207.68   55.79 
  -4   4 -16  235.08   63.29 
  -4   4 -16  100.39   39.80 
   4  -4  16  124.69   36.50 
   4  -4  16  141.59   24.40 
   4  -4  16   94.89   35.30 
  -4   3 -17   -6.30   21.60 
  -4   3 -17  -21.00   34.10 
  -4   3 -17   -4.70   30.10 
  -4   3 -17   11.90   44.10 
   4  -3  17   25.10   22.80 
   4  -3  17    9.50   11.40 
   4  -3  17  -28.20   24.40 
   4  -3  17   -2.10   33.40 
  -3   8 -13   -1.70   50.79 
  -3   8 -13   32.20   51.59 
  -3   8 -13   30.70   53.19 
  -3   8 -13   38.20   40.60 
   3  -8  13   -2.20   18.00 
   3  -8  13  -47.40   23.70 
   3  -8  13    7.00    7.00 
   3  -8  13    1.70   35.40 
  -3   7 -14  291.07   48.60 
  -3   7 -14  204.78   71.99 
  -3   7 -14  426.26   86.29 
  -3   7 -14  439.16   95.29 
  -3   7 -14  323.87   60.09 
   3  -7  14  172.28   29.30 
   3  -7  14  141.99   33.40 
   3  -7  14  149.99   39.60 
   3  -7  14  202.78   49.20 
  -3   6 -15  -10.90   29.00 
  -3   6 -15  -17.80   39.30 
   3  -6  15   16.30   19.40 
   3  -6  15    7.20    8.30 
   3  -6  15   -8.80   23.30 
   3  -6  15   36.50   32.20 
  -3   5 -16  135.19   40.80 
  -3   5 -16   94.49   43.40 
  -3   5 -16  359.46   83.79 
   3  -5  16  191.18   45.40 
   3  -5  16  133.99   35.00 
   3  -5  16  179.88   25.70 
   3  -5  16  134.29   41.10 
   3  -5  16   92.09   30.30 
  -3   4 -17   22.30   36.00 
  -3   4 -17   38.80   41.00 
  -3   4 -17   38.50   27.80 
   3  -4  17  -25.60   29.50 
   3  -4  17   -2.10   27.80 
   3  -4  17   15.50   23.60 
   3  -4  17   46.40   30.30 
  -2   7 -15  207.48   63.99 
  -2   7 -15  306.97   74.39 
  -2   7 -15  179.98   53.79 
   2  -7  15   74.59   31.30 
   2  -7  15  106.09   38.90 
  -2   6 -16   67.69   42.40 
  -2   6 -16  117.39   51.19 
  -2   6 -16  117.89   53.99 
  -2   6 -16  148.69   59.99 
   2  -6  16   54.69   26.80 
   2  -6  16   56.99   32.00 
   2  -6  16   70.29   17.60 
   2  -6  16   92.89   38.10 
   0   0   0    0.00    0.00 
  
_computing_structure_solution     'SHELXT 2018/2 (Sheldrick, 2018)' 
;
_shelx_hkl_checksum              20832
loop_
_space_group_symop_operation_xyz
'x, y, z'
'-x, -y, z'
'-y, x, z'
'y, -x, z'
'-x, y, -z+1/2'
'x, -y, -z+1/2'
'y, x, -z+1/2'
'-y, -x, -z+1/2'
'x+1/2, y+1/2, z+1/2'
'-x+1/2, -y+1/2, z+1/2'
'-y+1/2, x+1/2, z+1/2'
'y+1/2, -x+1/2, z+1/2'
'-x+1/2, y+1/2, -z+1'
'x+1/2, -y+1/2, -z+1'
'y+1/2, x+1/2, -z+1'
'-y+1/2, -x+1/2, -z+1'
'-x, -y, -z'
'x, y, -z'
'y, -x, -z'
'-y, x, -z'
'x, -y, z-1/2'
'-x, y, z-1/2'
'-y, -x, z-1/2'
'y, x, z-1/2'
'-x+1/2, -y+1/2, -z+1/2'
'x+1/2, y+1/2, -z+1/2'
'y+1/2, -x+1/2, -z+1/2'
'-y+1/2, x+1/2, -z+1/2'
'x+1/2, -y+1/2, z'
'-x+1/2, y+1/2, z'
'-y+1/2, -x+1/2, z'
'y+1/2, x+1/2, z'
loop_
_atom_site_label
_atom_site_type_symbol
_atom_site_fract_x
_atom_site_fract_y
_atom_site_fract_z
_atom_site_U_iso_or_equiv
_atom_site_adp_type
_atom_site_occupancy
_atom_site_site_symmetry_order
_atom_site_calc_flag
_atom_site_refinement_flags_posn
_atom_site_refinement_flags_adp
_atom_site_refinement_flags_occupancy
_atom_site_disorder_assembly
_atom_site_disorder_group
Cs1 Cs 0.16272(4) 0.33728(4) 0.500000 0.0271(3) Uani 1 4 d S T P . .
Cs2 Cs 0.500000 0.500000 0.750000 0.0407(4) Uani 1 8 d S T P . .
Br1 Br 0.500000 0.500000 0.500000 0.0323(4) Uani 1 8 d S T P . .
Mn1 Mn 0.500000 0.000000 0.750000 0.0233(5) Uani 1 8 d S T P . .
Cl1 Cl 0.35577(11) 0.14423(11) 0.65523(11) 0.0389(4) Uani 0.75 2 d S T P . .
Br2 Br 0.35577(11) 0.14423(11) 0.65523(11) 0.0389(4) Uani 0.25 2 d S T P . .
loop_
_atom_site_aniso_label
_atom_site_aniso_U_11
_atom_site_aniso_U_22
_atom_site_aniso_U_33
_atom_site_aniso_U_23
_atom_site_aniso_U_13
_atom_site_aniso_U_12
Cs1 0.0191(3) 0.0191(3) 0.0433(4) 0.000 0.000 0.0007(2)
Cs2 0.0413(4) 0.0413(4) 0.0394(6) 0.000 0.000 0.000
Br1 0.0224(5) 0.0224(5) 0.0519(9) 0.000 0.000 0.000
Mn1 0.0233(7) 0.0233(7) 0.0234(9) 0.000 0.000 0.000
Cl1 0.0373(5) 0.0373(5) 0.0422(8) 0.0094(4) -0.0094(4) 0.0118(6)
Br2 0.0373(5) 0.0373(5) 0.0422(8) 0.0094(4) -0.0094(4) 0.0118(6)
loop_
_atom_type_symbol
_atom_type_description
_atom_type_scat_dispersion_real
_atom_type_scat_dispersion_imag
_atom_type_scat_source
Br Br -0.2901 2.4595 'International Tables Vol C Tables 4.2.6.8 and 6.1.1.4'
Cl Cl 0.1484 0.1585 'International Tables Vol C Tables 4.2.6.8 and 6.1.1.4'
Cs Cs -0.3680 2.1192 'International Tables Vol C Tables 4.2.6.8 and 6.1.1.4'
Mn Mn 0.3368 0.7283 'International Tables Vol C Tables 4.2.6.8 and 6.1.1.4'
loop_
_geom_angle_atom_site_label_1
_geom_angle_atom_site_label_2
_geom_angle_atom_site_label_3
_geom_angle
_geom_angle_site_symmetry_1
_geom_angle_site_symmetry_3
_geom_angle_publ_flag
Cl1 Cs1 Cl1 84.03(6) . 18_556 ?
Cl1 Cs1 Br1 75.825(10) . . ?
Cl1 Cs1 Br1 75.825(10) 18_556 . ?
Cl1 Cs1 Br1 75.825(10) . 13_545 ?
Cl1 Cs1 Br1 75.825(10) 18_556 13_545 ?
Br1 Cs1 Br1 141.510(17) . 13_545 ?
Cl1 Cs1 Cl1 148.461(18) . 20_556 ?
Cl1 Cs1 Cl1 90.92(4) 18_556 20_556 ?
Br1 Cs1 Cl1 132.97(2) . 20_556 ?
Br1 Cs1 Cl1 72.758(18) 13_545 20_556 ?
Cl1 Cs1 Cl1 90.92(4) . 4_565 ?
Cl1 Cs1 Cl1 148.461(18) 18_556 4_565 ?
Br1 Cs1 Cl1 72.758(18) . 4_565 ?
Br1 Cs1 Cl1 132.97(2) 13_545 4_565 ?
Cl1 Cs1 Cl1 108.48(3) 20_556 4_565 ?
Cl1 Cs1 Cl1 148.461(18) . 19_566 ?
Cl1 Cs1 Cl1 90.92(4) 18_556 19_566 ?
Br1 Cs1 Cl1 72.758(18) . 19_566 ?
Br1 Cs1 Cl1 132.97(2) 13_545 19_566 ?
Cl1 Cs1 Cl1 62.39(4) 20_556 19_566 ?
Cl1 Cs1 Cl1 77.31(4) 4_565 19_566 ?
Cl1 Cs1 Cl1 90.92(4) . 3 ?
Cl1 Cs1 Cl1 148.461(18) 18_556 3 ?
Br1 Cs1 Cl1 132.97(2) . 3 ?
Br1 Cs1 Cl1 72.758(18) 13_545 3 ?
Cl1 Cs1 Cl1 77.31(4) 20_556 3 ?
Cl1 Cs1 Cl1 62.39(4) 4_565 3 ?
Cl1 Cs1 Cl1 108.48(3) 19_566 3 ?
Cl1 Cs1 Mn1 78.14(3) . 25_556 ?
Cl1 Cs1 Mn1 162.17(3) 18_556 25_556 ?
Br1 Cs1 Mn1 99.530(3) . 25_556 ?
Br1 Cs1 Mn1 99.530(3) 13_545 25_556 ?
Cl1 Cs1 Mn1 104.27(3) 20_556 25_556 ?
Cl1 Cs1 Mn1 33.52(2) 4_565 25_556 ?
Cl1 Cs1 Mn1 104.27(3) 19_566 25_556 ?
Cl1 Cs1 Mn1 33.52(2) 3 25_556 ?
Cl1 Cs1 Mn1 162.17(3) . 9_454 ?
Cl1 Cs1 Mn1 78.14(3) 18_556 9_454 ?
Br1 Cs1 Mn1 99.530(3) . 9_454 ?
Br1 Cs1 Mn1 99.530(3) 13_545 9_454 ?
Cl1 Cs1 Mn1 33.52(2) 20_556 9_454 ?
Cl1 Cs1 Mn1 104.27(3) 4_565 9_454 ?
Cl1 Cs1 Mn1 33.52(2) 19_566 9_454 ?
Cl1 Cs1 Mn1 104.27(3) 3 9_454 ?
Mn1 Cs1 Mn1 119.693(19) 25_556 9_454 ?
Cl1 Cs1 Cs1 137.98(3) . 17_566 ?
Cl1 Cs1 Cs1 137.98(3) 18_556 17_566 ?
Br1 Cs1 Cs1 109.245(9) . 17_566 ?
Br1 Cs1 Cs1 109.245(9) 13_545 17_566 ?
Cl1 Cs1 Cs1 54.240(17) 20_556 17_566 ?
Cl1 Cs1 Cs1 54.240(17) 4_565 17_566 ?
Cl1 Cs1 Cs1 54.240(17) 19_566 17_566 ?
Cl1 Cs1 Cs1 54.240(17) 3 17_566 ?
Mn1 Cs1 Cs1 59.846(10) 25_556 17_566 ?
Mn1 Cs1 Cs1 59.846(10) 9_454 17_566 ?
Br1 Cs2 Br1 180.0 5_656 . ?
Br1 Cs2 Cl1 68.64(2) 5_656 26_556 ?
Br1 Cs2 Cl1 111.36(2) . 26_556 ?
Br1 Cs2 Cl1 68.64(2) 5_656 28_556 ?
Br1 Cs2 Cl1 111.36(2) . 28_556 ?
Cl1 Cs2 Cl1 82.375(15) 26_556 28_556 ?
Br1 Cs2 Cl1 111.36(2) 5_656 4_565 ?
Br1 Cs2 Cl1 68.64(2) . 4_565 ?
Cl1 Cs2 Cl1 139.04(4) 26_556 4_565 ?
Cl1 Cs2 Cl1 61.88(4) 28_556 4_565 ?
Br1 Cs2 Cl1 111.36(2) 5_656 2_665 ?
Br1 Cs2 Cl1 68.64(2) . 2_665 ?
Cl1 Cs2 Cl1 61.88(4) 26_556 2_665 ?
Cl1 Cs2 Cl1 60.67(4) 28_556 2_665 ?
Cl1 Cs2 Cl1 82.375(15) 4_565 2_665 ?
Br1 Cs2 Cl1 68.64(2) 5_656 25_556 ?
Br1 Cs2 Cl1 111.36(2) . 25_556 ?
Cl1 Cs2 Cl1 137.28(4) 26_556 25_556 ?
Cl1 Cs2 Cl1 82.375(15) 28_556 25_556 ?
Cl1 Cs2 Cl1 60.67(4) 4_565 25_556 ?
Cl1 Cs2 Cl1 137.45(4) 2_665 25_556 ?
Br1 Cs2 Cl1 68.64(2) 5_656 27_556 ?
Br1 Cs2 Cl1 111.36(2) . 27_556 ?
Cl1 Cs2 Cl1 82.375(15) 26_556 27_556 ?
Cl1 Cs2 Cl1 137.28(4) 28_556 27_556 ?
Cl1 Cs2 Cl1 137.45(4) 4_565 27_556 ?
Cl1 Cs2 Cl1 139.04(4) 2_665 27_556 ?
Cl1 Cs2 Cl1 82.375(15) 25_556 27_556 ?
Br1 Cs2 Cl1 111.36(2) 5_656 3_655 ?
Br1 Cs2 Cl1 68.64(2) . 3_655 ?
Cl1 Cs2 Cl1 60.67(4) 26_556 3_655 ?
Cl1 Cs2 Cl1 137.45(4) 28_556 3_655 ?
Cl1 Cs2 Cl1 137.28(4) 4_565 3_655 ?
Cl1 Cs2 Cl1 82.375(15) 2_665 3_655 ?
Cl1 Cs2 Cl1 139.04(4) 25_556 3_655 ?
Cl1 Cs2 Cl1 61.88(4) 27_556 3_655 ?
Br1 Cs2 Cl1 111.36(2) 5_656 . ?
Br1 Cs2 Cl1 68.64(2) . . ?
Cl1 Cs2 Cl1 137.45(4) 26_556 . ?
Cl1 Cs2 Cl1 139.04(4) 28_556 . ?
Cl1 Cs2 Cl1 82.375(15) 4_565 . ?
Cl1 Cs2 Cl1 137.28(4) 2_665 . ?
Cl1 Cs2 Cl1 61.88(4) 25_556 . ?
Cl1 Cs2 Cl1 60.67(4) 27_556 . ?
Cl1 Cs2 Cl1 82.375(15) 3_655 . ?
Br1 Cs2 Cs1 136.609(8) 5_656 . ?
Br1 Cs2 Cs1 43.391(9) . . ?
Cl1 Cs2 Cs1 154.58(2) 26_556 . ?
Cl1 Cs2 Cs1 107.81(2) 28_556 . ?
Cl1 Cs2 Cs1 46.03(2) 4_565 . ?
Cl1 Cs2 Cs1 102.09(2) 2_665 . ?
Cl1 Cs2 Cs1 68.05(3) 25_556 . ?
Cl1 Cs2 Cs1 102.92(2) 27_556 . ?
Cl1 Cs2 Cs1 99.49(2) 3_655 . ?
Cl1 Cs2 Cs1 42.37(2) . . ?
Cs1 Br1 Cs1 180.0 . 17_666 ?
Cs1 Br1 Cs1 90.0 . 19_566 ?
Cs1 Br1 Cs1 90.0 17_666 19_566 ?
Cs1 Br1 Cs1 90.0 . 3_655 ?
Cs1 Br1 Cs1 90.0 17_666 3_655 ?
Cs1 Br1 Cs1 180.0 19_566 3_655 ?
Cs1 Br1 Cs2 90.0 . 17_666 ?
Cs1 Br1 Cs2 90.0 17_666 17_666 ?
Cs1 Br1 Cs2 90.0 19_566 17_666 ?
Cs1 Br1 Cs2 90.0 3_655 17_666 ?
Cs1 Br1 Cs2 90.0 . . ?
Cs1 Br1 Cs2 90.0 17_666 . ?
Cs1 Br1 Cs2 90.0 19_566 . ?
Cs1 Br1 Cs2 90.0 3_655 . ?
Cs2 Br1 Cs2 180.0 17_666 . ?
Cl1 Mn1 Cl1 110.58(4) 27_556 2_655 ?
Cl1 Mn1 Cl1 107.28(8) 27_556 28_546 ?
Cl1 Mn1 Cl1 110.58(4) 2_655 28_546 ?
Cl1 Mn1 Cl1 110.58(4) 27_556 . ?
Cl1 Mn1 Cl1 107.28(8) 2_655 . ?
Cl1 Mn1 Cl1 110.58(4) 28_546 . ?
Cl1 Mn1 Cs1 156.51(4) 27_556 19_556 ?
Cl1 Mn1 Cs1 59.16(3) 2_655 19_556 ?
Cl1 Mn1 Cs1 96.21(4) 28_546 19_556 ?
Cl1 Mn1 Cs1 59.16(3) . 19_556 ?
Cl1 Mn1 Cs1 59.16(3) 27_556 25_556 ?
Cl1 Mn1 Cs1 156.51(4) 2_655 25_556 ?
Cl1 Mn1 Cs1 59.16(3) 28_546 25_556 ?
Cl1 Mn1 Cs1 96.21(4) . 25_556 ?
Cs1 Mn1 Cs1 138.390(13) 19_556 25_556 ?
Cl1 Mn1 Cs1 59.16(3) 27_556 9_545 ?
Cl1 Mn1 Cs1 96.21(4) 2_655 9_545 ?
Cl1 Mn1 Cs1 59.16(3) 28_546 9_545 ?
Cl1 Mn1 Cs1 156.51(4) . 9_545 ?
Cs1 Mn1 Cs1 138.390(13) 19_556 9_545 ?
Cs1 Mn1 Cs1 60.307(19) 25_556 9_545 ?
Cl1 Mn1 Cs1 96.21(4) 27_556 3_655 ?
Cl1 Mn1 Cs1 59.16(3) 2_655 3_655 ?
Cl1 Mn1 Cs1 156.51(4) 28_546 3_655 ?
Cl1 Mn1 Cs1 59.16(3) . 3_655 ?
Cs1 Mn1 Cs1 60.31(2) 19_556 3_655 ?
Cs1 Mn1 Cs1 138.390(13) 25_556 3_655 ?
Cs1 Mn1 Cs1 138.390(13) 9_545 3_655 ?
Mn1 Cl1 Cs1 174.34(7) . . ?
Mn1 Cl1 Cs1 87.32(4) . 19_556 ?
Cs1 Cl1 Cs1 88.09(3) . 19_556 ?
Mn1 Cl1 Cs1 87.32(4) . 3_655 ?
Cs1 Cl1 Cs1 88.09(3) . 3_655 ?
Cs1 Cl1 Cs1 71.52(4) 19_556 3_655 ?
Mn1 Cl1 Cs2 94.37(3) . . ?
Cs1 Cl1 Cs2 88.52(2) . . ?
Cs1 Cl1 Cs2 156.45(4) 19_556 . ?
Cs1 Cl1 Cs2 85.082(13) 3_655 . ?
Mn1 Cl1 Cs2 94.37(3) . 25_556 ?
Cs1 Cl1 Cs2 88.52(2) . 25_556 ?
Cs1 Cl1 Cs2 85.082(13) 19_556 25_556 ?
Cs1 Cl1 Cs2 156.45(4) 3_655 25_556 ?
Cs2 Cl1 Cs2 118.12(4) . 25_556 ?
loop_
_geom_bond_atom_site_label_1
_geom_bond_atom_site_label_2
_geom_bond_distance
_geom_bond_site_symmetry_2
_geom_bond_publ_flag
Cs1 Cl1 3.4785(15) . ?
Cs1 Cl1 3.4786(15) 18_556 ?
Cs1 Br1 3.5448(5) . ?
Cs1 Br1 3.5448(5) 13_545 ?
Cs1 Cl1 3.7275(15) 20_556 ?
Cs1 Cl1 3.7275(15) 4_565 ?
Cs1 Cl1 3.7275(15) 19_566 ?
Cs1 Cl1 3.7275(15) 3 ?
Cs1 Mn1 4.3366(9) 25_556 ?
Cs1 Mn1 4.3366(9) 9_454 ?
Cs1 Cs1 4.3567(12) 17_566 ?
Cs2 Br1 3.7498(10) 5_656 ?
Cs2 Br1 3.7497(10) . ?
Cs2 Cl1 3.9020(10) 26_556 ?
Cs2 Cl1 3.9020(10) 28_556 ?
Cs2 Cl1 3.9020(10) 4_565 ?
Cs2 Cl1 3.9020(10) 2_665 ?
Cs2 Cl1 3.9020(10) 25_556 ?
Cs2 Cl1 3.9020(10) 27_556 ?
Cs2 Cl1 3.9020(10) 3_655 ?
Cs2 Cl1 3.9020(10) . ?
Mn1 Cl1 2.3975(14) 27_556 ?
Mn1 Cl1 2.3975(13) 2_655 ?
Mn1 Cl1 2.3975(14) 28_546 ?
Mn1 Cl1 2.3975(13) . ?
