#------------------------------------------------------------------------------
#$Date: 2021-07-25 01:20:33 +0300 (Sun, 25 Jul 2021) $
#$Revision: 267735 $
#$URL: file:///home/coder/svn-repositories/cod/cif/4/51/89/4518918.cif $
#------------------------------------------------------------------------------
#
# This file is available in the Crystallography Open Database (COD),
# http://www.crystallography.net/
#
# All data on this site have been placed in the public domain by the
# contributors.
#
data_4518918
loop_
_publ_author_name
'Doma\'nski, Mateusz A.'
'Kraszewski, Karol'
'Paluch, Piotr'
'Gu\'nka, Piotr A.'
_publ_section_title
;
 Arsenic(III)-oxide Intercalates with Potassium Chloride: Water-Induced
 Varieties and New Synthesis Methods
;
_journal_name_full               'Crystal Growth &amp; Design'
_journal_paper_doi               10.1021/acs.cgd.1c00555
_journal_year                    2021
_chemical_formula_moiety         'As4 O6, 1(K), 1(Cl)'
_chemical_formula_sum            'As4 Cl K O6'
_chemical_formula_weight         470.23
_space_group_crystal_system      hexagonal
_space_group_IT_number           191
_space_group_name_Hall           '-P 6 2'
_space_group_name_H-M_alt        'P 6/m m m'
_atom_sites_solution_primary     dual
_audit_creation_date             2021-01-12
_audit_creation_method
;
Olex2 1.3
(compiled 2020.11.12 svn.r5f609507 for OlexSys, GUI svn.r6226)
;
_cell_angle_alpha                90
_cell_angle_beta                 90
_cell_angle_gamma                120
_cell_formula_units_Z            1
_cell_length_a                   5.2255(2)
_cell_length_b                   5.2255(2)
_cell_length_c                   8.8479(6)
_cell_measurement_reflns_used    1621
_cell_measurement_temperature    293(2)
_cell_measurement_theta_max      32.5340
_cell_measurement_theta_min      4.4670
_cell_volume                     209.231(18)
_computing_cell_refinement       'CrysAlisPro 1.171.40.84a (Rigaku OD, 2020)'
_computing_data_collection       'CrysAlisPro 1.171.40.84a (Rigaku OD, 2020)'
_computing_data_reduction        'CrysAlisPro 1.171.40.84a (Rigaku OD, 2020)'
_computing_molecular_graphics    'Olex2 1.3 (Dolomanov et al., 2009)'
_computing_publication_material  'Olex2 1.3 (Dolomanov et al., 2009)'
_computing_structure_refinement  'SHELXL 2018/3 (Sheldrick, 2015)'
_computing_structure_solution    'SHELXT 2018/2 (Sheldrick, 2018)'
_diffrn_ambient_temperature      293(2)
_diffrn_detector                 'CCD plate'
_diffrn_detector_area_resol_mean 10.3347
_diffrn_detector_type            Atlas
_diffrn_measured_fraction_theta_full 0.991
_diffrn_measured_fraction_theta_max 0.993
_diffrn_measurement_details
;
List of Runs (angles in degrees, time in seconds):

  # Type    Start    End  Width  t~exp~   \w     \q     \k     \f   Frames
--------------------------------------------------------------------------
  1  \w    -53.00  59.00   1.00    9.00    --  -19.65  77.00-180.00  112
  2  \w    -98.00  14.00   1.00    9.00    --  -19.65 -77.00-180.00  112
  3  \w    -96.00   7.00   1.00    9.00    --  -19.65 -38.00  30.00  103
  4  \w     -6.00  96.00   1.00    9.00    --   19.96  38.00 -30.00  102
  5  \w     53.00 109.00   1.00    9.00    --   19.96-179.00-180.00   56
  6  \w     -4.00  21.00   1.00    9.00    --   19.96 -99.00 -60.00   25
  7  \w     53.00 109.00   1.00    9.00    --   19.96-179.00  90.00   56
;
_diffrn_measurement_device       'four-circle diffractometer'
_diffrn_measurement_device_type  'Xcalibur, Atlas, Gemini ultra'
_diffrn_measurement_method       '\w scans'
_diffrn_orient_matrix_type
'CrysAlisPro convention (1999,Acta A55,543-557)'
_diffrn_orient_matrix_UB_11      -0.0495943000
_diffrn_orient_matrix_UB_12      -0.0231838000
_diffrn_orient_matrix_UB_13      0.0760876000
_diffrn_orient_matrix_UB_21      -0.0311089000
_diffrn_orient_matrix_UB_22      -0.1483005000
_diffrn_orient_matrix_UB_23      -0.0044376000
_diffrn_orient_matrix_UB_31      0.1453548000
_diffrn_orient_matrix_UB_32      0.0446444000
_diffrn_orient_matrix_UB_33      0.0250079000
_diffrn_radiation_monochromator  graphite
_diffrn_radiation_probe          x-ray
_diffrn_radiation_type           'Mo K\a'
_diffrn_radiation_wavelength     0.71073
_diffrn_reflns_av_R_equivalents  0.0359
_diffrn_reflns_av_unetI/netI     0.0114
_diffrn_reflns_Laue_measured_fraction_full 0.991
_diffrn_reflns_Laue_measured_fraction_max 0.993
_diffrn_reflns_limit_h_max       6
_diffrn_reflns_limit_h_min       -6
_diffrn_reflns_limit_k_max       6
_diffrn_reflns_limit_k_min       -6
_diffrn_reflns_limit_l_max       11
_diffrn_reflns_limit_l_min       -11
_diffrn_reflns_number            2839
_diffrn_reflns_point_group_measured_fraction_full 0.991
_diffrn_reflns_point_group_measured_fraction_max 0.993
_diffrn_reflns_theta_full        25.242
_diffrn_reflns_theta_max         27.484
_diffrn_reflns_theta_min         4.504
_diffrn_source                   'fine-focus sealed X-ray tube'
_diffrn_source_type              'Enhance (Mo) X-ray Source'
_exptl_absorpt_coefficient_mu    16.634
_exptl_absorpt_correction_T_max  0.453
_exptl_absorpt_correction_T_min  0.096
_exptl_absorpt_correction_type   analytical
_exptl_absorpt_process_details
;
CrysAlisPro 1.171.40.84a (Rigaku Oxford Diffraction, 2020)
Analytical numeric absorption correction using a multifaceted crystal
model based on expressions derived by R.C. Clark & J.S. Reid.
(Clark, R. C. & Reid, J. S. (1995). Acta Cryst. A51, 887-897)
Empirical absorption correction using spherical harmonics,
implemented in SCALE3 ABSPACK scaling algorithm.
;
_exptl_crystal_colour            colourless
_exptl_crystal_colour_primary    colourless
_exptl_crystal_density_diffrn    3.732
_exptl_crystal_description       plate
_exptl_crystal_F_000             216
_exptl_crystal_size_max          0.235
_exptl_crystal_size_mid          0.138
_exptl_crystal_size_min          0.048
_refine_diff_density_max         0.288
_refine_diff_density_min         -0.750
_refine_diff_density_rms         0.098
_refine_ls_extinction_method     none
_refine_ls_goodness_of_fit_ref   1.347
_refine_ls_hydrogen_treatment    undef
_refine_ls_matrix_type           full
_refine_ls_number_parameters     12
_refine_ls_number_reflns         133
_refine_ls_number_restraints     0
_refine_ls_restrained_S_all      1.347
_refine_ls_R_factor_all          0.0173
_refine_ls_R_factor_gt           0.0169
_refine_ls_shift/su_max          0.000
_refine_ls_shift/su_mean         0.000
_refine_ls_structure_factor_coef Fsqd
_refine_ls_weighting_details
'w=1/[\s^2^(Fo^2^)+(0.0165P)^2^+0.5087P] where P=(Fo^2^+2Fc^2^)/3'
_refine_ls_weighting_scheme      calc
_refine_ls_wR_factor_gt          0.0455
_refine_ls_wR_factor_ref         0.0456
_reflns_Friedel_coverage         0.000
_reflns_number_gt                131
_reflns_number_total             133
_reflns_threshold_expression     'I > 2\s(I)'
_cod_data_source_file            cg1c00555_si_002.cif
_cod_data_source_block           mdo2pg_intercalateP_KCl
_cod_original_cell_volume        209.23(2)
_cod_database_code               4518918
_shelx_shelxl_version_number     2018/3
_chemical_oxdiff_formula         'As4 O6 K1 Cl1'
_shelx_space_group_comment
;
The symmetry employed for this shelxl refinement is uniquely defined
by the following loop, which should always be used as a source of
symmetry information in preference to the above space-group names.
They are only intended as comments.
;
_reflns_odcompleteness_completeness 99.42
_reflns_odcompleteness_iscentric 1
_reflns_odcompleteness_theta     30.44
_olex2_refinement_description
;
;
_shelx_res_file
;
TITL mdo2pg_a.res in P6/mmm
    mdo2pg.res
    created by SHELXL-2018/3 at 11:37:29 on 12-Jan-2021
REM Old TITL mdo2pg in P6/mmm
REM SHELXT solution in P6/mmm: R1 0.063, Rweak 0.006, Alpha 0.026
REM <I/s> 0.000 for 0 systematic absences, Orientation as input
REM Formula found by SHELXT: O3 Cl As2
CELL 0.71073 5.2255 5.2255 8.8479 90 90 120
ZERR 1 0.0002 0.0002 0.0006 0 0 0
LATT 1
SYMM -Y,+X-Y,+Z
SYMM +Y-X,-X,+Z
SYMM -X,-Y,+Z
SYMM +Y,-X+Y,+Z
SYMM -Y+X,+X,+Z
SYMM +Y,+X,-Z
SYMM -Y+X,-Y,-Z
SYMM -X,-X+Y,-Z
SYMM -Y,-X,-Z
SYMM +Y-X,+Y,-Z
SYMM +X,+X-Y,-Z
SFAC O Cl K As
UNIT 6 1 1 4

L.S. 10
PLAN  5
CONF
CONN 0 $K
list 4
MORE -1
fmap 2
ACTA
OMIT -2 55
REM <olex2.extras>
REM <HklSrc "%.\\mdo2pg.hkl">
REM </olex2.extras>

WGHT    0.016500    0.508700
FVAR       0.85400
AS1   4    0.333333    0.666667    0.295279    10.16667    0.01241    0.01241 =
         0.02479    0.00000    0.00000    0.00620
K1    3    0.000000    0.000000    0.000000    10.04167    0.03660    0.03660 =
         0.03509    0.00000    0.00000    0.01830
CL1   2    0.000000    1.000000    0.500000    10.04167    0.02667    0.02667 =
         0.08451    0.00000    0.00000    0.01334
O1    1    0.500000    0.500000    0.186141    10.25000    0.02146    0.02146 =
         0.02995    0.00000    0.00000    0.01746
HKLF 4




REM  mdo2pg_a.res in P6/mmm
REM wR2 = 0.0456, GooF = S = 1.347, Restrained GooF = 1.347 for all data
REM R1 = 0.0169 for 131 Fo > 4sig(Fo) and 0.0173 for all 133 data
REM 12 parameters refined using 0 restraints

END

WGHT      0.0165      0.5088

REM Highest difference peak  0.288,  deepest hole -0.750,  1-sigma level  0.098
Q1    1   0.5776  0.4224  0.2296  10.50000  0.05    0.28
Q2    1   0.5000  0.5000  0.0936  10.25000  0.05    0.26
Q3    1   0.0000  0.0000  0.1649  10.08333  0.05    0.25
Q4    1   0.5000  0.5000  0.2662  10.25000  0.05    0.24
Q5    1   0.1709  1.0000  0.5000  10.25000  0.05    0.20
;
_shelx_res_checksum              54838
_shelx_hkl_file
;
   0   0  -2 6828.18  173.49
   0   0  -2 7117.12  179.47
   0   0   2 6791.91  179.41
   0   0  -2 6882.76  181.82
   0   0   2 6777.05  181.45
   0   0   2 6600.92  173.58
   0   0  -3 1618.50   54.41
   0   0   3 1671.23   55.19
   0   0  -3 1655.99   56.68
   0   0  -3 1727.98   48.52
   0   0   3 1701.45   56.91
   0   0   4 2599.04   79.47
   0   0  -4 2507.48   79.64
   0   0  -4 2373.28   69.26
   0   0  -4 2441.14   80.90
   0   0   4 2598.85   79.06
   0   0   4 2500.90   79.72
   0   0  -5 2359.06   77.32
   0   0   5 2218.55   73.89
   0   0  -5 2197.08   74.14
   0   0  -5 2161.26   63.56
   0   0  -5 2166.90   73.54
   0   0   5 2124.84   73.95
   0   0  -6  803.01   28.82
   0   0   6  758.00   36.95
   0   0  -6  743.21   31.04
   0   0  -6  811.71   37.34
   0   0  -7 1842.18   68.69
   0   0  -7 1985.91   59.50
   0   0  -7 1828.87   62.24
   0   0   7 2085.50   71.71
   0   0   8  857.97   41.36
   0   0  -8  823.83   40.31
   0   0  -8  855.92   31.99
   0   0  -9  370.78   25.87
   0   0   9  429.50   28.12
   0   0  10 1228.04   53.90
   0   0 -10 1098.03   51.42
   0   0  11   44.11   10.22
   0   0 -11   28.33    8.68
   0   0 -12  271.17   23.25
  -1   1   0 1291.10   34.64
   0   1   0 1316.53   35.96
   1  -1   0 1309.54   35.81
  -1   0   0 1342.72   36.77
   0  -1   0 1287.12   34.20
  -1   0   0 1459.21   43.61
   1  -1   0 1280.07   35.19
   1  -1   0 1384.66   36.71
  -1   1   0 1422.36   36.88
  -1   1   0 1273.25   34.44
  -1   1   0 1311.06   37.25
   1   0   0 1323.42   35.94
  -1   0   0 1257.22   38.04
  -1   0   0 1144.95   35.98
  -1   1   1  109.13    6.72
  -1   0   1  118.20    5.55
   1  -1  -1  111.15    5.75
  -1   0   1  115.78    6.57
   0   1   1  120.05    6.65
  -1   0   1  120.79    7.55
   1   0   1  122.45    5.48
   1  -1   1  112.51    5.53
  -1   1  -1  100.98    5.51
  -1   1  -1  115.96    6.34
  -1   0  -1  110.45    5.24
   0   1  -1  128.53    7.35
   0   1   1  115.33    5.51
  -1   0  -1  128.01    9.98
  -1   0  -1  120.89    6.46
   1   0  -1  112.35    6.70
   1   0   1  113.85    5.34
   0  -1   1  122.47    5.44
  -1   1   1  124.09    9.51
   1   0  -1  124.98    6.30
  -1   1   2 4940.00  125.73
  -1   1   2 4609.77  137.56
   1   0  -2 4981.18  129.95
   0   1   2 4834.97  128.15
   0  -1   2 4783.81  125.03
  -1   0  -2 4898.67  127.64
  -1   0  -2 4647.70  125.11
  -1   1   2 4960.37  131.51
  -1   0   2 4772.53  128.55
  -1   1  -2 4885.75  127.21
  -1   0  -2 4830.85  124.68
   1   0   2 4821.50  125.16
   1   0   2 4860.56  123.67
   0   1  -2 5185.03  131.66
  -1   0   2 4711.90  123.53
   0   1  -2 4791.24  124.70
   1  -1   2 4686.31  125.79
  -1   1  -2 4853.91  124.71
   1  -1  -2 4959.46  125.60
  -1   0  -2 4899.71  124.95
  -1   0   3  452.49   21.17
   0  -1   3  462.59   18.75
   0   1   3  430.30   18.86
   1  -1   3  430.24   20.05
   1  -1   3  463.57   20.70
  -1   0  -3  433.68   18.31
  -1   1   3  470.88   18.44
  -1   1  -3  447.20   19.58
  -1   1   3  486.35   28.39
   0   1  -3  479.70   23.14
   1   0   3  425.81   17.94
  -1   0   3  430.01   22.28
  -1   1  -3  489.24   20.98
   1  -1  -3  476.53   18.14
   0   1   3  428.85   19.80
   1   0  -3  514.55   23.09
  -1   1   3  477.74   23.82
   1   0   3  442.87   18.12
   1  -1   3  451.55   19.70
  -1   0  -3  484.63   20.12
  -1   1   3  431.61   15.00
  -1   0  -3  473.57   19.43
  -1   0  -3  504.65   23.31
   0  -1  -3  490.35   15.86
   0   1  -3  477.24   18.18
   1   0  -4    1.35    4.17
   0   1  -4    2.61    4.16
   1   0   4    3.61    2.63
  -1   0  -4    2.58    3.04
  -1   1  -4    8.65    3.33
  -1   0  -4    1.98    2.44
  -1   1   4    1.17    5.27
  -1   1  -4    9.09    4.37
  -1   1  -4   -3.16    3.40
  -1   0  -4   17.96    4.84
   0  -1   4    1.64    1.83
   1  -1  -4   -0.90    2.74
  -1   0  -4    2.05    3.15
   0   1   4    2.85    2.38
  -1   1   4    1.90    2.51
   0  -1   4    1.59    3.12
  -1   1   4    4.84    2.77
   1  -1   4    0.14    2.22
   1  -1   4    2.25    3.00
  -1   0   4    0.68    2.39
   1  -1   4    5.21    3.44
  -1   0   4    5.75    4.68
   0  -1  -4    3.65    2.63
   0   1  -4    0.98    2.33
   1  -1   4    2.93    2.85
   1   0   4    5.41    2.82
   0   1   4    2.59    4.32
  -1   1   5  928.69   37.91
   0   1  -5  885.68   43.88
   0  -1   5  846.58   37.30
   1   0  -5  902.82   42.89
   1  -1   5  871.82   37.16
   1  -1  -5  936.24   35.66
   1  -1   5  852.00   34.63
   0   1  -5  932.92   37.19
   0  -1   5  819.20   29.46
   0  -1  -5  900.32   33.89
  -1   0  -5  961.07   39.24
  -1   1  -5  920.40   37.34
  -1   0   5  820.05   39.32
   1   0   5  968.26   39.86
  -1   0  -5  958.06   37.34
  -1   1   5  910.35   43.27
  -1   0  -5  956.22   38.89
  -1   1  -5  842.04   37.53
   0   1   5  966.26   46.25
   0  -1  -5  917.80   34.48
   0   1   5 1010.17   39.70
   1   0   5  898.12   37.40
   0   1  -5  847.22   41.77
   0  -1  -5  844.64   38.23
   1  -1   5  993.64   40.51
  -1   1   6   13.24    5.94
  -1   0  -6    5.26    5.11
   1  -1   6    6.90    5.27
   0   1   6   14.53    7.52
   0  -1  -6    9.35    3.44
  -1   0   6    0.67    4.81
   1  -1  -6    5.65    5.50
   0   1  -6    2.60    4.95
  -1   0  -6   10.94    4.17
   1  -1  -6   10.86    2.67
   0  -1  -6   12.43    6.39
  -1   1  -6    7.34    4.01
   0  -1   6    7.72    4.31
  -1   1  -6    9.37    5.07
   0  -1  -6    5.14    3.51
   1  -1  -6    9.45    5.24
   1   0  -6    5.42    1.83
   0  -1   6   17.15    4.04
   0   1  -6   10.48    7.19
   1   0  -6   10.76    6.15
   0  -1  -7  309.13   19.33
   0  -1  -7  321.98   19.01
  -1   0  -7  321.89   23.07
   0   1   7  344.96   26.16
   1  -1   7  312.55   21.87
  -1   1   7  340.13   25.41
   1   0  -7  286.00   13.82
  -1   0  -7  342.57   23.83
   0  -1  -7  354.89   26.40
  -1   1  -7  312.40   24.68
  -1   0   7  335.71   26.19
   0  -1   7  349.35   15.96
   1  -1  -7  340.10   26.50
   1  -1  -7  375.58   23.57
   1  -1  -7  349.42   15.02
   0   1  -7  322.95   25.36
   0  -1   7  338.68   22.83
   0   1  -7  371.48   26.78
   1   0  -7  335.51   25.41
  -1   0  -8  445.07   29.26
   0  -1  -8  414.32   23.52
  -1   1  -8  434.21   29.12
   1   0  -8  490.36   30.32
  -1   1  -8  434.18   31.17
   1  -1  -8  420.36   26.45
   0   1  -8  420.91   29.80
   1   0  -8  371.64   16.92
  -1   0   8  422.09   29.36
   0  -1   8  405.53   26.18
  -1   0  -8  437.32   27.36
   0  -1  -8  481.85   32.44
   0   1   8  451.57   30.11
  -1   1   8  480.51   31.07
  -1   1   9  145.51   17.42
   0  -1   9  150.59   16.12
   1  -1  -9  141.71   15.18
   1   0  -9  128.95   16.36
  -1   1  -9  150.05   17.99
  -1   0  -9  146.86   16.41
   0   1  -9  128.64   16.72
  -1   0   9  177.08   19.16
   0  -1  -9  149.99   19.30
   0  -1  -9  125.12   13.09
  -1   1 -10  105.16   15.99
  -1   0  10   94.09   14.84
  -1   0 -10  116.73   14.21
   0  -1  10  137.67   15.70
   0  -1 -10  131.00   13.51
   1  -1 -10  116.40   14.33
  -1   1  10  123.99   16.57
   1   0 -10  131.96   16.57
   0   1 -10  135.55   17.91
   1   0 -11    4.57    6.35
  -1   0  11   -7.17    6.22
  -1   1  11    1.29    5.49
   1   0  11   -4.26    7.43
   0  -1  11   10.14    6.35
   0   1 -11    5.49    6.64
   0  -1 -11   16.69    6.49
   1  -1 -11    8.12    6.39
  -1   1 -11   -0.59    6.11
  -1   0 -11    6.73    5.71
   1  -1 -12  104.34   14.10
  -1   0  12   90.80   15.40
   1   0 -12   93.61   15.03
   1   0  12  122.56   18.13
  -1   1  12  113.11   16.73
   0  -1  12  133.33   16.45
  -1   1 -12   80.16   14.30
   0   1 -12   79.93   14.44
   0   1 -13   11.07    7.77
  -1   0  13   10.99    7.03
  -1   1 -13   13.94    8.06
   1   0 -13    8.62    6.11
   1  -2   0 8590.36  231.76
  -2   1   0 8517.10  234.36
  -1  -1   0 9093.44  226.06
   1  -2   0 9066.29  227.99
   2  -1   0 9407.50  229.06
  -1   2   0 9182.67  229.58
  -1   2   0 9241.14  227.91
  -2   1   0 9229.34  228.48
  -1   2   0 9999.00  228.38
   2  -1   0 9313.75  228.04
  -1  -1   0 8544.59  231.13
   1   1   0 9067.33  227.45
  -1  -1   0 9349.72  227.81
  -2   1   0 9267.53  228.09
  -1   2   1  799.81   26.55
  -1  -1  -1  815.28   21.52
  -2   1  -1  816.87   26.61
   2  -1  -1  783.14   26.93
   1   1   1  798.42   23.49
   1   1   1  756.12   22.80
  -2   1  -1  779.25   21.28
  -2   1   1  778.38   27.92
   2  -1  -1  765.56   30.96
   1   1  -1  869.87   32.94
  -2   1  -1  837.37   33.55
   1  -2   1  810.31   24.47
   1   1   1  784.66   25.90
  -1  -1  -1  857.71   25.14
   1  -2   1  796.71   25.24
  -2   1   1  769.27   30.04
  -1   2   1  797.96   24.53
  -1  -1   1  862.02   33.00
  -1   2   1  791.16   26.61
   1  -2  -1  750.02   27.06
   1  -2  -1  869.85   34.19
  -1  -1  -1  817.91   26.29
   2  -1   1  756.16   26.45
   2  -1  -1  795.88   27.35
  -1  -1   1  823.68   28.41
  -2   1  -1  806.25   25.28
   1   1  -1  793.02   28.80
  -1   2  -1  790.89   27.69
  -2   1  -1  818.96   25.30
  -1  -1   1  759.80   26.66
   2  -1  -2 1875.39   59.35
  -1   2   2 2051.38   58.37
  -1   2   2 1965.54   62.89
  -1  -1  -2 1889.63   50.52
  -1  -1   2 1922.91   56.50
   1  -2  -2 2140.03   70.72
  -1   2  -2 1959.75   58.70
  -2   1   2 1990.99   64.75
   1   1   2 1891.41   50.09
  -2   1  -2 1921.18   50.77
  -1  -1   2 1958.69   62.09
   1   1   2 1900.62   56.55
   2  -1   2 1972.12   54.53
   1   1  -2 1896.30   56.09
  -2   1  -2 1922.77   54.14
   1  -2  -2 1972.18   53.19
  -2   1  -2 1934.21   56.53
   2  -1  -2 1981.37   57.39
  -2   1  -2 2007.48   66.28
  -2   1   2 1989.34   60.86
  -2   1  -2 2004.07   56.95
   1  -2   2 1955.24   49.97
   1   1  -2 1921.90   63.10
  -1   2   2 1907.12   52.64
  -1  -1  -2 1936.04   56.40
  -1  -1  -2 1916.88   56.21
   1   1   2 1831.93   55.88
   1   1  -2 2014.66   67.41
  -1  -1  -3 4406.03  111.77
  -1  -1  -3 4590.49  126.72
   2  -1  -3 4448.78  118.86
  -1  -1   3 4440.21  120.28
   1   1  -3 4628.57  120.50
   2  -1   3 4292.65  113.65
  -2   1  -3 4327.36  117.06
  -1   2  -3 4184.69  122.57
  -2   1   3 4697.88  132.95
  -2   1  -3 4457.93  117.77
   1   1   3 4427.79  116.75
   1   1  -3 4395.61  133.66
  -1  -1  -3 4358.02  120.05
  -1   2   3 4418.76  115.17
   1   1   3 4507.13  120.40
  -2   1   3 4330.39  126.90
  -1   2   3 4432.23  123.26
   1   1  -3 4373.37  132.73
   1  -2   3 4269.21  115.76
  -2   1  -3 4445.39  120.21
  -1   2   3 4407.90  131.74
   1  -2  -3 4443.98  115.02
   2  -1   3 4435.65  117.67
  -1  -1   3 4204.38  129.08
  -2   1  -3 5012.38  134.82
   2  -1  -3 4488.67  121.46
   2  -1   4 1758.18   52.41
   1   1   4 1850.98   57.20
   1  -2   4 1794.46   57.73
  -1  -1  -4 1816.53   48.40
  -2   1  -4 1685.62   54.44
  -2   1  -4 1791.86   54.37
   2  -1   4 1847.21   55.06
   1  -2   4 1790.07   54.16
  -1   2   4 1886.07   71.50
   1   1  -4 1750.84   67.20
  -1   2   4 1781.12   52.27
   1   1  -4 1843.02   72.61
   2  -1  -4 1799.42   58.15
  -2   1   4 1669.66   63.50
  -1   2  -4 1676.87   59.45
  -1  -1   4 1757.45   57.16
   2  -1   4 1807.11   59.10
   1  -2  -4 1821.16   50.95
  -2   1  -4 1637.60   54.34
  -1  -1  -4 1808.11   56.61
   1   1   4 1792.74   54.91
   1   1  -4 1816.34   57.11
  -1   2   4 1703.59   53.66
  -1   2  -4 1742.04   49.63
   2  -1  -4 1751.69   49.65
   2  -1  -5 4029.52  114.92
   1  -2  -5 3950.01  105.25
   1  -2  -5 3916.01  119.35
   1   1   5 3900.74  116.89
  -1  -1  -5 3810.01  107.31
   2  -1   5 3791.49  109.72
  -1  -1  -5 3933.70  112.79
   1   1   5 3944.04  111.08
   1   1  -5 3394.00  121.17
  -2   1  -5 3758.94  111.42
  -1   2  -5 3664.96  116.35
  -2   1  -5 4074.29  112.21
   2  -1   5 4000.36  119.51
  -1   2   5 3884.98  107.80
  -1   2   5 3787.22  125.53
  -1  -1   5 3846.75  114.04
   2  -1   5 3845.39  117.55
  -2   1  -5 3664.69  110.32
  -1   2   5 4067.37  110.05
   1  -2   5 3832.15  109.20
  -1   2  -5 3955.85  105.87
   1   1  -5 4143.67  129.80
  -2   1   5 3696.00  122.01
   1   1   6  152.57   16.51
   1   1  -6  185.94   19.86
  -1   2  -6  167.12   12.05
  -1  -1  -6  180.23   12.38
   2  -1   6  157.29   17.36
   1  -2  -6  165.74   11.18
  -2   1  -6  166.96   14.74
  -1   2  -6  168.62   16.66
   2  -1   6  165.42   15.78
   1  -2  -6  154.78   17.32
  -1  -1  -6  158.05   14.71
  -1   2   6  172.75   18.73
   2  -1   6  187.23   14.92
   2  -1  -6  178.76   15.89
   1  -2   6  145.92   12.13
  -1  -1   6  153.98   15.00
  -2   1   6  187.83   19.74
   1   1   6  147.08   12.94
   2  -1   7 2171.09   72.77
   1  -2   7 2031.35   66.53
   2  -1   7 2029.61   81.13
  -1   2  -7 1948.30   76.38
  -2   1   7 2134.46   84.79
   1   1  -7 1881.57   77.34
   2  -1  -7 2030.76   74.03
   1   1   7 2061.84   80.53
  -1  -1  -7 1912.59   72.61
  -2   1  -7 1941.18   73.20
   1  -2  -7 1999.42   63.38
  -1  -1   7 1908.91   73.34
  -1   2   7 1974.25   77.87
  -1  -1  -7 1905.74   63.15
   1  -2  -7 2143.22   82.30
   2  -1  -8  357.42   26.28
   1  -2  -8  279.13   26.08
  -2   1  -8  307.14   23.61
   1  -2  -8  309.05   19.26
  -1   2  -8  318.71   27.39
  -1   2   8  292.34   25.43
   2  -1   8  321.71   30.28
   1  -2   8  265.49   18.93
  -2   1   8  321.30   27.88
   1  -2   8  314.24   19.34
  -1  -1  -8  300.27   18.32
  -1   2  -8  286.43   27.47
  -1  -1  -8  307.09   25.76
  -1  -1   8  276.45   24.65
   1   1  -8  275.44   25.14
   1   1   8  320.01   29.62
  -2   1   9  233.06   24.05
   1   1   9  194.88   23.58
   1  -2  -9  213.25   17.09
  -1   2  -9  223.38   23.86
  -1   2  -9  221.71   24.09
   1  -2   9  248.97   17.05
  -1  -1  -9  215.51   15.86
  -1  -1   9  214.31   21.92
   1  -2   9  261.50   18.90
   1   1  -9  201.84   21.94
  -1   2   9  221.97   23.05
   2  -1  -9  212.69   20.76
  -1  -1  -9  220.69   22.84
   2  -1   9  205.06   24.28
   1  -2  -9  209.31   23.52
  -1   2  10  776.34   44.23
   1  -2 -10  690.41   34.39
   1   1  10  725.82   46.18
  -2   1 -10  731.00   43.31
   2  -1 -10  680.55   39.60
  -1   2 -10  727.85   45.11
  -1  -1  10  749.60   42.66
  -1  -1 -10  726.92   44.55
   2  -1  10  765.64   47.62
   1  -2 -10  753.66   47.27
  -2   1  10  718.98   44.34
  -1   2 -10  703.99   44.13
   1   1 -10  717.11   42.98
  -1  -1 -11   11.27    8.18
   2  -1 -11    9.63    6.96
  -1  -1  11   -5.69    7.07
   1   1  11   13.63    9.18
  -2   1  11    0.56    6.39
  -2   1 -11    3.50    5.77
   2  -1  11   -1.38    6.82
  -1   2 -11   -6.47    8.41
   1   1 -11    5.55    7.51
   1   1 -12  220.61   24.39
  -1   2 -12  231.15   25.08
  -1  -1  12  246.69   24.51
   2  -1  12  251.42   26.59
   1   1  12  261.94   27.33
   2  -1 -12  256.05   23.73
  -2   1  12  219.18   24.91
  -2   0   0   50.42    5.49
   2   0   0   45.22    4.98
  -2   2   0   50.23    5.42
   2  -2   0   56.29    5.62
  -2   0   0   42.10    5.46
  -2   2   0   41.74    3.45
  -2   2   0   43.31    6.09
  -2   0   0   45.94    4.65
   2  -2   0   42.66    4.11
  -2   0   0   53.50    8.40
   0  -2   0   40.00    4.13
   0  -2   0   39.90    3.18
  -2   2   0   36.97    3.20
   0   2   0   49.51    5.09
   2  -2   0   37.08    4.25
  -2   2  -1  559.38   19.29
   2  -2   1  511.90   15.84
  -2   2   1  542.36   20.08
  -2   0  -1  555.12   21.00
   2  -2  -1  531.13   20.26
  -2   0   1  510.97   20.20
  -2   2   1  528.60   19.80
   0  -2  -1  553.97   18.06
  -2   0  -1  568.54   25.22
   2  -2  -1  538.05   22.16
  -2   0  -1  608.96   30.40
  -2   2  -1  526.40   18.16
  -2   0  -1  536.39   19.19
   2   0   1  502.12   18.78
   2   0  -1  523.53   20.83
   2  -2   1  533.89   16.67
   0  -2   1  529.36   20.52
  -2   0  -1  517.55   18.35
   0   2   1  518.07   21.00
  -2   0   1  531.47   25.34
   0   2  -1  509.02   21.39
   0   2   1  541.41   19.19
  -2   2  -1  537.58   20.91
  -2   2   1  535.48   26.56
  -2   0   1  557.44   21.82
   0   2   1  529.31   17.29
   2  -2  -1  511.98   22.74
   2  -2   1  516.40   17.51
  -2   2  -2 1114.23   37.17
  -2   0   2 1084.42   38.20
  -2   0  -2 1138.78   30.55
  -2   0   2 1176.51   39.20
   0   2  -2 1114.24   40.13
   0   2   2 1130.23   34.38
  -2   2   2 1130.96   48.31
   2  -2   2 1166.86   37.72
   0   2   2 1142.17   38.14
  -2   0  -2 1112.31   33.98
   2  -2  -2 1128.31   43.44
   2   0  -2 1081.60   38.35
   2  -2  -2 1147.21   43.65
  -2   0  -2 1223.67   48.25
   0   2   2 1146.67   34.31
  -2   2   2 1110.87   35.64
   2  -2   2 1057.70   34.47
   2  -2  -2 1135.92   36.03
  -2   0  -2 1203.20   37.89
  -2   0   2 1164.18   42.86
   0  -2   2 1221.20   39.51
  -2   2   2 1135.35   38.51
   0  -2   2 1098.51   34.07
  -2   0  -2 1238.13   45.43
  -2   0  -2 1166.93   34.69
   2   0   2 1086.09   34.15
   2  -2   2 1086.03   30.30
   2   0   3 2010.43   53.44
   2  -2   3 1964.25   59.78
   0   2  -3 1998.07   66.63
  -2   2  -3 2280.44   55.92
   0   2   3 2171.57   64.38
   2   0  -3 1998.89   64.53
   2   0   3 2072.01   58.10
   0  -2   3 1971.42   57.56
   0   2   3 1908.38   59.38
  -2   2  -3 1974.92   52.01
  -2   2   3 2192.48   79.42
  -2   0  -3 1948.38   57.75
  -2   0  -3 2050.25   57.65
  -2   0   3 2016.22   57.67
  -2   0   3 2196.79   71.62
   2  -2   3 2000.54   57.38
   2  -2  -3 2001.85   59.38
  -2   2   3 2010.39   64.91
  -2   2   3 2046.82   59.35
  -2   0  -3 1993.35   55.90
  -2   2  -3 1853.41   60.77
  -2   0   3 1890.00   62.96
   2  -2  -4    4.63    6.09
  -2   2  -4    5.47    2.29
   2  -2   4    2.29    4.04
  -2   0   4    5.94    4.37
  -2   2  -4    4.62    3.73
   2   0   4    9.06    3.00
   0   2  -4   13.63    5.91
  -2   0  -4    4.45    2.55
   2  -2   4    7.56    2.96
  -2   0  -4    5.24    3.38
   2   0  -4    4.91    4.53
   2  -2   4    3.46    3.39
   2   0   4   19.48    2.73
   0   2   4    1.88    3.52
  -2   0  -4    8.21    2.99
   0  -2   4    7.05    3.27
   2  -2  -4    5.74    3.11
  -2   2   4   -1.39    6.07
   0   2  -4    7.00    2.49
  -2   0   5 1767.28   65.10
   2   0   5 1853.84   55.68
   2  -2  -5 1805.59   58.11
  -2   0  -5 1891.68   59.73
  -2   2  -5 1652.38   61.09
   2   0   5 1936.81   65.38
   0   2   5 1771.15   63.70
   2  -2   5 1901.62   59.71
   2   0  -5 1758.80   66.84
   2  -2   5 1901.72   64.36
   0  -2   5 1716.96   58.73
   0  -2  -5 1796.43   48.74
  -2   0  -5 1926.77   57.23
   0   2   5 1792.58   61.19
   0   2  -5 1799.29   75.24
   2   0   5 1815.08   58.37
   0   2  -5 1780.82   68.93
   2  -2  -5 1756.57   71.44
   0   2  -5 2009.29   57.80
   2  -2   5 1887.02   65.47
  -2   2   5 1840.60   73.92
   0  -2  -5 1796.02   63.16
  -2   2   5 1808.94   51.85
  -2   2  -5 1797.74   56.17
   2   0   6  140.41   12.09
   2   0  -6  153.46   17.59
   2   0   6  182.36   17.82
   0   2  -6  159.88   18.60
   0  -2  -6  163.00    8.40
  -2   0  -6  147.22   11.96
  -2   2  -6  156.20   11.90
  -2   0  -6  177.94   15.00
   0  -2   6  150.83   14.01
   2  -2   6  145.36   14.28
  -2   0   6  172.56   17.53
  -2   2  -6  153.25   15.02
   2  -2   6  173.69   13.52
   2  -2  -6  164.43   18.76
   0  -2  -6  137.57   14.74
   2  -2   6  162.25   17.63
   0   2   6  143.52   16.05
   2  -2  -6  179.25   13.74
   0   2  -6  146.26   19.00
  -2   2   6  159.65   18.81
   0  -2   6  172.50   11.52
   2  -2   7  473.65   27.10
   0  -2   7  394.43   19.15
   0   2   7  465.33   32.43
   2  -2  -7  398.79   30.82
  -2   0   7  380.68   29.55
   0  -2   7  455.06   27.42
   0  -2  -7  440.82   18.22
   2  -2  -7  454.39   24.80
  -2   2  -7  438.90   22.91
   0  -2  -7  468.80   30.19
   0   2  -7  396.04   31.68
   2   0   7  455.06   32.20
  -2   0  -7  464.52   28.87
  -2   2   7  435.87   31.96
  -2   2  -7  425.03   27.58
   2   0  -7  456.09   32.88
   2  -2   7  425.91   32.57
   0   2  -7  416.85   32.24
  -2   0   8   94.75   15.78
   2  -2   8   75.22   14.75
   0  -2   8   71.87   11.15
   2   0  -8   75.39   13.78
  -2   2  -8   70.37   12.31
   0   2   8   87.51   14.89
   0   2  -8   77.50   14.59
   2  -2   8   91.62   11.91
  -2   0  -8   95.23   13.41
   0  -2   8   89.26    8.10
   0  -2  -8  105.17    8.93
   0  -2  -8  122.12   17.23
  -2   2   8   97.54   15.79
   0   2  -8   97.85   15.69
   2  -2  -8   73.13   14.31
   2   0   8  124.06   19.17
   2  -2  -8  116.81   13.24
   0  -2   9   61.23   10.58
  -2   0   9   70.39   15.11
  -2   2   9   66.76   13.65
   2   0  -9   67.11   13.04
   0   2  -9   57.57   13.36
   0   2  -9   57.08   13.23
   2  -2   9   74.87   11.22
  -2   0  -9   48.19   10.70
   2   0   9   56.98   15.27
   0  -2  -9   66.13   14.66
  -2   0  -9   46.73    9.52
   2  -2  -9   69.14   11.53
   0   2   9   48.25   11.74
   2  -2   9   55.45   13.16
  -2   2  -9   47.28   12.43
   0  -2 -10   34.22    9.85
   2   0  10   34.80   12.53
   0   2  10   45.99   12.09
  -2   2 -10   55.61   13.70
   2  -2 -10   63.95   11.46
   0   2 -10   42.37   11.82
  -2   2  10   56.35   13.01
   2   0 -10   52.66   12.08
   2  -2  10   36.15   10.66
  -2   2 -10   64.04   13.30
  -2   0  10   58.62   13.92
   0  -2  10   34.06    8.85
  -2   0 -10   33.56    8.15
   2   0 -11   15.44    8.42
  -2   2  11   34.27   11.87
   0   2 -11   21.92    9.84
   0  -2  11   26.89    7.95
  -2   0  11   16.99    9.48
   0   2  11   27.64   10.22
   2   0  11    6.63    7.56
   0  -2 -11   18.58    8.88
   2  -2  11   26.30   10.47
  -2   2 -11   16.64    9.42
   2  -2 -11   20.72    7.84
   0   2  12   99.16   16.59
   0   2 -12   76.01   15.73
   0  -2 -12   78.40   17.10
   2   0  12  121.65   19.85
   2   0 -12   81.45   14.70
   2  -2  12  113.52   18.42
  -2   0  12   92.58   16.50
  -2   2 -12   99.86   17.09
  -2   2  12   88.43   16.14
  -1  -2   0  822.02   26.43
  -3   1   0  817.75   36.85
  -3   1   0  800.86   30.00
  -3   2   0  838.32   28.17
   3  -1   0  780.50   29.42
   1   2   0  832.48   28.81
   1   2   0  793.47   30.68
   3  -2   0  794.20   37.97
  -1   3   0  782.13   30.06
  -3   2   0  791.75   29.10
  -2  -1   0  857.74   27.38
   3  -1   0  860.12   41.33
   3  -2   0  770.89   27.39
  -3   2   0  813.62   25.60
   2  -3   0  784.30   31.44
  -3   2   0  826.54   30.31
   2  -3   0  783.36   28.51
   3  -2   0  749.37   29.60
  -2   3   0  847.03   27.63
  -2  -1   0  838.90   31.02
   2   1   0  793.59   27.65
   1  -3   0  780.91   30.73
  -1  -2   0  799.52   27.39
  -2   3   0  790.06   30.55
  -3   1   1   59.73    7.27
  -2  -1  -1   69.09    3.29
   3  -1  -1   73.45    7.62
  -2  -1   1   76.89    8.62
  -1  -2   1   76.46    6.77
  -1  -2   1   68.00    5.99
   3  -2   1   67.69    7.31
   3  -2  -1   75.39    7.07
  -3   1  -1   59.68    6.49
   1   2   1   70.49    6.27
   3  -1   1   67.41    6.91
  -2  -1   1   62.08    7.20
  -3   2   1   69.69    8.58
   1  -3   1   66.52    2.96
   2  -3   1   73.90    4.96
   2  -3  -1   67.84   10.09
  -3   2   1   72.35    6.28
   2  -3   1   67.41    5.87
   1  -3  -1   69.74    8.56
  -3   2  -1   79.80    6.77
   3  -1   1   88.43   12.98
  -2   3   1   65.84    6.06
  -3   1   1   79.36    9.22
   3  -2  -1   70.14    7.56
   1   2   1   76.65    5.00
   3  -2  -1   72.54   10.71
   1   2  -1   60.68    8.11
  -1  -2   1   72.24    7.18
   3  -1  -1   62.39   10.13
  -2  -1   1   80.03    8.20
  -2  -1  -1   63.87    6.60
  -2   3   1   72.52    7.91
  -3   2   1   72.17    6.94
  -2  -1  -1   75.76    6.54
  -1  -2  -1   68.23    6.16
   2  -3  -1   83.74    8.16
  -2   3   1   78.90    6.68
   2   1  -1   73.83    7.29
  -3   1  -1   71.95    4.79
  -1   3  -1   71.80    7.87
   2   1   1   67.13    5.48
   1   2  -1   76.36    8.58
  -3   2  -1   71.73    6.45
  -2   3   1   73.70    3.53
   2   1   1   94.09   11.33
  -2   3  -1   67.57    7.71
  -1  -2  -1   64.43    4.56
  -3   1  -1   74.95    5.81
  -1   3   1   77.50    5.70
  -3   2  -1   69.10    6.95
  -1   3   1   68.71    7.11
  -2   3   1   75.71    7.81
  -3   2  -2 2160.67   64.98
  -2   3  -2 2240.97   68.61
   1   2   2 2256.30   60.42
   3  -1  -2 2161.58   67.62
  -1   3  -2 2146.08   69.00
  -2   3   2 2215.47   63.33
   2  -3   2 2198.72   59.80
  -3   1   2 2205.64   64.77
  -2  -1   2 2278.48   73.50
   3  -1   2 2235.52   67.00
  -1  -2  -2 2162.44   64.64
   3  -2  -2 2150.30   66.67
   2   1  -2 2196.07   70.42
  -3   1  -2 2161.89   65.03
  -1  -2   2 2138.38   65.29
   2   1   2 2116.08   60.32
  -1  -2   2 2217.21   68.39
   1   2   2 2260.43   56.65
   1  -3   2 2282.08   59.66
  -3   2  -2 2175.19   62.10
  -1  -2  -2 2080.63   66.25
  -2  -1  -2 2233.77   62.09
  -3   2   2 2270.35   71.04
  -3   1   2 2243.32   68.57
   1  -3  -2 2118.45   68.18
   3  -1   2 2047.35   64.85
  -3   1  -2 2217.95   58.94
  -2   3   2 2180.35   66.49
  -2  -1  -2 2347.48   65.69
   1   2  -2 1991.30   73.04
  -2  -1   2 2150.94   67.59
   2   1  -2 2112.09   68.53
   1   2  -2 2252.35   76.77
  -2   3   2 2229.47   73.76
  -3   1   2 2457.51   74.95
   2  -3   2 2097.61   61.92
   3  -2   2 2312.48   65.35
   2   1   2 2197.23   66.46
   3  -2  -2 2198.61   75.67
   3  -1  -2 2244.38   72.45
  -1   3   2 2119.51   65.41
  -1   3   2 2315.53   59.47
  -3   1   2 2105.66   68.94
  -3   2   2 2166.59   72.68
   2  -3  -2 2178.57   64.39
  -3   2  -2 2257.13   65.53
  -1   3   2 2171.76   60.10
  -3   1  -2 2160.68   61.57
   1   2   3  374.92   13.22
  -2   3  -3  349.52   19.92
  -1   3  -3  347.27   20.98
  -3   2  -3  373.79   14.99
   3  -2   3  388.19   25.47
   2  -3  -3  352.52   16.48
   1   2  -3  323.63   23.97
  -1   3   3  327.89   15.30
   3  -1   3  349.72   26.11
  -3   2   3  349.68   23.57
  -3   1   3  345.06   13.81
   1   2  -3  382.97   28.57
   3  -1  -3  376.93   19.45
   3  -2   3  365.91   18.18
   3  -2  -3  342.64   18.67
  -3   1  -3  361.59   13.72
   1  -3  -3  362.69   20.48
   2  -3   3  365.83   16.12
   2   1  -3  352.68   19.64
   2  -3   3  340.72   15.04
  -1  -2   3  311.33   17.06
   2  -3  -3  343.40   21.09
  -2  -1   3  353.81   19.35
   3  -1   3  371.70   19.54
  -1  -2  -3  364.63   19.22
  -2  -1  -3  361.96   17.82
   2   1  -3  376.70   22.46
  -3   1   3  369.60   21.67
  -2  -1  -3  382.61   14.24
   1  -3   3  337.58   13.19
  -2   3   3  342.91   25.02
  -1   3   3  347.19   13.19
  -1   3   3  344.69   17.64
  -2   3   3  355.49   15.86
   3  -2  -3  379.79   23.82
  -3   2  -3  351.63   17.41
  -3   1  -3  342.61   14.94
   2   1   3  346.25   18.75
   1   2   3  361.61   22.27
   3  -1  -3  336.04   19.62
   2  -3  -4    4.30    2.52
   2  -3   4   10.64    5.72
   3  -1  -4   25.11    6.81
   1   2  -4    1.54    8.22
  -1  -2   4    4.90    3.61
   1  -3   4    2.92    1.72
  -2  -1   4    3.85    4.10
   2   1   4    1.67    3.89
   2  -3  -4    0.90    5.18
   3  -2  -4   25.32    5.87
   2  -3   4   -0.72    3.50
   3  -2   4    8.75    6.83
  -2   3  -4   12.86    5.54
  -3   2  -4    6.24    3.08
  -2   3   4    8.60    5.86
  -1   3   4    7.63    1.91
   2   1  -4    6.91    5.44
   1   2  -4    1.52    5.63
  -2  -1  -4    5.58    3.41
   1   2   4    9.25    2.29
   1   2   4    3.82    3.33
  -2  -1  -4    4.90    1.74
  -3   1  -4    6.49    2.70
   3  -2   4    2.72    3.52
   3  -1   4    6.82    2.32
   3  -1   4    8.74    6.99
   1  -3  -4    1.21    4.13
   1   2   4    5.51    4.19
  -1   3  -4    3.67    4.70
   3  -2  -4    4.31    3.69
  -3   1  -4    8.61    2.68
  -3   2   4    4.25    6.10
  -1  -2  -4    6.09    4.09
  -3   1   4    6.33    4.89
  -2  -1   4   23.71    4.34
   3  -1   4    4.98    3.87
   2   1  -4    4.93    3.29
   2   1   5  595.49   30.50
   3  -2  -5  573.82   28.69
  -2  -1   5  629.71   22.60
   1   2   5  638.43   25.96
  -3   2  -5  560.44   26.96
   3  -2   5  617.71   30.04
  -3   1  -5  567.74   25.42
   3  -2  -5  571.96   25.10
  -2  -1  -5  565.01   26.94
   2   1   5  564.85   17.62
   3  -2   5  585.26   34.05
  -3   2   5  579.23   37.29
   2  -3  -5  596.29   24.42
  -2   3  -5  536.09   29.67
   1   2   5  607.17   29.29
   1   2   5  656.72   33.11
   1   2  -5  635.11   41.77
  -1   3  -5  557.54   32.06
  -1  -2   5  574.34   27.65
  -1   3   5  616.44   23.12
   1  -3  -5  562.94   31.21
   3  -2   5  596.70   20.19
   2  -3   5  588.38   30.84
  -1  -2  -5  607.65   29.44
  -2  -1   5  578.09   30.01
   2   1  -5  555.37   35.33
   3  -1   5  571.26   22.25
  -3   1   5  565.92   33.39
   3  -1   5  607.25   35.59
   2   1  -5  571.44   25.93
  -2  -1  -5  605.76   20.68
   1  -3   5  579.54   24.61
  -3   1  -5  594.08   26.50
   2  -3   5  543.88   29.61
   1  -3  -5  597.48   20.67
   3  -1   5  641.59   31.46
   1   2  -5  609.32   38.88
  -3   2  -5  651.37   25.60
   3  -1  -5  654.76   32.40
  -2   3   5  594.72   37.41
  -1   3   5  604.65   27.98
   3  -1   5  616.92   24.60
   2  -3  -5  566.86   33.74
   3  -2   6    2.14    5.12
   1   2  -6    3.76    7.67
   3  -2   6    3.44    5.75
   2   1   6    0.32    5.03
   1   2  -6    1.44    6.24
   3  -2  -6    3.91    4.72
  -3   1   6    2.06    6.41
  -1   3   6    3.63    3.68
  -2  -1  -6    0.08    3.78
  -3   1  -6    5.93    4.08
  -2   3   6   -0.99    6.05
  -3   1  -6    1.15    3.24
  -2   3  -6    3.76    1.52
  -3   2  -6   10.72    4.00
   2   1  -6    1.55    2.06
  -2  -1  -6    3.90    2.18
   3  -1   6    0.72    2.21
   2   1  -6    0.53    8.39
   1  -3   6    1.47    2.94
   3  -1   6    2.67    6.11
   3  -1   6    1.63    6.65
   1   2   6    5.69    6.05
   2   1   6    3.24    2.05
  -3   2  -6    4.82    4.37
   1  -3   6    7.59    4.78
   1   2   6    4.36    2.46
   1  -3  -6    7.13    2.61
   2  -3   6   12.10    5.72
  -2   3  -6   -3.97    5.13
  -1  -2   6    8.85    4.70
   2  -3  -6   10.92    7.18
  -1   3  -6    2.13    5.37
   2  -3  -6    3.28    3.45
   1  -3  -6    3.54    5.20
  -1  -2  -6    1.55    4.16
   3  -1  -6   -1.64    5.64
   3  -2   6    1.72    1.86
  -3   2   6    7.62    7.53
  -2  -1   6    2.36    5.01
  -2   3   6    8.09    3.61
   3  -2  -6    5.86    2.55
  -2  -1   7  243.17   21.84
   1   2  -7  238.71   24.71
  -2   3  -7  254.01   22.31
   2  -3  -7  253.87   16.36
   2  -3  -7  251.45   25.82
  -1   3  -7  232.80   22.74
   3  -2   7  265.69   23.67
   1  -3  -7  271.80   13.22
   1   2  -7  192.88   22.77
   2   1  -7  214.08   10.87
   2   1   7  258.43   23.65
  -3   2  -7  222.03   18.97
   1  -3   7  252.85   17.74
  -2   3   7  269.22   15.98
  -1  -2   7  268.24   12.63
   3  -2   7  240.66   21.70
  -2  -1  -7  248.46   15.62
  -1  -2  -7  251.05   20.76
  -3   1  -7  298.28   19.54
   2   1  -7  312.88   28.73
   1  -3  -7  292.52   24.90
  -2  -1  -7  275.93   20.70
   2  -3   7  254.66   19.64
   1   2   7  252.26   22.36
  -1   3   7  244.70   17.97
  -3   1  -7  271.64   20.35
  -1  -2   7  236.02   20.05
   1  -3   7  271.54   16.69
  -3   1   7  226.47   23.88
  -3   2   7  214.05   25.01
   3  -1  -7  283.47   23.91
  -2   3   7  241.92   24.35
   3  -1   7  258.87   24.04
   3  -2  -7  267.14   20.87
   3  -1   8  308.44   28.88
   2   1   8  276.88   27.13
   1  -3   8  290.91   18.28
   2  -3  -8  309.41   19.22
   3  -2   8  329.27   29.51
   2  -3   8  306.19   22.25
   1  -3   8  295.91   19.91
  -2   3   8  327.31   28.39
   3  -2   8  305.17   24.54
   1  -3  -8  281.11   27.37
   3  -2  -8  307.75   24.27
   1   2   8  306.86   27.28
  -2  -1  -8  279.78   23.83
   1   2  -8  234.31   25.27
   2   1  -8  235.53   25.40
  -3   2  -8  276.47   23.36
  -3   1  -8  278.08   21.59
  -2  -1   8  295.76   25.93
  -1  -2   8  293.09   23.92
  -1   3  -8  254.63   26.09
  -3   1   8  294.98   29.37
  -1  -2  -8  314.36   25.32
  -3   2   8  292.25   29.40
   3  -1  -8  341.66   28.43
   2  -3  -8  269.81   27.67
  -1   3  -8  301.79   30.08
  -2   3  -8  289.38   25.56
  -3   1   9  127.30   20.70
   3  -2   9  136.85   16.26
   3  -2   9   92.59   19.30
   3  -2  -9  133.50   17.32
   2  -3  -9  115.15   12.50
   3  -1   9   99.12   18.71
  -1  -2  -9   82.91   14.66
   2   1  -9   84.05   16.07
  -3   2  -9   83.70   14.13
   1   2   9   85.74   17.19
   2  -3   9  123.74   17.64
  -1   3  -9   84.17   17.22
  -3   2   9  117.93   18.72
  -1  -2   9  120.73   16.82
   1  -3   9  109.15   11.83
  -2   3  -9   97.56   16.35
  -2   3   9  101.24   16.58
  -2  -1   9   83.61   15.20
   2  -3   9  110.36   13.82
   1  -3  -9  128.89   20.53
   1   2  -9  130.16   19.18
   2  -3  -9  111.23   18.76
  -2  -1  -9  123.01   17.88
   3  -1  -9  113.36   17.56
  -1   3  -9   76.23   16.38
   2   1   9  119.93   19.75
   3  -2 -10  113.50   16.48
   2  -3  10   81.97   14.84
   1   2  10   78.84   17.40
  -3   2  10   86.63   16.16
   2   1  10   88.50   19.22
  -1  -2  10   81.73   14.10
  -3   1  10   85.87   17.55
  -1   3 -10   89.87   17.39
  -1   3 -10  134.78   20.79
  -2   3 -10   90.37   17.11
  -3   2 -10   79.32   13.96
   2   1 -10   84.34   16.28
   3  -2  10   84.64   18.71
   1   2 -10   91.61   16.48
  -2   3  10   97.27   17.51
   3  -1  10   82.14   18.60
   2  -3 -10   90.95   17.75
  -2   3 -10   93.85   18.48
   1  -3 -10   80.74   17.27
  -2  -1 -10  104.36   16.71
  -1  -2 -10   81.65   16.48
   3  -1 -10   91.43   15.60
  -2  -1  10  103.64   18.18
   1   2  11    8.54    9.41
   3  -1  11    2.43   10.43
  -2  -1  11   -1.04    7.02
   2   1 -11   -2.83    7.71
  -3   2  11   -6.13    7.77
   2   1  11    1.21   10.20
  -3   2 -11  -14.06    9.50
   1   2 -11   -1.19    6.95
   2  -3  11   -7.49    6.91
  -1   3  11    4.39    6.66
  -3   1  11   -4.16    6.71
  -1  -2  11   -2.38    6.24
  -1   3 -11   -8.71    9.12
   1  -3 -11    4.91    7.11
   3  -1 -11   -9.90    7.44
  -2   3 -11   -0.38    7.19
  -2  -1 -11    6.59    6.52
   3  -2  11    0.20    7.31
   3  -2 -11    3.37    5.55
  -1  -2 -11   -8.76    9.43
  -2   3 -11   -1.48    7.98
  -1   3 -11   -0.48    7.40
   2  -3  12   63.47   13.74
  -1   3  12   63.64   13.77
   3  -2 -12   76.02   13.65
  -3   2 -12   54.75   13.64
  -1  -2 -12   71.71   16.77
  -2  -1  12   84.63   16.48
   3  -1 -12   83.60   15.33
   0   3   0 5546.78  151.89
   0  -3   0 5823.43  145.04
   3   0   0 5536.95  150.30
   3  -3   0 5680.79  147.03
  -3   3   0 5355.24  145.57
   3  -3   0 5268.54  153.84
  -3   3   0 5595.05  144.98
  -3   3   0 5594.98  162.48
   0   3   0 5342.36  167.53
  -3   0   0 5566.71  153.57
   0  -3   0 5950.07  149.64
  -3   3   0 5500.46  152.51
   0  -3   0 5740.41  152.74
   0   3   1  427.25   19.33
   3   0  -1  437.24   20.48
  -3   3   1  412.10   16.04
   0   3  -1  405.87   21.34
  -3   3  -1  398.48   16.56
   0  -3  -1  401.97   16.19
   3  -3   1  465.23   27.78
   3  -3  -1  401.20   19.43
   3  -3  -1  445.45   25.08
   3  -3   1  420.90   18.31
  -3   0   1  425.99   20.53
  -3   0  -1  434.98   21.21
   3  -3   1  417.72   14.69
   0   3   1  457.94   22.93
   3   0   1  413.84   18.60
  -3   0   1  416.09   21.59
   0  -3  -1  401.26   20.41
  -3   0  -1  406.46   17.55
   0  -3   1  377.43   19.76
   0  -3   1  426.69   15.69
  -3   3  -1  505.72   23.21
  -3   3   1  450.42   28.98
  -3   0   1  443.43   24.04
  -3   3   1  414.68   20.71
   3  -3  -1  411.20   20.18
  -3   3   1  447.55   18.08
  -3   3  -1  398.69   20.35
   0   3   2 1498.36   47.43
  -3   3  -2 1477.34   50.68
   0   3   2 1403.33   44.12
  -3   0   2 1587.74   55.31
   0   3   2 1560.36   40.56
   3  -3   2 1494.33   45.18
   3  -3   2 1546.19   60.00
   3  -3  -2 1366.83   48.73
   0  -3   2 1433.93   46.07
   3   0   2 1453.15   46.92
   3  -3   2 1532.59   42.31
  -3   0   2 1466.84   52.24
   0   3  -2 1489.55   54.06
   0  -3  -2 1514.15   51.74
  -3   3   2 1611.93   50.26
   0   3  -2 1538.53   70.08
  -3   0  -2 1522.07   46.18
  -3   0  -2 1468.73   40.33
  -3   3  -2 1633.76   43.72
  -3   3   2 1639.21   66.47
   3   0   2 1539.76   51.34
   0   3   2 1575.51   43.67
  -3   0  -2 1519.42   47.93
   3   0  -2 1416.29   50.97
   3  -3  -3 2401.44   74.43
  -3   0  -3 2507.45   72.23
  -3   3  -3 2411.29   76.30
   3   0   3 2474.66   77.13
   0  -3  -3 2446.57   78.16
   3  -3   3 2671.15   72.52
   0   3  -3 2466.80   97.18
  -3   0  -3 2480.89   71.14
   3  -3   3 2457.88   85.33
   3  -3  -3 2459.65   90.03
   0  -3   3 2350.61   70.74
  -3   0   3 2533.71   76.06
  -3   0   3 2360.41   78.59
   0   3  -3 2410.11   82.28
  -3   3   3 2469.07   92.05
   3   0  -3 2374.47   78.54
   0   3   3 2576.11   71.87
  -3   3  -4  999.08   40.07
   3  -3   4 1040.84   37.93
   0   3  -4 1051.28   47.06
   3  -3  -4 1031.12   38.37
   0   3  -4  987.48   54.22
   0  -3  -4 1020.27   41.85
   3  -3   4 1009.63   46.16
  -3   0  -4 1077.94   36.23
   0  -3   4  996.78   35.34
  -3   0   4 1013.64   34.59
   3  -3   4 1020.35   31.17
   3  -3  -4 1030.12   51.12
  -3   0   4  971.33   42.43
   3  -3   4  962.17   28.40
  -3   3   4 1186.48   55.16
   3   0  -4 1058.72   44.11
   0   3   4 1059.08   43.07
   3   0   4 1027.69   41.29
   0   3   4  994.05   35.16
  -3   3  -5 2497.79   81.55
   0   3  -5 2431.20   90.37
   3  -3   5 2578.26   80.47
   0   3   5 2535.05   78.82
   3   0   5 2603.08   84.41
   3  -3   5 2477.35   87.46
   3  -3  -5 2338.72   92.51
   0   3  -5 2460.46   98.29
   3  -3   5 2443.58   71.69
  -3   0  -5 2558.28   76.37
   0  -3  -5 2585.30   84.37
   0  -3   5 2430.52   75.82
  -3   0   5 2533.36   86.34
   0   3   5 2643.13   84.25
   3   0  -5 2452.22   87.17
  -3   3   5 2547.08   95.71
   3  -3  -5 2543.46   78.53
  -3   3   6  117.21    8.28
   3   0  -6  107.60   15.33
   3  -3  -6  115.41   12.06
   0   3   6  110.50   13.03
   3   0   6  136.28   16.22
  -3   0   6  113.86   15.19
   3  -3   6  120.96   14.91
   3  -3  -6  105.90   16.44
   0   3  -6  106.41   16.22
  -3   3  -6  103.97   12.95
   3  -3   6  130.28   14.20
  -3   0  -6  105.08   11.05
   0  -3   6  100.26   11.04
   0   3   6  114.19   12.95
   0  -3  -6  110.94   14.07
  -3   3   6   94.10   15.61
   0   3  -6  115.63   17.77
  -3   3  -7 1360.07   57.19
   3   0   7 1396.76   62.47
   3  -3   7 1360.99   59.86
   0   3   7 1306.25   56.78
   3  -3  -7 1386.69   52.92
   0  -3  -7 1420.84   59.81
   0  -3   7 1379.79   49.13
   3   0  -7 1351.68   64.22
   3  -3  -7 1291.86   64.53
   0   3  -7 1237.63   64.88
  -3   0  -7 1478.30   55.46
   0   3  -7 1276.75   64.88
  -3   0   7 1343.22   61.71
   0  -3   7 1372.03   53.76
   3  -3   7 1437.59   59.89
  -3   3   7 1398.28   66.00
   3  -3   8  263.62   26.43
   3  -3  -8  251.44   19.98
   3   0   8  255.61   26.46
   0   3  -8  254.95   27.73
   3  -3   8  248.14   22.21
  -3   0  -8  280.93   23.00
   0  -3   8  257.72   16.30
   0   3   8  194.96   21.51
   3  -3  -8  224.56   24.99
   0   3  -8  241.42   26.13
   0  -3  -8  220.13   22.94
  -3   3   8  245.40   25.75
  -3   0   8  229.67   24.71
   0  -3   8  224.46   20.16
   3   0  -8  254.89   27.64
  -3   3  -8  248.15   23.13
   0   3  -9  125.41   19.44
   3  -3  -9  164.75   17.36
  -3   3  -9  171.83   20.31
   3  -3   9  173.83   19.31
   0   3  -9  162.11   22.70
  -3   0  -9  165.89   18.42
   3  -3   9  175.95   23.96
   3   0  -9  145.84   21.15
   0   3   9  164.95   21.77
   0  -3  -9  154.79   21.08
   3   0   9  176.25   24.39
   0  -3   9  193.12   18.42
  -3   0   9  159.75   22.20
  -3   3   9  188.10   22.79
   3  -3 -10  635.17   36.74
   3   0  10  593.48   48.10
   3  -3  10  545.72   42.39
   0   3  10  550.99   40.07
   0   3 -10  508.64   41.44
   3  -3  10  527.87   34.42
  -3   3 -10  485.27   38.22
  -3   0  10  524.16   43.13
   0  -3 -10  550.45   42.64
   0   3 -10  472.19   38.59
   3   0 -10  544.92   39.96
  -3   3  10  583.10   42.05
   0   3 -11    4.13    6.90
   3   0  11   11.53   10.31
   0   3  11   -1.16    7.21
  -3   0  11    4.12    8.40
  -3   3  11    6.54    7.41
  -3   3 -11   -1.01    7.22
   3  -3  11    4.94    8.37
   3   0 -11    4.39    8.22
   0  -3 -11    6.96    9.29
  -3   3 -12  164.47   22.37
  -2   4   0 6930.40  188.28
  -2  -2   0 7119.54  178.40
  -2  -2   0 6797.19  199.17
   2   2   0 6675.45  195.95
   4  -2   0 6833.67  186.99
  -4   2   0 6940.01  184.44
  -4   2   0 6801.51  186.97
   2  -4   0 7119.62  186.06
  -2  -2   0 6853.81  186.67
   4  -2   0 6080.24  202.69
   2  -4   0 7125.98  208.16
   2   2   0 6787.95  181.47
  -4   2   0 6940.15  183.63
   2   2   1  144.53    8.70
  -2   4  -1  161.12   14.91
  -2  -2   1  147.96   10.46
   2   2  -1  139.63   14.79
   2   2  -1  171.79   17.35
   4  -2  -1  169.61   13.45
  -2  -2  -1  144.93    6.77
  -4   2  -1  151.75    7.57
  -4   2   1  146.99   14.00
  -4   2  -1  153.51    6.28
   4  -2   1  161.16   19.55
   4  -2  -1  182.63   20.45
  -2  -2   1  145.46   12.37
  -2  -2  -1  158.85   15.44
   4  -2   1  140.05   12.21
   2  -4  -1  156.82   12.82
  -4   2   1  120.55   12.11
   2  -4   1  143.63   10.98
  -2  -2  -1  164.33   12.70
   2   2  -1  153.47   12.02
   2  -4   1  156.20   13.86
   2   2   1  143.38   15.72
  -4   2  -1  165.67   12.27
  -4   2  -1  147.84   10.90
  -2   4   1  133.56   12.34
  -2   4  -2 2225.92   72.91
  -2  -2  -2 2079.35   68.51
   2   2  -2 2165.37   72.12
   2   2  -2 2170.80   83.62
   4  -2   2 2164.61   85.33
  -2  -2   2 2155.84   69.96
  -4   2  -2 2245.51   66.35
   2  -4   2 2156.11   66.52
   2   2  -2 2232.77   77.22
  -2  -2  -2 2273.38   70.58
   2  -4   2 2225.08   57.59
   4  -2   2 2305.70   69.64
  -4   2   2 2385.87   79.59
   4  -2  -2 2140.26   70.64
  -4   2  -2 2176.85   67.34
   2  -4  -2 2293.82   72.85
   2   2   2 2335.35   80.52
  -4   2   2 2166.30   74.44
   4  -2   2 2088.74   69.42
   2  -4   2 2249.57   62.11
   4  -2  -2 2274.02   81.41
   2   2   2 2186.74   60.18
  -2   4   2 2039.36   69.62
  -4   2  -3  900.69   34.01
  -2   4  -3  987.48   41.54
   4  -2  -3  912.45   38.97
  -2   4   3  936.84   29.61
   2   2   3  987.49   37.52
   2   2  -3  942.49   49.04
   2  -4   3  980.07   29.90
   2   2   3  967.49   45.86
   4  -2   3 1003.46   51.40
   4  -2  -3  959.89   42.76
   4  -2   3  982.59   38.02
  -4   2  -3  892.47   34.34
  -2  -2   3  997.32   39.00
   2   2  -3  912.11   42.56
  -2  -2  -3  931.82   37.54
  -4   2   3  950.00   43.52
   2  -4   3  950.55   34.95
  -2   4   3  873.17   37.43
   2  -4  -3  950.30   40.97
  -4   2  -4  787.75   30.65
   2   2   4  813.75   34.59
  -4   2  -4  751.98   30.67
  -2   4  -4  758.39   37.43
   4  -2  -4  816.54   36.85
   4  -2   4  816.68   35.04
   2  -4  -4  754.40   37.67
   2  -4   4  754.29   29.74
   4  -2   4  784.46   45.28
   4  -2  -4  761.04   34.50
  -2  -2   4  786.27   34.77
  -4   2   4  773.65   26.16
  -4   2   4  697.25   39.49
   2   2  -4  748.61   41.81
   2  -4   4  788.84   31.35
  -2  -2  -4  843.22   35.15
  -2   4   4  754.68   34.37
   4  -2  -5 1253.34   52.63
  -4   2  -5 1235.39   46.14
  -2   4  -5 1375.29   56.47
   4  -2   5 1230.17   50.60
  -2  -2   5 1291.76   50.83
   4  -2   5 1282.52   61.85
   2  -4  -5 1229.61   55.09
   2   2   5 1246.39   50.13
  -2  -2  -5 1467.46   52.32
   4  -2  -5 1354.99   46.59
   2  -4  -5 1327.60   43.69
   2   2  -5 1328.47   64.56
  -4   2   5 1152.41   57.26
   2  -4   5 1343.36   49.64
   4  -2   6  275.58   21.83
  -2   4  -6  251.92   23.03
   4  -2  -6  262.63   21.85
   4  -2   6  284.62   26.37
  -2   4   6  280.93   18.86
   2   2  -6  298.27   32.25
   2  -4   6  306.65   22.51
   2  -4  -6  253.71   14.99
   2  -4  -6  266.97   23.95
  -2  -2  -6  284.62   21.02
   2   2   6  294.75   22.10
  -2  -2   6  263.52   20.85
  -4   2   6  246.45   25.28
  -4   2  -6  274.88   18.89
   4  -2  -7 1017.11   49.72
  -4   2  -7  909.61   42.60
  -2   4  -7  959.44   50.95
   4  -2   7 1061.16   51.18
   2   2   7 1002.05   49.02
   2   2  -7  905.98   57.18
   2  -4  -7  935.01   52.25
  -2  -2  -7 1021.26   46.68
   4  -2   7  990.20   52.16
  -2  -2   7  958.46   47.07
   2  -4   7 1021.09   46.23
  -4   2   7 1002.55   56.99
  -2   4   7 1069.52   42.82
   4  -2  -8  487.38   34.16
   2   2  -8  386.60   35.61
  -4   2  -8  447.83   29.09
   4  -2   8  452.03   35.24
  -2   4   8  498.30   27.32
   2   2   8  438.11   33.31
   2  -4  -8  453.19   37.03
  -2  -2  -8  389.34   29.02
  -2  -2   8  450.04   31.79
  -4   2   8  416.49   37.67
  -2   4  -8  409.90   33.49
   4  -2   8  434.39   32.81
   2  -4   8  513.70   30.49
   4  -2  -9  221.01   24.66
  -2   4  -9  184.60   24.17
   2   2   9  218.30   25.53
   2  -4   9  202.83   21.66
  -4   2   9  206.32   27.48
   2   2  -9  187.18   24.46
   2  -4   9  241.38   20.77
   4  -2   9  217.42   26.84
   2  -4  -9  239.52   28.40
  -2  -2  -9  178.45   21.52
  -2  -2   9  219.57   23.47
   4  -2 -10  569.41   41.18
  -2   4 -10  614.59   46.53
   4  -2  10  637.74   49.98
   2   2  10  581.39   46.32
  -2  -2  10  564.67   41.69
  -2   4 -10  531.18   45.47
   2  -4 -10  550.46   45.54
  -2  -2 -10  616.42   42.96
   2   2 -10  570.66   42.88
  -4   2  10  604.87   47.13
   2  -4  10  631.93   39.51
  -2  -2  11    6.67    6.48
  -2   4  11   11.12    7.10
   2  -4  11   17.55    8.11
   4  -2 -11   30.34   10.93
  -2  -2 -11   18.92    9.13
   2   2  11    6.29    9.94
  -1   4   0  580.45   27.04
   3   1   0  526.38   23.25
  -3  -1   0  586.97   22.16
   1   3   0  563.35   27.63
   4  -1   0  530.26   25.25
   4  -3   0  518.53   25.89
  -3  -1   0  545.75   26.93
   4  -1   0  561.87   35.47
   1   3   0  579.99   24.47
  -4   1   0  511.79   26.09
   4  -3   0  551.81   35.45
   3  -4   0  548.06   22.47
   1  -4   0  517.07   25.29
  -4   3   0  613.33   29.10
  -1  -3   0  548.07   26.12
  -3   4   0  585.88   22.42
  -3  -1   0  569.20   25.30
  -4   3   0  537.33   18.43
  -4   3   0  552.64   25.63
  -1  -3   0  564.42   22.01
  -3   4   0  523.78   26.45
  -3  -1   1   44.41    7.83
  -3  -1  -1   35.79    2.54
  -4   1  -1   42.79    7.33
   4  -3  -1   40.60   10.34
  -4   1   1   35.03    6.70
   3   1  -1   40.30    6.30
  -4   3  -1   32.28    5.66
  -4   3  -1   36.66    6.51
   4  -3  -1   32.39    6.35
  -3   4   1   40.76    2.96
  -1   4   1   51.25    7.83
  -1   4  -1   40.30    7.35
   1   3   1   41.67    6.17
  -3  -1   1   35.30    6.37
   4  -3   1   29.18   10.40
   4  -1  -1   35.43    9.21
   4  -1   1   37.78   11.71
  -4   1  -1   38.31    4.61
  -3   4   1   39.11    7.05
   3  -4   1   39.40    3.39
  -3   4  -1   46.12    7.93
  -4   3   1   24.18    5.48
  -4   3   1   40.57    8.34
   4  -1   1   42.98    6.98
   3   1   1   38.76    5.18
   3  -4   1   54.07    6.47
  -4   3   1   36.37    4.81
   1  -4  -1   44.24    7.35
  -1  -3  -1   38.99    7.09
   1  -4   1   35.87    6.31
  -3  -1  -1   39.43    6.13
   4  -1  -1   40.02    7.22
  -4   1  -1   35.32    4.19
   1   3  -1   58.11    8.54
  -1  -3   1   37.08    7.10
   1   3   1   38.14    4.43
  -3   4   1   31.29    5.95
  -3  -1  -1   35.17    6.77
  -1  -3   1   41.94    6.25
  -1   4   1   47.51    5.09
   1   3  -1   43.13    8.35
  -4   3  -2 1265.03   45.63
  -3   4  -2 1220.34   47.66
  -1   4  -2 1380.69   50.77
   1   3   2 1340.39   43.03
   4  -1  -2 1259.80   47.42
  -3   4   2 1254.78   36.33
   1   3   2 1220.03   52.35
   4  -1   2 1266.31   60.26
   1  -4   2 1256.48   35.42
   3   1   2 1265.53   40.57
   4  -3  -2 1201.78   46.25
   4  -3   2 1295.91   58.89
   4  -3  -2 1328.60   59.90
  -4   1  -2 1276.67   46.21
  -1  -3   2 1263.37   44.40
  -3  -1   2 1254.10   48.16
  -4   1  -2 1249.90   38.11
   3  -4  -2 1233.24   49.62
  -4   1   2 1289.56   44.54
   4  -1   2 1226.41   44.79
   1   3  -2 1240.74   53.73
  -4   3   2 1289.27   44.94
   3  -4   2 1207.41   40.69
   1  -4  -2 1224.10   47.59
  -3  -1  -2 1280.93   44.00
  -4   3  -2 1330.34   43.78
  -1   4   2 1289.75   38.29
  -1  -3  -2 1250.47   46.57
  -3  -1  -2 1313.78   43.66
   1  -4   2 1249.96   45.50
  -4   3   2 1240.82   54.09
  -4   1   2 1243.62   49.00
   3   1  -2 1239.16   46.72
  -3   4   2 1251.48   50.35
   1   3  -2 1265.76   53.77
   1  -4   2 1305.39   39.46
  -3   4   2 1230.47   47.43
   1   3   2 1297.71   34.35
  -1   4   2 1289.93   45.73
  -4   1  -2 1286.97   39.34
  -4   3  -3  253.22   16.58
  -4   1  -3  236.27   12.08
  -3   4  -3  236.38   17.84
   1   3   3  253.98   13.19
   4  -1  -3  251.09   18.44
  -1   4  -3  248.47   19.46
   3   1   3  260.82   17.72
   4  -1   3  275.64   18.25
   4  -3   3  260.24   15.61
   3  -4   3  246.37   12.00
   1   3  -3  272.62   23.12
   1   3   3  297.79   22.33
  -4   1   3  232.37   18.83
  -4   1  -3  238.08   11.59
  -1   4   3  254.54   11.47
   3   1  -3  250.73   18.67
   3  -4   3  268.56   22.15
   1   3   3  265.39   15.14
  -4   1  -3  238.51   16.31
   4  -3  -3  218.32   16.37
  -1  -3   3  246.14   15.69
   4  -3   3  305.94   25.41
   1  -4   3  250.37   12.14
   3  -4  -3  249.31   20.24
   1   3  -3  217.72   22.50
   1  -4  -3  220.50   17.67
  -4   3  -3  266.92   13.86
   3  -4  -3  216.02   15.02
  -1  -3  -3  243.30   17.57
  -3  -1  -3  253.65   15.77
   3  -4   3  252.58   12.89
   3   1   3  236.61   12.56
   1  -4   3  238.31   16.24
  -3  -1  -3  258.46   14.22
   4  -3  -3  259.01   24.55
  -4   3   3  245.69   22.70
   4  -1   3  235.13   23.51
  -3   4   3  271.83   22.62
  -3   4   3  274.39   18.84
  -1   4   3  247.15   10.47
  -3  -1   3  250.85   18.41
  -1   4   3  241.46   15.94
   4  -3  -4    7.25    4.98
  -1  -3   4    0.67    3.38
  -4   3  -4    4.08    2.05
   1   3  -4    9.08    8.60
  -3  -1   4    6.58    5.66
   1  -4   4   15.22    3.09
  -4   1   4    6.49    5.05
  -4   3  -4    6.46    4.16
   4  -1  -4   11.53    6.59
  -3   4  -4    6.20    4.67
   3  -4   4    7.25    2.65
   1   3   4    7.86    5.90
  -3   4   4    7.84    7.56
   1   3  -4   12.12    8.24
  -4   3   4    7.57    7.05
   3   1   4    6.23    5.17
   4  -3   4   13.12    8.71
   4  -3  -4   34.71    8.94
  -1   4  -4   20.37    7.33
   3  -4   4    6.69    6.33
   4  -3   4    4.69    3.73
   4  -1   4    5.39    5.21
  -3  -1  -4    2.00    2.04
  -1   4   4    5.69    1.59
   3  -4  -4    4.88    3.46
   3   1  -4   -1.62    5.58
   3  -4  -4   23.49    7.77
  -4   1  -4    4.84    2.40
  -4   1  -4    7.07    2.61
   1  -4  -4    6.91    5.41
  -1  -3  -4   20.37    6.75
  -3  -1  -4    8.49    4.13
  -1   4   4    7.55    3.97
   1   3   4    5.31    3.96
   3  -4   4    4.29    2.26
   1   3   4    5.29    2.32
   4  -1   4    7.79    8.41
   3  -4  -5  380.08   29.90
  -1   4   5  373.56   20.00
  -4   3  -5  387.78   22.98
  -3   4  -5  344.40   24.71
  -1   4  -5  393.07   28.59
  -4   1  -5  384.72   19.02
   3   1   5  413.35   25.59
   4  -3   5  402.35   23.57
   1   3  -5  368.57   31.61
   3  -4   5  402.73   21.41
   4  -3  -5  382.96   24.02
   4  -3   5  351.39   29.11
   1   3   5  417.59   23.32
   1   3   5  408.81   27.88
  -1   4   5  388.88   24.47
   4  -3  -5  394.50   25.01
   3  -4   5  405.92   27.94
   3  -4  -5  404.47   21.78
  -4   3  -5  412.84   16.76
  -4   1  -5  415.68   19.33
   1  -4  -5  345.18   25.27
  -3  -1  -5  405.26   22.65
  -1  -3  -5  404.47   25.21
  -1  -3   5  343.93   21.38
  -3  -1   5  377.71   25.56
   4  -1   5  366.81   24.67
  -4   1   5  410.35   28.94
   1  -4   5  392.01   18.47
   3  -4   5  368.10   17.48
   3   1  -5  352.69   27.51
  -4   3   5  384.35   32.72
   1   3  -5  377.62   34.33
  -3   4   5  386.78   30.96
  -1   4   5  387.17   22.19
   4  -1  -5  372.96   26.49
   1   3   5  398.14   16.98
   1   3   6    1.12    1.87
   1   3   6    1.24    4.31
   1   3   6    2.29    6.50
   4  -1  -6    1.49    6.25
   1   3  -6   -2.91    8.10
  -1  -3   6   -2.40    4.29
  -3  -1   6    2.22    5.38
  -4   1   6   -0.84    6.12
  -1   4   6   -1.61    3.66
   4  -3   6   -0.50    4.95
   3  -4   6    2.90    4.92
  -1   4   6    3.32    3.94
  -4   3   6   -2.41    8.30
   3   1   6    1.54    5.94
  -4   3  -6    8.39    4.92
  -3   4  -6   -6.82    5.84
  -1   4   6    8.41    5.22
  -1   4  -6   -4.74    8.72
  -3   4   6   10.36    7.85
  -4   1  -6    3.60    3.84
   4  -3   6    6.93    7.39
   4  -3  -6    4.33    4.04
   3  -4   6    4.23    6.26
   1  -4   6    0.51    2.60
   3  -4  -6    4.30    3.99
   4  -1   6   -0.42    5.83
   3   1  -6    5.29    6.74
   4  -3  -6    0.26    4.87
   1   3  -6   -1.35    7.08
  -4   1  -6    2.11    3.67
   3  -4  -6   14.36   10.63
   1  -4  -6    1.14    6.06
  -3  -1  -6    1.48    4.56
  -1  -3  -6    4.26    5.47
  -1  -3   7  182.81   17.33
   4  -1   7  170.49   19.66
  -3   4  -7  164.58   18.77
  -4   3  -7  166.69   17.13
   1   3  -7  131.16   20.36
   4  -3  -7  173.77   17.59
   3   1   7  201.33   21.11
   1   3   7  193.89   18.72
   3  -4   7  185.00   18.47
  -1   4   7  142.46   15.77
  -3   4   7  187.81   13.86
  -1   4   7  194.52   17.91
   4  -3   7  163.24   20.15
   3  -4  -7  190.13   15.36
  -1   4  -7  171.53   21.35
   3  -4   7  187.51   19.51
   1   3  -7  166.83   22.47
  -4   3   7  174.52   23.84
   4  -3   7  208.72   20.59
   1  -4  -7  161.23   19.15
  -3  -1  -7  195.71   17.51
  -1  -3  -7  180.90   19.12
   3   1  -7  218.08   25.80
  -3  -1   7  162.90   19.68
   1  -4   7  181.53   16.58
  -4   1   7  179.73   21.91
   3  -4  -7  171.67   22.21
  -1   4  -7  167.17   23.62
  -3   4   7  204.81   23.34
   4  -1  -7  210.59   22.23
   4  -1  -8  190.18   23.24
   1  -4  -8  241.47   25.48
   4  -3  -8  232.30   21.63
  -4   1   8  176.04   23.41
  -3   4  -8  202.01   22.38
  -1   4  -8  188.63   24.00
   3   1   8  224.86   24.43
   4  -3   8  225.42   23.94
   1   3   8  186.55   20.43
   3  -4   8  192.81   21.79
  -1   4   8  188.97   19.91
   1   3  -8  215.32   25.94
  -1   4   8  233.71   20.48
   3  -4  -8  195.38   16.81
   4  -3   8  202.77   22.47
   3  -4   8  229.41   21.67
   1  -4   8  214.23   18.03
  -3  -1  -8  190.56   19.39
  -1  -3  -8  194.92   21.30
   3   1  -8  233.60   28.00
   1   3  -8  210.58   25.44
   4  -1   8  207.28   24.04
  -3  -1   8  236.99   24.38
  -1  -3   8  210.47   20.16
   3  -4  -8  214.16   25.50
  -1   4  -8  177.57   24.81
  -4   3   8  220.87   25.72
  -4   3  -8  211.51   20.61
  -3   4   8  192.77   23.60
   4  -3   9   68.27   15.70
   4  -1   9   70.37   16.67
   1   3  -9   66.87   15.04
  -3  -1   9   59.74   14.62
  -4   3  -9   75.71   13.49
   3   1   9   77.30   17.39
  -4   1   9   50.15   14.84
   3  -4   9   73.09   15.75
  -1   4   9   79.08   14.48
  -3   4  -9   86.97   16.23
  -1   4  -9   56.55   14.92
  -3   4   9   61.98   14.36
   4  -3   9   54.79   12.25
  -1  -3   9   51.52   11.40
   3  -4   9   56.74   12.02
   1   3   9   99.66   16.99
   4  -3  -9   78.31   13.89
   3   1  -9   76.51   16.86
   3  -4  -9   54.77   15.23
  -3  -1  -9   71.40   13.49
   1  -4  -9   64.96   15.58
  -1  -3  -9   80.85   15.59
  -1   4  -9   48.46   14.27
  -4   3   9  101.34   18.86
   4  -1  -9   99.08   18.87
   4  -3  10   93.53   19.86
   4  -1 -10   92.76   17.59
   1   3  10  101.26   18.05
   1   3 -10   61.66   14.65
  -4   1  10   79.35   18.85
   3  -4  10   87.08   17.01
  -1   4  10   78.22   15.24
  -4   3  10   88.98   17.93
  -3   4 -10   64.68   15.73
  -1   4 -10   58.93   15.75
  -3   4  10   75.23   15.35
   4  -3  10   51.88   12.23
   4  -3 -10  107.62   16.75
  -4   3 -10   58.58   13.56
   3   1 -10   59.07   14.94
   3  -4 -10  110.89   20.32
  -3  -1 -10   57.40   13.64
   1  -4 -10   59.64   16.57
  -1  -3 -10   73.16   16.08
   4  -1  10   51.64   15.99
  -1   4 -10   64.52   15.05
   3   1  10  107.08   20.91
  -3  -1  10   51.92   14.66
   4  -3  11  -13.06   11.03
   1   3  11   -2.15    8.47
  -3  -1  11   -6.73   10.36
   3  -4  11   16.40    8.26
  -1   4  11    6.83    7.78
  -3   4 -11    1.87    8.98
   4  -3 -11    3.01    5.93
  -4   0   0   66.69    9.57
  -4   4   0   64.29    5.92
  -4   4   0   54.76    8.38
  -4   4   0   51.02    8.38
   0   4   0   53.24    8.26
   0  -4   0   48.85    4.98
  -4   0   0   69.92   10.45
   4  -4   0   53.83   11.49
   4  -4   0   53.14    5.79
  -4   4   0   71.81    5.62
   4  -4   0   65.84   10.06
   0  -4   0   59.34    8.47
   0   4   0   56.54    9.53
   4   0   0   50.83    7.44
   0   4   1  141.04   12.19
   0   4  -1  127.48   13.25
   4   0  -1  110.27   11.26
  -4   4   1  119.24    8.29
   0  -4   1  130.59    8.08
  -4   0  -1  133.96   11.59
  -4   4  -1  119.73    8.79
   4   0   1  115.91   10.48
   4  -4   1  135.45   17.49
  -4   0  -1  119.91   12.28
   4  -4  -1  143.86   18.55
   4  -4   1  125.36    9.71
   0   4   1  144.80   11.94
  -4   0   1  138.43   13.79
   0  -4  -1  109.75   11.62
  -4   4   1  134.65    9.24
   0  -4   1  118.26   11.92
  -4   0  -1  124.74    9.92
   4  -4  -1  124.47   12.27
  -4   4   1  147.59   16.92
   0   4  -1  122.06   16.92
  -4   4  -1  129.46   10.22
  -4   0  -1  125.83    7.03
  -4   4   1  106.22   11.72
  -4   4  -1  109.66   11.62
  -4   4  -2  497.91   26.83
  -4   0  -2  512.42   15.70
   0   4   2  514.94   24.99
   4   0  -2  545.18   27.59
  -4   0  -2  527.79   27.46
   0   4  -2  510.49   29.63
  -4   0  -2  499.02   17.99
   0  -4   2  521.81   20.15
   0   4   2  521.70   17.07
   4  -4   2  539.00   34.86
   0  -4   2  499.88   22.81
   0   4  -2  639.08   46.07
   4  -4  -2  578.73   36.98
  -4   0   2  506.68   28.82
   0   4   2  522.17   18.85
   4  -4  -2  500.90   26.43
   0  -4  -2  501.49   27.30
  -4   0  -2  580.31   23.41
   4   0   2  532.72   24.33
   0  -4   2  478.29   26.21
  -4   4   2  538.18   34.93
  -4   4  -2  527.88   16.54
  -4   4   2  533.30   28.01
   4   0  -3  637.83   33.21
   0   4   3  687.34   29.69
  -4   4  -3  642.15   32.43
   0   4  -3  705.43   37.88
   4   0   3  742.18   34.44
   4  -4   3  777.12   28.04
   4  -4   3  721.13   41.07
   0   4  -3  781.76   50.17
   4  -4  -3  648.48   31.53
   0  -4   3  671.63   27.99
   4  -4  -3  674.38   42.20
  -4   0   3  684.95   35.50
   0  -4  -3  659.93   33.69
  -4   0  -3  733.35   28.41
   4   0   3  693.77   28.97
   0  -4   3  666.23   32.74
  -4   4   3  735.51   42.70
   0  -4   4   12.62    3.98
  -4   0   4   15.57    6.86
   4   0  -4   20.15    7.81
  -4   4   4   18.67    8.50
   4  -4   4    7.85    3.39
   0   4   4   15.40    4.30
   0   4   4   11.01    7.08
   0   4  -4    3.83    5.50
   0   4   4   23.44    4.68
   4  -4   4   13.20    8.63
   4   0   4    9.32    5.55
   4  -4  -4   10.00    7.90
   0  -4  -4   13.88    6.03
  -4   0  -4    8.05    3.88
   4  -4  -4   12.27    5.32
   0   4  -4   10.55    9.44
  -4   4  -4   16.28    6.63
  -4   4  -5  731.52   36.69
   0   4  -5  734.12   43.55
   4   0   5  744.06   37.82
   4  -4   5  730.98   32.08
   0   4   5  770.56   31.61
   0   4   5  731.58   39.01
   4  -4  -5  721.18   34.57
   4  -4   5  716.65   42.18
   0   4  -5  653.44   46.77
   4  -4  -5  653.21   44.21
  -4   0  -5  736.51   31.05
   0  -4  -5  721.23   38.01
   0  -4   5  683.48   30.28
  -4   0   5  699.48   39.33
  -4   4   5  749.72   45.51
   4   0  -5  719.89   39.93
   0   4   5  673.88   30.27
   4   0   6   38.86    9.78
  -4   0   6   39.80   10.00
   4  -4   6   43.04    8.32
   0   4   6   44.04    6.97
   0   4   6   45.62    8.20
   4  -4  -6   56.18    9.48
   0   4   6   46.58   10.43
  -4   4  -6   44.04    9.53
   0   4  -6   51.10   12.45
  -4   4   6   41.92   11.52
   0  -4   6   47.41    7.98
   4  -4  -6   25.59   10.38
  -4   0  -6   46.00    7.55
   0  -4  -6   40.68    9.84
   0   4  -6   28.94   12.46
   4   0  -6   46.49   11.67
   4  -4   6   44.86   11.62
  -4   4  -7  243.78   22.54
   4   0   7  228.52   23.51
   0   4  -7  224.52   26.11
   4  -4   7  215.14   20.15
   0   4   7  188.79   17.63
   0   4   7  218.02   21.22
   4  -4  -7  215.19   19.06
   4  -4   7  230.24   23.71
  -4   0  -7  230.45   18.31
   0  -4  -7  240.30   22.91
  -4   0   7  197.50   23.11
   4  -4  -7  187.93   24.51
  -4   4   7  252.31   26.66
   4   0  -7  242.21   25.79
   0   4  -7  188.30   24.72
   0   4  -8   51.67   14.77
  -4   4   8   38.10   11.91
   4  -4  -8   41.02    9.09
  -4   4  -8   38.75   10.46
  -4   0   8   29.70   11.45
   4   0   8   59.08   14.74
   4  -4   8   47.70   11.82
   0   4   8   48.93   10.54
   0   4  -8   35.06   13.05
   4  -4   8   44.21   10.89
   0  -4  -8   37.61   11.15
   4   0  -8   40.55   13.28
   4  -4  -9   29.48    8.81
   0   4  -9   10.91    7.99
  -4   0   9   48.19   14.06
   4   0   9   31.39   13.44
   4  -4   9   45.86   11.94
  -4   4  -9   24.97    9.74
   0   4  -9   24.70   11.44
   4  -4   9   26.28    9.72
   0   4   9   46.59   11.30
   0  -4  -9   36.79   12.06
  -4   4   9   28.41   11.88
   4   0  -9   27.16   13.09
  -4   0  10   39.79   13.81
   4  -4  10    1.53    7.86
   0   4  10   22.95   10.30
  -4   4  10   15.64    8.94
  -4   4 -10   27.23   10.90
   0   4 -10   13.75   10.20
   4  -4  10   32.98   10.77
   0  -4 -10    7.05    7.35
   4   0 -10   37.75   13.66
  -3   5   0  355.11   22.91
  -2   5   0  360.55   22.92
   3   2   0  340.15   18.18
   2   3   0  419.77   29.08
   3   2   0  395.94   29.98
   2   3   0  361.28   27.65
   5  -2   0  380.53   35.51
   5  -3   0  364.53   33.27
   5  -2   0  347.26   22.06
  -2  -3   0  339.38   21.21
  -3  -2   0  363.16   22.70
   5  -3   0  348.04   22.27
  -5   2   0  319.94   21.97
   3  -5   0  383.89   22.09
   2  -5   0  335.80   21.18
  -5   3   0  387.65   24.59
  -2  -3   0  338.66   21.75
  -3  -2   0  380.42   22.07
   2   3   0  303.17   16.89
  -5   2   0  342.34   18.76
  -5   3   0  356.50   20.57
   3   2  -1   32.02    6.44
  -2  -3   1   29.27    6.85
  -3  -2   1   29.32    7.48
   5  -3  -1   30.06    6.71
  -5   2  -1   32.47    7.15
  -5   2   1   31.47    8.12
  -5   3  -1   29.50    6.86
   2   3   1   36.82    4.65
  -5   3  -1   22.13    5.50
  -3   5   1   39.31    8.39
  -2   5   1   38.87    8.11
  -3   5  -1   30.03    7.41
  -2   5  -1   31.55    8.38
  -5   2  -1   21.58    4.88
   3   2   1   31.49    9.72
   3   2  -1   45.06   11.24
   2   3  -1   26.97    8.89
  -5   3   1   22.08    5.72
   2   3  -1   34.56   10.35
   2   3   1   35.49    6.69
   5  -2  -1   33.28    7.70
   5  -2  -1   82.43   15.53
   5  -2   1   38.15   12.79
   5  -3   1   55.15   14.69
   5  -3  -1   17.58   11.37
   5  -3   1   33.91    7.47
   3   2   1   33.46    5.11
   2   3  -1   35.72    6.42
  -5   3   1   27.67    8.23
  -5   2  -1   34.93    3.61
   3  -5  -1   29.08    6.98
   3  -5   1   34.15    6.35
   2  -5  -1   29.89    7.10
   2  -5   1   33.17    6.86
  -2  -3  -1   30.31    7.16
  -3  -2  -1   24.11    6.08
  -2  -3   1   26.83    6.85
  -3  -2   1   25.36    7.01
   5  -2   1   40.35    8.21
  -3  -2  -1   29.88    7.23
   2   3   1   34.54    9.99
  -5   3  -2  805.68   33.73
   5  -2   2  830.52   51.73
  -3   5  -2  718.08   36.84
   2   3   2  785.12   43.17
  -2   5  -2  793.39   38.69
   2   3  -2  729.50   46.11
   2   3   2  785.80   24.17
   5  -2  -2  788.13   36.85
   3   2  -2  844.90   46.27
   2   3  -2  788.69   43.65
   3   2   2  792.84   27.66
   5  -2  -2  890.14   45.92
   5  -3   2  758.92   49.11
   5  -3  -2  777.76   48.59
   5  -3  -2  751.27   36.32
   2  -5   2  753.34   25.11
  -2  -3   2  722.40   34.15
  -3  -2   2  717.49   35.80
  -5   2  -2  767.45   34.86
   3  -5  -2  762.65   37.66
   2  -5  -2  758.08   37.13
  -5   3  -2  833.15   35.62
   3  -5   2  854.35   33.74
  -5   2   2  761.17   39.07
  -2  -3  -2  784.35   35.54
   2  -5   2  772.82   34.03
  -3  -2  -2  798.05   34.34
   5  -2   2  743.98   35.16
  -5   3   2  802.52   42.05
  -2  -3   2  847.04   38.46
   2   3  -2  788.22   36.75
   3   2  -2  761.32   35.30
  -3   5   2  762.01   36.60
  -2   5   2  817.65   36.81
  -5   2  -2  752.40   30.27
  -5   3  -3  204.53   15.26
  -5   2  -3  193.29   13.23
  -3   5  -3  212.32   18.91
  -2   5  -3  214.14   19.42
   2   3  -3  231.42   24.93
   5  -2  -3  198.57   17.66
   5  -3   3  217.67   25.46
   2   3   3  226.43   22.50
   3   2  -3  217.08   22.66
   5  -3  -3  195.89   17.51
   5  -2  -3  192.00   18.98
   5  -2   3  232.69   26.70
   5  -3  -3  241.00   23.24
  -5   2  -3  214.75   16.44
  -2  -3   3  221.96   17.33
  -3  -2   3  205.18   17.62
   3  -5  -3  204.23   19.21
  -5   3  -3  250.30   16.65
   2  -5  -3  194.44   18.15
  -2  -3  -3  186.21   16.47
  -3  -2  -3  221.46   16.73
   3  -5   3  221.99   14.94
   3   2   3  217.40   10.80
  -5   2   3  229.69   21.06
   2  -5   3  193.76   15.42
   2   3  -3  198.93   19.12
  -5   3   3  244.26   23.07
   3   2  -3  209.54   18.15
  -3   5   3  221.57   18.33
  -2   5   3  192.87   16.69
  -5   2  -4    3.35    3.76
  -5   3  -4   14.17    4.32
  -2  -3   4   11.11    5.87
  -3  -2   4    0.30    4.92
   5  -3   4    7.23    4.25
   5  -3  -4   10.84    6.42
  -5   2   4    6.66    6.72
  -5   3   4   17.00    8.99
   2   3   4    3.42    4.51
  -2   5   4   15.39    5.84
  -5   3  -4   12.02    4.94
  -3   5  -4   -6.43    5.57
   2   3   4    9.34    7.02
  -2   5  -4   11.09    6.95
   3   2  -4    7.49    7.37
   5  -2   4   11.22    6.30
   2   3  -4   17.16    8.37
   3   2   4   10.11    5.54
   5  -2  -4   14.10    5.63
   2   3  -4   -4.45    8.39
   5  -2   4   27.68   11.26
   5  -3   4    4.73    7.47
   5  -3  -4   -2.03    5.15
   3   2  -4    8.13    6.67
   5  -2  -4   18.19    7.51
   3  -5  -4    2.92    5.67
   2  -5  -4   26.06    7.98
  -5   2  -4    9.54    3.83
  -2  -3  -4    6.43    5.30
  -3  -2  -4   12.38    5.56
   3  -5   4   11.84    3.86
  -3   5   4    6.01    5.38
   2  -5   4    3.43    4.05
  -5   3  -5  279.56   19.64
  -3   5  -5  295.08   24.66
  -5   2  -5  291.41   17.84
  -2   5  -5  279.06   24.81
   5  -2  -5  302.30   24.68
   5  -2   5  293.45   22.66
   5  -3   5  293.35   21.74
   5  -3  -5  307.79   23.94
   2   3  -5  278.10   28.19
   3   2   5  293.83   22.16
   3   2  -5  288.94   23.25
   5  -2   5  312.65   30.56
   5  -3   5  301.09   30.22
   5  -3  -5  300.49   21.85
   3  -5   5  367.87   27.91
  -5   2  -5  290.66   19.84
   3  -5  -5  260.43   24.46
   2  -5  -5  298.40   25.08
  -3  -2  -5  283.18   21.07
  -2  -3   5  270.93   20.87
  -3  -2   5  287.55   23.03
   2   3  -5  293.41   29.66
  -2  -3  -5  296.77   22.43
   3  -5   5  290.53   18.01
  -5   2   5  296.50   27.04
   2  -5   5  290.98   20.37
   2   3   5  279.84   20.39
  -5   3   5  342.70   30.52
   3   2  -5  332.91   28.34
  -3   5   5  267.26   21.88
  -2   5   5  281.25   21.31
  -2  -3   6    2.65    5.19
  -3  -2   6    7.35    6.64
  -5   2   6   -3.18    6.28
  -3   5   6   -0.67    5.20
  -2   5   6    3.42    4.88
   5  -2   6    2.45    6.34
   3   2   6   18.31    7.66
   5  -3   6    7.01    6.56
  -5   3   6   -6.39    8.63
  -5   3  -6    3.86    4.37
   2   3   6    2.31    5.69
  -3   5  -6   -0.66    5.47
   2   3  -6   -4.79   10.29
  -2   5   6    1.02    4.50
  -2   5  -6   -5.59    8.48
   5  -2   6    4.92    8.31
   5  -3   6    2.78    7.86
   5  -2  -6   10.83    8.45
   3  -5   6   -4.19    7.00
   3   2  -6   -5.99    8.79
   3  -5  -6    5.32    7.76
   2  -5  -6    0.02    6.01
  -3  -2  -6   -1.88    4.48
  -2  -3  -6    0.63    4.93
   5  -3  -6   -3.38    5.51
   2  -5   6   -0.22    3.81
  -5   2  -6    2.70    4.93
   5  -2   7  176.31   20.06
   2   3  -7  159.69   23.80
  -2   5   7  124.60   15.57
   3   2   7  123.50   16.77
  -5   3  -7  150.20   16.28
  -2  -3   7  115.50   15.53
  -3  -2   7  127.59   17.31
  -5   2   7   87.63   17.94
  -5   3   7  135.73   22.78
  -3   5   7  143.57   14.38
  -2   5   7  124.26   14.86
  -3   5  -7  146.94   19.61
  -2   5  -7  132.64   19.66
   5  -2  -7  129.47   19.10
   5  -3   7  121.18   19.04
   3  -5   7  116.98   16.27
   3   2  -7  148.67   24.21
  -3  -2  -7  160.49   17.16
   2  -5   7  138.65   16.70
   5  -3  -7  142.84   18.05
   3  -5  -7  106.91   19.52
   2  -5  -7  117.22   18.27
  -2  -3  -7  135.57   16.86
   2   3   7  124.40   15.82
   5  -3   7  135.60   17.53
  -3  -2   8  107.03   17.34
  -2  -3   8  125.76   17.70
  -5   2   8  112.42   21.29
   5  -2   8  136.58   20.14
   2   3   8  142.60   18.49
  -5   3   8  158.99   25.53
  -2   5   8  112.14   15.66
   2   3  -8  174.07   24.70
  -3   5  -8  133.04   19.23
  -2   5  -8  110.58   19.07
   5  -2  -8  122.12   19.21
   5  -3   8  149.79   21.02
  -2   5   8  138.08   15.75
   3  -5   8  136.37   17.62
   2  -5   8  111.84   15.11
   3   2  -8  162.87   25.81
   5  -3  -8  134.67   18.90
   3  -5  -8  130.47   21.76
   2  -5  -8   96.75   18.42
  -3  -2  -8  140.93   17.78
  -2  -3  -8  116.86   16.96
   5  -3   8  120.26   17.93
   3   2   8  157.53   20.59
  -3  -2   9   45.80   13.18
  -2  -3   9   38.97   11.26
   5  -2   9   56.67   14.68
   3   2   9   64.10   15.21
   5  -3   9   50.69   13.31
   2   3   9   45.63   12.02
  -5   2   9   45.27   14.21
  -5   3   9   50.52   15.69
   5  -2  -9   29.21   11.32
  -3   5  -9   47.29   13.43
   2   3  -9   25.22   11.49
  -2   5  -9   51.04   14.56
   5  -3   9   45.30   12.76
   3  -5   9   48.77   11.26
   5  -3  -9   64.12   13.91
   3   2  -9   63.09   16.61
   3  -5  -9   44.11   14.67
   2  -5  -9   68.03   16.21
  -2   5  -9   40.19   15.48
  -3  -2  -9   55.75   12.12
  -2  -3  -9   38.63   10.65
   2   3  10   45.10   13.80
  -3  -2  10   51.09   15.35
   5  -3 -10   38.71   12.47
  -3  -2 -10   74.64   15.12
  -2  -3 -10   46.61   12.93
  -1   5   0 2411.05   80.91
   1   4   0 2347.29   83.05
   4   1   0 2332.36   73.97
   5  -1   0 2365.04   77.61
   5  -4   0 2419.31   97.93
  -4  -1   0 2284.89   80.05
   4  -5   0 2456.58   81.79
  -5   1   0 2356.20   80.88
   1  -5   0 2395.62   78.84
   1   4   0 2271.02   72.10
  -1  -4   0 2313.61   78.52
  -4  -1   0 2368.23   75.89
  -5   4   0 2387.22   86.34
  -5   4   0 2300.35   77.89
  -4   5   0 2362.97   80.32
  -4   5  -1  197.81   17.74
  -5   4   1  155.44   18.77
  -1   5   1  181.57   16.49
  -1   5  -1  207.82   18.36
   4   1  -1  208.36   16.01
   1   4   1  231.57   18.44
   1   4  -1  192.60   19.32
   5  -1  -1  183.55   16.16
   4   1   1  219.63   14.58
   5  -4   1  278.33   27.13
  -1  -4   1  203.72   15.49
   5  -1   1  206.64   16.38
  -4  -1  -1  206.83   17.79
   5  -4  -1  193.04   24.38
  -4  -1   1  180.05   17.13
  -5   1  -1  202.40   17.61
   4  -5  -1  229.00   20.18
  -5   1   1  216.72   18.69
   1  -5  -1  217.27   18.05
   1   4  -1  191.36   16.30
   5  -4  -1  202.40   17.34
  -1  -4  -1  202.92   16.85
   1  -5   1  210.22   16.88
  -4  -1  -1  204.72   15.31
  -5   1  -1  199.69   12.09
  -1  -4   1  177.53   16.49
  -5   4  -1  232.23   19.29
   1   4   1  206.90   11.19
  -5   4   1  221.05   17.43
  -5   1  -1  205.14   11.96
  -4   5   1  188.45   17.07
  -5   4  -1  235.14   17.71
  -5   1  -2  842.41   27.87
  -5   4  -2  752.83   35.80
   4   1  -2  794.83   36.47
  -1   5   2  825.00   36.83
  -4   5  -2  736.09   37.37
  -1   5  -2  749.49   39.65
   1   4   2  840.11   36.14
   1   4  -2  751.20   42.93
   5  -1  -2  763.77   36.91
   1   4   2  829.50   44.16
   5  -4   2  818.91   49.10
   5  -4  -2  789.72   51.72
   4   1   2  739.97   30.52
   4  -5   2  823.90   46.68
  -4  -1  -2  703.36   36.25
   1  -5   2  784.23   29.45
  -1  -4   2  791.24   34.01
  -5   1  -2  736.57   36.56
   5  -4  -2  723.56   36.31
   4  -5  -2  826.09   44.05
  -4  -1   2  755.85   38.42
   4  -5   2  774.10   32.61
   5  -1   2  727.37   34.18
  -5   1   2  736.79   38.97
   1   4  -2  761.94   40.46
   1  -5  -2  721.49   37.10
  -1  -4  -2  813.77   37.76
  -5   1  -2  759.62   27.76
  -4  -1  -2  805.19   33.78
   1  -5   2  683.23   34.50
  -1  -4   2  742.00   36.86
  -5   4  -2  895.69   37.60
  -5   4   2  830.91   47.72
  -5   4   2  709.21   35.75
  -4   5   2  739.56   37.30
  -4   5   2  827.79   37.91
  -1   5   3 1123.46   45.66
  -5   4  -3 1108.61   45.90
  -4   5  -3 1139.56   49.42
   1   4   3 1211.85   43.63
  -1   5  -3 1036.20   50.55
   5  -1  -3 1103.15   48.60
   1   4  -3 1044.03   55.30
   1   4   3 1112.07   53.88
   5  -4   3 1086.81   58.71
   5  -4  -3 1233.76   65.85
   4  -5   3 1096.09   55.69
   5  -4  -3 1046.16   46.69
  -5   1  -3 1076.18   46.43
  -1  -4   3 1046.63   42.74
   1  -5   3 1118.43   37.77
   4  -5  -3 1059.57   55.22
  -4  -1   3 1109.59   49.63
   1   4  -3 1095.71   56.46
   1  -5  -3 1146.27   49.65
  -5   1  -3 1172.53   36.88
  -1  -4  -3 1093.48   47.66
  -5   1   3 1100.03   51.10
  -4  -1  -3 1116.54   43.00
   4   1   3 1060.82   38.62
   1  -5   3 1040.53   45.35
  -1  -4   3 1054.53   47.76
  -5   4   3 1097.11   60.09
  -4   5   3 1082.48   48.18
  -4   5   3 1044.66   49.71
   4   1  -3 1079.12   47.85
  -5   4  -4  467.93   27.62
  -4   5  -4  448.96   29.48
   5  -1  -4  419.06   29.07
  -1   5  -4  456.16   32.45
   1   4   4  454.09   23.60
   4   1   4  464.35   28.86
   5  -1   4  473.39   29.17
   5  -4   4  475.62   24.96
   1   4  -4  473.24   36.14
   1   4   4  451.94   32.71
   5  -4   4  448.36   35.77
   5  -4  -4  455.73   34.88
   5  -4  -4  392.22   26.70
   4  -5   4  461.26   33.70
  -5   1  -4  434.57   27.20
   4  -5  -4  491.35   37.21
  -1  -4   4  437.54   24.94
   1   4  -4  371.36   35.48
   1  -5  -4  448.46   29.90
  -4  -1   4  461.75   30.50
  -1  -4  -4  465.96   29.11
  -4  -1  -4  468.19   25.19
  -5   1   4  463.17   32.03
   1  -5   4  387.62   25.84
   4  -5  -4  493.04   27.43
  -5   4   4  484.05   39.69
  -4   5   4  447.33   29.10
   4   1  -4  456.96   30.18
  -4   5   4  417.04   32.23
  -1   5   4  444.79   26.09
   5  -1  -5 1313.37   59.40
  -5   4  -5 1247.87   52.94
  -4   5  -5 1192.84   55.45
  -1   5  -5 1118.50   59.31
   4   1   5 1268.32   55.74
   5  -1   5 1354.79   57.00
   1   4   5 1236.27   48.50
   5  -4   5 1389.88   51.39
   1   4  -5 1197.98   65.95
   1   4   5 1397.12   62.49
  -1   5   5 1258.01   56.01
   5  -4  -5 1230.22   53.96
   5  -4   5 1252.68   65.02
   5  -4  -5 1307.89   59.47
   4  -5   5 1307.35   61.73
  -5   1  -5 1290.30   54.00
  -1   5  -5 1215.27   70.75
   4  -5  -5 1326.08   68.71
   1  -5  -5 1247.98   57.29
   1   4  -5 1389.31   74.82
  -4  -1  -5 1367.71   51.39
  -1  -4  -5 1280.99   55.94
  -1  -4   5 1244.39   50.10
   4  -5  -5 1276.28   51.68
  -4  -1   5 1256.39   57.96
  -5   1   5 1367.52   62.67
   1  -5   5 1319.04   54.64
  -5   4   5 1276.79   68.33
   4   1  -5 1279.94   59.75
  -4   5   5 1239.65   56.02
  -4   5   5 1243.89   63.21
  -1   5   5 1273.00   51.20
   4  -5  -6   45.51    9.07
  -1  -4   6   40.31    8.90
  -4  -1   6   35.54   11.11
   1   4   6   65.23   13.09
   1   4  -6   71.28   16.99
   5  -1   6   72.56   13.64
   5  -4   6   62.68   10.79
   1   4   6   61.79   10.07
  -1   5   6   44.76    9.20
   5  -4  -6   44.92   10.38
  -5   4   6   61.43   15.94
   5  -1  -6   60.32   13.39
  -5   4  -6   49.00   10.16
  -4   5  -6   40.79   10.59
  -1   5   6   50.97   10.50
  -1   5  -6   42.01   12.58
  -4   5   6   51.22   12.74
   1   4  -6   57.67   16.39
   5  -4   6   60.36   14.26
   4  -5   6   50.80   11.96
   4   1   6   46.83   10.78
  -5   1   6   38.16   11.78
   4  -5  -6   44.26   13.19
  -1   5  -6   73.75   17.26
   1  -5  -6   53.12   12.07
  -4  -1  -6   54.90    9.59
  -1  -4  -6   59.23   11.91
   4   1  -6   71.29   15.03
   1  -5   6   44.36    9.92
   5  -1  -7  666.72   44.91
  -5   4  -7  649.60   38.55
  -4   5  -7  722.90   43.43
  -1   5  -7  687.15   47.81
   5  -1   7  707.74   43.23
   4   1   7  684.59   42.31
   5  -4   7  698.44   38.57
   1   4   7  670.41   36.32
   1   4  -7  627.25   47.54
  -1   5   7  726.43   40.70
   5  -4  -7  713.48   40.01
   5  -4   7  741.41   47.66
   4  -5   7  673.25   42.92
  -1   5  -7  614.35   48.14
   4  -5  -7  716.83   36.42
   4  -5  -7  606.07   46.49
   1  -5  -7  694.21   44.01
  -4  -1  -7  645.78   35.41
  -1  -4  -7  665.12   40.77
   1   4  -7  684.69   49.79
  -4  -1   7  636.09   42.83
  -1  -4   7  708.84   37.57
  -5   1   7  676.61   46.75
  -5   4   7  672.88   48.20
   4   1  -7  692.11   48.43
  -4   5   7  638.76   44.11
  -1   5   7  647.35   34.91
  -4  -1   8  153.24   21.66
  -5   1   8  134.46   22.54
   1   4  -8  138.40   22.77
   5  -1   8  145.96   21.34
   4   1   8  175.54   22.49
   5  -4   8  157.29   19.59
   1   4   8  138.31   16.83
   5  -4  -8  168.05   19.24
   5  -1  -8  159.98   23.36
  -1   5   8  137.79   17.42
  -5   4   8  110.84   20.07
  -4   5  -8  160.27   21.23
  -5   4  -8  126.08   17.22
  -1   5  -8  125.60   21.12
  -4   5   8  124.60   19.77
   1   4  -8  124.11   21.51
   5  -4   8  148.72   21.62
   4  -5   8  125.58   18.41
   4  -5  -8  127.50   21.53
   1  -5  -8  122.99   20.08
   4   1  -8  117.55   22.18
  -1  -4  -8  165.58   20.81
  -1   5  -8  122.91   22.20
   5  -4  -9   77.62   14.63
  -4  -1   9   85.36   18.17
  -5   1   9  107.00   21.68
   4   1   9   83.05   17.58
   5  -1  -9   98.88   20.35
   5  -4   9  111.09   18.19
   1   4   9   72.48   13.52
   1   4  -9   88.63   18.88
  -5   4   9   82.32   17.69
  -4   5  -9   88.02   17.13
  -5   4  -9  115.26   17.40
  -1   5  -9   75.97   18.86
  -4   5   9   91.81   17.17
   5  -4   9   90.56   17.80
   4  -5   9  111.35   17.76
   4  -5  -9   73.28   17.41
  -1  -4  -9   93.03   17.43
  -1   5  -9   62.29   17.07
   5  -4  10  276.65   31.03
   0   5   0  241.10   20.49
   5   0   0  231.00   17.32
   5  -5   0  204.51   25.18
  -5   0   0  237.46   20.46
   0   5   0  251.74   19.14
   0  -5   0  216.45   18.38
  -5   0   0  217.51   15.56
  -5   5   0  189.31   17.52
   0   5  -1   17.14    7.70
  -5   0  -1   35.29    8.97
  -5   0   1   17.83    7.40
  -5   5   1   26.42    7.55
  -5   5  -1   14.25    6.12
   0   5   1   30.60    8.12
   0   5  -1   18.21    7.25
  -5   5   1   35.63    8.48
   5  -5   1    6.44    9.23
   5  -5  -1   23.98   11.84
   5   0   1   19.26    5.68
   0  -5  -1   26.39    7.45
   0  -5   1   31.45    7.50
  -5   0  -1   20.99    5.19
   5   0  -1   23.79    6.53
   0  -5   1   18.03    5.39
  -5   5  -2  468.94   29.12
   0   5   2  521.44   29.14
   0   5  -2  521.00   34.07
   5   0  -2  454.06   27.97
   5  -5   2  488.15   37.41
   5  -5  -2  571.51   44.59
   0  -5   2  448.05   23.92
  -5   0  -2  466.18   29.46
   5  -5  -2  500.80   37.06
   5   0   2  483.92   25.67
   0   5  -2  509.33   38.57
  -5   0   2  519.75   32.52
   0  -5  -2  482.91   29.61
  -5   0  -2  517.65   24.19
   0  -5   2  471.62   28.93
  -5   5   2  530.62   34.57
  -5   5   2  468.16   29.42
  -5   5  -3  165.44   17.00
   0   5   3  152.95   14.76
  -5   0   3  127.94   16.64
   5   0  -3  155.49   16.82
   0   5   3  160.03   18.85
   0   5  -3  152.90   19.16
  -5   0  -3  137.52   15.67
   5  -5   3  135.43   19.59
   5  -5  -3  130.02   23.71
   0  -5   3  161.18   13.17
   0  -5  -3  136.74   16.00
  -5   0  -3  156.21   12.44
   5  -5  -3  152.19   16.06
   0  -5   3  145.66   15.89
   5   0   3  139.35   12.81
   5  -5  -3  162.02   22.58
  -5   5   3  174.74   21.56
  -5   5   3  161.87   17.27
   0   5  -3  230.29   29.53
   0  -5   4   11.17    4.46
  -5   0   4   -4.39    7.41
  -5   5   4    8.20    5.33
  -5   5  -4   13.09    6.86
   0   5   4    2.66    6.03
   5   0  -4    5.78    7.14
  -5   5   4   20.89    9.47
   0   5  -4   11.68    7.34
   5  -5   4   12.86    8.39
   5  -5  -4   22.30   14.58
   5  -5  -4    7.30    5.81
   5  -5  -4    0.72    6.65
   0  -5  -4    0.31    5.47
   0  -5   4   10.00    6.97
  -5   0  -4    2.11    5.15
   0   5  -4   19.59   12.81
   0   5  -5  208.47   27.94
   5   0  -5  215.14   22.49
  -5   5  -5  233.52   21.64
   5   0   5  240.60   22.42
   0   5   5  190.46   21.23
   0   5  -5  195.57   23.83
  -5   0  -5  251.05   22.43
   5  -5   5  177.85   23.07
   5  -5  -5  220.55   26.73
   5  -5  -5  188.34   18.87
   0  -5  -5  234.67   22.63
  -5   0   5  210.21   23.04
   0  -5   5  207.36   20.79
  -5   5   5  233.33   25.64
   0   5  -6   -2.59    9.27
  -5   0   6    4.87    6.78
   5   0   6   14.95    8.77
   5   0  -6   -6.27    9.33
  -5   5  -6   -0.11    5.23
   0   5   6    2.05    5.75
  -5   5   6   -4.82    7.24
   0   5  -6    1.65    8.05
   5  -5  -6    8.68    6.86
   5  -5   6    4.96    9.86
   0  -5  -6    4.01    6.61
   0  -5   6   -0.54    6.68
   0   5  -7   95.98   19.63
   5  -5  -7  111.01   15.27
  -5   0   7   85.05   17.31
   5   0  -7  107.02   18.49
   5   0   7  106.27   16.91
   0   5   7   85.54   15.15
  -5   5  -7   89.37   15.23
  -5   5   7  110.00   18.92
   0   5  -7   87.22   18.22
   5  -5   7  105.73   18.52
   0  -5  -7  112.38   17.27
   0   5  -8  100.51   19.62
   5   0  -8   71.20   17.32
  -5   0   8   76.47   17.28
   5   0   8  122.70   19.76
  -5   5  -8   85.04   15.44
  -5   5   8   76.34   17.07
   0   5  -8   86.97   19.35
   5  -5   8   64.19   15.65
   0  -5  -8   99.31   17.76
   5  -5  -8   98.96   14.81
  -5   5  -9   53.53   14.35
  -3   6   0 1528.83   63.18
   3   3   0 1605.60   52.88
   3   3   0 1576.32   74.55
   6  -3   0 1801.81   92.54
  -3  -3   0 1446.31   59.92
   6  -3   0 1543.23   62.08
   3  -6   0 1603.76   62.03
  -6   3   0 1639.71   66.44
  -3  -3   0 1667.61   62.59
  -6   3   0 1539.17   56.76
  -3   6  -1  165.78   17.87
  -6   3   1  141.22   17.85
  -3   6   1  133.92   15.52
   3   3   1  165.70   22.41
   3   3  -1  180.45   23.51
   6  -3   1  137.12   25.72
   6  -3  -1  171.18   26.70
  -3  -3   1  151.67   15.95
   6  -3  -1  156.50   16.68
   3  -6  -1  161.29   16.94
   3  -6   1  177.38   16.80
  -6   3  -1  156.08   16.82
  -3  -3  -1  157.98   15.90
   6  -3   1  148.60   16.03
  -3  -3   1  145.39   15.89
  -6   3   1  166.15   14.99
   3   3  -1  147.08   13.17
  -6   3  -1  159.89   14.03
  -3  -3  -1  123.79   14.92
  -3   6   2  472.56   30.94
  -6   3  -2  522.00   27.10
  -3   6  -2  556.08   34.38
   3   3  -2  557.02   41.91
   6  -3  -2  551.82   42.24
   6  -3   2  625.14   50.23
   6  -3  -2  541.52   32.76
  -3  -3   2  525.82   31.27
   3  -6  -2  589.15   34.36
  -6   3  -2  621.36   33.67
   3  -6   2  543.57   30.01
  -3  -3  -2  561.27   31.22
  -6   3   2  548.01   37.06
  -3  -3   2  524.58   32.00
   3   3  -2  569.96   30.40
   3   3   2  527.55   39.82
  -6   3  -3  816.13   35.87
  -3   6  -3  852.30   45.26
   3   3  -3  826.91   53.66
   6  -3  -3  859.84   49.76
   6  -3   3  929.06   61.61
   6  -3  -3  850.30   43.55
  -3  -3   3  826.81   41.39
   3  -6  -3  787.54   43.46
  -6   3  -3  919.40   41.73
   3  -6   3  822.48   38.37
  -3  -3  -3  846.29   40.83
  -6   3   3  800.03   47.78
  -3  -3   3  880.93   44.18
   3   3  -3  827.77   41.83
  -3   6   3  762.50   41.14
  -6   3  -4  307.61   20.05
  -3   6  -4  300.98   26.61
   3   3  -4  297.65   32.34
   6  -3  -4  297.94   25.50
   6  -3  -4  339.16   26.97
   6  -3   4  293.97   33.72
   3  -6  -4  279.58   25.49
  -3  -3   4  270.33   23.15
  -3  -3  -4  296.07   23.25
   3  -6   4  307.55   21.20
  -6   3   4  279.00   28.53
   3   3  -4  298.83   25.75
  -3   6   4  300.00   24.31
  -3   6  -5  932.06   51.78
   6  -3  -5 1031.94   51.54
   6  -3   5  977.75   62.06
   3  -6  -5  871.43   50.77
  -3  -3   5  974.77   47.71
  -3  -3  -5  962.40   46.49
  -6   3   5  876.90   55.04
   3   3  -5  908.71   52.25
  -3   6   5  872.10   46.36
   6  -3  -6   23.77    9.42
  -3  -3   6   19.65    8.60
   3   3   6   33.99    9.35
   6  -3   6   55.49   11.74
  -6   3   6   41.68   14.49
  -3   6   6   49.91   11.52
  -3   6  -6   22.23    9.61
   6  -3   6   62.56   17.24
   3  -6   6   44.56   12.01
   3   3  -6   28.84   10.75
   3  -6  -6   35.56   11.21
  -3  -3  -6   25.76    8.78
  -3   6  -7  508.78   40.38
   3   3   7  476.49   33.89
   6  -3   7  496.89   35.64
   6  -3  -7  496.43   38.22
   6  -3   7  591.78   45.65
   3  -6   7  501.90   36.27
   3  -6  -7  488.21   40.77
  -3  -3  -7  545.35   36.00
  -3  -3   7  495.13   36.02
   3   3  -7  492.14   45.23
  -6   3   7  502.55   44.15
  -3   6   7  478.00   34.57
  -3  -3   8   73.23   15.08
  -3   6   8  111.39   16.97
   3  -6   8   82.51   15.03
   6  -3   8  104.37   18.02
  -3  -3  -8  102.33   16.56
   3   3   8  111.48   17.18
   6  -4   0   47.65    9.97
  -4  -2   0   44.40    9.61
  -6   2   0   53.86   10.75
   6  -2   0   36.30    8.91
  -6   4   0   31.58    9.31
  -6   2   0   43.92    7.01
  -6   4   0   43.72    8.71
  -4   6   0   59.05   11.15
  -2   6   0   41.06    9.92
   2   4   0   55.94   12.53
   6  -4   0   37.81   14.69
   4   2   0   50.98    7.48
   4  -6   0   32.37    8.09
   2  -6   0   55.99   10.49
  -2  -4   0   48.62    9.40
  -4  -2   0   47.64    9.17
  -2  -4   0   46.97    9.00
  -4  -2  -1   49.91    9.69
  -2  -4   1   49.99    9.23
  -4  -2   1   66.66   11.73
  -6   2  -1   46.20    9.76
  -6   2   1   54.42   11.31
   4   2   1   53.29    7.14
  -6   4  -1   52.30   11.04
  -6   4   1   53.43   12.73
  -6   2   1   53.10    8.26
  -6   4   1   42.76    8.56
  -6   2  -1   55.56    7.42
  -6   4  -1   45.36    8.50
  -4   6   1   65.67   11.43
   6  -2   1   51.75    9.84
  -4   6  -1   44.24   10.06
  -2   6   1   57.40   10.83
  -2   6  -1   54.39   11.00
   2   4   1   53.90   13.02
   2   4  -1   49.24   13.11
   4   2  -1   58.67    9.35
   2   4  -1   40.99   12.01
   6  -2   1   52.87   15.38
   6  -4   1   86.41   19.88
   6  -4  -1   73.14   20.08
   6  -2  -1   36.23    8.78
   2   4  -1   59.87    8.28
   6  -4  -1   48.91    9.84
   4  -6  -1   55.15   10.57
   4  -6   1   68.30   10.08
   2  -6  -1   64.63   11.06
   2  -6   1   47.60    9.37
  -2  -4  -1   49.57   10.12
  -4  -2  -1   49.39    8.83
  -2  -4   1   56.75   10.21
  -4  -2   1   56.02   10.07
  -6   4  -2  221.16   18.20
   4   2  -2  265.42   20.07
  -2   6   2  216.64   19.70
  -4   6  -2  217.08   20.62
  -2   6  -2  245.25   22.48
   2   4  -2  230.28   26.55
   2   4   2  204.23   23.84
   2   4  -2  165.54   22.14
   6  -2  -2  227.27   20.45
   6  -4   2  271.38   31.90
  -4  -2  -2  225.83   20.12
   6  -4  -2  260.94   31.59
  -2  -4   2  232.44   19.01
   6  -4  -2  168.60   18.43
  -4  -2   2  226.81   20.90
   4  -6  -2  201.20   20.63
  -6   2  -2  230.61   20.15
   2  -6  -2  255.07   22.02
  -6   2   2  226.19   22.37
  -2  -4  -2  246.08   20.80
   2  -6   2  226.96   19.16
  -4  -2  -2  246.17   18.65
   6  -2   2  223.11   19.56
  -2  -4   2  233.86   20.79
  -4  -2   2  208.34   19.39
  -6   4   2  249.74   26.22
   2   4  -2  214.47   18.14
  -6   4   2  240.14   19.70
  -4   6   2  198.96   19.57
  -2   6   3  324.94   24.43
  -6   4  -3  320.41   22.37
  -4   6  -3  325.21   26.26
  -2   6  -3  328.16   27.50
   2   4  -3  333.68   32.48
   6  -2  -3  315.21   25.24
   2   4   3  361.04   31.88
   2   4  -3  331.60   31.50
   6  -4   3  337.27   35.57
   6  -4  -3  358.29   33.43
   4  -6   3  310.40   30.00
   6  -4  -3  328.56   25.55
  -2  -4   3  321.12   22.87
  -6   2  -3  329.04   24.12
   4  -6  -3  335.30   28.64
  -4  -2   3  332.78   26.09
   2  -6  -3  337.96   26.61
  -2  -4  -3  315.16   23.93
  -4  -2  -3  334.89   22.76
  -6   2   3  348.33   29.14
   2  -6   3  303.67   22.49
  -2  -4   3  282.75   24.17
   2   4  -3  322.25   25.37
  -6   4   3  307.57   30.33
  -6   4   3  333.32   24.72
  -4   6   3  321.42   25.45
   4   2  -3  289.13   23.47
  -6   2  -4    7.26    5.60
  -2  -4   4   16.93    6.83
  -4  -2   4   11.05    7.36
  -6   2   4    4.68    7.15
  -4   6   4    6.51    5.81
  -6   4   4   12.07    9.17
  -2   6   4   11.76    6.51
  -6   4  -4    8.35    5.53
  -4   6  -4    0.09    6.89
   2   4   4   20.44    9.93
  -2   6  -4   21.91    8.41
   2   4  -4    5.20    8.09
   2   4  -4    6.11    8.40
   2   4  -4   16.12    9.61
   6  -4   4    4.20   10.21
   6  -4  -4   26.25    9.64
   4  -6   4    8.33    9.63
   6  -4  -4   11.28    7.34
   4  -6  -4    7.00    7.71
   2  -6  -4   12.03    7.63
  -2  -4  -4   12.12    6.78
  -4  -2  -4    8.03    5.49
   2  -6   4   10.20    5.84
  -2  -4   4    3.87    5.93
   6  -2  -4    9.53    7.88
   4   2  -4    9.47    7.10
  -6   4  -5  335.54   24.24
  -4   6  -5  326.94   28.73
  -2   6  -5  367.46   32.04
   6  -2  -5  332.82   28.75
   2   4  -5  350.58   34.08
   2   4   5  409.51   34.58
   2   4  -5  330.90   33.91
   6  -4   5  328.58   34.90
   6  -4  -5  370.28   28.94
   4  -6   5  383.24   32.73
  -6   2  -5  340.94   25.31
   4  -6  -5  379.00   33.86
   2  -6  -5  356.88   30.23
  -2  -4   5  334.33   25.15
  -2  -4  -5  374.41   28.13
  -4  -2  -5  388.41   26.14
  -4  -2   5  336.87   27.89
   2  -6   5  349.93   25.52
  -6   2   5  363.47   32.99
   2   4  -5  367.72   33.97
  -6   4   5  363.26   36.40
   4   2  -5  355.62   30.60
  -4   6   5  344.41   28.01
  -2   6   5  339.42   25.96
  -2  -4   6    4.47    6.31
  -4  -2   6   12.26    7.93
  -6   2   6    6.34    7.47
   4   2   6   30.61   10.03
   2   4   6    8.79    5.85
   6  -2   6   17.87    7.80
   6  -4   6   20.57    7.70
  -4   6   6   20.94    7.97
  -2   6   6    9.67    6.04
  -6   4   6   12.90   11.11
  -6   4  -6   23.65    7.55
  -4   6  -6   19.10    9.71
  -2   6   6    6.68    6.06
  -2   6  -6    8.30    7.82
   6  -4  -6   22.15    9.22
   2   4  -6   -1.88    9.93
   6  -4   6    5.01   10.20
   4  -6   6   27.54   10.49
   6  -2  -6   14.78    9.46
   4  -6  -6   15.90   10.42
   2  -6  -6   24.69   10.62
  -4  -2  -6   13.39    6.36
  -2  -4  -6   21.93    8.37
   4   2  -6   13.40    8.16
   2  -6   6    8.67    5.30
  -2  -4   7  126.77   17.14
  -4  -2   7  106.55   17.94
  -6   2   7  105.00   20.72
   4   2   7  123.23   18.05
   6  -2   7   91.93   16.54
   2   4   7  122.61   15.76
   6  -4   7  134.51   17.24
  -4   6   7  135.37   18.85
   6  -4  -7  148.23   20.02
  -6   4   7   64.74   17.29
  -2   6   7  133.48   17.24
  -4   6  -7  122.23   19.23
  -2   6  -7  132.87   22.32
   2   4  -7  104.49   21.91
   6  -4   7  148.18   23.28
   4  -6   7   93.84   16.92
   2  -6   7  119.11   17.36
   6  -2  -7  114.95   19.37
  -2   6  -7   98.61   21.54
   4  -6  -7   96.95   20.98
   2  -6  -7   99.16   18.40
   4   2  -7  107.37   20.31
  -4  -2  -7  117.98   15.70
  -2  -4  -7  127.23   18.07
   6  -4  -8   33.80   11.27
  -4  -2   8    6.55    7.96
  -4   6   8   20.40   10.15
   2   4   8   31.32   10.39
   6  -4   8   19.57    8.77
   4  -6   8   24.26   10.07
   4  -6  -8   18.39    9.68
  -5   6   0  236.85   21.69
  -1   6   0  231.52   21.71
   5   1   0  219.32   17.25
   6  -1   0  210.19   18.82
   5  -6   0  250.34   29.66
  -1  -5   0  250.60   19.44
   6  -5   0  224.59   29.69
  -5  -1   0  225.96   21.30
  -6   1   0  217.97   21.35
   1  -6   0  237.97   20.99
  -1  -5   0  211.35   19.82
  -5  -1   0  230.48   18.35
  -6   5   0  257.22   20.88
  -1  -5   1   14.34    5.64
  -5  -1  -1   14.32    7.88
  -5  -1   1    9.19    7.32
  -6   1  -1   21.13    7.71
  -6   1   1   20.16    8.15
  -6   5   1    7.48    5.04
  -5   6   1   16.05    7.12
  -6   5  -1   16.11    7.24
  -5   6  -1   10.45    7.27
  -1   6   1   17.53    7.30
  -1   6  -1   29.29    8.72
   1   5   1    6.46    7.06
   6  -1  -1   12.39    5.94
   1   5  -1    8.84    6.98
   6  -5   1   25.03   13.15
   6  -5  -1   -8.78   12.28
   5   1   1    7.18    4.84
   5  -6   1   18.97   11.38
   5  -6  -1   23.26   13.92
   6  -1   1   15.18    6.09
  -1   6  -1   15.88    7.46
   5   1  -1    7.55    4.92
   1  -6  -1   13.15    6.95
  -1  -5  -1   11.87    6.29
   1  -6   1   12.88    6.32
  -1  -5   1   18.44    7.22
  -5  -1  -1   17.42    5.69
  -5  -1   1   11.93    5.73
  -6   5  -2  366.74   26.18
  -5   6  -2  408.21   29.38
  -1   6   2  411.80   28.14
  -1   6  -2  409.39   31.25
   5   1  -2  383.13   26.27
   1   5  -2  423.79   34.92
   6  -1  -2  396.65   27.72
   1   5   2  392.71   32.87
   6  -5   2  410.13   38.17
   6  -5  -2  390.62   42.19
   5  -6   2  433.54   37.19
   5  -6  -2  404.27   40.43
  -5  -1  -2  372.35   27.81
  -1   6  -2  469.79   43.19
  -1  -5   2  402.98   24.73
   5   1   2  406.71   22.33
  -6   1  -2  388.52   28.39
  -5  -1   2  410.79   30.10
  -6   1   2  357.75   29.54
   1  -6  -2  359.96   27.94
  -1  -5  -2  344.16   26.35
   6  -1   2  398.60   25.79
   1   5  -2  419.98   28.44
  -5  -1  -2  386.21   23.46
   1  -6   2  378.31   26.75
  -1  -5   2  378.40   28.02
   6  -5  -2  397.01   28.36
  -6   5   2  433.78   35.20
  -6   5   2  377.77   27.31
  -5   6   2  411.73   29.47
  -5  -1  -3  118.55   15.88
  -6   1  -3  117.39   15.49
  -1  -5   3   81.07   10.86
  -5  -1   3  103.25   15.79
  -6   1   3  109.73   17.06
  -6   5   3   79.63   13.06
  -5   6   3   85.73   14.26
  -6   5  -3   76.27   12.31
  -1   6   3   85.50   12.37
  -5   6  -3   69.96   12.87
  -6   5   3   93.22   17.50
   1   5  -3  101.69   15.94
   1   5   3  110.92   18.03
  -1   6  -3   75.20   14.07
   1   5  -3  116.22   19.50
   5   1  -3   89.72   13.45
   6  -5   3   90.89   18.93
   6  -5  -3   92.44   20.55
   5  -6   3  110.81   19.20
   5  -6  -3   74.51   16.56
  -1   6  -3  113.91   21.99
   1  -6  -3   87.33   14.29
  -1  -5  -3  103.53   14.66
  -5  -1  -3   82.47   10.66
   1  -6   3   85.92   13.36
  -1  -5   3  105.81   15.33
   6  -1  -3  121.36   15.84
   6  -5  -3   87.28   13.39
  -6   1  -4   13.48    6.89
  -1  -5   4    9.38    5.69
  -5  -1   4   10.54    8.92
   6  -5  -4    3.33    5.00
  -6   1   4    9.00    8.19
  -6   5   4   13.01    7.83
  -5   6   4    4.60    6.58
   1   5  -4   -4.07    7.85
   5   1  -4    9.48    7.23
  -6   5  -4    5.61    5.38
  -5   6  -4    5.57    5.67
  -6   5   4    3.08    7.62
   1   5   4    8.10    8.82
  -1   6  -4    5.81    7.11
   1   5  -4   18.99   10.02
  -5   6   4   12.71    6.91
   6  -5   4   29.24   14.17
   6  -5  -4   11.86   10.70
   5  -6   4   -3.82    9.74
   6  -1  -4    4.18    7.51
   5  -6  -4    8.26    8.35
   1  -6  -4   25.73    9.49
  -1   6  -4   31.62   14.91
  -1  -5  -4    4.33    6.36
  -5  -1  -4    5.68    5.17
   1  -6   4    8.15    6.41
  -1  -5   4    7.54    5.70
  -5  -1  -4   -4.25    6.79
  -6   1  -5  134.59   17.77
  -6   5  -5  161.67   18.15
  -5  -1   5  136.81   19.60
  -6   1   5  125.60   20.16
  -6   5   5  119.81   17.32
  -5   6   5  117.17   17.10
   5   1  -5  128.63   18.84
   1   5  -5  103.17   20.98
  -5   6  -5  155.07   19.31
  -6   5   5  147.22   21.73
   1   5   5  132.52   19.77
  -1   6   5  137.43   18.62
  -1   6  -5  138.86   20.99
   1   5  -5  149.39   24.37
  -5   6   5  113.04   17.77
   6  -5   5  162.72   24.43
   5  -6   5  151.20   21.98
   6  -1  -5  131.67   18.54
   5  -6  -5  113.07   20.01
   6  -5  -5  142.16   17.96
   1  -6  -5  135.86   18.66
  -1  -5  -5  143.96   18.34
  -1   6  -5  123.20   22.76
   1  -6   5  137.61   17.42
  -1  -5   5  117.83   17.72
  -5  -1  -5  164.11   20.02
  -6   1  -6   11.42    9.06
  -5  -1   6    4.87    7.91
  -6   1   6   -3.51    8.80
   5   1  -6   -8.43    9.63
  -5   6   6    0.20    6.59
   1   5  -6   -6.76   10.64
   6  -5  -6    1.27    5.08
  -6   5  -6    4.54    5.85
   1   5   6   11.77    9.19
  -5   6  -6    5.02    6.06
  -6   5   6    5.63    8.36
  -1   6   6    0.17    6.39
  -1   6  -6    0.27    8.51
   1   5  -6    5.72    9.81
  -5   6   6    7.76    6.39
   6  -5   6    0.98    6.97
   5  -6   6   -6.24    9.07
   6  -1  -6   -0.49    7.04
   5  -6  -6  -17.55    9.30
   1  -6  -6   -2.08    7.26
  -1  -5  -6    8.25    6.38
   1  -6   6   -5.72    7.18
  -1  -5   6   -8.75    8.00
  -1   6  -6   -4.83    8.39
   1   5  -7   68.48   19.31
  -1   6   7   78.30   14.84
  -6   5  -7   68.34   13.59
  -6   5   7   86.13   17.01
  -5   6  -7   81.68   15.66
   1   5  -7   62.70   16.58
  -5   6   7   45.45   13.10
   5  -6   7   75.86   16.13
   5  -6  -7   83.08   18.51
   1  -6   7   54.00   12.29
   6  -5  -7   63.85   13.63
  -1   6  -7   93.66   19.91
  -6   6   0 1437.69   64.02
   0   6   0 1621.32   70.96
   6   0   0 1407.95   58.71
   6  -6   0 1451.63   82.28
   0  -6   0 1493.64   57.80
  -6   0   0 1578.52   68.30
   0  -6   0 1616.07   65.99
   0  -6   1   61.32    9.73
  -6   0  -1   57.24   13.30
  -6   0   1   52.53   12.61
   6   0  -1   38.04    9.42
   6   0   1   45.51    9.02
  -6   6   1   44.02   10.22
  -6   6  -1   61.33   12.25
   0   6  -1   55.86   12.19
   6  -6   1   55.14   16.73
   6  -6  -1   39.86   15.21
   0  -6  -1   54.87   10.74
   0  -6   1   57.79   11.99
  -6   0   1   56.06    9.52
  -6   6  -2  515.30   34.59
   0   6  -2  558.42   41.07
   6   0  -2  544.84   33.85
   0   6   2  543.87   40.09
   6  -6   2  591.00   47.04
   6  -6  -2  586.90   52.24
  -6   0  -2  558.87   36.83
  -6   0   2  578.93   39.20
   6   0   2  601.17   31.62
   0  -6  -2  591.60   36.79
   0  -6   2  519.97   34.52
  -6   0   2  544.73   31.56
  -6   6   2  536.30   35.62
  -6   6  -3  280.72   24.91
   0   6  -3  253.26   28.00
   6   0  -3  265.75   24.44
   0   6   3  250.37   26.65
   6  -6   3  272.94   31.29
   6  -6  -3  340.78   42.13
  -6   0  -3  290.59   26.04
   0  -6  -3  268.25   25.06
  -6   0   3  280.95   27.75
   0  -6   3  300.46   25.70
  -6   6   3  252.10   24.63
  -6   0  -4  169.78   20.83
  -6   6  -4  205.18   21.84
   0   6  -4  196.66   28.44
   6   0  -4  212.56   22.74
   0   6   4  156.84   21.76
   0   6  -4  166.76   24.10
   6  -6   4  153.93   23.71
   6  -6  -4  182.15   29.51
  -6   0   4  244.13   26.30
   0  -6  -4  137.88   18.95
   0  -6   4  159.82   19.72
  -6   6   4  174.75   21.31
  -6   6  -5  378.15   31.08
   0   6  -5  323.23   37.00
   6   0  -5  369.17   32.34
   0   6  -5  396.69   38.20
   0   6   5  451.78   36.28
  -6   0  -5  358.60   31.59
   0  -6   5  395.63   32.19
  -6   0  -6   51.33   13.66
   0   6  -6   49.69   17.95
  -6   6  -6   70.36   14.21
  -6   6   6   79.01   16.64
   0   6  -6   64.11   17.54
   6  -6  -6   74.76   13.97
  -3  -4   0  123.85   16.01
  -4  -3   0  150.96   17.86
  -4   7   0  163.04   19.41
  -7   3   0  165.65   20.98
  -3   7   0  150.98   18.85
   3   4   0  154.87   24.26
   7  -4   0  128.95   17.29
   7  -3   0  161.57   26.84
   7  -4   0  143.53   29.33
   7  -3   0  161.30   18.54
  -4  -3   0  148.84   17.09
   3  -7   0  152.47   18.01
  -3  -4   0  136.83   16.90
  -7   4   0  141.21   15.46
  -4  -3  -1    7.11    5.67
  -3  -4   1   19.03    8.31
  -4  -3   1    9.27    7.51
   7  -4  -1   26.82    8.94
  -7   3  -1    5.56    6.61
  -7   3   1   17.09    8.84
  -7   4   1   10.35    8.14
  -7   3   1   12.34    5.90
  -7   4   1    4.42    4.29
  -7   4  -1   12.72    5.78
  -4   7   1    4.49    5.58
  -3   7   1   13.22    7.10
  -4   7  -1   20.22    8.14
  -3   7  -1    6.14    7.50
   3   4   1    8.14    8.98
   3   4  -1   12.54    8.53
   7  -3  -1   26.13   12.68
   7  -3   1   33.60   18.29
   7  -4   1   -4.97   14.67
   7  -4  -1    0.43   11.20
   4  -7  -1   17.09    8.63
   3  -7  -1   21.35    8.47
   3  -7   1    9.88    6.00
  -3  -4  -1    3.07    5.36
  -4  -3  -1   14.27    6.60
  -3  -4   1    9.96    7.11
  -4  -3   1   19.07    8.37
   7  -3  -1   25.73    8.60
   7  -3   1   10.83    7.25
  -3  -4  -1    8.62    6.47
  -4   7   2  248.33   24.33
  -7   4  -2  242.71   19.79
  -3   7   2  265.04   24.48
  -4   7  -2  280.95   26.39
  -3   7  -2  289.06   27.10
   3   4   2  245.13   29.78
   3   4  -2  243.23   30.71
   7  -4  -2  320.95   35.79
   7  -3   2  302.40   37.52
  -3  -4  -2  252.30   23.21
   7  -4   2  219.32   33.63
  -4  -3  -2  229.21   22.45
   7  -3  -2  259.04   24.28
  -3  -4   2  237.26   21.92
  -4  -3   2  286.95   24.71
   7  -4  -2  230.06   23.08
   4  -7  -2  228.51   23.98
   3  -7  -2  264.35   24.83
   3  -7   2  278.74   23.43
  -3  -4  -2  249.07   22.75
  -4  -3  -2  271.01   22.70
  -7   3   2  296.02   29.47
  -3  -4   2  254.14   24.07
  -4  -3   2  269.59   23.97
  -7   4   2  278.96   30.53
  -7   3   2  264.08   21.51
  -7   4   2  229.47   21.15
  -3  -4   3   56.12   11.05
  -4  -3   3   77.01   13.57
   4   3  -3   70.81   12.22
  -7   3   3   81.06   16.72
  -7   4   3  103.42   20.09
  -7   4   3   78.37   13.25
  -4   7   3   82.51   14.83
  -3   7   3  112.30   16.15
  -4   7  -3   72.59   14.28
  -3   7  -3   83.69   15.94
   3   4  -3  102.61   20.44
   7  -3   3   51.80   18.04
   7  -4   3   81.79   21.18
   7  -4  -3   82.54   14.79
   7  -3  -3   72.28   14.19
   4  -7  -3   45.42   11.50
   3  -7  -3   85.01   14.99
  -3  -4  -3  115.48   15.76
  -4  -3  -3   56.19   11.30
  -3  -4   3   93.58   14.93
  -4  -3   3   90.00   14.45
  -4  -3  -3   83.62   13.93
   4   3  -4   15.38    8.69
  -3  -4   4   15.30    7.45
  -4  -3   4   -9.97    8.34
  -7   3   4   23.17    9.99
  -7   4   4    6.55    6.05
  -7   4   4    8.33   10.81
  -4   7   4    4.79    6.92
  -3   7   4   18.57    8.47
  -4   7  -4   18.91   10.52
  -3   7  -4   14.47    8.51
   7  -3   4  -25.22   15.68
   7  -4   4   30.48   17.25
   7  -3  -4    3.44    6.05
   4  -7   4   14.63    9.99
   3   4  -4    8.77    7.14
   4  -7  -4   -4.24    6.32
   3  -7  -4    4.91    7.86
  -3  -4  -4   -3.10    6.16
  -4  -3  -4    7.23    6.00
  -3  -4   4    5.17    7.53
  -4  -3   4   11.36    8.03
   7  -4  -4   -4.57    6.52
  -3  -4   5   96.25   15.26
  -4  -3   5  107.75   16.67
  -7   3   5  112.30   21.36
  -7   4   5  120.70   22.51
  -4   7   5  118.51   17.64
  -3   7   5  107.66   16.75
   4  -7   5  134.51   21.17
   3   4  -5   89.81   16.80
   4  -7  -5  140.97   21.61
   3  -7  -5  108.12   18.45
  -3  -4  -5  120.51   16.88
  -4  -3  -5  116.56   16.00
   4   3  -5  102.26   17.14
  -3  -4   6    1.16    5.88
  -3   7   6   -5.14    6.18
  -3   7   6   15.83    7.80
   3   4  -6    0.90    8.92
   4  -7  -6   24.39   12.06
  -4  -3  -6   -5.21    6.51
  -5   7   0  902.00   49.16
  -2   7   0  892.32   49.76
   2   5   0  915.90   57.95
   7  -5   0  958.65   71.69
  -2  -5   0  890.03   44.80
  -5  -2   0  802.87   46.19
   7  -2   0  862.38   45.41
   2  -7   0  828.92   46.33
  -7   2   0  860.13   49.78
  -2  -5   0  901.39   47.04
  -5  -2   0  885.16   43.94
  -7   5   0  875.46   44.53
  -2  -5   1   74.79   12.13
   7  -2  -1   98.95   14.83
  -5  -2  -1   71.67   13.22
  -5  -2   1   65.66   13.44
  -7   2  -1   86.84   14.98
  -7   2   1   83.01   15.48
  -7   5   1   83.31   13.47
  -7   5  -1   60.32   11.02
  -5   7   1   62.58   12.86
  -5   7  -1   77.26   14.10
   7  -2   1   68.77   12.25
  -2   7   1   59.43   12.81
  -2   7  -1  100.76   16.48
   2   5   1   95.57   18.46
   2   5  -1   82.64   18.87
   7  -5   1   59.06   20.13
   7  -5  -1  116.26   26.66
   5  -7   1   98.10   21.40
   2  -7  -1   70.94   13.94
   2  -7   1   81.55   13.78
  -2  -5  -1   80.09   14.05
  -5  -2  -1   89.92   12.83
  -2  -5   1   68.89   12.86
  -5  -2   1   93.13   14.09
  -2  -5  -1   67.84   12.39
  -5   7   2  325.73   28.39
  -7   5  -2  381.95   27.11
  -5   7  -2  325.10   28.47
  -2   7   2  324.62   28.01
  -2   7  -2  327.88   30.08
   5   2  -2  359.48   25.66
   2   5   2  321.53   33.06
   2   5  -2  322.23   34.83
   7  -5  -2  362.59   41.77
   7  -2  -2  384.39   29.61
   5  -7   2  411.82   39.00
   7  -5   2  291.44   37.38
  -5  -2  -2  276.74   26.02
  -2  -5   2  358.95   26.23
  -5  -2   2  316.91   28.40
  -7   2  -2  334.47   28.34
   2  -7  -2  333.30   28.65
   2  -7   2  316.64   26.67
  -2  -5  -2  337.44   27.47
  -7   2   2  372.37   32.30
  -5  -2  -2  360.77   25.37
  -2  -5   2  350.86   28.61
   7  -5  -2  368.80   29.51
  -5  -2   2  347.63   26.98
  -7   5   2  335.87   27.05
  -7   5  -3  358.68   26.89
  -2   7   3  390.62   30.30
  -5   7  -3  399.97   32.35
   5   2  -3  389.39   28.78
  -2   7  -3  393.19   33.91
   2   5   3  402.99   37.41
   2   5  -3  400.11   39.52
   7  -2  -3  376.84   30.95
   7  -5   3  352.20   39.42
   7  -5  -3  431.17   41.23
   5  -7   3  428.48   39.25
  -2   7  -3  390.36   40.85
  -5  -2  -3  365.88   30.16
  -2  -5   3  380.49   27.63
  -7   2  -3  377.85   30.21
  -5  -2   3  372.89   30.97
   2  -7  -3  417.79   32.62
  -2  -5  -3  361.45   29.26
  -5  -2  -3  401.19   27.31
   7  -5  -3  376.72   30.69
   2  -7   3  363.25   28.42
  -7   2   3  425.72   36.33
  -2  -5   3  383.42   31.00
  -5  -2   3  411.71   30.78
  -7   5   3  384.60   29.89
  -5   7   3  394.94   31.52
  -7   5  -4  156.04   17.71
  -2  -5   4  142.40   16.83
  -7   2   4  144.00   22.55
  -7   5   4  135.29   18.55
  -7   5   4  193.46   28.25
   2   5  -4  129.99   23.60
   5   2  -4  139.27   18.64
  -2   7  -4  144.45   21.92
   7  -5  -4  119.71   17.75
  -2   7  -4  114.50   22.92
   2  -7  -4  133.25   19.03
   2  -7   4  151.64   18.13
   5   2  -5  445.32   35.46
  -2   7  -5  401.47   41.72
   2   5  -5  484.10   39.27
  -7   5   5  515.22   45.47
  -7   1   0  134.10   19.09
  -7   6   0  131.60   16.99
   7  -6   0  107.04   23.93
   7  -1   0   85.55   13.19
   1  -7   0  107.05   16.05
  -1  -6   0  118.44   15.06
  -1  -6   1   -4.23    5.70
  -7   1  -1    1.41    6.47
  -7   1   1   16.16    9.34
   6   1  -1   15.45    6.94
  -7   6   1    0.18    6.96
  -7   6  -1   -1.60    5.58
  -1   7  -1   12.37    8.48
   1   6  -1   11.58    9.51
   7  -6  -1   15.66   11.30
   7  -1   1   -1.40    5.83
   6  -7  -1   -8.27   13.93
   7  -1  -1    7.88    6.51
   1  -7  -1   16.65    8.82
   1  -7   1    7.05    6.90
  -6  -1   1   10.51    5.55
  -1  -6  -1   11.27    6.57
  -7   6  -2  188.13   20.47
   6   1  -2  187.37   19.51
   1   6  -2  157.93   24.74
  -1   7  -2  199.65   24.70
   7  -1  -2  188.70   20.95
   7  -6  -2  261.64   39.62
   6  -7  -2  155.62   29.35
  -7   1  -2  216.78   23.88
   1  -7   2  193.43   21.53
  -6  -1   2  191.94   19.42
  -7   1  -3   56.43   12.79
  -7   6  -3   49.74   11.35
  -1   7  -3   49.94   13.84
   7  -6  -3   59.13   18.12
   6  -7  -3   37.18   18.30
   6   1  -3   56.49   11.90
   1  -7   3   60.30   12.62
  -6  -1   3   40.83   10.40
  -7   1  -4   -0.43    6.29
   0   0   0    0.00    0.00


TITL mdo2pg in P6/mmm
REM P6/mmm (#191 in standard setting)
CELL 0.71073   5.225546   5.225546   8.847943  90.0000  90.0000 120.0000
ZERR    1.00   0.000170   0.000170   0.000593   0.0000   0.0000   0.0000
LATT  1
SYMM -y, x-y, z
SYMM -x+y,-x, z
SYMM -x,-y, z
SYMM  y,-x+y, z
SYMM  x-y, x, z
SYMM  y, x,-z
SYMM  x-y,-y,-z
SYMM -x,-x+y,-z
SYMM -y,-x,-z
SYMM -x+y, y,-z
SYMM  x, x-y,-z
SFAC O Cl K As
UNIT 6.00 1.00 1.00 4.00
TREF
HKLF 4
END
_computing_structure_solution     'SHELXT 2018/2 (Sheldrick, 2018)'
;
_shelx_hkl_checksum              33084
_olex2_submission_special_instructions 'No special instructions were received'
_oxdiff_exptl_absorpt_empirical_details
;
Empirical correction (ABSPACK) includes:
- Absorption correction using spherical harmonics
- Frame scaling
;
_oxdiff_exptl_absorpt_empirical_full_max 1.188
_oxdiff_exptl_absorpt_empirical_full_min 0.880
loop_
_space_group_symop_operation_xyz
'x, y, z'
'-y, x-y, z'
'-x+y, -x, z'
'-x, -y, z'
'y, -x+y, z'
'x-y, x, z'
'y, x, -z'
'x-y, -y, -z'
'-x, -x+y, -z'
'-y, -x, -z'
'-x+y, y, -z'
'x, x-y, -z'
'-x, -y, -z'
'y, -x+y, -z'
'x-y, x, -z'
'x, y, -z'
'-y, x-y, -z'
'-x+y, -x, -z'
'-y, -x, z'
'-x+y, y, z'
'x, x-y, z'
'y, x, z'
'x-y, -y, z'
'-x, -x+y, z'
loop_
_atom_site_label
_atom_site_type_symbol
_atom_site_fract_x
_atom_site_fract_y
_atom_site_fract_z
_atom_site_U_iso_or_equiv
_atom_site_adp_type
_atom_site_occupancy
_atom_site_site_symmetry_order
_atom_site_calc_flag
_atom_site_refinement_flags_posn
_atom_site_refinement_flags_adp
_atom_site_refinement_flags_occupancy
_atom_site_disorder_assembly
_atom_site_disorder_group
As1 As 0.333333 0.666667 0.29528(7) 0.0165(2) Uani 1 6 d S T P . .
K1 K 0.000000 0.000000 0.000000 0.0361(8) Uani 1 24 d S T P . .
Cl1 Cl 0.000000 1.000000 0.500000 0.0460(12) Uani 1 24 d S T P . .
O1 O 0.500000 0.500000 0.1861(4) 0.0213(8) Uani 1 4 d S T P . .
loop_
_atom_site_aniso_label
_atom_site_aniso_U_11
_atom_site_aniso_U_22
_atom_site_aniso_U_33
_atom_site_aniso_U_23
_atom_site_aniso_U_13
_atom_site_aniso_U_12
As1 0.0124(3) 0.0124(3) 0.0248(4) 0.000 0.000 0.00620(13)
K1 0.0366(12) 0.0366(12) 0.0351(18) 0.000 0.000 0.0183(6)
Cl1 0.0267(12) 0.0267(12) 0.085(3) 0.000 0.000 0.0133(6)
O1 0.0215(14) 0.0215(14) 0.0299(18) 0.000 0.000 0.0175(16)
loop_
_atom_type_symbol
_atom_type_description
_atom_type_scat_dispersion_real
_atom_type_scat_dispersion_imag
_atom_type_scat_source
O O 0.0106 0.0060 'International Tables Vol C Tables 4.2.6.8 and 6.1.1.4'
Cl Cl 0.1484 0.1585 'International Tables Vol C Tables 4.2.6.8 and 6.1.1.4'
K K 0.2009 0.2494 'International Tables Vol C Tables 4.2.6.8 and 6.1.1.4'
As As 0.0499 2.0058 'International Tables Vol C Tables 4.2.6.8 and 6.1.1.4'
loop_
_exptl_crystal_face_index_h
_exptl_crystal_face_index_k
_exptl_crystal_face_index_l
_exptl_crystal_face_perp_dist
0 1 0 0.0726
-1 1 0 0.0855
1 -1 0 0.0931
0 0 1 0.0242
0 0 -1 0.0242
1 0 0 0.1104
-1 0 0 0.1181
0 -1 0 0.0650
loop_
_geom_angle_atom_site_label_1
_geom_angle_atom_site_label_2
_geom_angle_atom_site_label_3
_geom_angle
_geom_angle_site_symmetry_1
_geom_angle_site_symmetry_3
_geom_angle_publ_flag
O1 As1 O1 93.67(14) 3_565 2_665 ?
O1 As1 O1 93.67(14) 2_665 . ?
O1 As1 O1 93.67(14) 3_565 . ?
As1 O1 As1 114.7(2) . 4_665 ?
loop_
_geom_bond_atom_site_label_1
_geom_bond_atom_site_label_2
_geom_bond_distance
_geom_bond_site_symmetry_2
_geom_bond_publ_flag
As1 O1 1.791(2) 3_565 ?
As1 O1 1.791(2) . ?
As1 O1 1.791(2) 2_665 ?
loop_
_geom_torsion_atom_site_label_1
_geom_torsion_atom_site_label_2
_geom_torsion_atom_site_label_3
_geom_torsion_atom_site_label_4
_geom_torsion
_geom_torsion_site_symmetry_1
_geom_torsion_site_symmetry_2
_geom_torsion_site_symmetry_3
_geom_torsion_site_symmetry_4
_geom_torsion_publ_flag
O1 As1 O1 As1 -133.04(8) 3_565 . . 4_665 ?
O1 As1 O1 As1 133.04(8) 2_665 . . 4_665 ?
loop_
_exptl_oxdiff_crystal_face_indexfrac_h
_exptl_oxdiff_crystal_face_indexfrac_k
_exptl_oxdiff_crystal_face_indexfrac_l
_exptl_oxdiff_crystal_face_x
_exptl_oxdiff_crystal_face_y
_exptl_oxdiff_crystal_face_z
0.0000 1.0001 0.0000 -0.0232 -0.1483 0.0447
-1.0001 1.0002 0.0001 0.0264 -0.1172 -0.1007
1.0001 -1.0002 -0.0001 -0.0264 0.1172 0.1007
0.0000 -0.0000 1.0001 0.0761 -0.0044 0.0250
-0.0000 0.0000 -1.0001 -0.0761 0.0044 -0.0250
1.0001 -0.0001 -0.0000 -0.0496 -0.0311 0.1454
-1.0001 0.0001 0.0000 0.0496 0.0311 -0.1454
-0.0000 -1.0001 -0.0000 0.0232 0.1483 -0.0447
