#------------------------------------------------------------------------------
#$Date: 2021-06-04 03:58:57 +0300 (Fri, 04 Jun 2021) $
#$Revision: 265752 $
#$URL: file:///home/coder/svn-repositories/cod/cif/4/51/87/4518716.cif $
#------------------------------------------------------------------------------
#
# This file is available in the Crystallography Open Database (COD),
# http://www.crystallography.net/
#
# All data on this site have been placed in the public domain by the
# contributors.
#
data_4518716
loop_
_publ_author_name
'Sobczak, Szymon'
'Ratajczyk, Paulina'
'Katrusiak, Andrzej'
_publ_section_title
;
 Squeezing Out the Catalysts: A Sustainable Approach to Disulfide Bond
 Exchange in Aryl Disulfides
;
_journal_issue                   20
_journal_name_full               'ACS Sustainable Chemistry &amp; Engineering'
_journal_page_first              7171
_journal_page_last               7178
_journal_paper_doi               10.1021/acssuschemeng.1c02240
_journal_volume                  9
_journal_year                    2021
_chemical_formula_moiety         'C12 H8 Br N O2 S2'
_chemical_formula_sum            'C12 H8 Br N O2 S2'
_chemical_formula_weight         342.22
_space_group_crystal_system      triclinic
_space_group_IT_number           2
_space_group_name_Hall           '-P 1'
_space_group_name_H-M_alt        'P -1'
_atom_sites_solution_hydrogens   geom
_audit_creation_date             2020-09-22
_audit_creation_method
;
Olex2 1.3
(compiled 2020.07.31 svn.rc2a77460 for OlexSys, GUI svn.r6145)
;
_audit_update_record
;
2020-09-23 deposited with the CCDC.	2020-09-24 downloaded from the CCDC.
;
_cell_angle_alpha                90.429(13)
_cell_angle_beta                 96.849(14)
_cell_angle_gamma                93.540(14)
_cell_formula_units_Z            2
_cell_length_a                   7.3124(12)
_cell_length_b                   8.0674(14)
_cell_length_c                   11.1844(17)
_cell_measurement_reflns_used    1371
_cell_measurement_temperature    293(2)
_cell_measurement_theta_max      64.0850
_cell_measurement_theta_min      3.8850
_cell_volume                     653.76(19)
_computing_cell_refinement       'CrysAlisPro 1.171.40.53 (Rigaku OD, 2019)'
_computing_data_collection       'CrysAlisPro 1.171.40.53 (Rigaku OD, 2019)'
_computing_data_reduction        'CrysAlisPro 1.171.40.53 (Rigaku OD, 2019)'
_computing_molecular_graphics    'Olex2 1.3 (Dolomanov et al., 2009)'
_computing_publication_material  'Olex2 1.3 (Dolomanov et al., 2009)'
_computing_structure_refinement  'SHELXL 2018/1 (Sheldrick, 2015)'
_diffrn_ambient_temperature      293(2)
_diffrn_detector                 'CCD plate'
_diffrn_detector_area_resol_mean 10.5357
_diffrn_detector_type            Atlas
_diffrn_measured_fraction_theta_full 0.786
_diffrn_measured_fraction_theta_max 0.769
_diffrn_measurement_details
;
List of Runs (angles in degrees, time in seconds):

  # Type    Start    End  Width  t~exp~   \w     \q     \k     \f   Frames
#--------------------------------------------------------------------------
  1  \w      3.00  28.00   1.00    6.00    --   40.00  90.00  18.99   25
  2  \w    -80.00  -5.00   1.00    6.00    --  -41.98 125.00  60.00   75
  3  \w    -29.00  27.00   1.00    6.00    --   41.98 -57.00-180.00   56
  4  \w     24.00  83.00   1.00    6.00    --   41.98  37.00-150.00   59
  5  \w     29.00  61.00   1.00    6.00    --   41.98 -57.00-180.00   32
  6  \w      2.00  98.00   1.00    6.00    --   41.98-125.00 -30.00   96
  7  \w      8.00  34.00   1.00    6.00    --   44.00  87.00  62.79   26
  8  \w     71.00 118.00   1.00    6.00    --   48.00  62.00 -95.22   47
  9  \w     16.00  42.00   1.00    6.00    --   48.00  80.00 169.20   26
 10  \w     19.00  54.00   1.00    6.00    --   48.00  62.00 -95.22   35
 11  \w     18.00  43.00   1.00    6.00    --   52.00  82.00  13.77   25
 12  \w     18.00  44.00   1.00    6.00    --   52.00  81.00 111.31   26
 13  \w     19.00  44.00   1.00    6.00    --   52.00  80.00 -72.97   25
 14  \w     19.00  44.00   1.00    6.00    --   52.00  79.00-113.25   25
 15  \w     33.00  67.00   1.00    6.00    --   60.00  76.00-128.11   34
 16  \w     34.00  81.00   1.00    6.00    --   64.00  77.00 -17.13   47
 17  \w     36.00  70.00   1.00    6.00    --   68.00  76.00 -75.28   34
 18  \w    100.00 142.00   1.00    6.00    --   68.00  76.00-177.89   42
 19  \w     36.00  76.00   1.00    6.00    --   68.00  75.00  39.37   40
 20  \w     79.00 106.00   1.00    6.00    --   68.00  76.00 -75.28   27
 21  \w     99.00 131.00   1.00    6.00    --   68.00  77.00 140.90   32
 22  \w     85.00 118.00   1.00    6.00    --   68.00  75.00  71.64   33
 23  \w     40.00  74.00   1.00    6.00    --   68.00  76.00-177.89   34
 24  \w     35.00  80.00   1.00    6.00    --   68.00  77.00 140.90   45
 25  \w     36.00  81.00   1.00    6.00    --   68.00  75.00  71.64   45
 26  \w     53.00  85.00   1.00   14.00    --   84.00  73.00  91.09   32
 27  \w     64.00 112.00   1.00   14.00    --   92.00  68.00 -24.51   48
 28  \w     71.00 110.00   1.00   14.00    --  100.00  68.00  50.92   39
 29  \w    113.00 156.00   1.00   14.00    --  100.00  68.00  50.92   43
 30  \w     80.00 122.00   1.00   14.00    --  112.00  77.00 -90.00   42
 31  \w     42.00 106.00   1.00   14.00    --  112.00-111.00 -60.00   64
 32  \w     84.00 111.00   1.00   14.00    --  112.00  61.00 150.00   27
 33  \w     69.00  97.00   1.00   14.00    --  112.00-111.00-120.00   28
 34  \w     36.00  63.00   1.00   14.00    --  112.00-111.00-120.00   27
 35  \w     38.00 113.00   1.00   14.00    --  112.00-111.00-150.00   75
 36  \w     79.00 122.00   1.00   14.00    --  112.00  77.00-180.00   43
 37  \w     39.00 113.00   1.00   14.00    --  112.00-111.00   0.00   74
 38  \w     79.00 154.00   1.00   14.00    --  112.00  77.00 120.00   75
 39  \w    129.00 157.00   1.00   14.00    --  112.00  77.00  60.00   28
 40  \w     82.00 117.00   1.00   14.00    --  112.00  77.00  60.00   35
 41  \w     84.00 110.00   1.00   14.00    --  112.00  61.00-150.00   26
 42  \w     80.00 120.00   1.00   14.00    --  112.00  77.00-120.00   40
 43  \w     79.00 158.00   1.00   14.00    --  112.00  77.00   0.00   79
 44  \w    116.00 157.00   1.00   14.00    --  112.00  77.00-150.00   41
 45  \w     82.00 107.00   1.00   14.00    --  112.00  77.00-150.00   25
 46  \w    121.00 158.00   1.00   14.00    --  112.00  77.00-120.00   37
 47  \w     92.00 140.00   1.00   14.00    --  112.00  61.00 -60.00   48
 48  \w     40.00  71.00   1.00   14.00    --  112.00 -61.00  60.00   31
 49  \w     84.00 121.00   1.00   14.00    --  112.00  61.00 120.00   37
 50  \w     84.00 154.00   1.00   14.00    --  112.00  77.00 -30.00   70
 51  \w     40.00  71.00   1.00   14.00    --  112.00 -61.00-150.00   31
 52  \w    128.00 156.00   1.00   14.00    --  112.00  77.00-180.00   28
 53  \w    119.00 150.00   1.00   14.00    --  112.00  77.00 150.00   31
 54  \w     81.00 118.00   1.00   14.00    --  112.00  77.00 150.00   37
 55  \w     41.00  68.00   1.00   14.00    --  112.00 -61.00  90.00   27
 56  \w    129.00 154.00   1.00   14.00    --  112.00  61.00  30.00   25
 57  \w     83.00 110.00   1.00   14.00    --  112.00  61.00  30.00   27
 58  \w     91.00 118.00   1.00   14.00    --  112.00  61.00 -90.00   27
 59  \w     40.00  65.00   1.00   14.00    --  112.00 -61.00 -30.00   25
 60  \w     33.00  80.00   1.00   14.00    --  112.00 -94.00  30.00   47
 61  \w     40.00 113.00   1.00   14.00    --  112.00-111.00  90.00   73
 62  \w     85.00 113.00   1.00   14.00    --  112.00  61.00-180.00   28
 63  \w     83.00 111.00   1.00   14.00    --  112.00  61.00-120.00   28
 64  \w     59.00 141.00   1.00   14.00    --  112.00 179.00-120.00   82
 65  \w     79.00 113.00   1.00   14.00    --  112.00  77.00  90.00   34
 66  \w    125.00 154.00   1.00   14.00    --  112.00  77.00 -90.00   29
 67  \w     59.00  99.00   1.00   14.00    --  112.00 179.00  30.00   40
;
_diffrn_measurement_device       'four-circle diffractometer'
_diffrn_measurement_device_type
'SuperNova, Single source at offset/far, Atlas'
_diffrn_measurement_method       '\w scans'
_diffrn_orient_matrix_type
'CrysAlisPro convention (1999,Acta A55,543-557)'
_diffrn_orient_matrix_UB_11      -0.0435216000
_diffrn_orient_matrix_UB_12      0.1397149000
_diffrn_orient_matrix_UB_13      0.0848822000
_diffrn_orient_matrix_UB_21      0.1484411000
_diffrn_orient_matrix_UB_22      0.1165224000
_diffrn_orient_matrix_UB_23      -0.0481794000
_diffrn_orient_matrix_UB_31      -0.1458658000
_diffrn_orient_matrix_UB_32      0.0592989000
_diffrn_orient_matrix_UB_33      -0.0986141000
_diffrn_radiation_monochromator  mirror
_diffrn_radiation_probe          x-ray
_diffrn_radiation_type           'Cu K\a'
_diffrn_radiation_wavelength     1.54184
_diffrn_reflns_av_R_equivalents  0.0991
_diffrn_reflns_av_unetI/netI     0.1084
_diffrn_reflns_Laue_measured_fraction_full 0.786
_diffrn_reflns_Laue_measured_fraction_max 0.769
_diffrn_reflns_limit_h_max       8
_diffrn_reflns_limit_h_min       -8
_diffrn_reflns_limit_k_max       9
_diffrn_reflns_limit_k_min       -9
_diffrn_reflns_limit_l_max       13
_diffrn_reflns_limit_l_min       -13
_diffrn_reflns_number            4766
_diffrn_reflns_point_group_measured_fraction_full 0.786
_diffrn_reflns_point_group_measured_fraction_max 0.769
_diffrn_reflns_theta_full        67.684
_diffrn_reflns_theta_max         69.994
_diffrn_reflns_theta_min         3.981
_diffrn_source                   'micro-focus sealed X-ray tube'
_diffrn_source_type              'SuperNova (Cu) X-ray Source'
_exptl_absorpt_coefficient_mu    7.221
_exptl_absorpt_correction_T_max  1.000
_exptl_absorpt_correction_T_min  0.001
_exptl_absorpt_correction_type   gaussian
_exptl_absorpt_process_details
;
CrysAlisPro 1.171.40.53 (Rigaku Oxford Diffraction, 2019)
Numerical absorption correction based on gaussian integration over
			a multifaceted crystal model
Empirical absorption correction using spherical harmonics,
 implemented in SCALE3 ABSPACK scaling algorithm.
;
_exptl_crystal_colour            'clear colourless'
_exptl_crystal_colour_lustre     clear
_exptl_crystal_colour_primary    colourless
_exptl_crystal_density_diffrn    1.738
_exptl_crystal_description       block
_exptl_crystal_F_000             340
_exptl_crystal_size_max          0.077
_exptl_crystal_size_mid          0.046
_exptl_crystal_size_min          0.028
_refine_diff_density_max         0.426
_refine_diff_density_min         -0.455
_refine_diff_density_rms         0.098
_refine_ls_extinction_coef       0.011(3)
_refine_ls_extinction_expression Fc^*^=kFc[1+0.001xFc^2^\l^3^/sin(2\q)]^-1/4^
_refine_ls_extinction_method     'SHELXL-2018/1 (Sheldrick 2018)'
_refine_ls_goodness_of_fit_ref   1.013
_refine_ls_hydrogen_treatment    constr
_refine_ls_matrix_type           full
_refine_ls_number_parameters     164
_refine_ls_number_reflns         1903
_refine_ls_number_restraints     121
_refine_ls_restrained_S_all      0.987
_refine_ls_R_factor_all          0.1533
_refine_ls_R_factor_gt           0.0859
_refine_ls_shift/su_max          0.000
_refine_ls_shift/su_mean         0.000
_refine_ls_structure_factor_coef Fsqd
_refine_ls_weighting_details
'w=1/[\s^2^(Fo^2^)+(0.1364P)^2^] where P=(Fo^2^+2Fc^2^)/3'
_refine_ls_weighting_scheme      calc
_refine_ls_wR_factor_gt          0.2208
_refine_ls_wR_factor_ref         0.2932
_reflns_Friedel_coverage         0.000
_reflns_number_gt                907
_reflns_number_total             1903
_reflns_threshold_expression     'I > 2\s(I)'
_cod_data_source_file            sc1c02240_si_001.cif
_cod_data_source_block           2no2-ss-4br
_cod_depositor_comments
'Adding full bibliography for 4518716--4518724.cif.'
_cod_database_code               4518716
_shelx_shelxl_version_number     2018/1
_chemical_oxdiff_formula         C12BrS2NO2
_shelx_space_group_comment
;
The symmetry employed for this shelxl refinement is uniquely defined
by the following loop, which should always be used as a source of
symmetry information in preference to the above space-group names.
They are only intended as comments.
;
_shelx_estimated_absorpt_t_max   0.823
_shelx_estimated_absorpt_t_min   0.606
_reflns_odcompleteness_completeness 77.85
_reflns_odcompleteness_iscentric 1
_reflns_odcompleteness_theta     69.95
_olex2_refinement_description
;
1. Fixed Uiso
 At 1.2 times of:
  All C(H) groups
2. Rigid body (RIGU) restrains
 C7, Br1, C1, C6, C2, C5, C3, C4, S1, S2, C12, C8, C11, C9, N1, C10, O2, O1
 with sigma for 1-2 distances of 0.004 and sigma for 1-3 distances of 0.004
3.a Aromatic/amide H refined with riding coordinates:
 C6(H6), C3(H3), C9(H9), C2(H2), C5(H5), C12(H12), C10(H10), C11(H11)
;
_shelx_res_file
;
TITL kom_13 in P1
    2no2-ss-4br.res
    created by SHELXL-2018/1 at 13:57:55 on 22-Sep-2020
CELL 1.54184 7.312377 8.067391 11.184371 90.4285 96.8489 93.5396
ZERR 2 0.00122 0.001389 0.001718 0.0132 0.0135 0.014
LATT 1
SFAC C H Br N O S
UNIT 24 16 2 2 4 4
RIGU C7 Br1 C1 C6 C2 C5 C3 C4 S1 S2 C12 C8 C11 C9 N1 C10 O2 O1

L.S. 44 0 0
PLAN  1
SIZE 0.028 0.046 0.077
TEMP 20(2)
CONF
MORE -1
BOND $H
fmap 2 53
acta
OMIT 3 0 1
OMIT 2 -1 1
OMIT 0 2 0
OMIT 1 -1 1
OMIT 0 -1 1
OMIT 1 0 1
OMIT 1 0 2
OMIT 0 -2 1
OMIT 2 4 7
OMIT 0 1 1
OMIT 0 0 2
OMIT 0 -1 4
OMIT 0 1 4
OMIT 0 -2 2
OMIT 0 3 0
OMIT 0 -4 1
OMIT 0 0 6
OMIT 2 -6 5
OMIT 2 3 8
OMIT 0 3 1
OMIT 0 -3 4
OMIT 0 -3 1
OMIT 0 -1 6
OMIT 0 4 1
OMIT 0 2 2
OMIT 0 1 3
OMIT 0 4 2
REM <olex2.extras>
REM <HklSrc "%.\\2NO2-SS-4Br.hkl">
REM </olex2.extras>

WGHT    0.136400
EXTI    0.010536
FVAR       5.73326
BR1   3    0.903924    0.234305    0.568331    11.00000    0.11992    0.15800 =
         0.10248    0.01343    0.00377    0.00012
S1    6    0.128019    0.150036    0.232662    11.00000    0.08673    0.14947 =
         0.15907    0.06393    0.00489   -0.00954
S2    6    0.190854    0.167463    0.059813    11.00000    0.10296    0.09095 =
         0.13984    0.01223   -0.01055   -0.00137
C1    1    0.675899    0.205240    0.471004    11.00000    0.09581    0.11662 =
         0.09695    0.02505    0.01081    0.00222
C6    1    0.526170    0.283880    0.498253    11.00000    0.10457    0.13834 =
         0.11536    0.00972    0.03499    0.00084
AFIX  43
H6    2    0.536652    0.349650    0.567676    11.00000   -1.20000
AFIX   0
C3    1    0.493061    0.086928    0.296708    11.00000    0.11360    0.10877 =
         0.10259    0.01150    0.01349    0.00870
AFIX  43
H3    2    0.481638    0.019283    0.228190    11.00000   -1.20000
AFIX   0
O2    5    0.292758    0.389483   -0.275809    11.00000    0.20174    0.24547 =
         0.09371   -0.02060    0.02804    0.00664
C9    1    0.294096    0.613359   -0.096938    11.00000    0.08218    0.11211 =
         0.10629    0.02666    0.00818    0.02551
AFIX  43
H9    2    0.317873    0.651583   -0.172141    11.00000   -1.20000
AFIX   0
C2    1    0.659766    0.101809    0.370118    11.00000    0.10753    0.10366 =
         0.09555    0.02455    0.01338    0.01290
AFIX  43
H2    2    0.759135    0.043546    0.352148    11.00000   -1.20000
AFIX   0
C5    1    0.363164    0.269002    0.427347    11.00000    0.09805    0.12597 =
         0.13738    0.02415    0.03958    0.02087
AFIX  43
H5    2    0.263257    0.324514    0.447739    11.00000   -1.20000
AFIX   0
C4    1    0.345027    0.169666    0.322954    11.00000    0.09557    0.09948 =
         0.12735    0.02951    0.02105   -0.00242
N1    4    0.269540    0.332944   -0.180300    11.00000    0.09244    0.15517 =
         0.10175   -0.02697   -0.00537    0.00786
C7    1    0.227667    0.384571    0.035504    11.00000    0.06218    0.09547 =
         0.09671    0.00053    0.00392    0.00579
O1    5    0.249927    0.185273   -0.161411    11.00000    0.16144    0.13931 =
         0.14020   -0.04756   -0.00092    0.00517
C12   1    0.222550    0.502585    0.125505    11.00000    0.08739    0.09796 =
         0.08416    0.00827    0.00168    0.01518
AFIX  43
H12   2    0.200123    0.468879    0.202033    11.00000   -1.20000
AFIX   0
C10   1    0.287571    0.722849   -0.005354    11.00000    0.08945    0.08000 =
         0.12849    0.02218   -0.00137    0.01420
AFIX  43
H10   2    0.309007    0.835976   -0.017414    11.00000   -1.20000
AFIX   0
C8    1    0.265048    0.442414   -0.078530    11.00000    0.06429    0.10523 =
         0.08814   -0.00690   -0.00341    0.00953
C11   1    0.250150    0.668279    0.102997    11.00000    0.09854    0.08802 =
         0.11048   -0.00243    0.00924    0.01886
AFIX  43
H11   2    0.242824    0.745216    0.164312    11.00000   -1.20000
AFIX   0
HKLF 4




REM  kom_13 in P1
REM R1 =  0.0859 for     907 Fo > 4sig(Fo)  and  0.1533 for all    1903 data
REM    164 parameters refined using    121 restraints

END

WGHT      0.1364      0.0000

REM Highest difference peak  0.426,  deepest hole -0.455,  1-sigma level  0.098
Q1    1   1.1263  0.2337  0.5685  11.00000  0.05    0.43
;
_shelx_res_checksum              51234
_shelx_hkl_file
;
  -8   3   1-119.897 206.292  37
  -8   4   2 41.2835 135.774  37
  -7  -1   7 349.154 251.052  67
  -7  -1   8 331.723 167.391  67
  -7   1  -1 523.196 674.372  37
  -7   2  -1 157.349 360.404  37
  -7   3  -1 350.398 184.615  37
  -7   4   0 480.769 395.133  37
  -7   5  -4-70.4603 139.126  37
  -7   5   1 935.517 466.465  37
  -7   6   3-155.696 156.043  37
  -7   6   4 14.6552 80.5688  37
  -6  -5   1 654.345 308.076  29
  -6  -5   2-257.288 132.972  29
  -6  -5   3 470.211 247.282  29
  -6  -5   4 245.482 264.709  29
  -6  -4  -6-60.4433 61.6440  33
  -6  -4   1 737.173 420.354  29
  -6  -4   2 154.108 150.834  29
  -6  -4   3 1383.52 531.937  29
  -6  -4   4 217.022 328.460  29
  -6  -3  -7 528.458 217.910  33
  -6  -3  -6 256.673 174.835  33
  -6  -3   4-213.031 235.748  67
  -6  -3   5 5.08756 98.8423  67
  -6  -3   6 541.988 288.477  67
  -6  -3   7 33.8044 164.329  67
  -6  -3   8-70.9746 131.006  67
  -6  -3   9-174.804 133.354  67
  -6  -3  10 56.3073 39.4615  67
  -6  -2  -8 143.697 113.155  33
  -6  -2  -7 172.983 214.479  33
  -6  -2  -6 109.167 215.187  33
  -6  -2   4 371.416 142.168  67
  -6  -2   5 2351.08 805.689  67
  -6  -2   7 224.204 249.172  49
  -6  -2   8 116.636 115.946  49
  -6  -2   9 332.257 185.259  49
  -6  -2  10-134.567 128.538  67
  -6  -1  -7 648.955 299.215  33
  -6  -1  -6-248.890 219.533  33
  -6  -1  -5 1179.84 444.968  33
  -6  -1  -4 135.356 215.465  33
  -6  -1  -3 4082.07 863.442  33
  -6  -1   2 14405.0 2537.31   6
  -6  -1   3 4345.40 1331.76   6
  -6  -1   3 4924.76 1102.98  67
  -6  -1   4 496.403 429.502  67
  -6  -1   5 387.233 300.321  67
  -6  -1   6 536.539 236.204  49
  -6  -1   7-23.9633 174.903  49
  -6  -1   8 101.412 106.791  49
  -6   0  -6-134.489 253.233  33
  -6   0  -5-132.673 233.594  33
  -6   0  -4 1247.20 489.071  33
  -6   0  -3 1.66674 164.811  33
  -6   0   3 9873.27 1543.30  67
  -6   0   4 4103.77 1233.50   6
  -6   0   4 6353.68 1249.70  67
  -6   0   5 1891.62 772.694  67
  -6   0   6 821.099 384.603  38
  -6   0   7 373.467 184.159  38
  -6   0   8 510.502 315.330  38
  -6   0   9 146.359 102.534  38
  -6   0  10 51.8040 54.0207  38
  -6   0  11-0.55500 94.7038  67
  -6   1  -2 5289.33 1241.89  37
  -6   1   4 1407.55 473.784  67
  -6   1   5 4325.23 994.340  67
  -6   1   6-59.9962 136.833  38
  -6   1   6 167.258 134.007  67
  -6   1   7-58.8829 87.4915  38
  -6   1   8 71.9291 119.977  38
  -6   1   9 232.797 182.035  38
  -6   1   9 361.489 286.307  67
  -6   1  10 88.1822 138.152  67
  -6   2  -6-26.5019 230.323  37
  -6   2  -2 860.054 571.661  37
  -6   2  -1 1617.33 754.539   6
  -6   2   5 299.619 286.297  67
  -6   2   6 1258.27 465.046  67
  -6   2   7-547.495 301.392  67
  -6   2   8 1445.29 491.322  67
  -6   2   9-63.0860 98.2881  67
  -6   3  -6 20.1531 161.572  37
  -6   3  -2 1024.56 618.887  37
  -6   5  -5-48.8990 85.8821  37
  -6   5  -1 97.6878 480.738  37
  -6   6  -4 66.6268 56.2458  37
  -6   6   1 587.104 380.995  37
  -5  -7  -2 165.737 83.3171  56
  -5  -7  -1-17.7998 98.3850  56
  -5  -7   0 285.057 168.245  29
  -5  -7   2 485.925 229.594  56
  -5  -7   5 103.569 116.389  29
  -5  -6  -3 60.7203 148.890  56
  -5  -6  -1 90.3271 144.152  29
  -5  -6   1-3.98779 149.804  29
  -5  -6   2 658.739 368.815  29
  -5  -6   3 328.548 248.129  29
  -5  -6   3 116.031 122.332  40
  -5  -6   4 844.157 336.135  40
  -5  -6   4 923.882 449.299  29
  -5  -6   5 13.4934 105.810  40
  -5  -6   6 123.278 148.964  29
  -5  -5  -2 1333.07 472.578  29
  -5  -5  -1 236.964 334.730  56
  -5  -5   0 105.767 249.191  56
  -5  -5   0 801.336 417.224  29
  -5  -5   1-337.375 293.836  56
  -5  -5   1 455.784 322.291  29
  -5  -5   2 122.644 201.321  40
  -5  -5   2 100.108 229.348  22
  -5  -5   3-408.470 412.747  22
  -5  -5   3 191.122 293.208  40
  -5  -5   3 64.0517 214.717  29
  -5  -5   4 1632.46 532.078  56
  -5  -5   4 1713.75 554.442  29
  -5  -5   4 1496.64 474.121  40
  -5  -5   4 1894.11 803.502  22
  -5  -5   5 663.237 501.746  22
  -5  -5   5 441.011 142.144  65
  -5  -5   5 678.811 410.530  29
  -5  -5   5 553.010 343.578  40
  -5  -5   6 24.6762 101.299  40
  -5  -5   6 152.661 159.724  65
  -5  -5   7 47.7713 140.450  29
  -5  -5   7-272.253 220.762  65
  -5  -5   8 62.8785 104.443  65
  -5  -5   9 35.1972 113.628  65
  -5  -4  -3 1202.71 533.829  56
  -5  -4  -2 1570.34 481.912  29
  -5  -4   0 1153.41 470.350  29
  -5  -4   0 814.125 559.549  56
  -5  -4   1 1285.34 447.056  56
  -5  -4   1 1320.03 547.103  29
  -5  -4   1 1933.98 861.703  22
  -5  -4   2 168.149 140.774  29
  -5  -4   2 1012.97 740.253  22
  -5  -4   2 692.832 157.680  40
  -5  -4   3 5325.84 1037.36  29
  -5  -4   3 3808.82 1293.35  22
  -5  -4   3 4085.34 773.286  40
  -5  -4   4 728.578 333.908  56
  -5  -4   4 676.907 327.074  40
  -5  -4   4 484.271 367.486  29
  -5  -4   4 1008.05 382.391  65
  -5  -4   4 350.111 331.259  22
  -5  -4   5 71.2794 484.618  22
  -5  -4   5 821.416 330.130  65
  -5  -4   5 599.043 316.747  40
  -5  -4   6 557.046 477.457  22
  -5  -4   6 192.838 184.403  65
  -5  -4   6 142.189 125.844  40
  -5  -4   7 315.858 112.611  65
  -5  -4   7 161.490 259.753  22
  -5  -4   8 33.2456 187.741  65
  -5  -4   9-85.7241 106.449  65
  -5  -4  10 102.127 78.8148  65
  -5  -4  10 113.873 45.5741  49
  -5  -3  -9 21.4558 125.696  33
  -5  -3  -8-179.309 135.256  35
  -5  -3  -7 428.338 217.216  35
  -5  -3  -3 374.661 337.842  56
  -5  -3  -2 9748.91 1542.36  56
  -5  -3  -2 6586.74 1894.70   5
  -5  -3  -1 2009.11 639.359  29
  -5  -3   0 1502.07 757.330   6
  -5  -3   2 293.638 362.916  67
  -5  -3   2 485.834 168.802  29
  -5  -3   2-411.504 424.913  22
  -5  -3   3 8958.98 1301.33  29
  -5  -3   3 8104.62 1928.56   6
  -5  -3   3 8203.97 1063.61  65
  -5  -3   3 4878.05 1155.80  67
  -5  -3   3 8911.15 1357.60  56
  -5  -3   3 7411.02 1839.58  22
  -5  -3   3 6983.13 1001.10  40
  -5  -3   4 7340.41 1049.37  65
  -5  -3   4 8259.79 1107.63  40
  -5  -3   4 8756.57 1948.76   6
  -5  -3   4 6216.98 1651.60  22
  -5  -3   5 207.885 322.168  40
  -5  -3   5 74.9024 159.659  65
  -5  -3   6 331.229 282.951  29
  -5  -3   6 634.424 329.556  65
  -5  -3   7-1671.22 792.735  22
  -5  -3   7-171.387 212.924  65
  -5  -3   8 67.5076 166.830  65
  -5  -3   8-534.001 425.700  22
  -5  -3   9 213.309 148.471  65
  -5  -3  10 37.4860 172.948  49
  -5  -3  10-83.5601 103.716  65
  -5  -3  11-10.2312 41.7158  49
  -5  -2  -9 263.141 180.231  33
  -5  -2  -9-3.79960 74.4827  35
  -5  -2  -8 397.272 225.335  35
  -5  -2  -7 395.316 233.520  35
  -5  -2  -6 257.509 216.373  35
  -5  -2  -5 980.962 381.260  35
  -5  -2  -4-576.791 581.133   5
  -5  -2  -3 3769.41 1560.94   5
  -5  -2  -1 3451.39 971.667  56
  -5  -2   0 18368.0 2581.76   6
  -5  -2   0 15483.4 1839.93  56
  -5  -2   0 15619.9 1656.33  29
  -5  -2   1 3191.89 717.166  29
  -5  -2   1 3518.18 902.856  56
  -5  -2   3 1253.11 741.017   6
  -5  -2   3 513.746 467.060  22
  -5  -2   4 2286.71 1050.76  22
  -5  -2   4 2894.60 709.779  29
  -5  -2   4 3290.66 701.988  65
  -5  -2   4 1283.54 722.743   6
  -5  -2   5 2021.66 915.816   6
  -5  -2   5 682.391 424.279  22
  -5  -2   5 1437.26 505.353  29
  -5  -2   5 339.001 287.885  65
  -5  -2   6 488.390 289.140  65
  -5  -2   6 393.695 416.260  22
  -5  -2   7 317.162 168.527  38
  -5  -2   7 1097.10 650.585  22
  -5  -2   7 630.069 202.131  65
  -5  -2   8-222.837 167.576  38
  -5  -2   8 135.599 221.767  65
  -5  -2   9 278.665 211.689  49
  -5  -2   9 76.0697 108.806  65
  -5  -2   9 120.714 126.516  38
  -5  -2  10-57.0561 107.345  49
  -5  -2  10 45.2217 62.8895  38
  -5  -2  11-97.8947 95.5571  49
  -5  -1  -9 605.481 261.173  35
  -5  -1  -9 500.510 241.104  33
  -5  -1  -8 63.2231 126.288  35
  -5  -1  -7 92.8206 152.478  35
  -5  -1  -6 803.851 380.234  35
  -5  -1  -5 3378.13 767.468  35
  -5  -1  -4 1820.21 802.199   6
  -5  -1  -4 1733.02 585.356  35
  -5  -1  -4 1200.78 876.943   5
  -5  -1  -3 9958.79 1231.88  35
  -5  -1   3 20235.5 2689.57   6
  -5  -1   4 1162.68 653.301   6
  -5  -1   4 570.357 123.241  65
  -5  -1   5 1117.99 323.712  65
  -5  -1   5 1053.95 328.950  49
  -5  -1   6 1542.39 534.538  38
  -5  -1   6 1630.16 782.416   6
  -5  -1   6 1894.48 578.214  65
  -5  -1   7 291.319 272.300  49
  -5  -1   7 112.959 192.259  65
  -5  -1   7 69.3537 129.401  38
  -5  -1   8 103.128 154.208  38
  -5  -1   8 335.736 189.776  65
  -5  -1   8 56.9161 163.220  49
  -5  -1   9 389.165 195.939  65
  -5  -1   9 165.574 225.432  38
  -5  -1   9 309.042 320.235  49
  -5  -1  10-91.3543 125.071  38
  -5  -1  10-2.59300 149.360  49
  -5  -1  11 292.959 151.701  49
  -5  -1  11 278.076 183.555  38
  -5   0  -9 541.629 288.089  33
  -5   0  -8 48.3615 219.350  35
  -5   0  -8 81.8197 188.845  33
  -5   0  -7 639.262 427.549  35
  -5   0  -7 895.021 405.733  33
  -5   0  -6 2452.58 694.943  35
  -5   0  -5 263.225 236.378  35
  -5   0  -4 129.276 382.635  35
  -5   0  -4-258.281 317.108   6
  -5   0  -3 79.1895 159.395  35
  -5   0   1 4320.53 1165.14   6
  -5   0   5 1673.63 735.650   6
  -5   0   5 1152.56 392.282  49
  -5   0   5 1305.91 448.473  38
  -5   0   6 764.564 500.017   6
  -5   0   6 419.936 336.199  49
  -5   0   6-190.108 274.921  38
  -5   0   7 995.755 415.892  38
  -5   0   7 1274.65 483.490  49
  -5   0   8 332.112 201.473  38
  -5   0   8 405.180 195.547  49
  -5   0   9-51.5646 81.0552  32
  -5   0   9 110.196 130.505  49
  -5   0   9 23.9162 132.125  38
  -5   0  10-252.825 219.289  38
  -5   0  10 82.0445 229.759  49
  -5   0  11 50.1109 113.059  38
  -5   0  12 58.7592 43.5352  38
  -5   1  -7 229.218 185.165  33
  -5   1  -7 578.971 375.133  35
  -5   1  -6 176.381 185.285  33
  -5   1  -6 389.547 312.744  35
  -5   1  -6 216.092 205.616  37
  -5   1  -5 2273.45 634.004  33
  -5   1  -5 2761.25 692.405  35
  -5   1  -4 3749.27 805.880  33
  -5   1  -4 2592.39 963.182   6
  -5   1  -3 10798.3 1407.02  33
  -5   1  -3 9557.31 1793.88   6
  -5   1   3 9122.66 1602.23   6
  -5   1   4 744.924 455.992   6
  -5   1   5 4204.82 862.425  49
  -5   1   5 5087.48 915.096  38
  -5   1   6 989.525 371.924  38
  -5   1   6 1389.79 519.859  49
  -5   1   7 637.796 261.175  49
  -5   1   7 784.487 390.635  38
  -5   1   8 384.762 232.049  38
  -5   1   8 618.072 413.194  49
  -5   1   8 748.603 323.956  32
  -5   1   9 444.394 270.927  32
  -5   1   9 202.859 169.390  38
  -5   1  10 181.286 182.776  38
  -5   1  11 430.491 231.512  38
  -5   1  12 41.5117 57.0157  38
  -5   2  -3 1912.20 895.005   6
  -5   2  -3 2326.35 755.553  37
  -5   2  -2 5074.42 1246.71   6
  -5   2   4 1058.05 494.892  67
  -5   2   4 637.966 252.760  38
  -5   2   5-106.143 219.251  38
  -5   2   6 208.555 259.188  21
  -5   2   6 281.228 322.393  38
  -5   2   7 1320.31 498.947  38
  -5   2   7 1631.13 480.943  49
  -5   2   7 1228.75 608.184  21
  -5   2   8-146.669 121.561  38
  -5   2   8 196.520 325.530  21
  -5   2   9 1045.75 526.940  21
  -5   2   9 815.730 271.079  32
  -5   2   9 733.277 367.361  38
  -5   2  10 120.892 109.738  32
  -5   2  10 143.322 115.047  38
  -5   2  11-77.4901 72.8147  38
  -5   3  -3 1659.70 920.640  37
  -5   3  -1 15022.6 2112.96   6
  -5   3   0 529.301 380.838   6
  -5   3   7 65.9994 171.367  38
  -5   3   8-145.220 137.052  38
  -5   4  -6-180.609 168.366  37
  -5   4  -2 16262.3 2190.98  37
  -5   4  -2 9474.91 1769.19   6
  -5   5  -6 55.0763 61.8230  37
  -5   5  -1 5228.43 1157.92  37
  -5   6  -5-161.444 127.119  37
  -5   6   0 4893.21 1182.49  37
  -5   7  -3-145.099 111.658  37
  -4  -8  -3 98.1358 144.268  56
  -4  -8  -1-159.618 92.5110  56
  -4  -8   0-46.1645 171.085  56
  -4  -8   1 46.2101 90.1498  56
  -4  -8   1 187.742 115.132  29
  -4  -8   2 50.0674 79.2409  29
  -4  -8   3 179.014 152.227  29
  -4  -8   4 66.0717 76.2144  29
  -4  -8   4 9.31728 64.8944  40
  -4  -7  -3 271.251 131.173  56
  -4  -7  -2-70.8474 111.328  56
  -4  -7  -1-54.9974 258.372  56
  -4  -7  -1 277.553 243.977  29
  -4  -7   0 33.5628 175.164  56
  -4  -7   0-35.9996 150.321  29
  -4  -7   1 68.4938 106.090  29
  -4  -7   1 27.6006 230.846  56
  -4  -7   2 359.031 270.563  56
  -4  -7   2 135.943 175.658  40
  -4  -7   2 274.900 227.119  29
  -4  -7   3 44.0495 144.160  40
  -4  -7   3-140.392 146.140  56
  -4  -7   3 48.9535 102.068  29
  -4  -7   4-58.5497 83.5350  40
  -4  -7   4-45.2475 148.762  29
  -4  -7   5 176.640 176.190  40
  -4  -7   5 218.891 129.953  29
  -4  -7   6 12.5737 85.7100  29
  -4  -7   6-11.4335 52.8411  40
  -4  -7   7 10.3600 69.5006  40
  -4  -6  -4 320.611 158.314  56
  -4  -6  -3-25.6496 225.778  56
  -4  -6  -2 2581.17 648.065  29
  -4  -6  -2 986.496 472.130  56
  -4  -6  -1 591.742 374.342  29
  -4  -6  -1-284.628 283.102  56
  -4  -6   0 343.158 104.523  29
  -4  -6   0 255.892 149.953  40
  -4  -6   0 389.116 309.940  56
  -4  -6   1 191.549 117.281  56
  -4  -6   1 528.547 351.390  29
  -4  -6   1 315.752 204.281  40
  -4  -6   2 638.873 286.830  40
  -4  -6   2 705.965 425.160  56
  -4  -6   2 1556.46 749.921  22
  -4  -6   3 673.949 306.165  40
  -4  -6   3 1058.71 541.811  56
  -4  -6   4 613.710 225.860  40
  -4  -6   4 889.538 298.333  56
  -4  -6   4 541.746 385.172  29
  -4  -6   5 77.1726 106.364  40
  -4  -6   5 144.208 280.526  65
  -4  -6   6-48.0185 86.1253  40
  -4  -6   6 27.7544 216.928  65
  -4  -6   6 31.9873 74.9713  29
  -4  -6   7 95.9632 142.420  29
  -4  -6   7 17.0095 74.9183  40
  -4  -6   8-118.434 142.258  40
  -4  -6   9-113.457 113.798  65
  -4  -5  -4 2060.98 657.977  56
  -4  -5  -3-379.505 319.408  56
  -4  -5  -2 286.107 199.058  56
  -4  -5  -2 796.291 445.069  29
  -4  -5  -1 2786.43 871.265  56
  -4  -5  -1 4386.48 937.303  29
  -4  -5   0-135.388 220.812  56
  -4  -5   0 275.769 240.904  40
  -4  -5   1 726.272 464.755  22
  -4  -5   1 680.981 225.582  40
  -4  -5   1 630.422 512.954  56
  -4  -5   2 1473.67 417.563  40
  -4  -5   2 1503.50 627.568  56
  -4  -5   2 3114.95 1242.01  22
  -4  -5   3 792.408 472.381  56
  -4  -5   3 1156.54 649.259  22
  -4  -5   4 2730.86 1152.79  22
  -4  -5   4 2005.60 553.884  56
  -4  -5   4 2109.51 490.824  65
  -4  -5   5 1275.21 877.014  22
  -4  -5   5 634.914 373.424  29
  -4  -5   5 817.534 236.435  40
  -4  -5   6 64.9166 190.198  29
  -4  -5   6 596.480 488.519  22
  -4  -5   6-100.148 225.770  40
  -4  -5   7-113.723 88.2272  40
  -4  -5   7 111.129 128.669  29
  -4  -5   7 73.6379 87.1537  65
  -4  -5   8 214.394 189.102  65
  -4  -5   8-113.048 170.362  40
  -4  -5   9-4.85571 80.4658  49
  -4  -5  10 91.8774 51.1422  65
  -4  -4  -4-102.485 254.627  56
  -4  -4  -3 122.490 336.049  56
  -4  -4  -3 139.840 294.019   5
  -4  -4  -2 4419.25 1503.34   5
  -4  -4  -2 6600.95 1240.66  56
  -4  -4  -2 6253.97 1076.56  29
  -4  -4  -1 1023.32 672.096   5
  -4  -4  -1 262.687 267.896  56
  -4  -4  -1 525.401 344.169  29
  -4  -4   0 6164.60 1119.57  29
  -4  -4   0 3423.10 1268.13   5
  -4  -4   0 5569.40 1334.88  22
  -4  -4   0 5406.85 1039.82  56
  -4  -4   1 5929.06 907.592  40
  -4  -4   1 6724.61 1234.66  56
  -4  -4   1 7617.65 1673.63   6
  -4  -4   1 7999.29 1754.15  22
  -4  -4   2 11358.0 1303.58  40
  -4  -4   2 12943.9 2247.68  22
  -4  -4   2 11649.2 2108.73   6
  -4  -4   2 12101.0 1660.32  56
  -4  -4   3-47.7981 215.561  22
  -4  -4   3-69.5926 273.358  56
  -4  -4   4 18.9061 168.635  22
  -4  -4   4 531.851 233.437  29
  -4  -4   5 1144.60 480.904  29
  -4  -4   5 1832.44 949.293  22
  -4  -4   5 1304.28 353.894  40
  -4  -4   6 1750.13 621.494  29
  -4  -4   6 1440.84 433.804  40
  -4  -4   6 1551.88 849.041  22
  -4  -4   7 1107.55 378.696  65
  -4  -4   7 891.328 324.316  40
  -4  -4   7 675.689 556.867  22
  -4  -4   8 582.284 419.687  65
  -4  -4   8 700.044 276.356  40
  -4  -4   8 1589.87 738.907  22
  -4  -4   9-6.88378 106.298  49
  -4  -4  10-109.546 135.998  65
  -4  -4  11-54.9948 66.2428  65
  -4  -3 -10 197.568 61.8631  35
  -4  -3  -9 147.391 201.171  35
  -4  -3  -5-1678.50 1023.42   5
  -4  -3  -4 3422.10 1386.10   5
  -4  -3  -3-300.405 188.627   5
  -4  -3  -3 1083.27 536.258  56
  -4  -3  -2 17520.2 2855.10   5
  -4  -3  -2 16526.5 1637.80  29
  -4  -3  -1 1511.51 791.283   5
  -4  -3  -1 1575.07 714.818   6
  -4  -3  -1 1983.46 553.415  29
  -4  -3   0 2053.64 597.638  29
  -4  -3   0 1660.70 707.006  22
  -4  -3   0 1557.41 729.710   5
  -4  -3   1 226.979 509.886  22
  -4  -3   1 83.3708 307.914   6
  -4  -3   1 279.440 140.093  29
  -4  -3   2 377.453 363.614  29
  -4  -3   2 321.794 341.233   6
  -4  -3   2-707.964 507.060  22
  -4  -3   3 853.146 622.022  22
  -4  -3   3 134.598 269.455  29
  -4  -3   4 12889.2 1472.24  29
  -4  -3   4 12153.8 2186.63  22
  -4  -3   5 372.723 274.576  40
  -4  -3   5 658.241 571.843  22
  -4  -3   5 63.0252 117.159  29
  -4  -3   6 1177.73 428.958  29
  -4  -3   6 580.404 323.205  40
  -4  -3   7 371.385 434.647  22
  -4  -3   7 1813.99 465.713  40
  -4  -3   7 1033.61 495.626  65
  -4  -3   8 870.797 464.281  22
  -4  -3   8 533.917 275.598  40
  -4  -3   8 790.478 373.960  65
  -4  -3   9 490.337 327.294  38
  -4  -3   9 211.548 270.532  22
  -4  -3   9 113.371 175.290  49
  -4  -3  10 144.151 144.224  65
  -4  -3  10-136.384 125.438  38
  -4  -3  11-136.957 110.929  65
  -4  -3  11 41.8753 94.3630  38
  -4  -3  12-138.073 84.2056  38
  -4  -3  12 6.22609 77.1331  49
  -4  -2 -10 481.416 225.291  35
  -4  -2  -6 1649.13 1414.60   5
  -4  -2  -5 70.8092 251.473   5
  -4  -2  -4 3776.70 1398.70   5
  -4  -2  -3 644.115 454.241   5
  -4  -2  -2 87.0013 520.290   5
  -4  -2  -1 683.277 499.482   6
  -4  -2  -1 626.779 536.539   5
  -4  -2   0 34410.3 3608.23   5
  -4  -2   0 35675.3 3096.66  22
  -4  -2   1 29980.7 2952.50  22
  -4  -2   1 31663.2 3034.85   6
  -4  -2   2 13076.5 2028.20   6
  -4  -2   2 13574.0 2018.95  22
  -4  -2   3 333.929 322.692  29
  -4  -2   3 260.075 215.334  22
  -4  -2   4 5857.81 1380.75  22
  -4  -2   4 4951.98 879.674  29
  -4  -2   5-36.2778 293.194  29
  -4  -2   5 99.2618 327.172  22
  -4  -2   6 7147.96 987.971  40
  -4  -2   6 7684.46 1698.39  22
  -4  -2   6 5973.70 899.124  65
  -4  -2   7 1446.18 541.471  65
  -4  -2   7 2939.14 1019.27  22
  -4  -2   8 1473.90 460.312  38
  -4  -2   8 1179.20 503.190  49
  -4  -2   8 1672.70 857.761  22
  -4  -2   9 481.784 346.436  38
  -4  -2  10 975.157 424.905  38
  -4  -2  10 639.203 304.335  65
  -4  -2  11 210.519 198.616  49
  -4  -2  11 225.946 177.136  65
  -4  -2  11 268.037 168.515  38
  -4  -2  12 67.1847 89.9996  49
  -4  -2  12-122.712 94.4787  38
  -4  -1 -11-125.894 101.528  35
  -4  -1 -10 306.102 265.979  35
  -4  -1 -10 885.789 321.103  33
  -4  -1  -9 306.687 245.869  35
  -4  -1  -6 62.6795 231.265   5
  -4  -1  -5-80.8110 373.454   5
  -4  -1  -5-404.939 358.468   6
  -4  -1  -4 935.974 540.976   5
  -4  -1  -3 4072.24 1350.08   5
  -4  -1  -2 36337.5 3768.63   5
  -4  -1  -1 191.965 443.203   5
  -4  -1   1 8332.13 1464.42   6
  -4  -1   1 7498.88 1369.44  22
  -4  -1   2 2793.07 905.391   6
  -4  -1   2 3388.56 945.605  22
  -4  -1   3 15569.4 2129.11  22
  -4  -1   3 18221.0 2301.02   6
  -4  -1   4 629.635 361.409  22
  -4  -1   5 5220.96 1268.75  22
  -4  -1   5 6660.07 969.645  29
  -4  -1   6 7053.45 1529.79  22
  -4  -1   7 2119.35 620.619  38
  -4  -1   7 2813.90 673.576  49
  -4  -1   7 2747.00 893.613  22
  -4  -1   7 2726.89 1013.26  24
  -4  -1   8 494.774 402.174  38
  -4  -1   8-103.074 227.563  65
  -4  -1   8 606.532 428.199  24
  -4  -1   9 335.950 290.378  38
  -4  -1   9-323.224 215.169  65
  -4  -1   9 715.431 468.352  24
  -4  -1  10-124.038 134.500  65
  -4  -1  10 138.360 167.992  38
  -4  -1  11-25.9638 169.597  38
  -4  -1  11 81.6457 158.076  49
  -4  -1  12 79.5248 104.116  32
  -4  -1  12 148.452 179.163  38
  -4  -1  12 132.597 119.520  49
  -4   0 -11 31.5280 69.0155  35
  -4   0 -10 255.613 196.390  35
  -4   0 -10 266.505 175.065  33
  -4   0  -9 137.910 185.252  35
  -4   0  -9-161.984 236.440  33
  -4   0  -8 224.593 271.850  35
  -4   0  -6 8745.30 1966.00   5
  -4   0  -5 4310.21 1301.51   5
  -4   0  -4 7647.55 1747.11   5
  -4   0  -4 6667.14 1375.21   6
  -4   0  -3 458.182 386.839   5
  -4   0  -2 20839.2 2741.94   5
  -4   0   0 1397.18 612.954   6
  -4   0   2 21077.3 2207.89   6
  -4   0   3-36.7135 281.978   6
  -4   0   4 18164.4 2211.97   6
  -4   0   5 6405.45 1300.98   6
  -4   0   6 983.925 531.952   6
  -4   0   7 551.869 339.290  38
  -4   0   7 946.361 434.703  65
  -4   0   8 2058.78 1122.98   4
  -4   0   8 811.254 333.328  65
  -4   0   8 1397.75 527.928  38
  -4   0   9 2220.74 568.785  65
  -4   0   9 2645.45 635.813  49
  -4   0   9 1773.24 572.463  38
  -4   0  10 1312.16 459.205  49
  -4   0  10 1591.25 517.332  38
  -4   0  10 1925.54 499.068  32
  -4   0  11 179.238 131.875  49
  -4   0  11-11.1963 121.381  38
  -4   0  11 271.115 142.618  32
  -4   0  12 83.6116 94.2508  38
  -4   0  12-55.3525 110.460  32
  -4   1 -10 292.075 231.308  35
  -4   1  -9 793.552 335.439  33
  -4   1  -9 464.060 314.074  35
  -4   1  -8 1593.95 538.042  33
  -4   1  -8 1388.44 496.542  64
  -4   1  -8 1401.80 512.967  35
  -4   1  -7 388.501 286.723  35
  -4   1  -7 568.656 367.406  64
  -4   1  -7 3.12215 271.594  33
  -4   1  -6 3840.91 796.782  35
  -4   1  -6 4202.67 1283.30   6
  -4   1  -6 3378.77 748.792  64
  -4   1  -5 938.971 390.965  35
  -4   1  -4 291.709 373.553   6
  -4   1   3 8293.53 1328.04  21
  -4   1   4 769.636 327.888   4
  -4   1   5 8038.87 1361.84   6
  -4   1   5 8709.39 1543.14   4
  -4   1   6 6547.36 1598.51   4
  -4   1   7 987.120 399.753  49
  -4   1   7 653.664 521.937   4
  -4   1   7 788.265 435.546  38
  -4   1   7 1338.36 448.565  32
  -4   1   8 360.814 204.291  49
  -4   1   8 600.084 524.175   4
  -4   1   8 176.255 177.208  32
  -4   1   8-91.2910 129.466  38
  -4   1   9 316.972 295.116  32
  -4   1   9 438.046 271.718  49
  -4   1   9 83.1784 192.014  38
  -4   1  10-36.6875 165.909  38
  -4   1  10-87.9119 182.834  32
  -4   1  10-88.6480 106.689  49
  -4   1  11-129.011 81.6902  32
  -4   1  11-8.01386 113.333  38
  -4   1  12-117.671 121.863  38
  -4   2  -9-197.651 171.715  35
  -4   2  -8 306.704 247.391  35
  -4   2  -7 861.985 318.486  37
  -4   2  -7 1614.09 540.765  64
  -4   2  -7 1621.57 484.914  33
  -4   2  -7 1790.14 559.784  35
  -4   2  -6 10267.0 1309.95  35
  -4   2  -6 9851.16 1301.44  64
  -4   2  -6 10210.5 1343.15  33
  -4   2  -5 135.493 348.635  35
  -4   2  -5 428.158 296.682  33
  -4   2  -5 12.2413 254.736  64
  -4   2  -5 66.8045 181.796   6
  -4   2  -3 8153.92 1460.39   6
  -4   2  -2 4277.99 998.141   6
  -4   2   4 840.088 502.079  21
  -4   2   6-82.7987 225.286  38
  -4   2   6 520.331 409.261   4
  -4   2   6 177.272 152.507  49
  -4   2   7 2637.04 613.397  38
  -4   2   7 2798.22 620.169  49
  -4   2   7 2727.22 999.341   4
  -4   2   7 2819.34 647.349  32
  -4   2   8 924.147 433.945  38
  -4   2   8 1047.00 365.111  32
  -4   2   9 3558.71 785.060  32
  -4   2   9 3845.28 802.987  38
  -4   2   9 2119.25 581.356  54
  -4   2  10 396.825 261.336  38
  -4   2  10 73.1884 158.526  54
  -4   2  10-10.5747 103.283  32
  -4   2  11 19.8269 95.8484  54
  -4   2  11 13.7542 123.247  38
  -4   2  12 32.3907 70.4521  38
  -4   2  12-40.9051 75.2029  32
  -4   3  -7 278.557 104.117  37
  -4   3  -4 2822.33 1001.85   6
  -4   3  -1 6915.46 1256.12   6
  -4   3   0 15105.4 1780.69   6
  -4   3   5 5174.36 897.731  38
  -4   3   5 3223.99 1014.13  21
  -4   3   6 556.988 287.335  32
  -4   3   6 795.665 321.290  38
  -4   3   6 446.178 341.214  54
  -4   3   6 305.522 285.135  21
  -4   3   7 84.3653 520.587  21
  -4   3   7 295.849 302.726  38
  -4   3   7 792.609 334.925  54
  -4   3   8 1319.17 486.806  38
  -4   3   8 375.372 357.814  21
  -4   3   8 719.433 339.035  54
  -4   3   9 178.857 190.297  32
  -4   3   9 129.046 213.538  21
  -4   3   9 475.965 276.555  54
  -4   3   9 85.3911 170.834  38
  -4   3  10 58.9974 184.423  38
  -4   3  10 142.097 129.687  32
  -4   4  -4 3282.91 1076.93   6
  -4   4  -2-112.576 198.549   6
  -4   5  -6-153.546 240.675  37
  -4   5  -2 1585.60 918.469  37
  -4   6  -5 1892.76 462.891  37
  -4   6   0 865.792 479.273  37
  -3  -9   0 57.4695 92.2651  56
  -3  -9   1 80.2540 132.326  56
  -3  -8  -3 51.8915 76.9664  56
  -3  -8  -2-67.9876 195.236  56
  -3  -8  -1 169.252 144.174  56
  -3  -8   0 59.3721 75.0154  29
  -3  -8   1 246.672 202.388  56
  -3  -8   2-236.152 270.666  56
  -3  -8   2-50.2495 123.425  40
  -3  -8   3 23.1517 88.6713  40
  -3  -8   3 66.0508 112.969  56
  -3  -8   4-152.673 99.4786  40
  -3  -8   5 505.653 221.015  29
  -3  -8   5-19.5923 92.4594  40
  -3  -8   6 147.874 102.510  40
  -3  -8   6 78.6104 47.5265  29
  -3  -7  -4-17.2216 230.555  56
  -3  -7   0-175.705 237.342  28
  -3  -7   1 186.299 264.319  28
  -3  -7   2 171.896 120.577  28
  -3  -7   3 741.518 255.120  28
  -3  -7   3 252.984 307.176  22
  -3  -7   4-295.348 321.934  22
  -3  -7   4-149.089 241.464  28
  -3  -7   4 56.0297 190.070  56
  -3  -7   6 241.448 242.363  29
  -3  -7   7-94.0173 65.6918  40
  -3  -7   7-198.997 157.715  29
  -3  -7   8-41.6980 74.1287  40
  -3  -7   8 50.5902 74.4954  65
  -3  -6  -5 1171.85 515.964  56
  -3  -6  -4 453.503 325.909  56
  -3  -6  -1 1516.58 572.400  28
  -3  -6   0-1.70101 248.810  28
  -3  -6   1 1702.37 648.726  28
  -3  -6   1 2665.20 989.835  22
  -3  -6   2 52.4229 294.596  28
  -3  -6   2 340.653 392.429  22
  -3  -6   3 3294.97 1180.67  22
  -3  -6   3 1957.57 519.219  40
  -3  -6   3 3105.67 792.319  28
  -3  -6   4 48.4141 181.283  22
  -3  -6   4-34.5080 120.450  28
  -3  -6   4 109.416 221.788  26
  -3  -6   4-46.8815 150.204  40
  -3  -6   5 334.868 251.231  26
  -3  -6   5 207.676 186.145  28
  -3  -6   5 301.413 364.188  22
  -3  -6   6 858.632 354.978  26
  -3  -6   6 581.313 470.444  22
  -3  -6   6 822.321 442.430  65
  -3  -6   7 483.581 293.669  65
  -3  -6   7 972.774 599.324  22
  -3  -6   7 622.138 292.121  29
  -3  -6   7 439.572 235.789  26
  -3  -6   8 401.832 226.407  40
  -3  -6   9 233.605 138.022  40
  -3  -6   9 75.1028 80.4534  65
  -3  -6  10-54.7612 77.5797  49
  -3  -5  -5 2062.41 669.007  56
  -3  -5  -3 3916.98 1375.58   5
  -3  -5  -2-133.595 274.952   5
  -3  -5  -1 7799.16 1800.35   5
  -3  -5  -1 14061.6 1609.78  28
  -3  -5   0 1511.90 777.608  22
  -3  -5   0 1395.07 590.482  28
  -3  -5   1 954.581 364.332  40
  -3  -5   1 402.009 400.940  28
  -3  -5   2 74.1121 314.633  40
  -3  -5   2 103.417 243.149  28
  -3  -5   3 300.738 298.033  26
  -3  -5   3 203.236 134.264  28
  -3  -5   3 285.630 344.184  40
  -3  -5   4 863.495 362.821  26
  -3  -5   4 844.019 444.494  28
  -3  -5   4 1605.72 610.224  40
  -3  -5   5 775.194 375.347  28
  -3  -5   5 723.415 344.516  26
  -3  -5   5 403.518 289.494  40
  -3  -5   6 559.363 464.178  22
  -3  -5   6 1366.29 492.878  26
  -3  -5   6 817.227 372.079  28
  -3  -5   7-71.4515 250.256  29
  -3  -5   7 385.711 404.384  22
  -3  -5   7-150.366 172.757  26
  -3  -5   8 1216.66 638.581  22
  -3  -5   8 534.664 332.380  65
  -3  -5   9 318.972 205.580  40
  -3  -5  10 33.2798 130.797  65
  -3  -5  11 167.808 73.8807  65
  -3  -4  -3 8205.73 1926.91   5
  -3  -4  -2 846.606 588.373   5
  -3  -4  -1 279.832 339.364  28
  -3  -4  -1 324.744 352.894   5
  -3  -4   0 2661.56 719.038  28
  -3  -4   0 3001.94 873.326   6
  -3  -4   0 2178.09 819.235   5
  -3  -4   0 2160.79 906.264  22
  -3  -4   1 1273.35 606.196   5
  -3  -4   1 1754.90 684.568  22
  -3  -4   1 800.385 427.659  28
  -3  -4   2 8909.22 1265.67  28
  -3  -4   2 8727.08 1028.52  26
  -3  -4   3 13695.7 1339.20  26
  -3  -4   3 14438.1 1567.91  28
  -3  -4   4 1684.75 503.874  26
  -3  -4   4 2514.55 655.687  28
  -3  -4   5 9164.86 1150.42  40
  -3  -4   5 9868.03 1207.02  26
  -3  -4   5 9103.55 1191.46  28
  -3  -4   6 1631.70 542.872  26
  -3  -4   6 1172.57 717.591  22
  -3  -4   7 219.781 319.972  22
  -3  -4   7 328.800 264.383  26
  -3  -4   8 2138.62 553.578  26
  -3  -4   8 1900.77 558.870  65
  -3  -4   8 1549.72 869.144  22
  -3  -4   9-312.476 327.705  22
  -3  -4  10 90.3707 102.486  65
  -3  -4  11 633.857 256.588  38
  -3  -3  -2 8171.51 1737.83   5
  -3  -3  -1 70709.9 4770.16   5
  -3  -3  -1 85423.9 4267.83  22
  -3  -3   0 80.0436 279.149   5
  -3  -3   0-178.447 245.224  22
  -3  -3   0-246.679 250.475   6
  -3  -3   1 17108.0 1239.44  26
  -3  -3   1 18223.1 2276.74  22
  -3  -3   1 14782.8 2009.77   5
  -3  -3   2-47.1934 136.224  26
  -3  -3   2 242.093 317.495  22
  -3  -3   3 3929.38 693.270  26
  -3  -3   4 11406.3 1328.30  28
  -3  -3   4 11760.3 1202.72  26
  -3  -3   5 8516.34 1111.84  28
  -3  -3   5 11843.5 2111.00  22
  -3  -3   5 10138.7 1160.07  26
  -3  -3   6 191.805 296.851  22
  -3  -3   6 274.862 262.397  26
  -3  -3   7 3016.57 684.128  26
  -3  -3   7 2313.84 862.659  24
  -3  -3   7 3555.46 1147.44  22
  -3  -3   8 1508.42 456.570  65
  -3  -3   8 901.023 620.085  22
  -3  -3   8 1104.95 594.151  24
  -3  -3   9-585.724 440.923  22
  -3  -3   9-149.633 227.417  24
  -3  -3  10 508.449 376.745  24
  -3  -3  10 68.5646 208.259  65
  -3  -3  11 187.759 214.294  38
  -3  -3  12 141.565 108.896  65
  -3  -3  12-37.9455 57.6266  38
  -3  -2  -2 5458.51 1308.42   5
  -3  -2  -1 18835.2 1804.13  22
  -3  -2  -1 17135.8 2197.09   5
  -3  -2   0 197.353 336.338   5
  -3  -2   0 241.860 184.083   6
  -3  -2   0 51.1758 156.304  22
  -3  -2   1 19435.8 2079.02  22
  -3  -2   1 18601.3 2215.71   5
  -3  -2   2 17686.2 2074.09  22
  -3  -2   2 17750.1 1236.83  26
  -3  -2   3 13645.6 1154.96  26
  -3  -2   3 12676.9 1860.42  22
  -3  -2   4 6020.36 815.484  26
  -3  -2   4 6750.20 1432.16  22
  -3  -2   5 18813.2 1509.38  26
  -3  -2   5 19749.3 2474.51  22
  -3  -2   5 17862.8 2068.06  24
  -3  -2   6 536.464 251.718  26
  -3  -2   6 364.463 528.615  22
  -3  -2   6 589.053 404.889  24
  -3  -2   7 439.286 390.580  22
  -3  -2   7 479.894 246.532  65
  -3  -2   7-194.932 269.867  24
  -3  -2   8 1098.97 596.145  24
  -3  -2   8 59.1868 188.828  22
  -3  -2   9 376.746 365.572  24
  -3  -2   9 684.589 368.490  65
  -3  -2  10 1230.72 469.129  49
  -3  -2  10 944.501 525.388  24
  -3  -2  11 104.501 148.045  65
  -3  -2  11 253.679 231.297  38
  -3  -2  12-26.2905 63.5657  49
  -3  -2  12 90.9867 119.094  38
  -3  -1 -12 58.8440 103.539  35
  -3  -1  -7 2641.26 1277.78   5
  -3  -1  -6 1389.41 878.620   5
  -3  -1  -6 1084.13 546.783   6
  -3  -1  -5 10913.0 1602.29   6
  -3  -1  -5 9110.56 1940.46   5
  -3  -1  -4 2643.15 1028.78   5
  -3  -1  -3 12254.2 1990.19   5
  -3  -1  -2 76019.0 4648.43   5
  -3  -1  -1 28771.3 2700.84   5
  -3  -1   0 12658.6 1437.87  22
  -3  -1   0 10574.7 1695.46   5
  -3  -1   0 12337.1 1465.17   6
  -3  -1   1 43184.2 2812.61  22
  -3  -1   1 44340.7 2857.23   6
  -3  -1   2 2965.75 795.120  22
  -3  -1   3 515.048 351.592  22
  -3  -1   4 39921.9 2655.75  24
  -3  -1   4 42073.0 3126.36  22
  -3  -1   5 608.025 386.820  24
  -3  -1   5 925.317 514.475  22
  -3  -1   6 3722.36 1008.32  24
  -3  -1   6 3740.83 1015.81  22
  -3  -1   7 8235.36 1520.27  22
  -3  -1   7 7674.24 1536.78  24
  -3  -1   8 3847.38 762.103  65
  -3  -1   8 3540.10 1074.74  24
  -3  -1   9 391.920 548.089  24
  -3  -1   9 230.473 244.290  49
  -3  -1  10-58.0093 210.180  38
  -3  -1  10-219.527 146.508  65
  -3  -1  10-11.5139 137.485  24
  -3  -1  11 5.73968 129.579  38
  -3  -1  11-147.671 216.610  24
  -3  -1  12 55.9697 133.363  49
  -3  -1  12 103.131 133.739  38
  -3  -1  13 45.4971 46.0615  38
  -3  -1  13 103.479 116.938  32
  -3   0 -12-75.8677 116.663  35
  -3   0 -11 783.843 273.294  35
  -3   0 -11 933.469 340.361  64
  -3   0 -10 116.552 172.520  33
  -3   0  -9 1173.05 469.134  64
  -3   0  -7 426.351 392.140   6
  -3   0  -6 9533.92 1960.94   5
  -3   0  -6 10110.1 1733.97   6
  -3   0  -5 9341.91 1824.86   5
  -3   0  -4 19616.3 2468.72   5
  -3   0  -4 18696.9 1986.05   6
  -3   0  -3 1406.46 621.128   5
  -3   0  -2 15411.6 1987.75   5
  -3   0  -1 64418.3 3968.96   5
  -3   0   1 22554.1 1858.84   6
  -3   0   2 21043.2 1927.54  22
  -3   0   2 21618.3 1897.92   6
  -3   0   3 11768.5 1511.94  22
  -3   0   3 12162.7 1321.80  24
  -3   0   4 70427.3 3833.90  22
  -3   0   4 73189.8 3601.53  24
  -3   0   5 11818.7 1597.46  24
  -3   0   5 12315.3 1634.87  22
  -3   0   6 284.387 447.263  24
  -3   0   6 121.321 231.275  22
  -3   0   7 529.069 429.300  24
  -3   0   7 226.223 247.611  22
  -3   0   8 411.484 333.602  65
  -3   0   8 242.716 341.585  38
  -3   0   8 1069.29 566.997   4
  -3   0   9 1540.19 596.417  38
  -3   0   9 1043.26 485.318  65
  -3   0   9 1011.92 589.276  24
  -3   0   9 1217.51 830.081   4
  -3   0  10 504.704 305.020  38
  -3   0  10-71.6574 194.426  24
  -3   0  10 322.949 193.116  49
  -3   0  11 349.308 261.911  38
  -3   0  11 212.776 213.154  49
  -3   0  12 307.419 172.490  38
  -3   0  12 55.3800 133.025  32
  -3   0  12 451.130 193.500  49
  -3   0  13 66.3312 70.2406  38
  -3   0  13-31.8141 98.3698  32
  -3   1 -11 171.044 167.606  35
  -3   1 -11 249.441 247.329  64
  -3   1 -10 147.784 119.795  35
  -3   1  -9 164.751 161.413  33
  -3   1  -9 257.184 211.173  64
  -3   1  -8 4958.70 994.291  64
  -3   1  -7 2622.03 970.038   6
  -3   1  -6 1866.72 773.108   6
  -3   1  -5 5246.25 1224.83   5
  -3   1  -4 844.675 431.379   6
  -3   1  -4 1861.74 706.383   5
  -3   1  -3 18555.1 2099.66   5
  -3   1  -3 19223.4 1923.31   6
  -3   1   1 17439.6 983.065   4
  -3   1   2 1560.60 478.647   4
  -3   1   3 1224.04 448.149   4
  -3   1   3 1422.65 525.303   6
  -3   1   4 651.684 392.394   4
  -3   1   4 568.150 290.069   6
  -3   1   5 215.185 321.528   4
  -3   1   5 548.681 332.790  24
  -3   1   6 17089.7 2443.28   4
  -3   1   6 16726.1 2068.65  24
  -3   1   7 8010.09 1809.18   4
  -3   1   7 7353.36 1478.48  24
  -3   1   8 6698.16 1508.46  24
  -3   1   8 9306.81 1237.43  38
  -3   1   8 8913.58 2045.27   4
  -3   1   8 9213.75 1103.88  49
  -3   1   9 671.216 571.917  24
  -3   1   9 243.222 241.827  49
  -3   1   9 146.609 219.830  38
  -3   1  10 571.388 303.703  38
  -3   1  10 308.337 221.331  32
  -3   1  10 339.663 212.260  49
  -3   1  11-6.82569 148.014  38
  -3   1  11-77.6958 128.550  32
  -3   1  11 27.7344 202.777  49
  -3   1  12-102.547 140.663  38
  -3   1  12 281.973 189.684  32
  -3   1  13 105.834 78.6862  38
  -3   1  13 5.52733 41.9071  54
  -3   2 -11 57.4259 162.450  64
  -3   2 -10 203.251 182.580  35
  -3   2  -9 119.418 118.534  35
  -3   2  -8 438.993 261.054  33
  -3   2  -8 620.664 374.134  35
  -3   2  -8 353.671 255.774  64
  -3   2  -7-181.987 220.201  33
  -3   2  -7-315.065 234.339  64
  -3   2  -7 183.576 188.018  35
  -3   2  -6 6997.72 1025.49  35
  -3   2  -6 7931.34 1119.28  64
  -3   2  -5 805.859 479.320   6
  -3   2  -3 8590.88 1334.99   6
  -3   2  -2 50427.3 3050.31   6
  -3   2   2 17583.1 1422.84   4
  -3   2   2 19071.3 1817.41  21
  -3   2   3 6796.25 902.423   6
  -3   2   3 7577.00 1108.04   4
  -3   2   4 73258.3 3882.53   4
  -3   2   5 238.734 256.538   4
  -3   2   6 1480.84 681.762   4
  -3   2   7 3429.78 699.741  38
  -3   2   7 3048.85 1097.89   4
  -3   2   7 3189.56 596.259  49
  -3   2   7 2912.02 621.481  32
  -3   2   8 1055.44 412.377  38
  -3   2   8 914.069 375.416  32
  -3   2   8 539.682 311.529  49
  -3   2   9 141.053 251.669  38
  -3   2   9 315.902 287.943  49
  -3   2   9 76.0222 220.754  32
  -3   2  10 286.528 212.737  38
  -3   2  10 660.740 295.154  32
  -3   2  11-2.06887 104.905  38
  -3   2  11 31.9936 139.341  32
  -3   2  12 113.197 122.321  54
  -3   2  12-48.2587 120.334  38
  -3   3 -10 244.378 156.232  64
  -3   3  -9 875.796 420.186  64
  -3   3  -8 2381.23 557.312  35
  -3   3  -7 169.039 171.917  35
  -3   3  -7-43.1287 201.524  37
  -3   3  -6 6803.55 983.018  35
  -3   3  -5 797.947 517.352   6
  -3   3  -4-23.4550 117.305   6
  -3   3  -1 1576.19 538.542   6
  -3   3   0 23262.1 1933.08   6
  -3   3   1 521.928 346.305   6
  -3   3   2 54.4245 138.003   4
  -3   3   3 4224.42 987.180  21
  -3   3   3 4899.26 968.299   4
  -3   3   4 367.152 289.373   4
  -3   3   4 261.256 381.661  21
  -3   3   5 4008.47 1052.81   4
  -3   3   6 8724.06 1707.15   4
  -3   3   7 2025.72 516.500  32
  -3   3   7 3449.01 1120.16   4
  -3   3   7 2468.81 621.635  38
  -3   3   8 402.191 253.664  38
  -3   3   8 299.587 182.770  32
  -3   3   8-292.080 367.643   4
  -3   3   9 244.461 200.789  38
  -3   3  10-26.1485 128.614  38
  -3   3  10-36.8467 71.1349  54
  -3   3  11 231.959 169.758  32
  -3   3  11-85.9690 143.295  54
  -3   3  11-175.282 201.662  38
  -3   4  -8 578.611 396.627  64
  -3   4  -7 371.518 289.736  64
  -3   4  -6 138.480 193.985  64
  -3   4  -5 348.997 300.292  64
  -3   4  -4 5969.39 1396.98   6
  -3   4  -3 3090.33 937.792   6
  -3   4  -1 6384.83 1181.74   6
  -3   4   0 6350.41 1135.97   6
  -3   4   4 2875.99 907.685   4
  -3   4   5 1694.68 699.057   4
  -3   4   5 735.717 505.574  21
  -3   4   6 1195.81 626.958  21
  -3   4   6 2958.00 648.870  32
  -3   4   6 3984.56 745.201  38
  -3   4   6 3134.22 701.037  54
  -3   4   6 4565.77 1234.66   4
  -3   4   7 533.396 452.977   4
  -3   4   7 692.228 329.413  54
  -3   4   7 497.402 403.095  21
  -3   4   7 782.006 324.800  38
  -3   4   7 557.774 226.710  32
  -3   4   8 106.599 127.422  54
  -3   4   8 217.152 121.418  38
  -3   4   8-37.4743 208.348  32
  -3   4   9 300.209 253.230  54
  -3   4   9 633.893 436.311  21
  -3   5  -6 7422.82 1034.23  37
  -3   6  -5-300.299 198.366  37
  -2  -9  -3 132.334 129.234  56
  -2  -9  -2 214.772 173.894  56
  -2  -9   2-75.8452 112.082  56
  -2  -9   3-85.2316 115.663  56
  -2  -9   4 131.566 66.1525  40
  -2  -8  -1-162.621 188.497  28
  -2  -8   0 240.556 142.617  28
  -2  -8   1 27.2981 117.165  28
  -2  -8   2 284.722 308.023  28
  -2  -8   3 118.512 103.984  40
  -2  -8   3-357.114 217.150  28
  -2  -8   4 420.909 250.125  28
  -2  -8   5 25.5316 122.908  28
  -2  -7  -2 2102.76 596.040  28
  -2  -7  -1 322.289 268.210  28
  -2  -7   0 959.034 400.535  40
  -2  -7   1 311.110 328.726  40
  -2  -7   3 1101.97 617.198  25
  -2  -7   4 290.800 273.824  28
  -2  -7   4-1.02302 176.158  26
  -2  -7   5 39.2472 88.1884  26
  -2  -7   5 688.733 367.978  28
  -2  -7   6 738.167 331.479  28
  -2  -7   6 1636.97 429.521  26
  -2  -7   6 731.275 365.411  40
  -2  -7   7 522.160 223.806  26
  -2  -7   8 237.384 171.252  65
  -2  -7   8 73.0623 100.790  26
  -2  -7   9 8.88462 37.9637  40
  -2  -6  -2 2334.02 706.518  28
  -2  -6   1 833.535 550.813  25
  -2  -6   1 851.457 318.147  28
  -2  -6   2 614.666 410.977  28
  -2  -6   2 1613.70 782.122  25
  -2  -6   3 2023.38 531.127  26
  -2  -6   3 1165.35 899.324  25
  -2  -6   3 1713.90 545.598  28
  -2  -6   4 1234.39 697.648  25
  -2  -6   4 1024.14 387.015  26
  -2  -6   5 1664.02 512.805  26
  -2  -6   5-3.42121 550.575  25
  -2  -6   6 134.318 255.078  25
  -2  -6   6 524.797 306.802  26
  -2  -6   6 575.429 314.258  28
  -2  -6   7 2.95384 114.920  28
  -2  -6   7 153.763 159.693  26
  -2  -6   7 200.998 242.309  40
  -2  -6   8 115.905 192.782  26
  -2  -6   9 162.456 57.9182  40
  -2  -6   9 416.668 157.081  65
  -2  -6   9 370.600 202.583  26
  -2  -5  -1 2084.70 877.225   5
  -2  -5   0 7622.18 1214.10  28
  -2  -5   0 6857.08 1506.66  25
  -2  -5   1 382.237 384.639  25
  -2  -5   1 508.850 446.664  28
  -2  -5   2 1025.17 322.896  26
  -2  -5   2 1521.97 902.004  25
  -2  -5   2 1160.51 433.906  28
  -2  -5   3 147.473 172.895  26
  -2  -5   3 567.921 320.531  28
  -2  -5   3 383.959 150.430  25
  -2  -5   4 985.797 384.209  26
  -2  -5   4 1071.60 487.561  28
  -2  -5   4 651.127 517.090  25
  -2  -5   5 16960.9 2563.15  25
  -2  -5   5 16538.8 1564.69  26
  -2  -5   6 5134.70 1419.12  25
  -2  -5   6 4530.16 865.357  28
  -2  -5   6 5125.92 902.820  26
  -2  -5   7 836.653 357.527  26
  -2  -5   8 324.476 255.010  40
  -2  -5   8 461.237 245.338  26
  -2  -5   8 260.321 289.845  24
  -2  -5   9 2481.35 849.014  22
  -2  -5   9 255.894 222.312  26
  -2  -5  10 201.561 162.048  65
  -2  -5  11 94.7607 120.837  65
  -2  -4   0 13011.4 1843.11  25
  -2  -4   0 9905.85 1536.52   5
  -2  -4   1 5452.85 1277.78  25
  -2  -4   1 3879.57 947.299   5
  -2  -4   1 5774.77 726.248  26
  -2  -4   2 3114.75 988.900  25
  -2  -4   2 2002.17 469.972  26
  -2  -4   3 10195.3 1113.11  26
  -2  -4   3 10353.0 1865.80  25
  -2  -4   4-219.342 145.728  26
  -2  -4   4-40.5356 208.857  25
  -2  -4   4-69.2327 150.388  28
  -2  -4   5 1393.97 458.450  26
  -2  -4   5 1426.92 713.203  25
  -2  -4   6 14366.7 1441.26  26
  -2  -4   6 12294.5 2121.84  25
  -2  -4   6 12367.3 1315.26  28
  -2  -4   7 38.3315 148.244  25
  -2  -4   7-93.3470 198.335  26
  -2  -4   8-417.154 390.775  24
  -2  -4   8 27.8585 211.639  26
  -2  -4   9 1355.97 440.453  26
  -2  -4   9 1181.70 620.422  24
  -2  -4   9 1385.30 671.807  22
  -2  -4  10 262.827 239.787  65
  -2  -4  10 792.491 473.098  24
  -2  -4  11 212.009 152.792  65
  -2  -4  12 13.3312 45.5591  65
  -2  -4  12 337.990 169.242  38
  -2  -3  -2 1223.00 427.648   6
  -2  -3  -1 45178.5 2571.83   6
  -2  -3   0 13469.2 1667.16   5
  -2  -3   0 16205.3 1830.52  25
  -2  -3   1 8878.91 1297.66   5
  -2  -3   1 12137.4 1708.02  25
  -2  -3   2 15800.0 2004.77  25
  -2  -3   3 316.851 433.067  25
  -2  -3   3-201.908 213.077  26
  -2  -3   4 5349.32 759.308  26
  -2  -3   4 5600.14 1378.02  25
  -2  -3   5 27225.2 1854.10  26
  -2  -3   5 27833.3 2947.54  25
  -2  -3   6 343.876 496.812  25
  -2  -3   6 1029.17 384.871  26
  -2  -3   7 2341.18 881.595  24
  -2  -3   7 2899.26 669.607  26
  -2  -3   8 4588.91 1309.58  22
  -2  -3   8 5900.35 1475.70   9
  -2  -3   8 3849.59 1214.18  24
  -2  -3   8 4893.93 850.849  26
  -2  -3   9 3499.45 1103.45  24
  -2  -3   9 3482.42 728.229  26
  -2  -3  10-1081.93 586.352  24
  -2  -3  11-156.096 152.182  65
  -2  -3  11-106.346 145.820  49
  -2  -3  12 33.0360 108.667  38
  -2  -2  -4 12018.2 1273.36   6
  -2  -2  -2 2684.52 571.300   6
  -2  -2  -1 40330.3 2237.26   6
  -2  -2   0 11392.4 1476.30   5
  -2  -2   1 5355.18 1015.75  25
  -2  -2   1 5972.80 1033.23   5
  -2  -2   2 10985.7 1527.51  25
  -2  -2   3 13587.2 1743.41  25
  -2  -2   4 7027.86 820.100  26
  -2  -2   4 5518.98 1181.77  25
  -2  -2   5 36178.5 1966.20  26
  -2  -2   5 36344.0 3028.00  25
  -2  -2   6 12344.7 1217.36  26
  -2  -2   6 13512.9 1932.77  24
  -2  -2   7 302.053 328.056   9
  -2  -2   7 245.309 293.183  24
  -2  -2   7 607.846 431.548  22
  -2  -2   7 647.069 327.559  26
  -2  -2   8 470.924 255.037  24
  -2  -2   8 185.257 284.767   9
  -2  -2   8 536.380 301.596  26
  -2  -2   8 837.251 555.063  22
  -2  -2   9 894.718 503.191  65
  -2  -2   9 1606.01 767.668  24
  -2  -2   9 884.529 587.151   9
  -2  -2  10 442.877 611.067  24
  -2  -2  11 986.538 549.526  24
  -2  -2  11 758.767 322.278  49
  -2  -2  12 96.9210 158.628  38
  -2  -2  13 123.296 108.021  38
  -2  -2  13-9.10828 91.0810  49
  -2  -1  -4 2331.66 596.774   6
  -2  -1   0 41905.0 2548.93   5
  -2  -1   0 45671.7 2245.78   6
  -2  -1   1 21123.8 1857.87   5
  -2  -1   1 20529.8 1617.64  22
  -2  -1   2 20339.9 1730.59  22
  -2  -1   3 38108.7 2194.94  24
  -2  -1   4 23441.3 1996.46  24
  -2  -1   5 2021.56 653.070   9
  -2  -1   5 2926.20 528.320  26
  -2  -1   5 3035.25 892.447  22
  -2  -1   5 2075.45 611.230  24
  -2  -1   6 6583.28 1258.00   9
  -2  -1   6 5744.08 763.326  26
  -2  -1   6 6827.66 1287.79  22
  -2  -1   6 6253.65 1243.78  24
  -2  -1   7 20704.9 2490.14  24
  -2  -1   7 19146.3 1482.68  26
  -2  -1   7 21955.2 2607.80   9
  -2  -1   7 21763.8 2346.34  22
  -2  -1   8 8877.54 1780.98   9
  -2  -1   8 9205.47 1805.59  24
  -2  -1   9 1730.40 890.850   9
  -2  -1   9 4936.48 1734.17   4
  -2  -1   9 2793.18 1056.07  24
  -2  -1  10 478.774 508.673  24
  -2  -1  10 562.382 377.365  49
  -2  -1  11 179.037 181.879  38
  -2  -1  11-60.7435 173.374  24
  -2  -1  12 116.078 140.678  38
  -2  -1  12-109.405 159.584  49
  -2  -1  13 181.084 122.801  38
  -2  -1  13 29.0893 70.0699  32
  -2   0 -12-126.441 71.2980  35
  -2   0  -7 1903.54 665.578   2
  -2   0  -4 36577.0 2431.82   6
  -2   0  -4 34448.1 2317.77   2
  -2   0  -3 29089.4 1965.32   2
  -2   0  -2-11.9144 313.874   5
  -2   0  -1 473529. 8285.81   5
  -2   0   0 168076. 5046.81   5
  -2   0   1 12967.8 1139.33   6
  -2   0   2 3022.98 566.873  22
  -2   0   3 29688.1 1696.16   9
  -2   0   3 29888.0 1906.63  24
  -2   0   3 29116.8 1951.33  22
  -2   0   4 6008.52 921.315   9
  -2   0   4 5865.22 926.813  22
  -2   0   4 6680.42 1054.08  24
  -2   0   5 65255.4 3680.84  24
  -2   0   5 64010.4 3252.58  22
  -2   0   6 387.338 312.233   9
  -2   0   6 234.147 200.455  22
  -2   0   6 533.137 401.622  24
  -2   0   7 840.180 558.124   9
  -2   0   7 1078.01 624.457  24
  -2   0   8 308.005 446.686   4
  -2   0   8 93.7436 202.004  24
  -2   0   9 1120.80 783.916   4
  -2   0   9 276.762 426.483  24
  -2   0  10-238.549 293.856  23
  -2   0  10 419.447 244.413  38
  -2   0  10-468.600 431.228  24
  -2   0  11 562.691 332.452  38
  -2   0  11 855.940 531.197  24
  -2   0  11 1074.77 576.364  23
  -2   0  11 299.860 158.955  49
  -2   0  12 499.474 252.181  38
  -2   0  12 426.021 225.835  32
  -2   0  12 22.1406 72.0102  49
  -2   0  13-37.8363 78.9945  38
  -2   0  13-19.4372 103.369  32
  -2   1  -6 235.905 393.978   6
  -2   1  -5 61465.7 3559.16   5
  -2   1  -5 66994.7 3943.04   6
  -2   1  -4 12524.5 1479.88   5
  -2   1  -3 18730.4 1711.39   5
  -2   1  -3 19311.5 1694.11   6
  -2   1  -2 179.213 207.053   5
  -2   1  -2 229.551 218.766   2
  -2   1   1 142994. 2906.79   4
  -2   1   2 66829.7 2658.90   4
  -2   1   2 69383.4 2445.23   6
  -2   1   3 46782.2 2496.63  24
  -2   1   3 43949.7 2587.09   4
  -2   1   4 3116.19 761.271  24
  -2   1   4 3809.21 919.478   4
  -2   1   4 1939.89 436.127  23
  -2   1   5 1936.15 697.671   4
  -2   1   5 2050.79 713.878  24
  -2   1   5 1366.16 522.759  23
  -2   1   6 8312.95 1300.50  23
  -2   1   6 9570.96 1512.99  24
  -2   1   6 9991.66 1830.73   4
  -2   1   7 9500.10 1682.25  24
  -2   1   7 11284.8 2057.64   4
  -2   1   7 8294.31 1466.07  23
  -2   1   8 4874.68 1422.78   4
  -2   1   8 3809.41 761.472  38
  -2   1   8 4118.28 1146.85  24
  -2   1   8 3937.12 1071.48  23
  -2   1   9 805.509 324.450  38
  -2   1   9 1844.21 973.913   4
  -2   1   9 751.710 600.324  24
  -2   1   9 1086.30 655.018  23
  -2   1   9 680.875 244.128  49
  -2   1  10 1245.83 460.778  38
  -2   1  10 1334.07 664.389  23
  -2   1  10 776.992 633.205  24
  -2   1  10 1281.30 413.564  49
  -2   1  11 116.555 90.7624  38
  -2   1  11 258.445 299.697  23
  -2   1  11 232.342 176.471  32
  -2   1  11 315.859 197.419  49
  -2   1  12 131.416 93.4637  38
  -2   1  12 10.4947 68.7613  32
  -2   1  13 155.044 94.9028  38
  -2   2 -11 195.206 155.314  64
  -2   2 -10 871.760 308.110  35
  -2   2  -6 1359.69 664.280   6
  -2   2  -4 3670.88 875.951   6
  -2   2  -2 41609.1 2463.98   6
  -2   2  -1 30041.8 1881.58   6
  -2   2   1 16358.1 1186.77   4
  -2   2   2 229.035 114.072   4
  -2   2   3 3285.99 479.701   6
  -2   2   3 3476.79 731.649   4
  -2   2   3 4230.97 756.905  23
  -2   2   4 49841.6 2781.12  23
  -2   2   4 45715.7 3050.52   4
  -2   2   5 4251.03 1069.28   4
  -2   2   5 3713.52 853.573  23
  -2   2   6 3788.27 1111.94   4
  -2   2   6 4351.92 994.674  23
  -2   2   6 3728.93 994.655  24
  -2   2   7 4672.32 1339.49   4
  -2   2   7 5169.03 1243.79  24
  -2   2   7 4395.42 1108.64  23
  -2   2   8-75.4551 131.925  38
  -2   2   8 116.031 204.920  23
  -2   2   8 260.926 274.234  49
  -2   2   8-286.782 369.933   4
  -2   2   9 289.186 219.298  32
  -2   2   9 655.430 470.117  23
  -2   2   9 444.254 376.192  49
  -2   2   9 373.394 121.764  38
  -2   2  10 1042.48 420.542  38
  -2   2  10 1381.32 468.403  32
  -2   2  11 200.581 89.3598  38
  -2   2  11 311.209 233.067  32
  -2   2  12-1.44065 48.8042  38
  -2   2  13 307.225 145.890  32
  -2   2  13 29.0265 83.0885  54
  -2   3 -10-219.320 237.220  64
  -2   3  -9 235.353 157.311  64
  -2   3  -4 12426.1 1810.45   6
  -2   3  -2 1278.46 539.514   6
  -2   3   1 55068.8 3071.02  18
  -2   3   2 18438.6 1791.55  21
  -2   3   2 20354.6 1771.65   4
  -2   3   3 11227.5 1465.18  21
  -2   3   3 10844.8 1410.12   4
  -2   3   4 12.0506 91.1300   4
  -2   3   5 6031.87 1292.31   4
  -2   3   5 7161.30 1326.11  23
  -2   3   6 1055.00 654.295  23
  -2   3   6 829.697 506.011   4
  -2   3   7 1101.77 476.682  32
  -2   3   7 1283.89 766.010   4
  -2   3   7 730.149 408.984  23
  -2   3   8 1306.16 426.834  32
  -2   3   8 1648.45 464.466  38
  -2   3   8 2547.24 906.808  23
  -2   3   8 1089.46 694.983   4
  -2   3   9 813.664 360.285  38
  -2   3   9 1340.20 506.505  32
  -2   3   9 1467.34 703.296  23
  -2   3  10 594.658 268.669  38
  -2   3  11-19.3115 78.1561  54
  -2   3  12 117.665 102.927  54
  -2   4 -10 280.851 187.224  64
  -2   4  -6 2036.43 552.125  37
  -2   4  -2 21379.8 2041.72   2
  -2   4  -1 366.354 347.165   6
  -2   4   1 16254.2 1955.84  18
  -2   4   2 963.083 519.639  18
  -2   4   3 1775.51 653.554   4
  -2   4   4 11532.1 1708.70   4
  -2   4   4 8853.47 1481.00  21
  -2   4   5 547.364 383.618   4
  -2   4   5 120.324 182.500  21
  -2   4   6 4452.73 1304.52   4
  -2   4   6 1279.28 631.688  21
  -2   4   6 3684.36 669.223  54
  -2   4   6 2561.79 571.080  32
  -2   4   7 296.194 258.471  38
  -2   4   7 195.925 199.362  32
  -2   4   7 344.087 292.675  54
  -2   4   8-65.2890 97.8281  32
  -2   4   8-391.397 359.024  21
  -2   4   8-24.1006 129.342  54
  -2   4   8 414.182 228.385  38
  -2   4   9-137.234 202.881  32
  -2   4   9-37.2625 162.195  54
  -2   4   9-323.117 320.678  21
  -2   4  10-1.04354 94.3474  54
  -2   4  10-8.54874 100.367  36
  -2   5  -8 320.024 244.273  64
  -2   5  -7 109.567 130.559  64
  -2   5  -6 3978.30 808.281  64
  -2   5  -6 9619.53 1316.45  48
  -2   5  -5 1290.85 387.196  37
  -2   5  -4 1474.44 668.861   2
  -2   5  -3-135.177 202.562   2
  -2   5   2 4786.12 1190.54  18
  -2   5   3 1067.74 570.000  18
  -2   5   6 297.658 305.882  36
  -2   5   7 99.2014 100.864  36
  -2   5   8 754.655 273.171  36
  -2   5   9 13.8895 62.3526  36
  -2   6   3 584.028 433.697  18
  -2   6   4 1206.56 625.622  18
  -2   6   4 1958.40 522.728  36
  -2   6   5-104.895 195.197  18
  -2   6   5 385.434 269.362  36
  -2   6   6 681.003 455.677  18
  -2   6   6 296.362 236.360  36
  -2   6   7-202.301 160.599  36
  -2   6   7-654.821 429.172  18
  -2   6   8 111.236 184.066  36
  -2   6  10 116.497 94.8337  62
  -1  -9   0 185.143 103.304  28
  -1  -9   1-18.3989 94.7307  28
  -1  -9   2 195.929 177.167  28
  -1  -9   3 103.844 105.824  28
  -1  -9   4 195.700 143.367  28
  -1  -9   5-78.6517 108.682  28
  -1  -8   1 9.40697 113.910  28
  -1  -8   2 178.285 287.967  28
  -1  -8   3-1510.97 647.047  25
  -1  -8   5 174.269 178.294  28
  -1  -8   5 30.8097 98.4691  26
  -1  -8   6-93.9980 142.058  28
  -1  -8   6 160.040 166.502  40
  -1  -8   6-70.5036 112.692  26
  -1  -7  -2 713.268 409.256  28
  -1  -7  -1 194.843 266.684  28
  -1  -7   1 405.060 394.019  25
  -1  -7   2 583.327 544.678  25
  -1  -7   3-249.322 330.034  25
  -1  -7   3-94.5259 253.471  26
  -1  -7   4-198.299 142.943  28
  -1  -7   4 18.3434 104.988  26
  -1  -7   4-22.9461 154.779  25
  -1  -7   5 173.130 188.361  28
  -1  -7   5 539.126 608.128  25
  -1  -7   5 512.721 283.614  26
  -1  -7   6 380.938 212.624  26
  -1  -7   6-175.783 250.138  25
  -1  -7   7 69.6179 174.388  26
  -1  -7   7 322.966 199.830  28
  -1  -7   8-37.5322 96.5150  40
  -1  -7   8 388.766 227.938  26
  -1  -6   0 979.110 673.724  25
  -1  -6   0 751.538 417.039  28
  -1  -6   1 536.040 463.309  25
  -1  -6   1 605.208 398.189  28
  -1  -6   2 506.382 383.857  25
  -1  -6   2 689.367 481.964  28
  -1  -6   3 105.404 332.776  28
  -1  -6   3-104.253 240.605  25
  -1  -6   4 9959.31 2014.57  25
  -1  -6   5 563.431 533.886  25
  -1  -6   5 1089.90 382.951  26
  -1  -6   5 1262.76 647.610  12
  -1  -6   6 144.696 326.446  28
  -1  -6   6 335.355 278.316  26
  -1  -6   6-396.570 397.492  25
  -1  -6   7 993.959 347.818  26
  -1  -6   7 1424.30 685.113  25
  -1  -6   8-115.620 105.693  26
  -1  -6   8 455.518 359.451  25
  -1  -6   9 153.313 136.948  26
  -1  -6  10 238.659 171.179  65
  -1  -5  -6 878.570 1097.77   3
  -1  -5  -5 3607.65 1418.56   3
  -1  -5  -4 1077.49 569.073   3
  -1  -5  -3 852.789 704.792   3
  -1  -5  -1 1278.14 508.841  28
  -1  -5   0 35894.5 2551.39  28
  -1  -5   0 35165.4 3339.09  25
  -1  -5   1 9910.44 1863.67  25
  -1  -5   1 9118.08 1292.35  28
  -1  -5   2 369.455 138.993  12
  -1  -5   2 1754.70 499.991  28
  -1  -5   2 1176.57 705.701  25
  -1  -5   3-76.6887 295.269  25
  -1  -5   3-167.915 238.599  12
  -1  -5   3 332.197 193.959  28
  -1  -5   4 12700.7 1536.67  28
  -1  -5   4 10601.3 2013.35  25
  -1  -5   4 12054.7 2018.59  12
  -1  -5   5-38.2238 276.177  25
  -1  -5   5 758.941 514.515  12
  -1  -5   6-43.2719 246.583  28
  -1  -5   6 662.263 184.552  25
  -1  -5   6-304.947 359.458  26
  -1  -5   6 664.335 497.174  12
  -1  -5   7 1652.84 770.123  25
  -1  -5   7 1069.71 367.906  26
  -1  -5   8-1052.44 582.809  25
  -1  -5   8 232.521 215.417  26
  -1  -5   9 416.195 270.949  26
  -1  -5   9-539.307 415.959  24
  -1  -5  10 386.811 231.895  26
  -1  -4  -7 1881.04 1034.75   3
  -1  -4  -6 64.8182 239.462   3
  -1  -4  -5 354.329 294.270   3
  -1  -4  -4 4934.47 1170.99   3
  -1  -4  -3 607.770 359.955   3
  -1  -4  -2 14552.5 1886.54   3
  -1  -4  -1 378.645 535.819   3
  -1  -4  -1 1733.20 580.834  25
  -1  -4   0 39323.6 3240.24  25
  -1  -4   1 2069.32 822.951  25
  -1  -4   2 4896.95 1117.77  25
  -1  -4   2 5124.59 1130.39  12
  -1  -4   3 35016.9 3321.21  25
  -1  -4   3 35608.3 3048.28  12
  -1  -4   4 32211.8 3310.76  25
  -1  -4   4 31330.7 3030.91  12
  -1  -4   5 1849.34 797.707  25
  -1  -4   5 697.969 327.867  28
  -1  -4   5 1560.64 703.363  12
  -1  -4   6 14132.4 2220.44  25
  -1  -4   6 14671.6 1455.81  26
  -1  -4   6 17266.7 2466.45  12
  -1  -4   7 536.738 375.504  26
  -1  -4   7 879.354 658.203  25
  -1  -4   8 1011.13 578.773  25
  -1  -4   8-56.0299 163.923  26
  -1  -4   9 275.147 274.685  26
  -1  -4   9-755.809 528.748  24
  -1  -4  10-322.730 219.222  26
  -1  -4  10-586.188 442.507  24
  -1  -3  -8 4073.66 1768.63   3
  -1  -3  -7 2351.84 1006.41   3
  -1  -3  -6 12270.2 2072.94   3
  -1  -3  -2 132.956 91.6424   6
  -1  -3  -1 9893.40 1289.38  25
  -1  -3  -1 7941.32 1139.81   3
  -1  -3   0 122635. 4862.99  25
  -1  -3   1 2714.10 602.568   5
  -1  -3   1 3033.46 819.342  25
  -1  -3   2 58351.2 3742.24  25
  -1  -3   2 50208.4 3051.34  12
  -1  -3   3 43014.5 3312.58  25
  -1  -3   3 40859.6 2992.09  12
  -1  -3   4 93345.2 5033.37  25
  -1  -3   4 92430.1 4890.28  12
  -1  -3   5 128.738 414.994  25
  -1  -3   5 254.428 254.971  12
  -1  -3   6 423.088 221.510  25
  -1  -3   6 1160.61 386.462  26
  -1  -3   6 1110.04 576.873  12
  -1  -3   7 650.295 333.384  26
  -1  -3   7 1065.25 575.895  25
  -1  -3   8 1831.88 499.555  26
  -1  -3   8 2241.71 816.680  25
  -1  -3   8 2215.35 800.052  24
  -1  -3   9 1906.43 973.619   9
  -1  -3   9 1134.93 426.057  26
  -1  -3   9 1102.09 575.963  24
  -1  -3  10 633.737 275.558  26
  -1  -3  10 1774.64 914.529  24
  -1  -3  11 1140.65 586.002  24
  -1  -3  13 110.946 97.8450  38
  -1  -2  -8 4474.24 1713.18   3
  -1  -2  -7 709.072 615.590   3
  -1  -2  -1 863.075 327.969   3
  -1  -2  -1 816.237 275.313   6
  -1  -2   1 30575.5 1682.98   5
  -1  -2   1 35026.4 1899.82  12
  -1  -2   2 79942.0 3736.36  25
  -1  -2   2 72662.2 3255.95  12
  -1  -2   3 30253.7 2350.84  12
  -1  -2   3 31827.4 2523.82  25
  -1  -2   4 2498.79 795.744  25
  -1  -2   4 1972.94 652.429  12
  -1  -2   5 18084.9 1318.61  26
  -1  -2   5 18950.7 2108.65  25
  -1  -2   5 20004.4 2259.52  12
  -1  -2   6 40404.0 2100.77  26
  -1  -2   6 40956.0 3147.63  25
  -1  -2   7 2082.05 536.386  26
  -1  -2   7 1804.44 792.679  25
  -1  -2   8 1048.72 657.161   9
  -1  -2   8 877.708 336.123  26
  -1  -2   8 327.344 201.470  24
  -1  -2   9-146.830 146.285  26
  -1  -2   9 202.874 215.206  24
  -1  -2  10 491.170 445.758  24
  -1  -2  11 711.918 493.731  24
  -1  -2  11 596.561 391.459  49
  -1  -2  13-5.62707 78.4684  38
  -1  -1  -8 1586.91 965.425   3
  -1  -1  -7 5330.97 1303.06   3
  -1  -1  -3 36107.6 1714.44   6
  -1  -1  -1 64695.4 2695.46   3
  -1  -1  -1 65250.1 1855.71   6
  -1  -1   1 39379.7 1828.70   5
  -1  -1   1 43598.0 1755.06  12
  -1  -1   2 403205. 6572.53  12
  -1  -1   3 182477. 5067.91  25
  -1  -1   3 181670. 5149.95  12
  -1  -1   4 45492.2 2928.76  12
  -1  -1   4 45734.5 2708.70  25
  -1  -1   5 5360.38 995.300  25
  -1  -1   6 1874.35 420.923  26
  -1  -1   6 1408.93 494.991  25
  -1  -1   6 1620.25 634.696  24
  -1  -1   7 623.357 513.237   9
  -1  -1   7 703.333 293.997  26
  -1  -1   7 626.594 474.265  24
  -1  -1   8 1244.13 694.281   9
  -1  -1   8 1371.18 395.689  26
  -1  -1   8 341.135 361.651  24
  -1  -1   9 4543.29 1384.85   9
  -1  -1   9 5407.16 1417.27  24
  -1  -1   9 5835.41 1815.75   4
  -1  -1  10 367.892 425.369   9
  -1  -1  10 977.487 616.818  24
  -1  -1  10 1176.44 408.336  49
  -1  -1  11-714.963 507.090  24
  -1  -1  12 237.886 173.739  38
  -1  -1  13 51.8046 65.1026  38
  -1  -1  13 14.9992 85.1114  32
  -1   0 -13 274.134 143.762  64
  -1   0  -7 6183.40 1536.86   3
  -1   0  -6 19169.8 2110.76   3
  -1   0  -6 24469.4 2273.11   2
  -1   0  -5 2531.67 648.987   2
  -1   0  -5 1345.36 454.844   3
  -1   0  -4 287.825 189.244   2
  -1   0  -4 307.955 276.017   6
  -1   0  -4 196.485 238.461   3
  -1   0  -3 67539.4 2519.25   2
  -1   0  -3 66184.1 2625.14   6
  -1   0  -2 29946.9 1910.29   3
  -1   0  -1 10446.2 793.329   2
  -1   0   0 18348.2 1135.95   5
  -1   0   0 17544.6 869.329   6
  -1   0   2-60.6124 138.136   9
  -1   0   3 14791.7 1247.09   9
  -1   0   4 2877.82 649.633   9
  -1   0   4 2928.01 644.811  24
  -1   0   5 123023. 4957.51   9
  -1   0   5 109540. 4606.54  24
  -1   0   6 26314.0 2570.60   9
  -1   0   6 22538.6 2313.06  24
  -1   0   7 4575.21 1252.88   9
  -1   0   7 4565.86 1341.50   4
  -1   0   7 4290.62 1143.53  24
  -1   0   8 4104.16 1467.82   4
  -1   0   8 3736.87 1266.43  24
  -1   0   8 3474.57 1499.99   9
  -1   0   9 1577.85 930.746   4
  -1   0   9 1392.69 761.397  24
  -1   0  10 674.059 706.278  24
  -1   0  10 421.753 410.140  23
  -1   0  11 404.067 316.395  38
  -1   0  11 1253.32 653.388  24
  -1   0  11 1233.15 663.966  23
  -1   0  12 149.034 123.505  38
  -1   0  13 67.2755 70.5862  38
  -1   0  13 170.345 120.145  32
  -1   1 -13-125.986 113.623  64
  -1   1  -7 11850.9 1906.94   2
  -1   1  -5 24420.9 2362.58   6
  -1   1  -2 450.290 256.503   6
  -1   1  -2 115.750 135.655   5
  -1   1   0 17509.2 781.664   4
  -1   1   1 190745. 3270.71   4
  -1   1   2 184572. 4186.37   4
  -1   1   3 27943.9 1746.18  24
  -1   1   3 23773.4 1808.68   4
  -1   1   4 267.873 316.980   4
  -1   1   4 481.166 377.756  24
  -1   1   5 29369.0 2333.77  24
  -1   1   5 27518.5 2611.30   4
  -1   1   6 8270.42 1359.35  24
  -1   1   6 7597.65 1550.47   4
  -1   1   7 1826.88 833.649   4
  -1   1   7 1843.81 725.596  24
  -1   1   8 256.014 478.339   4
  -1   1   8 14.3140 203.188  24
  -1   1   8 195.751 228.639  23
  -1   1   9 10836.8 1310.87  38
  -1   1   9 9430.89 1768.92  24
  -1   1   9 14248.0 2274.52  23
  -1   1  10-140.618 197.301  38
  -1   1  10-86.0394 215.495  24
  -1   1  10-376.910 389.627  23
  -1   1  11 627.446 340.559  38
  -1   1  11 992.442 375.324  32
  -1   1  11 395.835 375.046  24
  -1   1  11 790.872 536.294  23
  -1   1  12 257.470 255.416  32
  -1   2 -12-52.8668 91.6631  64
  -1   2  -8 3104.26 1079.41   2
  -1   2  -7 26974.5 3030.22   2
  -1   2  -4 99.0435 184.126   6
  -1   2  -2 6250.66 965.746   6
  -1   2   0 4313.84 581.692   2
  -1   2   1 32833.8 1798.43   4
  -1   2   2 680.359 302.796   4
  -1   2   3 26315.0 1988.68   4
  -1   2   3 26633.7 1876.00  23
  -1   2   4 190.344 188.364   4
  -1   2   4 80.1436 204.476  24
  -1   2   4 270.275 186.648  23
  -1   2   5 73529.1 4253.68   4
  -1   2   5 63982.7 3533.76  23
  -1   2   5 64321.7 3517.32  24
  -1   2   6 3057.75 1011.82   4
  -1   2   6 3493.21 895.343  24
  -1   2   6 2754.33 839.646  23
  -1   2   7 5216.87 1203.21  24
  -1   2   7 4837.15 1393.69   4
  -1   2   7 3985.67 1101.02  23
  -1   2   8 6912.25 1769.36   4
  -1   2   8 4319.30 1162.13  24
  -1   2   8 5424.53 1342.44  23
  -1   2   9 195.357 328.367   4
  -1   2   9-7.87397 126.956  32
  -1   2   9 407.311 391.588  24
  -1   2  10 1336.71 707.613  23
  -1   2  10 256.339 257.777  32
  -1   2  11 11.9154 164.645  32
  -1   2  11 1106.53 615.533  23
  -1   2  13-35.3886 85.9397  54
  -1   3 -11 384.045 206.228  64
  -1   3  -7 2701.40 995.000   2
  -1   3  -2 555.156 282.637   2
  -1   3   0 589.589 317.209  18
  -1   3   0 233.908 189.119   2
  -1   3   1 30831.9 1162.99  10
  -1   3   2 14921.6 1542.06   4
  -1   3   2 14086.8 1410.65  21
  -1   3   3 2582.67 505.293  15
  -1   3   3 2656.42 742.582   4
  -1   3   4 18611.4 2049.18   4
  -1   3   4 20704.7 2086.51  23
  -1   3   5 18193.3 2230.84   4
  -1   3   5 17451.6 2035.58  23
  -1   3   6 95.6766 312.351  23
  -1   3   6 254.208 368.205   4
  -1   3   7 336.358 213.416  23
  -1   3   7 1041.39 639.537   4
  -1   3   8 1791.79 466.903  32
  -1   3   8 1544.99 780.667  23
  -1   3   8 1800.59 903.070   4
  -1   3   9 705.334 297.863  32
  -1   3   9 1139.81 643.236  23
  -1   3  10 315.818 356.883  23
  -1   3  11 694.119 283.418  32
  -1   3  12 77.0128 129.061  54
  -1   4 -10-26.3308 119.067  64
  -1   4  -9 1061.35 408.473  64
  -1   4  -7 13723.3 1670.08  48
  -1   4  -6 140.337 237.742   2
  -1   4  -5 2826.18 890.802   2
  -1   4  -4 432.173 276.545   2
  -1   4  -3 6413.98 1142.05   2
  -1   4   0 3911.32 929.977  18
  -1   4   1 23708.9 2240.36  18
  -1   4   3 719.631 435.715   4
  -1   4   4 4302.10 1117.86   4
  -1   4   4 3063.11 793.930  21
  -1   4   5 1141.39 567.468  21
  -1   4   5 1727.06 707.909   4
  -1   4   6 3582.19 1176.51   4
  -1   4   7 2106.99 496.036  32
  -1   4   7 1826.68 483.069  54
  -1   4   8 487.410 274.234  32
  -1   4   8 210.974 244.010  54
  -1   4   9 372.715 292.605  32
  -1   4   9 371.120 196.234  54
  -1   4  10-163.613 179.207  54
  -1   4  10 102.215 182.833  21
  -1   4  11 80.4652 128.989  36
  -1   4  11 332.183 199.491  54
  -1   4  12 42.2777 88.2437  36
  -1   5 -10 56.3510 62.7152  64
  -1   5  -9 61.4983 89.0113  64
  -1   5  -5 14004.0 1683.68  44
  -1   5   1 16.9955 127.229  18
  -1   5   2 2926.79 909.769  18
  -1   5   5 1964.48 480.258  36
  -1   5   6 72.8165 119.895  36
  -1   5   7 121.138 93.3350  36
  -1   5   8 184.612 197.507  36
  -1   5   9-116.121 113.131  36
  -1   5  10 357.997 212.769  36
  -1   6  -7 194.583 311.746  48
  -1   6  -5 843.386 415.242  44
  -1   6  -3 764.327 415.135  44
  -1   6   2 175.595 304.503  18
  -1   6   3 2590.28 898.763  18
  -1   6   3 3947.74 694.166  36
  -1   6   4 2027.80 882.905  18
  -1   6   4 2571.07 559.626  36
  -1   6   4 2294.49 631.423  62
  -1   6   5 288.491 217.949  41
  -1   6   5-472.255 249.060  36
  -1   6   6 571.204 293.516  41
  -1   6   7 147.879 145.119  41
  -1   6   8-92.2590 101.368  41
  -1   6   9 347.581 155.783  36
  -1   6  10-1.34181 58.9059  62
  -1   6  10 72.7291 78.5671  36
  -1   7  -7 339.290 193.289  48
  -1   7  -4-83.3358 228.386  44
  -1   7  -3 1741.67 557.715  44
  -1   7   4-2.89094 87.3209  18
  -1   7   5-91.1353 177.041  18
  -1   7   5 58.3465 157.284  41
  -1   7   6 272.879 280.502  18
  -1   7   6 336.752 217.107  36
  -1   7   7 95.7918 139.126  36
   0  -9   5-30.5620 120.577  28
   0  -9   5-51.8656 40.9031  40
   0  -8  -2 21.8288 104.199  28
   0  -8   2 815.486 503.705  25
   0  -8   3 380.724 191.299  26
   0  -8   3-277.824 300.191  25
   0  -8   4-49.7273 103.359  26
   0  -8   4-706.830 448.074  25
   0  -8   5 703.433 302.032  28
   0  -8   5 1928.95 447.822  26
   0  -8   6 481.346 184.040  26
   0  -7  -2 266.356 237.817  28
   0  -7  -1 1543.57 533.503  28
   0  -7   0-1.78577 129.911  28
   0  -7   1 1373.11 554.688  28
   0  -7   1 2821.83 1122.02  25
   0  -7   2 595.049 631.466  25
   0  -7   2 64.9626 136.265  28
   0  -7   3 580.695 309.887  28
   0  -7   3 838.748 569.890  25
   0  -7   4 486.111 382.949  28
   0  -7   4 573.983 473.201  25
   0  -7   5 2508.99 894.595  25
   0  -7   6-343.691 259.273  26
   0  -7   6 96.2923 149.794  28
   0  -7   6-102.290 525.862  25
   0  -7   7 221.544 126.371  26
   0  -7   8 90.6959 76.2537  26
   0  -6  -4 3159.22 1120.71   3
   0  -6  -2 4358.61 957.131  28
   0  -6   0 1299.61 682.318  25
   0  -6   1 4573.70 1418.40  25
   0  -6   2-3.51503 577.417  25
   0  -6   3 569.717 429.960  12
   0  -6   3 505.040 461.236  25
   0  -6   4 4918.76 1353.23  25
   0  -6   4 5763.67 1388.71  12
   0  -6   5 1864.72 649.363  28
   0  -6   5 2999.48 1078.15  25
   0  -6   5 2838.88 1001.47  12
   0  -6   6 790.444 532.708  12
   0  -6   6 442.967 449.588  25
   0  -6   7 2249.04 863.838  25
   0  -6   7 867.704 389.357  26
   0  -6   8 130.321 197.004  26
   0  -6   8-545.005 400.728  25
   0  -6   9 66.8745 80.6344  26
   0  -5  -1 5726.38 1326.66  25
   0  -5   0 6369.07 1646.57  19
   0  -5   0 4688.91 1215.59  25
   0  -5   1 9569.95 1872.73  25
   0  -5   1 9108.03 1980.04  19
   0  -5   2 5301.20 1527.19  19
   0  -5   2 6111.00 1546.09  25
   0  -5   3 7061.01 1612.44  25
   0  -5   3 5277.41 1550.92  19
   0  -5   4 987.060 742.986  25
   0  -5   4 565.501 408.881  12
   0  -5   5 12060.4 2161.13  25
   0  -5   5 15900.4 2425.33  12
   0  -5   6 3759.31 769.314  28
   0  -5   6 3914.30 1219.46  25
   0  -5   6 4377.56 1280.04  12
   0  -5   7 467.658 421.500  25
   0  -5   7 801.746 565.415  12
   0  -5   8 562.122 252.422  26
   0  -5   8 1502.16 700.687  25
   0  -5   9 419.288 280.134  26
   0  -5  10 849.767 334.277  26
   0  -5  11 23.4992 113.636  65
   0  -4  -2 90545.7 5346.18  19
   0  -4  -1 40692.1 3335.58  25
   0  -4  -1 48387.1 3946.71  19
   0  -4   0-2.82666 363.016  19
   0  -4   0 110.991 103.617   3
   0  -4   1 74968.7 4945.53  19
   0  -4   2 4495.13 1181.30  25
   0  -4   2 4548.98 1212.81  19
   0  -4   3 4246.09 1118.14  19
   0  -4   3 4161.49 1109.90  25
   0  -4   4 14161.6 2133.24  19
   0  -4   4 16010.1 2254.72  25
   0  -4   5 716.075 672.857  25
   0  -4   5 309.077 407.746  12
   0  -4   6 3643.44 1149.84  25
   0  -4   6 6656.42 1568.65  12
   0  -4   7 11191.2 2002.48  25
   0  -4   7 12352.7 2199.66  12
   0  -4   8-123.878 286.450  26
   0  -4   8-32.7615 164.714  12
   0  -4   9-233.371 198.410  26
   0  -4   9 352.611 385.845  24
   0  -4  10 227.334 183.811  26
   0  -4  10 224.220 289.555  24
   0  -4  11-190.284 150.796  65
   0  -3  -2 17873.6 2032.13  19
   0  -3  -1 49267.0 3430.82  19
   0  -3   0 105207. 4942.58  19
   0  -3   0 117678. 5150.48   7
   0  -3   1 33815.3 1919.93   3
   0  -3   1 29532.8 2719.40   7
   0  -3   2 16692.8 2223.89   7
   0  -3   3 26927.6 2561.41  19
   0  -3   3 26861.1 2558.00  25
   0  -3   4 29657.5 2661.11  19
   0  -3   4 30903.1 2860.31  25
   0  -3   5 6402.41 1333.91  25
   0  -3   5 4966.68 1174.16  19
   0  -3   5 5590.13 1266.02  12
   0  -3   6 2138.31 832.079  25
   0  -3   6 2984.48 1007.38  12
   0  -3   7 1086.49 576.302  25
   0  -3   7 1357.97 815.269  12
   0  -3   8 2039.06 597.343  26
   0  -3   9 2778.42 1163.50   9
   0  -3   9 2503.78 640.223  26
   0  -3   9 1218.07 708.380  24
   0  -3  10 2643.42 1087.68  24
   0  -3  11 949.380 409.256  24
   0  -2  -1 1845.21 489.394   7
   0  -2   0 682855. 9834.97   7
   0  -2   1 625787. 5260.38   3
   0  -2   1 724318. 10983.6   7
   0  -2   2 147944. 5449.64   7
   0  -2   3 1109.30 578.812   7
   0  -2   4 6201.96 1038.91  19
   0  -2   4 5238.03 1036.87  25
   0  -2   4 5333.76 1146.44  12
   0  -2   5 4942.14 1074.42  25
   0  -2   5 4281.99 1121.17  12
   0  -2   6 22171.0 2433.39  25
   0  -2   6 25972.6 2766.73  12
   0  -2   7 14977.7 1351.32  26
   0  -2   7 16728.2 2418.95  12
   0  -2   8 5024.13 1504.90   9
   0  -2   8 4306.44 774.873  26
   0  -2   8 3434.39 1161.21  24
   0  -2   9 1963.16 967.609   9
   0  -2   9 925.263 524.397  24
   0  -2   9 963.554 747.287   4
   0  -2  10 1051.58 653.743  24
   0  -2  11 164.537 259.760  24
   0  -2  13-49.1654 59.1006  38
   0  -1  -5 4267.47 783.501   2
   0  -1  -2 50509.1 1391.90   6
   0  -1  -1 50127.4 1362.60   7
   0  -1   1 53899.0 2116.98  11
   0  -1   2 403.944 273.548   1
   0  -1   2 465.176 158.241  11
   0  -1   3 12212.1 1370.24  12
   0  -1   3 10895.8 952.452  11
   0  -1   3 11722.4 1270.77   1
   0  -1   4 198925. 6588.17  12
   0  -1   4 204170. 5649.67  25
   0  -1   5 7120.55 1148.35  25
   0  -1   5 6108.36 1288.39  12
   0  -1   6 30667.5 1729.05  26
   0  -1   6 30802.3 2880.34  12
   0  -1   7 817.060 377.881   9
   0  -1   7 444.904 422.386  24
   0  -1   8 5715.33 1656.90   4
   0  -1   8 5129.10 1435.11   9
   0  -1   8 4955.83 1406.66  24
   0  -1   9 4589.38 1385.01   9
   0  -1   9 3973.06 1467.81   4
   0  -1   9 3693.47 1237.25  24
   0  -1  10 1732.28 925.825   9
   0  -1  10 2620.92 958.042  24
   0  -1  11 383.448 380.641  24
   0  -1  12 926.733 366.017  38
   0  -1  13 214.534 110.245  32
   0   0  -6 48390.3 3392.59   2
   0   0  -4 1175.62 474.527   2
   0   0  -2 75648.1 2564.43   6
   0   0  -1 1667.42 265.857   2
   0   0   2 104430. 2692.66   7
   0   0   2 96600.1 2710.15  12
   0   0   3 22217.7 1557.66  12
   0   0   4 1164.70 528.801   9
   0   0   4 937.396 487.315  12
   0   0   5 1443.75 623.251   9
   0   0   5 1430.12 555.599  24
   0   0   6 44535.0 3546.71   9
   0   0   6 40065.4 3162.26  24
   0   0   6 43734.7 3737.30   4
   0   0   7 11332.6 2067.58   9
   0   0   7 11538.1 1849.78  24
   0   0   7 11430.7 2120.08   4
   0   0   8 10803.7 2124.71   9
   0   0   8 13942.0 2204.66  24
   0   0   8 14633.2 2600.53   4
   0   0   9 959.180 716.030   4
   0   0   9 1075.03 721.144   9
   0   0   9 266.039 338.762  24
   0   0  10 757.442 616.789  24
   0   0  11 235.089 92.8173  38
   0   0  11-177.243 280.645  24
   0   0  12 132.412 169.346  32
   0   0  13 85.2337 133.659  32
   0   1  -7 221.085 108.072   2
   0   1  -5 7548.65 1353.85   2
   0   1  -1 48287.9 1618.76   8
   0   1  -1 46670.9 1610.02   2
   0   1   0 973.615 172.086  10
   0   1   1 47564.1 1724.47   4
   0   1   2 50013.8 2225.03   4
   0   1   3 81812.5 3348.58   9
   0   1   3 66677.8 2944.58   4
   0   1   4 110617. 4506.71   4
   0   1   4 116297. 4034.15  24
   0   1   5 4353.81 1047.76   4
   0   1   5 4719.63 971.056  24
   0   1   5 3915.04 977.807   9
   0   1   6 20906.1 2536.02   9
   0   1   6 20856.3 2496.94   4
   0   1   6 23285.3 2307.41  24
   0   1   7 579.910 505.342   4
   0   1   7 332.498 434.238  24
   0   1   8 1426.80 793.766   4
   0   1   8 1230.90 786.743  24
   0   1   9 4877.98 1569.98   4
   0   1   9 3059.65 1145.95  24
   0   1   9 3097.54 1047.08  23
   0   1  10-77.5645 220.672  23
   0   1  10 838.339 542.237  24
   0   1  11 1831.50 504.862  32
   0   1  11 1478.46 684.056  24
   0   1  11 2962.36 1056.93  23
   0   1  12 773.499 280.638  32
   0   2 -13 59.9822 74.7631  64
   0   2  -7 18033.5 2479.86   2
   0   2  -5 4647.50 1127.96   2
   0   2  -4 7637.04 1244.72   2
   0   2  -2 105056. 3291.61   8
   0   2  -1 560595. 6717.55   8
   0   2   0 447044. 4442.69   2
   0   2   0 463444. 5516.58  10
   0   2   1 1129.23 337.127  14
   0   2   1 813.952 363.471   4
   0   2   2 98434.0 3544.38   4
   0   2   2 98549.0 3437.11  23
   0   2   3 51454.0 2893.20   4
   0   2   3 58880.9 2631.26  24
   0   2   3 56965.8 2853.68  23
   0   2   4 33390.7 2647.20   4
   0   2   4 39784.1 2431.94  24
   0   2   4 31744.9 2375.16  23
   0   2   5 37790.1 3077.19   4
   0   2   5 37364.6 2629.69  24
   0   2   5 33131.9 2666.74  23
   0   2   6 1743.46 598.587  24
   0   2   6 1122.80 600.157  23
   0   2   6 2219.94 853.933   4
   0   2   7 8815.25 1842.77   4
   0   2   7 7667.92 1425.31  24
   0   2   7 6059.06 1407.31  23
   0   2   8 13157.6 2499.32   4
   0   2   8 12267.7 1901.46  24
   0   2   8 9244.44 1882.21  23
   0   2   9 509.681 541.581  23
   0   2   9-88.3108 241.453   4
   0   2   9 965.558 384.466  32
   0   2   9 642.649 463.715  24
   0   2  10 1843.45 557.552  32
   0   2  10 2071.79 915.969  23
   0   2  11 313.917 228.086  32
   0   2  11 234.349 307.457  23
   0   2  13-137.072 109.243  54
   0   3  -6 2748.37 959.214   2
   0   3  -3 28374.5 2278.22   2
   0   3  -2 11476.2 1156.23   8
   0   3  -2 13499.9 1404.64   2
   0   3  -1 21282.9 1511.17   8
   0   3   0 78185.6 3532.74  18
   0   3   1 37306.8 2315.16  15
   0   3   1 28256.3 1723.21  10
   0   3   2 13542.7 1526.02   4
   0   3   2 11933.8 1306.98  15
   0   3   2 11186.9 1269.59  14
   0   3   2 11867.7 1194.23  21
   0   3   3 20772.8 2014.00   4
   0   3   3 16933.4 1584.00  15
   0   3   3 15384.3 1503.16  14
   0   3   3 18827.4 1945.61  23
   0   3   4 22764.6 2375.57   4
   0   3   4 20664.9 2148.33  23
   0   3   5 2536.65 839.086  23
   0   3   5 2874.98 920.596   4
   0   3   6 4746.06 1299.19   4
   0   3   6 4265.57 1146.90  23
   0   3   7 315.492 388.321  23
   0   3   7-3.64220 255.398   4
   0   3   8-140.509 253.816  23
   0   3   8-128.195 220.368  32
   0   3   8-97.3191 249.606   4
   0   3   9-431.186 422.144  23
   0   3  10 1345.79 721.501  23
   0   3  12 10.2653 127.659  54
   0   4 -11 175.313 149.335  64
   0   4  -8-15.7273 153.651  48
   0   4  -5 402.046 342.483   2
   0   4  -4 17272.9 2041.49   2
   0   4  -3 3797.94 850.100   2
   0   4  -2 4228.54 813.940   2
   0   4   0 20.5251 119.740  18
   0   4   1 27763.0 1914.18  10
   0   4   2 46015.8 2637.85  10
   0   4   2 57343.4 3186.72  15
   0   4   3 6649.96 1100.98  10
   0   4   3 8221.05 1263.50  15
   0   4   4 2225.59 714.303  15
   0   4   4 1796.31 722.536   4
   0   4   4 1950.29 592.615  21
   0   4   5 4979.97 998.413  21
   0   4   5 4898.04 1337.31   4
   0   4   5 4759.77 1058.06  15
   0   4   6-586.799 391.264  15
   0   4   6 192.977 297.391   4
   0   4   7 5099.22 826.839  32
   0   4   7 4044.61 1259.76  23
   0   4   7 3946.53 1507.51   4
   0   4   7 3665.06 716.279  54
   0   4   8 823.086 371.296  54
   0   4   9 655.156 321.342  54
   0   4  10 170.775 163.071  54
   0   4  12 1.79404 59.4464  36
   0   5  -8 373.198 312.675  48
   0   5  -8 616.442 238.655  64
   0   5  -6 4047.32 981.491  44
   0   5  -5 17489.1 1977.88  44
   0   5   0 4282.64 1099.17  18
   0   5   1 4348.37 1082.02  18
   0   5   5 9001.75 1076.01  36
   0   5   6 73.4521 91.7853  36
   0   5   7 219.587 138.137  36
   0   5   8 407.387 254.636  36
   0   5   9-31.5744 53.7195  36
   0   5  10-77.0623 120.547  36
   0   5  11 38.4644 58.7814  36
   0   6  -8-217.508 230.739  48
   0   6  -6 410.968 213.506  44
   0   6  -5 2150.75 714.862  44
   0   6  -4 5647.43 1145.41  44
   0   6  -3 365.579 279.420  44
   0   6  -2 115.131 113.918  44
   0   6   1 14371.9 2181.47  18
   0   6   2 2368.46 874.852  18
   0   6   2 2710.09 644.537  36
   0   6   2 1323.25 451.180  41
   0   6   3-40.3652 203.272  36
   0   6   3 570.915 425.636  18
   0   6   3 203.098 189.901  45
   0   6   4 1552.99 506.593  36
   0   6   4 1977.46 581.618  62
   0   6   4 1430.35 521.258  41
   0   6   4 1918.24 523.752  45
   0   6   5 268.849 228.440  41
   0   6   5 385.572 228.511  45
   0   6   6-35.1826 78.3576  41
   0   6   6 23.2621 164.015  45
   0   6   7 378.717 206.537  41
   0   6   7 445.194 224.703  45
   0   6   8 134.053 137.894  41
   0   6   9 37.2833 76.8256  41
   0   6  10-36.2143 106.958  62
   0   6  10-2.55127 75.4918  36
   0   7  -4 876.758 401.637  44
   0   7  -3 1594.81 601.429  44
   0   7  -2 354.585 184.808  44
   0   7  -1 1437.75 604.978  44
   0   7   3 132.707 222.151  18
   0   7   4 20.1316 240.650  18
   0   7   4-84.7327 136.469  45
   0   7   4 214.858 233.641  41
   0   7   5 366.238 245.943  41
   0   7   5 309.270 304.763  18
   0   7   5 646.685 314.396  36
   0   7   6-771.062 465.877  18
   0   7   6 3.65449 125.161  36
   0   7   7 390.152 215.868  36
   0   7   8-85.7450 70.6333  36
   0   8  -7 2.88853 71.0724  48
   0   8  -3 136.045 58.2714  44
   0   8  -2-33.2513 69.9708  44
   0   8  -1-11.3576 136.897  44
   0   8   0-306.140 214.208  44
   0   8   1 653.249 338.297  44
   1  -9   3 16.3146 88.0596  28
   1  -9   4 122.908 83.3829  28
   1  -8  -2-122.663 251.590  28
   1  -8  -1 22.3047 180.580  28
   1  -8   0 764.228 332.788  28
   1  -8   1-220.383 266.308  28
   1  -8   1 995.853 558.124  25
   1  -8   2-112.065 190.808  28
   1  -8   2 778.399 497.246  25
   1  -8   3 393.972 206.053  28
   1  -8   3-75.1989 167.517  25
   1  -8   4-41.6582 184.635  28
   1  -8   5-216.551 162.200  26
   1  -8   6-96.7719 95.1940  28
   1  -8   6 339.997 165.036  26
   1  -7   0 1108.61 642.621  25
   1  -7   1 1272.46 700.186  25
   1  -7   2-3.51514 448.778  25
   1  -7   3 2429.77 1074.32  25
   1  -7   4-411.675 406.417  25
   1  -7   4-707.905 490.985  12
   1  -7   5 47.0243 204.982  28
   1  -7   5 1055.57 609.043  25
   1  -7   6 446.648 270.469  28
   1  -7   6 1531.56 688.708  25
   1  -7   7 141.353 180.345  26
   1  -7   8 99.9433 82.7751  26
   1  -6  -2 931.539 660.241  19
   1  -6  -1 10640.8 2268.77  19
   1  -6  -1 12178.6 2076.04  25
   1  -6   0-4.08405 281.031  19
   1  -6   0 6.53573 127.931  25
   1  -6   1 368.814 598.642  19
   1  -6   1 94.6893 230.165  25
   1  -6   2 3724.30 1335.46  19
   1  -6   2 3512.74 1179.45  25
   1  -6   3 438.637 521.130  19
   1  -6   3 664.462 490.685  25
   1  -6   4 124.355 261.565  19
   1  -6   4 462.379 262.065  25
   1  -6   5 1224.77 650.554  25
   1  -6   5 915.232 587.025  12
   1  -6   6 213.619 191.822  28
   1  -6   6-409.469 400.664  12
   1  -6   7 796.075 515.206  25
   1  -6   8 1984.26 479.520  26
   1  -6   8 1280.69 595.369  25
   1  -6   9 365.049 133.604  26
   1  -5  -3 4832.96 1349.70  19
   1  -5  -2 4068.62 1362.08  19
   1  -5  -1 130.832 245.872  19
   1  -5   0 2917.76 1231.94  19
   1  -5   0 4275.29 1350.10   7
   1  -5   1 9619.30 1950.80   7
   1  -5   2 5577.89 1507.32  19
   1  -5   2 6304.73 1665.38   7
   1  -5   3 3024.83 1109.50  19
   1  -5   3 3291.99 1307.04   7
   1  -5   4 32.7387 152.311  19
   1  -5   4 13.2633 209.017  25
   1  -5   5 11954.4 2022.10  19
   1  -5   5 10991.9 2053.17  25
   1  -5   6 242.619 395.123  12
   1  -5   6 483.400 433.288  25
   1  -5   7-1204.21 697.469  12
   1  -5   7 217.786 295.959  25
   1  -5   8-462.988 349.223  26
   1  -5   8-180.028 248.275  25
   1  -5   9 142.970 149.426  26
   1  -4  -3 510.927 437.039  19
   1  -4  -2-274.784 286.449   7
   1  -4   0 3357.25 971.539  16
   1  -4   1 66016.1 4062.86  16
   1  -4   3 8551.01 1808.59   7
   1  -4   4-34.1627 230.237   7
   1  -4   5 2288.31 826.714  19
   1  -4   5 2339.82 829.735  25
   1  -4   6 141.925 407.696  25
   1  -4   6 180.746 278.197  12
   1  -4   7 16396.4 2413.16  25
   1  -4   7 19488.1 2795.55  12
   1  -4   8 2791.33 1062.91  12
   1  -4   9 720.695 277.777  26
   1  -4  10-214.805 292.491  24
   1  -3  -3 2941.34 1056.26  16
   1  -3  -2 20043.3 2243.88  19
   1  -3  -2 17678.4 2333.02  16
   1  -3  -2 19518.1 1733.76   7
   1  -3   0 489.912 473.442  16
   1  -3   0 565.985 422.926  11
   1  -3   1 20076.0 2004.54  16
   1  -3   1 24689.7 2320.22   7
   1  -3   1 20198.5 2301.46  11
   1  -3   2 472.190 326.188  16
   1  -3   2 466.155 366.884   7
   1  -3   2 458.967 507.292  11
   1  -3   3 26452.2 2666.67   7
   1  -3   3 18528.0 2145.67  11
   1  -3   4 5006.96 1100.46  19
   1  -3   4 4953.70 1155.51  11
   1  -3   5 29417.3 3200.40   7
   1  -3   6-13.5992 408.898  25
   1  -3   6 251.865 284.282  12
   1  -3   7 1675.81 717.474  25
   1  -3   7 2546.34 978.711  12
   1  -3   8 909.546 606.850  12
   1  -3   8 427.031 288.166  26
   1  -3   9 301.144 404.488   9
   1  -3   9 161.732 335.510  24
   1  -3  10 2100.48 894.722  24
   1  -2  -4 183.104 150.413   2
   1  -2  -1 42990.3 2916.05  16
   1  -2  -1 46170.0 2935.90  11
   1  -2   0 7168.71 1044.79  16
   1  -2   0 7282.86 1092.04  11
   1  -2   0 7680.25 1247.16   1
   1  -2   1 117444. 4016.17  16
   1  -2   1 126132. 4485.71  11
   1  -2   2 7745.53 1263.98   1
   1  -2   2 6590.69 1002.36  11
   1  -2   3 9350.58 1424.42   1
   1  -2   3 8902.70 1363.18   7
   1  -2   3 7227.16 1030.45  11
   1  -2   4 167.912 70.3800  11
   1  -2   4 208.088 431.979   1
   1  -2   4 47.7480 144.942   7
   1  -2   5 2347.35 874.090   7
   1  -2   5 2347.10 823.506   1
   1  -2   6 15649.0 1954.02  25
   1  -2   6 14786.5 2116.69  12
   1  -2   7 24019.8 2887.22  12
   1  -2   8 2096.14 1007.02   9
   1  -2   8 3599.30 1151.12  12
   1  -2   9 2487.09 1121.19   9
   1  -2   9 1431.05 771.059  24
   1  -2  10 714.385 546.570  24
   1  -2  11 866.996 538.157  24
   1  -1  -5 33143.8 2374.76   2
   1  -1  -4 593.843 283.499   2
   1  -1  -3 28702.2 2288.90  16
   1  -1  -3 26377.6 2253.92  20
   1  -1  -2 179814. 4515.64  11
   1  -1  -1 155446. 2658.43   8
   1  -1  -1 94188.9 3275.99   1
   1  -1   0 15207.7 1195.11  13
   1  -1   4 50052.5 3014.60   7
   1  -1   5 32145.7 2666.88   1
   1  -1   5 26605.5 2150.69  25
   1  -1   5 32161.1 2722.72   7
   1  -1   5 28485.9 2513.55  12
   1  -1   6 5901.50 1405.26   4
   1  -1   6 6245.78 1286.35  12
   1  -1   7 13712.2 2351.65   9
   1  -1   7 12286.0 2163.18   4
   1  -1   7 12821.8 1976.87  12
   1  -1   8 410.171 450.704   4
   1  -1   8-118.709 274.242   9
   1  -1   8-414.783 401.923  24
   1  -1   9 2032.48 1004.39   9
   1  -1   9-360.950 391.938  24
   1  -1  10 1432.61 742.665  24
   1  -1  11 689.397 481.949  24
   1  -1  11 458.454 303.637  23
   1   0  -7 4304.53 1146.76   2
   1   0  -5 136560. 5328.45   2
   1   0  -3 10880.4 1208.25   8
   1   0  -2 124.198 105.864   8
   1   0  -1 4109.91 559.010   8
   1   0   0 14070.7 930.737  14
   1   0   0 18408.1 1067.89  10
   1   0   1 16791.3 721.915   4
   1   0   2 26046.1 1340.34   4
   1   0   3 75472.6 2954.19   4
   1   0   3 83079.7 2955.39  12
   1   0   4 169.566 204.073  12
   1   0   4 253.401 130.261   4
   1   0   4 557.649 396.911   9
   1   0   4 330.972 156.282   7
   1   0   5 2732.84 763.948   4
   1   0   5 2322.42 779.426   9
   1   0   5 2071.30 745.333  12
   1   0   5 2764.85 690.929   7
   1   0   6 28201.5 2917.87   9
   1   0   6 27541.4 2860.54   4
   1   0   6 23650.0 2368.59  24
   1   0   7 5062.11 1328.49   4
   1   0   7 5467.28 1462.78   9
   1   0   7 5069.05 1185.02  24
   1   0   8 6771.54 1768.58   4
   1   0   8 4723.39 1410.19   9
   1   0   8 5565.72 1402.54  24
   1   0   9 4028.92 1406.53   9
   1   0   9 3943.00 1176.75  24
   1   0  10 6128.38 1428.00  24
   1   0  10 8109.84 1836.97  23
   1   0  11 1157.32 677.789  23
   1   0  11-631.329 452.934  24
   1   1  -9 4556.03 1303.58   2
   1   1  -5 7004.53 1294.01   2
   1   1  -4 40350.4 3004.41  20
   1   1  -4 48665.4 2980.06   2
   1   1  -3 144431. 4949.05   8
   1   1  -2 361415. 6955.62   8
   1   1   0 2268.40 462.950  10
   1   1   1 60689.2 2156.49   4
   1   1   1 57240.9 2348.09  14
   1   1   2 1624.91 383.803   4
   1   1   3 38978.0 2411.60   9
   1   1   3 37401.0 2208.07   4
   1   1   4 56984.6 3174.37   4
   1   1   4 54063.0 2651.45  24
   1   1   5 285.149 315.618   9
   1   1   5 320.887 94.2344  24
   1   1   5 498.052 394.499   4
   1   1   6 38481.3 3456.79   9
   1   1   6 35920.3 3233.63   4
   1   1   6 32214.8 2640.18  24
   1   1   7 8463.35 1767.51   4
   1   1   7 7254.89 1380.12  24
   1   1   8 1043.12 669.156  24
   1   1   8 1019.74 512.811  23
   1   1   8-60.0605 190.236   4
   1   1   9 3029.54 1105.31  23
   1   1   9 2359.28 779.999  24
   1   1   9 3081.52 1229.08   4
   1   1  10 1560.15 709.443  24
   1   1  10 2098.69 987.877  23
   1   1  11 1376.07 728.141  23
   1   2  -9-914.683 621.528   2
   1   2  -7 2008.95 871.134   2
   1   2  -5 21055.3 2281.51   2
   1   2  -4 2881.69 781.307   2
   1   2  -4 1149.90 511.271   8
   1   2  -3 26387.8 2256.59   8
   1   2  -3 31117.5 2265.92   2
   1   2  -2 67244.0 3222.00   8
   1   2   0 71736.3 3054.58  15
   1   2   0 63434.6 2728.22  10
   1   2   1 661.642 326.535  10
   1   2   1 906.287 333.027  15
   1   2   1 591.819 349.151  14
   1   2   2 62053.5 2947.95   4
   1   2   2 55398.1 2724.17  15
   1   2   2 59569.4 2866.66  14
   1   2   2 63106.0 2811.31  23
   1   2   3 40858.6 2603.71   4
   1   2   3 37956.5 1915.73  24
   1   2   3 35449.6 2345.29  23
   1   2   4 1795.21 481.988  24
   1   2   4 1953.25 589.249  23
   1   2   4 1635.36 593.053   4
   1   2   5 6441.71 1302.99   4
   1   2   5 7113.78 1082.10  24
   1   2   5 6412.47 1227.16  23
   1   2   6 5499.60 1340.37   4
   1   2   6 6304.37 1108.82  24
   1   2   6 5980.32 1312.07  23
   1   2   7 689.708 466.948  23
   1   2   7 1291.77 582.377  24
   1   2   7 1262.78 759.882   4
   1   2   8 3271.72 1130.63  23
   1   2   8 3538.50 979.501  24
   1   2   8 5616.43 1555.93   4
   1   2   9 4251.98 1328.15  23
   1   2  10-279.482 361.424  23
   1   2  11 66.0757 174.120  23
   1   3  -8 2530.06 1045.82   2
   1   3  -8 1533.62 610.647  48
   1   3  -7 891.731 619.351   2
   1   3  -4 68444.0 3834.97   8
   1   3  -3 34556.7 2664.63   8
   1   3  -3 41075.5 2763.45   2
   1   3  -2 44455.9 2810.95   8
   1   3  -2 50537.2 2752.95   2
   1   3  -1 2799.12 649.559  18
   1   3  -1 3088.16 624.682   2
   1   3   0 88592.4 3730.31  10
   1   3   0 88445.5 2778.41   2
   1   3   0 79069.8 2909.66  13
   1   3   1 7114.26 1103.63  15
   1   3   1 6537.72 594.357   2
   1   3   1 7218.79 1074.41  10
   1   3   2 157.397 255.165  10
   1   3   2 267.395 286.494  15
   1   3   2 361.896 329.984  14
   1   3   3 6544.23 1188.15   4
   1   3   3 5659.99 1056.38  15
   1   3   3 5202.34 1044.49  14
   1   3   3 6217.83 1124.61  23
   1   3   3 5439.79 793.956  21
   1   3   4 2607.25 777.690  15
   1   3   4 2147.87 702.658  14
   1   3   4 3166.70 875.557   4
   1   3   4 2973.05 829.977  23
   1   3   5 5162.47 1265.46   4
   1   3   5 4796.53 1130.18  23
   1   3   6 18340.4 2539.47   4
   1   3   6 13909.7 2088.39  23
   1   3   7 2680.78 1098.71   4
   1   3   7 2148.25 898.309  23
   1   3   8-51.2072 185.516   4
   1   3   8 1003.36 627.051  23
   1   3   9-573.924 478.062  15
   1   3   9-1211.49 717.117  14
   1   3   9 801.661 659.504  23
   1   3  10 718.565 528.559  23
   1   3  11-128.787 143.088  54
   1   4  -8-343.159 377.051   2
   1   4  -8 118.380 257.428  48
   1   4  -7 387.641 387.948   2
   1   4  -7 362.774 219.398  46
   1   4  -7-7.61461 96.2600  44
   1   4  -5 1763.34 745.777   2
   1   4  -4 22042.1 2169.86   8
   1   4  -3 25883.0 2328.89   8
   1   4  -2 4423.26 935.865   8
   1   4  -1 1115.24 507.288   8
   1   4   0 28554.7 2416.33  18
   1   4   1 892.784 391.878  10
   1   4   2 13759.5 1724.03  10
   1   4   2 17423.3 1967.65  15
   1   4   3 657.933 373.064  10
   1   4   3 1026.90 549.588  15
   1   4   4 4399.63 1084.95  10
   1   4   4 4459.98 1108.18  15
   1   4   4 3467.08 963.629  14
   1   4   5-285.259 304.006  10
   1   4   5-210.451 361.525  15
   1   4   5 224.112 259.989  14
   1   4   6 963.257 586.870  10
   1   4   6 389.096 354.925  15
   1   4   6 366.153 350.633  14
   1   4   7-440.588 431.403  10
   1   4   7 194.640 266.005  15
   1   4   8 487.011 464.498  10
   1   4   8 1316.85 681.395  15
   1   4   8 704.085 344.156  54
   1   4   9-9.89581 64.9644  54
   1   4  11-195.262 120.676  36
   1   5  -7 802.292 467.765  44
   1   5  -6-758.588 504.958   2
   1   5  -6-139.331 299.463  46
   1   5  -6 262.589 264.743  44
   1   5  -5 104.407 227.984  44
   1   5  -5 250.253 233.935  46
   1   5  -5-525.123 402.375   2
   1   5   0 25830.7 2600.59  18
   1   5   1 354.119 277.844  18
   1   5   3 771.063 437.049  10
   1   5   4 608.274 320.284  36
   1   5   4 241.166 299.269  15
   1   5   4 631.809 423.604  10
   1   5   5 1825.29 780.111  10
   1   5   5 2029.84 501.423  36
   1   5   5 1662.16 621.036  15
   1   5   6 1673.78 477.154  36
   1   5   6 1051.08 569.785  15
   1   5   7 37.3517 66.7177  36
   1   5   8 423.310 229.422  36
   1   5   9 4.42396 80.7378  36
   1   5  10 221.028 165.073  36
   1   5  11-22.7590 40.2721  41
   1   5  11-77.0576 66.4845  62
   1   6  -8 14.9166 104.967  48
   1   6  -7 901.195 406.514  44
   1   6  -5 463.149 273.569  44
   1   6  -4 10738.5 1512.72  44
   1   6  -3 768.130 369.112  44
   1   6   1-82.9587 268.032  18
   1   6   1 327.349 102.558  45
   1   6   2 2385.86 892.330  18
   1   6   2 2862.36 585.289  36
   1   6   2 2954.67 640.328  45
   1   6   2 3274.17 661.642  41
   1   6   3 16.9436 331.025  18
   1   6   3-38.4472 211.135  36
   1   6   3 39.7720 151.009  45
   1   6   4 3913.87 744.509  45
   1   6   4 3137.09 636.478  36
   1   6   4 3545.64 684.133  41
   1   6   5 364.747 273.811  41
   1   6   5 145.704 87.4374  45
   1   6   5 151.003 228.625  62
   1   6   6 631.130 289.214  41
   1   6   7-76.4525 99.4717  41
   1   6   8-8.81757 90.3384  41
   1   6   8 20.7449 104.397  45
   1   6   8 53.5807 78.1849  62
   1   6   9-10.4146 110.166  41
   1   6   9-89.1185 121.280  36
   1   6  10-43.0715 74.2128  36
   1   7  -8 89.6169 156.176  48
   1   7  -6 337.176 269.688  44
   1   7  -5 594.131 321.587  44
   1   7  -4 207.360 154.155  44
   1   7  -3 148.018 106.182  44
   1   7  -2 1544.91 556.792  44
   1   7   2 310.167 240.779  41
   1   7   3 444.750 378.396  18
   1   7   3 134.009 126.227  45
   1   7   4 200.532 196.046  41
   1   7   4 120.895 114.929  45
   1   7   5 246.024 213.364  41
   1   7   5 76.8094 166.750  18
   1   7   5 413.982 262.518  36
   1   7   5 28.1438 132.173  45
   1   7   6 27.4062 136.248  41
   1   7   6 14.4319 166.542  36
   1   7   6 111.912 80.8393  45
   1   7   7 26.0800 60.6937  41
   1   7   7 45.0604 81.0369  36
   1   7   8-31.6642 91.2131  41
   1   8  -7 165.795 142.393  48
   1   8  -4 150.598 174.392  44
   1   8  -3 137.215 144.604  44
   1   8  -2 173.686 199.521  44
   1   8  -1 13.1641 120.854  44
   1   8   0 490.877 350.294  44
   2  -9   0-11.8826 76.6565  28
   2  -9   1 29.1096 119.786  28
   2  -9   2 104.522 138.835  28
   2  -8  -2 609.756 307.272  28
   2  -8   1 148.760 233.101  25
   2  -8   2 294.503 311.538  25
   2  -8   3-687.455 450.888  25
   2  -8   4 183.932 173.503  28
   2  -8   5-153.971 121.207  28
   2  -7  -2 893.185 637.900  19
   2  -7  -1 67.2793 231.377  19
   2  -7   0 734.418 792.919  19
   2  -7   0 580.363 471.797  25
   2  -7   1-162.537 245.441  19
   2  -7   1 522.862 457.853  25
   2  -7   2-113.295 250.575  19
   2  -7   2 748.100 542.861  25
   2  -7   3-186.267 308.772  19
   2  -7   3-27.3081 152.966  25
   2  -7   4-1014.67 621.125  19
   2  -7   4 328.103 360.828  25
   2  -7   5-297.047 320.738  25
   2  -7   6 235.539 216.115  28
   2  -7   6 1412.92 640.941  25
   2  -6  -3 361.111 416.497  19
   2  -6  -2 525.053 775.073  19
   2  -6  -1 868.804 438.298  19
   2  -6   0 7517.73 1810.38  19
   2  -6   0 7940.74 1813.32   7
   2  -6   1 322.699 395.812   7
   2  -6   2 2493.24 1029.61  19
   2  -6   2 2127.11 1104.15   7
   2  -6   3-98.1193 236.522  19
   2  -6   4 528.687 469.897  19
   2  -6   4 890.246 596.486  25
   2  -6   5-703.602 539.052  19
   2  -6   5 347.866 377.730  25
   2  -6   6 228.318 299.639  25
   2  -6   7 830.084 515.351  25
   2  -6   8 161.388 144.306  26
   2  -5  -3 388.835 405.231  19
   2  -5   0 18451.1 2591.32  16
   2  -5   1-484.048 445.594  19
   2  -5   1-239.242 300.307  16
   2  -5   3 707.476 577.794   7
   2  -5   4 2026.56 969.204   7
   2  -5   5 1480.13 728.813  19
   2  -5   5 1942.84 870.903  25
   2  -5   5 1691.39 1022.67   7
   2  -5   6 8407.60 1803.61  25
   2  -5   6 11040.2 2135.65  12
   2  -5   7-378.061 372.706  25
   2  -5   7 1330.39 733.810  12
   2  -5   9-281.626 216.117  26
   2  -4  -3 2435.38 943.804  19
   2  -4  -1 13957.6 2238.67  16
   2  -4   0 4560.35 1288.02  16
   2  -4   0 3207.53 1138.00  11
   2  -4   1 609.103 477.746  16
   2  -4   1 358.359 287.701  11
   2  -4   2 14553.5 1957.16  16
   2  -4   2 14191.3 2178.05  11
   2  -4   3 956.414 508.761   7
   2  -4   3 646.227 312.103  11
   2  -4   4 2195.03 834.824  19
   2  -4   4 2118.51 829.372  11
   2  -4   5 1003.20 714.191   7
   2  -4   6 1893.63 835.737  25
   2  -4   6 1893.04 1093.36   7
   2  -4   6 1926.45 867.318  12
   2  -4   7-641.016 479.757  25
   2  -4   7 670.469 534.070  12
   2  -4   8 1388.32 757.422  12
   2  -3  -2 23332.8 2829.44  16
   2  -3  -2 25185.2 2832.26  11
   2  -3  -2 16788.8 1689.51  20
   2  -3  -1 51623.8 3887.28  16
   2  -3  -1 50650.2 3892.17  11
   2  -3   0 49934.5 3630.84  16
   2  -3   0 53458.1 3874.64  11
   2  -3   1 23.1375 161.436   1
   2  -3   1 53.0442 472.379  16
   2  -3   1-44.3854 228.096  11
   2  -3   2 1579.22 531.825  16
   2  -3   2 1049.62 566.723  11
   2  -3   2 2275.55 849.922   1
   2  -3   3 454.489 311.764  11
   2  -3   3 743.977 686.505   1
   2  -3   4 11425.0 2139.84   1
   2  -3   4 13463.8 2066.52   7
   2  -3   4 10033.9 1683.54  11
   2  -3   5 34663.5 3761.74   1
   2  -3   5 26903.6 2664.07  11
   2  -3   6 9468.92 2005.14   7
   2  -3   6 11666.6 2112.91  12
   2  -3   7 895.867 598.082  12
   2  -3   8 2384.54 982.057  12
   2  -3   9-460.572 454.227  24
   2  -3  10 575.326 464.164  24
   2  -2  -5 3333.53 1056.57  16
   2  -2  -4 53118.6 4172.06  16
   2  -2  -4 45152.6 3625.02  20
   2  -2  -3 4265.28 1121.01  16
   2  -2  -3 3678.81 1036.97  11
   2  -2  -3 3984.54 964.993  20
   2  -2  -2 362.814 374.824  20
   2  -2  -2 4.01204 335.980   1
   2  -2  -2 520.645 493.529  16
   2  -2  -2 28.9516 282.348  11
   2  -2  -1 20069.8 2111.93  16
   2  -2  -1 26634.8 2476.60   1
   2  -2   0 24346.8 2475.63   1
   2  -2   1 40642.6 2711.80  13
   2  -2   2 41960.4 1904.26  10
   2  -2   4 4049.88 1079.92   1
   2  -2   5 20502.1 2594.61   1
   2  -2   5 17460.7 2244.28   7
   2  -2   6 1823.49 760.191  12
   2  -2   6 1847.69 753.910   1
   2  -2   7 3070.42 1015.91  12
   2  -2   8 2278.10 1070.67   9
   2  -2   8 1973.22 857.054  12
   2  -2   9 3982.49 1434.06   9
   2  -2   9 339.246 395.901  24
   2  -2  10 2416.71 928.103  24
   2  -1  -6 12335.3 1755.91   2
   2  -1  -5 1254.71 691.444  20
   2  -1  -4 3275.20 983.335  20
   2  -1  -3 40821.3 2416.93   1
   2  -1  -3 47818.4 3290.25  16
   2  -1  -3 44714.2 2544.99  11
   2  -1  -3 46432.9 3381.01  20
   2  -1  -2 76851.0 3826.94  16
   2  -1  -2 64739.4 2876.28   8
   2  -1  -1 155922. 4043.39   8
   2  -1   0 8021.77 914.279  14
   2  -1   0 11696.5 1487.55  13
   2  -1   1 147068. 3797.82  10
   2  -1   2 31.9106 51.7660   4
   2  -1   3 22387.9 1361.91   4
   2  -1   4 16963.3 1522.98   4
   2  -1   5 85369.0 4538.52   7
   2  -1   5 84493.1 4435.70  12
   2  -1   6-333.582 364.189   9
   2  -1   6-290.511 294.695  12
   2  -1   7 17980.6 2749.90   9
   2  -1   7 15157.9 2191.19  12
   2  -1   8 12178.9 2383.17   9
   2  -1   8 8158.16 1741.53  24
   2  -1   9 671.960 601.004   9
   2  -1   9 1259.07 692.590  24
   2  -1  10-1208.83 643.047  24
   2   0  -9 1312.05 712.329   2
   2   0  -7 342.656 339.043   2
   2   0  -6 1012.49 543.776   2
   2   0  -5 58961.7 4474.77  20
   2   0  -4 6001.28 1000.11  16
   2   0  -4 4743.67 991.145   8
   2   0  -4 7219.57 1435.58  20
   2   0  -3 28677.5 2124.95  16
   2   0  -3 25887.0 2230.24   8
   2   0  -2 3560.59 937.401  17
   2   0  -2 2467.57 638.957   8
   2   0  -1 15686.8 1791.30  13
   2   0   0 163697. 4618.32  10
   2   0   0 163993. 3930.54  15
   2   0   0 162672. 4662.17  14
   2   0   1 446695. 7602.37  10
   2   0   1 444550. 5126.24   9
   2   0   1 454843. 7626.55  14
   2   0   2 279.476 314.024   9
   2   0   2 115.138 81.1821   4
   2   0   3 35283.4 2371.43   9
   2   0   3 36224.8 1924.29   4
   2   0   4 42875.8 2948.06   9
   2   0   4 39376.7 2472.92   4
   2   0   4 46519.8 2646.20  12
   2   0   5 30065.2 2792.50   9
   2   0   5 27477.5 2371.29   4
   2   0   5 29522.8 2386.49  12
   2   0   6-325.492 343.107   9
   2   0   6 344.398 342.785  24
   2   0   6-163.263 216.105   4
   2   0   7 2662.65 936.108   9
   2   0   7 762.065 470.579  24
   2   0   8-72.3758 226.199   9
   2   0   8 1067.69 588.236  24
   2   0   9 1569.46 859.215  23
   2   0  10-655.951 533.604  23
   2   1  -9 4135.26 1310.93   2
   2   1  -7 22442.1 2815.53   2
   2   1  -6 7749.48 1507.02   2
   2   1  -5 1205.82 576.101   8
   2   1  -5 1927.73 779.634  20
   2   1  -4 22004.3 2332.03   8
   2   1  -4 23592.6 2521.91  20
   2   1  -3 34396.9 2709.84   8
   2   1  -2 21959.9 2204.72  17
   2   1  -2 17264.9 1821.61   8
   2   1  -1 19378.1 1827.96  17
   2   1  -1 22615.3 2110.92  13
   2   1   0 41484.6 2365.93  15
   2   1   0 45007.1 2878.85  13
   2   1   0 40147.1 2484.54  10
   2   1   1 66884.0 3245.64  10
   2   1   1 65497.9 3005.42  15
   2   1   1 71789.4 3408.11  14
   2   1   2 276.918 253.496  10
   2   1   2 174.784 163.108  23
   2   1   2 183.146 241.231  14
   2   1   3 10653.5 1246.22   4
   2   1   3 8551.78 1093.53  23
   2   1   4 1135.66 459.405  23
   2   1   4 1661.73 592.457   4
   2   1   5 9423.92 1482.42   4
   2   1   6 9380.30 1646.97   4
   2   1   6 8688.59 1590.21  23
   2   1   7 33938.3 3484.92   4
   2   1   7 22997.9 2802.13  23
   2   1   8 4324.48 1313.27  23
   2   1   9 1084.29 640.802  23
   2   1  10 1185.39 774.854  23
   2   2  -9 3.97545 449.650   2
   2   2  -6 12294.0 1976.63   2
   2   2  -5 28163.7 2792.60   8
   2   2  -5 34737.8 3037.61   2
   2   2  -5 29951.0 2985.62  20
   2   2  -4 3971.52 1015.03   8
   2   2  -4 4745.84 1087.70  20
   2   2  -3 11104.9 1638.32   8
   2   2  -2 9575.31 1452.05  17
   2   2  -2 8228.20 1274.99   8
   2   2  -1 5346.00 965.484  17
   2   2  -1 6418.34 1161.94  13
   2   2   0 11455.1 1469.51  10
   2   2   0 12270.8 1487.37  15
   2   2   0 12483.7 1519.30  13
   2   2   1 32263.8 2398.74  15
   2   2   1 34384.9 2695.45  14
   2   2   1 32471.8 2449.56  10
   2   2   2 1922.47 671.970  10
   2   2   2 2667.92 727.196  15
   2   2   2 3162.99 827.842  14
   2   2   2 3285.20 686.759  23
   2   2   3 32138.4 2740.60  10
   2   2   3 32626.7 2619.33  15
   2   2   3 32895.0 2758.58  14
   2   2   3 33499.6 2400.87  23
   2   2   4 13853.1 1795.83   4
   2   2   4 11004.7 1513.39  23
   2   2   5 28280.6 2793.04   4
   2   2   5 21688.1 2339.24  23
   2   2   6 3038.94 984.062   4
   2   2   6 2267.80 818.125  23
   2   2   7 1025.18 630.301   4
   2   2   7 935.860 575.037  23
   2   2   8-49.9177 190.127  23
   2   2   9 1629.56 813.258  23
   2   2   9 459.816 489.545  14
   2   2  10 1399.46 736.039  23
   2   3  -8 6296.96 1604.62   2
   2   3  -8 2156.13 618.424  48
   2   3  -7 2997.39 797.929  44
   2   3  -7 2675.04 704.544  46
   2   3  -5 20012.7 2370.19   8
   2   3  -5 26550.7 2761.36   2
   2   3  -4 4434.44 1123.05   8
   2   3  -4 3864.77 1009.22   2
   2   3  -4 4238.11 961.201  20
   2   3  -3 421.915 295.960  20
   2   3  -3-4.48376 122.607   8
   2   3  -2 11841.8 1609.88  17
   2   3  -2 11020.1 1600.44   8
   2   3  -1 8887.63 1253.85  17
   2   3   0 11861.9 1413.34  18
   2   3   0 13940.4 1641.12  13
   2   3   1 37658.5 2857.10  15
   2   3   1 36664.5 2842.80  10
   2   3   2 726.126 444.527  10
   2   3   2 944.416 461.906  15
   2   3   2 897.470 576.273  14
   2   3   3 1907.56 714.633  10
   2   3   3 2155.46 749.787  15
   2   3   3 2345.05 816.231  14
   2   3   4 168.243 197.072  10
   2   3   4 50.1042 186.702  15
   2   3   4 129.141 213.030  14
   2   3   4 166.888 338.725  23
   2   3   5 3362.24 1128.79  10
   2   3   5 2648.20 940.998  15
   2   3   5 2317.18 880.515  14
   2   3   5 3087.90 958.647  23
   2   3   6 8966.88 1949.75  10
   2   3   6 7326.30 1652.45  15
   2   3   6 8839.01 1852.44  14
   2   3   6 10232.2 1870.81  23
   2   3   7 2827.41 1140.89  10
   2   3   7 2347.47 947.518  15
   2   3   7 2267.18 982.265  14
   2   3   7 3280.50 1131.60  23
   2   3   8-1043.84 729.750  10
   2   3   8-422.620 434.263  15
   2   3   8-574.659 523.427  14
   2   3   8 428.202 427.527  23
   2   3   9 344.637 385.239  15
   2   3   9 328.085 378.822  23
   2   3  12-94.9257 73.9456  36
   2   4  -8 265.999 317.901  48
   2   4  -7-433.461 414.581   2
   2   4  -7 284.957 240.496  46
   2   4  -7-297.962 257.197  44
   2   4  -6 14539.3 1741.00  44
   2   4  -6 16275.4 1868.49  46
   2   4  -5 732.317 441.782   8
   2   4  -4 140.436 208.955   2
   2   4  -4 271.608 286.155   8
   2   4  -3 7585.24 1406.22   8
   2   4  -3 8165.71 1369.77   2
   2   4  -2 1775.66 676.851   2
   2   4  -2 1921.97 702.634   8
   2   4  -1 3797.74 960.333   8
   2   4  -1 5052.70 932.370   2
   2   4   0 9760.25 1453.34  18
   2   4   1 2158.71 738.308  10
   2   4   2 8272.34 1531.76  15
   2   4   2 6387.98 1315.59  10
   2   4   3 7776.19 1563.24  10
   2   4   3 9257.66 1608.90  15
   2   4   4 3829.87 1178.24  10
   2   4   4 4129.92 1153.08  15
   2   4   4 4116.85 1298.35  14
   2   4   5 1789.16 813.286  10
   2   4   5 1953.51 846.335  15
   2   4   5 2515.62 948.394  14
   2   4   6-164.601 272.014  10
   2   4   6 66.5314 128.201  15
   2   4   6-544.283 473.178  14
   2   4   7-53.9955 178.418  10
   2   4   7 654.899 506.590  15
   2   4   7 308.790 373.193  14
   2   4   8 1154.50 663.487  15
   2   4  10 278.641 120.909  36
   2   4  11-84.7617 69.7917  36
   2   5  -7 1435.43 554.996  46
   2   5  -6 5362.34 1018.72  46
   2   5  -6 5497.56 1046.34  44
   2   5  -5 16790.8 2292.23   2
   2   5  -5 17818.3 1938.33  44
   2   5  -4 1178.21 516.418  44
   2   5  -4 1039.64 395.100  42
   2   5  -2 1266.97 564.003   8
   2   5  -1-66.5311 259.756   8
   2   5   0 5109.89 1193.79  18
   2   5   1 2079.39 740.958  18
   2   5   2 202.723 131.741  18
   2   5   3 3171.68 1117.60  10
   2   5   3 3378.33 648.618  41
   2   5   4 1740.45 799.491  10
   2   5   4 1737.03 481.845  41
   2   5   4 2084.78 531.498  36
   2   5   4 2290.58 864.881  15
   2   5   5 231.898 175.984  36
   2   5   5 661.239 484.562  15
   2   5   6 1574.03 782.825  10
   2   5   6 1828.50 493.949  36
   2   5   6 1343.87 687.024  15
   2   5   7-1.03430 184.108  36
   2   5   7 186.246 275.412  15
   2   5   8-184.658 144.830  36
   2   5   9 319.882 175.973  36
   2   5  10 66.2015 93.6779  41
   2   6  -8 101.173 145.610  48
   2   6  -7 150.288 106.398  44
   2   6  -6 464.742 335.907  46
   2   6  -6 486.983 344.050  44
   2   6  -5 1219.34 498.605  46
   2   6  -5 935.972 416.382  44
   2   6  -4 1165.17 519.735  44
   2   6  -3 2153.43 671.281  44
   2   6  -3 1691.92 538.841  42
   2   6  -2 730.868 334.345  42
   2   6  -1 242.979 236.318  63
   2   6   0 187.692 247.830  63
   2   6   1 557.431 301.608  63
   2   6   1 545.409 275.101  45
   2   6   2 2096.03 552.179  41
   2   6   2 477.982 388.101  18
   2   6   2 1624.32 474.150  45
   2   6   3 430.910 484.782  18
   2   6   3 964.334 360.456  36
   2   6   3 1104.28 376.221  45
   2   6   4 93.1092 101.687  36
   2   6   4 81.0214 143.342  45
   2   6   5 658.192 296.123  36
   2   6   5 421.827 282.846  41
   2   6   5 513.879 229.447  45
   2   6   6 267.429 198.649  41
   2   6   6 105.323 169.879  36
   2   6   6 138.046 95.4591  45
   2   6   7 64.8200 159.636  41
   2   6   7-1.71146 129.178  36
   2   6   7-53.7237 104.975  45
   2   6   8-6.42868 83.7031  41
   2   6   8-81.4491 131.243  36
   2   6   8 104.000 120.113  45
   2   6   9 153.489 123.337  36
   2   6   9 134.222 71.5424  45
   2   7  -8-49.4859 52.4596  48
   2   7  -5 66.3172 165.957  44
   2   7  -4 249.506 187.477  44
   2   7  -3 714.140 292.677  44
   2   7  -2-36.8708 137.895  44
   2   7   0 786.200 387.583  63
   2   7   1-51.3313 104.766  63
   2   7   2 1224.53 444.918  63
   2   7   3 238.148 171.199  45
   2   7   3-38.0377 104.174  63
   2   7   4 100.693 79.5905  63
   2   7   4 33.8532 88.4070  45
   2   7   5 157.420 123.948  41
   2   7   5 88.8092 96.5542  45
   2   7   5 201.098 180.403  63
   2   7   6 95.0443 128.870  41
   2   7   6 63.4592 66.0747  45
   2   7   7 31.1275 108.239  41
   2   7   7 45.9644 88.5130  45
   2   8  -7-33.1297 56.2731  48
   2   8  -6-76.3040 51.3665  44
   2   8  -4 779.992 335.643  44
   2   8  -3-66.5163 118.114  44
   2   8  -2 406.166 272.205  44
   2   8  -1 155.139 195.870  44
   2   9  -4 61.8286 99.9504  44
   2   9  -2 33.6284 55.0104  44
   2   9  -1 36.8129 85.4731  44
   2   9   0-0.63716 59.1834  44
   2   9   1-4.26098 70.9369  44
   3  -9   0 64.7631 132.668  28
   3  -9   1-40.3384 79.3884  28
   3  -9   2 25.5603 115.425  28
   3  -9   3-41.3591 69.6571  28
   3  -8   1 580.013 455.980  19
   3  -8   5-12.8971 131.589  28
   3  -7  -2 1140.22 696.858  19
   3  -7  -1-672.815 547.322  19
   3  -7   0-75.1302 219.915  19
   3  -7   1 297.747 591.343  19
   3  -7   2-33.3038 175.930  19
   3  -7   3 817.119 563.087  19
   3  -7   3 284.792 330.413  25
   3  -7   4 516.862 430.134  19
   3  -7   4 1220.75 636.779  25
   3  -7   5-104.696 196.220  25
   3  -7   6-130.167 152.130  28
   3  -6  -3 2081.11 940.799  19
   3  -6   0 3105.35 1291.50   7
   3  -6   1-248.058 350.238   7
   3  -6   2 429.043 409.029   7
   3  -6   3 2344.86 1076.11   7
   3  -6   5 906.693 570.437  19
   3  -6   5-73.4561 200.030  25
   3  -6   6-654.333 471.297  25
   3  -5  -2 885.956 611.944  19
   3  -5  -2 1086.67 743.151  16
   3  -5  -1 2123.24 869.113   7
   3  -5   0 1431.04 708.027  16
   3  -5   0 2023.75 868.288   7
   3  -5   1 749.190 548.908  16
   3  -5   1 1266.76 772.558   7
   3  -5   2 626.186 274.321  16
   3  -5   2 249.008 198.791   7
   3  -5   2 147.229 268.519  11
   3  -5   3-304.289 370.679  19
   3  -5   4 724.997 543.132  19
   3  -5   5 501.378 507.668   7
   3  -5   6 8660.38 1765.51  25
   3  -5   6 8937.23 1898.43  12
   3  -5   7 268.054 312.518  25
   3  -4  -4 2446.58 1174.85  16
   3  -4  -2 1316.93 759.303  16
   3  -4  -2 878.845 662.935  11
   3  -4  -1 3444.28 1121.12  16
   3  -4  -1 1301.27 721.736  11
   3  -4   0 5224.06 1376.76  16
   3  -4   0 5357.17 1678.97   1
   3  -4   0 3791.65 1270.57  11
   3  -4   1 4226.05 1191.76  16
   3  -4   1 5266.50 1580.11   1
   3  -4   1 4417.50 1307.46  11
   3  -4   2 18127.2 2421.08  16
   3  -4   2 20281.0 2736.98  11
   3  -4   3 461.681 433.242  16
   3  -4   3 3097.30 1072.01   7
   3  -4   3 2193.96 993.537   1
   3  -4   3 2087.40 904.015  11
   3  -4   4 6714.05 1665.49   7
   3  -4   4 5650.04 1658.53   1
   3  -4   4 5386.37 1397.67  11
   3  -4   5-239.401 296.327  11
   3  -4   6 844.500 638.651   7
   3  -4   7 511.148 469.362  12
   3  -3  -4-715.577 487.014  20
   3  -3  -3 5996.08 1618.10  16
   3  -3  -3 3475.55 1159.67  11
   3  -3  -3 4618.26 1156.55  20
   3  -3  -2 464.802 192.954  20
   3  -3  -2 366.248 398.002  16
   3  -3  -2 49.7255 237.707   1
   3  -3  -2-8.97803 145.430  11
   3  -3  -1 386.671 214.487  16
   3  -3  -1 682.290 565.933   1
   3  -3  -1 701.865 574.982  11
   3  -3   0 24078.2 2731.74  16
   3  -3   0 25902.9 2795.52  11
   3  -3   1 1689.25 773.388   1
   3  -3   2 475.405 506.104   1
   3  -3   2 1566.12 669.079  13
   3  -3   3 7159.05 1807.94   1
   3  -3   4 1276.72 743.405   1
   3  -3   4 274.995 223.468  11
   3  -3   5 746.500 483.534  11
   3  -3   5 561.134 515.218   1
   3  -3   5 2184.87 923.458   7
   3  -3   6 10237.3 2169.93   1
   3  -3   7 1212.05 705.627  12
   3  -2  -5 139.554 383.771  16
   3  -2  -5-263.682 666.709  20
   3  -2  -4 75356.2 5200.13  16
   3  -2  -4 65925.6 4565.96  11
   3  -2  -4 69759.5 4911.74  20
   3  -2  -3 10169.1 1826.67   1
   3  -2  -3 7766.44 1659.21  16
   3  -2  -3 6724.07 1496.35  11
   3  -2  -3 9144.31 1653.44  20
   3  -2  -2 15963.1 2184.61  16
   3  -2  -2 11458.9 1142.49   8
   3  -2  -1 5210.78 1234.60  17
   3  -2  -1 3762.17 635.031   8
   3  -2   0 1720.71 652.753  17
   3  -2   1 2117.59 684.518  17
   3  -2   1 2380.29 629.245  14
   3  -2   1 2961.84 923.473  13
   3  -2   2 53396.3 3130.23  14
   3  -2   2 68619.9 4543.39  13
   3  -2   5 337.259 308.590   1
   3  -2   6 10710.9 2340.95   1
   3  -2   6 11444.5 2009.10   7
   3  -2   6 9951.17 1892.49  12
   3  -2   7-1162.63 745.646   9
   3  -2   8-276.352 373.202   9
   3  -1  -7 7057.85 1512.97   2
   3  -1  -6 11221.6 2311.55  20
   3  -1  -5 342.438 203.039  20
   3  -1  -4 279.481 625.461  20
   3  -1  -4 639.212 555.591  16
   3  -1  -4 343.280 252.461   8
   3  -1  -4 336.656 335.665  11
   3  -1  -3 1328.87 533.346  16
   3  -1  -3 1101.65 450.127   8
   3  -1  -2 2497.86 948.293  17
   3  -1  -2 1486.24 535.252   8
   3  -1  -1 23707.5 2459.52  17
   3  -1  -1 18937.9 1724.65   8
   3  -1   0 77409.9 4307.99  17
   3  -1   0 83583.5 3028.56  15
   3  -1   1 81.4434 116.760  10
   3  -1   1-114.482 154.326  14
   3  -1   1-34.5260 126.122  13
   3  -1   2 43882.9 2887.19  10
   3  -1   2 44109.2 3003.05  14
   3  -1   3 20225.5 2132.10  10
   3  -1   4 1223.09 557.334  10
   3  -1   5 7046.83 1510.13   9
   3  -1   6 3168.06 1083.42   9
   3  -1   7 2216.03 976.280   9
   3  -1   8 7204.90 1864.78   9
   3  -1   9 319.933 369.740  23
   3  -1  10-332.342 362.203  23
   3   0  -8 1084.55 629.304   2
   3   0  -7 33.3462 144.584   2
   3   0  -6-80.7222 137.909  20
   3   0  -5 8850.02 1548.78   8
   3   0  -5 9307.39 1925.33  20
   3   0  -4 64510.9 4619.47  20
   3   0  -4 65265.7 3821.94  16
   3   0  -4 56945.0 3822.94   8
   3   0  -3 10714.8 1596.12   8
   3   0  -2 23116.6 2558.31  17
   3   0  -2 18620.6 1970.88   8
   3   0  -1 21345.8 2319.54  17
   3   0  -1 25906.7 2814.60  13
   3   0   0 6610.21 1019.28  15
   3   0   0 6713.87 1424.14  13
   3   0   1 60430.9 3113.59  15
   3   0   1 67679.8 3838.67  14
   3   0   1 72043.9 4563.08  13
   3   0   1 60388.3 3467.41  10
   3   0   2 13756.6 1755.48  10
   3   0   2 13536.7 1330.71   9
   3   0   2 13587.7 1824.60  14
   3   0   3 1165.77 516.963  10
   3   0   3 555.105 449.128   9
   3   0   3 1332.90 610.161  14
   3   0   4 18105.2 2324.91  10
   3   0   4 20637.5 2155.91   9
   3   0   5 7892.53 1666.26  10
   3   0   5 10633.6 1879.38   9
   3   0   6 13301.1 2294.52   9
   3   0   7-972.677 590.772  23
   3   0   8 1822.72 964.416  10
   3   0   8 262.665 337.760  23
   3   0   9 2003.14 883.460  23
   3   0  10-93.2104 213.109  23
   3   1  -8 2716.44 1035.20   2
   3   1  -7 7527.49 1648.89   2
   3   1  -6 1590.50 831.740  20
   3   1  -5 896.061 530.553  20
   3   1  -5 1471.45 726.604   8
   3   1  -4 35265.8 3349.41  20
   3   1  -4 34825.0 3164.03   8
   3   1  -3 934.119 780.336  17
   3   1  -3 334.837 274.457   8
   3   1  -2 3024.96 913.189  17
   3   1  -2 1689.30 649.870   8
   3   1  -1 38519.0 3098.87  17
   3   1  -1 43998.3 3668.44  13
   3   1   0 11377.0 1471.21  15
   3   1   0 13724.6 2033.76  13
   3   1   1 29199.0 2384.75  15
   3   1   1 33631.2 2891.19  14
   3   1   1 29212.5 2599.36  10
   3   1   2 77349.6 4366.38  10
   3   1   2 75813.9 3998.76  15
   3   1   2 80359.6 4496.97  14
   3   1   3 12625.7 1865.32  10
   3   1   3 11217.2 1654.85  15
   3   1   3 13181.3 1937.26  14
   3   1   3 12899.7 1421.08  23
   3   1   4 1215.39 624.862  10
   3   1   4 1700.79 740.776  14
   3   1   4 1570.78 557.805  23
   3   1   5 8342.23 1833.59  10
   3   1   5 8505.96 1874.26  14
   3   1   5 10434.4 1622.14  23
   3   1   6 1393.55 779.095  10
   3   1   6-273.794 495.955  23
   3   1   7 4915.68 1311.30  23
   3   1   7 2001.02 993.269  10
   3   1   8 2249.12 1104.84  14
   3   1   8 4159.65 1266.97  23
   3   1   9 706.060 532.827  23
   3   2  -8 257.058 185.569  46
   3   2  -7 344.146 364.831   2
   3   2  -7-70.7674 204.310  46
   3   2  -6 676.188 409.784   2
   3   2  -6 674.631 517.067   8
   3   2  -5 14289.8 2155.07   8
   3   2  -5 13743.5 2165.07  20
   3   2  -4 5730.46 1349.45   8
   3   2  -4 5873.47 1325.37  20
   3   2  -3 10795.0 1723.61   8
   3   2  -2 16089.6 2106.39  17
   3   2  -2 13904.4 1870.18   8
   3   2  -1 16113.1 2010.14  17
   3   2  -1 19443.6 2435.24  13
   3   2   0 154.066 237.004  15
   3   2   0 49.2148 469.526  13
   3   2   1 15196.0 1898.44  15
   3   2   1 17878.0 2322.89  13
   3   2   1 14776.4 1954.43  10
   3   2   2 5615.57 1202.82  15
   3   2   2 5558.91 1297.78  14
   3   2   2 4340.81 1134.58  10
   3   2   3 4176.97 1164.27  10
   3   2   3 5248.08 1210.37  15
   3   2   3 4447.36 1201.94  14
   3   2   3 5749.75 1045.82  23
   3   2   4 28335.0 3175.70  10
   3   2   4 22775.5 2660.58  15
   3   2   4 26137.2 3091.70  14
   3   2   4 28065.4 2570.39  23
   3   2   5 6283.34 1599.32  10
   3   2   5 5332.07 1401.35  15
   3   2   5 6909.46 1709.46  14
   3   2   5 6389.31 1365.81  23
   3   2   6 4196.25 1383.17  10
   3   2   6 4748.58 1397.09  15
   3   2   6 5156.73 1586.32  14
   3   2   6 5438.89 1349.44  23
   3   2   7-129.296 256.101  15
   3   2   7 300.122 267.602  14
   3   2   7 117.536 223.312  23
   3   2   8-72.3573 444.991  15
   3   2   8 190.522 329.601  14
   3   2   9-425.374 449.209  15
   3   2   9 256.765 332.410  23
   3   3  -8 1228.80 525.160  46
   3   3  -7 2586.64 974.702   2
   3   3  -7 3320.72 856.411  46
   3   3  -7 2702.11 707.313  44
   3   3  -6 242.610 301.855   2
   3   3  -6 317.567 470.443   8
   3   3  -5 6377.09 1447.35   8
   3   3  -5 9751.83 1703.87   2
   3   3  -5 7023.42 1457.22  20
   3   3  -4 8999.50 1703.90   8
   3   3  -4 8730.68 1550.98  20
   3   3  -3 1941.08 759.988   8
   3   3  -2 418.704 342.764  17
   3   3  -2 464.167 305.102   8
   3   3  -1 13012.7 1847.80  17
   3   3   0-154.172 166.423  18
   3   3   0-287.235 280.923  17
   3   3   0 144.072 236.996  13
   3   3   1 66145.4 4294.88  15
   3   3   1 75762.0 4894.09  13
   3   3   1 69867.5 4577.58  10
   3   3   2 6865.09 1435.96  15
   3   3   2 6006.19 1379.93  10
   3   3   3 3055.58 1043.35  10
   3   3   3 2908.36 975.351  15
   3   3   3 2273.58 999.000  14
   3   3   4 212.371 192.581  10
   3   3   4 172.581 314.222  15
   3   3   4 305.965 387.223  14
   3   3   5 367.109 302.106  10
   3   3   5 831.026 566.042  15
   3   3   5 1001.03 658.031  14
   3   3   6-337.737 420.072  10
   3   3   6 22.5982 397.912  15
   3   3   6 512.498 647.465  14
   3   3   6-228.106 293.156  23
   3   3   7 1395.19 850.320  10
   3   3   7 1071.18 740.201  15
   3   3   7 1650.68 910.642  14
   3   3   7 826.223 560.589  23
   3   3   8 1005.59 669.696  15
   3   3  11 195.738 133.763  36
   3   4  -8 1230.19 415.632  48
   3   4  -8 1272.36 504.999  46
   3   4  -7 776.750 407.643  46
   3   4  -6-224.877 206.335  58
   3   4  -6 818.845 425.248  44
   3   4  -5 7909.39 1196.35  42
   3   4  -5 5150.17 1304.64   8
   3   4  -5 8195.84 1610.78   2
   3   4  -5 7374.81 1106.86  58
   3   4  -5 10127.3 1432.51  44
   3   4  -4 2164.76 756.320   2
   3   4  -4 2260.02 895.752   8
   3   4  -3 8821.75 1674.19   8
   3   4  -3 10473.7 1640.72   2
   3   4  -2 5970.34 1311.81   8
   3   4  -1 579.126 281.704   8
   3   4   0 1569.89 572.361  18
   3   4   1 584.041 358.047  18
   3   4   2 1109.62 556.590  10
   3   4   2 899.300 664.100  15
   3   4   2 139.570 196.356  13
   3   4   3 7423.15 1621.34  15
   3   4   3 7350.46 1683.46  10
   3   4   4 1663.56 809.944  10
   3   4   4 1345.72 690.649  15
   3   4   5 3102.28 579.272  36
   3   4   5 1636.54 962.633  10
   3   4   5 2565.91 950.696  15
   3   4   6 708.061 580.366  10
   3   4   6 192.447 291.858  15
   3   4   7-126.274 253.814  15
   3   4   8-30.9474 123.043  36
   3   4   9-16.4485 118.439  36
   3   4  10-61.5400 79.3113  41
   3   4  10-70.4956 70.6393  36
   3   5  -8-266.859 202.848  48
   3   5  -8 94.4066 141.028  46
   3   5  -7 113.325 290.397  46
   3   5  -6 1050.01 496.456  44
   3   5  -5 947.327 472.332  44
   3   5  -5 347.586 298.255  42
   3   5  -4 1438.59 494.421  44
   3   5  -4 748.708 414.941  42
   3   5  -4 462.546 384.372   8
   3   5  -3 75.7226 101.667  42
   3   5  -3 211.987 372.859   8
   3   5  -2 385.599 308.252  42
   3   5  -2 84.8433 177.388   8
   3   5  -2 198.228 205.599  63
   3   5  -1 442.087 290.502  42
   3   5  -1 245.014 95.6695  63
   3   5  -1 280.643 297.440   8
   3   5   0 1275.68 447.325  42
   3   5   0 1320.03 484.873  63
   3   5   0 1105.50 395.928  45
   3   5   1 9429.63 1128.03  41
   3   5   1 7203.24 1399.73  18
   3   5   1 9144.59 1084.48  45
   3   5   2 291.513 152.217  45
   3   5   2 422.674 327.013  18
   3   5   3 4635.67 789.129  41
   3   5   3 3165.09 929.939  18
   3   5   4-449.922 426.383  10
   3   5   4 146.500 120.220  41
   3   5   5 1024.75 370.503  41
   3   5   5 619.253 465.768  15
   3   5   6 179.042 153.738  41
   3   5   6-681.085 503.894  15
   3   5   7 2.12586 105.931  41
   3   5   8 32.5297 104.120  41
   3   5   9 56.6572 81.2959  41
   3   5   9 193.951 104.044  36
   3   6  -8 129.093 129.208  48
   3   6  -7 285.656 169.696  46
   3   6  -7 221.839 197.805  44
   3   6  -6 211.505 258.853  46
   3   6  -6 270.320 210.861  44
   3   6  -5 215.441 229.646  44
   3   6  -4 108.320 174.449  44
   3   6  -4-11.2990 77.5445  42
   3   6  -3 1495.80 489.568  42
   3   6  -3 3316.83 806.671  44
   3   6  -2-28.4598 244.105  42
   3   6  -2-44.2981 148.969  63
   3   6  -1 822.618 370.784  42
   3   6  -1 1108.14 444.561  63
   3   6   0-234.575 111.829  63
   3   6   1 1506.01 506.875  42
   3   6   1 1472.07 439.527  45
   3   6   1 1376.31 482.930  63
   3   6   2-42.2360 201.300  63
   3   6   2 255.179 286.766  45
   3   6   3 585.014 305.637  41
   3   6   3 445.820 361.582  18
   3   6   3 529.085 265.348  45
   3   6   4 255.088 208.111  41
   3   6   4 755.395 461.100  18
   3   6   4 244.284 182.768  45
   3   6   5 237.097 435.219  18
   3   6   5 482.552 192.287  36
   3   6   5 454.196 255.077  45
   3   6   6 330.013 172.257  36
   3   6   6 98.9643 124.943  45
   3   6   7 244.525 136.934  36
   3   6   7 234.397 181.951  45
   3   6   8-37.7466 63.6066  41
   3   6   8-34.2344 90.0559  45
   3   7  -6 150.047 172.174  46
   3   7  -5 245.803 117.981  46
   3   7  -5 298.895 217.911  44
   3   7  -4 99.4503 120.427  44
   3   7  -3 530.739 335.581  44
   3   7  -3 277.999 139.237  42
   3   7  -2 94.4043 235.944  44
   3   7  -2 16.3312 65.3211  42
   3   7  -1 323.474 188.481  42
   3   7   0-113.099 184.662  42
   3   7   0 38.4383 96.7517  63
   3   7   1 161.679 190.741  42
   3   7   1 158.079 150.367  63
   3   7   2-60.9000 52.5965  63
   3   7   3 497.915 301.705  63
   3   7   3 443.392 254.475  45
   3   7   4 35.5022 100.914  41
   3   7   4 7.66076 90.3360  63
   3   7   4 93.2869 74.6538  45
   3   7   5 243.671 168.444  63
   3   7   5-69.9317 105.804  45
   3   7   6 71.1745 96.3454  63
   3   7   6-34.1338 72.9266  45
   3   7   7-52.0970 72.1950  45
   3   8  -4 85.1998 94.9758  44
   3   8  -3-75.1252 88.3486  44
   3   8  -2 102.225 145.396  44
   3   8  -1 347.723 198.852  44
   3   8   0 39.5044 107.763  44
   3   9  -1 13.3371 61.7301  44
   3   9   0 135.807 88.0421  44
   4  -7  -2-558.473 463.325  19
   4  -7  -1-401.137 413.363  19
   4  -7   0-166.908 280.308  19
   4  -7   1 767.653 551.960  19
   4  -7   2-807.832 547.643  19
   4  -7   3 1198.68 636.314  19
   4  -7   3-444.559 382.702  25
   4  -6  -1 1213.37 749.909  16
   4  -6   0 587.178 524.122  19
   4  -6   0 151.693 285.789  16
   4  -6   1-48.1358 187.825  19
   4  -6   1-49.7103 170.670  16
   4  -6   5 2109.27 821.590  19
   4  -6   5 1767.74 762.508  25
   4  -5  -3 1009.63 634.010  16
   4  -5  -1 68.3880 249.997  16
   4  -5   0 767.854 671.900  16
   4  -5   0 708.555 666.030  11
   4  -5   1 7625.12 1810.14  16
   4  -5   1 2300.86 1091.50  11
   4  -5   2-3.44515 445.873  16
   4  -5   2-390.691 429.213   7
   4  -5   2 718.843 589.493  11
   4  -5   3-604.311 544.177   7
   4  -5   3 1115.46 698.956  11
   4  -5   4-697.237 536.533  19
   4  -5   4 222.717 309.807  11
   4  -5   6 653.680 476.672  25
   4  -4  -3 3269.82 1266.45  16
   4  -4  -3 1326.54 768.700  11
   4  -4  -2 2308.58 1112.88  16
   4  -4  -2 451.555 553.845  11
   4  -4  -1 2977.54 1143.40  16
   4  -4  -1 1988.58 1021.15   1
   4  -4  -1 2131.13 931.139  11
   4  -4   0 832.165 598.520  16
   4  -4   0 248.947 337.252  11
   4  -4   0 438.994 501.249   1
   4  -4   1 622.339 590.939   1
   4  -4   1 355.327 197.969  16
   4  -4   1 158.644 419.559  11
   4  -4   2-181.814 342.436   1
   4  -4   2 158.281 266.379  16
   4  -4   2 392.516 446.351  11
   4  -4   3 8193.54 2136.71   1
   4  -4   3 5344.62 1438.10  16
   4  -4   3 7282.42 1760.25  11
   4  -4   4 3362.96 1270.38   7
   4  -4   4 3026.33 1318.73   1
   4  -4   4 2942.21 1080.89  11
   4  -4   5 907.323 662.199   7
   4  -4   5 510.999 451.360  11
   4  -3  -5 4585.33 1556.56  16
   4  -3  -4 355.208 589.915  16
   4  -3  -4 391.637 391.266  11
   4  -3  -4 155.442 259.748  20
   4  -3  -3 3756.67 1324.94  16
   4  -3  -3 4116.74 1516.90   1
   4  -3  -3 3488.12 1170.72  11
   4  -3  -3 4207.11 1201.40  20
   4  -3  -2 133.028 291.892  20
   4  -3  -2 502.522 295.373   1
   4  -3  -2 64.6172 323.945  16
   4  -3  -2 511.260 518.270  11
   4  -3  -1 1621.43 993.253   1
   4  -3  -1 853.718 588.851  16
   4  -3  -1 1607.11 763.607  11
   4  -3   0 12515.2 2177.50  16
   4  -3   0 20766.7 3205.45   1
   4  -3   1 8577.11 2226.89   1
   4  -3   2-435.116 513.049   1
   4  -3   3 7301.65 2091.97   1
   4  -3   4 3527.58 1411.98   1
   4  -3   5-375.539 426.873   7
   4  -3   5-3.30190 77.2866  11
   4  -2  -6 194.162 162.963  47
   4  -2  -6 338.990 545.169  20
   4  -2  -5-537.130 496.918  20
   4  -2  -4 1196.44 729.814  20
   4  -2  -4 1393.46 813.077  16
   4  -2  -4 1065.58 572.749  11
   4  -2  -3 8277.90 1989.20   1
   4  -2  -3 6063.51 1566.98  16
   4  -2  -3 5806.46 1339.50  11
   4  -2  -3 7890.51 1702.14  20
   4  -2  -2 5471.54 1401.12  16
   4  -2  -1 8412.84 1724.58  17
   4  -2   0 1506.32 840.167  17
   4  -2   1 4762.13 1306.07  17
   4  -2   1 4975.37 1423.22  13
   4  -2   2 3645.38 1093.32  17
   4  -2   2 5299.36 1555.02  13
   4  -2   3 8209.04 1954.13  13
   4  -2   4 5554.81 1661.95  13
   4  -2   5-25.0755 115.321  14
   4  -2   5-28.2143 157.077  13
   4  -2   6 10644.8 2472.00   1
   4  -2   6 8919.00 2185.42  13
   4  -1  -6 4280.33 1487.45  20
   4  -1  -5 6925.52 1550.26  16
   4  -1  -5 6512.08 1776.92  20
   4  -1  -4 720.210 654.328  20
   4  -1  -4 667.253 533.599  16
   4  -1  -4 414.212 205.917   8
   4  -1  -3 7629.79 1595.04  16
   4  -1  -3 5652.22 1172.69   8
   4  -1  -2 1296.32 799.153  17
   4  -1  -2 550.557 392.973   8
   4  -1  -1 2811.88 1032.86  17
   4  -1  -1 3375.47 868.964   8
   4  -1   0 72335.3 4937.02  17
   4  -1   0 80110.0 5731.11  13
   4  -1   1 11732.0 1985.23  17
   4  -1   1 11802.8 2188.55  13
   4  -1   2 49880.2 4077.14  14
   4  -1   2 55353.0 4920.80  13
   4  -1   2 51839.9 3686.50  10
   4  -1   3 12337.8 1771.25  15
   4  -1   3 11673.3 1960.79  14
   4  -1   3 11704.6 2481.44  13
   4  -1   3 9776.70 1668.44  10
   4  -1   4 552.294 423.543  10
   4  -1   4-273.342 330.106  14
   4  -1   5 772.219 574.391  14
   4  -1   6 4992.21 1535.71  14
   4  -1   7-138.625 286.835  14
   4   0  -8 1841.46 832.495   2
   4   0  -8 1683.03 603.409  30
   4   0  -7 583.790 432.680  47
   4   0  -7 53.5079 330.002  20
   4   0  -6 863.846 750.911  20
   4   0  -5 4778.17 1471.50  20
   4   0  -5 5277.63 1280.76   8
   4   0  -4 15795.5 2091.26  16
   4   0  -4 15858.6 2219.63   8
   4   0  -3-7.35610 361.915  17
   4   0  -3 472.982 289.597   8
   4   0  -2 19490.7 2698.76  17
   4   0  -2 17515.9 2129.16   8
   4   0  -1 20683.9 2717.79  17
   4   0  -1 19885.6 2218.90   8
   4   0   0 758.096 428.514  17
   4   0   0 1293.06 832.213  13
   4   0   1 55254.8 3516.05  15
   4   0   1 58511.7 4903.95  13
   4   0   2 20284.6 2261.62  15
   4   0   2 18140.2 2435.19  14
   4   0   2 21036.5 3019.82  13
   4   0   2 17451.0 2265.33  10
   4   0   3 194.928 349.421  10
   4   0   3 396.173 338.754  15
   4   0   3-638.632 479.620  14
   4   0   4 6481.85 1610.85  10
   4   0   4 5260.00 1356.62  15
   4   0   4 7858.72 1794.05  14
   4   0   5 4841.84 1405.63  10
   4   0   5 4479.83 1319.10  15
   4   0   5 4929.66 1557.52  14
   4   0   6 5600.77 1606.63  10
   4   0   6 6983.72 1693.04  15
   4   0   6 9879.33 2263.83  14
   4   0   7-70.7178 200.703  15
   4   0   7 130.639 290.840  14
   4   0   8-614.262 535.945  15
   4   1  -8 146.011 265.387   2
   4   1  -7 2620.02 1003.89   2
   4   1  -7 2412.70 715.150  47
   4   1  -7 3346.08 847.325  46
   4   1  -7 1761.62 911.382  20
   4   1  -6 5711.13 1407.68   8
   4   1  -6 6681.51 1196.13  30
   4   1  -6 8308.41 1293.37  58
   4   1  -6 5761.88 1592.99  20
   4   1  -5 4508.39 1339.93  20
   4   1  -5 4741.69 1284.17   8
   4   1  -4 1141.23 653.553   8
   4   1  -3 14022.3 2399.17  17
   4   1  -3 11295.6 1868.26   8
   4   1  -2 2455.84 1006.29  17
   4   1  -2 2377.22 868.827   8
   4   1  -1 5549.08 1362.10  17
   4   1   0 1118.86 562.492  17
   4   1   0 2027.07 980.625  13
   4   1   1 342.707 399.842  15
   4   1   1-584.158 504.381  13
   4   1   2 35018.4 3144.16  15
   4   1   2 33938.3 3577.12  14
   4   1   2 35406.2 3995.35  13
   4   1   2 36411.2 3479.97  10
   4   1   3 4001.99 1229.17  10
   4   1   3 3795.33 1087.35  15
   4   1   3 5884.33 1527.68  14
   4   1   4 2521.81 1039.51  10
   4   1   4 1262.27 669.631  15
   4   1   4 1633.65 817.126  14
   4   1   5 120.606 267.385  10
   4   1   5-1135.30 670.895  15
   4   1   5 73.8198 652.295  14
   4   1   6 45.9344 184.685  10
   4   1   6 448.082 325.516  15
   4   1   6 120.157 288.109  14
   4   1   7 407.592 473.856  10
   4   1   7 518.456 503.929  15
   4   1   7-200.748 355.011  14
   4   1   8 826.600 626.349  15
   4   2  -8 1828.46 612.142  46
   4   2  -7 1331.77 702.724   2
   4   2  -7 1987.85 605.843  47
   4   2  -7 2603.13 710.918  46
   4   2  -6 5227.97 1350.28   8
   4   2  -6 6632.30 1156.44  30
   4   2  -6 5593.37 1052.80  58
   4   2  -6 6249.90 1145.21  47
   4   2  -6 5933.74 1576.83  20
   4   2  -5 301.125 621.026  20
   4   2  -5 734.982 528.450   8
   4   2  -4 3416.65 1085.15   8
   4   2  -3 416.448 657.699  17
   4   2  -3 134.765 329.358   8
   4   2  -2 10651.0 1976.67  17
   4   2  -2 8839.13 1696.01   8
   4   2  -1 23067.6 2846.47  17
   4   2   0 28018.3 3148.49  17
   4   2   0 33636.1 3675.45  13
   4   2   1 664.548 589.519  15
   4   2   1 546.566 486.177  13
   4   2   2-223.057 302.154  10
   4   2   2 14.3931 214.772  15
   4   2   2 489.744 612.302  13
   4   2   3-130.573 249.867  10
   4   2   3 321.464 458.380  15
   4   2   3-214.702 494.682  14
   4   2   4 3302.94 1210.67  10
   4   2   4 1586.26 823.749  15
   4   2   4 3892.76 1316.55  14
   4   2   5-262.633 369.603  10
   4   2   5 688.357 449.472  15
   4   2   5 1320.80 816.881  14
   4   2   6 2818.69 1271.93  10
   4   2   6 3711.00 1283.46  15
   4   2   6 5594.93 1757.50  14
   4   2   7-77.0920 782.659  15
   4   2   7-471.439 528.449  14
   4   3  -8 347.513 220.308  30
   4   3  -8 876.694 546.401  46
   4   3  -7 2191.59 671.626  46
   4   3  -6-214.660 281.199   2
   4   3  -6 334.280 225.869  30
   4   3  -6 271.551 282.059   8
   4   3  -6 588.984 379.056  58
   4   3  -6 341.916 351.632  20
   4   3  -5 333.214 306.331  42
   4   3  -5 456.113 234.534  30
   4   3  -5 607.036 505.577   8
   4   3  -5 353.874 271.195  58
   4   3  -5 586.707 446.756  20
   4   3  -4 9286.10 1893.89   8
   4   3  -4 9117.68 1761.84  20
   4   3  -3 388.176 351.708   8
   4   3  -2-3.13988 391.177  17
   4   3  -2 111.914 147.053   8
   4   3  -1 332.190 258.561  17
   4   3  -1 122.070 303.800   8
   4   3   0 1826.90 725.668  17
   4   3   0 3233.41 1105.50  13
   4   3   1 1846.75 805.679  17
   4   3   1 2014.30 979.452  13
   4   3   2 14844.4 2317.50  15
   4   3   2 16136.9 2705.83  13
   4   3   2 14421.2 2428.67  10
   4   3   3 274.685 243.774  10
   4   3   3 70.3408 219.364  13
   4   3   4 3219.99 1240.28  10
   4   3   4 3539.08 1185.53  15
   4   3   5-207.722 338.473  10
   4   3   5 236.870 328.257  15
   4   3   6 438.691 445.402  15
   4   3   6-219.203 359.346  14
   4   3   7 76.0966 205.175  15
   4   3   9 200.959 85.2465  41
   4   3  10-178.973 100.801  41
   4   4  -8 947.281 433.488  46
   4   4  -7 881.309 370.669  48
   4   4  -7 1329.45 474.490  46
   4   4  -7 680.414 317.397  44
   4   4  -6 1282.49 442.378  30
   4   4  -6 1632.63 775.352   8
   4   4  -6 1312.15 495.461  58
   4   4  -6 2101.24 600.287  44
   4   4  -5 2384.63 699.832  44
   4   4  -5 909.131 420.919  42
   4   4  -5 1467.68 690.589   2
   4   4  -5 1072.86 421.923  30
   4   4  -5 910.069 569.455   8
   4   4  -5 1681.70 562.742  58
   4   4  -4 625.762 291.983  44
   4   4  -4 256.163 194.939  42
   4   4  -4 468.361 450.991   8
   4   4  -4 410.392 343.391  58
   4   4  -3 131.140 192.273  42
   4   4  -3 271.834 366.639  30
   4   4  -3 605.549 465.831   8
   4   4  -3 213.037 214.255  63
   4   4  -2 10044.8 1288.19  42
   4   4  -2 7117.46 1599.52   8
   4   4  -2 10294.1 1339.46  63
   4   4  -1 5443.45 917.773  42
   4   4  -1 5362.00 1353.83  17
   4   4  -1 4237.65 1206.79   8
   4   4  -1 4953.46 960.113  63
   4   4  -1 5492.65 857.129  45
   4   4   0 4184.52 1225.76  17
   4   4   0 4483.65 891.215  63
   4   4   0 4143.14 741.196  45
   4   4   1 328.538 507.378  17
   4   4   1 886.100 345.686  45
   4   4   2 4535.00 810.585  41
   4   4   2 3392.50 1124.21  17
   4   4   2 4797.74 784.461  45
   4   4   3 187.370 290.937  13
   4   4   4-12.7187 141.032  10
   4   4   4-262.505 195.052  41
   4   4   4-40.9569 249.463  15
   4   4   5 747.575 330.597  41
   4   4   5 1307.16 841.151  15
   4   4   5 269.039 387.815  13
   4   4   6 376.365 211.294  41
   4   4   6 1335.55 738.597  15
   4   4   7 130.947 79.3991  41
   4   4   8 121.726 157.732  41
   4   4   9 56.9387 71.5401  41
   4   5  -8-119.602 79.7375  46
   4   5  -7 111.018 145.875  46
   4   5  -7-70.3851 107.485  44
   4   5  -6 32.8268 74.3301  44
   4   5  -5 1118.89 471.665  44
   4   5  -5 446.482 251.006  42
   4   5  -5 604.317 254.143  58
   4   5  -4 2575.06 648.029  42
   4   5  -4 2138.38 836.161   8
   4   5  -4 2110.35 551.051  58
   4   5  -4 3009.17 777.353  44
   4   5  -3 226.995 199.995  44
   4   5  -3 244.996 142.596  42
   4   5  -3 485.213 410.198   8
   4   5  -3 788.863 364.261  58
   4   5  -2 1945.32 549.340  42
   4   5  -2 1325.86 669.272   8
   4   5  -2 2005.00 597.831  63
   4   5  -1 434.773 255.974  42
   4   5  -1 3.06531 95.6356   8
   4   5  -1 372.564 195.379  63
   4   5   0 263.119 319.825  42
   4   5   0 109.355 213.256   8
   4   5   0 362.933 255.480  63
   4   5   0 489.408 310.880  45
   4   5   1 3206.29 728.209  63
   4   5   1 3774.88 710.142  45
   4   5   2 442.201 212.476  45
   4   5   3 288.736 200.799  41
   4   5   3-57.2579 70.3356  45
   4   5   4 1056.32 392.081  45
   4   5   5 256.558 210.409  45
   4   5   7 112.363 108.605  45
   4   5   8 49.0160 67.7225  41
   4   5   8 0.64204 82.5634  45
   4   6  -7 127.873 225.446  48
   4   6  -7-88.4992 132.505  46
   4   6  -6 436.323 267.295  46
   4   6  -5 61.2939 101.843  44
   4   6  -4 864.834 414.708  44
   4   6  -4 558.666 306.795  42
   4   6  -3 1564.14 534.712  44
   4   6  -3 1172.02 400.432  42
   4   6  -2 155.219 129.484  42
   4   6  -2 839.421 339.975  58
   4   6  -1-63.7985 147.892  42
   4   6  -1-65.8215 132.103  63
   4   6   0 325.685 222.816  63
   4   6   1 421.177 242.844  42
   4   6   1 416.323 302.076  63
   4   6   2 1067.57 400.497  42
   4   6   2 636.643 382.512  63
   4   6   2 1137.97 370.292  45
   4   6   3-1.26365 149.023  63
   4   6   3 137.173 121.802  45
   4   6   4 148.805 177.763  63
   4   6   4 73.7571 150.872  45
   4   6   5 13.8193 68.1032  63
   4   6   5 149.869 120.497  45
   4   6   6 109.487 100.050  63
   4   6   6-44.0013 88.0367  45
   4   6   7 95.8099 105.636  63
   4   6   7 29.9621 90.6102  45
   4   7  -6-0.61411 87.4767  46
   4   7  -6-105.220 112.341  44
   4   7  -5 59.2470 125.156  46
   4   7  -5 393.888 222.522  44
   4   7  -4 173.241 70.6783  44
   4   7  -3 102.623 174.021  44
   4   7  -3 21.2416 68.5005  42
   4   7  -2 577.341 306.364  44
   4   7  -2 84.1003 123.133  42
   4   7  -1 149.837 121.134  42
   4   7   0-10.9652 59.4411  42
   4   7   0-13.2794 74.9448  63
   4   7   1 89.0798 89.0898  42
   4   7   1 288.172 208.249  63
   4   7   2 450.876 184.328  63
   4   7   3 147.710 141.942  63
   4   7   4 83.8117 67.8976  63
   4   7   5-39.2391 64.8770  63
   4   8  -3 187.409 119.058  44
   4   8  -2 115.968 108.181  44
   4   8  -1 33.5073 64.7539  44
   4   8   0 19.2253 64.6138  44
   4   8   1 107.673 134.089  44
   5  -6  -3-190.495 307.384  16
   5  -6  -1-1244.72 724.093  19
   5  -6  -1 504.223 478.192  16
   5  -6   0-583.164 500.083  19
   5  -6   0-125.199 247.845  16
   5  -6   1 503.465 457.864  19
   5  -6   1-37.0883 153.894  16
   5  -5  -3-469.398 513.214  16
   5  -5  -1-252.792 368.970  16
   5  -5  -1 761.432 618.382  11
   5  -5   0 182.798 319.271  16
   5  -5   0-237.279 357.937  11
   5  -5   1 2672.85 1061.25  16
   5  -5   1 399.059 448.132  11
   5  -5   2 114.089 241.938  16
   5  -5   2-71.9472 201.423  11
   5  -5   4-124.280 244.592  19
   5  -4  -5 9.20098 144.606  16
   5  -4  -3 740.301 680.598  16
   5  -4  -3 261.210 366.321  11
   5  -4  -2 3799.03 1513.97  16
   5  -4  -2 970.382 606.492  11
   5  -4  -1 565.911 587.491   1
   5  -4  -1-177.052 314.992  11
   5  -4   0-458.237 558.480   1
   5  -4   0 874.890 654.735  16
   5  -4   0-68.8951 382.465  11
   5  -4   1 421.513 546.421   1
   5  -4   1-20.1384 185.803  16
   5  -4   1-197.440 318.818  11
   5  -4   2 3564.58 1242.60  16
   5  -4   2 3130.37 1282.68  11
   5  -4   3-389.995 403.205  16
   5  -4   3 488.319 469.962  11
   5  -4   4-219.585 311.576  11
   5  -3  -5 1547.07 606.933  47
   5  -3  -5 2860.14 1103.18  20
   5  -3  -4 642.798 656.291  16
   5  -3  -4 29.9793 257.391  20
   5  -3  -3 2071.57 898.396  20
   5  -3  -3 2254.55 1110.28  16
   5  -3  -3 1258.68 726.308  11
   5  -3  -2-127.736 437.950  20
   5  -3  -2 94.4049 578.193  16
   5  -3  -2 856.416 682.414   1
   5  -3  -2 597.216 696.295  11
   5  -3  -1-958.516 749.821   1
   5  -3  -1-631.702 548.774  16
   5  -3  -1 413.867 288.878  11
   5  -3   0 122.596 209.465  16
   5  -3   0 358.602 484.981   1
   5  -3   1 10855.4 2163.22  16
   5  -3   1 14378.4 3160.13   1
   5  -3   2 1906.12 1075.66   1
   5  -3   3-116.781 313.681   1
   5  -3   4 513.643 463.552  11
   5  -3   5-1169.82 677.250  11
   5  -2  -6 79.1568 262.078  47
   5  -2  -6-1049.64 719.534  20
   5  -2  -5-687.664 552.183  16
   5  -2  -5 694.273 580.788  20
   5  -2  -4 1343.37 776.344  20
   5  -2  -4 691.145 682.422  16
   5  -2  -3 11029.0 2202.55  16
   5  -2  -3 10442.0 1981.34  11
   5  -2  -3 12346.0 2311.29  20
   5  -2  -2 1485.72 850.992  16
   5  -2  -2 5492.69 1658.11   1
   5  -2  -1 2479.74 1149.76  17
   5  -2   0 1307.33 799.327  17
   5  -2   1 20388.6 3049.52  17
   5  -2   2 2345.06 998.350  17
   5  -2   2 4711.60 1576.59  13
   5  -2   3 729.745 600.519  17
   5  -2   3 1822.32 969.295  13
   5  -2   4 4.12324 143.292  17
   5  -2   4 279.860 402.076  13
   5  -2   5 1655.76 870.475  17
   5  -2   5 1069.56 791.623  13
   5  -1  -7 800.299 480.703  47
   5  -1  -7-156.127 280.007  20
   5  -1  -6 951.679 449.557  30
   5  -1  -6 384.120 530.973  20
   5  -1  -5 3753.99 1332.19  20
   5  -1  -5 4073.38 1003.40  30
   5  -1  -5 4229.66 884.673  58
   5  -1  -4 406.748 392.563  16
   5  -1  -4-122.904 194.987   8
   5  -1  -3 4753.62 1402.77  16
   5  -1  -3 5648.28 1327.13   8
   5  -1  -2 974.741 739.470  17
   5  -1  -2 1497.51 638.518   8
   5  -1  -1 362.632 418.027  17
   5  -1  -1-389.579 331.780   8
   5  -1   0 2926.13 1126.06  17
   5  -1   1 7210.99 1826.39  17
   5  -1   1 7554.93 2032.24  13
   5  -1   2 553.531 326.928  17
   5  -1   2 1404.92 881.138  13
   5  -1   3 10220.6 2494.77  13
   5  -1   4 2678.21 1113.63  14
   5  -1   4 2882.67 1377.47  13
   5  -1   5 2901.04 1189.98  14
   5  -1   5 1270.90 913.232  13
   5  -1   6 1763.78 1078.66  13
   5   0  -7 1355.26 551.621  47
   5   0  -7 169.682 316.824  20
   5   0  -6 144.329 152.423  30
   5   0  -6 405.271 166.632  58
   5   0  -6 154.663 264.162  47
   5   0  -6 673.380 664.289  20
   5   0  -5 1081.20 717.105  20
   5   0  -5 920.532 554.729   8
   5   0  -5 981.727 429.941  58
   5   0  -4-217.713 287.191   8
   5   0  -3 4094.88 1202.18   8
   5   0  -2 1008.11 567.078  17
   5   0  -2 896.534 539.195   8
   5   0  -1 2539.25 1099.93  17
   5   0  -1 3236.16 1026.71   8
   5   0   0 14940.4 2619.91  17
   5   0   0 14530.9 2145.71   8
   5   0   1 26454.5 3460.34  17
   5   0   1 21859.1 3490.55  13
   5   0   2 243.585 283.467  15
   5   0   2 737.769 500.480  13
   5   0   3 197.353 417.955  15
   5   0   3 95.6444 306.854  13
   5   0   4 405.432 390.730  15
   5   0   4 310.931 405.366  14
   5   0   4-59.7717 263.042  13
   5   0   5 48.0353 151.906  15
   5   0   5 1109.57 782.792  14
   5   0   5 336.426 494.547  13
   5   0   6 832.358 598.428  15
   5   0   6 2214.66 1119.66  14
   5   0   6 2153.53 1218.30  13
   5   1  -7 168.496 104.529  30
   5   1  -7 34.1860 120.448  46
   5   1  -7 360.721 417.178  20
   5   1  -6 1389.56 568.261  30
   5   1  -6 1869.68 783.262   8
   5   1  -6 2372.05 702.517  58
   5   1  -6 711.534 669.542  20
   5   1  -5 384.400 406.898  20
   5   1  -5 127.366 229.894   8
   5   1  -4 1746.70 625.246  30
   5   1  -4 653.513 500.873   8
   5   1  -4 1266.57 511.103  58
   5   1  -3 14564.3 2623.36  17
   5   1  -3 15116.5 2398.43   8
   5   1  -2 1639.78 948.959  17
   5   1  -2 926.661 669.663   8
   5   1  -1 193.087 434.448  17
   5   1  -1 6.23957 115.511   8
   5   1   0 1903.97 894.986  17
   5   1   0 865.819 677.265  13
   5   1   1 149.700 166.836  17
   5   1   1-77.9708 233.325  13
   5   1   2 4785.78 1299.61  15
   5   1   2 3955.05 1619.84  13
   5   1   3 10985.0 2007.36  15
   5   1   3 9824.99 2553.28  13
   5   1   4 1574.46 869.063  10
   5   1   4 1446.31 761.722  15
   5   1   4 596.563 692.785  13
   5   1   5 1847.18 966.728  10
   5   1   5 2600.07 924.441  15
   5   1   5 4032.17 1506.09  14
   5   1   5 4591.98 1763.46  13
   5   1   6-103.291 237.448  15
   5   1   6-119.145 281.643  14
   5   1   6 541.450 625.766  13
   5   2  -8 435.070 216.736  46
   5   2  -7 484.220 251.779  30
   5   2  -7 748.472 250.568  46
   5   2  -7 301.545 364.131  20
   5   2  -6 367.169 209.757  30
   5   2  -6 949.184 590.096   8
   5   2  -6 376.886 215.037  58
   5   2  -6 1090.91 673.693  20
   5   2  -5 1049.63 733.165  20
   5   2  -5 965.789 428.471  42
   5   2  -5 284.687 348.884   8
   5   2  -5 1010.75 482.132  58
   5   2  -4 2276.19 611.806  42
   5   2  -4 2045.53 669.651  30
   5   2  -4 1737.80 877.714   8
   5   2  -4 2607.00 706.680  58
   5   2  -3-231.610 235.982  42
   5   2  -3 123.019 306.881   8
   5   2  -2 1123.69 752.731  17
   5   2  -2 786.498 540.770   8
   5   2  -1 2184.71 1005.96  17
   5   2  -1 2187.68 888.791   8
   5   2   0 11956.0 2325.31  17
   5   2   1 1019.65 758.987  17
   5   2   1 1819.96 860.767  13
   5   2   2 129.421 255.855  17
   5   2   2-270.949 407.461  13
   5   2   3 3954.82 1361.68  15
   5   2   3 4168.88 1641.21  13
   5   2   4-629.473 565.427  10
   5   2   4 223.235 321.372  15
   5   2   5 934.796 647.097  15
   5   2   5 578.300 636.811  13
   5   2   6 451.729 454.313  15
   5   3  -8 313.876 310.934  46
   5   3  -7-33.0094 122.302  46
   5   3  -6 41.4730 180.250  30
   5   3  -6 347.691 231.529  58
   5   3  -6 209.178 286.729  20
   5   3  -5 533.671 443.595  20
   5   3  -5-21.1303 145.294  42
   5   3  -5 27.0372 96.3492  30
   5   3  -5 211.508 305.323   8
   5   3  -5-91.1520 261.893  58
   5   3  -4 6278.33 1064.57  42
   5   3  -4 5563.96 1059.21  30
   5   3  -4 6389.65 1624.19   8
   5   3  -4 7222.49 1178.35  58
   5   3  -4 5917.91 1471.19  20
   5   3  -3 7047.94 1122.67  42
   5   3  -3 4841.09 1410.67   8
   5   3  -2-84.1074 164.653  42
   5   3  -2-10.5440 113.467   8
   5   3  -2 204.658 181.679  63
   5   3  -1 1997.92 562.403  42
   5   3  -1 1427.68 773.217  17
   5   3  -1 1672.67 799.972   8
   5   3  -1 1888.99 582.874  63
   5   3   0 1017.44 653.939  17
   5   3   0 916.651 438.094  63
   5   3   1 1627.81 843.090  17
   5   3   1 1892.41 968.659  13
   5   3   1 1109.18 486.152  63
   5   3   2 5676.52 1632.93  17
   5   3   2 8409.13 2098.27  13
   5   3   3-583.138 575.709  13
   5   3   4 1299.45 770.037  15
   5   3   4 2802.80 1276.75  13
   5   3   5 1284.70 743.829  15
   5   4  -8 27.3830 72.5832  46
   5   4  -7 556.641 269.086  46
   5   4  -6 24.7499 143.450  30
   5   4  -6 6.61130 117.892  58
   5   4  -5 229.502 246.649  42
   5   4  -5 234.727 192.807  30
   5   4  -5 343.450 154.791  58
   5   4  -4 689.713 359.157  42
   5   4  -4 1285.79 691.878   8
   5   4  -4 927.406 425.341  58
   5   4  -3 3502.13 755.292  42
   5   4  -3 3723.93 833.155  30
   5   4  -3 3735.81 1183.99   8
   5   4  -2 625.854 395.017   8
   5   4  -2 510.498 356.349  63
   5   4  -1 1530.69 521.243  42
   5   4  -1 2692.45 987.371  17
   5   4  -1 717.847 527.958   8
   5   4  -1 1072.41 457.762  63
   5   4   0 1121.17 506.704  42
   5   4   0 1217.17 675.902  17
   5   4   0 283.531 346.187   8
   5   4   0 1192.06 517.115  63
   5   4   0 1709.08 458.814  45
   5   4   1-14.2367 118.120  17
   5   4   1 208.685 285.020  63
   5   4   1 122.178 126.054  45
   5   4   2 96.1036 232.489  17
   5   4   2 974.110 480.443  63
   5   4   2 1326.85 389.054  45
   5   4   3 633.084 517.151  17
   5   4   3 385.903 196.445  45
   5   4   4 1020.96 659.143  17
   5   4   4 28.6922 135.288  45
   5   4   5-492.030 457.489  17
   5   4   5 137.728 197.450  45
   5   4   7 228.169 141.267  45
   5   4   8 325.511 136.995  45
   5   5  -8 195.185 146.154  46
   5   5  -7 39.4539 153.152  46
   5   5  -5 516.735 232.722  42
   5   5  -5 491.149 287.510  58
   5   5  -5 459.018 253.779  44
   5   5  -4 1571.50 497.809  44
   5   5  -4 1158.05 413.215  42
   5   5  -4 1273.10 376.954  30
   5   5  -4 1171.23 416.481  58
   5   5  -3 22.2945 139.399  44
   5   5  -3 233.251 163.779  42
   5   5  -3 555.304 315.050  58
   5   5  -2 236.364 212.116  42
   5   5  -2 308.591 238.005  30
   5   5  -1 310.908 189.540  63
   5   5   0 463.083 313.766  42
   5   5   0 11.5792 140.032  63
   5   5   1 337.283 307.867  42
   5   5   1-597.871 308.930  63
   5   5   2 571.728 366.518  63
   5   5   2 456.540 261.719  45
   5   5   3 60.5195 169.487  63
   5   5   3 179.002 223.219  45
   5   5   4 1097.97 445.116  63
   5   5   4 704.058 264.978  45
   5   5   5-52.9630 76.5939  63
   5   5   5 138.736 129.695  45
   5   5   6 44.7951 176.958  63
   5   5   6 477.606 208.048  45
   5   5   7 58.1977 47.9660  63
   5   5   7-64.4490 57.1209  45
   5   6  -7 22.2683 110.593  46
   5   6  -6 127.936 108.574  46
   5   6  -6 36.8408 77.4264  44
   5   6  -4 677.409 296.335  44
   5   6  -4 456.344 229.373  42
   5   6  -3 268.920 142.285  44
   5   6  -3 486.869 245.000  42
   5   6  -2 308.436 227.688  44
   5   6  -2 387.667 195.095  42
   5   6  -2 354.688 213.381  58
   5   6  -1 28.9902 135.362  42
   5   6   0-154.444 113.370  42
   5   6   0 223.480 183.521  63
   5   6   1-99.4000 172.156  63
   5   6   2 382.692 239.674  42
   5   6   2 280.432 182.852  63
   5   6   3 294.146 242.811  42
   5   6   3 27.4454 70.4790  63
   5   6   4 110.564 111.766  42
   5   6   4-93.3416 141.929  63
   5   6   4-25.1345 65.8355  45
   5   6   5 141.930 140.532  42
   5   6   5 104.589 106.392  63
   5   6   5 137.305 88.5809  45
   5   7  -5 137.016 132.197  46
   5   7  -5-192.183 98.2400  44
   5   7  -4-82.2913 47.8040  46
   5   7  -4 76.7862 78.5411  44
   5   7  -3 169.063 158.136  44
   5   7  -2 147.484 159.045  44
   5   7  -2 215.964 113.288  42
   5   7  -1-21.1161 105.834  44
   5   7  -1 79.1212 121.122  42
   5   7   0 25.7405 106.097  44
   5   7   0 70.9387 61.5199  42
   5   7   1 4.67245 55.3517  42
   5   7   2 166.706 141.390  63
   5   7   3 108.157 113.354  63
   6  -5  -3-117.224 258.117  16
   6  -5  -1-353.952 411.532  16
   6  -5   0 143.590 267.931  16
   6  -5   1-463.127 431.456  16
   6  -4  -3-609.479 549.884  16
   6  -4  -2-75.2676 424.453  16
   6  -4  -2-183.079 300.167  11
   6  -4  -1 896.900 661.169  16
   6  -4  -1-832.686 636.803  11
   6  -4   0-737.801 593.139  16
   6  -4   0-781.289 618.023  11
   6  -4   1 1268.99 748.854  16
   6  -4   2 609.569 634.283  16
   6  -4   3-126.600 233.074  16
   6  -3  -5 102.389 198.436  47
   6  -3  -5-737.756 554.042  20
   6  -3  -4 3008.18 1179.74  16
   6  -3  -4 1938.78 949.917  20
   6  -3  -3 633.058 641.935  16
   6  -3  -3-57.2564 204.684  47
   6  -3  -3 197.879 486.338  20
   6  -3  -2 1285.69 794.151  16
   6  -3  -2 760.381 598.492  11
   6  -3  -1 850.731 651.580  16
   6  -3  -1 335.818 392.443  11
   6  -3   0 503.102 419.755  16
   6  -3   0 1141.07 731.160  11
   6  -3   1 135.344 279.403  16
   6  -3   1-716.319 584.718  11
   6  -3   2-781.281 591.499  16
   6  -3   2 995.290 677.372  11
   6  -3   3-381.218 409.297  16
   6  -3   4 823.065 559.399  16
   6  -2  -6 353.587 267.822  47
   6  -2  -6 203.098 323.663  20
   6  -2  -5-653.903 518.404  16
   6  -2  -5-304.567 396.827  20
   6  -2  -4 570.322 519.913  20
   6  -2  -4 2678.18 1050.41  16
   6  -2  -3 1260.10 740.904  20
   6  -2  -3 16.8479 535.920  16
   6  -2  -2 323.840 408.459  16
   6  -2  -1 3578.66 1591.07   1
   6  -2  -1 1384.40 937.768  16
   6  -2   0-54.0867 219.128  17
   6  -2   1 1244.42 782.969  17
   6  -2   2 974.183 692.693  17
   6  -2   3-51.7769 219.013  17
   6  -1  -7 37.6828 162.931  47
   6  -1  -6-64.7169 131.432  30
   6  -1  -6-82.2424 236.979  20
   6  -1  -5 2079.10 923.773  20
   6  -1  -5 2171.32 676.469  30
   6  -1  -5 2663.98 797.623  47
   6  -1  -4 913.705 670.352  20
   6  -1  -4 1263.86 843.706  16
   6  -1  -3 1072.40 474.671  30
   6  -1  -3 722.033 574.778  16
   6  -1  -2 3412.00 1254.94  16
   6  -1  -1 5140.64 1733.92  17
   6  -1   0 5792.52 1789.22  17
   6  -1   1 11522.9 2502.03  17
   6  -1   2 3822.15 1423.29  17
   6  -1   3 3923.62 1431.78  17
   6  -1   3 2593.72 1624.60  13
   6  -1   4 2472.27 1142.77  17
   6  -1   4 1240.03 903.085  13
   6  -1   5-161.205 314.370  17
   6   0  -7-26.2480 130.365  47
   6   0  -7-534.042 492.982  20
   6   0  -6 754.382 339.211  30
   6   0  -6 1103.20 503.530  47
   6   0  -6 636.346 553.905  20
   6   0  -5 1231.48 769.108  20
   6   0  -5 1023.21 485.500  30
   6   0  -5 1931.90 798.095   8
   6   0  -5 903.388 368.972  58
   6   0  -4 2500.78 1024.56  20
   6   0  -4 4178.98 985.253  30
   6   0  -4 4486.90 1250.13   8
   6   0  -4 3057.96 749.533  58
   6   0  -3 6030.80 1196.57  30
   6   0  -3 2736.38 1050.53  16
   6   0  -3 3250.40 1078.21   8
   6   0  -3 4960.32 999.704  58
   6   0  -2 718.247 859.601  17
   6   0  -2 326.244 355.596   8
   6   0  -1 207.935 363.544  17
   6   0  -1 860.452 560.133   8
   6   0   0 864.821 824.576  17
   6   0   0 1187.86 652.268   8
   6   0   1 725.124 547.906  17
   6   0   2 3806.50 1420.80  17
   6   0   2 3973.93 1607.31  13
   6   0   3 178.338 360.901  17
   6   0   3 615.593 653.298  13
   6   0   4 1756.62 990.152  17
   6   0   4 669.966 684.205  13
   6   0   5 259.318 405.400  17
   6   0   6 375.556 463.908  17
   6   1  -7 7.42090 104.398  20
   6   1  -6 124.344 302.694  30
   6   1  -6 398.434 201.920  58
   6   1  -6 394.448 355.865  47
   6   1  -6-198.725 311.905  20
   6   1  -5 531.666 348.959  30
   6   1  -5 75.2253 185.428   8
   6   1  -5-106.938 253.363  58
   6   1  -4 753.699 590.101  20
   6   1  -4 708.260 420.604  30
   6   1  -4 165.576 263.016   8
   6   1  -4 458.522 329.586  58
   6   1  -3 4932.65 1077.46  30
   6   1  -3 2558.13 1003.92   8
   6   1  -3 2750.93 735.335  58
   6   1  -2 8941.31 2216.92  17
   6   1  -2 8591.16 1833.55   8
   6   1  -1 1895.22 991.032  17
   6   1  -1 2480.32 988.226   8
   6   1   0 522.166 545.332  17
   6   1   0 527.435 466.330   8
   6   1   1-156.619 448.702  17
   6   1   1-404.688 421.968   8
   6   1   2 1832.18 1003.13  17
   6   1   2 1435.96 1100.42  13
   6   1   3 3433.66 1414.56  17
   6   1   3 3031.02 1359.79  13
   6   1   4-241.500 391.304  17
   6   1   5 4.99984 349.428  17
   6   1   6 786.787 639.645  17
   6   2  -7 301.730 217.347  47
   6   2  -7 574.104 330.131  46
   6   2  -7 85.5471 191.955  20
   6   2  -6 496.425 283.564  30
   6   2  -6 1079.11 405.493  58
   6   2  -6 582.796 343.823  47
   6   2  -6 41.5581 305.874  20
   6   2  -5 1967.51 894.637  20
   6   2  -5 2321.33 634.452  42
   6   2  -5 2949.79 748.246  30
   6   2  -5 2602.98 690.807  58
   6   2  -4 49.0189 178.906  20
   6   2  -4-133.129 117.545  42
   6   2  -4 177.140 359.264  30
   6   2  -4 186.661 293.651   8
   6   2  -4 99.3516 192.329  58
   6   2  -3 137.503 111.970  42
   6   2  -3 483.388 429.219  30
   6   2  -3 480.732 447.313   8
   6   2  -3 296.183 217.768  58
   6   2  -2 1076.94 636.986  17
   6   2  -2 900.812 610.054   8
   6   2  -1 452.885 294.822  42
   6   2  -1-605.789 557.395  17
   6   2  -1 380.254 400.599   8
   6   2   0 1211.91 741.987  17
   6   2   0 607.215 511.144   8
   6   2   1 3655.22 1386.36  17
   6   2   1 2304.67 983.510   8
   6   2   2-609.616 570.100  17
   6   2   2 606.756 619.987  13
   6   2   3 1192.64 845.339  17
   6   2   4 168.388 326.863  17
   6   2   5 326.586 420.311  17
   6   3  -8 3.38437 102.481  46
   6   3  -7-247.410 183.705  46
   6   3  -6 94.8173 129.387  30
   6   3  -6-165.059 197.998  58
   6   3  -6-280.310 300.111  20
   6   3  -5-34.3717 137.315  42
   6   3  -5-134.002 160.843  30
   6   3  -5 27.6052 155.991  58
   6   3  -5-295.779 312.566  20
   6   3  -4 387.840 371.559  20
   6   3  -4 34.7304 112.651  42
   6   3  -4 221.262 223.074  58
   6   3  -3 4158.17 803.085  42
   6   3  -3 3822.42 871.407  30
   6   3  -3 4663.53 967.240  58
   6   3  -2 139.826 218.658  42
   6   3  -1 452.651 296.363  42
   6   3  -1 1332.34 828.727  17
   6   3  -1 433.228 270.956  63
   6   3   0 494.390 382.152  42
   6   3   0 148.100 291.282  17
   6   3   0-658.860 328.819  63
   6   3   1 3224.31 1210.61  17
   6   3   1 1715.69 579.169  63
   6   3   2-175.551 358.711  17
   6   3   2 127.253 131.593  63
   6   3   3 1237.55 763.827  17
   6   3   3 411.230 298.035  63
   6   3   4-46.1220 200.919  17
   6   3   4-215.145 269.881  63
   6   3   5 131.461 82.2414  63
   6   3   6-26.0191 178.777  63
   6   3   7 195.280 147.835  63
   6   4  -7 338.990 225.595  46
   6   4  -6 285.092 163.505  58
   6   4  -5 207.595 161.980  42
   6   4  -5 323.983 179.482  30
   6   4  -5 404.027 168.636  58
   6   4  -4 151.531 185.386  42
   6   4  -4 20.4186 81.4740  30
   6   4  -4 163.124 89.9848  58
   6   4  -3 758.287 332.607  42
   6   4  -3 893.701 402.549  30
   6   4  -3 1332.55 472.702  58
   6   4  -2-90.7188 144.955  42
   6   4  -2 387.891 276.858  30
   6   4  -1 153.107 272.087  63
   6   4   0 428.199 311.923  42
   6   4   0 19.2408 128.030  63
   6   4   1 387.539 294.193  42
   6   4   1 482.661 302.780  63
   6   4   2 457.890 415.744  17
   6   4   2-34.2646 122.517  63
   6   4   3 578.642 330.962  63
   6   4   4 49.7535 111.166  63
   6   4   4-133.341 113.746  45
   6   4   5 369.597 213.354  63
   6   4   5 46.6218 115.726  45
   6   4   6 19.1321 74.8440  63
   6   4   6 174.774 100.121  45
   6   5  -7 32.5306 108.726  46
   6   5  -6 249.344 154.802  46
   6   5  -5 113.295 150.175  58
   6   5  -4 162.296 128.774  42
   6   5  -4 290.975 165.152  58
   6   5  -3 85.0807 63.9572  42
   6   5  -3 257.810 183.707  58
   6   5  -2-76.4641 191.577  42
   6   5  -2 228.924 230.738  58
   6   5  -1 223.569 190.526  42
   6   5   0 290.600 193.722  30
   6   5   0-19.2792 100.952  63
   6   5   1 394.154 201.900  63
   6   5   2 281.087 223.417  42
   6   5   2 9.49943 69.1264  63
   6   5   3 147.993 189.501  42
   6   5   3-59.0665 108.243  63
   6   5   4 23.3237 155.042  42
   6   5   4-28.7264 114.223  63
   6   5   5 391.714 199.502  42
   6   5   5 245.628 169.071  63
   6   6  -5 10.9398 94.7121  46
   6   6  -3 223.603 59.7269  42
   6   6  -2 243.942 143.417  42
   6   6  -1 46.8011 124.467  42
   6   6  -1 107.523 98.5423  58
   6   6   0-21.8727 57.3266  44
   6   6   0-19.0586 100.899  42
   6   6   0-5.46216 86.5268  58
   6   6   1 264.781 154.996  44
   6   6   1-65.5116 96.3170  42
   6   6   2 333.075 170.600  42
   6   6   2 117.223 132.629  63
   6   6   3 141.605 106.843  42
   6   6   3 85.7920 97.3731  63
   7  -3  -4 12.8380 168.677  47
   7  -3  -3 45.2189 172.462  16
   7  -3  -2 423.033 442.961  16
   7  -3  -1 348.105 409.161  16
   7  -3   0-236.543 337.403  16
   7  -3   1 244.132 337.226  16
   7  -2  -5-40.5598 107.952  47
   7  -2  -5-1292.02 712.907  20
   7  -2  -4 234.972 261.433  47
   7  -2  -4 151.253 279.291  20
   7  -2  -3 626.586 514.226  20
   7  -2  -3 885.067 607.334  16
   7  -2  -2 734.837 562.915  20
   7  -2  -2 594.141 517.160  16
   7  -2  -1 305.262 393.514  16
   7  -2   0 324.433 399.303  16
   7  -2   1-219.330 329.067  16
   7  -2   2 555.920 495.911  16
   7  -1  -7 355.050 233.486  30
   7  -1  -6 339.022 269.957  47
   7  -1  -6 180.753 278.017  20
   7  -1  -5 151.826 158.934  30
   7  -1  -5 451.637 272.259  47
   7  -1  -4 810.483 598.988  20
   7  -1  -4 218.803 166.653  30
   7  -1  -3 952.728 794.350  20
   7  -1  -3 853.093 783.909  16
   7  -1  -2 1086.22 525.913  30
   7  -1  -2 884.885 608.772  16
   7  -1  -1 118.447 386.556  16
   7  -1   0 299.526 413.065  17
   7  -1   1-407.034 476.876  17
   7  -1   2 1108.40 742.199  17
   7  -1   3 336.292 422.563  17
   7   0  -7 128.982 146.042  47
   7   0  -6 58.4119 110.144  30
   7   0  -6 130.266 244.259  20
   7   0  -5 135.061 92.1592  30
   7   0  -5 293.462 259.143  47
   7   0  -5 143.667 263.235  20
   7   0  -4 592.883 513.578  20
   7   0  -4 2030.28 585.730  58
   7   0  -3 879.941 600.599  20
   7   0  -3 255.808 302.181  30
   7   0  -3 439.071 327.153  58
   7   0  -2 543.402 387.711  30
   7   0  -2-79.7558 277.660  16
   7   0  -2 10.0776 228.011  58
   7   0  -1 287.396 869.211  17
   7   0  -1 246.040 326.853  58
   7   0   0 1292.41 835.623  17
   7   0   1 1061.11 754.907  17
   7   0   2 2478.94 1189.00  17
   7   0   3 216.030 338.490  17
   7   1  -7 184.170 216.856  47
   7   1  -6 108.677 174.194  30
   7   1  -6 12.7214 110.644  20
   7   1  -5 112.016 115.454  30
   7   1  -5 283.716 201.472  58
   7   1  -5 493.236 437.858  20
   7   1  -4 33.5118 320.663  20
   7   1  -4-8.39409 147.707  58
   7   1  -3 419.918 374.753  30
   7   1  -3 93.3247 262.763  58
   7   1  -2 1171.66 513.694  30
   7   1  -2 994.571 441.089  58
   7   1  -1 79.5220 395.955  17
   7   1   0 631.472 578.725  17
   7   1   1 625.728 569.178  17
   7   1   2-347.153 437.043  17
   7   1   3-4.49719 277.245  17
   7   2  -6 224.327 155.363  30
   7   2  -5 1221.44 428.971  30
   7   2  -5 699.159 321.616  58
   7   2  -4 1133.01 691.197  20
   7   2  -4 832.921 309.355  42
   7   2  -4 2151.53 579.316  58
   7   2  -3 18.0787 90.5201  42
   7   2  -3 23.9377 170.309  30
   7   2  -3-22.6795 98.4419  58
   7   2  -2 192.681 187.849  42
   7   2  -2 638.225 388.186  30
   7   2  -2 679.718 340.248  58
   7   2  -1-116.137 144.465  42
   7   2  -1-67.4971 217.293  17
   7   2   0 905.559 657.232  17
   7   2   1 1760.76 493.369  42
   7   2   1 2246.93 1021.15  17
   7   2   2 249.983 213.542  42
   7   2   2-973.455 668.099  17
   7   3  -7-30.7878 55.5606  46
   7   3  -6 91.1817 101.872  46
   7   3  -5 50.0672 88.7371  30
   7   3  -5-102.728 190.349  58
   7   3  -5 168.420 138.328  47
   7   3  -4 916.332 321.634  42
   7   3  -4 1079.55 366.709  30
   7   3  -4 1033.06 378.003  58
   7   3  -3 104.680 79.9361  42
   7   3  -3 592.776 294.399  58
   7   3  -2 84.6287 179.662  42
   7   3  -2 586.493 338.437  30
   7   3  -2 574.564 298.922  58
   7   3  -1 7.67644 111.245  42
   7   3   1 59.6637 150.414  42
   7   3   2 795.029 374.043  42
   7   3   3 569.109 290.856  42
   7   3   4 166.855 171.207  42
   7   3   5 145.988 150.537  42
   7   4  -6 263.918 152.564  46
   7   4  -5 76.3779 114.449  30
   7   4  -5 170.690 132.474  58
   7   4  -4 89.3839 88.7015  42
   7   4  -4 116.242 130.328  30
   7   4  -4 244.116 155.000  58
   7   4  -3 50.4647 97.2072  42
   7   4  -3-54.3070 60.8890  30
   7   4  -2 532.707 264.705  42
   7   4  -2 581.465 277.838  58
   7   4  -1-208.475 169.362  42
   7   4  -1 276.224 181.906  30
   7   4  -1 47.8699 144.272  58
   7   4   0 18.0410 75.6236  42
   7   4   0 150.209 214.770  30
   7   4   3 391.910 214.237  42
   7   4   3 62.9810 142.204  63
   7   4   4 99.0747 138.813  42
   7   5  -5 217.810 154.697  46
   7   5  -4 139.138 88.3081  58
   7   5  -3 0.54784 80.6243  42
   7   5  -3 124.656 100.684  58
   7   5  -2 56.4106 87.5819  42
   7   5  -2-17.5031 55.7165  58
   7   5  -1 126.551 108.480  42
   7   5  -1 159.768 133.903  58
   7   5   0 75.6579 104.998  42
   7   5   0 34.7621 108.454  58
   7   5   1 104.884 87.7471  42
   7   5   1 146.239 126.020  58
   7   5   2-2.68487 59.2712  42
   8  -2  -4 155.658 201.173  47
   8  -2  -2 197.456 156.886  47
   8  -2  -1 566.342 248.889  47
   8  -1  -5-170.310 130.541  47
   8  -1  -4 258.519 134.507  30
   8  -1  -3-269.112 169.947  30
   8  -1  -3 97.0375 206.994  47
   8  -1  -2-154.361 79.2960  30
   8  -1   0 226.427 189.976  30
   8  -1   1 687.524 287.576  30
   8   0  -6 35.0352 93.4743  47
   8   0  -5 199.034 168.589  30
   8   0  -4-138.516 90.3085  30
   8   0  -4 260.330 216.570  47
   8   0  -3 387.596 224.568  30
   8   0  -1 738.759 342.626  30
   8   0   0 1101.72 383.368  30
   8   1  -6-80.8817 106.079  47
   8   1  -5 95.0742 114.570  30
   8   1  -4 3.70783 80.3066  30
   8   1  -4 13.5291 86.7367  47
   8   1  -3-1.03235 117.393  30
   8   1  -3-140.117 157.593  58
   8   1  -2 246.226 216.851  58
   8   1  -1 841.027 382.984  30
   8   1  -1 603.671 298.282  58
   8   1   0 434.448 300.445  30
   8   1   0 188.157 119.267  58
   8   1   1 48.3779 121.672  58
   8   2  -5 73.9930 65.5073  30
   8   2  -4 170.144 102.093  30
   8   2  -4 220.857 150.034  58
   8   2  -4 344.058 206.096  47
   8   2  -3 80.1330 115.386  30
   8   2  -3 14.5834 119.900  58
   8   2  -2-177.279 133.845  58
   8   2  -1 528.780 307.623  30
   8   2  -1 220.109 136.716  58
   8   2   0 491.080 261.047  30
   8   2   0 85.7804 168.652  58
   8   2   1 21.8259 148.577  58
   8   2   2-57.2021 99.9079  58
   8   2   3 133.692 97.6863  58
   8   3  -4 109.865 102.205  30
   8   3  -4 26.2012 41.1532  58
   8   3  -3-43.2961 62.9437  30
   8   3  -3-18.2238 131.843  58
   8   3  -2 262.568 116.302  42
   8   3  -2 386.484 169.164  58
   8   3  -1 60.7135 37.5547  42
   8   3  -1-60.2111 74.9990  58
   8   3   0 74.3815 81.7689  42
   8   3   0 56.9449 54.5101  30
   8   3   0 256.466 163.890  58
   8   3   1 95.4327 71.5949  42
   8   3   1 297.241 157.866  30
   8   3   1 170.143 136.536  58
   0   0   0    0.00    0.00   0

TITL exp_6043 in P1
REM P1 (#1 in standard setting)
CELL 1.54184   7.312377   8.067391  11.184371  90.4285  96.8489  93.5396
ZERR    2.00   0.001220   0.001389   0.001718   0.0132   0.0135   0.0140
LATT -1
SFAC C N O S Br
UNIT 24.00 2.00 4.00 4.00 2.00
TREF
HKLF 4
END
;
_shelx_hkl_checksum              98544
_olex2_submission_special_instructions 'No special instructions were received'
_oxdiff_exptl_absorpt_empirical_details
;
Empirical correction (ABSPACK) includes:
- Absorption correction using spherical harmonics
- Frame scaling
- Detector area scaling
- B-factor correction
;
_oxdiff_exptl_absorpt_empirical_full_max 2.213
_oxdiff_exptl_absorpt_empirical_full_min 0.459
loop_
_space_group_symop_operation_xyz
'x, y, z'
'-x, -y, -z'
loop_
_atom_site_label
_atom_site_type_symbol
_atom_site_fract_x
_atom_site_fract_y
_atom_site_fract_z
_atom_site_U_iso_or_equiv
_atom_site_adp_type
_atom_site_occupancy
_atom_site_site_symmetry_order
_atom_site_calc_flag
_atom_site_refinement_flags_posn
_atom_site_refinement_flags_adp
_atom_site_refinement_flags_occupancy
_atom_site_disorder_assembly
_atom_site_disorder_group
Br1 Br 0.9039(2) 0.2343(2) 0.56833(13) 0.1279(10) Uani 1 1 d . . . . .
S1 S 0.1280(5) 0.1500(5) 0.2327(4) 0.1330(16) Uani 1 1 d . . . . .
S2 S 0.1909(5) 0.1675(4) 0.0598(3) 0.1135(13) Uani 1 1 d . . . . .
C1 C 0.6759(18) 0.2052(17) 0.4710(11) 0.103(3) Uani 1 1 d . . . . .
C6 C 0.526(2) 0.2839(19) 0.4983(13) 0.118(4) Uani 1 1 d . . . . .
H6 H 0.536652 0.349650 0.567676 0.141 Uiso 1 1 calc R U . . .
C3 C 0.493(2) 0.0869(17) 0.2967(12) 0.108(4) Uani 1 1 d . . . . .
H3 H 0.481638 0.019283 0.228190 0.130 Uiso 1 1 calc R U . . .
O2 O 0.2928(18) 0.3895(19) -0.2758(9) 0.180(5) Uani 1 1 d . . . . .
C9 C 0.2941(16) 0.6134(17) -0.0969(12) 0.100(3) Uani 1 1 d . . . . .
H9 H 0.317873 0.651583 -0.172141 0.119 Uiso 1 1 calc R U . . .
C2 C 0.6598(19) 0.1018(16) 0.3701(11) 0.102(3) Uani 1 1 d . . . . .
H2 H 0.759135 0.043546 0.352148 0.122 Uiso 1 1 calc R U . . .
C5 C 0.363(2) 0.2690(19) 0.4273(14) 0.118(4) Uani 1 1 d . . . . .
H5 H 0.263257 0.324514 0.447739 0.141 Uiso 1 1 calc R U . . .
C4 C 0.3450(19) 0.1697(17) 0.3230(13) 0.107(3) Uani 1 1 d . . . . .
N1 N 0.2695(16) 0.3329(18) -0.1803(11) 0.118(3) Uani 1 1 d . . . . .
C7 C 0.2277(14) 0.3846(14) 0.0355(10) 0.085(3) Uani 1 1 d . . . . .
O1 O 0.2499(17) 0.1853(16) -0.1614(10) 0.149(4) Uani 1 1 d . . . . .
C12 C 0.2225(15) 0.5026(15) 0.1255(10) 0.090(3) Uani 1 1 d . . . . .
H12 H 0.200123 0.468879 0.202033 0.108 Uiso 1 1 calc R U . . .
C10 C 0.2876(16) 0.7228(15) -0.0054(12) 0.100(3) Uani 1 1 d . . . . .
H10 H 0.309007 0.835976 -0.017414 0.120 Uiso 1 1 calc R U . . .
C8 C 0.2650(14) 0.4424(15) -0.0785(10) 0.087(3) Uani 1 1 d . . . . .
C11 C 0.2502(17) 0.6683(15) 0.1030(11) 0.099(3) Uani 1 1 d . . . . .
H11 H 0.242824 0.745216 0.164312 0.119 Uiso 1 1 calc R U . . .
loop_
_atom_site_aniso_label
_atom_site_aniso_U_11
_atom_site_aniso_U_22
_atom_site_aniso_U_33
_atom_site_aniso_U_23
_atom_site_aniso_U_13
_atom_site_aniso_U_12
Br1 0.1199(15) 0.1580(17) 0.1025(12) 0.0134(9) 0.0038(8) 0.0001(10)
S1 0.087(2) 0.149(3) 0.159(3) 0.064(3) 0.005(2) -0.010(2)
S2 0.103(3) 0.091(2) 0.140(3) 0.0122(18) -0.0105(19) -0.0014(17)
C1 0.096(8) 0.117(9) 0.097(7) 0.025(6) 0.011(6) 0.002(6)
C6 0.105(8) 0.138(11) 0.115(9) 0.010(7) 0.035(6) 0.001(7)
C3 0.114(8) 0.109(10) 0.103(8) 0.011(6) 0.013(6) 0.009(7)
O2 0.202(12) 0.245(13) 0.094(6) -0.021(7) 0.028(7) 0.007(10)
C9 0.082(8) 0.112(7) 0.106(8) 0.027(5) 0.008(6) 0.026(6)
C2 0.108(8) 0.104(9) 0.096(7) 0.025(5) 0.013(6) 0.013(6)
C5 0.098(8) 0.126(11) 0.137(10) 0.024(7) 0.040(7) 0.021(7)
C4 0.096(8) 0.099(9) 0.127(9) 0.030(6) 0.021(7) -0.002(6)
N1 0.092(7) 0.155(8) 0.102(6) -0.027(6) -0.005(6) 0.008(7)
C7 0.062(6) 0.095(7) 0.097(6) 0.001(4) 0.004(5) 0.006(5)
O1 0.161(10) 0.139(8) 0.140(8) -0.048(6) -0.001(7) 0.005(8)
C12 0.087(8) 0.098(6) 0.084(6) 0.008(5) 0.002(5) 0.015(6)
C10 0.089(8) 0.080(7) 0.128(8) 0.022(5) -0.001(7) 0.014(6)
C8 0.064(6) 0.105(6) 0.088(5) -0.007(5) -0.003(5) 0.010(5)
C11 0.099(9) 0.088(6) 0.110(7) -0.002(6) 0.009(6) 0.019(6)
loop_
_atom_type_symbol
_atom_type_description
_atom_type_scat_dispersion_real
_atom_type_scat_dispersion_imag
_atom_type_scat_source
C C 0.0181 0.0091 'International Tables Vol C Tables 4.2.6.8 and 6.1.1.4'
H H 0.0000 0.0000 'International Tables Vol C Tables 4.2.6.8 and 6.1.1.4'
Br Br -0.6763 1.2805 'International Tables Vol C Tables 4.2.6.8 and 6.1.1.4'
N N 0.0311 0.0180 'International Tables Vol C Tables 4.2.6.8 and 6.1.1.4'
O O 0.0492 0.0322 'International Tables Vol C Tables 4.2.6.8 and 6.1.1.4'
S S 0.3331 0.5567 'International Tables Vol C Tables 4.2.6.8 and 6.1.1.4'
loop_
_exptl_crystal_face_index_h
_exptl_crystal_face_index_k
_exptl_crystal_face_index_l
_exptl_crystal_face_perp_dist
2 4 -3 0.0415
4 -1 4 0.0228
-1 -4 4 0.0293
-4 1 -4 0.0053
-4 4 1 0.0286
0 -2 -7 0.0098
3 -4 -3 0.0143
0 1 7 0.0155
loop_
_geom_angle_atom_site_label_1
_geom_angle_atom_site_label_2
_geom_angle_atom_site_label_3
_geom_angle
_geom_angle_site_symmetry_1
_geom_angle_site_symmetry_3
_geom_angle_publ_flag
C4 S1 S2 104.5(4) . . ?
C7 S2 S1 105.0(4) . . ?
C6 C1 Br1 121.0(12) . . ?
C6 C1 C2 119.5(13) . . ?
C2 C1 Br1 119.5(11) . . ?
C1 C6 H6 119.1 . . ?
C5 C6 C1 121.8(15) . . ?
C5 C6 H6 119.1 . . ?
C2 C3 H3 119.4 . . ?
C4 C3 H3 119.4 . . ?
C4 C3 C2 121.3(13) . . ?
C10 C9 H9 119.9 . . ?
C10 C9 C8 120.1(11) . . ?
C8 C9 H9 119.9 . . ?
C1 C2 H2 120.6 . . ?
C3 C2 C1 118.8(14) . . ?
C3 C2 H2 120.6 . . ?
C6 C5 H5 120.1 . . ?
C6 C5 C4 119.7(14) . . ?
C4 C5 H5 120.1 . . ?
C3 C4 S1 122.5(12) . . ?
C3 C4 C5 118.8(14) . . ?
C5 C4 S1 118.7(11) . . ?
O2 N1 O1 124.0(15) . . ?
O2 N1 C8 119.7(15) . . ?
O1 N1 C8 116.2(13) . . ?
C12 C7 S2 122.5(8) . . ?
C12 C7 C8 117.3(11) . . ?
C8 C7 S2 120.2(9) . . ?
C7 C12 H12 119.6 . . ?
C11 C12 C7 120.7(11) . . ?
C11 C12 H12 119.6 . . ?
C9 C10 H10 119.9 . . ?
C11 C10 C9 120.1(12) . . ?
C11 C10 H10 119.9 . . ?
C9 C8 N1 117.3(11) . . ?
C9 C8 C7 119.9(11) . . ?
C7 C8 N1 122.7(12) . . ?
C12 C11 H11 119.1 . . ?
C10 C11 C12 121.8(12) . . ?
C10 C11 H11 119.1 . . ?
loop_
_geom_bond_atom_site_label_1
_geom_bond_atom_site_label_2
_geom_bond_distance
_geom_bond_site_symmetry_2
_geom_bond_publ_flag
Br1 C1 1.880(13) . ?
S1 S2 2.044(5) . ?
S1 C4 1.774(14) . ?
S2 C7 1.783(12) . ?
C1 C6 1.363(19) . ?
C1 C2 1.388(17) . ?
C6 H6 0.9300 . ?
C6 C5 1.349(19) . ?
C3 H3 0.9300 . ?
C3 C2 1.384(17) . ?
C3 C4 1.366(19) . ?
O2 N1 1.191(15) . ?
C9 H9 0.9300 . ?
C9 C10 1.355(16) . ?
C9 C8 1.403(16) . ?
C2 H2 0.9300 . ?
C5 H5 0.9300 . ?
C5 C4 1.400(18) . ?
N1 O1 1.214(16) . ?
N1 C8 1.440(15) . ?
C7 C12 1.386(14) . ?
C7 C8 1.413(15) . ?
C12 H12 0.9300 . ?
C12 C11 1.369(15) . ?
C10 H10 0.9300 . ?
C10 C11 1.345(16) . ?
C11 H11 0.9300 . ?
loop_
_geom_torsion_atom_site_label_1
_geom_torsion_atom_site_label_2
_geom_torsion_atom_site_label_3
_geom_torsion_atom_site_label_4
_geom_torsion
_geom_torsion_site_symmetry_1
_geom_torsion_site_symmetry_2
_geom_torsion_site_symmetry_3
_geom_torsion_site_symmetry_4
_geom_torsion_publ_flag
Br1 C1 C6 C5 177.7(10) . . . . ?
Br1 C1 C2 C3 -177.4(8) . . . . ?
S1 S2 C7 C12 3.7(10) . . . . ?
S1 S2 C7 C8 -176.7(8) . . . . ?
S2 S1 C4 C3 -45.0(11) . . . . ?
S2 S1 C4 C5 137.4(9) . . . . ?
S2 C7 C12 C11 -179.5(9) . . . . ?
S2 C7 C8 C9 -179.9(9) . . . . ?
S2 C7 C8 N1 2.0(15) . . . . ?
C1 C6 C5 C4 0(2) . . . . ?
C6 C1 C2 C3 2.7(18) . . . . ?
C6 C5 C4 S1 179.1(10) . . . . ?
C6 C5 C4 C3 1.4(18) . . . . ?
O2 N1 C8 C9 -1.8(17) . . . . ?
O2 N1 C8 C7 176.3(12) . . . . ?
C9 C10 C11 C12 1.7(18) . . . . ?
C2 C1 C6 C5 -2.4(19) . . . . ?
C2 C3 C4 S1 -178.6(9) . . . . ?
C2 C3 C4 C5 -1.0(18) . . . . ?
C4 C3 C2 C1 -1.0(18) . . . . ?
C7 C12 C11 C10 -1.7(18) . . . . ?
O1 N1 C8 C9 177.7(13) . . . . ?
O1 N1 C8 C7 -4.2(17) . . . . ?
C12 C7 C8 C9 -0.4(15) . . . . ?
C12 C7 C8 N1 -178.4(10) . . . . ?
C10 C9 C8 N1 178.6(10) . . . . ?
C10 C9 C8 C7 0.4(17) . . . . ?
C8 C9 C10 C11 -1.1(18) . . . . ?
C8 C7 C12 C11 0.9(15) . . . . ?
loop_
_exptl_oxdiff_crystal_face_indexfrac_h
_exptl_oxdiff_crystal_face_indexfrac_k
_exptl_oxdiff_crystal_face_indexfrac_l
_exptl_oxdiff_crystal_face_x
_exptl_oxdiff_crystal_face_y
_exptl_oxdiff_crystal_face_z
2.1336 4.1387 -3.0374 0.2276 0.9453 0.2337
3.6827 -0.7193 3.8388 0.0651 0.2779 -0.9584
-1.0006 -4.2336 4.0725 -0.2023 -0.8381 -0.5067
-3.7268 0.6218 -3.7623 -0.0703 -0.2995 0.9515
-3.6694 3.5558 0.9474 0.7369 -0.1760 0.6527
0.4671 -1.6916 -6.8483 -0.8380 0.2022 0.5069
3.2006 -3.5422 -3.2197 -0.9075 0.2175 -0.3594
0.1618 1.1353 6.9744 0.7436 -0.1797 -0.6440
