#------------------------------------------------------------------------------
#$Date: 2020-10-04 05:41:27 +0300 (Sun, 04 Oct 2020) $
#$Revision: 256982 $
#$URL: file:///home/coder/svn-repositories/cod/cif/4/51/80/4518043.cif $
#------------------------------------------------------------------------------
#
# This file is available in the Crystallography Open Database (COD),
# http://www.crystallography.net/
#
# All data on this site have been placed in the public domain by the
# contributors.
#
data_4518043
loop_
_publ_author_name
'Gao, Lili'
'Li, Xiaotong'
'Liu, Yan'
'Fang, Junjie'
'Huang, Sheng'
'Spanopoulos, Ioannis'
'Li, Xiaolei'
'Wang, Yao'
'Chen, Lin'
'Yang, Guanjun'
'Kanatzidis, Mercouri G.'
_publ_section_title
;
 Incorporated Guanidinium Expands the
 CH<sub>3</sub>NH<sub>3</sub>PbI<sub>3</sub> Lattice and Enhances
 Photovoltaic Performance.
;
_journal_issue                   39
_journal_name_full               'ACS applied materials &amp; interfaces'
_journal_page_first              43885
_journal_page_last               43891
_journal_paper_doi               10.1021/acsami.0c14925
_journal_volume                  12
_journal_year                    2020
_chemical_formula_sum            'C H6 I3 N Pb'
_chemical_formula_weight         620
_space_group_IT_number           108
_space_group_name_Hall           'I 4 -2c'
_space_group_name_H-M_alt        'I 4 c m'
_symmetry_cell_setting           tetragonal
_symmetry_Int_Tables_number      108
_symmetry_space_group_name_Hall  'I 4 -2c'
_symmetry_space_group_name_H-M   'I 4 c m'
_cell_angle_alpha                90
_cell_angle_beta                 90
_cell_angle_gamma                90
_cell_formula_units_Z            4
_cell_length_a                   8.8934(13)
_cell_length_b                   8.8934(13)
_cell_length_c                   12.671(3)
_cell_measurement_temperature    293
_cell_volume                     1002.2(3)
_diffrn_ambient_temperature      293
_diffrn_measured_fraction_theta_full 0.99
_diffrn_measured_fraction_theta_max 0.99
_diffrn_measurement_device       'four-circle diffractometer'
_diffrn_measurement_device_type  'IPDS Stoe'
_diffrn_measurement_method       '??integration method??'
_diffrn_radiation_monochromator  graphite
_diffrn_radiation_probe          x-ray
_diffrn_radiation_source         'X-ray tube'
_diffrn_radiation_type           'Mo K\a'
_diffrn_radiation_wavelength     0.71073
_diffrn_reflns_av_R_equivalents  0.1032
_diffrn_reflns_av_unetI/netI     0.0189
_diffrn_reflns_limit_h_max       12
_diffrn_reflns_limit_h_min       -11
_diffrn_reflns_limit_k_max       12
_diffrn_reflns_limit_k_min       -12
_diffrn_reflns_limit_l_max       17
_diffrn_reflns_limit_l_min       -17
_diffrn_reflns_number            4801
_diffrn_reflns_theta_full        29.21
_diffrn_reflns_theta_max         29.21
_diffrn_reflns_theta_min         3.22
_exptl_absorpt_coefficient_mu    25.993
_exptl_crystal_density_diffrn    4.109
_exptl_crystal_F_000             1040
_refine_diff_density_max         1.88
_refine_diff_density_min         -6.29
_refine_ls_abs_structure_details
'  545 of Friedel pairs used in the refinement'
_refine_ls_abs_structure_Flack   0.38(5)
_refine_ls_extinction_method     none
_refine_ls_goodness_of_fit_gt    7.01
_refine_ls_goodness_of_fit_ref   6.66
_refine_ls_hydrogen_treatment    constr
_refine_ls_number_constraints    26
_refine_ls_number_parameters     19
_refine_ls_number_reflns         1875
_refine_ls_number_restraints     1
_refine_ls_R_factor_all          0.0989
_refine_ls_R_factor_gt           0.0904
_refine_ls_shift/su_max          0.0108
_refine_ls_shift/su_mean         0.0023
_refine_ls_structure_factor_coef F
_refine_ls_weighting_details     w=1/(\s^2^(F)+0.0001F^2^)
_refine_ls_weighting_scheme      sigma
_refine_ls_wR_factor_gt          0.1076
_refine_ls_wR_factor_ref         0.1084
_reflns_number_gt                1668
_reflns_number_total             1875
_reflns_threshold_expression     I>2\s(I)
_cod_data_source_file            am0c14925_si_003.cif
_cod_data_source_block           I
_cod_depositor_comments
;
The following automatic conversions were performed:

data item '_diffrn_radiation_probe' value 'X-ray' was changed to
'x-ray' in accordance with the
/home/data/users/saulius/crontab/automatic-downloads/rss-feeds/ACS/lib/dictionaries/cif_core.dic
dictionary named 'cif_core.dic' version 2.4.2 last updated on
2011-04-26.

Automatic conversion script
Id: cif_fix_values 7556 2019-12-06 15:28:31Z antanas 

 Adding full bibliography for 4518042--4518043.cif.
;
_cod_original_sg_symbol_Hall     'I 4;-2c'
_cod_original_formula_sum        'C1 H6 I3 N1 Pb1'
_cod_database_code               4518043
loop_
_space_group_symop_id
_space_group_symop_operation_xyz
1 x,y,z
2 -x,-y,z
3 -y,x,z
4 y,-x,z
5 x,-y,z+1/2
6 -x,y,z+1/2
7 -y,-x,z+1/2
8 y,x,z+1/2
9 x+1/2,y+1/2,z+1/2
10 -x+1/2,-y+1/2,z+1/2
11 -y+1/2,x+1/2,z+1/2
12 y+1/2,-x+1/2,z+1/2
13 x+1/2,-y+1/2,z
14 -x+1/2,y+1/2,z
15 -y+1/2,-x+1/2,z
16 y+1/2,x+1/2,z
loop_
_atom_site_label
_atom_site_type_symbol
_atom_site_fract_x
_atom_site_fract_y
_atom_site_fract_z
_atom_site_adp_type
_atom_site_U_iso_or_equiv
_atom_site_site_symmetry_multiplicity
_atom_site_occupancy
_atom_site_calc_flag
_atom_site_refinement_flags
_atom_site_disorder_assembly
_atom_site_disorder_group
Pb1 Pb 0 0 0.4472(2) Uani 0.0170(3) 4 1 d . . .
I1 I 0 0 0.1950(7) Uani 0.0649(11) 4 1 d . . .
I2 I -0.2867(3) 0.2133(3) 0.4583(6) Uani 0.0601(9) 8 1 d . . .
C1 C 0.5 0 0.807(8) Uiso 0.15(3) 4 1 d . . .
N1 N 0.5 0 0.689(8) Uiso 0.15(3) 4 1 d . . .
H1c1 H 0.403825 0.033285 0.832598 Uiso 0.1766 16 0.25 d . . .
H2c1 H 0.519262 -0.099932 0.832598 Uiso 0.1766 16 0.25 d . . .
H3c1 H 0.576913 0.066647 0.832598 Uiso 0.1766 16 0.25 d . . .
H1n1 H 0.475093 0.088804 0.666077 Uiso 0.1766 16 0.25 d . . .
H2n1 H 0.58936 -0.022832 0.666077 Uiso 0.1766 16 0.25 d . . .
H3n1 H 0.435547 -0.065972 0.666077 Uiso 0.1766 16 0.25 d . . .
loop_
_atom_site_aniso_label
_atom_site_aniso_type_symbol
_atom_site_aniso_U_11
_atom_site_aniso_U_22
_atom_site_aniso_U_33
_atom_site_aniso_U_12
_atom_site_aniso_U_13
_atom_site_aniso_U_23
Pb1 Pb 0.0159(5) 0.0159(5) 0.0192(8) 0 0 0
I1 I 0.0899(19) 0.0899(19) 0.0149(18) 0 0 0
I2 I 0.0493(9) 0.0493(9) 0.082(2) 0.0393(11) 0.009(2) 0.009(2)
loop_
_atom_type_symbol
_atom_type_scat_dispersion_real
_atom_type_scat_dispersion_imag
_atom_type_scat_source
C 0.0033 0.0016 'International Tables Vol C tables 4.2.6.8 and 6.1.1.1'
H 0.0000 0.0000 'International Tables Vol C tables 4.2.6.8 and 6.1.1.1'
I -0.4742 1.8119 'International Tables Vol C tables 4.2.6.8 and 6.1.1.1'
N 0.0061 0.0033 'International Tables Vol C tables 4.2.6.8 and 6.1.1.1'
Pb -3.3944 10.1111 'International Tables Vol C tables 4.2.6.8 and 6.1.1.1'
loop_
_diffrn_standard_refln_index_h
_diffrn_standard_refln_index_k
_diffrn_standard_refln_index_l
? ? ?
loop_
_exptl_crystal_face_index_h
_exptl_crystal_face_index_k
_exptl_crystal_face_index_l
_exptl_crystal_face_perp_dist
? ? ? ?
loop_
_geom_angle_atom_site_label_1
_geom_angle_atom_site_label_2
_geom_angle_atom_site_label_3
_geom_angle_site_symmetry_1
_geom_angle_site_symmetry_2
_geom_angle_site_symmetry_3
_geom_angle
_geom_angle_publ_flag
I1 Pb1 I1 . . 5_555 180.0(5) ?
I1 Pb1 I2 . . . 92.52(15) ?
I1 Pb1 I2 . . 2_555 92.52(15) ?
I1 Pb1 I2 . . 3_555 92.52(15) ?
I1 Pb1 I2 . . 4_555 92.52(15) ?
I1 Pb1 I2 5_555 . . 87.48(15) ?
I1 Pb1 I2 5_555 . 2_555 87.48(15) ?
I1 Pb1 I2 5_555 . 3_555 87.48(15) ?
I1 Pb1 I2 5_555 . 4_555 87.48(15) ?
I2 Pb1 I2 . . 2_555 175.0(2) ?
I2 Pb1 I2 . . 3_555 89.89(6) ?
I2 Pb1 I2 . . 4_555 89.89(6) ?
I2 Pb1 I2 2_555 . 3_555 89.89(6) ?
I2 Pb1 I2 2_555 . 4_555 89.89(6) ?
I2 Pb1 I2 3_555 . 4_555 175.0(2) ?
Pb1 I1 Pb1 . . 5_554 180.0(5) ?
Pb1 I2 Pb1 . . 13_455 162.55(12) ?
N1 C1 H1c1 . . . 109.47 ?
N1 C1 H1c1 . . 2_655 109.47 ?
N1 C1 H1c1 . . 15_555 109.47 ?
N1 C1 H1c1 . . 16_545 109.47 ?
N1 C1 H2c1 . . . 109.47 ?
N1 C1 H2c1 . . 2_655 109.47 ?
N1 C1 H2c1 . . 15_555 109.47 ?
N1 C1 H2c1 . . 16_545 109.47 ?
N1 C1 H3c1 . . . 109.47 ?
N1 C1 H3c1 . . 2_655 109.47 ?
N1 C1 H3c1 . . 15_555 109.47 ?
N1 C1 H3c1 . . 16_545 109.47 ?
H1c1 C1 H1c1 . . 2_655 141.06 ?
H1c1 C1 H1c1 . . 15_555 48.66 ?
H1c1 C1 H1c1 . . 16_545 116 ?
H1c1 C1 H2c1 . . . 109.47 ?
H1c1 C1 H2c1 . . 2_655 56.25 ?
H1c1 C1 H2c1 . . 15_555 140.24 ?
H1c1 C1 H2c1 . . 16_545 7.71 ?
H1c1 C1 H3c1 . . . 109.47 ?
H1c1 C1 H3c1 . . 2_655 56.25 ?
H1c1 C1 H3c1 . . 15_555 63.8 ?
H1c1 C1 H3c1 . . 16_545 102.67 ?
H1c1 C1 H1c1 2_655 . 15_555 116 ?
H1c1 C1 H1c1 2_655 . 16_545 48.66 ?
H1c1 C1 H2c1 2_655 . . 56.25 ?
H1c1 C1 H2c1 2_655 . 2_655 109.47 ?
H1c1 C1 H2c1 2_655 . 15_555 7.71 ?
H1c1 C1 H2c1 2_655 . 16_545 140.24 ?
H1c1 C1 H3c1 2_655 . . 56.25 ?
H1c1 C1 H3c1 2_655 . 2_655 109.47 ?
H1c1 C1 H3c1 2_655 . 15_555 102.67 ?
H1c1 C1 H3c1 2_655 . 16_545 63.8 ?
H1c1 C1 H1c1 15_555 . 16_545 141.06 ?
H1c1 C1 H2c1 15_555 . . 140.24 ?
H1c1 C1 H2c1 15_555 . 2_655 7.71 ?
H1c1 C1 H2c1 15_555 . 15_555 109.47 ?
H1c1 C1 H2c1 15_555 . 16_545 56.25 ?
H1c1 C1 H3c1 15_555 . . 63.8 ?
H1c1 C1 H3c1 15_555 . 2_655 102.67 ?
H1c1 C1 H3c1 15_555 . 15_555 109.47 ?
H1c1 C1 H3c1 15_555 . 16_545 56.25 ?
H1c1 C1 H2c1 16_545 . . 7.71 ?
H1c1 C1 H2c1 16_545 . 2_655 140.24 ?
H1c1 C1 H2c1 16_545 . 15_555 56.25 ?
H1c1 C1 H2c1 16_545 . 16_545 109.47 ?
H1c1 C1 H3c1 16_545 . . 102.67 ?
H1c1 C1 H3c1 16_545 . 2_655 63.8 ?
H1c1 C1 H3c1 16_545 . 15_555 56.25 ?
H1c1 C1 H3c1 16_545 . 16_545 109.47 ?
H2c1 C1 H2c1 . . 2_655 141.06 ?
H2c1 C1 H2c1 . . 15_555 63.8 ?
H2c1 C1 H2c1 . . 16_545 102.67 ?
H2c1 C1 H3c1 . . . 109.47 ?
H2c1 C1 H3c1 . . 2_655 56.25 ?
H2c1 C1 H3c1 . . 15_555 48.66 ?
H2c1 C1 H3c1 . . 16_545 116 ?
H2c1 C1 H2c1 2_655 . 15_555 102.67 ?
H2c1 C1 H2c1 2_655 . 16_545 63.8 ?
H2c1 C1 H3c1 2_655 . . 56.25 ?
H2c1 C1 H3c1 2_655 . 2_655 109.47 ?
H2c1 C1 H3c1 2_655 . 15_555 116 ?
H2c1 C1 H3c1 2_655 . 16_545 48.66 ?
H2c1 C1 H2c1 15_555 . 16_545 141.06 ?
H2c1 C1 H3c1 15_555 . . 48.66 ?
H2c1 C1 H3c1 15_555 . 2_655 116 ?
H2c1 C1 H3c1 15_555 . 15_555 109.47 ?
H2c1 C1 H3c1 15_555 . 16_545 56.25 ?
H2c1 C1 H3c1 16_545 . . 116 ?
H2c1 C1 H3c1 16_545 . 2_655 48.66 ?
H2c1 C1 H3c1 16_545 . 15_555 56.25 ?
H2c1 C1 H3c1 16_545 . 16_545 109.47 ?
H3c1 C1 H3c1 . . 2_655 141.06 ?
H3c1 C1 H3c1 . . 15_555 140.24 ?
H3c1 C1 H3c1 . . 16_545 7.71 ?
H3c1 C1 H3c1 2_655 . 15_555 7.71 ?
H3c1 C1 H3c1 2_655 . 16_545 140.24 ?
H3c1 C1 H3c1 15_555 . 16_545 141.06 ?
C1 N1 H1n1 . . . 109.47 ?
C1 N1 H1n1 . . 2_655 109.47 ?
C1 N1 H1n1 . . 15_555 109.47 ?
C1 N1 H1n1 . . 16_545 109.47 ?
C1 N1 H2n1 . . . 109.47 ?
C1 N1 H2n1 . . 2_655 109.47 ?
C1 N1 H2n1 . . 15_555 109.47 ?
C1 N1 H2n1 . . 16_545 109.47 ?
C1 N1 H3n1 . . . 109.47 ?
C1 N1 H3n1 . . 2_655 109.47 ?
C1 N1 H3n1 . . 15_555 109.47 ?
C1 N1 H3n1 . . 16_545 109.47 ?
H1n1 N1 H1n1 . . 2_655 141.05 ?
H1n1 N1 H1n1 . . 15_555 55.02 ?
H1n1 N1 H1n1 . . 16_545 110.55 ?
H1n1 N1 H2n1 . . . 109.47 ?
H1n1 N1 H2n1 . . 2_655 56.25 ?
H1n1 N1 H2n1 . . 15_555 141.03 ?
H1n1 N1 H2n1 . . 16_545 1.26 ?
H1n1 N1 H3n1 . . . 109.47 ?
H1n1 N1 H3n1 . . 2_655 56.25 ?
H1n1 N1 H3n1 . . 15_555 57.48 ?
H1n1 N1 H3n1 . . 16_545 108.38 ?
H1n1 N1 H1n1 2_655 . 15_555 110.55 ?
H1n1 N1 H1n1 2_655 . 16_545 55.02 ?
H1n1 N1 H2n1 2_655 . . 56.25 ?
H1n1 N1 H2n1 2_655 . 2_655 109.47 ?
H1n1 N1 H2n1 2_655 . 15_555 1.26 ?
H1n1 N1 H2n1 2_655 . 16_545 141.03 ?
H1n1 N1 H3n1 2_655 . . 56.25 ?
H1n1 N1 H3n1 2_655 . 2_655 109.47 ?
H1n1 N1 H3n1 2_655 . 15_555 108.38 ?
H1n1 N1 H3n1 2_655 . 16_545 57.48 ?
H1n1 N1 H1n1 15_555 . 16_545 141.05 ?
H1n1 N1 H2n1 15_555 . . 141.03 ?
H1n1 N1 H2n1 15_555 . 2_655 1.26 ?
H1n1 N1 H2n1 15_555 . 15_555 109.47 ?
H1n1 N1 H2n1 15_555 . 16_545 56.25 ?
H1n1 N1 H3n1 15_555 . . 57.48 ?
H1n1 N1 H3n1 15_555 . 2_655 108.38 ?
H1n1 N1 H3n1 15_555 . 15_555 109.47 ?
H1n1 N1 H3n1 15_555 . 16_545 56.25 ?
H1n1 N1 H2n1 16_545 . . 1.26 ?
H1n1 N1 H2n1 16_545 . 2_655 141.03 ?
H1n1 N1 H2n1 16_545 . 15_555 56.25 ?
H1n1 N1 H2n1 16_545 . 16_545 109.47 ?
H1n1 N1 H3n1 16_545 . . 108.38 ?
H1n1 N1 H3n1 16_545 . 2_655 57.48 ?
H1n1 N1 H3n1 16_545 . 15_555 56.25 ?
H1n1 N1 H3n1 16_545 . 16_545 109.47 ?
H2n1 N1 H2n1 . . 2_655 141.05 ?
H2n1 N1 H2n1 . . 15_555 57.48 ?
H2n1 N1 H2n1 . . 16_545 108.38 ?
H2n1 N1 H3n1 . . . 109.47 ?
H2n1 N1 H3n1 . . 2_655 56.25 ?
H2n1 N1 H3n1 . . 15_555 55.02 ?
H2n1 N1 H3n1 . . 16_545 110.55 ?
H2n1 N1 H2n1 2_655 . 15_555 108.38 ?
H2n1 N1 H2n1 2_655 . 16_545 57.48 ?
H2n1 N1 H3n1 2_655 . . 56.25 ?
H2n1 N1 H3n1 2_655 . 2_655 109.47 ?
H2n1 N1 H3n1 2_655 . 15_555 110.55 ?
H2n1 N1 H3n1 2_655 . 16_545 55.02 ?
H2n1 N1 H2n1 15_555 . 16_545 141.05 ?
H2n1 N1 H3n1 15_555 . . 55.02 ?
H2n1 N1 H3n1 15_555 . 2_655 110.55 ?
H2n1 N1 H3n1 15_555 . 15_555 109.47 ?
H2n1 N1 H3n1 15_555 . 16_545 56.25 ?
H2n1 N1 H3n1 16_545 . . 110.55 ?
H2n1 N1 H3n1 16_545 . 2_655 55.02 ?
H2n1 N1 H3n1 16_545 . 15_555 56.25 ?
H2n1 N1 H3n1 16_545 . 16_545 109.47 ?
H3n1 N1 H3n1 . . 2_655 141.05 ?
H3n1 N1 H3n1 . . 15_555 141.03 ?
H3n1 N1 H3n1 . . 16_545 1.26 ?
H3n1 N1 H3n1 2_655 . 15_555 1.26 ?
H3n1 N1 H3n1 2_655 . 16_545 141.03 ?
H3n1 N1 H3n1 15_555 . 16_545 141.05 ?
C1 H1c1 H1c1 . . 15_555 65.67 ?
C1 H1c1 H2c1 . . 2_655 61.87 ?
C1 H1c1 H2c1 . . 16_545 86.14 ?
C1 H1c1 H3c1 . . 2_655 61.87 ?
H1c1 H1c1 H2c1 15_555 . 2_655 4.09 ?
H1c1 H1c1 H2c1 15_555 . 16_545 150 ?
H1c1 H1c1 H3c1 15_555 . 2_655 124.09 ?
H2c1 H1c1 H2c1 2_655 . 16_545 145.91 ?
H2c1 H1c1 H3c1 2_655 . 2_655 120 ?
H2c1 H1c1 H3c1 16_545 . 2_655 25.91 ?
C1 H2c1 H1c1 . . 2_655 61.87 ?
C1 H2c1 H1c1 . . 16_545 86.15 ?
C1 H2c1 H3c1 . . 2_655 61.87 ?
C1 H2c1 H3c1 . . 15_555 65.67 ?
H1c1 H2c1 H1c1 2_655 . 16_545 25.91 ?
H1c1 H2c1 H3c1 2_655 . 2_655 120 ?
H1c1 H2c1 H3c1 2_655 . 15_555 124.09 ?
H1c1 H2c1 H3c1 16_545 . 2_655 145.91 ?
H1c1 H2c1 H3c1 16_545 . 15_555 150 ?
H3c1 H2c1 H3c1 2_655 . 15_555 4.09 ?
C1 H3c1 H1c1 . . 2_655 61.87 ?
C1 H3c1 H2c1 . . 2_655 61.87 ?
C1 H3c1 H2c1 . . 15_555 65.67 ?
C1 H3c1 H3c1 . . 16_545 86.14 ?
H1c1 H3c1 H2c1 2_655 . 2_655 120 ?
H1c1 H3c1 H2c1 2_655 . 15_555 4.09 ?
H1c1 H3c1 H3c1 2_655 . 16_545 145.91 ?
H2c1 H3c1 H2c1 2_655 . 15_555 124.09 ?
H2c1 H3c1 H3c1 2_655 . 16_545 25.91 ?
H2c1 H3c1 H3c1 15_555 . 16_545 150 ?
N1 H1n1 H1n1 . . 15_555 62.49 ?
N1 H1n1 H2n1 . . 2_655 61.88 ?
N1 H1n1 H2n1 . . 16_545 89.39 ?
N1 H1n1 H3n1 . . 2_655 61.87 ?
N1 H1n1 H3n1 . . 15_555 61.26 ?
H1n1 H1n1 H2n1 15_555 . 2_655 0.67 ?
H1n1 H1n1 H2n1 15_555 . 16_545 150.01 ?
H1n1 H1n1 H3n1 15_555 . 2_655 120.67 ?
H1n1 H1n1 H3n1 15_555 . 15_555 120 ?
H2n1 H1n1 H2n1 2_655 . 16_545 149.35 ?
H2n1 H1n1 H3n1 2_655 . 2_655 120 ?
H2n1 H1n1 H3n1 2_655 . 15_555 119.33 ?
H2n1 H1n1 H3n1 16_545 . 2_655 29.35 ?
H2n1 H1n1 H3n1 16_545 . 15_555 30.01 ?
H3n1 H1n1 H3n1 2_655 . 15_555 0.67 ?
N1 H2n1 H1n1 . . 2_655 61.87 ?
N1 H2n1 H1n1 . . 16_545 89.36 ?
N1 H2n1 H2n1 . . 15_555 61.26 ?
N1 H2n1 H3n1 . . 2_655 61.87 ?
N1 H2n1 H3n1 . . 15_555 62.49 ?
H1n1 H2n1 H1n1 2_655 . 16_545 29.32 ?
H1n1 H2n1 H2n1 2_655 . 15_555 0.67 ?
H1n1 H2n1 H3n1 2_655 . 2_655 120 ?
H1n1 H2n1 H3n1 2_655 . 15_555 120.67 ?
H1n1 H2n1 H2n1 16_545 . 15_555 29.99 ?
H1n1 H2n1 H3n1 16_545 . 2_655 149.32 ?
H1n1 H2n1 H3n1 16_545 . 15_555 149.99 ?
H2n1 H2n1 H3n1 15_555 . 2_655 119.33 ?
H2n1 H2n1 H3n1 15_555 . 15_555 120 ?
H3n1 H2n1 H3n1 2_655 . 15_555 0.67 ?
N1 H3n1 H1n1 . . 2_655 61.87 ?
N1 H3n1 H1n1 . . 15_555 61.26 ?
N1 H3n1 H2n1 . . 2_655 61.88 ?
N1 H3n1 H2n1 . . 15_555 62.49 ?
N1 H3n1 H3n1 . . 16_545 89.37 ?
H1n1 H3n1 H1n1 2_655 . 15_555 119.33 ?
H1n1 H3n1 H2n1 2_655 . 2_655 120 ?
H1n1 H3n1 H2n1 2_655 . 15_555 0.67 ?
H1n1 H3n1 H3n1 2_655 . 16_545 149.33 ?
H1n1 H3n1 H2n1 15_555 . 2_655 0.67 ?
H1n1 H3n1 H2n1 15_555 . 15_555 120 ?
H1n1 H3n1 H3n1 15_555 . 16_545 30 ?
H2n1 H3n1 H2n1 2_655 . 15_555 120.67 ?
H2n1 H3n1 H3n1 2_655 . 16_545 29.33 ?
H2n1 H3n1 H3n1 15_555 . 16_545 150 ?
loop_
_geom_bond_atom_site_label_1
_geom_bond_atom_site_label_2
_geom_bond_site_symmetry_1
_geom_bond_site_symmetry_2
_geom_bond_distance
_geom_bond_publ_flag
Pb1 I1 . . 3.196(10) ?
Pb1 I1 . 5_555 3.139(10) ?
Pb1 I2 . . 3.181(3) ?
Pb1 I2 . 2_555 3.181(3) ?
Pb1 I2 . 3_555 3.181(3) ?
Pb1 I2 . 4_555 3.181(3) ?
C1 N1 . . 1.50(12) ?
C1 H1c1 . . 0.96 ?
C1 H1c1 . 2_655 0.96 ?
C1 H1c1 . 15_555 0.96 ?
C1 H1c1 . 16_545 0.96 ?
C1 H2c1 . . 0.96 ?
C1 H2c1 . 2_655 0.96 ?
C1 H2c1 . 15_555 0.96 ?
C1 H2c1 . 16_545 0.96 ?
C1 H3c1 . . 0.96 ?
C1 H3c1 . 2_655 0.96 ?
C1 H3c1 . 15_555 0.96 ?
C1 H3c1 . 16_545 0.96 ?
N1 H1n1 . . 0.87 ?
N1 H1n1 . 2_655 0.87 ?
N1 H1n1 . 15_555 0.87 ?
N1 H1n1 . 16_545 0.87 ?
N1 H2n1 . . 0.87 ?
N1 H2n1 . 2_655 0.87 ?
N1 H2n1 . 15_555 0.87 ?
N1 H2n1 . 16_545 0.87 ?
N1 H3n1 . . 0.87 ?
N1 H3n1 . 2_655 0.87 ?
N1 H3n1 . 15_555 0.87 ?
N1 H3n1 . 16_545 0.87 ?
H1c1 H1c1 . 15_555 0.791 ?
H1c1 H2c1 . 2_655 0.9051 ?
H1c1 H2c1 . 16_545 0.1291 ?
H1c1 H3c1 . 2_655 0.9051 ?
H2c1 H3c1 . 2_655 0.9051 ?
H2c1 H3c1 . 15_555 0.791 ?
H3c1 H3c1 . 16_545 0.1291 ?
H1n1 H1n1 . 15_555 0.8037 ?
H1n1 H2n1 . 2_655 0.8202 ?
H1n1 H2n1 . 16_545 0.0191 ?
H1n1 H3n1 . 2_655 0.8202 ?
H1n1 H3n1 . 15_555 0.8367 ?
H2n1 H2n1 . 15_555 0.8367 ?
H2n1 H3n1 . 2_655 0.8202 ?
H2n1 H3n1 . 15_555 0.8037 ?
H3n1 H3n1 . 16_545 0.0191 ?
loop_
_geom_hbond_atom_site_label_D
_geom_hbond_atom_site_label_H
_geom_hbond_atom_site_label_A
_geom_hbond_site_symmetry_D
_geom_hbond_site_symmetry_H
_geom_hbond_site_symmetry_A
_geom_hbond_distance_DH
_geom_hbond_distance_HA
_geom_hbond_distance_DA
_geom_hbond_angle_DHA
_geom_hbond_publ_flag
C1 H1c1 I2 . . 11_555 0.96 2.49 3.29(5) 141.73 ?
loop_
_geom_torsion_atom_site_label_1
_geom_torsion_atom_site_label_2
_geom_torsion_atom_site_label_3
_geom_torsion_atom_site_label_4
_geom_torsion_site_symmetry_1
_geom_torsion_site_symmetry_2
_geom_torsion_site_symmetry_3
_geom_torsion_site_symmetry_4
_geom_torsion
_geom_torsion_publ_flag
? ? ? ? ? ? ? ? ? ?
loop_
_refln_index_h
_refln_index_k
_refln_index_l
_refln_F_squared_calc
_refln_F_squared_meas
_refln_F_squared_sigma
_refln_observed_status
? ? ? ? ? ? ?
loop_
_restr_angle_atom_site_label_1
_restr_angle_site_symmetry_1
_restr_angle_atom_site_label_2
_restr_angle_site_symmetry_2
_restr_angle_atom_site_label_3
_restr_angle_site_symmetry_3
_restr_angle_target
_restr_angle_target_weight_param
? ? ? ? ? ? ? ?
loop_
_restr_distance_atom_site_label_1
_restr_distance_site_symmetry_1
_restr_distance_atom_site_label_2
_restr_distance_site_symmetry_2
_restr_distance_target
_restr_distance_target_weight_param
C1 . N1 . 1.5 0.001
loop_
_restr_equal_angle_atom_site_label_1
_restr_equal_angle_site_symmetry_1
_restr_equal_angle_atom_site_label_2
_restr_equal_angle_site_symmetry_2
_restr_equal_angle_atom_site_label_3
_restr_equal_angle_site_symmetry_3
_restr_equal_angle_class_class_id
_restr_equal_angle_class_target_weight_param
? ? ? ? ? ? ? ?
loop_
_restr_equal_distance_atom_site_label_1
_restr_equal_distance_site_symmetry_1
_restr_equal_distance_atom_site_label_2
_restr_equal_distance_site_symmetry_2
_restr_equal_distance_class_class_id
_restr_equal_distance_class_target_weight_param
? ? ? ? ? ?
loop_
_restr_equal_torsion_atom_site_label_1
_restr_equal_torsion_site_symmetry_1
_restr_equal_torsion_atom_site_label_2
_restr_equal_torsion_site_symmetry_2
_restr_equal_torsion_atom_site_label_3
_restr_equal_torsion_site_symmetry_3
_restr_equal_torsion_atom_site_label_4
_restr_equal_torsion_site_symmetry_4
_restr_equal_torsion_class_class_id
_restr_equal_torsion_class_target_weight_param
? ? ? ? ? ? ? ? ? ?
loop_
_restr_torsion_atom_site_label_1
_restr_torsion_site_symmetry_1
_restr_torsion_atom_site_label_2
_restr_torsion_site_symmetry_2
_restr_torsion_atom_site_label_3
_restr_torsion_site_symmetry_3
_restr_torsion_atom_site_label_4
_restr_torsion_site_symmetry_4
_restr_torsion_angle_target
_restr_torsion_weight_param
? ? ? ? ? ? ? ? ? ?
loop_
_twin_individual_id
_twin_individual_mass_fraction_refined
_twin_individual_twin_matrix_11
_twin_individual_twin_matrix_12
_twin_individual_twin_matrix_13
_twin_individual_twin_matrix_21
_twin_individual_twin_matrix_22
_twin_individual_twin_matrix_23
_twin_individual_twin_matrix_31
_twin_individual_twin_matrix_32
_twin_individual_twin_matrix_33
1 0.37(5) 1 0 0 0 1 0 0 0 1
2 0.222(7) -0.5 -0.5 1 -0.5 -0.5 -1 0.5 -0.5 0
3 0.033(18) 0.5 0.5 1 0.5 -0.8 0.3333 0.5 0.2 -0.6667
4 0.38(5) -1 0 0 0 -1 0 0 0 -1
loop_
_twin_refln_datum_id
_twin_refln_individual_id
_twin_refln_index_h
_twin_refln_index_k
_twin_refln_index_l
_twin_refln_F_squared_calc
_twin_refln_F_squared_meas
_twin_refln_F_squared_sigma
_twin_refln_include_status
1 4 1 -1 0 167257.00 96484.10 1088.55 o
1 2 0 0 -2 167257.00 96484.10 1088.55 o
1 1 -1 1 0 167257.00 96484.10 1088.55 o
2 4 -1 1 0 167881.00 89184.60 1043.19 o
2 2 0 0 2 167881.00 89184.60 1043.19 o
2 1 1 -1 0 167881.00 89184.60 1043.19 o
3 4 -1 -1 0 159175.00 99837.60 649.16 o
3 2 -1 -1 0 159175.00 99837.60 649.16 o
3 1 1 1 0 159175.00 99837.60 649.16 o
4 4 2 -2 0 505188.00 260436.00 1301.16 o
4 2 0 0 -4 505188.00 260436.00 1301.16 o
4 1 -2 2 0 505188.00 260436.00 1301.16 o
5 4 -2 2 0 506790.00 240847.00 1216.11 o
5 2 0 0 4 506790.00 240847.00 1216.11 o
5 1 2 -2 0 506790.00 240847.00 1216.11 o
6 4 0 -2 0 29321.40 30261.10 388.36 o
6 2 -1 -1 -2 29321.40 30261.10 388.36 o
6 1 0 2 0 29321.40 30261.10 388.36 o
7 4 0 2 0 29908.80 19866.00 538.61 o
7 2 1 1 2 29908.80 19866.00 538.61 o
7 1 0 -2 0 29908.80 19866.00 538.61 o
8 4 -2 0 0 30406.50 34090.90 450.73 o
8 3 1 1 2 30406.50 34090.90 450.73 o
8 2 -1 -1 2 30406.50 34090.90 450.73 o
8 1 2 0 0 30406.50 34090.90 450.73 o
9 4 -2 -2 0 498697.00 266539.00 759.72 o
9 2 -2 -2 0 498697.00 266539.00 759.72 o
9 1 2 2 0 498697.00 266539.00 759.72 o
10 4 3 -3 0 48351.30 64816.90 544.28 o
10 2 0 0 -6 48351.30 64816.90 544.28 o
10 1 -3 3 0 48351.30 64816.90 544.28 o
11 4 -3 3 0 51209.60 57905.80 515.93 o
11 2 0 0 6 51209.60 57905.80 515.93 o
11 1 3 -3 0 51209.60 57905.80 515.93 o
12 4 1 -3 0 175732.00 125535.00 941.14 o
12 2 -1 -1 -4 175732.00 125535.00 941.14 o
12 1 -1 3 0 175732.00 125535.00 941.14 o
13 4 -3 1 0 175515.00 136758.00 484.74 o
13 2 -1 -1 4 175515.00 136758.00 484.74 o
13 1 3 -1 0 175515.00 136758.00 484.74 o
14 4 -1 -3 0 166671.00 77820.00 371.36 o
14 2 -2 -2 -2 166671.00 77820.00 371.36 o
14 1 1 3 0 166671.00 77820.00 371.36 o
15 4 -3 -1 0 167332.00 144579.00 552.78 o
15 2 -2 -2 2 167332.00 144579.00 552.78 o
15 1 3 1 0 167332.00 144579.00 552.78 o
16 4 -3 -3 0 37934.40 53911.60 300.48 o
16 2 -3 -3 0 37934.40 53911.60 300.48 o
16 1 3 3 0 37934.40 53911.60 300.48 o
17 4 4 -4 0 159486.00 135825.00 731.37 o
17 2 0 0 -8 159486.00 135825.00 731.37 o
17 1 -4 4 0 159486.00 135825.00 731.37 o
18 4 -4 4 0 160706.00 128109.00 714.36 o
18 2 0 0 8 160706.00 128109.00 714.36 o
18 1 4 -4 0 160706.00 128109.00 714.36 o
19 4 2 -4 0 30639.00 26805.60 388.36 o
19 2 -1 -1 -6 30639.00 26805.60 388.36 o
19 1 -2 4 0 30639.00 26805.60 388.36 o
20 4 -4 2 0 30538.60 29952.10 218.28 o
20 2 -1 -1 6 30538.60 29952.10 218.28 o
20 1 4 -2 0 30538.60 29952.10 218.28 o
21 4 0 -4 0 282846.00 208180.00 691.68 o
21 2 -2 -2 -4 282846.00 208180.00 691.68 o
21 1 0 4 0 282846.00 208180.00 691.68 o
22 4 0 4 0 284084.00 205090.00 1114.06 o
22 2 2 2 4 284084.00 205090.00 1114.06 o
22 1 0 -4 0 284084.00 205090.00 1114.06 o
23 4 -4 0 0 295046.00 247461.00 830.59 o
23 3 2 2 4 295046.00 247461.00 830.59 o
23 2 -2 -2 4 295046.00 247461.00 830.59 o
23 1 4 0 0 295046.00 247461.00 830.59 o
24 4 -2 -4 0 29280.90 32602.60 266.47 o
24 2 -3 -3 -2 29280.90 32602.60 266.47 o
24 1 2 4 0 29280.90 32602.60 266.47 o
25 4 -4 -2 0 29141.00 33019.40 243.79 o
25 2 -3 -3 2 29141.00 33019.40 243.79 o
25 1 4 2 0 29141.00 33019.40 243.79 o
26 4 -4 -4 0 146855.00 141940.00 425.21 o
26 2 -4 -4 0 146855.00 141940.00 425.21 o
26 1 4 4 0 146855.00 141940.00 425.21 o
27 4 5 -5 0 8294.87 8303.03 257.96 o
27 2 0 0 -10 8294.87 8303.03 257.96 o
27 1 -5 5 0 8294.87 8303.03 257.96 o
28 4 -5 5 0 9798.11 11169.00 286.31 o
28 2 0 0 10 9798.11 11169.00 286.31 o
28 1 5 -5 0 9798.11 11169.00 286.31 o
29 4 3 -5 0 131778.00 107035.00 688.85 o
29 2 -1 -1 -8 131778.00 107035.00 688.85 o
29 1 -3 5 0 131778.00 107035.00 688.85 o
30 4 -5 3 0 131518.00 125195.00 394.03 o
30 2 -1 -1 8 131518.00 125195.00 394.03 o
30 1 5 -3 0 131518.00 125195.00 394.03 o
31 4 1 -5 0 54702.10 67056.40 572.62 o
31 2 -2 -2 -6 54702.10 67056.40 572.62 o
31 1 -1 5 0 54702.10 67056.40 572.62 o
32 4 -5 1 0 56640.50 69511.30 291.98 o
32 2 -2 -2 6 56640.50 69511.30 291.98 o
32 1 5 -1 0 56640.50 69511.30 291.98 o
33 4 -1 -5 0 52132.40 64754.60 377.02 o
33 2 -3 -3 -4 52132.40 64754.60 377.02 o
33 1 1 5 0 52132.40 64754.60 377.02 o
34 4 -5 -1 0 51472.00 62396.00 311.82 o
34 2 -3 -3 4 51472.00 62396.00 311.82 o
34 1 5 1 0 51472.00 62396.00 311.82 o
35 4 -3 -5 0 123841.00 125268.00 433.72 o
35 2 -4 -4 -2 123841.00 125268.00 433.72 o
35 1 3 5 0 123841.00 125268.00 433.72 o
36 4 -5 -3 0 124213.00 130280.00 408.21 o
36 2 -4 -4 2 124213.00 130280.00 408.21 o
36 1 5 3 0 124213.00 130280.00 408.21 o
37 4 -5 -5 0 5166.60 7004.71 167.25 o
37 2 -5 -5 0 5166.60 7004.71 167.25 o
37 1 5 5 0 5166.60 7004.71 167.25 o
38 4 -6 6 0 58397.70 57786.70 360.02 o
38 2 0 0 12 58397.70 57786.70 360.02 o
38 1 6 -6 0 58397.70 57786.70 360.02 o
39 4 4 -6 0 16243.10 14397.80 300.48 o
39 2 -1 -1 -10 16243.10 14397.80 300.48 o
39 1 -4 6 0 16243.10 14397.80 300.48 o
40 4 -6 4 0 16461.40 15336.10 175.76 o
40 2 -1 -1 10 16461.40 15336.10 175.76 o
40 1 6 -4 0 16461.40 15336.10 175.76 o
41 4 2 -6 0 94475.40 95061.10 657.67 o
41 2 -2 -2 -8 94475.40 95061.10 657.67 o
41 1 -2 6 0 94475.40 95061.10 657.67 o
42 4 -6 2 0 95388.90 114040.00 371.36 o
42 2 -2 -2 8 95388.90 114040.00 371.36 o
42 1 6 -2 0 95388.90 114040.00 371.36 o
43 4 0 -6 0 39855.90 41251.50 481.91 o
43 2 -3 -3 -6 39855.90 41251.50 481.91 o
43 1 0 6 0 39855.90 41251.50 481.91 o
44 4 0 6 0 39390.40 32503.40 405.37 o
44 2 3 3 6 39390.40 32503.40 405.37 o
44 1 0 -6 0 39390.40 32503.40 405.37 o
45 4 -6 0 0 39424.00 39964.50 326.00 o
45 3 3 3 6 39424.00 39964.50 326.00 o
45 2 -3 -3 6 39424.00 39964.50 326.00 o
45 1 6 0 0 39424.00 39964.50 326.00 o
46 4 -2 -6 0 88491.10 49770.00 263.63 o
46 2 -4 -4 -4 88491.10 49770.00 263.63 o
46 1 2 6 0 88491.10 49770.00 263.63 o
47 4 -6 -2 0 89070.00 99049.60 357.18 o
47 2 -4 -4 4 89070.00 99049.60 357.18 o
47 1 6 2 0 89070.00 99049.60 357.18 o
48 4 -4 -6 0 15762.90 17459.30 212.61 o
48 2 -5 -5 -2 15762.90 17459.30 212.61 o
48 1 4 6 0 15762.90 17459.30 212.61 o
49 4 -6 -4 0 15464.60 17303.40 184.26 o
49 2 -5 -5 2 15464.60 17303.40 184.26 o
49 1 6 4 0 15464.60 17303.40 184.26 o
50 4 -6 -6 0 56056.90 56054.70 291.98 o
50 2 -6 -6 0 56056.90 56054.70 291.98 o
50 1 6 6 0 56056.90 56054.70 291.98 o
51 4 -7 7 0 2601.90 1332.34 189.93 o
51 2 0 0 14 2601.90 1332.34 189.93 o
51 1 7 -7 0 2601.90 1332.34 189.93 o
52 4 5 -7 0 62116.00 37336.70 450.73 o
52 2 -1 -1 -12 62116.00 37336.70 450.73 o
52 1 -5 7 0 62116.00 37336.70 450.73 o
53 4 -7 5 0 61824.70 49075.50 314.66 o
53 2 -1 -1 12 61824.70 49075.50 314.66 o
53 1 7 -5 0 61824.70 49075.50 314.66 o
54 4 3 -7 0 12672.80 13536.00 314.66 o
54 2 -2 -2 -10 12672.80 13536.00 314.66 o
54 1 -3 7 0 12672.80 13536.00 314.66 o
55 4 -7 3 0 13791.80 15565.70 181.43 o
55 2 -2 -2 10 13791.80 15565.70 181.43 o
55 1 7 -3 0 13791.80 15565.70 181.43 o
56 4 1 -7 0 51984.40 57117.70 541.44 o
56 2 -3 -3 -8 51984.40 57117.70 541.44 o
56 1 -1 7 0 51984.40 57117.70 541.44 o
57 4 -7 1 0 51370.50 58070.20 260.80 o
57 2 -3 -3 8 51370.50 58070.20 260.80 o
57 1 7 -1 0 51370.50 58070.20 260.80 o
58 4 -1 -7 0 50013.80 56315.50 357.18 o
58 2 -4 -4 -6 50013.80 56315.50 357.18 o
58 1 1 7 0 50013.80 56315.50 357.18 o
59 4 -7 -1 0 50851.50 55195.70 291.98 o
59 2 -4 -4 6 50851.50 55195.70 291.98 o
59 1 7 1 0 50851.50 55195.70 291.98 o
60 4 -3 -7 0 11606.70 13918.70 215.44 o
60 2 -5 -5 -4 11606.70 13918.70 215.44 o
60 1 3 7 0 11606.70 13918.70 215.44 o
61 4 -7 -3 0 10990.50 13779.80 175.76 o
61 2 -5 -5 4 10990.50 13779.80 175.76 o
61 1 7 3 0 10990.50 13779.80 175.76 o
62 4 -5 -7 0 59634.20 59643.50 320.33 o
62 2 -6 -6 -2 59634.20 59643.50 320.33 o
62 1 5 7 0 59634.20 59643.50 320.33 o
63 4 -7 -5 0 59828.40 59051.00 283.48 o
63 2 -6 -6 2 59828.40 59051.00 283.48 o
63 1 7 5 0 59828.40 59051.00 283.48 o
64 4 -7 -7 0 1603.83 1496.76 184.26 o
64 2 -7 -7 0 1603.83 1496.76 184.26 o
64 1 7 7 0 1603.83 1496.76 184.26 o
65 4 -8 6 0 4436.04 3075.72 158.75 o
65 2 -1 -1 14 4436.04 3075.72 158.75 o
65 1 8 -6 0 4436.04 3075.72 158.75 o
66 4 4 -8 0 35050.10 23287.60 453.56 o
66 2 -2 -2 -12 35050.10 23287.60 453.56 o
66 1 -4 8 0 35050.10 23287.60 453.56 o
67 4 -8 4 0 35372.70 33178.10 280.64 o
67 2 -2 -2 12 35372.70 33178.10 280.64 o
67 1 8 -4 0 35372.70 33178.10 280.64 o
68 4 2 -8 0 26660.70 20313.90 391.20 o
68 2 -3 -3 -10 26660.70 20313.90 391.20 o
68 1 -2 8 0 26660.70 20313.90 391.20 o
69 4 -8 2 0 26486.20 24549.10 204.10 o
69 2 -3 -3 10 26486.20 24549.10 204.10 o
69 1 8 -2 0 26486.20 24549.10 204.10 o
70 4 0 -8 0 30260.00 38595.30 476.24 o
70 2 -4 -4 -8 30260.00 38595.30 476.24 o
70 1 0 8 0 30260.00 38595.30 476.24 o
71 4 0 8 0 30712.20 26578.80 368.52 o
71 2 4 4 8 30712.20 26578.80 368.52 o
71 1 0 -8 0 30712.20 26578.80 368.52 o
72 4 -8 0 0 32676.70 31301.50 209.77 o
72 3 4 4 8 32676.70 31301.50 209.77 o
72 2 -4 -4 8 32676.70 31301.50 209.77 o
72 1 8 0 0 32676.70 31301.50 209.77 o
73 4 -2 -8 0 26698.60 27871.40 297.65 o
73 2 -5 -5 -6 26698.60 27871.40 297.65 o
73 1 2 8 0 26698.60 27871.40 297.65 o
74 4 -8 -2 0 26116.70 24274.10 215.44 o
74 2 -5 -5 6 26116.70 24274.10 215.44 o
74 1 8 2 0 26116.70 24274.10 215.44 o
75 4 -4 -8 0 34208.50 35077.40 272.14 o
75 2 -6 -6 -4 34208.50 35077.40 272.14 o
75 1 4 8 0 34208.50 35077.40 272.14 o
76 4 -8 -4 0 34508.40 36154.60 238.12 o
76 2 -6 -6 4 34508.40 36154.60 238.12 o
76 1 8 4 0 34508.40 36154.60 238.12 o
77 4 -6 -8 0 4178.23 3591.65 184.26 o
77 2 -7 -7 -2 4178.23 3591.65 184.26 o
77 1 6 8 0 4178.23 3591.65 184.26 o
78 4 -8 -6 0 3979.38 3305.34 158.75 o
78 2 -7 -7 2 3979.38 3305.34 158.75 o
78 1 8 6 0 3979.38 3305.34 158.75 o
79 4 5 -9 0 4544.25 1879.45 317.49 o
79 2 -2 -2 -14 4544.25 1879.45 317.49 o
79 1 -5 9 0 4544.25 1879.45 317.49 o
80 4 -9 5 0 5003.43 3163.60 192.76 o
80 2 -2 -2 14 5003.43 3163.60 192.76 o
80 1 9 -5 0 5003.43 3163.60 192.76 o
81 4 3 -9 0 27022.30 15662.10 453.56 o
81 2 -3 -3 -12 27022.30 15662.10 453.56 o
81 1 -3 9 0 27022.30 15662.10 453.56 o
82 4 -9 3 0 26651.80 25444.90 235.29 o
82 2 -3 -3 12 26651.80 25444.90 235.29 o
82 1 9 -3 0 26651.80 25444.90 235.29 o
83 4 1 -9 0 17107.60 16129.80 379.86 o
83 2 -4 -4 -10 17107.60 16129.80 379.86 o
83 1 -1 9 0 17107.60 16129.80 379.86 o
84 4 -9 1 0 17636.90 17717.30 187.10 o
84 2 -4 -4 10 17636.90 17717.30 187.10 o
84 1 9 -1 0 17636.90 17717.30 187.10 o
85 4 -1 -9 0 17717.10 20248.70 467.74 o
85 2 -5 -5 -8 17717.10 20248.70 467.74 o
85 1 1 9 0 17717.10 20248.70 467.74 o
86 4 -9 -1 0 17114.00 16470.00 161.58 o
86 2 -5 -5 8 17114.00 16470.00 161.58 o
86 1 9 1 0 17114.00 16470.00 161.58 o
87 4 -3 -9 0 26057.60 28880.60 277.81 o
87 2 -6 -6 -6 26057.60 28880.60 277.81 o
87 1 3 9 0 26057.60 28880.60 277.81 o
88 4 -9 -3 0 26446.70 26592.90 215.44 o
88 2 -6 -6 6 26446.70 26592.90 215.44 o
88 1 9 3 0 26446.70 26592.90 215.44 o
89 4 -5 -9 0 4660.43 4266.32 223.95 o
89 2 -7 -7 -4 4660.43 4266.32 223.95 o
89 1 5 9 0 4660.43 4266.32 223.95 o
90 4 -9 -5 0 4303.79 3560.47 187.10 o
90 2 -7 -7 4 4303.79 3560.47 187.10 o
90 1 9 5 0 4303.79 3560.47 187.10 o
91 4 2 -10 0 12057.90 9856.48 399.70 o
91 2 -4 -4 -12 12057.90 9856.48 399.70 o
91 1 -2 10 0 12057.90 9856.48 399.70 o
92 4 -10 2 0 12211.00 12552.30 206.94 o
92 2 -4 -4 12 12211.00 12552.30 206.94 o
92 1 10 -2 0 12211.00 12552.30 206.94 o
93 4 0 -10 0 21948.70 17643.60 450.73 o
93 2 -5 -5 -10 21948.70 17643.60 450.73 o
93 1 0 10 0 21948.70 17643.60 450.73 o
94 4 0 10 0 21613.80 14117.10 334.50 o
94 2 5 5 10 21613.80 14117.10 334.50 o
94 1 0 -10 0 21613.80 14117.10 334.50 o
95 4 -10 0 0 21697.40 19616.60 218.28 o
95 3 5 5 10 21697.40 19616.60 218.28 o
95 2 -5 -5 10 21697.40 19616.60 218.28 o
95 1 10 0 0 21697.40 19616.60 218.28 o
96 4 -2 -10 0 12180.60 11548.80 459.23 o
96 2 -6 -6 -8 12180.60 11548.80 459.23 o
96 1 2 10 0 12180.60 11548.80 459.23 o
97 4 -10 -2 0 12449.00 11812.50 172.92 o
97 2 -6 -6 8 12449.00 11812.50 172.92 o
97 1 10 2 0 12449.00 11812.50 172.92 o
98 4 -1 10 -1 1488.36 1338.01 294.82 o
98 2 5 4 11 1488.36 1338.01 294.82 o
98 1 1 -10 1 1488.36 1338.01 294.82 o
99 4 1 -10 1 1488.36 946.81 323.16 o
99 2 -5 -4 -11 1488.36 946.81 323.16 o
99 1 -1 10 -1 1488.36 946.81 323.16 o
100 4 -1 8 -1 7891.87 7614.18 328.83 o
100 2 4 3 9 7891.87 7614.18 328.83 o
100 1 1 -8 1 7891.87 7614.18 328.83 o
101 4 1 -8 1 7891.88 8515.64 340.17 o
101 2 -4 -3 -9 7891.88 8515.64 340.17 o
101 1 -1 8 -1 7891.88 8515.64 340.17 o
102 4 -8 7 -1 146.26 130.40 138.90 <
102 1 8 -7 1 146.26 130.40 138.90 <
103 4 -1 6 -1 20455.70 17550.00 337.34 o
103 2 3 2 7 20455.70 17550.00 337.34 o
103 1 1 -6 1 20455.70 17550.00 337.34 o
104 4 1 -6 1 20455.70 22040.30 340.17 o
104 2 -3 -2 -7 20455.70 22040.30 340.17 o
104 1 -1 6 -1 20455.70 22040.30 340.17 o
105 4 -7 6 -1 221.97 164.42 138.90 <
105 1 7 -6 1 221.97 164.42 138.90 <
106 4 6 -7 1 221.97 62.36 226.78 <
106 1 -6 7 -1 221.97 62.36 226.78 <
107 4 -6 5 -1 1236.16 1493.92 150.24 o
107 1 6 -5 1 1236.16 1493.92 150.24 o
108 4 5 -6 1 1236.17 1068.71 198.43 o
108 1 -5 6 -1 1236.17 1068.71 198.43 o
109 4 -8 5 -1 2036.04 1754.72 147.41 o
109 2 -1 -2 13 2036.04 1754.72 147.41 o
109 1 8 -5 1 2036.04 1754.72 147.41 o
110 4 5 -8 1 2036.04 1539.28 257.96 o
110 2 -2 -1 -13 2036.04 1539.28 257.96 o
110 1 -5 8 -1 2036.04 1539.28 257.96 o
111 4 -1 4 -1 30840.80 27715.50 411.04 o
111 2 2 1 5 30840.80 27715.50 411.04 o
111 1 1 -4 1 30840.80 27715.50 411.04 o
112 4 1 -4 1 30840.80 31902.50 408.21 o
112 2 -2 -1 -5 30840.80 31902.50 408.21 o
112 1 -1 4 -1 30840.80 31902.50 408.21 o
113 4 -5 4 -1 303.18 396.87 127.56 o
113 1 5 -4 1 303.18 396.87 127.56 o
114 4 4 -5 1 303.17 371.35 116.22 o
114 1 -4 5 -1 303.17 371.35 116.22 o
115 4 -7 4 -1 1412.24 1182.10 141.74 o
115 2 -1 -2 11 1412.24 1182.10 141.74 o
115 1 7 -4 1 1412.24 1182.10 141.74 o
116 4 4 -7 1 1412.25 1182.10 238.12 o
116 2 -2 -1 -11 1412.25 1182.10 238.12 o
116 1 -4 7 -1 1412.25 1182.10 238.12 o
117 4 -9 4 -1 2293.47 1873.78 167.25 o
117 2 -2 -3 13 2293.47 1873.78 167.25 o
117 1 9 -4 1 2293.47 1873.78 167.25 o
118 4 4 -9 1 2293.47 1550.62 306.15 o
118 2 -3 -2 -13 2293.47 1550.62 306.15 o
118 1 -4 9 -1 2293.47 1550.62 306.15 o
119 4 -4 3 -1 10101.50 9663.72 172.92 o
119 1 4 -3 1 10101.50 9663.72 172.92 o
120 4 3 -4 1 10101.50 5624.18 147.41 o
120 1 -3 4 -1 10101.50 5624.18 147.41 o
121 4 -6 3 -1 9967.16 10406.40 150.24 o
121 2 -1 -2 9 9967.16 10406.40 150.24 o
121 1 6 -3 1 9967.16 10406.40 150.24 o
122 4 3 -6 1 9967.17 9754.43 274.97 o
122 2 -2 -1 -9 9967.17 9754.43 274.97 o
122 1 -3 6 -1 9967.17 9754.43 274.97 o
123 4 -8 3 -1 5222.38 4705.71 150.24 o
123 2 -2 -3 11 5222.38 4705.71 150.24 o
123 1 8 -3 1 5222.38 4705.71 150.24 o
124 4 3 -8 1 5222.38 4583.82 252.29 o
124 2 -3 -2 -11 5222.38 4583.82 252.29 o
124 1 -3 8 -1 5222.38 4583.82 252.29 o
125 4 -10 3 -1 1780.78 1321.00 181.43 o
125 2 -3 -4 13 1780.78 1321.00 181.43 o
125 1 10 -3 1 1780.78 1321.00 181.43 o
126 4 3 -10 1 1780.78 1295.49 280.64 o
126 2 -4 -3 -13 1780.78 1295.49 280.64 o
126 1 -3 10 -1 1780.78 1295.49 280.64 o
127 4 -1 2 -1 16225.20 13210.00 328.83 o
127 1 1 -2 1 16225.20 13210.00 328.83 o
128 4 1 -2 1 16225.20 249.46 158.75 <
128 1 -1 2 -1 16225.20 249.46 158.75 <
129 4 -3 2 -1 4509.75 5479.60 138.90 o
129 1 3 -2 1 4509.75 5479.60 138.90 o
130 4 2 -3 1 4509.75 3869.46 133.23 o
130 1 -2 3 -1 4509.75 3869.46 133.23 o
131 4 -5 2 -1 1128.72 2029.69 110.56 o
131 2 -1 -2 7 1128.72 2029.69 110.56 o
131 1 5 -2 1 1128.72 2029.69 110.56 o
132 4 2 -5 1 1128.72 1607.31 192.76 o
132 2 -2 -1 -7 1128.72 1607.31 192.76 o
132 1 -2 5 -1 1128.72 1607.31 192.76 o
133 4 -7 2 -1 1050.95 1153.75 127.56 o
133 2 -2 -3 9 1050.95 1153.75 127.56 o
133 1 7 -2 1 1050.95 1153.75 127.56 o
134 4 2 -7 1 1050.95 997.84 223.95 o
134 2 -3 -2 -9 1050.95 997.84 223.95 o
134 1 -2 7 -1 1050.95 997.84 223.95 o
135 4 -9 2 -1 1251.97 1159.42 144.57 o
135 2 -3 -4 11 1251.97 1159.42 144.57 o
135 1 9 -2 1 1251.97 1159.42 144.57 o
136 4 2 -9 1 1251.97 1269.98 294.82 o
136 2 -4 -3 -11 1251.97 1269.98 294.82 o
136 1 -2 9 -1 1251.97 1269.98 294.82 o
137 4 -2 1 -1 16947.90 17518.90 360.02 o
137 3 1 2 1 16947.90 17518.90 360.02 o
137 1 2 -1 1 16947.90 17518.90 360.02 o
138 4 1 -2 1 16225.20 18777.50 351.51 o
138 1 -1 2 -1 16225.20 18777.50 351.51 o
139 4 -4 1 -1 30998.20 33645.80 249.46 o
139 3 2 3 3 30998.20 33645.80 249.46 o
139 2 -1 -2 5 30998.20 33645.80 249.46 o
139 1 4 -1 1 30998.20 33645.80 249.46 o
140 4 -6 1 -1 20693.50 23015.50 195.60 o
140 3 3 4 5 20693.50 23015.50 195.60 o
140 2 -2 -3 7 20693.50 23015.50 195.60 o
140 1 6 -1 1 20693.50 23015.50 195.60 o
141 4 -8 1 -1 7896.81 8589.34 170.09 o
141 3 4 5 7 7896.81 8589.34 170.09 o
141 2 -3 -4 9 7896.81 8589.34 170.09 o
141 1 8 -1 1 7896.81 8589.34 170.09 o
142 4 -10 1 -1 1496.83 1624.32 184.26 o
142 3 5 6 9 1496.83 1624.32 184.26 o
142 2 -4 -5 11 1496.83 1624.32 184.26 o
142 1 10 -1 1 1496.83 1624.32 184.26 o
143 4 -2 -1 -1 21052.10 19894.40 249.46 o
143 2 -1 -2 1 21052.10 19894.40 249.46 o
143 1 2 1 1 21052.10 19894.40 249.46 o
144 4 -1 -2 1 21052.10 21671.80 283.48 o
144 2 -2 -1 -1 21052.10 21671.80 283.48 o
144 1 1 2 -1 21052.10 21671.80 283.48 o
145 4 -4 -1 -1 29705.00 31190.90 260.80 o
145 2 -2 -3 3 29705.00 31190.90 260.80 o
145 1 4 1 1 29705.00 31190.90 260.80 o
146 4 -1 -4 1 29705.00 35182.30 297.65 o
146 2 -3 -2 -3 29705.00 35182.30 297.65 o
146 1 1 4 -1 29705.00 35182.30 297.65 o
147 4 -6 -1 -1 21690.80 22819.90 204.10 o
147 2 -3 -4 5 21690.80 22819.90 204.10 o
147 1 6 1 1 21690.80 22819.90 204.10 o
148 4 -1 -6 1 21690.80 12475.80 178.59 o
148 2 -4 -3 -5 21690.80 12475.80 178.59 o
148 1 1 6 -1 21690.80 12475.80 178.59 o
149 4 -8 -1 -1 7533.26 7741.75 133.23 o
149 2 -4 -5 7 7533.26 7741.75 133.23 o
149 1 8 1 1 7533.26 7741.75 133.23 o
150 4 -1 -8 1 7533.26 9765.77 385.53 o
150 2 -5 -4 -7 7533.26 9765.77 385.53 o
150 1 1 8 -1 7533.26 9765.77 385.53 o
151 4 -10 -1 -1 1537.39 1544.95 141.74 o
151 2 -5 -6 9 1537.39 1544.95 141.74 o
151 1 10 1 1 1537.39 1544.95 141.74 o
152 4 -1 -10 1 1537.39 1451.40 388.36 o
152 2 -6 -5 -9 1537.39 1451.40 388.36 o
152 1 1 10 -1 1537.39 1451.40 388.36 o
153 4 1 -2 -1 16225.20 15698.90 314.66 o
153 1 -1 2 1 16225.20 15698.90 314.66 o
154 4 -2 1 1 16225.20 17326.10 326.00 o
154 1 2 -1 -1 16225.20 17326.10 326.00 o
155 4 -1 -2 -1 21052.10 20812.90 272.14 o
155 2 -1 -2 -1 21052.10 20812.90 272.14 o
155 1 1 2 1 21052.10 20812.90 272.14 o
156 4 -2 -1 1 21052.10 24390.30 382.69 o
156 2 -2 -1 1 21052.10 24390.30 382.69 o
156 1 2 1 -1 21052.10 24390.30 382.69 o
157 4 1 2 1 21052.10 21697.30 388.36 o
157 2 1 2 1 21052.10 21697.30 388.36 o
157 1 -1 -2 -1 21052.10 21697.30 388.36 o
158 4 -3 -2 -1 5851.38 8025.22 164.42 o
158 2 -2 -3 1 5851.38 8025.22 164.42 o
158 1 3 2 1 5851.38 8025.22 164.42 o
159 4 -2 -3 1 5851.40 7874.98 167.25 o
159 2 -3 -2 -1 5851.40 7874.98 167.25 o
159 1 2 3 -1 5851.40 7874.98 167.25 o
160 4 -5 -2 -1 2434.90 2423.73 138.90 o
160 2 -3 -4 3 2434.90 2423.73 138.90 o
160 1 5 2 1 2434.90 2423.73 138.90 o
161 4 -2 -5 1 2434.87 1794.41 144.57 o
161 2 -4 -3 -3 2434.87 1794.41 144.57 o
161 1 2 5 -1 2434.87 1794.41 144.57 o
162 4 -7 -2 -1 948.27 975.16 138.90 o
162 2 -4 -5 5 948.27 975.16 138.90 o
162 1 7 2 1 948.27 975.16 138.90 o
163 4 -2 -7 1 948.26 1199.11 172.92 o
163 2 -5 -4 -5 948.26 1199.11 172.92 o
163 1 2 7 -1 948.26 1199.11 172.92 o
164 4 -9 -2 -1 1219.76 1108.39 127.56 o
164 2 -5 -6 7 1219.76 1108.39 127.56 o
164 1 9 2 1 1219.76 1108.39 127.56 o
165 4 -2 -9 1 1219.77 1502.43 314.66 o
165 2 -6 -5 -7 1219.77 1502.43 314.66 o
165 1 2 9 -1 1219.77 1502.43 314.66 o
166 4 2 -3 -1 4509.75 6066.40 252.29 o
166 1 -2 3 1 4509.75 6066.40 252.29 o
167 4 -3 2 1 4509.75 6094.75 133.23 o
167 1 3 -2 -1 4509.75 6094.75 133.23 o
168 4 -2 -3 -1 5851.40 7891.99 144.57 o
168 2 -2 -3 -1 5851.40 7891.99 144.57 o
168 1 2 3 1 5851.40 7891.99 144.57 o
169 4 -3 -2 1 5851.37 8495.79 153.08 o
169 2 -3 -2 1 5851.37 8495.79 153.08 o
169 1 3 2 -1 5851.37 8495.79 153.08 o
170 4 -4 -3 -1 13106.70 14905.20 181.43 o
170 2 -3 -4 1 13106.70 14905.20 181.43 o
170 1 4 3 1 13106.70 14905.20 181.43 o
171 4 -3 -4 1 13106.50 15568.50 192.76 o
171 2 -4 -3 -1 13106.50 15568.50 192.76 o
171 1 3 4 -1 13106.50 15568.50 192.76 o
172 4 -6 -3 -1 9560.47 11004.60 150.24 o
172 2 -4 -5 3 9560.47 11004.60 150.24 o
172 1 6 3 1 9560.47 11004.60 150.24 o
173 4 -3 -6 1 9560.48 11835.10 195.60 o
173 2 -5 -4 -3 9560.48 11835.10 195.60 o
173 1 3 6 -1 9560.48 11835.10 195.60 o
174 4 -8 -3 -1 5370.90 5108.25 150.24 o
174 2 -5 -6 5 5370.90 5108.25 150.24 o
174 1 8 3 1 5370.90 5108.25 150.24 o
175 4 -3 -8 1 5370.90 6193.96 198.43 o
175 2 -6 -5 -5 5370.90 6193.96 198.43 o
175 1 3 8 -1 5370.90 6193.96 198.43 o
176 4 -10 -3 -1 1755.56 1465.57 153.08 o
176 2 -6 -7 7 1755.56 1465.57 153.08 o
176 1 10 3 1 1755.56 1465.57 153.08 o
177 4 -3 -10 1 1755.56 1476.91 411.04 o
177 2 -7 -6 -7 1755.56 1476.91 411.04 o
177 1 3 10 -1 1755.56 1476.91 411.04 o
178 4 3 -4 -1 10101.50 12073.30 274.97 o
178 1 -3 4 1 10101.50 12073.30 274.97 o
179 4 -4 3 1 10101.50 11364.60 161.58 o
179 1 4 -3 -1 10101.50 11364.60 161.58 o
180 4 1 -4 -1 30840.80 30059.90 286.31 o
180 2 -1 -2 -5 30840.80 30059.90 286.31 o
180 1 -1 4 1 30840.80 30059.90 286.31 o
181 4 -4 1 1 30840.70 32931.50 314.66 o
181 2 -2 -1 5 30840.70 32931.50 314.66 o
181 1 4 -1 -1 30840.70 32931.50 314.66 o
182 4 -1 -4 -1 29705.00 34249.60 317.49 o
182 2 -2 -3 -3 29705.00 34249.60 317.49 o
182 1 1 4 1 29705.00 34249.60 317.49 o
183 4 -4 -1 1 30032.60 37665.50 354.35 o
183 3 2 1 5 30032.60 37665.50 354.35 o
183 2 -3 -2 3 30032.60 37665.50 354.35 o
183 1 4 1 -1 30032.60 37665.50 354.35 o
184 4 1 4 1 29705.00 36041.20 425.21 o
184 2 2 3 3 29705.00 36041.20 425.21 o
184 1 -1 -4 -1 29705.00 36041.20 425.21 o
185 4 -3 -4 -1 13106.50 14990.20 189.93 o
185 2 -3 -4 -1 13106.50 14990.20 189.93 o
185 1 3 4 1 13106.50 14990.20 189.93 o
186 4 -4 -3 1 13106.70 15982.40 172.92 o
186 2 -4 -3 1 13106.70 15982.40 172.92 o
186 1 4 3 -1 13106.70 15982.40 172.92 o
187 4 -5 -4 -1 393.35 615.14 121.89 o
187 2 -4 -5 1 393.35 615.14 121.89 o
187 1 5 4 1 393.35 615.14 121.89 o
188 4 -4 -5 1 393.39 564.12 133.23 o
188 2 -5 -4 -1 393.39 564.12 133.23 o
188 1 4 5 -1 393.39 564.12 133.23 o
189 4 -7 -4 -1 1537.68 1519.43 144.57 o
189 2 -5 -6 3 1537.68 1519.43 144.57 o
189 1 7 4 1 1537.68 1519.43 144.57 o
190 4 -4 -7 1 1537.67 1598.81 164.42 o
190 2 -6 -5 -3 1537.67 1598.81 164.42 o
190 1 4 7 -1 1537.67 1598.81 164.42 o
191 4 -9 -4 -1 2314.16 2007.01 147.41 o
191 2 -6 -7 5 2314.16 2007.01 147.41 o
191 1 9 4 1 2314.16 2007.01 147.41 o
192 4 -4 -9 1 2314.15 2619.32 198.43 o
192 2 -7 -6 -5 2314.15 2619.32 198.43 o
192 1 4 9 -1 2314.15 2619.32 198.43 o
193 4 4 -5 -1 303.18 561.28 232.45 o
193 1 -4 5 1 303.18 561.28 232.45 o
194 4 -5 4 1 303.18 484.74 121.89 o
194 1 5 -4 -1 303.18 484.74 121.89 o
195 4 2 -5 -1 1128.72 1763.22 184.26 o
195 2 -1 -2 -7 1128.72 1763.22 184.26 o
195 1 -2 5 1 1128.72 1763.22 184.26 o
196 4 -5 2 1 1128.72 1916.30 113.39 o
196 2 -2 -1 7 1128.72 1916.30 113.39 o
196 1 5 -2 -1 1128.72 1916.30 113.39 o
197 4 -2 -5 -1 2434.87 1479.75 155.91 o
197 2 -3 -4 -3 2434.87 1479.75 155.91 o
197 1 2 5 1 2434.87 1479.75 155.91 o
198 4 -5 -2 1 2434.90 2761.06 116.22 o
198 2 -4 -3 3 2434.90 2761.06 116.22 o
198 1 5 2 -1 2434.90 2761.06 116.22 o
199 4 -4 -5 -1 393.40 518.76 133.23 o
199 2 -4 -5 -1 393.40 518.76 133.23 o
199 1 4 5 1 393.40 518.76 133.23 o
200 4 -5 -4 1 393.35 589.63 119.06 o
200 2 -5 -4 1 393.35 589.63 119.06 o
200 1 5 4 -1 393.35 589.63 119.06 o
201 4 -6 -5 -1 1603.96 1834.09 138.90 o
201 2 -5 -6 1 1603.96 1834.09 138.90 o
201 1 6 5 1 1603.96 1834.09 138.90 o
202 4 -5 -6 1 1603.88 1624.32 155.91 o
202 2 -6 -5 -1 1603.88 1624.32 155.91 o
202 1 5 6 -1 1603.88 1624.32 155.91 o
203 4 -8 -5 -1 2035.52 1652.67 164.42 o
203 2 -6 -7 3 2035.52 1652.67 164.42 o
203 1 8 5 1 2035.52 1652.67 164.42 o
204 4 -5 -8 1 2035.51 1941.81 192.76 o
204 2 -7 -6 -3 2035.51 1941.81 192.76 o
204 1 5 8 -1 2035.51 1941.81 192.76 o
205 4 -6 5 1 1236.16 1244.46 133.23 o
205 1 6 -5 -1 1236.16 1244.46 133.23 o
206 4 3 -6 -1 9967.17 9368.90 280.64 o
206 2 -1 -2 -9 9967.17 9368.90 280.64 o
206 1 -3 6 1 9967.17 9368.90 280.64 o
207 4 -6 3 1 9967.17 11500.60 175.76 o
207 2 -2 -1 9 9967.17 11500.60 175.76 o
207 1 6 -3 -1 9967.17 11500.60 175.76 o
208 4 1 -6 -1 20455.70 20991.40 402.54 o
208 2 -2 -3 -7 20455.70 20991.40 402.54 o
208 1 -1 6 1 20455.70 20991.40 402.54 o
209 4 -6 1 1 20455.70 22757.50 192.76 o
209 2 -3 -2 7 20455.70 22757.50 192.76 o
209 1 6 -1 -1 20455.70 22757.50 192.76 o
210 4 -1 -6 -1 21690.90 25901.30 283.48 o
210 2 -3 -4 -5 21690.90 25901.30 283.48 o
210 1 1 6 1 21690.90 25901.30 283.48 o
211 4 1 6 1 21690.80 23642.00 343.01 o
211 2 3 4 5 21690.80 23642.00 343.01 o
211 1 -1 -6 -1 21690.80 23642.00 343.01 o
212 4 -6 -1 1 21743.60 26592.90 277.81 o
212 3 3 2 7 21743.60 26592.90 277.81 o
212 2 -4 -3 5 21743.60 26592.90 277.81 o
212 1 6 1 -1 21743.60 26592.90 277.81 o
213 4 -3 -6 -1 9560.47 5964.35 164.42 o
213 2 -4 -5 -3 9560.47 5964.35 164.42 o
213 1 3 6 1 9560.47 5964.35 164.42 o
214 4 -6 -3 1 9560.48 12351.10 161.58 o
214 2 -5 -4 3 9560.48 12351.10 161.58 o
214 1 6 3 -1 9560.48 12351.10 161.58 o
215 4 -5 -6 -1 1603.88 1573.30 130.40 o
215 2 -5 -6 -1 1603.88 1573.30 130.40 o
215 1 5 6 1 1603.88 1573.30 130.40 o
216 4 -6 -5 1 1603.96 1743.38 147.41 o
216 2 -6 -5 1 1603.96 1743.38 147.41 o
216 1 6 5 -1 1603.96 1743.38 147.41 o
217 4 -7 -6 -1 288.01 453.56 175.76 o
217 2 -6 -7 1 288.01 453.56 175.76 o
217 1 7 6 1 288.01 453.56 175.76 o
218 4 -6 -7 1 288.00 317.49 181.43 <
218 2 -7 -6 -1 288.00 317.49 181.43 <
218 1 6 7 -1 288.00 317.49 181.43 <
219 4 -7 6 1 221.97 212.61 130.40 <
219 1 7 -6 -1 221.97 212.61 130.40 <
220 4 4 -7 -1 1412.24 1009.18 226.78 o
220 2 -1 -2 -11 1412.24 1009.18 226.78 o
220 1 -4 7 1 1412.24 1009.18 226.78 o
221 4 -7 4 1 1412.24 1357.85 133.23 o
221 2 -2 -1 11 1412.24 1357.85 133.23 o
221 1 7 -4 -1 1412.24 1357.85 133.23 o
222 4 2 -7 -1 1050.95 875.94 252.29 o
222 2 -2 -3 -9 1050.95 875.94 252.29 o
222 1 -2 7 1 1050.95 875.94 252.29 o
223 4 -7 2 1 1050.95 1091.39 124.73 o
223 2 -3 -2 9 1050.95 1091.39 124.73 o
223 1 7 -2 -1 1050.95 1091.39 124.73 o
224 4 -2 -7 -1 948.26 1179.26 181.43 o
224 2 -4 -5 -5 948.26 1179.26 181.43 o
224 1 2 7 1 948.26 1179.26 181.43 o
225 4 -7 -2 1 948.27 1082.88 136.07 o
225 2 -5 -4 5 948.27 1082.88 136.07 o
225 1 7 2 -1 948.27 1082.88 136.07 o
226 4 -4 -7 -1 1537.67 1423.05 178.59 o
226 2 -5 -6 -3 1537.67 1423.05 178.59 o
226 1 4 7 1 1537.67 1423.05 178.59 o
227 4 -7 -4 1 1537.68 1440.06 150.24 o
227 2 -6 -5 3 1537.68 1440.06 150.24 o
227 1 7 4 -1 1537.68 1440.06 150.24 o
228 4 -6 -7 -1 288.00 583.96 178.59 o
228 2 -6 -7 -1 288.00 583.96 178.59 o
228 1 6 7 1 288.00 583.96 178.59 o
229 4 -7 -6 1 288.01 280.64 138.90 o
229 2 -7 -6 1 288.01 280.64 138.90 o
229 1 7 6 -1 288.01 280.64 138.90 o
230 4 -8 -7 -1 189.77 362.85 201.27 <
230 2 -7 -8 1 189.77 362.85 201.27 <
230 1 8 7 1 189.77 362.85 201.27 <
231 4 -7 -8 1 189.76 90.71 198.43 <
231 2 -8 -7 -1 189.76 90.71 198.43 <
231 1 7 8 -1 189.76 90.71 198.43 <
232 4 -8 7 1 146.26 113.39 150.24 <
232 1 8 -7 -1 146.26 113.39 150.24 <
233 4 5 -8 -1 2036.04 1465.57 283.48 o
233 2 -1 -2 -13 2036.04 1465.57 283.48 o
233 1 -5 8 1 2036.04 1465.57 283.48 o
234 4 -8 5 1 2036.04 1737.71 164.42 o
234 2 -2 -1 13 2036.04 1737.71 164.42 o
234 1 8 -5 -1 2036.04 1737.71 164.42 o
235 4 3 -8 -1 5222.38 4104.74 238.12 o
235 2 -2 -3 -11 5222.38 4104.74 238.12 o
235 1 -3 8 1 5222.38 4104.74 238.12 o
236 4 -8 3 1 5222.37 5096.91 161.58 o
236 2 -3 -2 11 5222.37 5096.91 161.58 o
236 1 8 -3 -1 5222.37 5096.91 161.58 o
237 4 1 -8 -1 7891.87 7707.73 303.32 o
237 2 -3 -4 -9 7891.87 7707.73 303.32 o
237 1 -1 8 1 7891.87 7707.73 303.32 o
238 4 -8 1 1 7891.88 8152.79 147.41 o
238 2 -4 -3 9 7891.88 8152.79 147.41 o
238 1 8 -1 -1 7891.88 8152.79 147.41 o
239 4 -1 -8 -1 7533.26 8943.69 235.29 o
239 2 -4 -5 -7 7533.26 8943.69 235.29 o
239 1 1 8 1 7533.26 8943.69 235.29 o
240 4 1 8 1 7533.26 7670.88 255.13 o
240 2 4 5 7 7533.26 7670.88 255.13 o
240 1 -1 -8 -1 7533.26 7670.88 255.13 o
241 4 -8 -1 1 7591.90 8731.08 201.27 o
241 3 4 3 9 7591.90 8731.08 201.27 o
241 2 -5 -4 7 7591.90 8731.08 201.27 o
241 1 8 1 -1 7591.90 8731.08 201.27 o
242 4 -3 -8 -1 5370.91 6522.80 221.11 o
242 2 -5 -6 -5 5370.91 6522.80 221.11 o
242 1 3 8 1 5370.91 6522.80 221.11 o
243 4 -8 -3 1 5370.90 5635.52 155.91 o
243 2 -6 -5 5 5370.90 5635.52 155.91 o
243 1 8 3 -1 5370.90 5635.52 155.91 o
244 4 -5 -8 -1 2035.52 2293.33 192.76 o
244 2 -6 -7 -3 2035.52 2293.33 192.76 o
244 1 5 8 1 2035.52 2293.33 192.76 o
245 4 -8 -5 1 2035.51 1916.30 161.58 o
245 2 -7 -6 3 2035.51 1916.30 161.58 o
245 1 8 5 -1 2035.51 1916.30 161.58 o
246 4 -7 -8 -1 189.76 184.26 223.95 <
246 2 -7 -8 -1 189.76 184.26 223.95 <
246 1 7 8 1 189.76 184.26 223.95 <
247 4 -8 -7 1 189.77 311.82 198.43 <
247 2 -8 -7 1 189.77 311.82 198.43 <
247 1 8 7 -1 189.77 311.82 198.43 <
248 4 4 -9 -1 2293.47 1822.75 280.64 o
248 2 -2 -3 -13 2293.47 1822.75 280.64 o
248 1 -4 9 1 2293.47 1822.75 280.64 o
249 4 -9 4 1 2293.47 1990.01 175.76 o
249 2 -3 -2 13 2293.47 1990.01 175.76 o
249 1 9 -4 -1 2293.47 1990.01 175.76 o
250 4 2 -9 -1 1251.96 822.08 238.12 o
250 2 -3 -4 -11 1251.96 822.08 238.12 o
250 1 -2 9 1 1251.96 822.08 238.12 o
251 4 -9 2 1 1251.97 1023.35 141.74 o
251 2 -4 -3 11 1251.97 1023.35 141.74 o
251 1 9 -2 -1 1251.97 1023.35 141.74 o
252 4 -2 -9 -1 1219.76 1355.02 221.11 o
252 2 -5 -6 -7 1219.76 1355.02 221.11 o
252 1 2 9 1 1219.76 1355.02 221.11 o
253 4 -9 -2 1 1219.76 1264.31 161.58 o
253 2 -6 -5 7 1219.76 1264.31 161.58 o
253 1 9 2 -1 1219.76 1264.31 161.58 o
254 4 -4 -9 -1 2314.15 2179.94 215.44 o
254 2 -6 -7 -5 2314.15 2179.94 215.44 o
254 1 4 9 1 2314.15 2179.94 215.44 o
255 4 -9 -4 1 2314.15 2055.21 167.25 o
255 2 -7 -6 5 2314.15 2055.21 167.25 o
255 1 9 4 -1 2314.15 2055.21 167.25 o
256 4 3 -10 -1 1780.78 992.17 323.16 o
256 2 -3 -4 -13 1780.78 992.17 323.16 o
256 1 -3 10 1 1780.78 992.17 323.16 o
257 4 -10 3 1 1780.78 1241.63 184.26 o
257 2 -4 -3 13 1780.78 1241.63 184.26 o
257 1 10 -3 -1 1780.78 1241.63 184.26 o
258 4 1 -10 -1 1488.36 1125.40 362.85 o
258 2 -4 -5 -11 1488.36 1125.40 362.85 o
258 1 -1 10 1 1488.36 1125.40 362.85 o
259 4 -10 1 1 1488.37 1474.08 158.75 o
259 2 -5 -4 11 1488.37 1474.08 158.75 o
259 1 10 -1 -1 1488.37 1474.08 158.75 o
260 4 -1 -10 -1 1537.39 1457.07 394.03 o
260 2 -5 -6 -9 1537.39 1457.07 394.03 o
260 1 1 10 1 1537.39 1457.07 394.03 o
261 4 -10 -1 1 1538.51 1638.49 172.92 o
261 3 5 4 11 1538.51 1638.49 172.92 o
261 2 -6 -5 9 1538.51 1638.49 172.92 o
261 1 10 1 -1 1538.51 1638.49 172.92 o
262 4 1 10 1 1537.39 1258.64 240.96 o
262 2 5 6 9 1537.39 1258.64 240.96 o
262 1 -1 -10 -1 1537.39 1258.64 240.96 o
263 4 -3 -10 -1 1755.56 2128.91 263.63 o
263 2 -6 -7 -7 1755.56 2128.91 263.63 o
263 1 3 10 1 1755.56 2128.91 263.63 o
264 4 -10 -3 1 1755.56 1570.46 178.59 o
264 2 -7 -6 7 1755.56 1570.46 178.59 o
264 1 10 3 -1 1755.56 1570.46 178.59 o
265 4 -2 10 -2 9881.40 9136.45 360.02 o
265 2 5 3 12 9881.40 9136.45 360.02 o
265 1 2 -10 2 9881.40 9136.45 360.02 o
266 4 2 -10 2 9749.89 10108.80 360.02 o
266 2 -5 -3 -12 9749.89 10108.80 360.02 o
266 1 -2 10 -2 9749.89 10108.80 360.02 o
267 4 -2 8 -2 13634.50 10491.50 337.34 o
267 2 4 2 10 13634.50 10491.50 337.34 o
267 1 2 -8 2 13634.50 10491.50 337.34 o
268 4 2 -8 2 14033.40 12234.90 323.16 o
268 2 -4 -2 -10 14033.40 12234.90 323.16 o
268 1 -2 8 -2 14033.40 12234.90 323.16 o
269 4 -7 7 -2 1126.28 243.79 280.64 <
269 2 1 -1 14 1126.28 243.79 280.64 <
269 1 7 -7 2 1126.28 243.79 280.64 <
270 4 -2 6 -2 40723.00 57225.40 487.58 o
270 2 3 1 8 40723.00 57225.40 487.58 o
270 1 2 -6 2 40723.00 57225.40 487.58 o
271 4 2 -6 2 40678.40 50994.60 433.72 o
271 2 -3 -1 -8 40678.40 50994.60 433.72 o
271 1 -2 6 -2 40678.40 50994.60 433.72 o
272 4 -6 6 -2 36226.40 39462.80 436.55 o
272 2 1 -1 12 36226.40 39462.80 436.55 o
272 1 6 -6 2 36226.40 39462.80 436.55 o
273 4 6 -6 2 36527.20 32857.80 377.02 o
273 2 -1 1 -12 36527.20 32857.80 377.02 o
273 1 -6 6 -2 36527.20 32857.80 377.02 o
274 4 -8 6 -2 2327.66 1238.79 161.58 o
274 2 0 -2 14 2327.66 1238.79 161.58 o
274 1 8 -6 2 2327.66 1238.79 161.58 o
275 4 6 -8 2 2441.28 1102.72 218.28 o
275 2 -2 0 -14 2441.28 1102.72 218.28 o
275 1 -6 8 -2 2441.28 1102.72 218.28 o
276 4 -5 5 -2 1591.99 1876.62 212.61 o
276 2 1 -1 10 1591.99 1876.62 212.61 o
276 1 5 -5 2 1591.99 1876.62 212.61 o
277 4 5 -5 2 1359.01 48.19 164.42 <
277 2 -1 1 -10 1359.01 48.19 164.42 <
277 1 -5 5 -2 1359.01 48.19 164.42 <
278 4 -7 5 -2 41845.40 39757.60 243.79 o
278 2 0 -2 12 41845.40 39757.60 243.79 o
278 1 7 -5 2 41845.40 39757.60 243.79 o
279 4 5 -7 2 42706.50 39306.90 419.55 o
279 2 -2 0 -12 42706.50 39306.90 419.55 o
279 1 -5 7 -2 42706.50 39306.90 419.55 o
280 4 -9 5 -2 3115.41 1853.94 170.09 o
280 2 -1 -3 14 3115.41 1853.94 170.09 o
280 1 9 -5 2 3115.41 1853.94 170.09 o
281 4 5 -9 2 2895.78 895.79 272.14 o
281 2 -3 -1 -14 2895.78 895.79 272.14 o
281 1 -5 9 -2 2895.78 895.79 272.14 o
282 4 -2 4 -2 2672.47 3872.29 215.44 o
282 2 2 0 6 2672.47 3872.29 215.44 o
282 1 2 -4 2 2672.47 3872.29 215.44 o
283 4 2 -4 2 3991.46 4062.22 204.10 o
283 2 -2 0 -6 3991.46 4062.22 204.10 o
283 1 -2 4 -2 3991.46 4062.22 204.10 o
284 4 -4 4 -2 60058.00 70163.30 481.91 o
284 2 1 -1 8 60058.00 70163.30 481.91 o
284 1 4 -4 2 60058.00 70163.30 481.91 o
285 4 4 -4 2 60336.40 74389.90 504.59 o
285 2 -1 1 -8 60336.40 74389.90 504.59 o
285 1 -4 4 -2 60336.40 74389.90 504.59 o
286 4 -6 4 -2 3407.41 2715.71 161.58 o
286 2 0 -2 10 3407.41 2715.71 161.58 o
286 1 6 -4 2 3407.41 2715.71 161.58 o
287 4 4 -6 2 4152.55 2894.30 229.62 o
287 2 -2 0 -10 4152.55 2894.30 229.62 o
287 1 -4 6 -2 4152.55 2894.30 229.62 o
288 4 -8 4 -2 23158.50 25575.30 218.28 o
288 2 -1 -3 12 23158.50 25575.30 218.28 o
288 1 8 -4 2 23158.50 25575.30 218.28 o
289 4 4 -8 2 23272.90 26437.00 402.54 o
289 2 -3 -1 -12 23272.90 26437.00 402.54 o
289 1 -4 8 -2 23272.90 26437.00 402.54 o
290 4 -3 3 -2 2178.51 3999.86 195.60 o
290 2 1 -1 6 2178.51 3999.86 195.60 o
290 1 3 -3 2 2178.51 3999.86 195.60 o
291 4 3 -3 2 2272.51 3965.84 206.94 o
291 2 -1 1 -6 2272.51 3965.84 206.94 o
291 1 -3 3 -2 2272.51 3965.84 206.94 o
292 4 -5 3 -2 59044.30 57494.70 314.66 o
292 2 0 -2 8 59044.30 57494.70 314.66 o
292 1 5 -3 2 59044.30 57494.70 314.66 o
293 4 3 -5 2 60874.60 33586.30 235.29 o
293 2 -2 0 -8 60874.60 33586.30 235.29 o
293 1 -3 5 -2 60874.60 33586.30 235.29 o
294 4 -7 3 -2 4202.69 5060.06 138.90 o
294 2 -1 -3 10 4202.69 5060.06 138.90 o
294 1 7 -3 2 4202.69 5060.06 138.90 o
295 4 3 -7 2 3831.92 4867.29 252.29 o
295 2 -3 -1 -10 3831.92 4867.29 252.29 o
295 1 -3 7 -2 3831.92 4867.29 252.29 o
296 4 -9 3 -2 19636.30 18451.50 209.77 o
296 2 -2 -4 12 19636.30 18451.50 209.77 o
296 1 9 -3 2 19636.30 18451.50 209.77 o
297 4 3 -9 2 20123.00 17292.10 408.21 o
297 2 -4 -2 -12 20123.00 17292.10 408.21 o
297 1 -3 9 -2 20123.00 17292.10 408.21 o
298 4 -2 2 -2 132248.00 91874.80 600.97 o
298 3 1 3 0 132248.00 91874.80 600.97 o
298 2 1 -1 4 132248.00 91874.80 600.97 o
298 1 2 -2 2 132248.00 91874.80 600.97 o
299 4 2 -2 2 132498.00 119480.00 688.85 o
299 3 -1 -3 0 132498.00 119480.00 688.85 o
299 2 -1 1 -4 132498.00 119480.00 688.85 o
299 1 -2 2 -2 132498.00 119480.00 688.85 o
300 4 -4 2 -2 2680.59 4666.03 172.92 o
300 3 2 4 2 2680.59 4666.03 172.92 o
300 2 0 -2 6 2680.59 4666.03 172.92 o
300 1 4 -2 2 2680.59 4666.03 172.92 o
301 4 2 -4 2 3991.46 4306.01 198.43 o
301 2 -2 0 -6 3991.46 4306.01 198.43 o
301 1 -2 4 -2 3991.46 4306.01 198.43 o
302 4 -6 2 -2 44711.70 65965.00 303.32 o
302 3 3 5 4 44711.70 65965.00 303.32 o
302 2 -1 -3 8 44711.70 65965.00 303.32 o
302 1 6 -2 2 44711.70 65965.00 303.32 o
303 4 -8 2 -2 13805.70 12526.80 167.25 o
303 3 4 6 6 13805.70 12526.80 167.25 o
303 2 -2 -4 10 13805.70 12526.80 167.25 o
303 1 8 -2 2 13805.70 12526.80 167.25 o
304 4 -10 2 -2 10854.00 11483.60 215.44 o
304 3 5 7 8 10854.00 11483.60 215.44 o
304 2 -3 -5 12 10854.00 11483.60 215.44 o
304 1 10 -2 2 10854.00 11483.60 215.44 o
305 4 -1 1 -2 13513.30 17586.90 354.35 o
305 2 1 -1 2 13513.30 17586.90 354.35 o
305 1 1 -1 2 13513.30 17586.90 354.35 o
306 4 1 -1 2 12953.50 20603.10 374.19 o
306 2 -1 1 -2 12953.50 20603.10 374.19 o
306 1 -1 1 -2 12953.50 20603.10 374.19 o
307 4 -3 1 -2 34775.30 43944.50 306.15 o
307 2 0 -2 4 34775.30 43944.50 306.15 o
307 1 3 -1 2 34775.30 43944.50 306.15 o
308 4 1 -3 2 36761.30 48792.00 317.49 o
308 2 -2 0 -4 36761.30 48792.00 317.49 o
308 1 -1 3 -2 36761.30 48792.00 317.49 o
309 4 -5 1 -2 10235.50 15616.70 158.75 o
309 2 -1 -3 6 10235.50 15616.70 158.75 o
309 1 5 -1 2 10235.50 15616.70 158.75 o
310 4 1 -5 2 9932.46 311.82 187.10 <
310 2 -3 -1 -6 9932.46 311.82 187.10 <
310 1 -1 5 -2 9932.46 311.82 187.10 <
311 4 -7 1 -2 26873.30 32469.40 201.27 o
311 2 -2 -4 8 26873.30 32469.40 201.27 o
311 1 7 -1 2 26873.30 32469.40 201.27 o
312 4 1 -7 2 27874.50 33246.10 388.36 o
312 2 -4 -2 -8 27874.50 33246.10 388.36 o
312 1 -1 7 -2 27874.50 33246.10 388.36 o
313 4 -9 1 -2 11764.20 11316.40 158.75 o
313 2 -3 -5 10 11764.20 11316.40 158.75 o
313 1 9 -1 2 11764.20 11316.40 158.75 o
314 4 1 -9 2 11297.60 11798.30 337.34 o
314 2 -5 -3 -10 11297.60 11798.30 337.34 o
314 1 -1 9 -2 11297.60 11798.30 337.34 o
315 4 0 0 -2 187524.00 78868.90 943.98 o
315 2 1 -1 0 187524.00 78868.90 943.98 o
315 1 0 0 2 187524.00 78868.90 943.98 o
316 4 0 0 2 187555.00 94808.80 1020.52 o
316 2 -1 1 0 187555.00 94808.80 1020.52 o
316 1 0 0 -2 187555.00 94808.80 1020.52 o
317 4 -2 0 -2 46347.10 55394.20 396.87 o
317 2 0 -2 2 46347.10 55394.20 396.87 o
317 1 2 0 2 46347.10 55394.20 396.87 o
318 4 2 0 2 47576.90 55850.60 530.10 o
318 2 0 2 -2 47576.90 55850.60 530.10 o
318 1 -2 0 -2 47576.90 55850.60 530.10 o
319 4 0 -2 2 49092.30 47876.40 544.28 o
319 3 0 -2 2 49092.30 47876.40 544.28 o
319 2 -2 0 -2 49092.30 47876.40 544.28 o
319 1 0 2 -2 49092.30 47876.40 544.28 o
320 4 -4 0 -2 89018.70 113668.00 354.35 o
320 2 -1 -3 4 89018.70 113668.00 354.35 o
320 1 4 0 2 89018.70 113668.00 354.35 o
321 4 0 -4 2 88981.40 105212.00 691.68 o
321 2 -3 -1 -4 88981.40 105212.00 691.68 o
321 1 0 4 -2 88981.40 105212.00 691.68 o
322 4 -6 0 -2 7771.66 9178.97 133.23 o
322 2 -2 -4 6 7771.66 9178.97 133.23 o
322 1 6 0 2 7771.66 9178.97 133.23 o
323 4 0 -6 2 8500.28 9978.38 280.64 o
323 2 -4 -2 -6 8500.28 9978.38 280.64 o
323 1 0 6 -2 8500.28 9978.38 280.64 o
324 4 -8 0 -2 20320.90 28648.10 195.60 o
324 2 -3 -5 8 20320.90 28648.10 195.60 o
324 1 8 0 2 20320.90 28648.10 195.60 o
325 4 0 -8 2 19903.60 25427.90 436.55 o
325 2 -5 -3 -8 19903.60 25427.90 436.55 o
325 1 0 8 -2 19903.60 25427.90 436.55 o
326 4 -10 0 -2 16279.30 13711.80 175.76 o
326 2 -4 -6 10 16279.30 13711.80 175.76 o
326 1 10 0 2 16279.30 13711.80 175.76 o
327 4 0 -10 2 16470.00 14944.90 433.72 o
327 2 -6 -4 -10 16470.00 14944.90 433.72 o
327 1 0 10 -2 16470.00 14944.90 433.72 o
328 4 1 -1 -2 12924.60 18100.00 640.66 o
328 2 1 -1 -2 12924.60 18100.00 640.66 o
328 1 -1 1 2 12924.60 18100.00 640.66 o
329 4 -1 1 2 13542.20 15004.40 666.17 o
329 2 -1 1 2 13542.20 15004.40 666.17 o
329 1 1 -1 -2 13542.20 15004.40 666.17 o
330 4 -1 -1 -2 18106.10 15854.80 221.11 o
330 2 0 -2 0 18106.10 15854.80 221.11 o
330 1 1 1 2 18106.10 15854.80 221.11 o
331 4 -1 -1 2 18135.10 18117.00 464.90 o
331 2 -2 0 0 18135.10 18117.00 464.90 o
331 1 1 1 -2 18135.10 18117.00 464.90 o
332 4 -3 -1 -2 36175.20 41846.80 314.66 o
332 2 -1 -3 2 36175.20 41846.80 314.66 o
332 1 3 1 2 36175.20 41846.80 314.66 o
333 4 -1 -3 2 35711.90 38859.00 521.60 o
333 2 -3 -1 -2 35711.90 38859.00 521.60 o
333 1 1 3 -2 35711.90 38859.00 521.60 o
334 4 -5 -1 -2 13986.70 15503.30 153.08 o
334 2 -2 -4 4 13986.70 15503.30 153.08 o
334 1 5 1 2 13986.70 15503.30 153.08 o
335 4 -1 -5 2 14968.70 13669.20 351.51 o
335 2 -4 -2 -4 14968.70 13669.20 351.51 o
335 1 1 5 -2 14968.70 13669.20 351.51 o
336 4 -7 -1 -2 27379.60 32288.00 187.10 o
336 2 -3 -5 6 27379.60 32288.00 187.10 o
336 1 7 1 2 27379.60 32288.00 187.10 o
337 4 -1 -7 2 26752.80 31227.80 450.73 o
337 2 -5 -3 -6 26752.80 31227.80 450.73 o
337 1 1 7 -2 26752.80 31227.80 450.73 o
338 4 -9 -1 -2 12342.10 13207.20 158.75 o
338 2 -4 -6 8 12342.10 13207.20 158.75 o
338 1 9 1 2 12342.10 13207.20 158.75 o
339 4 -1 -9 2 12758.20 13108.00 396.87 o
339 2 -6 -4 -8 12758.20 13108.00 396.87 o
339 1 1 9 -2 12758.20 13108.00 396.87 o
340 4 -2 2 2 126038.00 147294.00 847.60 o
340 2 -1 1 4 126038.00 147294.00 847.60 o
340 1 2 -2 -2 126038.00 147294.00 847.60 o
341 4 0 -2 -2 47640.50 50351.10 558.45 o
341 2 0 -2 -2 47640.50 50351.10 558.45 o
341 1 0 2 2 47640.50 50351.10 558.45 o
342 4 -2 0 2 46283.40 49061.30 496.08 o
342 2 -2 0 2 46283.40 49061.30 496.08 o
342 1 2 0 -2 46283.40 49061.30 496.08 o
343 4 -2 -2 -2 132233.00 113181.00 510.26 o
343 2 -1 -3 0 132233.00 113181.00 510.26 o
343 1 2 2 2 132233.00 113181.00 510.26 o
344 4 2 2 2 132266.00 159234.00 785.23 o
344 2 1 3 0 132266.00 159234.00 785.23 o
344 1 -2 -2 -2 132266.00 159234.00 785.23 o
345 4 -2 -2 2 137576.00 112546.00 751.21 o
345 3 1 -1 4 137576.00 112546.00 751.21 o
345 2 -3 -1 0 137576.00 112546.00 751.21 o
345 1 2 2 -2 137576.00 112546.00 751.21 o
346 4 -4 -2 -2 1222.85 1649.83 136.07 o
346 2 -2 -4 2 1222.85 1649.83 136.07 o
346 1 4 2 2 1222.85 1649.83 136.07 o
347 4 -2 -4 2 1772.74 1440.06 133.23 o
347 2 -4 -2 -2 1772.74 1440.06 133.23 o
347 1 2 4 -2 1772.74 1440.06 133.23 o
348 4 -6 -2 -2 48416.10 56922.10 291.98 o
348 2 -3 -5 4 48416.10 56922.10 291.98 o
348 1 6 2 2 48416.10 56922.10 291.98 o
349 4 -2 -6 2 47986.70 57202.80 303.32 o
349 2 -5 -3 -4 47986.70 57202.80 303.32 o
349 1 2 6 -2 47986.70 57202.80 303.32 o
350 4 -8 -2 -2 14205.40 13448.10 153.08 o
350 2 -4 -6 6 14205.40 13448.10 153.08 o
350 1 8 2 2 14205.40 13448.10 153.08 o
351 4 -2 -8 2 14543.70 17136.20 402.54 o
351 2 -6 -4 -6 14543.70 17136.20 402.54 o
351 1 2 8 -2 14543.70 17136.20 402.54 o
352 4 -10 -2 -2 10743.20 10613.40 164.42 o
352 2 -5 -7 8 10743.20 10613.40 164.42 o
352 1 10 2 2 10743.20 10613.40 164.42 o
353 4 -2 -10 2 10364.00 243.79 337.34 <
353 2 -7 -5 -8 10364.00 243.79 337.34 <
353 1 2 10 -2 10364.00 243.79 337.34 <
354 4 -3 3 2 2171.63 3234.47 158.75 o
354 2 -1 1 6 2171.63 3234.47 158.75 o
354 1 3 -3 -2 2171.63 3234.47 158.75 o
355 4 1 -3 -2 36737.30 37231.80 459.23 o
355 2 0 -2 -4 36737.30 37231.80 459.23 o
355 1 -1 3 2 36737.30 37231.80 459.23 o
356 4 -3 1 2 34799.20 40681.70 476.24 o
356 2 -2 0 4 34799.20 40681.70 476.24 o
356 1 3 -1 -2 34799.20 40681.70 476.24 o
357 4 -1 -3 -2 35687.90 41432.90 337.34 o
357 2 -1 -3 -2 35687.90 41432.90 337.34 o
357 1 1 3 2 35687.90 41432.90 337.34 o
358 4 -3 -1 2 36199.20 50070.50 340.17 o
358 2 -3 -1 2 36199.20 50070.50 340.17 o
358 1 3 1 -2 36199.20 50070.50 340.17 o
359 4 -3 -3 -2 9293.93 6613.51 164.42 o
359 2 -2 -4 0 9293.93 6613.51 164.42 o
359 1 3 3 2 9293.93 6613.51 164.42 o
360 4 -3 -3 2 9287.05 8226.49 164.42 o
360 2 -4 -2 0 9287.05 8226.49 164.42 o
360 1 3 3 -2 9287.05 8226.49 164.42 o
361 4 -5 -3 -2 64041.80 62543.50 291.98 o
361 2 -3 -5 2 64041.80 62543.50 291.98 o
361 1 5 3 2 64041.80 62543.50 291.98 o
362 4 -3 -5 2 63643.40 69706.90 326.00 o
362 2 -5 -3 -2 63643.40 69706.90 326.00 o
362 1 3 5 -2 63643.40 69706.90 326.00 o
363 4 -7 -3 -2 6598.75 6454.76 164.42 o
363 2 -4 -6 4 6598.75 6454.76 164.42 o
363 1 7 3 2 6598.75 6454.76 164.42 o
364 4 -3 -7 2 7002.28 5873.64 175.76 o
364 2 -6 -4 -4 7002.28 5873.64 175.76 o
364 1 3 7 -2 7002.28 5873.64 175.76 o
365 4 -9 -3 -2 20745.10 18871.00 172.92 o
365 2 -5 -7 6 20745.10 18871.00 172.92 o
365 1 9 3 2 20745.10 18871.00 172.92 o
366 4 -3 -9 2 20269.20 21819.20 388.36 o
366 2 -7 -5 -6 20269.20 21819.20 388.36 o
366 1 3 9 -2 20269.20 21819.20 388.36 o
367 4 -4 4 2 60076.30 84938.10 464.90 o
367 2 -1 1 8 60076.30 84938.10 464.90 o
367 1 4 -4 -2 60076.30 84938.10 464.90 o
368 4 2 -4 -2 4019.92 3356.36 280.64 o
368 2 0 -2 -6 4019.92 3356.36 280.64 o
368 1 -2 4 2 4019.92 3356.36 280.64 o
369 4 -4 2 2 2644.01 3228.80 138.90 o
369 2 -2 0 6 2644.01 3228.80 138.90 o
369 1 4 -2 -2 2644.01 3228.80 138.90 o
370 4 0 -4 -2 88956.00 76453.60 498.92 o
370 2 -1 -3 -4 88956.00 76453.60 498.92 o
370 1 0 4 2 88956.00 76453.60 498.92 o
371 4 -4 0 2 89044.20 121101.00 524.43 o
371 2 -3 -1 4 89044.20 121101.00 524.43 o
371 1 4 0 -2 89044.20 121101.00 524.43 o
372 4 -2 -4 -2 1801.19 1794.41 144.57 o
372 2 -2 -4 -2 1801.19 1794.41 144.57 o
372 1 2 4 2 1801.19 1794.41 144.57 o
373 4 2 4 2 1194.39 3911.98 181.43 o
373 2 2 4 2 1194.39 3911.98 181.43 o
373 1 -2 -4 -2 1194.39 3911.98 181.43 o
374 4 -4 -2 2 1419.57 1766.06 172.92 o
374 3 2 0 6 1419.57 1766.06 172.92 o
374 2 -4 -2 2 1419.57 1766.06 172.92 o
374 1 4 2 -2 1419.57 1766.06 172.92 o
375 4 -4 -4 -2 73834.40 76167.30 337.34 o
375 2 -3 -5 0 73834.40 76167.30 337.34 o
375 1 4 4 2 73834.40 76167.30 337.34 o
376 4 -4 -4 2 73852.70 88575.10 348.68 o
376 2 -5 -3 0 73852.70 88575.10 348.68 o
376 1 4 4 -2 73852.70 88575.10 348.68 o
377 4 -6 -4 -2 4226.60 3897.80 158.75 o
377 2 -4 -6 2 4226.60 3897.80 158.75 o
377 1 6 4 2 4226.60 3897.80 158.75 o
378 4 -4 -6 2 4442.18 4110.41 147.41 o
378 2 -6 -4 -2 4442.18 4110.41 147.41 o
378 1 4 6 -2 4442.18 4110.41 147.41 o
379 4 -8 -4 -2 26804.00 24534.90 218.28 o
379 2 -5 -7 4 26804.00 24534.90 218.28 o
379 1 8 4 2 26804.00 24534.90 218.28 o
380 4 -4 -8 2 26416.00 26558.90 246.62 o
380 2 -7 -5 -4 26416.00 26558.90 246.62 o
380 1 4 8 -2 26416.00 26558.90 246.62 o
381 4 -5 5 2 1577.32 1828.42 172.92 o
381 2 -1 1 10 1577.32 1828.42 172.92 o
381 1 5 -5 -2 1577.32 1828.42 172.92 o
382 4 3 -5 -2 60854.00 57041.20 598.14 o
382 2 0 -2 -8 60854.00 57041.20 598.14 o
382 1 -3 5 2 60854.00 57041.20 598.14 o
383 4 -5 3 2 59064.90 72161.80 360.02 o
383 2 -2 0 8 59064.90 72161.80 360.02 o
383 1 5 -3 -2 59064.90 72161.80 360.02 o
384 4 1 -5 -2 9932.82 13507.70 229.62 o
384 2 -1 -3 -6 9932.82 13507.70 229.62 o
384 1 -1 5 2 9932.82 13507.70 229.62 o
385 4 -5 1 2 10235.20 13218.50 212.61 o
385 2 -3 -1 6 10235.20 13218.50 212.61 o
385 1 5 -1 -2 10235.20 13218.50 212.61 o
386 4 -1 -5 -2 14969.10 12736.60 229.62 o
386 2 -2 -4 -4 14969.10 12736.60 229.62 o
386 1 1 5 2 14969.10 12736.60 229.62 o
387 4 -5 -1 2 13986.30 18434.50 195.60 o
387 2 -4 -2 4 13986.30 18434.50 195.60 o
387 1 5 1 -2 13986.30 18434.50 195.60 o
388 4 -3 -5 -2 63622.80 34099.40 232.45 o
388 2 -3 -5 -2 63622.80 34099.40 232.45 o
388 1 3 5 2 63622.80 34099.40 232.45 o
389 4 -5 -3 2 64062.50 79214.70 328.83 o
389 2 -5 -3 2 64062.50 79214.70 328.83 o
389 1 5 3 -2 64062.50 79214.70 328.83 o
390 4 -5 -5 -2 5171.35 3591.65 153.08 o
390 2 -4 -6 0 5171.35 3591.65 153.08 o
390 1 5 5 2 5171.35 3591.65 153.08 o
391 4 -5 -5 2 5156.67 3730.55 133.23 o
391 2 -6 -4 0 5156.67 3730.55 133.23 o
391 1 5 5 -2 5156.67 3730.55 133.23 o
392 4 -7 -5 -2 44955.20 40446.40 249.46 o
392 2 -5 -7 2 44955.20 40446.40 249.46 o
392 1 7 5 2 44955.20 40446.40 249.46 o
393 4 -5 -7 2 44697.40 44780.80 266.47 o
393 2 -7 -5 -2 44697.40 44780.80 266.47 o
393 1 5 7 -2 44697.40 44780.80 266.47 o
394 4 -9 -5 -2 3541.38 2531.45 175.76 o
394 2 -6 -8 4 3541.38 2531.45 175.76 o
394 1 9 5 2 3541.38 2531.45 175.76 o
395 4 -5 -9 2 3762.45 2494.59 184.26 o
395 2 -8 -6 -4 3762.45 2494.59 184.26 o
395 1 5 9 -2 3762.45 2494.59 184.26 o
396 4 -6 6 2 36235.90 32764.20 351.51 o
396 2 -1 1 12 36235.90 32764.20 351.51 o
396 1 6 -6 -2 36235.90 32764.20 351.51 o
397 4 -6 4 2 3396.25 3585.98 158.75 o
397 2 -2 0 10 3396.25 3585.98 158.75 o
397 1 6 -4 -2 3396.25 3585.98 158.75 o
398 4 2 -6 -2 40667.50 39581.80 629.32 o
398 2 -1 -3 -8 40667.50 39581.80 629.32 o
398 1 -2 6 2 40667.50 39581.80 629.32 o
399 4 -6 2 2 40733.90 61202.60 311.82 o
399 2 -3 -1 8 40733.90 61202.60 311.82 o
399 1 6 -2 -2 40733.90 61202.60 311.82 o
400 4 0 -6 -2 8511.83 10304.40 235.29 o
400 2 -2 -4 -6 8511.83 10304.40 235.29 o
400 1 0 6 2 8511.83 10304.40 235.29 o
401 4 -6 0 2 7760.11 10624.70 187.10 o
401 2 -4 -2 6 7760.11 10624.70 187.10 o
401 1 6 0 -2 7760.11 10624.70 187.10 o
402 4 -2 -6 -2 47975.70 46529.90 337.34 o
402 2 -3 -5 -4 47975.70 46529.90 337.34 o
402 1 2 6 2 47975.70 46529.90 337.34 o
403 4 2 6 2 48427.10 67062.10 476.24 o
403 2 3 5 4 48427.10 67062.10 476.24 o
403 1 -2 -6 -2 48427.10 67062.10 476.24 o
404 4 -6 -2 2 51263.90 63651.80 399.70 o
404 3 3 1 8 51263.90 63651.80 399.70 o
404 2 -5 -3 4 51263.90 63651.80 399.70 o
404 1 6 2 -2 51263.90 63651.80 399.70 o
405 4 -4 -6 -2 4453.34 3977.18 167.25 o
405 2 -4 -6 -2 4453.34 3977.18 167.25 o
405 1 4 6 2 4453.34 3977.18 167.25 o
406 4 -6 -4 2 4215.45 4342.86 144.57 o
406 2 -6 -4 2 4215.45 4342.86 144.57 o
406 1 6 4 -2 4215.45 4342.86 144.57 o
407 4 -6 -6 -2 41750.60 38002.90 257.96 o
407 2 -5 -7 0 41750.60 38002.90 257.96 o
407 1 6 6 2 41750.60 38002.90 257.96 o
408 4 -6 -6 2 41760.20 41971.60 255.13 o
408 2 -7 -5 0 41760.20 41971.60 255.13 o
408 1 6 6 -2 41760.20 41971.60 255.13 o
409 4 -8 -6 -2 2676.91 1621.49 181.43 o
409 2 -6 -8 2 2676.91 1621.49 181.43 o
409 1 8 6 2 2676.91 1621.49 181.43 o
410 4 -6 -8 2 2799.00 1698.03 192.76 o
410 2 -8 -6 -2 2799.00 1698.03 192.76 o
410 1 6 8 -2 2799.00 1698.03 192.76 o
411 4 -7 7 2 1116.50 229.62 195.60 <
411 2 -1 1 14 1116.50 229.62 195.60 <
411 1 7 -7 -2 1116.50 229.62 195.60 <
412 4 -7 5 2 41858.80 40772.40 249.46 o
412 2 -2 0 12 41858.80 40772.40 249.46 o
412 1 7 -5 -2 41858.80 40772.40 249.46 o
413 4 3 -7 -2 3840.63 1927.64 297.65 o
413 2 -1 -3 -10 3840.63 1927.64 297.65 o
413 1 -3 7 2 3840.63 1927.64 297.65 o
414 4 -7 3 2 4193.97 5105.41 158.75 o
414 2 -3 -1 10 4193.97 5105.41 158.75 o
414 1 7 -3 -2 4193.97 5105.41 158.75 o
415 4 1 -7 -2 27867.90 29895.40 498.92 o
415 2 -2 -4 -8 27867.90 29895.40 498.92 o
415 1 -1 7 2 27867.90 29895.40 498.92 o
416 4 -7 1 2 26879.90 32648.00 274.97 o
416 2 -4 -2 8 26879.90 32648.00 274.97 o
416 1 7 -1 -2 26879.90 32648.00 274.97 o
417 4 -1 -7 -2 26746.20 30901.80 348.68 o
417 2 -3 -5 -6 26746.20 30901.80 348.68 o
417 1 1 7 2 26746.20 30901.80 348.68 o
418 4 -7 -1 2 27386.20 33776.20 243.79 o
418 2 -5 -3 6 27386.20 33776.20 243.79 o
418 1 7 1 -2 27386.20 33776.20 243.79 o
419 4 -3 -7 -2 7011.00 4717.05 195.60 o
419 2 -4 -6 -4 7011.00 4717.05 195.60 o
419 1 3 7 2 7011.00 4717.05 195.60 o
420 4 -7 -3 2 6590.03 7112.43 158.75 o
420 2 -6 -4 4 6590.03 7112.43 158.75 o
420 1 7 3 -2 6590.03 7112.43 158.75 o
421 4 -5 -7 -2 44684.10 41506.60 283.48 o
421 2 -5 -7 -2 44684.10 41506.60 283.48 o
421 1 5 7 2 44684.10 41506.60 283.48 o
422 4 -7 -5 2 44968.60 46904.00 255.13 o
422 2 -7 -5 2 44968.60 46904.00 255.13 o
422 1 7 5 -2 44968.60 46904.00 255.13 o
423 4 -7 -7 -2 1755.30 966.66 201.27 o
423 2 -6 -8 0 1755.30 966.66 201.27 o
423 1 7 7 2 1755.30 966.66 201.27 o
424 4 -7 -7 2 1745.51 1338.01 192.76 o
424 2 -8 -6 0 1745.51 1338.01 192.76 o
424 1 7 7 -2 1745.51 1338.01 192.76 o
425 4 -8 6 2 2321.34 946.81 150.24 o
425 2 -2 0 14 2321.34 946.81 150.24 o
425 1 8 -6 -2 2321.34 946.81 150.24 o
426 4 4 -8 -2 23267.90 18077.30 399.70 o
426 2 -1 -3 -12 23267.90 18077.30 399.70 o
426 1 -4 8 2 23267.90 18077.30 399.70 o
427 4 -8 4 2 23163.40 26678.00 249.46 o
427 2 -3 -1 12 23163.40 26678.00 249.46 o
427 1 8 -4 -2 23163.40 26678.00 249.46 o
428 4 2 -8 -2 14035.60 9042.90 323.16 o
428 2 -2 -4 -10 14035.60 9042.90 323.16 o
428 1 -2 8 2 14035.60 9042.90 323.16 o
429 4 -8 2 2 13632.30 13706.10 187.10 o
429 2 -4 -2 10 13632.30 13706.10 187.10 o
429 1 8 -2 -2 13632.30 13706.10 187.10 o
430 4 0 -8 -2 19902.60 19440.80 272.14 o
430 2 -3 -5 -8 19902.60 19440.80 272.14 o
430 1 0 8 2 19902.60 19440.80 272.14 o
431 4 -8 0 2 20321.90 26771.50 240.96 o
431 2 -5 -3 8 20321.90 26771.50 240.96 o
431 1 8 0 -2 20321.90 26771.50 240.96 o
432 4 -2 -8 -2 14545.90 16152.50 272.14 o
432 2 -4 -6 -6 14545.90 16152.50 272.14 o
432 1 2 8 2 14545.90 16152.50 272.14 o
433 4 2 8 2 14203.30 14380.80 289.15 o
433 2 4 6 6 14203.30 14380.80 289.15 o
433 1 -2 -8 -2 14203.30 14380.80 289.15 o
434 4 -8 -2 2 14289.00 14477.20 249.46 o
434 3 4 2 10 14289.00 14477.20 249.46 o
434 2 -6 -4 6 14289.00 14477.20 249.46 o
434 1 8 2 -2 14289.00 14477.20 249.46 o
435 4 -4 -8 -2 26411.00 22587.40 263.63 o
435 2 -5 -7 -4 26411.00 22587.40 263.63 o
435 1 4 8 2 26411.00 22587.40 263.63 o
436 4 -8 -4 2 26809.00 28115.20 223.95 o
436 2 -7 -5 4 26809.00 28115.20 223.95 o
436 1 8 4 -2 26809.00 28115.20 223.95 o
437 4 -6 -8 -2 2805.32 1536.44 192.76 o
437 2 -6 -8 -2 2805.32 1536.44 192.76 o
437 1 6 8 2 2805.32 1536.44 192.76 o
438 4 -8 -6 2 2670.59 1661.17 170.09 o
438 2 -8 -6 2 2670.59 1661.17 170.09 o
438 1 8 6 -2 2670.59 1661.17 170.09 o
439 4 -9 5 2 3109.29 1550.62 158.75 o
439 2 -3 -1 14 3109.29 1550.62 158.75 o
439 1 9 -5 -2 3109.29 1550.62 158.75 o
440 4 3 -9 -2 20117.70 10891.20 365.68 o
440 2 -2 -4 -12 20117.70 10891.20 365.68 o
440 1 -3 9 2 20117.70 10891.20 365.68 o
441 4 -9 3 2 19641.60 19874.50 229.62 o
441 2 -4 -2 12 19641.60 19874.50 229.62 o
441 1 9 -3 -2 19641.60 19874.50 229.62 o
442 4 1 -9 -2 11298.60 6355.55 385.53 o
442 2 -3 -5 -10 11298.60 6355.55 385.53 o
442 1 -1 9 2 11298.60 6355.55 385.53 o
443 4 -9 1 2 11763.20 12319.90 170.09 o
443 2 -5 -3 10 11763.20 12319.90 170.09 o
443 1 9 -1 -2 11763.20 12319.90 170.09 o
444 4 -1 -9 -2 12759.20 12784.80 269.30 o
444 2 -4 -6 -8 12759.20 12784.80 269.30 o
444 1 1 9 2 12759.20 12784.80 269.30 o
445 4 -9 -1 2 12341.10 12912.40 201.27 o
445 2 -6 -4 8 12341.10 12912.40 201.27 o
445 1 9 1 -2 12341.10 12912.40 201.27 o
446 4 -3 -9 -2 20263.90 21844.70 311.82 o
446 2 -5 -7 -6 20263.90 21844.70 311.82 o
446 1 3 9 2 20263.90 21844.70 311.82 o
447 4 -9 -3 2 20750.40 20296.90 204.10 o
447 2 -7 -5 6 20750.40 20296.90 204.10 o
447 1 9 3 -2 20750.40 20296.90 204.10 o
448 4 -5 -9 -2 3768.57 2613.65 249.46 o
448 2 -6 -8 -4 3768.57 2613.65 249.46 o
448 1 5 9 2 3768.57 2613.65 249.46 o
449 4 -9 -5 2 3535.26 2613.65 195.60 o
449 2 -8 -6 4 3535.26 2613.65 195.60 o
449 1 9 5 -2 3535.26 2613.65 195.60 o
450 4 2 -10 -2 9750.97 2806.42 345.84 o
450 2 -3 -5 -12 9750.97 2806.42 345.84 o
450 1 -2 10 2 9750.97 2806.42 345.84 o
451 4 -10 2 2 9880.31 11129.30 204.10 o
451 2 -5 -3 12 9880.31 11129.30 204.10 o
451 1 10 -2 -2 9880.31 11129.30 204.10 o
452 4 0 -10 -2 16467.70 11242.70 453.56 o
452 2 -4 -6 -10 16467.70 11242.70 453.56 o
452 1 0 10 2 16467.70 11242.70 453.56 o
453 4 -10 0 2 16281.60 15154.70 192.76 o
453 2 -6 -4 10 16281.60 15154.70 192.76 o
453 1 10 0 -2 16281.60 15154.70 192.76 o
454 4 -2 -10 -2 10365.10 8660.21 289.15 o
454 2 -5 -7 -8 10365.10 8660.21 289.15 o
454 1 2 10 2 10365.10 8660.21 289.15 o
455 4 -10 -2 2 11585.70 10366.70 286.31 o
455 3 5 3 12 11585.70 10366.70 286.31 o
455 2 -7 -5 8 11585.70 10366.70 286.31 o
455 1 10 2 -2 11585.70 10366.70 286.31 o
456 4 2 10 2 10742.10 9964.20 280.64 o
456 2 5 7 8 10742.10 9964.20 280.64 o
456 1 -2 -10 -2 10742.10 9964.20 280.64 o
457 4 -3 10 -3 1446.61 666.17 340.17 <
457 2 5 2 13 1446.61 666.17 340.17 <
457 1 3 -10 3 1446.61 666.17 340.17 <
458 4 3 -10 3 1446.61 841.93 326.00 o
458 2 -5 -2 -13 1446.61 841.93 326.00 o
458 1 -3 10 -3 1446.61 841.93 326.00 o
459 4 -3 8 -3 4658.30 3503.77 306.15 o
459 2 4 1 11 4658.30 3503.77 306.15 o
459 1 3 -8 3 4658.30 3503.77 306.15 o
460 4 3 -8 3 4658.29 3798.59 280.64 o
460 2 -4 -1 -11 4658.29 3798.59 280.64 o
460 1 -3 8 -3 4658.29 3798.59 280.64 o
461 4 -3 6 -3 7762.31 6142.94 252.29 o
461 1 3 -6 3 7762.31 6142.94 252.29 o
462 4 3 -6 3 7762.31 7325.04 243.79 o
462 1 -3 6 -3 7762.31 7325.04 243.79 o
463 4 -7 6 -3 243.63 266.47 155.91 <
463 2 1 -2 13 243.63 266.47 155.91 <
463 1 7 -6 3 243.63 266.47 155.91 <
464 4 6 -7 3 243.63 65.20 144.57 <
464 2 -2 1 -13 243.63 65.20 144.57 <
464 1 -6 7 -3 243.63 65.20 144.57 <
465 4 -6 5 -3 1199.64 1017.68 170.09 o
465 2 1 -2 11 1199.64 1017.68 170.09 o
465 1 6 -5 3 1199.64 1017.68 170.09 o
466 4 5 -6 3 1199.64 1108.39 161.58 o
466 2 -2 1 -11 1199.64 1108.39 161.58 o
466 1 -5 6 -3 1199.64 1108.39 161.58 o
467 4 -8 5 -3 1639.38 1349.35 144.57 o
467 1 8 -5 3 1639.38 1349.35 144.57 o
468 4 5 -8 3 1639.38 938.31 260.80 o
468 1 -5 8 -3 1639.38 938.31 260.80 o
469 4 -3 4 -3 9252.93 9850.81 240.96 o
469 2 2 -1 7 9252.93 9850.81 240.96 o
469 1 3 -4 3 9252.93 9850.81 240.96 o
470 4 3 -4 3 9252.93 11418.40 249.46 o
470 2 -2 1 -7 9252.93 11418.40 249.46 o
470 1 -3 4 -3 9252.93 11418.40 249.46 o
471 4 -5 4 -3 738.38 932.64 141.74 o
471 2 1 -2 9 738.38 932.64 141.74 o
471 1 5 -4 3 738.38 932.64 141.74 o
472 4 4 -5 3 738.38 788.07 138.90 o
472 2 -2 1 -9 738.38 788.07 138.90 o
472 1 -4 5 -3 738.38 788.07 138.90 o
473 4 -7 4 -3 1022.26 844.76 133.23 o
473 1 7 -4 3 1022.26 844.76 133.23 o
474 4 4 -7 3 1022.26 1284.15 243.79 o
474 1 -4 7 -3 1022.26 1284.15 243.79 o
475 4 -9 4 -3 2017.60 1496.76 161.58 o
475 2 -1 -4 13 2017.60 1496.76 161.58 o
475 1 9 -4 3 2017.60 1496.76 161.58 o
476 4 4 -9 3 2017.60 1349.35 280.64 o
476 2 -4 -1 -13 2017.60 1349.35 280.64 o
476 1 -4 9 -3 2017.60 1349.35 280.64 o
477 4 -4 3 -3 9253.63 10171.10 204.10 o
477 3 2 5 1 9253.63 10171.10 204.10 o
477 2 1 -2 7 9253.63 10171.10 204.10 o
477 1 4 -3 3 9253.63 10171.10 204.10 o
478 4 3 -4 3 9252.93 11548.80 243.79 o
478 2 -2 1 -7 9252.93 11548.80 243.79 o
478 1 -3 4 -3 9252.93 11548.80 243.79 o
479 4 -6 3 -3 8108.08 6823.28 201.27 o
479 3 3 6 3 8108.08 6823.28 201.27 o
479 1 6 -3 3 8108.08 6823.28 201.27 o
480 4 -8 3 -3 4689.63 3963.00 155.91 o
480 3 4 7 5 4689.63 3963.00 155.91 o
480 2 -1 -4 11 4689.63 3963.00 155.91 o
480 1 8 -3 3 4689.63 3963.00 155.91 o
481 4 -10 3 -3 1475.35 1275.64 189.93 o
481 3 5 8 7 1475.35 1275.64 189.93 o
481 2 -2 -5 13 1475.35 1275.64 189.93 o
481 1 10 -3 3 1475.35 1275.64 189.93 o
482 4 -3 2 -3 5730.59 6296.02 130.40 o
482 2 1 -2 5 5730.59 6296.02 130.40 o
482 1 3 -2 3 5730.59 6296.02 130.40 o
483 4 2 -3 3 7008.46 6984.86 226.78 o
483 3 -1 -4 1 7008.46 6984.86 226.78 o
483 2 -2 1 -5 7008.46 6984.86 226.78 o
483 1 -2 3 -3 7008.46 6984.86 226.78 o
484 4 3 -2 3 5730.59 6466.10 218.28 o
484 2 -1 2 -5 5730.59 6466.10 218.28 o
484 1 -3 2 -3 5730.59 6466.10 218.28 o
485 4 -5 2 -3 17.46 90.71 127.56 <
485 1 5 -2 3 17.46 90.71 127.56 <
486 4 2 -5 3 17.46 53.86 107.72 <
486 1 -2 5 -3 17.46 53.86 107.72 <
487 4 -7 2 -3 1769.57 2157.26 127.56 o
487 2 -1 -4 9 1769.57 2157.26 127.56 o
487 1 7 -2 3 1769.57 2157.26 127.56 o
488 4 2 -7 3 1769.56 -62.36 181.43 <
488 2 -4 -1 -9 1769.56 -62.36 181.43 <
488 1 -2 7 -3 1769.56 -62.36 181.43 <
489 4 -9 2 -3 916.05 827.75 150.24 o
489 2 -2 -5 11 916.05 827.75 150.24 o
489 1 9 -2 3 916.05 827.75 150.24 o
490 4 2 -9 3 916.05 915.63 263.63 o
490 2 -5 -2 -11 916.05 915.63 263.63 o
490 1 -2 9 -3 916.05 915.63 263.63 o
491 4 -2 1 -3 15841.50 19231.10 223.95 o
491 2 1 -2 3 15841.50 19231.10 223.95 o
491 1 2 -1 3 15841.50 19231.10 223.95 o
492 4 1 -2 3 15841.50 19758.30 232.45 o
492 2 -2 1 -3 15841.50 19758.30 232.45 o
492 1 -1 2 -3 15841.50 19758.30 232.45 o
493 4 -4 1 -3 22738.90 21583.90 206.94 o
493 1 4 -1 3 22738.90 21583.90 206.94 o
494 4 1 -4 3 22738.90 23590.90 212.61 o
494 1 -1 4 -3 22738.90 23590.90 212.61 o
495 4 -6 1 -3 18682.10 19270.70 161.58 o
495 2 -1 -4 7 18682.10 19270.70 161.58 o
495 1 6 -1 3 18682.10 19270.70 161.58 o
496 4 1 -6 3 18682.10 19463.50 274.97 o
496 2 -4 -1 -7 18682.10 19463.50 274.97 o
496 1 -1 6 -3 18682.10 19463.50 274.97 o
497 4 -8 1 -3 6200.26 6089.08 141.74 o
497 2 -2 -5 9 6200.26 6089.08 141.74 o
497 1 8 -1 3 6200.26 6089.08 141.74 o
498 4 1 -8 3 6200.26 -65.20 243.79 <
498 2 -5 -2 -9 6200.26 -65.20 243.79 <
498 1 -1 8 -3 6200.26 -65.20 243.79 <
499 4 -10 1 -3 1401.49 1255.80 161.58 o
499 2 -3 -6 11 1401.49 1255.80 161.58 o
499 1 10 -1 3 1401.49 1255.80 161.58 o
500 4 1 -10 3 1401.48 1406.04 357.18 o
500 2 -6 -3 -11 1401.48 1406.04 357.18 o
500 1 -1 10 -3 1401.48 1406.04 357.18 o
501 4 -2 -1 -3 12209.30 14859.80 181.43 o
501 1 2 1 3 12209.30 14859.80 181.43 o
502 4 -1 -2 3 12209.30 14372.30 365.68 o
502 1 1 2 -3 12209.30 14372.30 365.68 o
503 4 -4 -1 -3 29503.70 33163.90 204.10 o
503 2 -1 -4 3 29503.70 33163.90 204.10 o
503 1 4 1 3 29503.70 33163.90 204.10 o
504 4 -1 -4 3 29503.70 28106.70 405.37 o
504 2 -4 -1 -3 29503.70 28106.70 405.37 o
504 1 1 4 -3 29503.70 28106.70 405.37 o
505 4 -6 -1 -3 16373.20 19250.90 155.91 o
505 2 -2 -5 5 16373.20 19250.90 155.91 o
505 1 6 1 3 16373.20 19250.90 155.91 o
506 4 -1 -6 3 16373.20 19593.90 351.51 o
506 2 -5 -2 -5 16373.20 19593.90 351.51 o
506 1 1 6 -3 16373.20 19593.90 351.51 o
507 4 -8 -1 -3 7061.85 7132.27 144.57 o
507 2 -3 -6 7 7061.85 7132.27 144.57 o
507 1 8 1 3 7061.85 7132.27 144.57 o
508 4 -1 -8 3 7061.85 7248.50 331.67 o
508 2 -6 -3 -7 7061.85 7248.50 331.67 o
508 1 1 8 -3 7061.85 7248.50 331.67 o
509 4 -10 -1 -3 1301.18 1145.25 150.24 o
509 2 -4 -7 9 1301.18 1145.25 150.24 o
509 1 10 1 3 1301.18 1145.25 150.24 o
510 4 -1 -10 3 1301.19 223.95 379.86 <
510 2 -7 -4 -9 1301.19 223.95 379.86 <
510 1 1 10 -3 1301.19 223.95 379.86 <
511 4 1 -2 -3 15841.50 18967.40 433.72 o
511 2 1 -2 -3 15841.50 18967.40 433.72 o
511 1 -1 2 3 15841.50 18967.40 433.72 o
512 4 -2 1 3 15841.50 15962.60 402.54 o
512 2 -2 1 3 15841.50 15962.60 402.54 o
512 1 2 -1 -3 15841.50 15962.60 402.54 o
513 4 -1 -2 -3 12209.30 11716.10 181.43 o
513 1 1 2 3 12209.30 11716.10 181.43 o
514 4 -2 -1 3 12209.30 15217.00 343.01 o
514 1 2 1 -3 12209.30 15217.00 343.01 o
515 4 -3 -2 -3 12074.60 12484.30 201.27 o
515 2 -1 -4 1 12074.60 12484.30 201.27 o
515 1 3 2 3 12074.60 12484.30 201.27 o
516 4 -2 -3 3 12402.30 7546.15 283.48 o
516 3 1 -2 5 12402.30 7546.15 283.48 o
516 2 -4 -1 -1 12402.30 7546.15 283.48 o
516 1 2 3 -3 12402.30 7546.15 283.48 o
517 4 -5 -2 -3 22.65 93.55 99.22 <
517 2 -2 -5 3 22.65 93.55 99.22 <
517 1 5 2 3 22.65 93.55 99.22 <
518 4 -2 -5 3 22.65 141.74 158.75 <
518 2 -5 -2 -3 22.65 141.74 158.75 <
518 1 2 5 -3 22.65 141.74 158.75 <
519 4 -7 -2 -3 2287.88 2361.36 113.39 o
519 2 -3 -6 5 2287.88 2361.36 113.39 o
519 1 7 2 3 2287.88 2361.36 113.39 o
520 4 -2 -7 3 2287.89 1737.71 291.98 o
520 2 -6 -3 -5 2287.89 1737.71 291.98 o
520 1 2 7 -3 2287.89 1737.71 291.98 o
521 4 -9 -2 -3 1034.69 1068.71 121.89 o
521 2 -4 -7 7 1034.69 1068.71 121.89 o
521 1 9 2 3 1034.69 1068.71 121.89 o
522 4 -2 -9 3 1034.69 1629.99 326.00 o
522 2 -7 -4 -7 1034.69 1629.99 326.00 o
522 1 2 9 -3 1034.69 1629.99 326.00 o
523 4 2 -3 -3 5730.59 4133.09 223.95 o
523 2 1 -2 -5 5730.59 4133.09 223.95 o
523 1 -2 3 3 5730.59 4133.09 223.95 o
524 4 -3 2 3 5730.59 5652.52 221.11 o
524 2 -2 1 5 5730.59 5652.52 221.11 o
524 1 3 -2 -3 5730.59 5652.52 221.11 o
525 4 -2 -3 -3 12074.30 9740.26 192.76 o
525 2 -1 -4 -1 12074.30 9740.26 192.76 o
525 1 2 3 3 12074.30 9740.26 192.76 o
526 4 -3 -2 3 12074.60 13436.80 198.43 o
526 2 -4 -1 1 12074.60 13436.80 198.43 o
526 1 3 2 -3 12074.60 13436.80 198.43 o
527 4 -4 -3 -3 8143.54 10273.20 175.76 o
527 2 -2 -5 1 8143.54 10273.20 175.76 o
527 1 4 3 3 8143.54 10273.20 175.76 o
528 4 -3 -4 3 8143.56 11183.20 178.59 o
528 2 -5 -2 -1 8143.56 11183.20 178.59 o
528 1 3 4 -3 8143.56 11183.20 178.59 o
529 4 -6 -3 -3 10071.60 10434.80 181.43 o
529 2 -3 -6 3 10071.60 10434.80 181.43 o
529 1 6 3 3 10071.60 10434.80 181.43 o
530 4 -3 -6 3 10071.60 11582.90 263.63 o
530 2 -6 -3 -3 10071.60 11582.90 263.63 o
530 1 3 6 -3 10071.60 11582.90 263.63 o
531 4 -8 -3 -3 4476.86 3106.90 116.22 o
531 2 -4 -7 5 4476.86 3106.90 116.22 o
531 1 8 3 3 4476.86 3106.90 116.22 o
532 4 -3 -8 3 4476.86 5340.70 232.45 o
532 2 -7 -4 -5 4476.86 5340.70 232.45 o
532 1 3 8 -3 4476.86 5340.70 232.45 o
533 4 -10 -3 -3 1637.81 1740.55 155.91 o
533 2 -5 -8 7 1637.81 1740.55 155.91 o
533 1 10 3 3 1637.81 1740.55 155.91 o
534 4 -3 -10 3 1637.81 1553.45 340.17 o
534 2 -8 -5 -7 1637.81 1553.45 340.17 o
534 1 3 10 -3 1637.81 1553.45 340.17 o
535 4 -4 3 3 9252.93 11801.10 170.09 o
535 2 -2 1 7 9252.93 11801.10 170.09 o
535 1 4 -3 -3 9252.93 11801.10 170.09 o
536 4 1 -4 -3 22738.90 24384.70 365.68 o
536 1 -1 4 3 22738.90 24384.70 365.68 o
537 4 -4 1 3 22738.90 30703.40 399.70 o
537 1 4 -1 -3 22738.90 30703.40 399.70 o
538 4 -1 -4 -3 29503.70 32486.40 320.33 o
538 2 -1 -4 -3 29503.70 32486.40 320.33 o
538 1 1 4 3 29503.70 32486.40 320.33 o
539 4 -4 -1 3 29503.70 32319.20 257.96 o
539 2 -4 -1 3 29503.70 32319.20 257.96 o
539 1 4 1 -3 29503.70 32319.20 257.96 o
540 4 -3 -4 -3 8143.56 5448.42 138.90 o
540 2 -2 -5 -1 8143.56 5448.42 138.90 o
540 1 3 4 3 8143.56 5448.42 138.90 o
541 4 3 4 3 8143.55 12682.70 229.62 o
541 2 2 5 1 8143.55 12682.70 229.62 o
541 1 -3 -4 -3 8143.55 12682.70 229.62 o
542 4 -4 -3 3 8310.35 11843.70 255.13 o
542 3 2 -1 7 8310.35 11843.70 255.13 o
542 2 -5 -2 1 8310.35 11843.70 255.13 o
542 1 4 3 -3 8310.35 11843.70 255.13 o
543 4 -5 -4 -3 3078.97 1808.58 144.57 o
543 2 -3 -6 1 3078.97 1808.58 144.57 o
543 1 5 4 3 3078.97 1808.58 144.57 o
544 4 -4 -5 3 3078.86 2415.22 147.41 o
544 2 -6 -3 -1 3078.86 2415.22 147.41 o
544 1 4 5 -3 3078.86 2415.22 147.41 o
545 4 -7 -4 -3 1326.38 1349.35 150.24 o
545 2 -4 -7 3 1326.38 1349.35 150.24 o
545 1 7 4 3 1326.38 1349.35 150.24 o
546 4 -4 -7 3 1326.38 1513.77 127.56 o
546 2 -7 -4 -3 1326.38 1513.77 127.56 o
546 1 4 7 -3 1326.38 1513.77 127.56 o
547 4 -9 -4 -3 2226.84 1973.00 133.23 o
547 2 -5 -8 5 2226.84 1973.00 133.23 o
547 1 9 4 3 2226.84 1973.00 133.23 o
548 4 -4 -9 3 2226.84 2168.60 334.50 o
548 2 -8 -5 -5 2226.84 2168.60 334.50 o
548 1 4 9 -3 2226.84 2168.60 334.50 o
549 4 -5 4 3 738.38 853.27 121.89 o
549 2 -2 1 9 738.38 853.27 121.89 o
549 1 5 -4 -3 738.38 853.27 121.89 o
550 4 2 -5 -3 17.46 175.76 255.13 <
550 1 -2 5 3 17.46 175.76 255.13 <
551 4 -5 2 3 17.46 116.22 170.09 <
551 1 5 -2 -3 17.46 116.22 170.09 <
552 4 -2 -5 -3 22.65 119.06 141.74 <
552 2 -2 -5 -3 22.65 119.06 141.74 <
552 1 2 5 3 22.65 119.06 141.74 <
553 4 -5 -2 3 22.65 104.89 119.06 <
553 2 -5 -2 3 22.65 104.89 119.06 <
553 1 5 2 -3 22.65 104.89 119.06 <
554 4 -4 -5 -3 3078.86 1882.28 147.41 o
554 2 -3 -6 -1 3078.86 1882.28 147.41 o
554 1 4 5 3 3078.86 1882.28 147.41 o
555 4 -5 -4 3 3078.97 2744.05 130.40 o
555 2 -6 -3 1 3078.97 2744.05 130.40 o
555 1 5 4 -3 3078.97 2744.05 130.40 o
556 4 -6 -5 -3 1388.62 1366.36 133.23 o
556 2 -4 -7 1 1388.62 1366.36 133.23 o
556 1 6 5 3 1388.62 1366.36 133.23 o
557 4 -5 -6 3 1388.62 1389.04 147.41 o
557 2 -7 -4 -1 1388.62 1389.04 147.41 o
557 1 5 6 -3 1388.62 1389.04 147.41 o
558 4 -8 -5 -3 2127.09 1780.23 167.25 o
558 2 -5 -8 3 2127.09 1780.23 167.25 o
558 1 8 5 3 2127.09 1780.23 167.25 o
559 4 -5 -8 3 2127.09 2094.89 314.66 o
559 2 -8 -5 -3 2127.09 2094.89 314.66 o
559 1 5 8 -3 2127.09 2094.89 314.66 o
560 4 -6 5 3 1199.64 1230.29 119.06 o
560 2 -2 1 11 1199.64 1230.29 119.06 o
560 1 6 -5 -3 1199.64 1230.29 119.06 o
561 4 -6 3 3 7762.31 8682.89 204.10 o
561 1 6 -3 -3 7762.31 8682.89 204.10 o
562 4 1 -6 -3 18682.10 19863.20 277.81 o
562 2 -1 -4 -7 18682.10 19863.20 277.81 o
562 1 -1 6 3 18682.10 19863.20 277.81 o
563 4 -6 1 3 18682.10 21844.70 243.79 o
563 2 -4 -1 7 18682.10 21844.70 243.79 o
563 1 6 -1 -3 18682.10 21844.70 243.79 o
564 4 -1 -6 -3 16373.20 20926.20 328.83 o
564 2 -2 -5 -5 16373.20 20926.20 328.83 o
564 1 1 6 3 16373.20 20926.20 328.83 o
565 4 -6 -1 3 16373.20 21289.10 209.77 o
565 2 -5 -2 5 16373.20 21289.10 209.77 o
565 1 6 1 -3 16373.20 21289.10 209.77 o
566 4 -3 -6 -3 10071.60 10471.60 212.61 o
566 2 -3 -6 -3 10071.60 10471.60 212.61 o
566 1 3 6 3 10071.60 10471.60 212.61 o
567 4 3 6 3 10071.60 12297.20 252.29 o
567 2 3 6 3 10071.60 12297.20 252.29 o
567 1 -3 -6 -3 10071.60 12297.20 252.29 o
568 4 -6 -3 3 10071.60 11322.10 252.29 o
568 2 -6 -3 3 10071.60 11322.10 252.29 o
568 1 6 3 -3 10071.60 11322.10 252.29 o
569 4 -5 -6 -3 1388.62 1071.54 164.42 o
569 2 -4 -7 -1 1388.62 1071.54 164.42 o
569 1 5 6 3 1388.62 1071.54 164.42 o
570 4 -6 -5 3 1388.63 1542.11 158.75 o
570 2 -7 -4 1 1388.63 1542.11 158.75 o
570 1 6 5 -3 1388.63 1542.11 158.75 o
571 4 -7 -6 -3 776.60 615.14 189.93 o
571 2 -5 -8 1 776.60 615.14 189.93 o
571 1 7 6 3 776.60 615.14 189.93 o
572 4 -6 -7 3 776.62 552.78 153.08 o
572 2 -8 -5 -1 776.62 552.78 153.08 o
572 1 6 7 -3 776.62 552.78 153.08 o
573 4 -7 6 3 243.63 110.56 138.90 <
573 2 -2 1 13 243.63 110.56 138.90 <
573 1 7 -6 -3 243.63 110.56 138.90 <
574 4 -7 4 3 1022.26 1116.90 136.07 o
574 1 7 -4 -3 1022.26 1116.90 136.07 o
575 4 2 -7 -3 1769.57 498.92 280.64 <
575 2 -1 -4 -9 1769.57 498.92 280.64 <
575 1 -2 7 3 1769.57 498.92 280.64 <
576 4 -7 2 3 1769.57 1904.96 141.74 o
576 2 -4 -1 9 1769.57 1904.96 141.74 o
576 1 7 -2 -3 1769.57 1904.96 141.74 o
577 4 -2 -7 -3 2287.89 1374.86 212.61 o
577 2 -3 -6 -5 2287.89 1374.86 212.61 o
577 1 2 7 3 2287.89 1374.86 212.61 o
578 4 -7 -2 3 2287.87 2409.55 150.24 o
578 2 -6 -3 5 2287.87 2409.55 150.24 o
578 1 7 2 -3 2287.87 2409.55 150.24 o
579 4 -4 -7 -3 1326.38 1258.64 201.27 o
579 2 -4 -7 -3 1326.38 1258.64 201.27 o
579 1 4 7 3 1326.38 1258.64 201.27 o
580 4 -7 -4 3 1326.38 1247.30 150.24 o
580 2 -7 -4 3 1326.38 1247.30 150.24 o
580 1 7 4 -3 1326.38 1247.30 150.24 o
581 4 -6 -7 -3 776.62 527.27 175.76 o
581 2 -5 -8 -1 776.62 527.27 175.76 o
581 1 6 7 3 776.62 527.27 175.76 o
582 4 -7 -6 3 776.60 785.23 178.59 o
582 2 -8 -5 1 776.60 785.23 178.59 o
582 1 7 6 -3 776.60 785.23 178.59 o
583 4 -8 5 3 1639.38 1369.19 170.09 o
583 1 8 -5 -3 1639.38 1369.19 170.09 o
584 4 3 -8 -3 4658.30 2891.46 357.18 o
584 2 -1 -4 -11 4658.30 2891.46 357.18 o
584 1 -3 8 3 4658.30 2891.46 357.18 o
585 4 -8 3 3 4658.30 4671.70 181.43 o
585 2 -4 -1 11 4658.30 4671.70 181.43 o
585 1 8 -3 -3 4658.30 4671.70 181.43 o
586 4 1 -8 -3 6200.26 4578.15 320.33 o
586 2 -2 -5 -9 6200.26 4578.15 320.33 o
586 1 -1 8 3 6200.26 4578.15 320.33 o
587 4 -8 1 3 6200.26 6763.75 187.10 o
587 2 -5 -2 9 6200.26 6763.75 187.10 o
587 1 8 -1 -3 6200.26 6763.75 187.10 o
588 4 -1 -8 -3 7061.85 7421.42 257.96 o
588 2 -3 -6 -7 7061.85 7421.42 257.96 o
588 1 1 8 3 7061.85 7421.42 257.96 o
589 4 -8 -1 3 7061.85 7653.87 175.76 o
589 2 -6 -3 7 7061.85 7653.87 175.76 o
589 1 8 1 -3 7061.85 7653.87 175.76 o
590 4 -3 -8 -3 4476.86 4759.57 232.45 o
590 2 -4 -7 -5 4476.86 4759.57 232.45 o
590 1 3 8 3 4476.86 4759.57 232.45 o
591 4 3 8 3 4476.86 4495.94 215.44 o
591 2 4 7 5 4476.86 4495.94 215.44 o
591 1 -3 -8 -3 4476.86 4495.94 215.44 o
592 4 -8 -3 3 4535.35 4606.50 226.78 o
592 3 4 1 11 4535.35 4606.50 226.78 o
592 2 -7 -4 5 4535.35 4606.50 226.78 o
592 1 8 3 -3 4535.35 4606.50 226.78 o
593 4 -5 -8 -3 2127.09 2075.05 218.28 o
593 2 -5 -8 -3 2127.09 2075.05 218.28 o
593 1 5 8 3 2127.09 2075.05 218.28 o
594 4 -8 -5 3 2127.09 2069.38 167.25 o
594 2 -8 -5 3 2127.09 2069.38 167.25 o
594 1 8 5 -3 2127.09 2069.38 167.25 o
595 4 -9 4 3 2017.60 1593.14 167.25 o
595 2 -4 -1 13 2017.60 1593.14 167.25 o
595 1 9 -4 -3 2017.60 1593.14 167.25 o
596 4 2 -9 -3 916.05 773.89 306.15 o
596 2 -2 -5 -11 916.05 773.89 306.15 o
596 1 -2 9 3 916.05 773.89 306.15 o
597 4 -9 2 3 916.05 1131.07 150.24 o
597 2 -5 -2 11 916.05 1131.07 150.24 o
597 1 9 -2 -3 916.05 1131.07 150.24 o
598 4 -2 -9 -3 1034.69 1326.67 243.79 o
598 2 -4 -7 -7 1034.69 1326.67 243.79 o
598 1 2 9 3 1034.69 1326.67 243.79 o
599 4 -9 -2 3 1034.69 1094.22 167.25 o
599 2 -7 -4 7 1034.69 1094.22 167.25 o
599 1 9 2 -3 1034.69 1094.22 167.25 o
600 4 -4 -9 -3 2226.84 2128.91 257.96 o
600 2 -5 -8 -5 2226.84 2128.91 257.96 o
600 1 4 9 3 2226.84 2128.91 257.96 o
601 4 -9 -4 3 2226.84 1961.66 170.09 o
601 2 -8 -5 5 2226.84 1961.66 170.09 o
601 1 9 4 -3 2226.84 1961.66 170.09 o
602 4 3 -10 -3 1446.61 377.02 447.89 <
602 2 -2 -5 -13 1446.61 377.02 447.89 <
602 1 -3 10 3 1446.61 377.02 447.89 <
603 4 -10 3 3 1446.61 1312.50 195.60 o
603 2 -5 -2 13 1446.61 1312.50 195.60 o
603 1 10 -3 -3 1446.61 1312.50 195.60 o
604 4 1 -10 -3 1401.48 632.15 317.49 <
604 2 -3 -6 -11 1401.48 632.15 317.49 <
604 1 -1 10 3 1401.48 632.15 317.49 <
605 4 -10 1 3 1401.48 1247.30 161.58 o
605 2 -6 -3 11 1401.48 1247.30 161.58 o
605 1 10 -1 -3 1401.48 1247.30 161.58 o
606 4 -1 -10 -3 1301.19 1162.25 269.30 o
606 2 -4 -7 -9 1301.19 1162.25 269.30 o
606 1 1 10 3 1301.19 1162.25 269.30 o
607 4 -10 -1 3 1301.18 1051.70 164.42 o
607 2 -7 -4 9 1301.18 1051.70 164.42 o
607 1 10 1 -3 1301.18 1051.70 164.42 o
608 4 -3 -10 -3 1637.81 1715.03 274.97 o
608 2 -5 -8 -7 1637.81 1715.03 274.97 o
608 1 3 10 3 1637.81 1715.03 274.97 o
609 4 3 10 3 1637.81 1904.96 229.62 o
609 2 5 8 7 1637.81 1904.96 229.62 o
609 1 -3 -10 -3 1637.81 1904.96 229.62 o
610 4 -10 -3 3 1637.92 1519.43 269.30 o
610 3 5 2 13 1637.92 1519.43 269.30 o
610 2 -8 -5 7 1637.92 1519.43 269.30 o
610 1 10 3 -3 1637.92 1519.43 269.30 o
611 4 -4 8 -4 28168.60 28821.10 388.36 o
611 2 4 0 12 28168.60 28821.10 388.36 o
611 1 4 -8 4 28168.60 28821.10 388.36 o
612 4 4 -8 4 27967.50 924.13 243.79 o
612 2 -4 0 -12 27967.50 924.13 243.79 o
612 1 -4 8 -4 27967.50 924.13 243.79 o
613 4 -7 7 -4 3476.97 2171.43 306.15 o
613 2 2 -2 14 3476.97 2171.43 306.15 o
613 1 7 -7 4 3476.97 2171.43 306.15 o
614 4 7 -7 4 3000.03 1726.37 277.81 o
614 2 -2 2 -14 3000.03 1726.37 277.81 o
614 1 -7 7 -4 3000.03 1726.37 277.81 o
615 4 -4 6 -4 17503.90 14349.60 274.97 o
615 2 3 -1 10 17503.90 14349.60 274.97 o
615 1 4 -6 4 17503.90 14349.60 274.97 o
616 4 4 -6 4 17121.40 17816.50 289.15 o
616 2 -3 1 -10 17121.40 17816.50 289.15 o
616 1 -4 6 -4 17121.40 17816.50 289.15 o
617 4 -6 6 -4 45307.90 50631.80 428.05 o
617 2 2 -2 12 45307.90 50631.80 428.05 o
617 1 6 -6 4 45307.90 50631.80 428.05 o
618 4 6 -6 4 44999.80 44270.50 422.38 o
618 2 -2 2 -12 44999.80 44270.50 422.38 o
618 1 -6 6 -4 44999.80 44270.50 422.38 o
619 4 -8 6 -4 5248.86 3098.40 172.92 o
619 2 1 -3 14 5248.86 3098.40 172.92 o
619 1 8 -6 4 5248.86 3098.40 172.92 o
620 4 6 -8 4 5024.11 280.64 235.29 <
620 2 -3 1 -14 5024.11 280.64 235.29 <
620 1 -6 8 -4 5024.11 280.64 235.29 <
621 4 -5 5 -4 10967.20 11574.40 272.14 o
621 2 2 -2 10 10967.20 11574.40 272.14 o
621 1 5 -5 4 10967.20 11574.40 272.14 o
622 4 5 -5 4 9817.24 12957.70 274.97 o
622 2 -2 2 -10 9817.24 12957.70 274.97 o
622 1 -5 5 -4 9817.24 12957.70 274.97 o
623 4 -7 5 -4 49744.40 47130.80 303.32 o
623 2 1 -3 12 49744.40 47130.80 303.32 o
623 1 7 -5 4 49744.40 47130.80 303.32 o
624 4 5 -7 4 49873.30 44398.10 294.82 o
624 2 -3 1 -12 49873.30 44398.10 294.82 o
624 1 -5 7 -4 49873.30 44398.10 294.82 o
625 4 -9 5 -4 5405.56 3121.08 175.76 o
625 2 0 -4 14 5405.56 3121.08 175.76 o
625 1 9 -5 4 5405.56 3121.08 175.76 o
626 4 5 -9 4 5058.32 2936.82 326.00 o
626 2 -4 0 -14 5058.32 2936.82 326.00 o
626 1 -5 9 -4 5058.32 2936.82 326.00 o
627 4 -4 4 -4 119678.00 112421.00 552.78 o
627 3 2 6 0 119678.00 112421.00 552.78 o
627 2 2 -2 8 119678.00 112421.00 552.78 o
627 1 4 -4 4 119678.00 112421.00 552.78 o
628 4 4 -4 4 118793.00 140797.00 606.64 o
628 3 -2 -6 0 118793.00 140797.00 606.64 o
628 2 -2 2 -8 118793.00 140797.00 606.64 o
628 1 -4 4 -4 118793.00 140797.00 606.64 o
629 4 -6 4 -4 17588.50 16886.70 289.15 o
629 3 3 7 2 17588.50 16886.70 289.15 o
629 2 1 -3 10 17588.50 16886.70 289.15 o
629 1 6 -4 4 17588.50 16886.70 289.15 o
630 4 4 -6 4 17121.40 18114.20 277.81 o
630 2 -3 1 -10 17121.40 18114.20 277.81 o
630 1 -4 6 -4 17121.40 18114.20 277.81 o
631 4 -8 4 -4 29069.50 30278.10 246.62 o
631 3 4 8 4 29069.50 30278.10 246.62 o
631 2 0 -4 12 29069.50 30278.10 246.62 o
631 1 8 -4 4 29069.50 30278.10 246.62 o
632 4 -3 3 -4 47410.90 51476.50 402.54 o
632 2 2 -2 6 47410.90 51476.50 402.54 o
632 1 3 -3 4 47410.90 51476.50 402.54 o
633 4 3 -3 4 45436.90 63005.50 430.88 o
633 2 -2 2 -6 45436.90 63005.50 430.88 o
633 1 -3 3 -4 45436.90 63005.50 430.88 o
634 4 -5 3 -4 107842.00 97876.00 368.52 o
634 2 1 -3 8 107842.00 97876.00 368.52 o
634 1 5 -3 4 107842.00 97876.00 368.52 o
635 4 3 -5 4 107808.00 111851.00 391.20 o
635 2 -3 1 -8 107808.00 111851.00 391.20 o
635 1 -3 5 -4 107808.00 111851.00 391.20 o
636 4 -7 3 -4 13833.40 13913.00 161.58 o
636 2 0 -4 10 13833.40 13913.00 161.58 o
636 1 7 -3 4 13833.40 13913.00 161.58 o
637 4 3 -7 4 13013.70 14358.10 291.98 o
637 2 -4 0 -10 13013.70 14358.10 291.98 o
637 1 -3 7 -4 13013.70 14358.10 291.98 o
638 4 -9 3 -4 22720.80 20778.80 195.60 o
638 2 -1 -5 12 22720.80 20778.80 195.60 o
638 1 9 -3 4 22720.80 20778.80 195.60 o
639 4 3 -9 4 22943.00 16858.40 337.34 o
639 2 -5 -1 -12 22943.00 16858.40 337.34 o
639 1 -3 9 -4 22943.00 16858.40 337.34 o
640 4 -2 2 -4 317940.00 193232.00 768.22 o
640 2 2 -2 4 317940.00 193232.00 768.22 o
640 1 2 -2 4 317940.00 193232.00 768.22 o
641 4 2 -2 4 316762.00 256855.00 881.61 o
641 2 -2 2 -4 316762.00 256855.00 881.61 o
641 1 -2 2 -4 316762.00 256855.00 881.61 o
642 4 -4 2 -4 33423.90 33362.40 232.45 o
642 2 1 -3 6 33423.90 33362.40 232.45 o
642 1 4 -2 4 33423.90 33362.40 232.45 o
643 4 2 -4 4 33333.90 36747.10 354.35 o
643 3 -1 -5 2 33333.90 36747.10 354.35 o
643 2 -3 1 -6 33333.90 36747.10 354.35 o
643 1 -2 4 -4 33333.90 36747.10 354.35 o
644 4 4 -2 4 33073.20 39780.30 331.67 o
644 2 -1 3 -6 33073.20 39780.30 331.67 o
644 1 -4 2 -4 33073.20 39780.30 331.67 o
645 4 -6 2 -4 71012.90 78565.50 340.17 o
645 2 0 -4 8 71012.90 78565.50 340.17 o
645 1 6 -2 4 71012.90 78565.50 340.17 o
646 4 2 -6 4 70398.00 75444.50 464.90 o
646 2 -4 0 -8 70398.00 75444.50 464.90 o
646 1 -2 6 -4 70398.00 75444.50 464.90 o
647 4 -8 2 -4 23656.60 19925.60 175.76 o
647 2 -1 -5 10 23656.60 19925.60 175.76 o
647 1 8 -2 4 23656.60 19925.60 175.76 o
648 4 2 -8 4 23666.90 22179.20 351.51 o
648 2 -5 -1 -10 23666.90 22179.20 351.51 o
648 1 -2 8 -4 23666.90 22179.20 351.51 o
649 4 -10 2 -4 10368.50 10114.40 187.10 o
649 2 -2 -6 12 10368.50 10114.40 187.10 o
649 1 10 -2 4 10368.50 10114.40 187.10 o
650 4 2 -10 4 10302.40 9879.16 345.84 o
650 2 -6 -2 -12 10302.40 9879.16 345.84 o
650 1 -2 10 -4 10302.40 9879.16 345.84 o
651 4 -1 1 -4 147137.00 93768.40 612.31 o
651 2 2 -2 2 147137.00 93768.40 612.31 o
651 1 1 -1 4 147137.00 93768.40 612.31 o
652 4 1 -1 4 146466.00 123290.00 694.52 o
652 2 -2 2 -2 146466.00 123290.00 694.52 o
652 1 -1 1 -4 146466.00 123290.00 694.52 o
653 4 -3 1 -4 155391.00 125101.00 439.39 o
653 2 1 -3 4 155391.00 125101.00 439.39 o
653 1 3 -1 4 155391.00 125101.00 439.39 o
654 4 1 -3 4 155331.00 151297.00 479.08 o
654 2 -3 1 -4 155331.00 151297.00 479.08 o
654 1 -1 3 -4 155331.00 151297.00 479.08 o
655 4 -5 1 -4 49398.40 54827.20 291.98 o
655 2 0 -4 6 49398.40 54827.20 291.98 o
655 1 5 -1 4 49398.40 54827.20 291.98 o
656 4 1 -5 4 48060.20 57713.00 419.55 o
656 2 -4 0 -6 48060.20 57713.00 419.55 o
656 1 -1 5 -4 48060.20 57713.00 419.55 o
657 4 -7 1 -4 45146.10 49095.30 223.95 o
657 2 -1 -5 8 45146.10 49095.30 223.95 o
657 1 7 -1 4 45146.10 49095.30 223.95 o
658 4 1 -7 4 45462.00 51853.50 411.04 o
658 2 -5 -1 -8 45462.00 51853.50 411.04 o
658 1 -1 7 -4 45462.00 51853.50 411.04 o
659 4 -9 1 -4 15471.90 14596.20 178.59 o
659 2 -2 -6 10 15471.90 14596.20 178.59 o
659 1 9 -1 4 15471.90 14596.20 178.59 o
660 4 1 -9 4 15141.80 16356.60 354.35 o
660 2 -6 -2 -10 15141.80 16356.60 354.35 o
660 1 -1 9 -4 15141.80 16356.60 354.35 o
661 4 0 0 -4 524975.00 217954.00 1148.08 o
661 2 2 -2 0 524975.00 217954.00 1148.08 o
661 1 0 0 4 524975.00 217954.00 1148.08 o
662 4 0 0 4 525054.00 267520.00 1221.78 o
662 2 -2 2 0 525054.00 267520.00 1221.78 o
662 1 0 0 -4 525054.00 267520.00 1221.78 o
663 4 -2 0 -4 35713.90 43502.30 306.15 o
663 2 1 -3 2 35713.90 43502.30 306.15 o
663 1 2 0 4 35713.90 43502.30 306.15 o
664 4 0 -2 4 35128.10 48103.20 320.33 o
664 2 -3 1 -2 35128.10 48103.20 320.33 o
664 1 0 2 -4 35128.10 48103.20 320.33 o
665 4 -4 0 -4 191629.00 165601.00 493.25 o
665 2 0 -4 4 191629.00 165601.00 493.25 o
665 1 4 0 4 191629.00 165601.00 493.25 o
666 4 0 -4 4 197435.00 169502.00 765.39 o
666 3 0 -4 4 197435.00 169502.00 765.39 o
666 2 -4 0 -4 197435.00 169502.00 765.39 o
666 1 0 4 -4 197435.00 169502.00 765.39 o
667 4 -6 0 -4 36226.90 35522.50 181.43 o
667 2 -1 -5 6 36226.90 35522.50 181.43 o
667 1 6 0 4 36226.90 35522.50 181.43 o
668 4 0 -6 4 36365.90 42348.60 425.21 o
668 2 -5 -1 -6 36365.90 42348.60 425.21 o
668 1 0 6 -4 36365.90 42348.60 425.21 o
669 4 -8 0 -4 23998.50 30867.80 192.76 o
669 2 -2 -6 8 23998.50 30867.80 192.76 o
669 1 8 0 4 23998.50 30867.80 192.76 o
670 4 0 -8 4 23760.50 28381.70 413.88 o
670 2 -6 -2 -8 23760.50 28381.70 413.88 o
670 1 0 8 -4 23760.50 28381.70 413.88 o
671 4 -10 0 -4 18519.20 15988.10 181.43 o
671 2 -3 -7 10 18519.20 15988.10 181.43 o
671 1 10 0 4 18519.20 15988.10 181.43 o
672 4 0 -10 4 18720.20 18108.50 430.88 o
672 2 -7 -3 -10 18720.20 18108.50 430.88 o
672 1 0 10 -4 18720.20 18108.50 430.88 o
673 4 1 -1 -4 146477.00 76714.40 955.32 o
673 2 2 -2 -2 146477.00 76714.40 955.32 o
673 1 -1 1 4 146477.00 76714.40 955.32 o
674 4 -1 1 4 147126.00 111489.00 992.17 o
674 2 -2 2 2 147126.00 111489.00 992.17 o
674 1 1 -1 -4 147126.00 111489.00 992.17 o
675 4 -1 -1 -4 161580.00 114224.00 569.79 o
675 2 1 -3 0 161580.00 114224.00 569.79 o
675 1 1 1 4 161580.00 114224.00 569.79 o
676 4 -1 -1 4 161569.00 149449.00 637.82 o
676 2 -3 1 0 161569.00 149449.00 637.82 o
676 1 1 1 -4 161569.00 149449.00 637.82 o
677 4 -3 -1 -4 135910.00 123576.00 371.36 o
677 2 0 -4 2 135910.00 123576.00 371.36 o
677 1 3 1 4 135910.00 123576.00 371.36 o
678 4 -1 -3 4 135396.00 116353.00 700.19 o
678 2 -4 0 -2 135396.00 116353.00 700.19 o
678 1 1 3 -4 135396.00 116353.00 700.19 o
679 4 -5 -1 -4 51764.50 65423.60 252.29 o
679 2 -1 -5 4 51764.50 65423.60 252.29 o
679 1 5 1 4 51764.50 65423.60 252.29 o
680 4 -1 -5 4 52078.10 59946.80 493.25 o
680 2 -5 -1 -4 52078.10 59946.80 493.25 o
680 1 1 5 -4 52078.10 59946.80 493.25 o
681 4 -7 -1 -4 41252.60 47677.90 212.61 o
681 2 -2 -6 6 41252.60 47677.90 212.61 o
681 1 7 1 4 41252.60 47677.90 212.61 o
682 4 -1 -7 4 40745.70 49707.60 490.42 o
682 2 -6 -2 -6 40745.70 49707.60 490.42 o
682 1 1 7 -4 40745.70 49707.60 490.42 o
683 4 -9 -1 -4 16300.40 17637.90 172.92 o
683 2 -3 -7 8 16300.40 17637.90 172.92 o
683 1 9 1 4 16300.40 17637.90 172.92 o
684 4 -1 -9 4 16680.20 17419.60 391.20 o
684 2 -7 -3 -8 16680.20 17419.60 391.20 o
684 1 1 9 -4 16680.20 17419.60 391.20 o
685 4 0 -2 -4 35224.80 33787.60 402.54 o
685 2 1 -3 -2 35224.80 33787.60 402.54 o
685 1 0 2 4 35224.80 33787.60 402.54 o
686 4 -2 0 4 35617.30 27667.30 331.67 o
686 2 -3 1 2 35617.30 27667.30 331.67 o
686 1 2 0 -4 35617.30 27667.30 331.67 o
687 4 -2 -2 -4 307457.00 245542.00 569.79 o
687 2 0 -4 0 307457.00 245542.00 569.79 o
687 1 2 2 4 307457.00 245542.00 569.79 o
688 4 -2 -2 4 307518.00 240170.00 983.66 o
688 2 -4 0 0 307518.00 240170.00 983.66 o
688 1 2 2 -4 307518.00 240170.00 983.66 o
689 4 -4 -2 -4 30780.70 38439.40 209.77 o
689 2 -1 -5 2 30780.70 38439.40 209.77 o
689 1 4 2 4 30780.70 38439.40 209.77 o
690 4 -2 -4 4 31395.80 38524.50 413.88 o
690 3 1 -3 6 31395.80 38524.50 413.88 o
690 2 -5 -1 -2 31395.80 38524.50 413.88 o
690 1 2 4 -4 31395.80 38524.50 413.88 o
691 4 -6 -2 -4 64814.60 83262.80 266.47 o
691 2 -2 -6 4 64814.60 83262.80 266.47 o
691 1 6 2 4 64814.60 83262.80 266.47 o
692 4 -2 -6 4 64505.30 79798.70 510.26 o
692 2 -6 -2 -4 64505.30 79798.70 510.26 o
692 1 2 6 -4 64505.30 79798.70 510.26 o
693 4 -8 -2 -4 23299.00 24174.90 172.92 o
693 2 -3 -7 6 23299.00 24174.90 172.92 o
693 1 8 2 4 23299.00 24174.90 172.92 o
694 4 -2 -8 4 23647.90 28449.70 411.04 o
694 2 -7 -3 -6 23647.90 28449.70 411.04 o
694 1 2 8 -4 23647.90 28449.70 411.04 o
695 4 -10 -2 -4 10070.50 10335.60 158.75 o
695 2 -4 -8 8 10070.50 10335.60 158.75 o
695 1 10 2 4 10070.50 10335.60 158.75 o
696 4 -2 -10 4 9945.02 8648.87 402.54 o
696 2 -8 -4 -8 9945.02 8648.87 402.54 o
696 1 2 10 -4 9945.02 8648.87 402.54 o
697 4 -3 3 4 47378.40 58529.40 552.78 o
697 2 -2 2 6 47378.40 58529.40 552.78 o
697 1 3 -3 -4 47378.40 58529.40 552.78 o
698 4 1 -3 -4 155328.00 151694.00 912.79 o
698 2 1 -3 -4 155328.00 151694.00 912.79 o
698 1 -1 3 4 155328.00 151694.00 912.79 o
699 4 -3 1 4 155394.00 130453.00 836.26 o
699 2 -3 1 4 155394.00 130453.00 836.26 o
699 1 3 -1 -4 155394.00 130453.00 836.26 o
700 4 -1 -3 -4 135393.00 125348.00 459.23 o
700 2 0 -4 -2 135393.00 125348.00 459.23 o
700 1 1 3 4 135393.00 125348.00 459.23 o
701 4 -3 -1 4 135913.00 139422.00 762.55 o
701 2 -4 0 2 135913.00 139422.00 762.55 o
701 1 3 1 -4 135913.00 139422.00 762.55 o
702 4 -3 -3 -4 45337.40 36954.00 209.77 o
702 2 -1 -5 0 45337.40 36954.00 209.77 o
702 1 3 3 4 45337.40 36954.00 209.77 o
703 4 -3 -3 4 45304.80 50784.80 436.55 o
703 2 -5 -1 0 45304.80 50784.80 436.55 o
703 1 3 3 -4 45304.80 50784.80 436.55 o
704 4 -5 -3 -4 95475.60 103534.00 297.65 o
704 2 -2 -6 2 95475.60 103534.00 297.65 o
704 1 5 3 4 95475.60 103534.00 297.65 o
705 4 -3 -5 4 95274.80 109765.00 558.45 o
705 2 -6 -2 -2 95274.80 109765.00 558.45 o
705 1 3 5 -4 95274.80 109765.00 558.45 o
706 4 -7 -3 -4 13484.60 16064.60 141.74 o
706 2 -3 -7 4 13484.60 16064.60 141.74 o
706 1 7 3 4 13484.60 16064.60 141.74 o
707 4 -3 -7 4 13854.10 16441.60 300.48 o
707 2 -7 -3 -4 13854.10 16441.60 300.48 o
707 1 3 7 -4 13854.10 16441.60 300.48 o
708 4 -9 -3 -4 20935.10 21073.70 170.09 o
708 2 -4 -8 6 20935.10 21073.70 170.09 o
708 1 9 3 4 20935.10 21073.70 170.09 o
709 4 -3 -9 4 20736.90 24860.90 422.38 o
709 2 -8 -4 -6 20736.90 24860.90 422.38 o
709 1 3 9 -4 20736.90 24860.90 422.38 o
710 4 -4 4 4 116872.00 117124.00 680.34 o
710 2 -2 2 8 116872.00 117124.00 680.34 o
710 1 4 -4 -4 116872.00 117124.00 680.34 o
711 4 2 -4 -4 33121.50 37379.20 464.90 o
711 2 1 -3 -6 33121.50 37379.20 464.90 o
711 1 -2 4 4 33121.50 37379.20 464.90 o
712 4 -4 2 4 33375.50 37849.80 413.88 o
712 2 -3 1 6 33375.50 37849.80 413.88 o
712 1 4 -2 -4 33375.50 37849.80 413.88 o
713 4 0 -4 -4 190763.00 124109.00 632.15 o
713 2 0 -4 -4 190763.00 124109.00 632.15 o
713 1 0 4 4 190763.00 124109.00 632.15 o
714 4 -4 0 4 191671.00 198051.00 805.07 o
714 2 -4 0 4 191671.00 198051.00 805.07 o
714 1 4 0 -4 191671.00 198051.00 805.07 o
715 4 -2 -4 -4 30787.70 38011.40 294.82 o
715 2 -1 -5 -2 30787.70 38011.40 294.82 o
715 1 2 4 4 30787.70 38011.40 294.82 o
716 4 -4 -2 4 30732.30 40369.90 263.63 o
716 2 -5 -1 2 30732.30 40369.90 263.63 o
716 1 4 2 -4 30732.30 40369.90 263.63 o
717 4 -4 -4 -4 103879.00 100232.00 385.53 o
717 2 -2 -6 0 103879.00 100232.00 385.53 o
717 1 4 4 4 103879.00 100232.00 385.53 o
718 4 4 4 4 103907.00 134487.00 561.28 o
718 2 2 6 0 103907.00 134487.00 561.28 o
718 1 -4 -4 -4 103907.00 134487.00 561.28 o
719 4 -4 -4 4 108683.00 110009.00 569.79 o
719 3 2 -2 8 108683.00 110009.00 569.79 o
719 2 -6 -2 0 108683.00 110009.00 569.79 o
719 1 4 4 -4 108683.00 110009.00 569.79 o
720 4 -6 -4 -4 16065.00 17725.80 206.94 o
720 2 -3 -7 2 16065.00 17725.80 206.94 o
720 1 6 4 4 16065.00 17725.80 206.94 o
721 4 -4 -6 4 16221.80 19497.50 326.00 o
721 2 -7 -3 -2 16221.80 19497.50 326.00 o
721 1 4 6 -4 16221.80 19497.50 326.00 o
722 4 -8 -4 -4 25992.90 29050.70 189.93 o
722 2 -4 -8 4 25992.90 29050.70 189.93 o
722 1 8 4 4 25992.90 29050.70 189.93 o
723 4 -4 -8 4 25853.60 30680.70 343.01 o
723 2 -8 -4 -4 25853.60 30680.70 343.01 o
723 1 4 8 -4 25853.60 30680.70 343.01 o
724 4 -5 5 4 10936.90 9252.68 269.30 o
724 2 -2 2 10 10936.90 9252.68 269.30 o
724 1 5 -5 -4 10936.90 9252.68 269.30 o
725 4 -5 3 4 107863.00 137228.00 575.46 o
725 2 -3 1 8 107863.00 137228.00 575.46 o
725 1 5 -3 -4 107863.00 137228.00 575.46 o
726 4 1 -5 -4 48076.40 59113.40 481.91 o
726 2 0 -4 -6 48076.40 59113.40 481.91 o
726 1 -1 5 4 48076.40 59113.40 481.91 o
727 4 -5 1 4 49382.20 57931.30 439.39 o
727 2 -4 0 6 49382.20 57931.30 439.39 o
727 1 5 -1 -4 49382.20 57931.30 439.39 o
728 4 -1 -5 -4 52094.30 60406.00 422.38 o
728 2 -1 -5 -4 52094.30 60406.00 422.38 o
728 1 1 5 4 52094.30 60406.00 422.38 o
729 4 -5 -1 4 51748.20 66917.50 348.68 o
729 2 -5 -1 4 51748.20 66917.50 348.68 o
729 1 5 1 -4 51748.20 66917.50 348.68 o
730 4 -3 -5 -4 95253.10 99693.10 408.21 o
730 2 -2 -6 -2 95253.10 99693.10 408.21 o
730 1 3 5 4 95253.10 99693.10 408.21 o
731 4 -5 -3 4 95497.30 117433.00 396.87 o
731 2 -6 -2 2 95497.30 117433.00 396.87 o
731 1 5 3 -4 95497.30 117433.00 396.87 o
732 4 -5 -5 -4 9320.07 8597.85 178.59 o
732 2 -3 -7 0 9320.07 8597.85 178.59 o
732 1 5 5 4 9320.07 8597.85 178.59 o
733 4 -5 -5 4 9289.72 10216.50 175.76 o
733 2 -7 -3 0 9289.72 10216.50 175.76 o
733 1 5 5 -4 9289.72 10216.50 175.76 o
734 4 -7 -5 -4 45339.00 44865.80 274.97 o
734 2 -4 -8 2 45339.00 44865.80 274.97 o
734 1 7 5 4 45339.00 44865.80 274.97 o
735 4 -5 -7 4 45257.70 50277.40 430.88 o
735 2 -8 -4 -2 45257.70 50277.40 430.88 o
735 1 5 7 -4 45257.70 50277.40 430.88 o
736 4 -9 -5 -4 5546.33 4365.54 167.25 o
736 2 -5 -9 4 5546.33 4365.54 167.25 o
736 1 9 5 4 5546.33 4365.54 167.25 o
737 4 -5 -9 4 5762.24 4671.70 257.96 o
737 2 -9 -5 -4 5762.24 4671.70 257.96 o
737 1 5 9 -4 5762.24 4671.70 257.96 o
738 4 -6 6 4 45322.60 40758.30 405.37 o
738 2 -2 2 12 45322.60 40758.30 405.37 o
738 1 6 -6 -4 45322.60 40758.30 405.37 o
739 4 -6 4 4 17483.60 18859.70 249.46 o
739 2 -3 1 10 17483.60 18859.70 249.46 o
739 1 6 -4 -4 17483.60 18859.70 249.46 o
740 4 2 -6 -4 70382.00 78985.10 575.46 o
740 2 0 -4 -8 70382.00 78985.10 575.46 o
740 1 -2 6 4 70382.00 78985.10 575.46 o
741 4 -6 2 4 71028.90 94125.60 538.61 o
741 2 -4 0 8 71028.90 94125.60 538.61 o
741 1 6 -2 -4 71028.90 94125.60 538.61 o
742 4 0 -6 -4 36386.90 42283.40 402.54 o
742 2 -1 -5 -6 36386.90 42283.40 402.54 o
742 1 0 6 4 36386.90 42283.40 402.54 o
743 4 -6 0 4 36205.90 45305.20 328.83 o
743 2 -5 -1 6 36205.90 45305.20 328.83 o
743 1 6 0 -4 36205.90 45305.20 328.83 o
744 4 -2 -6 -4 64489.30 67827.50 411.04 o
744 2 -2 -6 -4 64489.30 67827.50 411.04 o
744 1 2 6 4 64489.30 67827.50 411.04 o
745 4 -6 -2 4 64830.60 86100.40 360.02 o
745 2 -6 -2 4 64830.60 86100.40 360.02 o
745 1 6 2 -4 64830.60 86100.40 360.02 o
746 4 -4 -6 -4 16242.10 17334.60 221.11 o
746 2 -3 -7 -2 16242.10 17334.60 221.11 o
746 1 4 6 4 16242.10 17334.60 221.11 o
747 4 4 6 4 16044.70 19338.80 260.80 o
747 2 3 7 2 16044.70 19338.80 260.80 o
747 1 -4 -6 -4 16044.70 19338.80 260.80 o
748 4 -6 -4 4 16344.70 19449.30 311.82 o
748 3 3 -1 10 16344.70 19449.30 311.82 o
748 2 -7 -3 2 16344.70 19449.30 311.82 o
748 1 6 4 -4 16344.70 19449.30 311.82 o
749 4 -6 -6 -4 41344.20 39939.00 263.63 o
749 2 -4 -8 0 41344.20 39939.00 263.63 o
749 1 6 6 4 41344.20 39939.00 263.63 o
750 4 -6 -6 4 41359.00 44500.20 257.96 o
750 2 -8 -4 0 41359.00 44500.20 257.96 o
750 1 6 6 -4 41359.00 44500.20 257.96 o
751 4 -8 -6 -4 5092.91 4141.59 212.61 o
751 2 -5 -9 2 5092.91 4141.59 212.61 o
751 1 8 6 4 5092.91 4141.59 212.61 o
752 4 -6 -8 4 5206.24 4493.10 297.65 o
752 2 -9 -5 -2 5206.24 4493.10 297.65 o
752 1 6 8 -4 5206.24 4493.10 297.65 o
753 4 -7 7 4 3459.41 1780.23 252.29 o
753 2 -2 2 14 3459.41 1780.23 252.29 o
753 1 7 -7 -4 3459.41 1780.23 252.29 o
754 4 -7 5 4 49763.80 43930.40 331.67 o
754 2 -3 1 12 49763.80 43930.40 331.67 o
754 1 7 -5 -4 49763.80 43930.40 331.67 o
755 4 -7 3 4 13814.30 14857.00 226.78 o
755 2 -4 0 10 13814.30 14857.00 226.78 o
755 1 7 -3 -4 13814.30 14857.00 226.78 o
756 4 1 -7 -4 45457.50 41347.90 413.88 o
756 2 -1 -5 -8 45457.50 41347.90 413.88 o
756 1 -1 7 4 45457.50 41347.90 413.88 o
757 4 -7 1 4 45150.50 56170.90 405.37 o
757 2 -5 -1 8 45150.50 56170.90 405.37 o
757 1 7 -1 -4 45150.50 56170.90 405.37 o
758 4 -1 -7 -4 40741.30 48933.70 439.39 o
758 2 -2 -6 -6 40741.30 48933.70 439.39 o
758 1 1 7 4 40741.30 48933.70 439.39 o
759 4 -7 -1 4 41257.00 50436.20 297.65 o
759 2 -6 -2 6 41257.00 50436.20 297.65 o
759 1 7 1 -4 41257.00 50436.20 297.65 o
760 4 -3 -7 -4 13873.20 14556.50 246.62 o
760 2 -3 -7 -4 13873.20 14556.50 246.62 o
760 1 3 7 4 13873.20 14556.50 246.62 o
761 4 -7 -3 4 13465.50 15888.90 175.76 o
761 2 -7 -3 4 13465.50 15888.90 175.76 o
761 1 7 3 -4 13465.50 15888.90 175.76 o
762 4 -5 -7 -4 45238.30 45464.00 303.32 o
762 2 -4 -8 -2 45238.30 45464.00 303.32 o
762 1 5 7 4 45238.30 45464.00 303.32 o
763 4 -7 -5 4 45358.40 49361.80 274.97 o
763 2 -8 -4 2 45358.40 49361.80 274.97 o
763 1 7 5 -4 45358.40 49361.80 274.97 o
764 4 -7 -7 -4 3412.89 2262.14 215.44 o
764 2 -5 -9 0 3412.89 2262.14 215.44 o
764 1 7 7 4 3412.89 2262.14 215.44 o
765 4 -7 -7 4 3395.34 2378.37 155.91 o
765 2 -9 -5 0 3395.34 2378.37 155.91 o
765 1 7 7 -4 3395.34 2378.37 155.91 o
766 4 -8 6 4 5237.68 3517.95 229.62 o
766 2 -3 1 14 5237.68 3517.95 229.62 o
766 1 8 -6 -4 5237.68 3517.95 229.62 o
767 4 -8 4 4 28175.70 32809.60 303.32 o
767 2 -4 0 12 28175.70 32809.60 303.32 o
767 1 8 -4 -4 28175.70 32809.60 303.32 o
768 4 -8 2 4 23651.90 26882.10 260.80 o
768 2 -5 -1 10 23651.90 26882.10 260.80 o
768 1 8 -2 -4 23651.90 26882.10 260.80 o
769 4 0 -8 -4 23760.40 26471.00 337.34 o
769 2 -2 -6 -8 23760.40 26471.00 337.34 o
769 1 0 8 4 23760.40 26471.00 337.34 o
770 4 -8 0 4 23998.50 28874.90 266.47 o
770 2 -6 -2 8 23998.50 28874.90 266.47 o
770 1 8 0 -4 23998.50 28874.90 266.47 o
771 4 -2 -8 -4 23652.60 27038.00 345.84 o
771 2 -3 -7 -6 23652.60 27038.00 345.84 o
771 1 2 8 4 23652.60 27038.00 345.84 o
772 4 -8 -2 4 23294.20 25297.50 218.28 o
772 2 -7 -3 6 23294.20 25297.50 218.28 o
772 1 8 2 -4 23294.20 25297.50 218.28 o
773 4 -4 -8 -4 25846.40 26641.10 314.66 o
773 2 -4 -8 -4 25846.40 26641.10 314.66 o
773 1 4 8 4 25846.40 26641.10 314.66 o
774 4 4 8 4 26000.10 30456.70 334.50 o
774 2 4 8 4 26000.10 30456.70 334.50 o
774 1 -4 -8 -4 26000.10 30456.70 334.50 o
775 4 -8 -4 4 27226.80 29269.00 354.35 o
775 3 4 0 12 27226.80 29269.00 354.35 o
775 2 -8 -4 4 27226.80 29269.00 354.35 o
775 1 8 4 -4 27226.80 29269.00 354.35 o
776 4 -6 -8 -4 5217.42 2043.87 223.95 o
776 2 -5 -9 -2 5217.42 2043.87 223.95 o
776 1 6 8 4 5217.42 2043.87 223.95 o
777 4 -8 -6 4 5081.73 3926.15 201.27 o
777 2 -9 -5 2 5081.73 3926.15 201.27 o
777 1 8 6 -4 5081.73 3926.15 201.27 o
778 4 -9 5 4 5394.38 3010.52 226.78 o
778 2 -4 0 14 5394.38 3010.52 226.78 o
778 1 9 -5 -4 5394.38 3010.52 226.78 o
779 4 -9 3 4 22728.10 24662.50 272.14 o
779 2 -5 -1 12 22728.10 24662.50 272.14 o
779 1 9 -3 -4 22728.10 24662.50 272.14 o
780 4 1 -9 -4 15145.60 8308.70 436.55 o
780 2 -2 -6 -10 15145.60 8308.70 436.55 o
780 1 -1 9 4 15145.60 8308.70 436.55 o
781 4 -9 1 4 15468.20 16044.80 257.96 o
781 2 -6 -2 10 15468.20 16044.80 257.96 o
781 1 9 -1 -4 15468.20 16044.80 257.96 o
782 4 -1 -9 -4 16684.00 16725.10 314.66 o
782 2 -3 -7 -8 16684.00 16725.10 314.66 o
782 1 1 9 4 16684.00 16725.10 314.66 o
783 4 -9 -1 4 16296.70 16858.40 223.95 o
783 2 -7 -3 8 16296.70 16858.40 223.95 o
783 1 9 1 -4 16296.70 16858.40 223.95 o
784 4 -3 -9 -4 20729.70 22148.00 348.68 o
784 2 -4 -8 -6 20729.70 22148.00 348.68 o
784 1 3 9 4 20729.70 22148.00 348.68 o
785 4 -9 -3 4 20942.30 22184.90 240.96 o
785 2 -8 -4 6 20942.30 22184.90 240.96 o
785 1 9 3 -4 20942.30 22184.90 240.96 o
786 4 -5 -9 -4 5773.41 4549.80 286.31 o
786 2 -5 -9 -4 5773.41 4549.80 286.31 o
786 1 5 9 4 5773.41 4549.80 286.31 o
787 4 -9 -5 4 5535.16 4821.94 206.94 o
787 2 -9 -5 4 5535.16 4821.94 206.94 o
787 1 9 5 -4 5535.16 4821.94 206.94 o
788 4 -10 2 4 10366.00 9643.88 252.29 o
788 2 -6 -2 12 10366.00 9643.88 252.29 o
788 1 10 -2 -4 10366.00 9643.88 252.29 o
789 4 0 -10 -4 18716.80 10514.10 436.55 o
789 2 -3 -7 -10 18716.80 10514.10 436.55 o
789 1 0 10 4 18716.80 10514.10 436.55 o
790 4 -10 0 4 18522.60 15812.30 243.79 o
790 2 -7 -3 10 18522.60 15812.30 243.79 o
790 1 10 0 -4 18522.60 15812.30 243.79 o
791 4 -2 -10 -4 9947.50 9805.46 374.19 o
791 2 -4 -8 -8 9947.50 9805.46 374.19 o
791 1 2 10 4 9947.50 9805.46 374.19 o
792 4 -10 -2 4 10068.10 9564.50 195.60 o
792 2 -8 -4 8 10068.10 9564.50 195.60 o
792 1 10 2 -4 10068.10 9564.50 195.60 o
793 4 -5 8 -5 1252.80 756.88 269.30 o
793 2 4 -1 13 1252.80 756.88 269.30 o
793 1 5 -8 5 1252.80 756.88 269.30 o
794 4 5 -8 5 1252.79 861.77 272.14 o
794 2 -4 1 -13 1252.79 861.77 272.14 o
794 1 -5 8 -5 1252.79 861.77 272.14 o
795 4 -5 6 -5 758.29 646.33 215.44 o
795 2 3 -2 11 758.29 646.33 215.44 o
795 1 5 -6 5 758.29 646.33 215.44 o
796 4 5 -6 5 758.29 430.88 218.28 <
796 2 -3 2 -11 758.29 430.88 218.28 <
796 1 -5 6 -5 758.29 430.88 218.28 <
797 4 -7 6 -5 152.71 215.44 175.76 <
797 2 2 -3 13 152.71 215.44 175.76 <
797 1 7 -6 5 152.71 215.44 175.76 <
798 4 6 -7 5 152.71 277.81 158.75 <
798 2 -3 2 -13 152.71 277.81 158.75 <
798 1 -6 7 -5 152.71 277.81 158.75 <
799 4 -6 5 -5 988.64 688.85 223.95 o
799 3 3 8 1 988.64 688.85 223.95 o
799 2 2 -3 11 988.64 688.85 223.95 o
799 1 6 -5 5 988.64 688.85 223.95 o
800 4 5 -6 5 758.29 632.15 198.43 o
800 2 -3 2 -11 758.29 632.15 198.43 o
800 1 -5 6 -5 758.29 632.15 198.43 o
801 4 -8 5 -5 1337.14 785.23 274.97 o
801 3 4 9 3 1337.14 785.23 274.97 o
801 2 1 -4 13 1337.14 785.23 274.97 o
801 1 8 -5 5 1337.14 785.23 274.97 o
802 4 -5 4 -5 339.45 439.39 141.74 o
802 2 2 -3 9 339.45 439.39 141.74 o
802 1 5 -4 5 339.45 439.39 141.74 o
803 4 4 -5 5 379.34 303.32 206.94 <
803 3 -2 -7 1 379.34 303.32 206.94 <
803 2 -3 2 -9 379.34 303.32 206.94 <
803 1 -4 5 -5 379.34 303.32 206.94 <
804 4 5 -4 5 339.45 779.56 204.10 o
804 2 -2 3 -9 339.45 779.56 204.10 o
804 1 -5 4 -5 339.45 779.56 204.10 o
805 4 -7 4 -5 1094.97 1082.88 147.41 o
805 2 1 -4 11 1094.97 1082.88 147.41 o
805 1 7 -4 5 1094.97 1082.88 147.41 o
806 4 4 -7 5 1094.98 1077.21 147.41 o
806 2 -4 1 -11 1094.98 1077.21 147.41 o
806 1 -4 7 -5 1094.98 1077.21 147.41 o
807 4 -9 4 -5 1312.14 949.65 150.24 o
807 1 9 -4 5 1312.14 949.65 150.24 o
808 4 4 -9 5 1312.14 861.77 306.15 o
808 1 -4 9 -5 1312.14 861.77 306.15 o
809 4 -4 3 -5 5701.99 4708.55 141.74 o
809 2 2 -3 7 5701.99 4708.55 141.74 o
809 1 4 -3 5 5701.99 4708.55 141.74 o
810 4 3 -4 5 5701.99 5352.04 136.07 o
810 2 -3 2 -7 5701.99 5352.04 136.07 o
810 1 -3 4 -5 5701.99 5352.04 136.07 o
811 4 -6 3 -5 6260.05 5794.26 170.09 o
811 2 1 -4 9 6260.05 5794.26 170.09 o
811 1 6 -3 5 6260.05 5794.26 170.09 o
812 4 3 -6 5 6260.05 6077.74 150.24 o
812 2 -4 1 -9 6260.05 6077.74 150.24 o
812 1 -3 6 -5 6260.05 6077.74 150.24 o
813 4 -8 3 -5 2924.61 2097.73 127.56 o
813 1 8 -3 5 2924.61 2097.73 127.56 o
814 4 3 -8 5 2924.61 2554.12 192.76 o
814 1 -3 8 -5 2924.61 2554.12 192.76 o
815 4 -3 2 -5 2919.42 3980.01 121.89 o
815 2 2 -3 5 2919.42 3980.01 121.89 o
815 1 3 -2 5 2919.42 3980.01 121.89 o
816 4 2 -3 5 2919.42 4002.69 133.23 o
816 2 -3 2 -5 2919.42 4002.69 133.23 o
816 1 -2 3 -5 2919.42 4002.69 133.23 o
817 4 -5 2 -5 2335.53 3424.40 144.57 o
817 2 1 -4 7 2335.53 3424.40 144.57 o
817 1 5 -2 5 2335.53 3424.40 144.57 o
818 4 2 -5 5 3065.67 2330.18 187.10 o
818 3 -1 -6 3 3065.67 2330.18 187.10 o
818 2 -4 1 -7 3065.67 2330.18 187.10 o
818 1 -2 5 -5 3065.67 2330.18 187.10 o
819 4 5 -2 5 2335.55 2914.14 187.10 o
819 2 -1 4 -7 2335.55 2914.14 187.10 o
819 1 -5 2 -5 2335.55 2914.14 187.10 o
820 4 -7 2 -5 500.18 507.42 116.22 o
820 1 7 -2 5 500.18 507.42 116.22 o
821 4 2 -7 5 500.18 462.07 232.45 <
821 1 -2 7 -5 500.18 462.07 232.45 <
822 4 -9 2 -5 954.51 527.27 130.40 o
822 2 -1 -6 11 954.51 527.27 130.40 o
822 1 9 -2 5 954.51 527.27 130.40 o
823 4 2 -9 5 954.52 830.59 277.81 o
823 2 -6 -1 -11 954.52 830.59 277.81 o
823 1 -2 9 -5 954.52 830.59 277.81 o
824 4 -2 1 -5 8435.33 8609.19 167.25 o
824 2 2 -3 3 8435.33 8609.19 167.25 o
824 1 2 -1 5 8435.33 8609.19 167.25 o
825 4 1 -2 5 8435.33 8646.04 153.08 o
825 2 -3 2 -3 8435.33 8646.04 153.08 o
825 1 -1 2 -5 8435.33 8646.04 153.08 o
826 4 -4 1 -5 18990.80 21765.30 206.94 o
826 2 1 -4 5 18990.80 21765.30 206.94 o
826 1 4 -1 5 18990.80 21765.30 206.94 o
827 4 1 -4 5 18990.90 22170.70 206.94 o
827 2 -4 1 -5 18990.90 22170.70 206.94 o
827 1 -1 4 -5 18990.90 22170.70 206.94 o
828 4 -6 1 -5 10930.40 9720.41 141.74 o
828 1 6 -1 5 10930.40 9720.41 141.74 o
829 4 1 -6 5 10930.40 11546.00 286.31 o
829 1 -1 6 -5 10930.40 11546.00 286.31 o
830 4 -8 1 -5 5073.98 3985.68 121.89 o
830 2 -1 -6 9 5073.98 3985.68 121.89 o
830 1 8 -1 5 5073.98 3985.68 121.89 o
831 4 1 -8 5 5073.99 4391.05 297.65 o
831 2 -6 -1 -9 5073.99 4391.05 297.65 o
831 1 -1 8 -5 5073.99 4391.05 297.65 o
832 4 -10 1 -5 893.69 632.15 161.58 o
832 2 -2 -7 11 893.69 632.15 161.58 o
832 1 10 -1 5 893.69 632.15 161.58 o
833 4 1 -10 5 893.69 830.59 314.66 o
833 2 -7 -2 -11 893.69 830.59 314.66 o
833 1 -1 10 -5 893.69 830.59 314.66 o
834 4 -2 -1 -5 15934.00 21045.30 235.29 o
834 2 1 -4 1 15934.00 21045.30 235.29 o
834 1 2 1 5 15934.00 21045.30 235.29 o
835 4 -1 -2 5 15933.70 18916.40 221.11 o
835 2 -4 1 -1 15933.70 18916.40 221.11 o
835 1 1 2 -5 15933.70 18916.40 221.11 o
836 4 -4 -1 -5 14636.50 15931.40 153.08 o
836 1 4 1 5 14636.50 15931.40 153.08 o
837 4 -1 -4 5 14636.50 16608.90 311.82 o
837 1 1 4 -5 14636.50 16608.90 311.82 o
838 4 -6 -1 -5 14182.20 15313.40 153.08 o
838 2 -1 -6 5 14182.20 15313.40 153.08 o
838 1 6 1 5 14182.20 15313.40 153.08 o
839 4 -1 -6 5 14182.20 13754.30 337.34 o
839 2 -6 -1 -5 14182.20 13754.30 337.34 o
839 1 1 6 -5 14182.20 13754.30 337.34 o
840 4 -8 -1 -5 4329.31 3920.48 124.73 o
840 2 -2 -7 7 4329.31 3920.48 124.73 o
840 1 8 1 5 4329.31 3920.48 124.73 o
841 4 -1 -8 5 4329.30 4575.31 297.65 o
841 2 -7 -2 -7 4329.30 4575.31 297.65 o
841 1 1 8 -5 4329.30 4575.31 297.65 o
842 4 -10 -1 -5 1115.53 833.42 155.91 o
842 2 -3 -8 9 1115.53 833.42 155.91 o
842 1 10 1 5 1115.53 833.42 155.91 o
843 4 -1 -10 5 1115.54 779.56 399.70 <
843 2 -8 -3 -9 1115.54 779.56 399.70 <
843 1 1 10 -5 1115.54 779.56 399.70 <
844 4 1 -2 -5 8435.33 8478.79 286.31 o
844 2 2 -3 -3 8435.33 8478.79 286.31 o
844 1 -1 2 5 8435.33 8478.79 286.31 o
845 4 -2 1 5 8435.34 8081.92 229.62 o
845 2 -3 2 3 8435.34 8081.92 229.62 o
845 1 2 -1 -5 8435.34 8081.92 229.62 o
846 4 -1 -2 -5 15933.70 17490.50 229.62 o
846 2 1 -4 -1 15933.70 17490.50 229.62 o
846 1 1 2 5 15933.70 17490.50 229.62 o
847 4 -2 -1 5 15934.00 14338.20 226.78 o
847 2 -4 1 1 15934.00 14338.20 226.78 o
847 1 2 1 -5 15934.00 14338.20 226.78 o
848 4 -3 -2 -5 2250.04 3583.14 121.89 o
848 1 3 2 5 2250.04 3583.14 121.89 o
849 4 -2 -3 5 2250.04 3322.35 178.59 o
849 1 2 3 -5 2250.04 3322.35 178.59 o
850 4 -5 -2 -5 4894.17 6769.42 124.73 o
850 2 -1 -6 3 4894.17 6769.42 124.73 o
850 1 5 2 5 4894.17 6769.42 124.73 o
851 4 -2 -5 5 5241.22 2435.06 226.78 o
851 3 1 -4 7 5241.22 2435.06 226.78 o
851 2 -6 -1 -3 5241.22 2435.06 226.78 o
851 1 2 5 -5 5241.22 2435.06 226.78 o
852 4 -7 -2 -5 648.98 728.53 113.39 o
852 2 -2 -7 5 648.98 728.53 113.39 o
852 1 7 2 5 648.98 728.53 113.39 o
853 4 -2 -7 5 648.98 652.00 229.62 o
853 2 -7 -2 -5 648.98 652.00 229.62 o
853 1 2 7 -5 648.98 652.00 229.62 o
854 4 -9 -2 -5 1128.36 1009.18 136.07 o
854 2 -3 -8 7 1128.36 1009.18 136.07 o
854 1 9 2 5 1128.36 1009.18 136.07 o
855 4 -2 -9 5 1128.36 864.60 343.01 o
855 2 -8 -3 -7 1128.36 864.60 343.01 o
855 1 2 9 -5 1128.36 864.60 343.01 o
856 4 2 -3 -5 2919.42 4124.58 286.31 o
856 2 2 -3 -5 2919.42 4124.58 286.31 o
856 1 -2 3 5 2919.42 4124.58 286.31 o
857 4 -3 2 5 2919.42 3807.09 294.82 o
857 2 -3 2 5 2919.42 3807.09 294.82 o
857 1 3 -2 -5 2919.42 3807.09 294.82 o
858 4 -2 -3 -5 2250.04 3662.52 124.73 o
858 1 2 3 5 2250.04 3662.52 124.73 o
859 4 -3 -2 5 2250.04 3722.05 226.78 o
859 1 3 2 -5 2250.04 3722.05 226.78 o
860 4 -4 -3 -5 11342.30 13122.10 138.90 o
860 2 -1 -6 1 11342.30 13122.10 138.90 o
860 1 4 3 5 11342.30 13122.10 138.90 o
861 4 -3 -4 5 11342.70 9096.77 263.63 o
861 2 -6 -1 -1 11342.70 9096.77 263.63 o
861 1 3 4 -5 11342.70 9096.77 263.63 o
862 4 -6 -3 -5 5443.68 6205.30 130.40 o
862 2 -2 -7 3 5443.68 6205.30 130.40 o
862 1 6 3 5 5443.68 6205.30 130.40 o
863 4 -3 -6 5 5443.69 6287.51 257.96 o
863 2 -7 -2 -3 5443.69 6287.51 257.96 o
863 1 3 6 -5 5443.69 6287.51 257.96 o
864 4 -8 -3 -5 3794.68 3588.81 133.23 o
864 2 -3 -8 5 3794.68 3588.81 133.23 o
864 1 8 3 5 3794.68 3588.81 133.23 o
865 4 -3 -8 5 3794.67 3770.24 311.82 o
865 2 -8 -3 -5 3794.67 3770.24 311.82 o
865 1 3 8 -5 3794.67 3770.24 311.82 o
866 4 -4 3 5 5701.99 6508.62 229.62 o
866 2 -3 2 7 5701.99 6508.62 229.62 o
866 1 4 -3 -5 5701.99 6508.62 229.62 o
867 4 1 -4 -5 18990.90 23032.50 368.52 o
867 2 1 -4 -5 18990.90 23032.50 368.52 o
867 1 -1 4 5 18990.90 23032.50 368.52 o
868 4 -4 1 5 18990.80 23066.50 368.52 o
868 2 -4 1 5 18990.80 23066.50 368.52 o
868 1 4 -1 -5 18990.80 23066.50 368.52 o
869 4 -1 -4 -5 14636.50 19970.90 206.94 o
869 1 1 4 5 14636.50 19970.90 206.94 o
870 4 -4 -1 5 14636.50 19832.00 320.33 o
870 1 4 1 -5 14636.50 19832.00 320.33 o
871 4 -3 -4 -5 11342.70 10066.30 141.74 o
871 2 -1 -6 -1 11342.70 10066.30 141.74 o
871 1 3 4 5 11342.70 10066.30 141.74 o
872 4 -4 -3 5 11342.30 9672.22 257.96 o
872 2 -6 -1 1 11342.30 9672.22 257.96 o
872 1 4 3 -5 11342.30 9672.22 257.96 o
873 4 -5 -4 -5 448.78 493.25 116.22 o
873 2 -2 -7 1 448.78 493.25 116.22 o
873 1 5 4 5 448.78 493.25 116.22 o
874 4 -4 -5 5 472.39 374.19 204.10 <
874 3 2 -3 9 472.39 374.19 204.10 <
874 2 -7 -2 -1 472.39 374.19 204.10 <
874 1 4 5 -5 472.39 374.19 204.10 <
875 4 -7 -4 -5 1974.79 1907.80 113.39 o
875 2 -3 -8 3 1974.79 1907.80 113.39 o
875 1 7 4 5 1974.79 1907.80 113.39 o
876 4 -4 -7 5 1974.80 1553.45 255.13 o
876 2 -8 -3 -3 1974.80 1553.45 255.13 o
876 1 4 7 -5 1974.80 1553.45 255.13 o
877 4 -9 -4 -5 1702.50 1672.51 133.23 o
877 2 -4 -9 5 1702.50 1672.51 133.23 o
877 1 9 4 5 1702.50 1672.51 133.23 o
878 4 -4 -9 5 1702.50 1981.50 317.49 o
878 2 -9 -4 -5 1702.50 1981.50 317.49 o
878 1 4 9 -5 1702.50 1981.50 317.49 o
879 4 -5 4 5 339.45 229.62 201.27 <
879 2 -3 2 9 339.45 229.62 201.27 <
879 1 5 -4 -5 339.45 229.62 201.27 <
880 4 2 -5 -5 2335.55 496.08 240.96 o
880 2 1 -4 -7 2335.55 496.08 240.96 o
880 1 -2 5 5 2335.55 496.08 240.96 o
881 4 -5 2 5 2335.53 277.81 201.27 <
881 2 -4 1 7 2335.53 277.81 201.27 <
881 1 5 -2 -5 2335.53 277.81 201.27 <
882 4 -2 -5 -5 4894.22 4076.39 155.91 o
882 2 -1 -6 -3 4894.22 4076.39 155.91 o
882 1 2 5 5 4894.22 4076.39 155.91 o
883 4 -5 -2 5 4894.17 4096.24 226.78 o
883 2 -6 -1 3 4894.17 4096.24 226.78 o
883 1 5 2 -5 4894.17 4096.24 226.78 o
884 4 -4 -5 -5 448.86 513.09 138.90 o
884 2 -2 -7 -1 448.86 513.09 138.90 o
884 1 4 5 5 448.86 513.09 138.90 o
885 4 -5 -4 5 448.78 654.83 226.78 o
885 2 -7 -2 1 448.78 654.83 226.78 o
885 1 5 4 -5 448.78 654.83 226.78 o
886 4 -6 -5 -5 2237.42 1882.28 127.56 o
886 2 -3 -8 1 2237.42 1882.28 127.56 o
886 1 6 5 5 2237.42 1882.28 127.56 o
887 4 -5 -6 5 2237.53 1213.28 170.09 o
887 2 -8 -3 -1 2237.53 1213.28 170.09 o
887 1 5 6 -5 2237.53 1213.28 170.09 o
888 4 -8 -5 -5 1690.23 1323.84 141.74 o
888 2 -4 -9 3 1690.23 1323.84 141.74 o
888 1 8 5 5 1690.23 1323.84 141.74 o
889 4 -5 -8 5 1690.23 1074.38 215.44 o
889 2 -9 -4 -3 1690.23 1074.38 215.44 o
889 1 5 8 -5 1690.23 1074.38 215.44 o
890 4 -6 5 5 758.29 552.78 206.94 o
890 2 -3 2 11 758.29 552.78 206.94 o
890 1 6 -5 -5 758.29 552.78 206.94 o
891 4 -6 3 5 6260.05 6341.37 189.93 o
891 2 -4 1 9 6260.05 6341.37 189.93 o
891 1 6 -3 -5 6260.05 6341.37 189.93 o
892 4 1 -6 -5 10930.40 13828.00 308.99 o
892 1 -1 6 5 10930.40 13828.00 308.99 o
893 4 -6 1 5 10930.40 12387.90 263.63 o
893 1 6 -1 -5 10930.40 12387.90 263.63 o
894 4 -1 -6 -5 14182.20 14468.60 351.51 o
894 2 -1 -6 -5 14182.20 14468.60 351.51 o
894 1 1 6 5 14182.20 14468.60 351.51 o
895 4 -6 -1 5 14182.20 15574.20 269.30 o
895 2 -6 -1 5 14182.20 15574.20 269.30 o
895 1 6 1 -5 14182.20 15574.20 269.30 o
896 4 -3 -6 -5 5443.69 5867.97 204.10 o
896 2 -2 -7 -3 5443.69 5867.97 204.10 o
896 1 3 6 5 5443.69 5867.97 204.10 o
897 4 -6 -3 5 5443.68 5933.17 164.42 o
897 2 -7 -2 3 5443.68 5933.17 164.42 o
897 1 6 3 -5 5443.68 5933.17 164.42 o
898 4 -5 -6 -5 2237.52 1097.05 161.58 o
898 2 -3 -8 -1 2237.52 1097.05 161.58 o
898 1 5 6 5 2237.52 1097.05 161.58 o
899 4 -6 -5 5 2246.29 1709.36 221.11 o
899 3 3 -2 11 2246.29 1709.36 221.11 o
899 2 -8 -3 1 2246.29 1709.36 221.11 o
899 1 6 5 -5 2246.29 1709.36 221.11 o
900 4 -7 -6 -5 811.15 527.27 147.41 o
900 2 -4 -9 1 811.15 527.27 147.41 o
900 1 7 6 5 811.15 527.27 147.41 o
901 4 -6 -7 5 811.17 328.83 272.14 <
901 2 -9 -4 -1 811.17 328.83 272.14 <
901 1 6 7 -5 811.17 328.83 272.14 <
902 4 -7 6 5 152.71 147.41 243.79 <
902 2 -3 2 13 152.71 147.41 243.79 <
902 1 7 -6 -5 152.71 147.41 243.79 <
903 4 -7 4 5 1094.98 1269.98 198.43 o
903 2 -4 1 11 1094.98 1269.98 198.43 o
903 1 7 -4 -5 1094.98 1269.98 198.43 o
904 4 2 -7 -5 500.18 572.62 257.96 o
904 1 -2 7 5 500.18 572.62 257.96 o
905 4 -7 2 5 500.18 521.60 226.78 o
905 1 7 -2 -5 500.18 521.60 226.78 o
906 4 -2 -7 -5 648.98 878.78 243.79 o
906 2 -2 -7 -5 648.98 878.78 243.79 o
906 1 2 7 5 648.98 878.78 243.79 o
907 4 -7 -2 5 648.98 669.01 144.57 o
907 2 -7 -2 5 648.98 669.01 144.57 o
907 1 7 2 -5 648.98 669.01 144.57 o
908 4 -4 -7 -5 1974.80 1159.42 187.10 o
908 2 -3 -8 -3 1974.80 1159.42 187.10 o
908 1 4 7 5 1974.80 1159.42 187.10 o
909 4 -7 -4 5 1974.79 1766.06 150.24 o
909 2 -8 -3 3 1974.79 1766.06 150.24 o
909 1 7 4 -5 1974.79 1766.06 150.24 o
910 4 -6 -7 -5 811.17 481.91 181.43 o
910 2 -4 -9 -1 811.17 481.91 181.43 o
910 1 6 7 5 811.17 481.91 181.43 o
911 4 -7 -6 5 811.15 470.57 272.14 <
911 2 -9 -4 1 811.15 470.57 272.14 <
911 1 7 6 -5 811.15 470.57 272.14 <
912 4 -8 5 5 1252.79 977.99 229.62 o
912 2 -4 1 13 1252.79 977.99 229.62 o
912 1 8 -5 -5 1252.79 977.99 229.62 o
913 4 -8 3 5 2924.61 3095.56 218.28 o
913 1 8 -3 -5 2924.61 3095.56 218.28 o
914 4 1 -8 -5 5073.98 4532.79 294.82 o
914 2 -1 -6 -9 5073.98 4532.79 294.82 o
914 1 -1 8 5 5073.98 4532.79 294.82 o
915 4 -8 1 5 5073.98 4632.01 238.12 o
915 2 -6 -1 9 5073.98 4632.01 238.12 o
915 1 8 -1 -5 5073.98 4632.01 238.12 o
916 4 -1 -8 -5 4329.30 4365.54 300.48 o
916 2 -2 -7 -7 4329.30 4365.54 300.48 o
916 1 1 8 5 4329.30 4365.54 300.48 o
917 4 -8 -1 5 4329.31 3778.74 181.43 o
917 2 -7 -2 7 4329.31 3778.74 181.43 o
917 1 8 1 -5 4329.31 3778.74 181.43 o
918 4 -3 -8 -5 3794.67 3441.41 263.63 o
918 2 -3 -8 -5 3794.67 3441.41 263.63 o
918 1 3 8 5 3794.67 3441.41 263.63 o
919 4 -8 -3 5 3794.68 3583.14 175.76 o
919 2 -8 -3 5 3794.68 3583.14 175.76 o
919 1 8 3 -5 3794.68 3583.14 175.76 o
920 4 -5 -8 -5 1690.23 1261.47 232.45 o
920 2 -4 -9 -3 1690.23 1261.47 232.45 o
920 1 5 8 5 1690.23 1261.47 232.45 o
921 4 5 8 5 1690.22 1303.99 212.61 o
921 2 4 9 3 1690.22 1303.99 212.61 o
921 1 -5 -8 -5 1690.22 1303.99 212.61 o
922 4 -8 -5 5 1709.07 1672.51 280.64 o
922 3 4 -1 13 1709.07 1672.51 280.64 o
922 2 -9 -4 3 1709.07 1672.51 280.64 o
922 1 8 5 -5 1709.07 1672.51 280.64 o
923 4 -9 4 5 1312.14 1389.04 223.95 o
923 1 9 -4 -5 1312.14 1389.04 223.95 o
924 4 -9 2 5 954.52 1094.22 209.77 o
924 2 -6 -1 11 954.52 1094.22 209.77 o
924 1 9 -2 -5 954.52 1094.22 209.77 o
925 4 -2 -9 -5 1128.36 796.57 289.15 o
925 2 -3 -8 -7 1128.36 796.57 289.15 o
925 1 2 9 5 1128.36 796.57 289.15 o
926 4 -9 -2 5 1128.36 1000.67 164.42 o
926 2 -8 -3 7 1128.36 1000.67 164.42 o
926 1 9 2 -5 1128.36 1000.67 164.42 o
927 4 -4 -9 -5 1702.50 1363.52 272.14 o
927 2 -4 -9 -5 1702.50 1363.52 272.14 o
927 1 4 9 5 1702.50 1363.52 272.14 o
928 4 -9 -4 5 1702.50 1298.32 198.43 o
928 2 -9 -4 5 1702.50 1298.32 198.43 o
928 1 9 4 -5 1702.50 1298.32 198.43 o
929 4 -10 1 5 893.69 703.02 209.77 o
929 2 -7 -2 11 893.69 703.02 209.77 o
929 1 10 -1 -5 893.69 703.02 209.77 o
930 4 -1 -10 -5 1115.53 669.01 266.47 o
930 2 -3 -8 -9 1115.53 669.01 266.47 o
930 1 1 10 5 1115.53 669.01 266.47 o
931 4 -10 -1 5 1115.53 666.17 192.76 o
931 2 -8 -3 9 1115.53 666.17 192.76 o
931 1 10 1 -5 1115.53 666.17 192.76 o
932 4 -6 6 -6 22745.00 22995.60 348.68 o
932 3 3 9 0 22745.00 22995.60 348.68 o
932 2 3 -3 12 22745.00 22995.60 348.68 o
932 1 6 -6 6 22745.00 22995.60 348.68 o
933 4 6 -6 6 23135.20 24356.30 326.00 o
933 3 -3 -9 0 23135.20 24356.30 326.00 o
933 2 -3 3 -12 23135.20 24356.30 326.00 o
933 1 -6 6 -6 23135.20 24356.30 326.00 o
934 4 -5 5 -6 2106.57 1975.83 164.42 o
934 2 3 -3 10 2106.57 1975.83 164.42 o
934 1 5 -5 6 2106.57 1975.83 164.42 o
935 4 5 -5 6 2252.62 2435.06 221.11 o
935 2 -3 3 -10 2252.62 2435.06 221.11 o
935 1 -5 5 -6 2252.62 2435.06 221.11 o
936 4 -7 5 -6 26123.60 24075.70 246.62 o
936 2 2 -4 12 26123.60 24075.70 246.62 o
936 1 7 -5 6 26123.60 24075.70 246.62 o
937 4 5 -7 6 26629.10 27627.60 238.12 o
937 2 -4 2 -12 26629.10 27627.60 238.12 o
937 1 -5 7 -6 26629.10 27627.60 238.12 o
938 4 -4 4 -6 31421.00 37869.60 345.84 o
938 2 3 -3 8 31421.00 37869.60 345.84 o
938 1 4 -4 6 31421.00 37869.60 345.84 o
939 4 4 -4 6 32076.60 45126.60 371.36 o
939 2 -3 3 -8 32076.60 45126.60 371.36 o
939 1 -4 4 -6 32076.60 45126.60 371.36 o
940 4 -6 4 -6 5003.79 5077.07 167.25 o
940 2 2 -4 10 5003.79 5077.07 167.25 o
940 1 6 -4 6 5003.79 5077.07 167.25 o
941 4 4 -6 6 5968.02 5632.68 246.62 o
941 3 -2 -8 2 5968.02 5632.68 246.62 o
941 2 -4 2 -10 5968.02 5632.68 246.62 o
941 1 -4 6 -6 5968.02 5632.68 246.62 o
942 4 6 -4 6 5388.55 5862.30 167.25 o
942 2 -2 4 -10 5388.55 5862.30 167.25 o
942 1 -6 4 -6 5388.55 5862.30 167.25 o
943 4 -8 4 -6 14807.80 15330.40 178.59 o
943 2 1 -5 12 14807.80 15330.40 178.59 o
943 1 8 -4 6 14807.80 15330.40 178.59 o
944 4 4 -8 6 15033.00 18445.80 345.84 o
944 2 -5 1 -12 15033.00 18445.80 345.84 o
944 1 -4 8 -6 15033.00 18445.80 345.84 o
945 4 -3 3 -6 1775.79 2446.40 150.24 o
945 2 3 -3 6 1775.79 2446.40 150.24 o
945 1 3 -3 6 1775.79 2446.40 150.24 o
946 4 3 -3 6 2219.84 2755.39 192.76 o
946 2 -3 3 -6 2219.84 2755.39 192.76 o
946 1 -3 3 -6 2219.84 2755.39 192.76 o
947 4 -5 3 -6 35427.80 39944.70 252.29 o
947 2 2 -4 8 35427.80 39944.70 252.29 o
947 1 5 -3 6 35427.80 39944.70 252.29 o
948 4 3 -5 6 36455.20 45676.60 260.80 o
948 2 -4 2 -8 36455.20 45676.60 260.80 o
948 1 -3 5 -6 36455.20 45676.60 260.80 o
949 4 -7 3 -6 4431.93 4442.08 167.25 o
949 2 1 -5 10 4431.93 4442.08 167.25 o
949 1 7 -3 6 4431.93 4442.08 167.25 o
950 4 3 -7 6 4429.56 5164.94 238.12 o
950 2 -5 1 -10 4429.56 5164.94 238.12 o
950 1 -3 7 -6 4429.56 5164.94 238.12 o
951 4 -9 3 -6 14097.70 12628.90 175.76 o
951 2 0 -6 12 14097.70 12628.90 175.76 o
951 1 9 -3 6 14097.70 12628.90 175.76 o
952 4 3 -9 6 14331.20 14879.70 362.85 o
952 2 -6 0 -12 14331.20 14879.70 362.85 o
952 1 -3 9 -6 14331.20 14879.70 362.85 o
953 4 -2 2 -6 55308.10 58895.10 408.21 o
953 2 3 -3 4 55308.10 58895.10 408.21 o
953 1 2 -2 6 55308.10 58895.10 408.21 o
954 4 2 -2 6 56065.90 64507.90 433.72 o
954 2 -3 3 -4 56065.90 64507.90 433.72 o
954 1 -2 2 -6 56065.90 64507.90 433.72 o
955 4 -4 2 -6 2081.00 1629.99 133.23 o
955 2 2 -4 6 2081.00 1629.99 133.23 o
955 1 4 -2 6 2081.00 1629.99 133.23 o
956 4 2 -4 6 2785.31 1831.26 121.89 o
956 2 -4 2 -6 2785.31 1831.26 121.89 o
956 1 -2 4 -6 2785.31 1831.26 121.89 o
957 4 -6 2 -6 22275.10 28480.90 223.95 o
957 2 1 -5 8 22275.10 28480.90 223.95 o
957 1 6 -2 6 22275.10 28480.90 223.95 o
958 4 2 -6 6 24262.00 27993.30 289.15 o
958 3 -1 -7 4 24262.00 27993.30 289.15 o
958 2 -5 1 -8 24262.00 27993.30 289.15 o
958 1 -2 6 -6 24262.00 27993.30 289.15 o
959 4 6 -2 6 22611.70 25923.90 246.62 o
959 2 -1 5 -8 22611.70 25923.90 246.62 o
959 1 -6 2 -6 22611.70 25923.90 246.62 o
960 4 -8 2 -6 11641.50 10534.00 153.08 o
960 2 0 -6 10 11641.50 10534.00 153.08 o
960 1 8 -2 6 11641.50 10534.00 153.08 o
961 4 2 -8 6 11771.30 11945.70 311.82 o
961 2 -6 0 -10 11771.30 11945.70 311.82 o
961 1 -2 8 -6 11771.30 11945.70 311.82 o
962 4 -1 1 -6 5435.59 7072.74 223.95 o
962 2 3 -3 2 5435.59 7072.74 223.95 o
962 1 1 -1 6 5435.59 7072.74 223.95 o
963 4 1 -1 6 5569.25 7393.07 226.78 o
963 2 -3 3 -2 5569.25 7393.07 226.78 o
963 1 -1 1 -6 5569.25 7393.07 226.78 o
964 4 -3 1 -6 22407.70 28863.60 223.95 o
964 2 2 -4 4 22407.70 28863.60 223.95 o
964 1 3 -1 6 22407.70 28863.60 223.95 o
965 4 1 -3 6 23406.50 28911.80 226.78 o
965 2 -4 2 -4 23406.50 28911.80 226.78 o
965 1 -1 3 -6 23406.50 28911.80 226.78 o
966 4 -5 1 -6 6605.44 8688.56 158.75 o
966 2 1 -5 6 6605.44 8688.56 158.75 o
966 1 5 -1 6 6605.44 8688.56 158.75 o
967 4 1 -5 6 6757.94 8986.21 158.75 o
967 2 -5 1 -6 6757.94 8986.21 158.75 o
967 1 -1 5 -6 6757.94 8986.21 158.75 o
968 4 -7 1 -6 20164.60 24010.50 172.92 o
968 2 0 -6 8 20164.60 24010.50 172.92 o
968 1 7 -1 6 20164.60 24010.50 172.92 o
969 4 1 -7 6 20621.30 24242.90 340.17 o
969 2 -6 0 -8 20621.30 24242.90 340.17 o
969 1 -1 7 -6 20621.30 24242.90 340.17 o
970 4 -9 1 -6 8861.92 8220.82 167.25 o
970 2 -1 -7 10 8861.92 8220.82 167.25 o
970 1 9 -1 6 8861.92 8220.82 167.25 o
971 4 1 -9 6 8698.07 8524.14 320.33 o
971 2 -7 -1 -10 8698.07 8524.14 320.33 o
971 1 -1 9 -6 8698.07 8524.14 320.33 o
972 4 0 0 -6 78012.40 66852.30 558.45 o
972 2 3 -3 0 78012.40 66852.30 558.45 o
972 1 0 0 6 78012.40 66852.30 558.45 o
973 4 0 0 6 78153.80 70506.30 538.61 o
973 2 -3 3 0 78153.80 70506.30 538.61 o
973 1 0 0 -6 78153.80 70506.30 538.61 o
974 4 -2 0 -6 7439.95 7084.08 155.91 o
974 2 2 -4 2 7439.95 7084.08 155.91 o
974 1 2 0 6 7439.95 7084.08 155.91 o
975 4 0 -2 6 7954.28 7693.56 167.25 o
975 2 -4 2 -2 7954.28 7693.56 167.25 o
975 1 0 2 -6 7954.28 7693.56 167.25 o
976 4 -4 0 -6 41064.60 50668.60 280.64 o
976 2 1 -5 4 41064.60 50668.60 280.64 o
976 1 4 0 6 41064.60 50668.60 280.64 o
977 4 0 -4 6 41459.90 50334.10 277.81 o
977 2 -5 1 -4 41459.90 50334.10 277.81 o
977 1 0 4 -6 41459.90 50334.10 277.81 o
978 4 -6 0 -6 9538.31 11880.50 144.57 o
978 2 0 -6 6 9538.31 11880.50 144.57 o
978 1 6 0 6 9538.31 11880.50 144.57 o
979 4 0 -6 6 10112.50 12336.90 297.65 o
979 3 0 -6 6 10112.50 12336.90 297.65 o
979 2 -6 0 -6 10112.50 12336.90 297.65 o
979 1 0 6 -6 10112.50 12336.90 297.65 o
980 4 -8 0 -6 12277.50 15211.40 147.41 o
980 2 -1 -7 8 12277.50 15211.40 147.41 o
980 1 8 0 6 12277.50 15211.40 147.41 o
981 4 0 -8 6 12201.10 13932.90 337.34 o
981 2 -7 -1 -8 12201.10 13932.90 337.34 o
981 1 0 8 -6 12201.10 13932.90 337.34 o
982 4 1 -1 -6 5574.40 8419.26 343.01 o
982 2 3 -3 -2 5574.40 8419.26 343.01 o
982 1 -1 1 6 5574.40 8419.26 343.01 o
983 4 -1 1 6 5430.44 7614.18 286.31 o
983 2 -3 3 2 5430.44 7614.18 286.31 o
983 1 1 -1 -6 5430.44 7614.18 286.31 o
984 4 -1 -1 -6 13991.40 17989.40 232.45 o
984 2 2 -4 0 13991.40 17989.40 232.45 o
984 1 1 1 6 13991.40 17989.40 232.45 o
985 4 -1 -1 6 13986.30 17745.60 226.78 o
985 2 -4 2 0 13986.30 17745.60 226.78 o
985 1 1 1 -6 13986.30 17745.60 226.78 o
986 4 -3 -1 -6 15995.30 19355.80 198.43 o
986 2 1 -5 2 15995.30 19355.80 198.43 o
986 1 3 1 6 15995.30 19355.80 198.43 o
987 4 -1 -3 6 16016.70 20688.10 201.27 o
987 2 -5 1 -2 16016.70 20688.10 201.27 o
987 1 1 3 -6 16016.70 20688.10 201.27 o
988 4 -5 -1 -6 15299.70 21266.40 158.75 o
988 2 0 -6 4 15299.70 21266.40 158.75 o
988 1 5 1 6 15299.70 21266.40 158.75 o
989 4 -1 -5 6 15718.40 15143.30 286.31 o
989 2 -6 0 -4 15718.40 15143.30 286.31 o
989 1 1 5 -6 15718.40 15143.30 286.31 o
990 4 -7 -1 -6 16529.20 19301.90 153.08 o
990 2 -1 -7 6 16529.20 19301.90 153.08 o
990 1 7 1 6 16529.20 19301.90 153.08 o
991 4 -1 -7 6 16344.80 19202.70 323.16 o
991 2 -7 -1 -6 16344.80 19202.70 323.16 o
991 1 1 7 -6 16344.80 19202.70 323.16 o
992 4 -9 -1 -6 11337.80 12492.80 170.09 o
992 2 -2 -8 8 11337.80 12492.80 170.09 o
992 1 9 1 6 11337.80 12492.80 170.09 o
993 4 -1 -9 6 11436.10 11041.40 399.70 o
993 2 -8 -2 -8 11436.10 11041.40 399.70 o
993 1 1 9 -6 11436.10 11041.40 399.70 o
994 4 2 -2 -6 55970.20 56380.70 816.41 o
994 2 3 -3 -4 55970.20 56380.70 816.41 o
994 1 -2 2 6 55970.20 56380.70 816.41 o
995 4 -2 2 6 55403.80 65738.20 734.20 o
995 2 -3 3 4 55403.80 65738.20 734.20 o
995 1 2 -2 -6 55403.80 65738.20 734.20 o
996 4 0 -2 -6 8020.62 7509.30 212.61 o
996 2 2 -4 -2 8020.62 7509.30 212.61 o
996 1 0 2 6 8020.62 7509.30 212.61 o
997 4 -2 0 6 7373.61 7730.41 187.10 o
997 2 -4 2 2 7373.61 7730.41 187.10 o
997 1 2 0 -6 7373.61 7730.41 187.10 o
998 4 -2 -2 -6 58413.40 63031.00 354.35 o
998 2 1 -5 0 58413.40 63031.00 354.35 o
998 1 2 2 6 58413.40 63031.00 354.35 o
999 4 -2 -2 6 58509.10 61321.70 498.92 o
999 2 -5 1 0 58509.10 61321.70 498.92 o
999 1 2 2 -6 58509.10 61321.70 498.92 o
1000 4 -4 -2 -6 4034.27 5034.55 119.06 o
1000 2 0 -6 2 4034.27 5034.55 119.06 o
1000 1 4 2 6 4034.27 5034.55 119.06 o
1001 4 -2 -4 6 4233.41 2826.26 226.78 o
1001 2 -6 0 -2 4233.41 2826.26 226.78 o
1001 1 2 4 -6 4233.41 2826.26 226.78 o
1002 4 -6 -2 -6 24984.50 33906.60 189.93 o
1002 2 -1 -7 4 24984.50 33906.60 189.93 o
1002 1 6 2 6 24984.50 33906.60 189.93 o
1003 4 -2 -6 6 26163.70 28078.40 365.68 o
1003 3 1 -5 8 26163.70 28078.40 365.68 o
1003 2 -7 -1 -4 26163.70 28078.40 365.68 o
1003 1 2 6 -6 26163.70 28078.40 365.68 o
1004 4 -8 -2 -6 13125.20 14757.80 172.92 o
1004 2 -2 -8 6 13125.20 14757.80 172.92 o
1004 1 8 2 6 13125.20 14757.80 172.92 o
1005 4 -2 -8 6 13157.50 14582.00 331.67 o
1005 2 -8 -2 -6 13157.50 14582.00 331.67 o
1005 1 2 8 -6 13157.50 14582.00 331.67 o
1006 4 3 -3 -6 2242.82 2228.13 357.18 o
1006 2 3 -3 -6 2242.82 2228.13 357.18 o
1006 1 -3 3 6 2242.82 2228.13 357.18 o
1007 4 -3 3 6 1752.81 2647.67 345.84 o
1007 2 -3 3 6 1752.81 2647.67 345.84 o
1007 1 3 -3 -6 1752.81 2647.67 345.84 o
1008 4 1 -3 -6 23391.60 21249.40 445.06 o
1008 2 2 -4 -4 23391.60 21249.40 445.06 o
1008 1 -1 3 6 23391.60 21249.40 445.06 o
1009 4 -3 1 6 22422.50 28840.90 416.71 o
1009 2 -4 2 4 22422.50 28840.90 416.71 o
1009 1 3 -1 -6 22422.50 28840.90 416.71 o
1010 4 -1 -3 -6 16001.90 21283.40 212.61 o
1010 2 1 -5 -2 16001.90 21283.40 212.61 o
1010 1 1 3 6 16001.90 21283.40 212.61 o
1011 4 -3 -1 6 16010.20 24849.60 351.51 o
1011 2 -5 1 2 16010.20 24849.60 351.51 o
1011 1 3 1 -6 16010.20 24849.60 351.51 o
1012 4 -3 -3 -6 13244.90 15123.50 161.58 o
1012 2 0 -6 0 13244.90 15123.50 161.58 o
1012 1 3 3 6 13244.90 15123.50 161.58 o
1013 4 -3 -3 6 13221.90 8787.78 206.94 o
1013 2 -6 0 0 13221.90 8787.78 206.94 o
1013 1 3 3 -6 13221.90 8787.78 206.94 o
1014 4 -5 -3 -6 33153.90 41693.70 204.10 o
1014 2 -1 -7 2 33153.90 41693.70 204.10 o
1014 1 5 3 6 33153.90 41693.70 204.10 o
1015 4 -3 -5 6 33050.50 40746.90 340.17 o
1015 2 -7 -1 -2 33050.50 40746.90 340.17 o
1015 1 3 5 -6 33050.50 40746.90 340.17 o
1016 4 -7 -3 -6 9931.82 10936.50 144.57 o
1016 2 -2 -8 4 9931.82 10936.50 144.57 o
1016 1 7 3 6 9931.82 10936.50 144.57 o
1017 4 -3 -7 6 10010.40 6953.68 249.46 o
1017 2 -8 -2 -4 10010.40 6953.68 249.46 o
1017 1 3 7 -6 10010.40 6953.68 249.46 o
1018 4 -9 -3 -6 12869.60 12240.50 184.26 o
1018 2 -3 -9 6 12869.60 12240.50 184.26 o
1018 1 9 3 6 12869.60 12240.50 184.26 o
1019 4 -3 -9 6 12687.40 11313.60 348.68 o
1019 2 -9 -3 -6 12687.40 11313.60 348.68 o
1019 1 3 9 -6 12687.40 11313.60 348.68 o
1020 4 -4 4 6 31462.30 39434.40 654.83 o
1020 2 -3 3 8 31462.30 39434.40 654.83 o
1020 1 4 -4 -6 31462.30 39434.40 654.83 o
1021 4 2 -4 -6 2821.75 1647.00 263.63 o
1021 2 2 -4 -6 2821.75 1647.00 263.63 o
1021 1 -2 4 6 2821.75 1647.00 263.63 o
1022 4 -4 2 6 2044.55 1873.78 300.48 o
1022 2 -4 2 6 2044.55 1873.78 300.48 o
1022 1 4 -2 -6 2044.55 1873.78 300.48 o
1023 4 0 -4 -6 41394.80 38867.50 388.36 o
1023 2 1 -5 -4 41394.80 38867.50 388.36 o
1023 1 0 4 6 41394.80 38867.50 388.36 o
1024 4 -4 0 6 41129.70 50368.10 462.07 o
1024 2 -5 1 4 41129.70 50368.10 462.07 o
1024 1 4 0 -6 41129.70 50368.10 462.07 o
1025 4 -2 -4 -6 4269.85 4087.73 141.74 o
1025 2 0 -6 -2 4269.85 4087.73 141.74 o
1025 1 2 4 6 4269.85 4087.73 141.74 o
1026 4 -4 -2 6 3997.82 3359.20 215.44 o
1026 2 -6 0 2 3997.82 3359.20 215.44 o
1026 1 4 2 -6 3997.82 3359.20 215.44 o
1027 4 -4 -4 -6 36447.20 45390.30 218.28 o
1027 2 -1 -7 0 36447.20 45390.30 218.28 o
1027 1 4 4 6 36447.20 45390.30 218.28 o
1028 4 -4 -4 6 36488.50 43496.70 385.53 o
1028 2 -7 -1 0 36488.50 43496.70 385.53 o
1028 1 4 4 -6 36488.50 43496.70 385.53 o
1029 4 -6 -4 -6 8300.64 8929.51 150.24 o
1029 2 -2 -8 2 8300.64 8929.51 150.24 o
1029 1 6 4 6 8300.64 8929.51 150.24 o
1030 4 -4 -6 6 8413.90 7653.87 257.96 o
1030 3 2 -4 10 8413.90 7653.87 257.96 o
1030 2 -8 -2 -2 8413.90 7653.87 257.96 o
1030 1 4 6 -6 8413.90 7653.87 257.96 o
1031 4 -8 -4 -6 15351.00 16311.20 178.59 o
1031 2 -3 -9 4 15351.00 16311.20 178.59 o
1031 1 8 4 6 15351.00 16311.20 178.59 o
1032 4 -4 -8 6 15214.10 15404.10 337.34 o
1032 2 -9 -3 -4 15214.10 15404.10 337.34 o
1032 1 4 8 -6 15214.10 15404.10 337.34 o
1033 4 -5 5 6 2077.90 1295.49 394.03 o
1033 2 -3 3 10 2077.90 1295.49 394.03 o
1033 1 5 -5 -6 2077.90 1295.49 394.03 o
1034 4 -5 3 6 35459.00 34995.20 507.42 o
1034 2 -4 2 8 35459.00 34995.20 507.42 o
1034 1 5 -3 -6 35459.00 34995.20 507.42 o
1035 4 1 -5 -6 6765.83 9782.78 306.15 o
1035 2 1 -5 -6 6765.83 9782.78 306.15 o
1035 1 -1 5 6 6765.83 9782.78 306.15 o
1036 4 -5 1 6 6597.55 9975.54 311.82 o
1036 2 -5 1 6 6597.55 9975.54 311.82 o
1036 1 5 -1 -6 6597.55 9975.54 311.82 o
1037 4 -1 -5 -6 15726.20 14519.70 223.95 o
1037 2 0 -6 -4 15726.20 14519.70 223.95 o
1037 1 1 5 6 15726.20 14519.70 223.95 o
1038 4 -5 -1 6 15291.80 16589.10 294.82 o
1038 2 -6 0 4 15291.80 16589.10 294.82 o
1038 1 5 1 -6 15291.80 16589.10 294.82 o
1039 4 -3 -5 -6 33019.30 40548.50 238.12 o
1039 2 -1 -7 -2 33019.30 40548.50 238.12 o
1039 1 3 5 6 33019.30 40548.50 238.12 o
1040 4 -5 -3 6 33185.10 40117.60 340.17 o
1040 2 -7 -1 2 33185.10 40117.60 340.17 o
1040 1 5 3 -6 33185.10 40117.60 340.17 o
1041 4 -5 -5 -6 9302.89 5068.56 130.40 o
1041 2 -2 -8 0 9302.89 5068.56 130.40 o
1041 1 5 5 6 9302.89 5068.56 130.40 o
1042 4 -5 -5 6 9274.22 4946.67 252.29 o
1042 2 -8 -2 0 9274.22 4946.67 252.29 o
1042 1 5 5 -6 9274.22 4946.67 252.29 o
1043 4 -7 -5 -6 25123.60 25912.60 181.43 o
1043 2 -3 -9 2 25123.60 25912.60 181.43 o
1043 1 7 5 6 25123.60 25912.60 181.43 o
1044 4 -5 -7 6 25039.20 27789.20 360.02 o
1044 2 -9 -3 -2 25039.20 27789.20 360.02 o
1044 1 5 7 -6 25039.20 27789.20 360.02 o
1045 4 -6 4 6 4987.03 5247.15 232.45 o
1045 2 -4 2 10 4987.03 5247.15 232.45 o
1045 1 6 -4 -6 4987.03 5247.15 232.45 o
1046 4 2 -6 -6 22586.60 21720.00 385.53 o
1046 2 1 -5 -8 22586.60 21720.00 385.53 o
1046 1 -2 6 6 22586.60 21720.00 385.53 o
1047 4 -6 2 6 22300.30 23126.00 343.01 o
1047 2 -5 1 8 22300.30 23126.00 343.01 o
1047 1 6 -2 -6 22300.30 23126.00 343.01 o
1048 4 0 -6 -6 9814.87 10363.90 326.00 o
1048 2 0 -6 -6 9814.87 10363.90 326.00 o
1048 1 0 6 6 9814.87 10363.90 326.00 o
1049 4 -6 0 6 9524.70 12297.20 274.97 o
1049 2 -6 0 6 9524.70 12297.20 274.97 o
1049 1 6 0 -6 9524.70 12297.20 274.97 o
1050 4 -2 -6 -6 24894.00 27239.30 249.46 o
1050 2 -1 -7 -4 24894.00 27239.30 249.46 o
1050 1 2 6 6 24894.00 27239.30 249.46 o
1051 4 -6 -2 6 25009.70 25504.40 289.15 o
1051 2 -7 -1 4 25009.70 25504.40 289.15 o
1051 1 6 2 -6 25009.70 25504.40 289.15 o
1052 4 -4 -6 -6 8344.83 6287.51 150.24 o
1052 2 -2 -8 -2 8344.83 6287.51 150.24 o
1052 1 4 6 6 8344.83 6287.51 150.24 o
1053 4 -6 -4 6 8283.88 7512.13 238.12 o
1053 2 -8 -2 2 8283.88 7512.13 238.12 o
1053 1 6 4 -6 8283.88 7512.13 238.12 o
1054 4 -6 -6 -6 22848.40 21479.00 187.10 o
1054 2 -3 -9 0 22848.40 21479.00 187.10 o
1054 1 6 6 6 22848.40 21479.00 187.10 o
1055 4 -6 -6 6 23662.30 24994.10 345.84 o
1055 3 3 -3 12 23662.30 24994.10 345.84 o
1055 2 -9 -3 0 23662.30 24994.10 345.84 o
1055 1 6 6 -6 23662.30 24994.10 345.84 o
1056 4 -7 5 6 26147.30 27335.70 379.86 o
1056 2 -4 2 12 26147.30 27335.70 379.86 o
1056 1 7 -5 -6 26147.30 27335.70 379.86 o
1057 4 -7 3 6 4414.52 4941.00 206.94 o
1057 2 -5 1 10 4414.52 4941.00 206.94 o
1057 1 7 -3 -6 4414.52 4941.00 206.94 o
1058 4 1 -7 -6 20611.80 22587.40 399.70 o
1058 2 0 -6 -8 20611.80 22587.40 399.70 o
1058 1 -1 7 6 20611.80 22587.40 399.70 o
1059 4 -7 1 6 20174.20 24724.80 337.34 o
1059 2 -6 0 8 20174.20 24724.80 337.34 o
1059 1 7 -1 -6 20174.20 24724.80 337.34 o
1060 4 -1 -7 -6 16335.30 18434.50 274.97 o
1060 2 -1 -7 -6 16335.30 18434.50 274.97 o
1060 1 1 7 6 16335.30 18434.50 274.97 o
1061 4 -7 -1 6 16538.70 20495.40 303.32 o
1061 2 -7 -1 6 16538.70 20495.40 303.32 o
1061 1 7 1 -6 16538.70 20495.40 303.32 o
1062 4 -3 -7 -6 10027.80 6707.06 170.09 o
1062 2 -2 -8 -4 10027.80 6707.06 170.09 o
1062 1 3 7 6 10027.80 6707.06 170.09 o
1063 4 -7 -3 6 9914.41 9717.58 263.63 o
1063 2 -8 -2 4 9914.41 9717.58 263.63 o
1063 1 7 3 -6 9914.41 9717.58 263.63 o
1064 4 -5 -7 -6 25015.50 23831.90 212.61 o
1064 2 -3 -9 -2 25015.50 23831.90 212.61 o
1064 1 5 7 6 25015.50 23831.90 212.61 o
1065 4 -7 -5 6 25147.30 25751.00 303.32 o
1065 2 -9 -3 2 25147.30 25751.00 303.32 o
1065 1 7 5 -6 25147.30 25751.00 303.32 o
1066 4 -8 4 6 14817.90 18304.10 308.99 o
1066 2 -5 1 12 14817.90 18304.10 308.99 o
1066 1 8 -4 -6 14817.90 18304.10 308.99 o
1067 4 -8 2 6 11639.80 12277.40 294.82 o
1067 2 -6 0 10 11639.80 12277.40 294.82 o
1067 1 8 -2 -6 11639.80 12277.40 294.82 o
1068 4 0 -8 -6 12197.60 11183.20 311.82 o
1068 2 -1 -7 -8 12197.60 11183.20 311.82 o
1068 1 0 8 6 12197.60 11183.20 311.82 o
1069 4 -8 0 6 12281.00 14684.10 294.82 o
1069 2 -7 -1 8 12281.00 14684.10 294.82 o
1069 1 8 0 -6 12281.00 14684.10 294.82 o
1070 4 -2 -8 -6 13159.20 9385.91 229.62 o
1070 2 -2 -8 -6 13159.20 9385.91 229.62 o
1070 1 2 8 6 13159.20 9385.91 229.62 o
1071 4 -8 -2 6 13123.60 13918.70 277.81 o
1071 2 -8 -2 6 13123.60 13918.70 277.81 o
1071 1 8 2 -6 13123.60 13918.70 277.81 o
1072 4 -4 -8 -6 15204.00 10902.50 229.62 o
1072 2 -3 -9 -4 15204.00 10902.50 229.62 o
1072 1 4 8 6 15204.00 10902.50 229.62 o
1073 4 -8 -4 6 15361.10 15713.10 340.17 o
1073 2 -9 -3 4 15361.10 15713.10 340.17 o
1073 1 8 4 -6 15361.10 15713.10 340.17 o
1074 4 -9 3 6 14107.20 11778.50 257.96 o
1074 2 -6 0 12 14107.20 11778.50 257.96 o
1074 1 9 -3 -6 14107.20 11778.50 257.96 o
1075 4 1 -9 -6 8700.40 8569.50 374.19 o
1075 2 -1 -7 -10 8700.40 8569.50 374.19 o
1075 1 -1 9 6 8700.40 8569.50 374.19 o
1076 4 -9 1 6 8859.59 8784.94 286.31 o
1076 2 -7 -1 10 8859.59 8784.94 286.31 o
1076 1 9 -1 -6 8859.59 8784.94 286.31 o
1077 4 -1 -9 -6 11438.50 9394.42 246.62 o
1077 2 -2 -8 -8 11438.50 9394.42 246.62 o
1077 1 1 9 6 11438.50 9394.42 246.62 o
1078 4 -9 -1 6 11335.50 10911.00 272.14 o
1078 2 -8 -2 8 11335.50 10911.00 272.14 o
1078 1 9 1 -6 11335.50 10911.00 272.14 o
1079 4 -3 -9 -6 12678.00 8113.10 252.29 o
1079 2 -3 -9 -6 12678.00 8113.10 252.29 o
1079 1 3 9 6 12678.00 8113.10 252.29 o
1080 4 -9 -3 6 12879.00 12620.40 300.48 o
1080 2 -9 -3 6 12879.00 12620.40 300.48 o
1080 1 9 3 -6 12879.00 12620.40 300.48 o
1081 4 -7 6 -7 129.88 51.03 204.10 <
1081 2 3 -4 13 129.88 51.03 204.10 <
1081 1 7 -6 7 129.88 51.03 204.10 <
1082 4 6 -7 7 207.19 124.73 243.79 <
1082 3 -3 -10 1 207.19 124.73 243.79 <
1082 2 -4 3 -13 207.19 124.73 243.79 <
1082 1 -6 7 -7 207.19 124.73 243.79 <
1083 4 7 -6 7 129.88 -53.86 272.14 <
1083 2 -3 4 -13 129.88 -53.86 272.14 <
1083 1 -7 6 -7 129.88 -53.86 272.14 <
1084 4 -6 5 -7 548.68 657.67 181.43 o
1084 2 3 -4 11 548.68 657.67 181.43 o
1084 1 6 -5 7 548.68 657.67 181.43 o
1085 4 5 -6 7 548.68 388.36 178.59 o
1085 2 -4 3 -11 548.68 388.36 178.59 o
1085 1 -5 6 -7 548.68 388.36 178.59 o
1086 4 -8 5 -7 647.04 394.03 201.27 <
1086 2 2 -5 13 647.04 394.03 201.27 <
1086 1 8 -5 7 647.04 394.03 201.27 <
1087 4 5 -8 7 647.04 328.83 189.93 <
1087 2 -5 2 -13 647.04 328.83 189.93 <
1087 1 -5 8 -7 647.04 328.83 189.93 <
1088 4 -5 4 -7 504.03 643.49 138.90 o
1088 2 3 -4 9 504.03 643.49 138.90 o
1088 1 5 -4 7 504.03 643.49 138.90 o
1089 4 4 -5 7 504.03 674.67 133.23 o
1089 2 -4 3 -9 504.03 674.67 133.23 o
1089 1 -4 5 -7 504.03 674.67 133.23 o
1090 4 -7 4 -7 406.79 623.65 192.76 o
1090 2 2 -5 11 406.79 623.65 192.76 o
1090 1 7 -4 7 406.79 623.65 192.76 o
1091 4 4 -7 7 447.62 391.20 274.97 <
1091 3 -2 -9 3 447.62 391.20 274.97 <
1091 2 -5 2 -11 447.62 391.20 274.97 <
1091 1 -4 7 -7 447.62 391.20 274.97 <
1092 4 7 -4 7 406.79 408.21 175.76 o
1092 2 -2 5 -11 406.79 408.21 175.76 o
1092 1 -7 4 -7 406.79 408.21 175.76 o
1093 4 -4 3 -7 3772.07 4130.25 127.56 o
1093 2 3 -4 7 3772.07 4130.25 127.56 o
1093 1 4 -3 7 3772.07 4130.25 127.56 o
1094 4 3 -4 7 3772.09 4478.93 144.57 o
1094 2 -4 3 -7 3772.09 4478.93 144.57 o
1094 1 -3 4 -7 3772.09 4478.93 144.57 o
1095 4 -6 3 -7 2916.97 1907.80 147.41 o
1095 2 2 -5 9 2916.97 1907.80 147.41 o
1095 1 6 -3 7 2916.97 1907.80 147.41 o
1096 4 3 -6 7 2916.97 2247.97 144.57 o
1096 2 -5 2 -9 2916.97 2247.97 144.57 o
1096 1 -3 6 -7 2916.97 2247.97 144.57 o
1097 4 -8 3 -7 1995.74 1295.49 141.74 o
1097 2 1 -6 11 1995.74 1295.49 141.74 o
1097 1 8 -3 7 1995.74 1295.49 141.74 o
1098 4 3 -8 7 1995.73 1454.24 294.82 o
1098 2 -6 1 -11 1995.73 1454.24 294.82 o
1098 1 -3 8 -7 1995.73 1454.24 294.82 o
1099 4 -3 2 -7 2785.11 3098.40 138.90 o
1099 2 3 -4 5 2785.11 3098.40 138.90 o
1099 1 3 -2 7 2785.11 3098.40 138.90 o
1100 4 2 -3 7 2785.13 3336.52 141.74 o
1100 2 -4 3 -5 2785.13 3336.52 141.74 o
1100 1 -2 3 -7 2785.13 3336.52 141.74 o
1101 4 -5 2 -7 19.82 76.54 121.89 <
1101 2 2 -5 7 19.82 76.54 121.89 <
1101 1 5 -2 7 19.82 76.54 121.89 <
1102 4 2 -5 7 19.82 22.68 133.23 <
1102 2 -5 2 -7 19.82 22.68 133.23 <
1102 1 -2 5 -7 19.82 22.68 133.23 <
1103 4 -7 2 -7 1114.94 912.79 141.74 o
1103 2 1 -6 9 1114.94 912.79 141.74 o
1103 1 7 -2 7 1114.94 912.79 141.74 o
1104 4 2 -7 7 1304.30 1227.45 223.95 o
1104 3 -1 -8 5 1304.30 1227.45 223.95 o
1104 2 -6 1 -9 1304.30 1227.45 223.95 o
1104 1 -2 7 -7 1304.30 1227.45 223.95 o
1105 4 -9 2 -7 364.08 436.55 153.08 o
1105 1 9 -2 7 364.08 436.55 153.08 o
1106 4 2 -9 7 364.08 1020.52 320.33 o
1106 1 -2 9 -7 364.08 1020.52 320.33 o
1107 4 -2 1 -7 6192.15 8050.74 158.75 o
1107 2 3 -4 3 6192.15 8050.74 158.75 o
1107 1 2 -1 7 6192.15 8050.74 158.75 o
1108 4 1 -2 7 6192.13 8101.76 147.41 o
1108 2 -4 3 -3 6192.13 8101.76 147.41 o
1108 1 -1 2 -7 6192.13 8101.76 147.41 o
1109 4 -4 1 -7 7811.70 6845.96 153.08 o
1109 2 2 -5 5 7811.70 6845.96 153.08 o
1109 1 4 -1 7 7811.70 6845.96 153.08 o
1110 4 1 -4 7 7811.69 7716.23 144.57 o
1110 2 -5 2 -5 7811.69 7716.23 144.57 o
1110 1 -1 4 -7 7811.69 7716.23 144.57 o
1111 4 -6 1 -7 7849.05 6505.79 164.42 o
1111 2 1 -6 7 7849.05 6505.79 164.42 o
1111 1 6 -1 7 7849.05 6505.79 164.42 o
1112 4 1 -6 7 7849.03 7815.45 266.47 o
1112 2 -6 1 -7 7849.03 7815.45 266.47 o
1112 1 -1 6 -7 7849.03 7815.45 266.47 o
1113 4 -8 1 -7 2422.24 1411.71 130.40 o
1113 1 8 -1 7 2422.24 1411.71 130.40 o
1114 4 1 -8 7 2422.24 2270.65 308.99 o
1114 1 -1 8 -7 2422.24 2270.65 308.99 o
1115 4 -2 -1 -7 3765.23 4172.78 147.41 o
1115 2 2 -5 1 3765.23 4172.78 147.41 o
1115 1 2 1 7 3765.23 4172.78 147.41 o
1116 4 -1 -2 7 3765.25 4393.89 136.07 o
1116 2 -5 2 -1 3765.25 4393.89 136.07 o
1116 1 1 2 -7 3765.25 4393.89 136.07 o
1117 4 -4 -1 -7 12692.70 13717.40 181.43 o
1117 2 1 -6 3 12692.70 13717.40 181.43 o
1117 1 4 1 7 12692.70 13717.40 181.43 o
1118 4 -1 -4 7 12692.70 11665.10 274.97 o
1118 2 -6 1 -3 12692.70 11665.10 274.97 o
1118 1 1 4 -7 12692.70 11665.10 274.97 o
1119 4 -6 -1 -7 6049.37 4918.32 113.39 o
1119 1 6 1 7 6049.37 4918.32 113.39 o
1120 4 -1 -6 7 6049.37 6137.27 257.96 o
1120 1 1 6 -7 6049.37 6137.27 257.96 o
1121 4 -8 -1 -7 3142.85 2471.92 130.40 o
1121 2 -1 -8 7 3142.85 2471.92 130.40 o
1121 1 8 1 7 3142.85 2471.92 130.40 o
1122 4 -1 -8 7 3142.86 2403.88 300.48 o
1122 2 -8 -1 -7 3142.86 2403.88 300.48 o
1122 1 1 8 -7 3142.86 2403.88 300.48 o
1123 4 1 -2 -7 6192.12 7316.53 232.45 o
1123 2 3 -4 -3 6192.12 7316.53 232.45 o
1123 1 -1 2 7 6192.12 7316.53 232.45 o
1124 4 -2 1 7 6192.15 6919.67 192.76 o
1124 2 -4 3 3 6192.15 6919.67 192.76 o
1124 1 2 -1 -7 6192.15 6919.67 192.76 o
1125 4 -1 -2 -7 3765.25 4008.36 161.58 o
1125 2 2 -5 -1 3765.25 4008.36 161.58 o
1125 1 1 2 7 3765.25 4008.36 161.58 o
1126 4 -2 -1 7 3765.23 4796.42 158.75 o
1126 2 -5 2 1 3765.23 4796.42 158.75 o
1126 1 2 1 -7 3765.23 4796.42 158.75 o
1127 4 -3 -2 -7 7197.29 6216.64 116.22 o
1127 2 1 -6 1 7197.29 6216.64 116.22 o
1127 1 3 2 7 7197.29 6216.64 116.22 o
1128 4 -2 -3 7 7197.71 5471.10 240.96 o
1128 2 -6 1 -1 7197.71 5471.10 240.96 o
1128 1 2 3 -7 7197.71 5471.10 240.96 o
1129 4 -5 -2 -7 15.28 141.74 113.39 <
1129 1 5 2 7 15.28 141.74 113.39 <
1130 4 -2 -5 7 15.28 -119.06 161.58 <
1130 1 2 5 -7 15.28 -119.06 161.58 <
1131 4 -7 -2 -7 1549.19 1709.36 121.89 o
1131 2 -1 -8 5 1549.19 1709.36 121.89 o
1131 1 7 2 7 1549.19 1709.36 121.89 o
1132 4 -2 -7 7 1673.55 1303.99 249.46 o
1132 3 1 -6 9 1673.55 1303.99 249.46 o
1132 2 -8 -1 -5 1673.55 1303.99 249.46 o
1132 1 2 7 -7 1673.55 1303.99 249.46 o
1133 4 -9 -2 -7 472.40 532.94 136.07 o
1133 2 -2 -9 7 472.40 532.94 136.07 o
1133 1 9 2 7 472.40 532.94 136.07 o
1134 4 -2 -9 7 472.40 360.02 294.82 <
1134 2 -9 -2 -7 472.40 360.02 294.82 <
1134 1 2 9 -7 472.40 360.02 294.82 <
1135 4 2 -3 -7 2785.13 1564.79 269.30 o
1135 2 3 -4 -5 2785.13 1564.79 269.30 o
1135 1 -2 3 7 2785.13 1564.79 269.30 o
1136 4 -3 2 7 2785.11 2610.82 252.29 o
1136 2 -4 3 5 2785.11 2610.82 252.29 o
1136 1 3 -2 -7 2785.11 2610.82 252.29 o
1137 4 -2 -3 -7 7197.71 8351.22 136.07 o
1137 2 1 -6 -1 7197.71 8351.22 136.07 o
1137 1 2 3 7 7197.71 8351.22 136.07 o
1138 4 -3 -2 7 7197.29 6145.77 223.95 o
1138 2 -6 1 1 7197.29 6145.77 223.95 o
1138 1 3 2 -7 7197.29 6145.77 223.95 o
1139 4 -4 -3 -7 2907.20 2333.01 110.56 o
1139 1 4 3 7 2907.20 2333.01 110.56 o
1140 4 -3 -4 7 2907.19 3980.01 221.11 o
1140 1 3 4 -7 2907.19 3980.01 221.11 o
1141 4 -6 -3 -7 4762.48 4600.83 130.40 o
1141 2 -1 -8 3 4762.48 4600.83 130.40 o
1141 1 6 3 7 4762.48 4600.83 130.40 o
1142 4 -3 -6 7 4762.46 3909.14 223.95 o
1142 2 -8 -1 -3 4762.46 3909.14 223.95 o
1142 1 3 6 -7 4762.46 3909.14 223.95 o
1143 4 -8 -3 -7 1860.41 1360.69 136.07 o
1143 2 -2 -9 5 1860.41 1360.69 136.07 o
1143 1 8 3 7 1860.41 1360.69 136.07 o
1144 4 -3 -8 7 1860.41 1423.05 297.65 o
1144 2 -9 -2 -5 1860.41 1423.05 297.65 o
1144 1 3 8 -7 1860.41 1423.05 297.65 o
1145 4 3 -4 -7 3772.09 4056.55 377.02 o
1145 2 3 -4 -7 3772.09 4056.55 377.02 o
1145 1 -3 4 7 3772.09 4056.55 377.02 o
1146 4 -4 3 7 3772.07 3877.96 340.17 o
1146 2 -4 3 7 3772.07 3877.96 340.17 o
1146 1 4 -3 -7 3772.07 3877.96 340.17 o
1147 4 1 -4 -7 7811.69 10125.80 348.68 o
1147 2 2 -5 -5 7811.69 10125.80 348.68 o
1147 1 -1 4 7 7811.69 10125.80 348.68 o
1148 4 -4 1 7 7811.70 9048.57 291.98 o
1148 2 -5 2 5 7811.70 9048.57 291.98 o
1148 1 4 -1 -7 7811.70 9048.57 291.98 o
1149 4 -1 -4 -7 12692.70 11149.10 195.60 o
1149 2 1 -6 -3 12692.70 11149.10 195.60 o
1149 1 1 4 7 12692.70 11149.10 195.60 o
1150 4 -4 -1 7 12692.70 13643.70 277.81 o
1150 2 -6 1 3 12692.70 13643.70 277.81 o
1150 1 4 1 -7 12692.70 13643.70 277.81 o
1151 4 -3 -4 -7 2907.19 3719.21 136.07 o
1151 1 3 4 7 2907.19 3719.21 136.07 o
1152 4 -4 -3 7 2907.20 4087.73 223.95 o
1152 1 4 3 -7 2907.20 4087.73 223.95 o
1153 4 -5 -4 -7 2349.84 2780.91 133.23 o
1153 2 -1 -8 1 2349.84 2780.91 133.23 o
1153 1 5 4 7 2349.84 2780.91 133.23 o
1154 4 -4 -5 7 2349.70 1275.64 229.62 o
1154 2 -8 -1 -1 2349.70 1275.64 229.62 o
1154 1 4 5 -7 2349.70 1275.64 229.62 o
1155 4 -7 -4 -7 677.82 793.73 127.56 o
1155 2 -2 -9 3 677.82 793.73 127.56 o
1155 1 7 4 7 677.82 793.73 127.56 o
1156 4 -4 -7 7 678.06 768.22 260.80 o
1156 3 2 -5 11 678.06 768.22 260.80 o
1156 2 -9 -2 -3 678.06 768.22 260.80 o
1156 1 4 7 -7 678.06 768.22 260.80 o
1157 4 -5 4 7 504.03 215.44 240.96 <
1157 2 -4 3 9 504.03 215.44 240.96 <
1157 1 5 -4 -7 504.03 215.44 240.96 <
1158 4 2 -5 -7 19.82 82.21 317.49 <
1158 2 2 -5 -7 19.82 82.21 317.49 <
1158 1 -2 5 7 19.82 82.21 317.49 <
1159 4 -5 2 7 19.82 59.53 229.62 <
1159 2 -5 2 7 19.82 59.53 229.62 <
1159 1 5 -2 -7 19.82 59.53 229.62 <
1160 4 -2 -5 -7 15.28 87.88 141.74 <
1160 1 2 5 7 15.28 87.88 141.74 <
1161 4 -5 -2 7 15.28 53.86 209.77 <
1161 1 5 2 -7 15.28 53.86 209.77 <
1162 4 -4 -5 -7 2349.70 2131.74 130.40 o
1162 2 -1 -8 -1 2349.70 2131.74 130.40 o
1162 1 4 5 7 2349.70 2131.74 130.40 o
1163 4 -5 -4 7 2349.83 1808.58 206.94 o
1163 2 -8 -1 1 2349.83 1808.58 206.94 o
1163 1 5 4 -7 2349.83 1808.58 206.94 o
1164 4 -6 -5 -7 726.66 521.60 130.40 o
1164 2 -2 -9 1 726.66 521.60 130.40 o
1164 1 6 5 7 726.66 521.60 130.40 o
1165 4 -5 -6 7 726.63 598.14 206.94 o
1165 2 -9 -2 -1 726.63 598.14 206.94 o
1165 1 5 6 -7 726.63 598.14 206.94 o
1166 4 -8 -5 -7 1077.28 731.37 155.91 o
1166 2 -3 -10 3 1077.28 731.37 155.91 o
1166 1 8 5 7 1077.28 731.37 155.91 o
1167 4 -5 -8 7 1077.28 1029.02 297.65 o
1167 2 -10 -3 -3 1077.28 1029.02 297.65 o
1167 1 5 8 -7 1077.28 1029.02 297.65 o
1168 4 -6 5 7 548.68 340.17 323.16 <
1168 2 -4 3 11 548.68 340.17 323.16 <
1168 1 6 -5 -7 548.68 340.17 323.16 <
1169 4 -6 3 7 2916.97 2508.77 274.97 o
1169 2 -5 2 9 2916.97 2508.77 274.97 o
1169 1 6 -3 -7 2916.97 2508.77 274.97 o
1170 4 1 -6 -7 7849.03 6721.23 303.32 o
1170 2 1 -6 -7 7849.03 6721.23 303.32 o
1170 1 -1 6 7 7849.03 6721.23 303.32 o
1171 4 -6 1 7 7849.05 7384.57 263.63 o
1171 2 -6 1 7 7849.05 7384.57 263.63 o
1171 1 6 -1 -7 7849.05 7384.57 263.63 o
1172 4 -1 -6 -7 6049.37 6332.87 232.45 o
1172 1 1 6 7 6049.37 6332.87 232.45 o
1173 4 -6 -1 7 6049.37 5992.70 272.14 o
1173 1 6 1 -7 6049.37 5992.70 272.14 o
1174 4 -3 -6 -7 4762.46 3807.09 153.08 o
1174 2 -1 -8 -3 4762.46 3807.09 153.08 o
1174 1 3 6 7 4762.46 3807.09 153.08 o
1175 4 -6 -3 7 4762.48 4121.75 243.79 o
1175 2 -8 -1 3 4762.48 4121.75 243.79 o
1175 1 6 3 -7 4762.48 4121.75 243.79 o
1176 4 -5 -6 -7 726.63 382.69 144.57 o
1176 2 -2 -9 -1 726.63 382.69 144.57 o
1176 1 5 6 7 726.63 382.69 144.57 o
1177 4 -6 -5 7 726.66 544.28 252.29 o
1177 2 -9 -2 1 726.66 544.28 252.29 o
1177 1 6 5 -7 726.66 544.28 252.29 o
1178 4 -7 -6 -7 596.98 598.14 150.24 o
1178 2 -3 -10 1 596.98 598.14 150.24 o
1178 1 7 6 7 596.98 598.14 150.24 o
1179 4 -6 -7 7 604.34 620.81 257.96 o
1179 3 3 -4 13 604.34 620.81 257.96 o
1179 2 -10 -3 -1 604.34 620.81 257.96 o
1179 1 6 7 -7 604.34 620.81 257.96 o
1180 4 -7 4 7 406.79 578.29 235.29 o
1180 2 -5 2 11 406.79 578.29 235.29 o
1180 1 7 -4 -7 406.79 578.29 235.29 o
1181 4 2 -7 -7 1114.94 524.43 286.31 <
1181 2 1 -6 -9 1114.94 524.43 286.31 <
1181 1 -2 7 7 1114.94 524.43 286.31 <
1182 4 -7 2 7 1114.94 360.02 235.29 <
1182 2 -6 1 9 1114.94 360.02 235.29 <
1182 1 7 -2 -7 1114.94 360.02 235.29 <
1183 4 -2 -7 -7 1549.21 717.20 178.59 o
1183 2 -1 -8 -5 1549.21 717.20 178.59 o
1183 1 2 7 7 1549.21 717.20 178.59 o
1184 4 -7 -2 7 1549.19 1442.90 243.79 o
1184 2 -8 -1 5 1549.19 1442.90 243.79 o
1184 1 7 2 -7 1549.19 1442.90 243.79 o
1185 4 -4 -7 -7 677.82 691.68 164.42 o
1185 2 -2 -9 -3 677.82 691.68 164.42 o
1185 1 4 7 7 677.82 691.68 164.42 o
1186 4 -7 -4 7 677.82 513.09 232.45 o
1186 2 -9 -2 3 677.82 513.09 232.45 o
1186 1 7 4 -7 677.82 513.09 232.45 o
1187 4 -6 -7 -7 596.96 490.42 161.58 o
1187 2 -3 -10 -1 596.96 490.42 161.58 o
1187 1 6 7 7 596.96 490.42 161.58 o
1188 4 -7 -6 7 596.98 328.83 297.65 <
1188 2 -10 -3 1 596.98 328.83 297.65 <
1188 1 7 6 -7 596.98 328.83 297.65 <
1189 4 -8 5 7 647.04 660.50 283.48 o
1189 2 -5 2 13 647.04 660.50 283.48 o
1189 1 8 -5 -7 647.04 660.50 283.48 o
1190 4 -8 3 7 1995.73 1706.53 249.46 o
1190 2 -6 1 11 1995.73 1706.53 249.46 o
1190 1 8 -3 -7 1995.73 1706.53 249.46 o
1191 4 1 -8 -7 2422.24 2497.43 331.67 o
1191 1 -1 8 7 2422.24 2497.43 331.67 o
1192 4 -8 1 7 2422.24 2069.38 269.30 o
1192 1 8 -1 -7 2422.24 2069.38 269.30 o
1193 4 -1 -8 -7 3142.86 2242.30 232.45 o
1193 2 -1 -8 -7 3142.86 2242.30 232.45 o
1193 1 1 8 7 3142.86 2242.30 232.45 o
1194 4 -8 -1 7 3142.85 2375.53 232.45 o
1194 2 -8 -1 7 3142.85 2375.53 232.45 o
1194 1 8 1 -7 3142.85 2375.53 232.45 o
1195 4 -3 -8 -7 1860.41 1411.71 218.28 o
1195 2 -2 -9 -5 1860.41 1411.71 218.28 o
1195 1 3 8 7 1860.41 1411.71 218.28 o
1196 4 -8 -3 7 1860.41 1258.64 192.76 o
1196 2 -9 -2 5 1860.41 1258.64 192.76 o
1196 1 8 3 -7 1860.41 1258.64 192.76 o
1197 4 -5 -8 -7 1077.28 788.07 187.10 o
1197 2 -3 -10 -3 1077.28 788.07 187.10 o
1197 1 5 8 7 1077.28 788.07 187.10 o
1198 4 -8 -5 7 1077.28 980.83 215.44 o
1198 2 -10 -3 3 1077.28 980.83 215.44 o
1198 1 8 5 -7 1077.28 980.83 215.44 o
1199 4 -9 2 7 364.08 450.73 249.46 <
1199 1 9 -2 -7 364.08 450.73 249.46 <
1200 4 -2 -9 -7 472.40 643.49 226.78 o
1200 2 -2 -9 -7 472.40 643.49 226.78 o
1200 1 2 9 7 472.40 643.49 226.78 o
1201 4 -9 -2 7 472.40 493.25 249.46 <
1201 2 -9 -2 7 472.40 493.25 249.46 <
1201 1 9 2 -7 472.40 493.25 249.46 <
1202 4 -6 6 -8 24067.70 23871.60 357.18 o
1202 2 4 -4 12 24067.70 23871.60 357.18 o
1202 1 6 -6 8 24067.70 23871.60 357.18 o
1203 4 6 -6 8 23927.60 28659.50 357.18 o
1203 2 -4 4 -12 23927.60 28659.50 357.18 o
1203 1 -6 6 -8 23927.60 28659.50 357.18 o
1204 4 -5 5 -8 12093.80 12288.70 257.96 o
1204 2 4 -4 10 12093.80 12288.70 257.96 o
1204 1 5 -5 8 12093.80 12288.70 257.96 o
1205 4 5 -5 8 11533.70 14417.60 289.15 o
1205 2 -4 4 -10 11533.70 14417.60 289.15 o
1205 1 -5 5 -8 11533.70 14417.60 289.15 o
1206 4 -7 5 -8 26895.00 25328.60 246.62 o
1206 2 3 -5 12 26895.00 25328.60 246.62 o
1206 1 7 -5 8 26895.00 25328.60 246.62 o
1207 4 5 -7 8 26783.00 28563.10 221.11 o
1207 2 -5 3 -12 26783.00 28563.10 221.11 o
1207 1 -5 7 -8 26783.00 28563.10 221.11 o
1208 4 -4 4 -8 56689.10 59595.30 396.87 o
1208 2 4 -4 8 56689.10 59595.30 396.87 o
1208 1 4 -4 8 56689.10 59595.30 396.87 o
1209 4 4 -4 8 56258.60 70974.00 433.72 o
1209 2 -4 4 -8 56258.60 70974.00 433.72 o
1209 1 -4 4 -8 56258.60 70974.00 433.72 o
1210 4 -6 4 -8 17532.40 17127.70 198.43 o
1210 2 3 -5 10 17532.40 17127.70 198.43 o
1210 1 6 -4 8 17532.40 17127.70 198.43 o
1211 4 4 -6 8 17045.40 19041.10 201.27 o
1211 2 -5 3 -10 17045.40 19041.10 201.27 o
1211 1 -4 6 -8 17045.40 19041.10 201.27 o
1212 4 -8 4 -8 16249.30 14343.90 209.77 o
1212 2 2 -6 12 16249.30 14343.90 209.77 o
1212 1 8 -4 8 16249.30 14343.90 209.77 o
1213 4 4 -8 8 16472.20 18445.80 362.85 o
1213 3 -2 -10 4 16472.20 18445.80 362.85 o
1213 2 -6 2 -12 16472.20 18445.80 362.85 o
1213 1 -4 8 -8 16472.20 18445.80 362.85 o
1214 4 -3 3 -8 35190.50 40103.40 314.66 o
1214 2 4 -4 6 35190.50 40103.40 314.66 o
1214 1 3 -3 8 35190.50 40103.40 314.66 o
1215 4 3 -3 8 34319.70 46782.20 334.50 o
1215 2 -4 4 -6 34319.70 46782.20 334.50 o
1215 1 -3 3 -8 34319.70 46782.20 334.50 o
1216 4 -5 3 -8 58936.80 60780.20 280.64 o
1216 2 3 -5 8 58936.80 60780.20 280.64 o
1216 1 5 -3 8 58936.80 60780.20 280.64 o
1217 4 3 -5 8 58537.90 72944.20 311.82 o
1217 2 -5 3 -8 58537.90 72944.20 311.82 o
1217 1 -3 5 -8 58537.90 72944.20 311.82 o
1218 4 -7 3 -8 12526.40 10913.90 201.27 o
1218 2 2 -6 10 12526.40 10913.90 201.27 o
1218 1 7 -3 8 12526.40 10913.90 201.27 o
1219 4 3 -7 8 12180.70 12073.30 206.94 o
1219 2 -6 2 -10 12180.70 12073.30 206.94 o
1219 1 -3 7 -8 12180.70 12073.30 206.94 o
1220 4 -2 2 -8 131789.00 113875.00 549.95 o
1220 2 4 -4 4 131789.00 113875.00 549.95 o
1220 1 2 -2 8 131789.00 113875.00 549.95 o
1221 4 2 -2 8 131253.00 136769.00 606.64 o
1221 2 -4 4 -4 131253.00 136769.00 606.64 o
1221 1 -2 2 -8 131253.00 136769.00 606.64 o
1222 4 -4 2 -8 37093.50 40046.70 243.79 o
1222 2 3 -5 6 37093.50 40046.70 243.79 o
1222 1 4 -2 8 37093.50 40046.70 243.79 o
1223 4 2 -4 8 36410.10 44488.80 257.96 o
1223 2 -5 3 -6 36410.10 44488.80 257.96 o
1223 1 -2 4 -8 36410.10 44488.80 257.96 o
1224 4 -6 2 -8 36956.90 36860.50 238.12 o
1224 2 2 -6 8 36956.90 36860.50 238.12 o
1224 1 6 -2 8 36956.90 36860.50 238.12 o
1225 4 2 -6 8 36730.50 40497.50 229.62 o
1225 2 -6 2 -8 36730.50 40497.50 229.62 o
1225 1 -2 6 -8 36730.50 40497.50 229.62 o
1226 4 -8 2 -8 17379.10 13805.30 155.91 o
1226 2 1 -7 10 17379.10 13805.30 155.91 o
1226 1 8 -2 8 17379.10 13805.30 155.91 o
1227 4 2 -8 8 17513.50 17581.20 345.84 o
1227 3 -1 -9 6 17513.50 17581.20 345.84 o
1227 2 -7 1 -10 17513.50 17581.20 345.84 o
1227 1 -2 8 -8 17513.50 17581.20 345.84 o
1228 4 -1 1 -8 78757.50 74809.50 493.25 o
1228 2 4 -4 2 78757.50 74809.50 493.25 o
1228 1 1 -1 8 78757.50 74809.50 493.25 o
1229 4 1 -1 8 78372.80 86307.30 527.27 o
1229 2 -4 4 -2 78372.80 86307.30 527.27 o
1229 1 -1 1 -8 78372.80 86307.30 527.27 o
1230 4 -3 1 -8 90640.30 92019.40 354.35 o
1230 2 3 -5 4 90640.30 92019.40 354.35 o
1230 1 3 -1 8 90640.30 92019.40 354.35 o
1231 4 1 -3 8 90201.80 105623.00 377.02 o
1231 2 -5 3 -4 90201.80 105623.00 377.02 o
1231 1 -1 3 -8 90201.80 105623.00 377.02 o
1232 4 -5 1 -8 32941.10 33637.30 235.29 o
1232 2 2 -6 6 32941.10 33637.30 235.29 o
1232 1 5 -1 8 32941.10 33637.30 235.29 o
1233 4 1 -5 8 32413.30 38371.40 243.79 o
1233 2 -6 2 -6 32413.30 38371.40 243.79 o
1233 1 -1 5 -8 32413.30 38371.40 243.79 o
1234 4 -7 1 -8 29058.10 28741.70 181.43 o
1234 2 1 -7 8 29058.10 28741.70 181.43 o
1234 1 7 -1 8 29058.10 28741.70 181.43 o
1235 4 1 -7 8 28982.00 31590.60 362.85 o
1235 2 -7 1 -8 28982.00 31590.60 362.85 o
1235 1 -1 7 -8 28982.00 31590.60 362.85 o
1236 4 -9 1 -8 10928.10 8801.95 161.58 o
1236 2 0 -8 10 10928.10 8801.95 161.58 o
1236 1 9 -1 8 10928.10 8801.95 161.58 o
1237 4 1 -9 8 10879.20 11242.70 348.68 o
1237 2 -8 0 -10 10879.20 11242.70 348.68 o
1237 1 -1 9 -8 10879.20 11242.70 348.68 o
1238 4 0 0 -8 192631.00 148383.00 793.73 o
1238 2 4 -4 0 192631.00 148383.00 793.73 o
1238 1 0 0 8 192631.00 148383.00 793.73 o
1239 4 0 0 8 192691.00 159393.00 754.05 o
1239 2 -4 4 0 192691.00 159393.00 754.05 o
1239 1 0 0 -8 192691.00 159393.00 754.05 o
1240 4 -2 0 -8 51356.50 53134.90 294.82 o
1240 2 3 -5 2 51356.50 53134.90 294.82 o
1240 1 2 0 8 51356.50 53134.90 294.82 o
1241 4 0 -2 8 50845.80 53710.30 291.98 o
1241 2 -5 3 -2 50845.80 53710.30 291.98 o
1241 1 0 2 -8 50845.80 53710.30 291.98 o
1242 4 -4 0 -8 85455.60 82707.10 326.00 o
1242 2 2 -6 4 85455.60 82707.10 326.00 o
1242 1 4 0 8 85455.60 82707.10 326.00 o
1243 4 0 -4 8 85160.60 91106.60 348.68 o
1243 2 -6 2 -4 85160.60 91106.60 348.68 o
1243 1 0 4 -8 85160.60 91106.60 348.68 o
1244 4 -6 0 -8 29894.80 28203.10 164.42 o
1244 2 1 -7 6 29894.80 28203.10 164.42 o
1244 1 6 0 8 29894.80 28203.10 164.42 o
1245 4 0 -6 8 29678.80 33251.80 326.00 o
1245 2 -7 1 -6 29678.80 33251.80 326.00 o
1245 1 0 6 -8 29678.80 33251.80 326.00 o
1246 4 -8 0 -8 14677.40 14343.90 172.92 o
1246 2 0 -8 8 14677.40 14343.90 172.92 o
1246 1 8 0 8 14677.40 14343.90 172.92 o
1247 4 0 -8 8 15210.80 16526.70 354.35 o
1247 3 0 -8 8 15210.80 16526.70 354.35 o
1247 2 -8 0 -8 15210.80 16526.70 354.35 o
1247 1 0 8 -8 15210.80 16526.70 354.35 o
1248 4 1 -1 -8 78385.50 78684.60 742.71 o
1248 2 4 -4 -2 78385.50 78684.60 742.71 o
1248 1 -1 1 8 78385.50 78684.60 742.71 o
1249 4 -1 1 8 78744.80 89241.30 634.99 o
1249 2 -4 4 2 78744.80 89241.30 634.99 o
1249 1 1 -1 -8 78744.80 89241.30 634.99 o
1250 4 -1 -1 -8 99951.90 100393.00 456.40 o
1250 2 3 -5 0 99951.90 100393.00 456.40 o
1250 1 1 1 8 99951.90 100393.00 456.40 o
1251 4 -1 -1 8 99939.20 114187.00 450.73 o
1251 2 -5 3 0 99939.20 114187.00 450.73 o
1251 1 1 1 -8 99939.20 114187.00 450.73 o
1252 4 -3 -1 -8 70490.20 66943.00 323.16 o
1252 2 2 -6 2 70490.20 66943.00 323.16 o
1252 1 3 1 8 70490.20 66943.00 323.16 o
1253 4 -1 -3 8 70270.70 78443.70 345.84 o
1253 2 -6 2 -2 70270.70 78443.70 345.84 o
1253 1 1 3 -8 70270.70 78443.70 345.84 o
1254 4 -5 -1 -8 39561.90 44735.40 206.94 o
1254 2 1 -7 4 39561.90 44735.40 206.94 o
1254 1 5 1 8 39561.90 44735.40 206.94 o
1255 4 -1 -5 8 39456.00 42963.70 399.70 o
1255 2 -7 1 -4 39456.00 42963.70 399.70 o
1255 1 1 5 -8 39456.00 42963.70 399.70 o
1256 4 -7 -1 -8 24066.40 24639.80 175.76 o
1256 2 0 -8 6 24066.40 24639.80 175.76 o
1256 1 7 1 8 24066.40 24639.80 175.76 o
1257 4 -1 -7 8 23999.10 28702.00 385.53 o
1257 2 -8 0 -6 23999.10 28702.00 385.53 o
1257 1 1 7 -8 23999.10 28702.00 385.53 o
1258 4 -9 -1 -8 12617.40 11582.90 170.09 o
1258 2 -1 -9 8 12617.40 11582.90 170.09 o
1258 1 9 1 8 12617.40 11582.90 170.09 o
1259 4 -1 -9 8 12692.30 13218.50 311.82 o
1259 2 -9 -1 -8 12692.30 13218.50 311.82 o
1259 1 1 9 -8 12692.30 13218.50 311.82 o
1260 4 2 -2 -8 131208.00 132477.00 1048.86 o
1260 2 4 -4 -4 131208.00 132477.00 1048.86 o
1260 1 -2 2 8 131208.00 132477.00 1048.86 o
1261 4 -2 2 8 131834.00 124007.00 983.66 o
1261 2 -4 4 4 131834.00 124007.00 983.66 o
1261 1 2 -2 -8 131834.00 124007.00 983.66 o
1262 4 0 -2 -8 50935.20 50115.80 408.21 o
1262 2 3 -5 -2 50935.20 50115.80 408.21 o
1262 1 0 2 8 50935.20 50115.80 408.21 o
1263 4 -2 0 8 51267.10 56366.50 396.87 o
1263 2 -5 3 2 51267.10 56366.50 396.87 o
1263 1 2 0 -8 51267.10 56366.50 396.87 o
1264 4 -2 -2 -8 125132.00 98820.00 428.05 o
1264 2 2 -6 0 125132.00 98820.00 428.05 o
1264 1 2 2 8 125132.00 98820.00 428.05 o
1265 4 -2 -2 8 125177.00 126462.00 456.40 o
1265 2 -6 2 0 125177.00 126462.00 456.40 o
1265 1 2 2 -8 125177.00 126462.00 456.40 o
1266 4 -4 -2 -8 34309.80 34632.30 201.27 o
1266 2 1 -7 2 34309.80 34632.30 201.27 o
1266 1 4 2 8 34309.80 34632.30 201.27 o
1267 4 -2 -4 8 34125.80 39363.60 385.53 o
1267 2 -7 1 -2 34125.80 39363.60 385.53 o
1267 1 2 4 -8 34125.80 39363.60 385.53 o
1268 4 -6 -2 -8 33001.70 36231.10 198.43 o
1268 2 0 -8 4 33001.70 36231.10 198.43 o
1268 1 6 2 8 33001.70 36231.10 198.43 o
1269 4 -2 -6 8 33011.60 40381.20 377.02 o
1269 2 -8 0 -4 33011.60 40381.20 377.02 o
1269 1 2 6 -8 33011.60 40381.20 377.02 o
1270 4 -8 -2 -8 17354.80 17317.60 161.58 o
1270 2 -1 -9 6 17354.80 17317.60 161.58 o
1270 1 8 2 8 17354.80 17317.60 161.58 o
1271 4 -2 -8 8 17702.00 19919.90 340.17 o
1271 3 1 -7 10 17702.00 19919.90 340.17 o
1271 2 -9 -1 -6 17702.00 19919.90 340.17 o
1271 1 2 8 -8 17702.00 19919.90 340.17 o
1272 4 3 -3 -8 34349.90 44698.60 779.56 o
1272 2 4 -4 -6 34349.90 44698.60 779.56 o
1272 1 -3 3 8 34349.90 44698.60 779.56 o
1273 4 -3 3 8 35160.20 36676.20 759.72 o
1273 2 -4 4 6 35160.20 36676.20 759.72 o
1273 1 3 -3 -8 35160.20 36676.20 759.72 o
1274 4 1 -3 -8 90199.00 75489.80 581.13 o
1274 2 3 -5 -4 90199.00 75489.80 581.13 o
1274 1 -1 3 8 90199.00 75489.80 581.13 o
1275 4 -3 1 8 90643.10 125540.00 637.82 o
1275 2 -5 3 4 90643.10 125540.00 637.82 o
1275 1 3 -1 -8 90643.10 125540.00 637.82 o
1276 4 -1 -3 -8 70267.90 75214.90 357.18 o
1276 2 2 -6 -2 70267.90 75214.90 357.18 o
1276 1 1 3 8 70267.90 75214.90 357.18 o
1277 4 -3 -1 8 70493.00 95971.00 555.61 o
1277 2 -6 2 2 70493.00 95971.00 555.61 o
1277 1 3 1 -8 70493.00 95971.00 555.61 o
1278 4 -3 -3 -8 40746.30 51643.80 257.96 o
1278 2 1 -7 0 40746.30 51643.80 257.96 o
1278 1 3 3 8 40746.30 51643.80 257.96 o
1279 4 -3 -3 8 40716.00 52692.60 425.21 o
1279 2 -7 1 0 40716.00 52692.60 425.21 o
1279 1 3 3 -8 40716.00 52692.60 425.21 o
1280 4 -5 -3 -8 47266.90 55354.50 235.29 o
1280 2 0 -8 2 47266.90 55354.50 235.29 o
1280 1 5 3 8 47266.90 55354.50 235.29 o
1281 4 -3 -5 8 47266.50 64788.60 436.55 o
1281 2 -8 0 -2 47266.50 64788.60 436.55 o
1281 1 3 5 -8 47266.50 64788.60 436.55 o
1282 4 -7 -3 -8 14400.40 15358.80 167.25 o
1282 2 -1 -9 4 14400.40 15358.80 167.25 o
1282 1 7 3 8 14400.40 15358.80 167.25 o
1283 4 -3 -7 8 14457.30 15591.20 255.13 o
1283 2 -9 -1 -4 14457.30 15591.20 255.13 o
1283 1 3 7 -8 14457.30 15591.20 255.13 o
1284 4 2 -4 -8 36459.20 42598.00 615.14 o
1284 2 3 -5 -6 36459.20 42598.00 615.14 o
1284 1 -2 4 8 36459.20 42598.00 615.14 o
1285 4 -4 2 8 37044.40 42317.40 521.60 o
1285 2 -5 3 6 37044.40 42317.40 521.60 o
1285 1 4 -2 -8 37044.40 42317.40 521.60 o
1286 4 0 -4 -8 85129.60 95540.10 493.25 o
1286 2 2 -6 -4 85129.60 95540.10 493.25 o
1286 1 0 4 8 85129.60 95540.10 493.25 o
1287 4 -4 0 8 85486.70 117991.00 652.00 o
1287 2 -6 2 4 85486.70 117991.00 652.00 o
1287 1 4 0 -8 85486.70 117991.00 652.00 o
1288 4 -2 -4 -8 34174.90 41121.10 255.13 o
1288 2 1 -7 -2 34174.90 41121.10 255.13 o
1288 1 2 4 8 34174.90 41121.10 255.13 o
1289 4 -4 -2 8 34260.70 45316.60 385.53 o
1289 2 -7 1 2 34260.70 45316.60 385.53 o
1289 1 4 2 -8 34260.70 45316.60 385.53 o
1290 4 -4 -4 -8 48769.70 57174.40 255.13 o
1290 2 0 -8 0 48769.70 57174.40 255.13 o
1290 1 4 4 8 48769.70 57174.40 255.13 o
1291 4 -4 -4 8 48792.00 69287.40 419.55 o
1291 2 -8 0 0 48792.00 69287.40 419.55 o
1291 1 4 4 -8 48792.00 69287.40 419.55 o
1292 4 -6 -4 -8 16609.30 18105.70 170.09 o
1292 2 -1 -9 2 16609.30 18105.70 170.09 o
1292 1 6 4 8 16609.30 18105.70 170.09 o
1293 4 -4 -6 8 16608.70 18984.40 294.82 o
1293 2 -9 -1 -2 16608.70 18984.40 294.82 o
1293 1 4 6 -8 16608.70 18984.40 294.82 o
1294 4 -8 -4 -8 14119.10 14298.60 181.43 o
1294 2 -2 -10 4 14119.10 14298.60 181.43 o
1294 1 8 4 8 14119.10 14298.60 181.43 o
1295 4 -4 -8 8 14775.30 12844.30 289.15 o
1295 3 2 -6 12 14775.30 12844.30 289.15 o
1295 2 -10 -2 -4 14775.30 12844.30 289.15 o
1295 1 4 8 -8 14775.30 12844.30 289.15 o
1296 4 3 -5 -8 58517.20 62217.50 697.35 o
1296 2 3 -5 -8 58517.20 62217.50 697.35 o
1296 1 -3 5 8 58517.20 62217.50 697.35 o
1297 4 -5 3 8 58957.40 66123.80 646.33 o
1297 2 -5 3 8 58957.40 66123.80 646.33 o
1297 1 5 -3 -8 58957.40 66123.80 646.33 o
1298 4 1 -5 -8 32428.60 44418.00 518.76 o
1298 2 2 -6 -6 32428.60 44418.00 518.76 o
1298 1 -1 5 8 32428.60 44418.00 518.76 o
1299 4 -5 1 8 32925.80 45704.90 453.56 o
1299 2 -6 2 6 32925.80 45704.90 453.56 o
1299 1 5 -1 -8 32925.80 45704.90 453.56 o
1300 4 -1 -5 -8 39471.30 36684.70 317.49 o
1300 2 1 -7 -4 39471.30 36684.70 317.49 o
1300 1 1 5 8 39471.30 36684.70 317.49 o
1301 4 -5 -1 8 39546.50 51068.30 419.55 o
1301 2 -7 1 4 39546.50 51068.30 419.55 o
1301 1 5 1 -8 39546.50 51068.30 419.55 o
1302 4 -3 -5 -8 47245.90 59867.40 283.48 o
1302 2 0 -8 -2 47245.90 59867.40 283.48 o
1302 1 3 5 8 47245.90 59867.40 283.48 o
1303 4 -5 -3 8 47287.50 69517.00 428.05 o
1303 2 -8 0 2 47287.50 69517.00 428.05 o
1303 1 5 3 -8 47287.50 69517.00 428.05 o
1304 4 -5 -5 -8 13541.70 14397.80 172.92 o
1304 2 -1 -9 0 13541.70 14397.80 172.92 o
1304 1 5 5 8 13541.70 14397.80 172.92 o
1305 4 -5 -5 8 13512.00 14440.30 286.31 o
1305 2 -9 -1 0 13512.00 14440.30 286.31 o
1305 1 5 5 -8 13512.00 14440.30 286.31 o
1306 4 -7 -5 -8 22501.40 24223.10 192.76 o
1306 2 -2 -10 2 22501.40 24223.10 192.76 o
1306 1 7 5 8 22501.40 24223.10 192.76 o
1307 4 -5 -7 8 22542.20 25314.50 311.82 o
1307 2 -10 -2 -2 22542.20 25314.50 311.82 o
1307 1 5 7 -8 22542.20 25314.50 311.82 o
1308 4 -6 4 8 17511.80 19562.70 388.36 o
1308 2 -5 3 10 17511.80 19562.70 388.36 o
1308 1 6 -4 -8 17511.80 19562.70 388.36 o
1309 4 2 -6 -8 36718.70 40576.80 538.61 o
1309 2 2 -6 -8 36718.70 40576.80 538.61 o
1309 1 -2 6 8 36718.70 40576.80 538.61 o
1310 4 -6 2 8 36968.70 44990.60 473.41 o
1310 2 -6 2 8 36968.70 44990.60 473.41 o
1310 1 6 -2 -8 36968.70 44990.60 473.41 o
1311 4 0 -6 -8 29700.90 36114.90 459.23 o
1311 2 1 -7 -6 29700.90 36114.90 459.23 o
1311 1 0 6 8 29700.90 36114.90 459.23 o
1312 4 -6 0 8 29872.80 34717.40 391.20 o
1312 2 -7 1 6 29872.80 34717.40 391.20 o
1312 1 6 0 -8 29872.80 34717.40 391.20 o
1313 4 -2 -6 -8 32999.90 36211.30 289.15 o
1313 2 0 -8 -4 32999.90 36211.30 289.15 o
1313 1 2 6 8 32999.90 36211.30 289.15 o
1314 4 -6 -2 8 33013.40 43853.80 402.54 o
1314 2 -8 0 4 33013.40 43853.80 402.54 o
1314 1 6 2 -8 33013.40 43853.80 402.54 o
1315 4 -4 -6 -8 16629.20 18681.10 204.10 o
1315 2 -1 -9 -2 16629.20 18681.10 204.10 o
1315 1 4 6 8 16629.20 18681.10 204.10 o
1316 4 -6 -4 8 16588.80 19557.10 263.63 o
1316 2 -9 -1 2 16588.80 19557.10 263.63 o
1316 1 6 4 -8 16588.80 19557.10 263.63 o
1317 4 -6 -6 -8 20653.10 22536.40 198.43 o
1317 2 -2 -10 0 20653.10 22536.40 198.43 o
1317 1 6 6 8 20653.10 22536.40 198.43 o
1318 4 -6 -6 8 20666.30 25059.30 343.01 o
1318 2 -10 -2 0 20666.30 25059.30 343.01 o
1318 1 6 6 -8 20666.30 25059.30 343.01 o
1319 4 -7 5 8 26913.60 21141.70 484.74 o
1319 2 -5 3 12 26913.60 21141.70 484.74 o
1319 1 7 -5 -8 26913.60 21141.70 484.74 o
1320 4 -7 3 8 12507.50 11288.00 334.50 o
1320 2 -6 2 10 12507.50 11288.00 334.50 o
1320 1 7 -3 -8 12507.50 11288.00 334.50 o
1321 4 1 -7 -8 28978.10 31474.40 479.08 o
1321 2 1 -7 -8 28978.10 31474.40 479.08 o
1321 1 -1 7 8 28978.10 31474.40 479.08 o
1322 4 -7 1 8 29062.00 31950.70 411.04 o
1322 2 -7 1 8 29062.00 31950.70 411.04 o
1322 1 7 -1 -8 29062.00 31950.70 411.04 o
1323 4 -1 -7 -8 23995.20 24067.20 391.20 o
1323 2 0 -8 -6 23995.20 24067.20 391.20 o
1323 1 1 7 8 23995.20 24067.20 391.20 o
1324 4 -7 -1 8 24070.40 29850.10 362.85 o
1324 2 -8 0 6 24070.40 29850.10 362.85 o
1324 1 7 1 -8 24070.40 29850.10 362.85 o
1325 4 -3 -7 -8 14476.20 14423.30 232.45 o
1325 2 -1 -9 -4 14476.20 14423.30 232.45 o
1325 1 3 7 8 14476.20 14423.30 232.45 o
1326 4 -7 -3 8 14381.50 16881.00 323.16 o
1326 2 -9 -1 4 14381.50 16881.00 323.16 o
1326 1 7 3 -8 14381.50 16881.00 323.16 o
1327 4 -5 -7 -8 22523.50 23687.30 215.44 o
1327 2 -2 -10 -2 22523.50 23687.30 215.44 o
1327 1 5 7 8 22523.50 23687.30 215.44 o
1328 4 -7 -5 8 22520.00 27202.40 360.02 o
1328 2 -10 -2 2 22520.00 27202.40 360.02 o
1328 1 7 5 -8 22520.00 27202.40 360.02 o
1329 4 -8 4 8 16255.30 15041.30 340.17 o
1329 2 -6 2 12 16255.30 15041.30 340.17 o
1329 1 8 -4 -8 16255.30 15041.30 340.17 o
1330 4 2 -8 -8 17217.40 18159.50 490.42 o
1330 2 1 -7 -10 17217.40 18159.50 490.42 o
1330 1 -2 8 8 17217.40 18159.50 490.42 o
1331 4 -8 2 8 17374.10 15758.50 348.68 o
1331 2 -7 1 10 17374.10 15758.50 348.68 o
1331 1 8 -2 -8 17374.10 15758.50 348.68 o
1332 4 0 -8 -8 14710.40 15347.40 382.69 o
1332 2 0 -8 -8 14710.40 15347.40 382.69 o
1332 1 0 8 8 14710.40 15347.40 382.69 o
1333 4 -8 0 8 14675.80 15035.60 300.48 o
1333 2 -8 0 8 14675.80 15035.60 300.48 o
1333 1 8 0 -8 14675.80 15035.60 300.48 o
1334 4 -2 -8 -8 17402.30 15599.70 303.32 o
1334 2 -1 -9 -6 17402.30 15599.70 303.32 o
1334 1 2 8 8 17402.30 15599.70 303.32 o
1335 4 -8 -2 8 17349.90 18692.50 334.50 o
1335 2 -9 -1 6 17349.90 18692.50 334.50 o
1335 1 8 2 -8 17349.90 18692.50 334.50 o
1336 4 -4 -8 -8 14169.70 13935.70 243.79 o
1336 2 -2 -10 -4 14169.70 13935.70 243.79 o
1336 1 4 8 8 14169.70 13935.70 243.79 o
1337 4 -8 -4 8 14125.10 14865.50 340.17 o
1337 2 -10 -2 4 14125.10 14865.50 340.17 o
1337 1 8 4 -8 14125.10 14865.50 340.17 o
1338 4 1 -9 -8 10883.10 11072.60 433.72 o
1338 2 0 -8 -10 10883.10 11072.60 433.72 o
1338 1 -1 9 8 10883.10 11072.60 433.72 o
1339 4 -9 1 8 10924.20 10233.50 337.34 o
1339 2 -8 0 10 10924.20 10233.50 337.34 o
1339 1 9 -1 -8 10924.20 10233.50 337.34 o
1340 4 -1 -9 -8 12696.10 12770.60 413.88 o
1340 2 -1 -9 -8 12696.10 12770.60 413.88 o
1340 1 1 9 8 12696.10 12770.60 413.88 o
1341 4 -9 -1 8 12613.50 10667.20 297.65 o
1341 2 -9 -1 8 12613.50 10667.20 297.65 o
1341 1 9 1 -8 12613.50 10667.20 297.65 o
1342 4 -6 5 -9 198.28 184.26 187.10 <
1342 2 4 -5 11 198.28 184.26 187.10 <
1342 1 6 -5 9 198.28 184.26 187.10 <
1343 4 5 -6 9 198.28 -62.36 161.58 <
1343 2 -5 4 -11 198.28 -62.36 161.58 <
1343 1 -5 6 -9 198.28 -62.36 161.58 <
1344 4 -5 4 -9 74.48 -31.18 127.56 <
1344 2 4 -5 9 74.48 -31.18 127.56 <
1344 1 5 -4 9 74.48 -31.18 127.56 <
1345 4 4 -5 9 74.48 48.19 141.74 <
1345 2 -5 4 -9 74.48 48.19 141.74 <
1345 1 -4 5 -9 74.48 48.19 141.74 <
1346 4 -7 4 -9 355.45 391.20 181.43 o
1346 2 3 -6 11 355.45 391.20 181.43 o
1346 1 7 -4 9 355.45 391.20 181.43 o
1347 4 4 -7 9 355.46 430.88 181.43 o
1347 2 -6 3 -11 355.46 430.88 181.43 o
1347 1 -4 7 -9 355.46 430.88 181.43 o
1348 4 -4 3 -9 1356.57 1051.70 133.23 o
1348 2 4 -5 7 1356.57 1051.70 133.23 o
1348 1 4 -3 9 1356.57 1051.70 133.23 o
1349 4 3 -4 9 1356.57 1054.53 150.24 o
1349 2 -5 4 -7 1356.57 1054.53 150.24 o
1349 1 -3 4 -9 1356.57 1054.53 150.24 o
1350 4 -6 3 -9 1764.80 1298.32 136.07 o
1350 2 3 -6 9 1764.80 1298.32 136.07 o
1350 1 6 -3 9 1764.80 1298.32 136.07 o
1351 4 3 -6 9 1764.80 1397.54 138.90 o
1351 2 -6 3 -9 1764.80 1397.54 138.90 o
1351 1 -3 6 -9 1764.80 1397.54 138.90 o
1352 4 -8 3 -9 818.35 377.02 189.93 <
1352 2 2 -7 11 818.35 377.02 189.93 <
1352 1 8 -3 9 818.35 377.02 189.93 <
1353 4 3 -8 9 818.36 198.43 314.66 <
1353 2 -7 2 -11 818.36 198.43 314.66 <
1353 1 -3 8 -9 818.36 198.43 314.66 <
1354 4 -3 2 -9 584.85 561.28 124.73 o
1354 2 4 -5 5 584.85 561.28 124.73 o
1354 1 3 -2 9 584.85 561.28 124.73 o
1355 4 2 -3 9 584.85 728.53 116.22 o
1355 2 -5 4 -5 584.85 728.53 116.22 o
1355 1 -2 3 -9 584.85 728.53 116.22 o
1356 4 -5 2 -9 878.92 986.50 124.73 o
1356 2 3 -6 7 878.92 986.50 124.73 o
1356 1 5 -2 9 878.92 986.50 124.73 o
1357 4 2 -5 9 878.93 943.98 127.56 o
1357 2 -6 3 -7 878.93 943.98 127.56 o
1357 1 -2 5 -9 878.93 943.98 127.56 o
1358 4 -7 2 -9 175.66 266.47 178.59 <
1358 2 2 -7 9 175.66 266.47 178.59 <
1358 1 7 -2 9 175.66 266.47 178.59 <
1359 4 2 -7 9 175.66 232.45 127.56 <
1359 2 -7 2 -9 175.66 232.45 127.56 <
1359 1 -2 7 -9 175.66 232.45 127.56 <
1360 4 -2 1 -9 1709.52 1428.72 130.40 o
1360 2 4 -5 3 1709.52 1428.72 130.40 o
1360 1 2 -1 9 1709.52 1428.72 130.40 o
1361 4 1 -2 9 1709.53 1462.74 121.89 o
1361 2 -5 4 -3 1709.53 1462.74 121.89 o
1361 1 -1 2 -9 1709.53 1462.74 121.89 o
1362 4 -4 1 -9 5055.31 4889.97 155.91 o
1362 2 3 -6 5 5055.31 4889.97 155.91 o
1362 1 4 -1 9 5055.31 4889.97 155.91 o
1363 4 1 -4 9 5055.32 4762.41 141.74 o
1363 2 -6 3 -5 5055.32 4762.41 141.74 o
1363 1 -1 4 -9 5055.32 4762.41 141.74 o
1364 4 -6 1 -9 2881.69 1802.91 144.57 o
1364 2 2 -7 7 2881.69 1802.91 144.57 o
1364 1 6 -1 9 2881.69 1802.91 144.57 o
1365 4 1 -6 9 2881.69 2335.85 150.24 o
1365 2 -7 2 -7 2881.69 2335.85 150.24 o
1365 1 -1 6 -9 2881.69 2335.85 150.24 o
1366 4 -8 1 -9 1507.26 793.73 144.57 o
1366 2 1 -8 9 1507.26 793.73 144.57 o
1366 1 8 -1 9 1507.26 793.73 144.57 o
1367 4 1 -8 9 1507.26 924.13 311.82 o
1367 2 -8 1 -9 1507.26 924.13 311.82 o
1367 1 -1 8 -9 1507.26 924.13 311.82 o
1368 4 -2 -1 -9 4473.52 4683.03 167.25 o
1368 2 3 -6 1 4473.52 4683.03 167.25 o
1368 1 2 1 9 4473.52 4683.03 167.25 o
1369 4 -1 -2 9 4473.40 4357.04 155.91 o
1369 2 -6 3 -1 4473.40 4357.04 155.91 o
1369 1 1 2 -9 4473.40 4357.04 155.91 o
1370 4 -4 -1 -9 3714.53 3004.85 161.58 o
1370 2 2 -7 3 3714.53 3004.85 161.58 o
1370 1 4 1 9 3714.53 3004.85 161.58 o
1371 4 -1 -4 9 3714.54 3143.76 153.08 o
1371 2 -7 2 -3 3714.54 3143.76 153.08 o
1371 1 1 4 -9 3714.54 3143.76 153.08 o
1372 4 -6 -1 -9 4064.06 3296.83 116.22 o
1372 2 1 -8 5 4064.06 3296.83 116.22 o
1372 1 6 1 9 4064.06 3296.83 116.22 o
1373 4 -1 -6 9 4064.07 3262.82 192.76 o
1373 2 -8 1 -5 4064.07 3262.82 192.76 o
1373 1 1 6 -9 4064.07 3262.82 192.76 o
1374 4 -8 -1 -9 1161.66 606.64 141.74 o
1374 1 8 1 9 1161.66 606.64 141.74 o
1375 4 -1 -8 9 1161.67 1125.40 331.67 o
1375 1 1 8 -9 1161.67 1125.40 331.67 o
1376 4 1 -2 -9 1709.53 1734.88 218.28 o
1376 2 4 -5 -3 1709.53 1734.88 218.28 o
1376 1 -1 2 9 1709.53 1734.88 218.28 o
1377 4 -2 1 9 1709.52 1624.32 181.43 o
1377 2 -5 4 3 1709.52 1624.32 181.43 o
1377 1 2 -1 -9 1709.52 1624.32 181.43 o
1378 4 -1 -2 -9 4473.40 4150.10 178.59 o
1378 2 3 -6 -1 4473.40 4150.10 178.59 o
1378 1 1 2 9 4473.40 4150.10 178.59 o
1379 4 -2 -1 9 4473.51 4660.36 167.25 o
1379 2 -6 3 1 4473.51 4660.36 167.25 o
1379 1 2 1 -9 4473.51 4660.36 167.25 o
1380 4 -3 -2 -9 797.97 722.86 153.08 o
1380 2 2 -7 1 797.97 722.86 153.08 o
1380 1 3 2 9 797.97 722.86 153.08 o
1381 4 -2 -3 9 798.05 782.40 229.62 o
1381 2 -7 2 -1 798.05 782.40 229.62 o
1381 1 2 3 -9 798.05 782.40 229.62 o
1382 4 -5 -2 -9 1862.65 2239.47 124.73 o
1382 2 1 -8 3 1862.65 2239.47 124.73 o
1382 1 5 2 9 1862.65 2239.47 124.73 o
1383 4 -2 -5 9 1862.63 1184.93 229.62 o
1383 2 -8 1 -3 1862.63 1184.93 229.62 o
1383 1 2 5 -9 1862.63 1184.93 229.62 o
1384 4 -7 -2 -9 135.38 181.43 113.39 <
1384 1 7 2 9 135.38 181.43 113.39 <
1385 4 -2 -7 9 135.38 269.30 272.14 <
1385 1 2 7 -9 135.38 269.30 272.14 <
1386 4 2 -3 -9 584.85 572.62 260.80 o
1386 2 4 -5 -5 584.85 572.62 260.80 o
1386 1 -2 3 9 584.85 572.62 260.80 o
1387 4 -3 2 9 584.85 657.67 198.43 o
1387 2 -5 4 5 584.85 657.67 198.43 o
1387 1 3 -2 -9 584.85 657.67 198.43 o
1388 4 -2 -3 -9 798.05 790.90 124.73 o
1388 2 2 -7 -1 798.05 790.90 124.73 o
1388 1 2 3 9 798.05 790.90 124.73 o
1389 4 -3 -2 9 797.97 833.42 164.42 o
1389 2 -7 2 1 797.97 833.42 164.42 o
1389 1 3 2 -9 797.97 833.42 164.42 o
1390 4 -4 -3 -9 3566.97 3741.89 133.23 o
1390 2 1 -8 1 3566.97 3741.89 133.23 o
1390 1 4 3 9 3566.97 3741.89 133.23 o
1391 4 -3 -4 9 3566.83 2673.18 204.10 o
1391 2 -8 1 -1 3566.83 2673.18 204.10 o
1391 1 3 4 -9 3566.83 2673.18 204.10 o
1392 4 -6 -3 -9 1360.16 1122.57 121.89 o
1392 1 6 3 9 1360.16 1122.57 121.89 o
1393 4 -3 -6 9 1360.16 1454.24 238.12 o
1393 1 3 6 -9 1360.16 1454.24 238.12 o
1394 4 -8 -3 -9 1063.90 660.50 150.24 o
1394 2 -1 -10 5 1063.90 660.50 150.24 o
1394 1 8 3 9 1063.90 660.50 150.24 o
1395 4 -3 -8 9 1063.89 929.80 283.48 o
1395 2 -10 -1 -5 1063.89 929.80 283.48 o
1395 1 3 8 -9 1063.89 929.80 283.48 o
1396 4 3 -4 -9 1356.58 1544.95 388.36 o
1396 2 4 -5 -7 1356.58 1544.95 388.36 o
1396 1 -3 4 9 1356.58 1544.95 388.36 o
1397 4 -4 3 9 1356.57 1128.24 274.97 o
1397 2 -5 4 7 1356.57 1128.24 274.97 o
1397 1 4 -3 -9 1356.57 1128.24 274.97 o
1398 4 1 -4 -9 5055.32 3994.19 277.81 o
1398 2 3 -6 -5 5055.32 3994.19 277.81 o
1398 1 -1 4 9 5055.32 3994.19 277.81 o
1399 4 -4 1 9 5055.31 4510.11 249.46 o
1399 2 -6 3 5 5055.31 4510.11 249.46 o
1399 1 4 -1 -9 5055.31 4510.11 249.46 o
1400 4 -1 -4 -9 3714.54 3764.57 158.75 o
1400 2 2 -7 -3 3714.54 3764.57 158.75 o
1400 1 1 4 9 3714.54 3764.57 158.75 o
1401 4 -4 -1 9 3714.53 4544.13 238.12 o
1401 2 -7 2 3 3714.53 4544.13 238.12 o
1401 1 4 1 -9 3714.53 4544.13 238.12 o
1402 4 -3 -4 -9 3566.83 3602.99 136.07 o
1402 2 1 -8 -1 3566.83 3602.99 136.07 o
1402 1 3 4 9 3566.83 3602.99 136.07 o
1403 4 -4 -3 9 3566.97 3044.54 212.61 o
1403 2 -8 1 1 3566.97 3044.54 212.61 o
1403 1 4 3 -9 3566.97 3044.54 212.61 o
1404 4 -5 -4 -9 57.40 147.41 127.56 <
1404 1 5 4 9 57.40 147.41 127.56 <
1405 4 -4 -5 9 57.40 76.54 209.77 <
1405 1 4 5 -9 57.40 76.54 209.77 <
1406 4 -7 -4 -9 567.49 413.88 130.40 o
1406 2 -1 -10 3 567.49 413.88 130.40 o
1406 1 7 4 9 567.49 413.88 130.40 o
1407 4 -4 -7 9 567.48 456.40 280.64 <
1407 2 -10 -1 -3 567.48 456.40 280.64 <
1407 1 4 7 -9 567.48 456.40 280.64 <
1408 4 -5 4 9 74.48 79.37 351.51 <
1408 2 -5 4 9 74.48 79.37 351.51 <
1408 1 5 -4 -9 74.48 79.37 351.51 <
1409 4 2 -5 -9 878.93 -11.34 289.15 <
1409 2 3 -6 -7 878.93 -11.34 289.15 <
1409 1 -2 5 9 878.93 -11.34 289.15 <
1410 4 -5 2 9 878.92 771.06 255.13 o
1410 2 -6 3 7 878.92 771.06 255.13 o
1410 1 5 -2 -9 878.92 771.06 255.13 o
1411 4 -2 -5 -9 1862.64 1077.21 136.07 o
1411 2 1 -8 -3 1862.64 1077.21 136.07 o
1411 1 2 5 9 1862.64 1077.21 136.07 o
1412 4 -5 -2 9 1862.65 1805.75 232.45 o
1412 2 -8 1 3 1862.65 1805.75 232.45 o
1412 1 5 2 -9 1862.65 1805.75 232.45 o
1413 4 -4 -5 -9 57.40 14.17 136.07 <
1413 1 4 5 9 57.40 14.17 136.07 <
1414 4 -5 -4 9 57.40 -11.34 229.62 <
1414 1 5 4 -9 57.40 -11.34 229.62 <
1415 4 -6 -5 -9 633.12 269.30 136.07 <
1415 2 -1 -10 1 633.12 269.30 136.07 <
1415 1 6 5 9 633.12 269.30 136.07 <
1416 4 -5 -6 9 633.13 283.48 184.26 <
1416 2 -10 -1 -1 633.13 283.48 184.26 <
1416 1 5 6 -9 633.13 283.48 184.26 <
1417 4 3 -6 -9 1764.80 955.32 360.02 o
1417 2 3 -6 -9 1764.80 955.32 360.02 o
1417 1 -3 6 9 1764.80 955.32 360.02 o
1418 4 -6 3 9 1764.80 1139.58 291.98 o
1418 2 -6 3 9 1764.80 1139.58 291.98 o
1418 1 6 -3 -9 1764.80 1139.58 291.98 o
1419 4 1 -6 -9 2881.69 2769.57 354.35 o
1419 2 2 -7 -7 2881.69 2769.57 354.35 o
1419 1 -1 6 9 2881.69 2769.57 354.35 o
1420 4 -6 1 9 2881.69 2590.98 232.45 o
1420 2 -7 2 7 2881.69 2590.98 232.45 o
1420 1 6 -1 -9 2881.69 2590.98 232.45 o
1421 4 -1 -6 -9 4064.08 2174.27 246.62 o
1421 2 1 -8 -5 4064.08 2174.27 246.62 o
1421 1 1 6 9 4064.08 2174.27 246.62 o
1422 4 -6 -1 9 4064.06 3512.28 229.62 o
1422 2 -8 1 5 4064.06 3512.28 229.62 o
1422 1 6 1 -9 4064.06 3512.28 229.62 o
1423 4 -3 -6 -9 1360.16 1292.65 153.08 o
1423 1 3 6 9 1360.16 1292.65 153.08 o
1424 4 -6 -3 9 1360.16 1193.44 232.45 o
1424 1 6 3 -9 1360.16 1193.44 232.45 o
1425 4 -5 -6 -9 633.13 377.02 147.41 o
1425 2 -1 -10 -1 633.13 377.02 147.41 o
1425 1 5 6 9 633.13 377.02 147.41 o
1426 4 -6 -5 9 633.12 161.58 189.93 <
1426 2 -10 -1 1 633.12 161.58 189.93 <
1426 1 6 5 -9 633.12 161.58 189.93 <
1427 4 -7 4 9 355.45 343.01 274.97 <
1427 2 -6 3 11 355.45 343.01 274.97 <
1427 1 7 -4 -9 355.45 343.01 274.97 <
1428 4 2 -7 -9 175.66 229.62 348.68 <
1428 2 2 -7 -9 175.66 229.62 348.68 <
1428 1 -2 7 9 175.66 229.62 348.68 <
1429 4 -7 2 9 175.66 218.28 260.80 <
1429 2 -7 2 9 175.66 218.28 260.80 <
1429 1 7 -2 -9 175.66 218.28 260.80 <
1430 4 -2 -7 -9 135.38 144.57 215.44 <
1430 1 2 7 9 135.38 144.57 215.44 <
1431 4 -7 -2 9 135.38 291.98 232.45 <
1431 1 7 2 -9 135.38 291.98 232.45 <
1432 4 -4 -7 -9 567.49 405.37 178.59 o
1432 2 -1 -10 -3 567.49 405.37 178.59 o
1432 1 4 7 9 567.49 405.37 178.59 o
1433 4 -7 -4 9 567.49 377.02 266.47 <
1433 2 -10 -1 3 567.49 377.02 266.47 <
1433 1 7 4 -9 567.49 377.02 266.47 <
1434 4 -8 3 9 818.35 351.51 283.48 <
1434 2 -7 2 11 818.35 351.51 283.48 <
1434 1 8 -3 -9 818.35 351.51 283.48 <
1435 4 1 -8 -9 1507.25 1099.89 348.68 o
1435 2 1 -8 -9 1507.25 1099.89 348.68 o
1435 1 -1 8 9 1507.25 1099.89 348.68 o
1436 4 -8 1 9 1507.26 544.28 260.80 o
1436 2 -8 1 9 1507.26 544.28 260.80 o
1436 1 8 -1 -9 1507.26 544.28 260.80 o
1437 4 -1 -8 -9 1161.67 1119.73 348.68 o
1437 1 1 8 9 1161.67 1119.73 348.68 o
1438 4 -8 -1 9 1161.66 703.02 272.14 o
1438 1 8 1 -9 1161.66 703.02 272.14 o
1439 4 -3 -8 -9 1063.89 308.99 223.95 <
1439 2 -1 -10 -5 1063.89 308.99 223.95 <
1439 1 3 8 9 1063.89 308.99 223.95 <
1440 4 -8 -3 9 1063.90 649.16 243.79 o
1440 2 -10 -1 5 1063.90 649.16 243.79 o
1440 1 8 3 -9 1063.90 649.16 243.79 o
1441 4 -5 5 -10 3017.30 2622.16 240.96 o
1441 2 5 -5 10 3017.30 2622.16 240.96 o
1441 1 5 -5 10 3017.30 2622.16 240.96 o
1442 4 5 -5 10 3336.61 2619.32 272.14 o
1442 2 -5 5 -10 3336.61 2619.32 272.14 o
1442 1 -5 5 -10 3336.61 2619.32 272.14 o
1443 4 -4 4 -10 11415.60 12439.00 260.80 o
1443 2 5 -5 8 11415.60 12439.00 260.80 o
1443 1 4 -4 10 11415.60 12439.00 260.80 o
1444 4 4 -4 10 12046.50 14097.30 269.30 o
1444 2 -5 5 -8 12046.50 14097.30 269.30 o
1444 1 -4 4 -10 12046.50 14097.30 269.30 o
1445 4 -6 4 -10 5225.65 4969.35 192.76 o
1445 2 4 -6 10 5225.65 4969.35 192.76 o
1445 1 6 -4 10 5225.65 4969.35 192.76 o
1446 4 4 -6 10 5405.19 5853.79 192.76 o
1446 2 -6 4 -10 5405.19 5853.79 192.76 o
1446 1 -4 6 -10 5405.19 5853.79 192.76 o
1447 4 -3 3 -10 2292.05 2018.35 189.93 o
1447 2 5 -5 6 2292.05 2018.35 189.93 o
1447 1 3 -3 10 2292.05 2018.35 189.93 o
1448 4 3 -3 10 2867.69 2590.98 189.93 o
1448 2 -5 5 -6 2867.69 2590.98 189.93 o
1448 1 -3 3 -10 2867.69 2590.98 189.93 o
1449 4 -5 3 -10 14681.30 15724.40 175.76 o
1449 2 4 -6 8 14681.30 15724.40 175.76 o
1449 1 5 -3 10 14681.30 15724.40 175.76 o
1450 4 3 -5 10 15122.80 17935.60 181.43 o
1450 2 -6 4 -8 15122.80 17935.60 181.43 o
1450 1 -3 5 -10 15122.80 17935.60 181.43 o
1451 4 -7 3 -10 4351.69 3923.32 206.94 o
1451 2 3 -7 10 4351.69 3923.32 206.94 o
1451 1 7 -3 10 4351.69 3923.32 206.94 o
1452 4 3 -7 10 4539.96 4629.17 206.94 o
1452 2 -7 3 -10 4539.96 4629.17 206.94 o
1452 1 -3 7 -10 4539.96 4629.17 206.94 o
1453 4 -2 2 -10 14698.00 13034.30 255.13 o
1453 2 5 -5 4 14698.00 13034.30 255.13 o
1453 1 2 -2 10 14698.00 13034.30 255.13 o
1454 4 2 -2 10 15372.00 15928.60 274.97 o
1454 2 -5 5 -4 15372.00 15928.60 274.97 o
1454 1 -2 2 -10 15372.00 15928.60 274.97 o
1455 4 -4 2 -10 3765.92 4053.72 150.24 o
1455 2 4 -6 6 3765.92 4053.72 150.24 o
1455 1 4 -2 10 3765.92 4053.72 150.24 o
1456 4 2 -4 10 4087.31 4541.30 153.08 o
1456 2 -6 4 -6 4087.31 4541.30 153.08 o
1456 1 -2 4 -10 4087.31 4541.30 153.08 o
1457 4 -6 2 -10 9367.02 9711.91 192.76 o
1457 2 3 -7 8 9367.02 9711.91 192.76 o
1457 1 6 -2 10 9367.02 9711.91 192.76 o
1458 4 2 -6 10 9767.56 11166.10 195.60 o
1458 2 -7 3 -8 9767.56 11166.10 195.60 o
1458 1 -2 6 -10 9767.56 11166.10 195.60 o
1459 4 -1 1 -10 3085.04 2778.07 161.58 o
1459 2 5 -5 2 3085.04 2778.07 161.58 o
1459 1 1 -1 10 3085.04 2778.07 161.58 o
1460 4 1 -1 10 3394.68 2882.96 158.75 o
1460 2 -5 5 -2 3394.68 2882.96 158.75 o
1460 1 -1 1 -10 3394.68 2882.96 158.75 o
1461 4 -3 1 -10 10577.60 11914.50 181.43 o
1461 2 4 -6 4 10577.60 11914.50 181.43 o
1461 1 3 -1 10 10577.60 11914.50 181.43 o
1462 4 1 -3 10 11009.10 12501.30 170.09 o
1462 2 -6 4 -4 11009.10 12501.30 170.09 o
1462 1 -1 3 -10 11009.10 12501.30 170.09 o
1463 4 -5 1 -10 4714.64 4575.31 147.41 o
1463 2 3 -7 6 4714.64 4575.31 147.41 o
1463 1 5 -1 10 4714.64 4575.31 147.41 o
1464 4 1 -5 10 5068.75 4986.35 158.75 o
1464 2 -7 3 -6 5068.75 4986.35 158.75 o
1464 1 -1 5 -10 5068.75 4986.35 158.75 o
1465 4 -7 1 -10 11095.00 11004.60 184.26 o
1465 2 2 -8 8 11095.00 11004.60 184.26 o
1465 1 7 -1 10 11095.00 11004.60 184.26 o
1466 4 1 -7 10 11203.90 11815.30 331.67 o
1466 2 -8 2 -8 11203.90 11815.30 331.67 o
1466 1 -1 7 -10 11203.90 11815.30 331.67 o
1467 4 0 0 -10 18284.70 13972.60 311.82 o
1467 2 5 -5 0 18284.70 13972.60 311.82 o
1467 1 0 0 10 18284.70 13972.60 311.82 o
1468 4 0 0 10 18359.00 15815.20 308.99 o
1468 2 -5 5 0 18359.00 15815.20 308.99 o
1468 1 0 0 -10 18359.00 15815.20 308.99 o
1469 4 -2 0 -10 2386.58 1828.42 147.41 o
1469 2 4 -6 2 2386.58 1828.42 147.41 o
1469 1 2 0 10 2386.58 1828.42 147.41 o
1470 4 0 -2 10 2577.39 1346.51 133.23 o
1470 2 -6 4 -2 2577.39 1346.51 133.23 o
1470 1 0 2 -10 2577.39 1346.51 133.23 o
1471 4 -4 0 -10 12685.50 12141.30 184.26 o
1471 2 3 -7 4 12685.50 12141.30 184.26 o
1471 1 4 0 10 12685.50 12141.30 184.26 o
1472 4 0 -4 10 13114.80 11767.10 181.43 o
1472 2 -7 3 -4 13114.80 11767.10 181.43 o
1472 1 0 4 -10 13114.80 11767.10 181.43 o
1473 4 -6 0 -10 8327.47 8487.29 170.09 o
1473 2 2 -8 6 8327.47 8487.29 170.09 o
1473 1 6 0 10 8327.47 8487.29 170.09 o
1474 4 0 -6 10 8354.85 8413.59 280.64 o
1474 2 -8 2 -6 8354.85 8413.59 280.64 o
1474 1 0 6 -10 8354.85 8413.59 280.64 o
1475 4 -8 0 -10 6737.24 6202.47 167.25 o
1475 2 1 -9 8 6737.24 6202.47 167.25 o
1475 1 8 0 10 6737.24 6202.47 167.25 o
1476 4 0 -8 10 6818.24 6412.24 351.51 o
1476 2 -9 1 -8 6818.24 6412.24 351.51 o
1476 1 0 8 -10 6818.24 6412.24 351.51 o
1477 4 1 -1 -10 3383.91 3186.28 291.98 o
1477 2 5 -5 -2 3383.91 3186.28 291.98 o
1477 1 -1 1 10 3383.91 3186.28 291.98 o
1478 4 -1 1 10 3095.82 3362.03 240.96 o
1478 2 -5 5 2 3095.82 3362.03 240.96 o
1478 1 1 -1 -10 3095.82 3362.03 240.96 o
1479 4 -1 -1 -10 7695.35 7047.23 198.43 o
1479 2 4 -6 0 7695.35 7047.23 198.43 o
1479 1 1 1 10 7695.35 7047.23 198.43 o
1480 4 -1 -1 10 7706.13 7305.19 187.10 o
1480 2 -6 4 0 7706.13 7305.19 187.10 o
1480 1 1 1 -10 7706.13 7305.19 187.10 o
1481 4 -3 -1 -10 6719.48 6860.13 175.76 o
1481 2 3 -7 2 6719.48 6860.13 175.76 o
1481 1 3 1 10 6719.48 6860.13 175.76 o
1482 4 -1 -3 10 6914.70 7483.78 170.09 o
1482 2 -7 3 -2 6914.70 7483.78 170.09 o
1482 1 1 3 -10 6914.70 7483.78 170.09 o
1483 4 -5 -1 -10 10594.30 10562.30 161.58 o
1483 2 2 -8 4 10594.30 10562.30 161.58 o
1483 1 5 1 10 10594.30 10562.30 161.58 o
1484 4 -1 -5 10 10689.70 9258.35 252.29 o
1484 2 -8 2 -4 10689.70 9258.35 252.29 o
1484 1 1 5 -10 10689.70 9258.35 252.29 o
1485 4 -7 -1 -10 8586.80 8090.42 150.24 o
1485 2 1 -9 6 8586.80 8090.42 150.24 o
1485 1 7 1 10 8586.80 8090.42 150.24 o
1486 4 -1 -7 10 8642.37 8365.40 323.16 o
1486 2 -9 1 -6 8642.37 8365.40 323.16 o
1486 1 1 7 -10 8642.37 8365.40 323.16 o
1487 4 2 -2 -10 15316.70 15681.90 479.08 o
1487 2 5 -5 -4 15316.70 15681.90 479.08 o
1487 1 -2 2 10 15316.70 15681.90 479.08 o
1488 4 -2 2 10 14753.30 13065.40 371.35 o
1488 2 -5 5 4 14753.30 13065.40 371.35 o
1488 1 2 -2 -10 14753.30 13065.40 371.35 o
1489 4 0 -2 -10 2614.74 1476.91 187.10 o
1489 2 4 -6 -2 2614.74 1476.91 187.10 o
1489 1 0 2 10 2614.74 1476.91 187.10 o
1490 4 -2 0 10 2349.23 1306.83 161.58 o
1490 2 -6 4 2 2349.23 1306.83 161.58 o
1490 1 2 0 -10 2349.23 1306.83 161.58 o
1491 4 -2 -2 -10 15858.30 12317.10 209.77 o
1491 2 3 -7 0 15858.30 12317.10 209.77 o
1491 1 2 2 10 15858.30 12317.10 209.77 o
1492 4 -2 -2 10 15913.50 15582.70 212.61 o
1492 2 -7 3 0 15913.50 15582.70 212.61 o
1492 1 2 2 -10 15913.50 15582.70 212.61 o
1493 4 -4 -2 -10 6500.23 6233.65 130.40 o
1493 2 2 -8 2 6500.23 6233.65 130.40 o
1493 1 4 2 10 6500.23 6233.65 130.40 o
1494 4 -2 -4 10 6524.93 5544.80 235.29 o
1494 2 -8 2 -2 6524.93 5544.80 235.29 o
1494 1 2 4 -10 6524.93 5544.80 235.29 o
1495 4 -6 -2 -10 10412.20 10491.50 153.08 o
1495 2 1 -9 4 10412.20 10491.50 153.08 o
1495 1 6 2 10 10412.20 10491.50 153.08 o
1496 4 -2 -6 10 10504.20 10318.50 300.48 o
1496 2 -9 1 -4 10504.20 10318.50 300.48 o
1496 1 2 6 -10 10504.20 10318.50 300.48 o
1497 4 3 -3 -10 2876.30 3058.71 450.73 o
1497 2 5 -5 -6 2876.30 3058.71 450.73 o
1497 1 -3 3 10 2876.30 3058.71 450.73 o
1498 4 -3 3 10 2283.43 2528.61 320.33 o
1498 2 -5 5 6 2283.43 2528.61 320.33 o
1498 1 3 -3 -10 2283.43 2528.61 320.33 o
1499 4 1 -3 -10 10991.20 11588.50 286.31 o
1499 2 4 -6 -4 10991.20 11588.50 286.31 o
1499 1 -1 3 10 10991.20 11588.50 286.31 o
1500 4 -3 1 10 10595.50 9893.33 255.13 o
1500 2 -6 4 4 10595.50 9893.33 255.13 o
1500 1 3 -1 -10 10595.50 9893.33 255.13 o
1501 4 -1 -3 -10 6896.82 7174.79 204.10 o
1501 2 3 -7 -2 6896.82 7174.79 204.10 o
1501 1 1 3 10 6896.82 7174.79 204.10 o
1502 4 -3 -1 10 6737.36 3860.95 164.42 o
1502 2 -7 3 2 6737.36 3860.95 164.42 o
1502 1 3 1 -10 6737.36 3860.95 164.42 o
1503 4 -3 -3 -10 9889.54 8600.68 158.75 o
1503 2 2 -8 0 9889.54 8600.68 158.75 o
1503 1 3 3 10 9889.54 8600.68 158.75 o
1504 4 -3 -3 10 9880.92 7960.02 246.62 o
1504 2 -8 2 0 9880.92 7960.02 246.62 o
1504 1 3 3 -10 9880.92 7960.02 246.62 o
1505 4 -5 -3 -10 13174.50 12923.70 164.42 o
1505 2 1 -9 2 13174.50 12923.70 164.42 o
1505 1 5 3 10 13174.50 12923.70 164.42 o
1506 4 -3 -5 10 13217.30 15214.20 300.48 o
1506 2 -9 1 -2 13217.30 15214.20 300.48 o
1506 1 3 5 -10 13217.30 15214.20 300.48 o
1507 4 -7 -3 -10 8722.52 7285.35 161.58 o
1507 2 0 -10 4 8722.52 7285.35 161.58 o
1507 1 7 3 10 8722.52 7285.35 161.58 o
1508 4 -3 -7 10 8643.53 5845.29 311.82 o
1508 2 -10 0 -4 8643.53 5845.29 311.82 o
1508 1 3 7 -10 8643.53 5845.29 311.82 o
1509 4 2 -4 -10 4107.11 3602.99 365.68 o
1509 2 4 -6 -6 4107.11 3602.99 365.68 o
1509 1 -2 4 10 4107.11 3602.99 365.68 o
1510 4 -4 2 10 3746.12 3602.99 243.79 o
1510 2 -6 4 6 3746.12 3602.99 243.79 o
1510 1 4 -2 -10 3746.12 3602.99 243.79 o
1511 4 0 -4 -10 13075.30 10664.40 232.45 o
1511 2 3 -7 -4 13075.30 10664.40 232.45 o
1511 1 0 4 10 13075.30 10664.40 232.45 o
1512 4 -4 0 10 12725.00 14162.50 306.15 o
1512 2 -7 3 4 12725.00 14162.50 306.15 o
1512 1 4 0 -10 12725.00 14162.50 306.15 o
1513 4 -2 -4 -10 6544.74 5649.69 158.75 o
1513 2 2 -8 -2 6544.74 5649.69 158.75 o
1513 1 2 4 10 6544.74 5649.69 158.75 o
1514 4 -4 -2 10 6480.43 6389.56 257.96 o
1514 2 -8 2 2 6480.43 6389.56 257.96 o
1514 1 4 2 -10 6480.43 6389.56 257.96 o
1515 4 -4 -4 -10 13390.90 13465.10 175.76 o
1515 2 1 -9 0 13390.90 13465.10 175.76 o
1515 1 4 4 10 13390.90 13465.10 175.76 o
1516 4 -4 -4 10 13417.00 15920.00 277.81 o
1516 2 -9 1 0 13417.00 15920.00 277.81 o
1516 1 4 4 -10 13417.00 15920.00 277.81 o
1517 4 -6 -4 -10 8654.48 7767.26 153.08 o
1517 2 0 -10 2 8654.48 7767.26 153.08 o
1517 1 6 4 10 8654.48 7767.26 153.08 o
1518 4 -4 -6 10 8597.88 7415.75 266.47 o
1518 2 -10 0 -2 8597.88 7415.75 266.47 o
1518 1 4 6 -10 8597.88 7415.75 266.47 o
1519 4 3 -5 -10 15099.90 14712.40 501.75 o
1519 2 4 -6 -8 15099.90 14712.40 501.75 o
1519 1 -3 5 10 15099.90 14712.40 501.75 o
1520 4 -5 3 10 14704.30 11013.10 445.06 o
1520 2 -6 4 8 14704.30 11013.10 445.06 o
1520 1 5 -3 -10 14704.30 11013.10 445.06 o
1521 4 1 -5 -10 5069.49 4734.06 317.49 o
1521 2 3 -7 -6 5069.49 4734.06 317.49 o
1521 1 -1 5 10 5069.49 4734.06 317.49 o
1522 4 -5 1 10 4713.90 5318.02 297.65 o
1522 2 -7 3 6 4713.90 5318.02 297.65 o
1522 1 5 -1 -10 4713.90 5318.02 297.65 o
1523 4 -1 -5 -10 10690.40 5703.55 206.94 o
1523 2 2 -8 -4 10690.40 5703.55 206.94 o
1523 1 1 5 10 10690.40 5703.55 206.94 o
1524 4 -5 -1 10 10593.50 11622.50 300.48 o
1524 2 -8 2 4 10593.50 11622.50 300.48 o
1524 1 5 1 -10 10593.50 11622.50 300.48 o
1525 4 -3 -5 -10 13194.40 12810.30 187.10 o
1525 2 1 -9 -2 13194.40 12810.30 187.10 o
1525 1 3 5 10 13194.40 12810.30 187.10 o
1526 4 -5 -3 10 13197.50 17428.10 272.14 o
1526 2 -9 1 2 13197.50 17428.10 272.14 o
1526 1 5 3 -10 13197.50 17428.10 272.14 o
1527 4 -5 -5 -10 8750.94 6511.46 167.25 o
1527 2 0 -10 0 8750.94 6511.46 167.25 o
1527 1 5 5 10 8750.94 6511.46 167.25 o
1528 4 -5 -5 10 8734.42 6318.69 252.29 o
1528 2 -10 0 0 8734.42 6318.69 252.29 o
1528 1 5 5 -10 8734.42 6318.69 252.29 o
1529 4 -6 4 10 5216.36 4439.24 377.02 o
1529 2 -6 4 10 5216.36 4439.24 377.02 o
1529 1 6 -4 -10 5216.36 4439.24 377.02 o
1530 4 2 -6 -10 9751.46 8373.90 428.05 o
1530 2 3 -7 -8 9751.46 8373.90 428.05 o
1530 1 -2 6 10 9751.46 8373.90 428.05 o
1531 4 -6 2 10 9383.12 10774.90 328.83 o
1531 2 -7 3 8 9383.12 10774.90 328.83 o
1531 1 6 -2 -10 9383.12 10774.90 328.83 o
1532 4 0 -6 -10 8361.33 5947.34 340.17 o
1532 2 2 -8 -6 8361.33 5947.34 340.17 o
1532 1 0 6 10 8361.33 5947.34 340.17 o
1533 4 -6 0 10 8320.99 10199.50 291.98 o
1533 2 -8 2 6 8320.99 10199.50 291.98 o
1533 1 6 0 -10 8320.99 10199.50 291.98 o
1534 4 -2 -6 -10 10488.10 8708.40 204.10 o
1534 2 1 -9 -4 10488.10 8708.40 204.10 o
1534 1 2 6 10 10488.10 8708.40 204.10 o
1535 4 -6 -2 10 10428.20 11971.20 274.97 o
1535 2 -9 1 4 10428.20 11971.20 274.97 o
1535 1 6 2 -10 10428.20 11971.20 274.97 o
1536 4 -4 -6 -10 8607.17 6349.88 181.43 o
1536 2 0 -10 -2 8607.17 6349.88 181.43 o
1536 1 4 6 10 8607.17 6349.88 181.43 o
1537 4 -6 -4 10 8645.19 7957.19 277.81 o
1537 2 -10 0 2 8645.19 7957.19 277.81 o
1537 1 6 4 -10 8645.19 7957.19 277.81 o
1538 4 3 -7 -10 4549.70 3396.05 442.22 o
1538 2 3 -7 -10 4549.70 3396.05 442.22 o
1538 1 -3 7 10 4549.70 3396.05 442.22 o
1539 4 -7 3 10 4341.95 4323.02 385.53 o
1539 2 -7 3 10 4341.95 4323.02 385.53 o
1539 1 7 -3 -10 4341.95 4323.02 385.53 o
1540 4 1 -7 -10 11195.90 8821.79 411.04 o
1540 2 2 -8 -8 11195.90 8821.79 411.04 o
1540 1 -1 7 10 11195.90 8821.79 411.04 o
1541 4 -7 1 10 11103.00 11262.50 314.66 o
1541 2 -8 2 8 11103.00 11262.50 314.66 o
1541 1 7 -1 -10 11103.00 11262.50 314.66 o
1542 4 -1 -7 -10 8634.41 7815.45 351.51 o
1542 2 1 -9 -6 8634.41 7815.45 351.51 o
1542 1 1 7 10 8634.41 7815.45 351.51 o
1543 4 -7 -1 10 8594.76 9507.81 280.64 o
1543 2 -9 1 6 8594.76 9507.81 280.64 o
1543 1 7 1 -10 8594.76 9507.81 280.64 o
1544 4 -3 -7 -10 8653.27 4660.36 221.11 o
1544 2 0 -10 -4 8653.27 4660.36 221.11 o
1544 1 3 7 10 8653.27 4660.36 221.11 o
1545 4 -7 -3 10 8712.78 8062.08 291.98 o
1545 2 -10 0 4 8712.78 8062.08 291.98 o
1545 1 7 3 -10 8712.78 8062.08 291.98 o
1546 4 0 -8 -10 6816.02 4127.42 385.53 o
1546 2 1 -9 -8 6816.02 4127.42 385.53 o
1546 1 0 8 10 6816.02 4127.42 385.53 o
1547 4 -8 0 10 6739.45 5434.25 306.15 o
1547 2 -9 1 8 6739.45 5434.25 306.15 o
1547 1 8 0 -10 6739.45 5434.25 306.15 o
1548 4 -5 4 -11 82.21 124.73 181.43 <
1548 2 5 -6 9 82.21 124.73 181.43 <
1548 1 5 -4 11 82.21 124.73 181.43 <
1549 4 4 -5 11 82.22 -147.41 150.24 <
1549 2 -6 5 -9 82.22 -147.41 150.24 <
1549 1 -4 5 -11 82.22 -147.41 150.24 <
1550 4 -4 3 -11 627.56 524.43 147.41 o
1550 2 5 -6 7 627.56 524.43 147.41 o
1550 1 4 -3 11 627.56 524.43 147.41 o
1551 4 3 -4 11 627.58 583.96 175.76 o
1551 2 -6 5 -7 627.58 583.96 175.76 o
1551 1 -3 4 -11 627.58 583.96 175.76 o
1552 4 -6 3 -11 594.34 303.32 187.10 <
1552 2 4 -7 9 594.34 303.32 187.10 <
1552 1 6 -3 11 594.34 303.32 187.10 <
1553 4 3 -6 11 594.32 629.32 136.07 o
1553 2 -7 4 -9 594.32 629.32 136.07 o
1553 1 -3 6 -11 594.32 629.32 136.07 o
1554 4 -3 2 -11 409.52 255.13 150.24 <
1554 2 5 -6 5 409.52 255.13 150.24 <
1554 1 3 -2 11 409.52 255.13 150.24 <
1555 4 2 -3 11 409.55 708.69 153.08 o
1555 2 -6 5 -5 409.55 708.69 153.08 o
1555 1 -2 3 -11 409.55 708.69 153.08 o
1556 4 -5 2 -11 126.52 334.50 167.25 <
1556 2 4 -7 7 126.52 334.50 167.25 <
1556 1 5 -2 11 126.52 334.50 167.25 <
1557 4 2 -5 11 126.52 323.16 170.09 <
1557 2 -7 4 -7 126.52 323.16 170.09 <
1557 1 -2 5 -11 126.52 323.16 170.09 <
1558 4 -7 2 -11 293.68 300.48 192.76 <
1558 2 3 -8 9 293.68 300.48 192.76 <
1558 1 7 -2 11 293.68 300.48 192.76 <
1559 4 2 -7 11 293.67 229.62 187.10 <
1559 2 -8 3 -9 293.67 229.62 187.10 <
1559 1 -2 7 -11 293.67 229.62 187.10 <
1560 4 -2 1 -11 910.19 790.90 147.41 o
1560 2 5 -6 3 910.19 790.90 147.41 o
1560 1 2 -1 11 910.19 790.90 147.41 o
1561 4 1 -2 11 910.21 892.95 147.41 o
1561 2 -6 5 -3 910.21 892.95 147.41 o
1561 1 -1 2 -11 910.21 892.95 147.41 o
1562 4 -4 1 -11 1532.92 1057.37 127.56 o
1562 2 4 -7 5 1532.92 1057.37 127.56 o
1562 1 4 -1 11 1532.92 1057.37 127.56 o
1563 4 1 -4 11 1532.89 1261.47 147.41 o
1563 2 -7 4 -5 1532.89 1261.47 147.41 o
1563 1 -1 4 -11 1532.89 1261.47 147.41 o
1564 4 -6 1 -11 1590.76 1125.40 172.92 o
1564 2 3 -8 7 1590.76 1125.40 172.92 o
1564 1 6 -1 11 1590.76 1125.40 172.92 o
1565 4 1 -6 11 1590.78 805.07 175.76 o
1565 2 -8 3 -7 1590.78 805.07 175.76 o
1565 1 -1 6 -11 1590.78 805.07 175.76 o
1566 4 -2 -1 -11 974.17 858.93 167.25 o
1566 2 4 -7 1 974.17 858.93 167.25 o
1566 1 2 1 11 974.17 858.93 167.25 o
1567 4 -1 -2 11 974.15 799.40 167.25 o
1567 2 -7 4 -1 974.15 799.40 167.25 o
1567 1 1 2 -11 974.15 799.40 167.25 o
1568 4 -4 -1 -11 2600.64 2250.80 161.58 o
1568 2 3 -8 3 2600.64 2250.80 161.58 o
1568 1 4 1 11 2600.64 2250.80 161.58 o
1569 4 -1 -4 11 2600.68 1114.06 141.74 o
1569 2 -8 3 -3 2600.68 1114.06 141.74 o
1569 1 1 4 -11 2600.68 1114.06 141.74 o
1570 4 -6 -1 -11 1280.20 827.75 144.57 o
1570 2 2 -9 5 1280.20 827.75 144.57 o
1570 1 6 1 11 1280.20 827.75 144.57 o
1571 4 -1 -6 11 1280.18 1063.04 212.61 o
1571 2 -9 2 -5 1280.18 1063.04 212.61 o
1571 1 1 6 -11 1280.18 1063.04 212.61 o
1572 4 1 -2 -11 910.21 640.66 221.11 o
1572 2 5 -6 -3 910.21 640.66 221.11 o
1572 1 -1 2 11 910.21 640.66 221.11 o
1573 4 -2 1 11 910.19 578.29 170.09 o
1573 2 -6 5 3 910.19 578.29 170.09 o
1573 1 2 -1 -11 910.19 578.29 170.09 o
1574 4 -1 -2 -11 974.15 524.43 181.43 o
1574 2 4 -7 -1 974.15 524.43 181.43 o
1574 1 1 2 11 974.15 524.43 181.43 o
1575 4 -2 -1 11 974.17 779.56 164.42 o
1575 2 -7 4 1 974.17 779.56 164.42 o
1575 1 2 1 -11 974.17 779.56 164.42 o
1576 4 -3 -2 -11 1748.08 1644.16 144.57 o
1576 2 3 -8 1 1748.08 1644.16 144.57 o
1576 1 3 2 11 1748.08 1644.16 144.57 o
1577 4 -2 -3 11 1748.17 612.31 155.91 o
1577 2 -8 3 -1 1748.17 612.31 155.91 o
1577 1 2 3 -11 1748.17 612.31 155.91 o
1578 4 -5 -2 -11 279.26 144.57 127.56 <
1578 2 2 -9 3 279.26 144.57 127.56 <
1578 1 5 2 11 279.26 144.57 127.56 <
1579 4 -2 -5 11 279.26 209.77 280.64 <
1579 2 -9 2 -3 279.26 209.77 280.64 <
1579 1 2 5 -11 279.26 209.77 280.64 <
1580 4 -7 -2 -11 316.83 408.21 144.57 o
1580 2 1 -10 5 316.83 408.21 144.57 o
1580 1 7 2 11 316.83 408.21 144.57 o
1581 4 -2 -7 11 316.83 14.17 263.63 <
1581 2 -10 1 -5 316.83 14.17 263.63 <
1581 1 2 7 -11 316.83 14.17 263.63 <
1582 4 2 -3 -11 409.55 326.00 252.29 <
1582 2 5 -6 -5 409.55 326.00 252.29 <
1582 1 -2 3 11 409.55 326.00 252.29 <
1583 4 -3 2 11 409.52 141.74 201.27 <
1583 2 -6 5 5 409.52 141.74 201.27 <
1583 1 3 -2 -11 409.52 141.74 201.27 <
1584 4 -2 -3 -11 1748.17 1077.21 138.90 o
1584 2 3 -8 -1 1748.17 1077.21 138.90 o
1584 1 2 3 11 1748.17 1077.21 138.90 o
1585 4 -3 -2 11 1748.08 1539.28 238.12 o
1585 2 -8 3 1 1748.08 1539.28 238.12 o
1585 1 3 2 -11 1748.08 1539.28 238.12 o
1586 4 -4 -3 -11 838.74 419.55 130.40 o
1586 2 2 -9 1 838.74 419.55 130.40 o
1586 1 4 3 11 838.74 419.55 130.40 o
1587 4 -3 -4 11 838.68 737.04 252.29 o
1587 2 -9 2 -1 838.68 737.04 252.29 o
1587 1 3 4 -11 838.68 737.04 252.29 o
1588 4 -6 -3 -11 907.64 634.99 147.41 o
1588 2 1 -10 3 907.64 634.99 147.41 o
1588 1 6 3 11 907.64 634.99 147.41 o
1589 4 -3 -6 11 907.66 634.99 272.14 o
1589 2 -10 1 -3 907.66 634.99 272.14 o
1589 1 3 6 -11 907.66 634.99 272.14 o
1590 4 3 -4 -11 627.58 331.67 453.56 <
1590 2 5 -6 -7 627.58 331.67 453.56 <
1590 1 -3 4 11 627.58 331.67 453.56 <
1591 4 -4 3 11 627.56 391.20 326.00 <
1591 2 -6 5 7 627.56 391.20 326.00 <
1591 1 4 -3 -11 627.56 391.20 326.00 <
1592 4 1 -4 -11 1532.89 1255.80 243.79 o
1592 2 4 -7 -5 1532.89 1255.80 243.79 o
1592 1 -1 4 11 1532.89 1255.80 243.79 o
1593 4 -4 1 11 1532.92 983.66 252.29 o
1593 2 -7 4 5 1532.92 983.66 252.29 o
1593 1 4 -1 -11 1532.92 983.66 252.29 o
1594 4 -1 -4 -11 2600.68 1763.22 164.42 o
1594 2 3 -8 -3 2600.68 1763.22 164.42 o
1594 1 1 4 11 2600.68 1763.22 164.42 o
1595 4 -4 -1 11 2600.64 1156.58 257.96 o
1595 2 -8 3 3 2600.64 1156.58 257.96 o
1595 1 4 1 -11 2600.64 1156.58 257.96 o
1596 4 -3 -4 -11 838.68 323.16 144.57 o
1596 2 2 -9 -1 838.68 323.16 144.57 o
1596 1 3 4 11 838.68 323.16 144.57 o
1597 4 -4 -3 11 838.74 249.46 226.78 <
1597 2 -9 2 1 838.74 249.46 226.78 <
1597 1 4 3 -11 838.74 249.46 226.78 <
1598 4 -5 -4 -11 468.63 113.39 147.41 <
1598 2 1 -10 1 468.63 113.39 147.41 <
1598 1 5 4 11 468.63 113.39 147.41 <
1599 4 -4 -5 11 468.64 345.84 243.79 <
1599 2 -10 1 -1 468.64 345.84 243.79 <
1599 1 4 5 -11 468.64 345.84 243.79 <
1600 4 2 -5 -11 126.52 59.53 377.02 <
1600 2 4 -7 -7 126.52 59.53 377.02 <
1600 1 -2 5 11 126.52 59.53 377.02 <
1601 4 -5 2 11 126.52 -87.88 260.80 <
1601 2 -7 4 7 126.52 -87.88 260.80 <
1601 1 5 -2 -11 126.52 -87.88 260.80 <
1602 4 -2 -5 -11 279.25 73.70 150.24 <
1602 2 2 -9 -3 279.25 73.70 150.24 <
1602 1 2 5 11 279.25 73.70 150.24 <
1603 4 -5 -2 11 279.26 -215.44 229.62 <
1603 2 -9 2 3 279.26 -215.44 229.62 <
1603 1 5 2 -11 279.26 -215.44 229.62 <
1604 4 -4 -5 -11 468.64 240.96 144.57 <
1604 2 1 -10 -1 468.64 240.96 144.57 <
1604 1 4 5 11 468.64 240.96 144.57 <
1605 4 -5 -4 11 468.63 433.72 246.62 <
1605 2 -10 1 1 468.63 433.72 246.62 <
1605 1 5 4 -11 468.63 433.72 246.62 <
1606 4 3 -6 -11 594.33 484.74 385.53 <
1606 2 4 -7 -9 594.33 484.74 385.53 <
1606 1 -3 6 11 594.33 484.74 385.53 <
1607 4 -6 3 11 594.34 246.62 317.49 <
1607 2 -7 4 9 594.34 246.62 317.49 <
1607 1 6 -3 -11 594.34 246.62 317.49 <
1608 4 1 -6 -11 1590.78 751.21 348.68 o
1608 2 3 -8 -7 1590.78 751.21 348.68 o
1608 1 -1 6 11 1590.78 751.21 348.68 o
1609 4 -6 1 11 1590.76 827.75 272.14 o
1609 2 -8 3 7 1590.76 827.75 272.14 o
1609 1 6 -1 -11 1590.76 827.75 272.14 o
1610 4 -1 -6 -11 1280.18 569.79 243.79 o
1610 2 2 -9 -5 1280.18 569.79 243.79 o
1610 1 1 6 11 1280.18 569.79 243.79 o
1611 4 -6 -1 11 1280.20 827.75 249.46 o
1611 2 -9 2 5 1280.20 827.75 249.46 o
1611 1 6 1 -11 1280.20 827.75 249.46 o
1612 4 -3 -6 -11 907.66 345.84 184.26 <
1612 2 1 -10 -3 907.66 345.84 184.26 <
1612 1 3 6 11 907.66 345.84 184.26 <
1613 4 -6 -3 11 907.64 708.69 252.29 o
1613 2 -10 1 3 907.64 708.69 252.29 o
1613 1 6 3 -11 907.64 708.69 252.29 o
1614 4 2 -7 -11 293.68 93.55 413.88 <
1614 2 3 -8 -9 293.68 93.55 413.88 <
1614 1 -2 7 11 293.68 93.55 413.88 <
1615 4 -7 2 11 293.68 175.76 345.84 <
1615 2 -8 3 9 293.68 175.76 345.84 <
1615 1 7 -2 -11 293.68 175.76 345.84 <
1616 4 -2 -7 -11 316.83 133.23 218.28 <
1616 2 1 -10 -5 316.83 133.23 218.28 <
1616 1 2 7 11 316.83 133.23 218.28 <
1617 4 -7 -2 11 316.83 25.51 235.29 <
1617 2 -10 1 5 316.83 25.51 235.29 <
1617 1 7 2 -11 316.83 25.51 235.29 <
1618 4 -4 4 -12 23788.10 22678.10 357.18 o
1618 2 6 -6 8 23788.10 22678.10 357.18 o
1618 1 4 -4 12 23788.10 22678.10 357.18 o
1619 4 4 -4 12 23526.30 29697.00 382.69 o
1619 2 -6 6 -8 23526.30 29697.00 382.69 o
1619 1 -4 4 -12 23526.30 29697.00 382.69 o
1620 4 -3 3 -12 23701.50 21617.90 343.01 o
1620 2 6 -6 6 23701.50 21617.90 343.01 o
1620 1 3 -3 12 23701.50 21617.90 343.01 o
1621 4 3 -3 12 23292.10 26998.30 365.68 o
1621 2 -6 6 -6 23292.10 26998.30 365.68 o
1621 1 -3 3 -12 23292.10 26998.30 365.68 o
1622 4 -5 3 -12 25369.00 25702.80 252.29 o
1622 2 5 -7 8 25369.00 25702.80 252.29 o
1622 1 5 -3 12 25369.00 25702.80 252.29 o
1623 4 3 -5 12 24995.80 28707.70 252.29 o
1623 2 -7 5 -8 24995.80 28707.70 252.29 o
1623 1 -3 5 -12 24995.80 28707.70 252.29 o
1624 4 -2 2 -12 47653.80 43641.20 405.37 o
1624 2 6 -6 4 47653.80 43641.20 405.37 o
1624 1 2 -2 12 47653.80 43641.20 405.37 o
1625 4 2 -2 12 47368.40 47000.40 422.38 o
1625 2 -6 6 -4 47368.40 47000.40 422.38 o
1625 1 -2 2 -12 47368.40 47000.40 422.38 o
1626 4 -4 2 -12 25280.30 22703.60 229.62 o
1626 2 5 -7 6 25280.30 22703.60 229.62 o
1626 1 4 -2 12 25280.30 22703.60 229.62 o
1627 4 2 -4 12 24773.60 25938.10 255.13 o
1627 2 -7 5 -6 24773.60 25938.10 255.13 o
1627 1 -2 4 -12 24773.60 25938.10 255.13 o
1628 4 -6 2 -12 17114.50 14769.10 232.45 o
1628 2 4 -8 8 17114.50 14769.10 232.45 o
1628 1 6 -2 12 17114.50 14769.10 232.45 o
1629 4 2 -6 12 16994.40 18837.00 238.12 o
1629 2 -8 4 -8 16994.40 18837.00 238.12 o
1629 1 -2 6 -12 16994.40 18837.00 238.12 o
1630 4 -1 1 -12 42106.30 34088.10 413.88 o
1630 2 6 -6 2 42106.30 34088.10 413.88 o
1630 1 1 -1 12 42106.30 34088.10 413.88 o
1631 4 1 -1 12 41897.20 55581.30 436.55 o
1631 2 -6 6 -2 41897.20 55581.30 436.55 o
1631 1 -1 1 -12 41897.20 55581.30 436.55 o
1632 4 -3 1 -12 42280.20 41070.10 280.64 o
1632 2 5 -7 4 42280.20 41070.10 280.64 o
1632 1 3 -1 12 42280.20 41070.10 280.64 o
1633 4 1 -3 12 41880.10 47890.50 300.48 o
1633 2 -7 5 -4 41880.10 47890.50 300.48 o
1633 1 -1 3 -12 41880.10 47890.50 300.48 o
1634 4 -5 1 -12 19845.80 17484.80 226.78 o
1634 2 4 -8 6 19845.80 17484.80 226.78 o
1634 1 5 -1 12 19845.80 17484.80 226.78 o
1635 4 1 -5 12 19628.90 19055.30 232.45 o
1635 2 -8 4 -6 19628.90 19055.30 232.45 o
1635 1 -1 5 -12 19628.90 19055.30 232.45 o
1636 4 0 0 -12 63715.20 54192.20 581.13 o
1636 2 6 -6 0 63715.20 54192.20 581.13 o
1636 1 0 0 12 63715.20 54192.20 581.13 o
1637 4 0 0 12 63737.40 67110.30 595.30 o
1637 2 -6 6 0 63737.40 67110.30 595.30 o
1637 1 0 0 -12 63737.40 67110.30 595.30 o
1638 4 -2 0 -12 36704.80 27193.90 297.65 o
1638 2 5 -7 2 36704.80 27193.90 297.65 o
1638 1 2 0 12 36704.80 27193.90 297.65 o
1639 4 0 -2 12 36390.10 33197.90 294.82 o
1639 2 -7 5 -2 36390.10 33197.90 294.82 o
1639 1 0 2 -12 36390.10 33197.90 294.82 o
1640 4 -4 0 -12 33422.80 30964.20 260.80 o
1640 2 4 -8 4 33422.80 30964.20 260.80 o
1640 1 4 0 12 33422.80 30964.20 260.80 o
1641 4 0 -4 12 33286.10 32151.90 252.29 o
1641 2 -8 4 -4 33286.10 32151.90 252.29 o
1641 1 0 4 -12 33286.10 32151.90 252.29 o
1642 4 -6 0 -12 17790.90 15781.10 232.45 o
1642 2 3 -9 6 17790.90 15781.10 232.45 o
1642 1 6 0 12 17790.90 15781.10 232.45 o
1643 4 0 -6 12 17587.80 17238.20 351.51 o
1643 2 -9 3 -6 17587.80 17238.20 351.51 o
1643 1 0 6 -12 17587.80 17238.20 351.51 o
1644 4 1 -1 -12 41911.60 32353.20 530.10 o
1644 2 6 -6 -2 41911.60 32353.20 530.10 o
1644 1 -1 1 12 41911.60 32353.20 530.10 o
1645 4 -1 1 12 42091.90 42206.80 479.08 o
1645 2 -6 6 2 42091.90 42206.80 479.08 o
1645 1 1 -1 -12 42091.90 42206.80 479.08 o
1646 4 -1 -1 -12 49690.20 31369.50 365.68 o
1646 2 5 -7 0 49690.20 31369.50 365.68 o
1646 1 1 1 12 49690.20 31369.50 365.68 o
1647 4 -1 -1 12 49675.80 43936.00 374.19 o
1647 2 -7 5 0 49675.80 43936.00 374.19 o
1647 1 1 1 -12 49675.80 43936.00 374.19 o
1648 4 -3 -1 -12 34167.40 27741.00 266.47 o
1648 2 4 -8 2 34167.40 27741.00 266.47 o
1648 1 3 1 12 34167.40 27741.00 266.47 o
1649 4 -1 -3 12 34061.10 40250.80 272.14 o
1649 2 -8 4 -2 34061.10 40250.80 272.14 o
1649 1 1 3 -12 34061.10 40250.80 272.14 o
1650 4 -5 -1 -12 22189.20 18474.20 229.62 o
1650 2 3 -9 4 22189.20 18474.20 229.62 o
1650 1 5 1 12 22189.20 18474.20 229.62 o
1651 4 -1 -5 12 22031.20 21408.20 348.68 o
1651 2 -9 3 -4 22031.20 21408.20 348.68 o
1651 1 1 5 -12 22031.20 21408.20 348.68 o
1652 4 2 -2 -12 47352.50 50444.70 603.80 o
1652 2 6 -6 -4 47352.50 50444.70 603.80 o
1652 1 -2 2 12 47352.50 50444.70 603.80 o
1653 4 -2 2 12 47669.70 45886.40 504.59 o
1653 2 -6 6 4 47669.70 45886.40 504.59 o
1653 1 2 -2 -12 47669.70 45886.40 504.59 o
1654 4 0 -2 -12 36432.00 30794.10 334.50 o
1654 2 5 -7 -2 36432.00 30794.10 334.50 o
1654 1 0 2 12 36432.00 30794.10 334.50 o
1655 4 -2 0 12 36662.80 37013.50 308.99 o
1655 2 -7 5 2 36662.80 37013.50 308.99 o
1655 1 2 0 -12 36662.80 37013.50 308.99 o
1656 4 -2 -2 -12 44534.50 34278.00 303.32 o
1656 2 4 -8 0 44534.50 34278.00 303.32 o
1656 1 2 2 12 44534.50 34278.00 303.32 o
1657 4 -2 -2 12 44550.50 52842.90 323.16 o
1657 2 -8 4 0 44550.50 52842.90 323.16 o
1657 1 2 2 -12 44550.50 52842.90 323.16 o
1658 4 -4 -2 -12 23159.10 12611.90 172.92 o
1658 2 3 -9 2 23159.10 12611.90 172.92 o
1658 1 4 2 12 23159.10 12611.90 172.92 o
1659 4 -2 -4 12 23026.70 24645.50 340.17 o
1659 2 -9 3 -2 23026.70 24645.50 340.17 o
1659 1 2 4 -12 23026.70 24645.50 340.17 o
1660 4 -6 -2 -12 15276.30 10610.50 187.10 o
1660 2 2 -10 4 15276.30 10610.50 187.10 o
1660 1 6 2 12 15276.30 10610.50 187.10 o
1661 4 -2 -6 12 15330.10 13173.20 340.17 o
1661 2 -10 2 -4 15330.10 13173.20 340.17 o
1661 1 2 6 -12 15330.10 13173.20 340.17 o
1662 4 3 -3 -12 23310.40 18987.30 566.95 o
1662 2 6 -6 -6 23310.40 18987.30 566.95 o
1662 1 -3 3 12 23310.40 18987.30 566.95 o
1663 4 -3 3 12 23683.20 25002.60 532.94 o
1663 2 -6 6 6 23683.20 25002.60 532.94 o
1663 1 3 -3 -12 23683.20 25002.60 532.94 o
1664 4 1 -3 -12 41885.50 41515.20 405.37 o
1664 2 5 -7 -4 41885.50 41515.20 405.37 o
1664 1 -1 3 12 41885.50 41515.20 405.37 o
1665 4 -3 1 12 42274.80 41427.30 377.02 o
1665 2 -7 5 4 42274.80 41427.30 377.02 o
1665 1 3 -1 -12 42274.80 41427.30 377.02 o
1666 4 -1 -3 -12 34066.50 34816.60 306.15 o
1666 2 4 -8 -2 34066.50 34816.60 306.15 o
1666 1 1 3 12 34066.50 34816.60 306.15 o
1667 4 -3 -1 12 34162.00 19080.80 232.45 o
1667 2 -8 4 2 34162.00 19080.80 232.45 o
1667 1 3 1 -12 34162.00 19080.80 232.45 o
1668 4 -3 -3 -12 24970.20 18984.40 215.44 o
1668 2 3 -9 0 24970.20 18984.40 215.44 o
1668 1 3 3 12 24970.20 18984.40 215.44 o
1669 4 -3 -3 12 24951.90 29300.10 348.68 o
1669 2 -9 3 0 24951.90 29300.10 348.68 o
1669 1 3 3 -12 24951.90 29300.10 348.68 o
1670 4 -5 -3 -12 20092.00 19973.80 192.76 o
1670 2 2 -10 2 20092.00 19973.80 192.76 o
1670 1 5 3 12 20092.00 19973.80 192.76 o
1671 4 -3 -5 12 20120.70 24486.70 289.15 o
1671 2 -10 2 -2 20120.70 24486.70 289.15 o
1671 1 3 5 -12 20120.70 24486.70 289.15 o
1672 4 2 -4 -12 24797.40 22201.90 399.70 o
1672 2 5 -7 -6 24797.40 22201.90 399.70 o
1672 1 -2 4 12 24797.40 22201.90 399.70 o
1673 4 -4 2 12 25256.50 20682.50 413.88 o
1673 2 -7 5 6 25256.50 20682.50 413.88 o
1673 1 4 -2 -12 25256.50 20682.50 413.88 o
1674 4 0 -4 -12 33275.80 33781.90 314.66 o
1674 2 4 -8 -4 33275.80 33781.90 314.66 o
1674 1 0 4 12 33275.80 33781.90 314.66 o
1675 4 -4 0 12 33433.10 37586.20 428.05 o
1675 2 -8 4 4 33433.10 37586.20 428.05 o
1675 1 4 0 -12 33433.10 37586.20 428.05 o
1676 4 -2 -4 -12 23050.50 21924.10 223.95 o
1676 2 3 -9 -2 23050.50 21924.10 223.95 o
1676 1 2 4 12 23050.50 21924.10 223.95 o
1677 4 -4 -2 12 23135.30 29206.60 348.68 o
1677 2 -9 3 2 23135.30 29206.60 348.68 o
1677 1 4 2 -12 23135.30 29206.60 348.68 o
1678 4 -4 -4 -12 20120.80 18715.10 189.93 o
1678 2 2 -10 0 20120.80 18715.10 189.93 o
1678 1 4 4 12 20120.80 18715.10 189.93 o
1679 4 -4 -4 12 20128.30 26309.50 345.84 o
1679 2 -10 2 0 20128.30 26309.50 345.84 o
1679 1 4 4 -12 20128.30 26309.50 345.84 o
1680 4 3 -5 -12 24989.30 22479.70 623.65 o
1680 2 5 -7 -8 24989.30 22479.70 623.65 o
1680 1 -3 5 12 24989.30 22479.70 623.65 o
1681 4 -5 3 12 25375.50 21045.30 496.08 o
1681 2 -7 5 8 25375.50 21045.30 496.08 o
1681 1 5 -3 -12 25375.50 21045.30 496.08 o
1682 4 1 -5 -12 19639.50 21079.30 476.24 o
1682 2 4 -8 -6 19639.50 21079.30 476.24 o
1682 1 -1 5 12 19639.50 21079.30 476.24 o
1683 4 -5 1 12 19835.20 22791.50 394.03 o
1683 2 -8 4 6 19835.20 22791.50 394.03 o
1683 1 5 -1 -12 19835.20 22791.50 394.03 o
1684 4 -1 -5 -12 22041.80 21748.30 274.97 o
1684 2 3 -9 -4 22041.80 21748.30 274.97 o
1684 1 1 5 12 22041.80 21748.30 274.97 o
1685 4 -5 -1 12 22178.60 21785.20 328.83 o
1685 2 -9 3 4 22178.60 21785.20 328.83 o
1685 1 5 1 -12 22178.60 21785.20 328.83 o
1686 4 -3 -5 -12 20114.30 20679.60 223.95 o
1686 2 2 -10 -2 20114.30 20679.60 223.95 o
1686 1 3 5 12 20114.30 20679.60 223.95 o
1687 4 -5 -3 12 20098.40 26040.20 348.68 o
1687 2 -10 2 2 20098.40 26040.20 348.68 o
1687 1 5 3 -12 20098.40 26040.20 348.68 o
1688 4 2 -6 -12 16991.20 12881.20 479.08 o
1688 2 4 -8 -8 16991.20 12881.20 479.08 o
1688 1 -2 6 12 16991.20 12881.20 479.08 o
1689 4 -6 2 12 17117.70 14772.00 430.89 o
1689 2 -8 4 8 17117.70 14772.00 430.89 o
1689 1 6 -2 -12 17117.70 14772.00 430.89 o
1690 4 0 -6 -12 17598.90 17544.40 413.88 o
1690 2 3 -9 -6 17598.90 17544.40 413.88 o
1690 1 0 6 12 17598.90 17544.40 413.88 o
1691 4 -6 0 12 17779.90 21127.50 345.84 o
1691 2 -9 3 6 17779.90 21127.50 345.84 o
1691 1 6 0 -12 17779.90 21127.50 345.84 o
1692 4 -2 -6 -12 15327.00 11999.60 274.97 o
1692 2 2 -10 -4 15327.00 11999.60 274.97 o
1692 1 2 6 12 15327.00 11999.60 274.97 o
1693 4 -6 -2 12 15279.40 19531.50 343.01 o
1693 2 -10 2 4 15279.40 19531.50 343.01 o
1693 1 6 2 -12 15279.40 19531.50 343.01 o
1694 4 -4 3 -13 190.67 -19.84 187.10 <
1694 2 6 -7 7 190.67 -19.84 187.10 <
1694 1 4 -3 13 190.67 -19.84 187.10 <
1695 4 3 -4 13 190.67 147.41 184.26 <
1695 2 -7 6 -7 190.67 147.41 184.26 <
1695 1 -3 4 -13 190.67 147.41 184.26 <
1696 4 -3 2 -13 104.61 167.25 164.42 <
1696 2 6 -7 5 104.61 167.25 164.42 <
1696 1 3 -2 13 104.61 167.25 164.42 <
1697 4 2 -3 13 104.60 -82.21 184.26 <
1697 2 -7 6 -5 104.60 -82.21 184.26 <
1697 1 -2 3 -13 104.60 -82.21 184.26 <
1698 4 -5 2 -13 195.79 459.23 167.25 o
1698 2 5 -8 7 195.79 459.23 167.25 o
1698 1 5 -2 13 195.79 459.23 167.25 o
1699 4 2 -5 13 195.79 283.48 195.60 <
1699 2 -8 5 -7 195.79 283.48 195.60 <
1699 1 -2 5 -13 195.79 283.48 195.60 <
1700 4 -2 1 -13 247.10 65.20 153.08 <
1700 2 6 -7 3 247.10 65.20 153.08 <
1700 1 2 -1 13 247.10 65.20 153.08 <
1701 4 1 -2 13 247.09 368.52 167.25 o
1701 2 -7 6 -3 247.09 368.52 167.25 o
1701 1 -1 2 -13 247.09 368.52 167.25 o
1702 4 -4 1 -13 763.94 759.72 178.59 o
1702 2 5 -8 5 763.94 759.72 178.59 o
1702 1 4 -1 13 763.94 759.72 178.59 o
1703 4 1 -4 13 763.95 439.39 164.42 o
1703 2 -8 5 -5 763.95 439.39 164.42 o
1703 1 -1 4 -13 763.95 439.39 164.42 o
1704 4 -2 -1 -13 785.43 314.66 178.59 <
1704 2 5 -8 1 785.43 314.66 178.59 <
1704 1 2 1 13 785.43 314.66 178.59 <
1705 4 -1 -2 13 785.45 416.71 164.42 o
1705 2 -8 5 -1 785.45 416.71 164.42 o
1705 1 1 2 -13 785.45 416.71 164.42 o
1706 4 -4 -1 -13 993.67 541.44 172.92 o
1706 2 4 -9 3 993.67 541.44 172.92 o
1706 1 4 1 13 993.67 541.44 172.92 o
1707 4 -1 -4 13 993.66 399.70 150.24 o
1707 2 -9 4 -3 993.66 399.70 150.24 o
1707 1 1 4 -13 993.66 399.70 150.24 o
1708 4 1 -2 -13 247.09 439.39 232.45 <
1708 2 6 -7 -3 247.09 439.39 232.45 <
1708 1 -1 2 13 247.09 439.39 232.45 <
1709 4 -2 1 13 247.10 189.93 204.10 <
1709 2 -7 6 3 247.10 189.93 204.10 <
1709 1 2 -1 -13 247.10 189.93 204.10 <
1710 4 -1 -2 -13 785.45 453.56 204.10 o
1710 2 5 -8 -1 785.45 453.56 204.10 o
1710 1 1 2 13 785.45 453.56 204.10 o
1711 4 -2 -1 13 785.43 -19.84 172.92 <
1711 2 -8 5 1 785.43 -19.84 172.92 <
1711 1 2 1 -13 785.43 -19.84 172.92 <
1712 4 -3 -2 -13 747.23 586.80 189.93 o
1712 2 4 -9 1 747.23 586.80 189.93 o
1712 1 3 2 13 747.23 586.80 189.93 o
1713 4 -2 -3 13 747.26 487.58 155.91 o
1713 2 -9 4 -1 747.26 487.58 155.91 o
1713 1 2 3 -13 747.26 487.58 155.91 o
1714 4 -5 -2 -13 435.83 442.22 155.91 o
1714 2 3 -10 3 435.83 442.22 155.91 o
1714 1 5 2 13 435.83 442.22 155.91 o
1715 4 -2 -5 13 435.83 323.16 291.98 <
1715 2 -10 3 -3 435.83 323.16 291.98 <
1715 1 2 5 -13 435.83 323.16 291.98 <
1716 4 2 -3 -13 104.60 90.71 260.80 <
1716 2 6 -7 -5 104.60 90.71 260.80 <
1716 1 -2 3 13 104.60 90.71 260.80 <
1717 4 -3 2 13 104.61 73.70 218.28 <
1717 2 -7 6 5 104.61 73.70 218.28 <
1717 1 3 -2 -13 104.61 73.70 218.28 <
1718 4 -2 -3 -13 747.26 411.04 181.43 o
1718 2 4 -9 -1 747.26 411.04 181.43 o
1718 1 2 3 13 747.26 411.04 181.43 o
1719 4 -3 -2 13 747.23 450.73 235.29 <
1719 2 -9 4 1 747.23 450.73 235.29 <
1719 1 3 2 -13 747.23 450.73 235.29 <
1720 4 -4 -3 -13 685.93 226.78 153.08 <
1720 2 3 -10 1 685.93 226.78 153.08 <
1720 1 4 3 13 685.93 226.78 153.08 <
1721 4 -3 -4 13 685.91 581.13 263.63 o
1721 2 -10 3 -1 685.91 581.13 263.63 o
1721 1 3 4 -13 685.91 581.13 263.63 o
1722 4 3 -4 -13 190.67 87.88 377.02 <
1722 2 6 -7 -7 190.67 87.88 377.02 <
1722 1 -3 4 13 190.67 87.88 377.02 <
1723 4 -4 3 13 190.67 -14.17 343.01 <
1723 2 -7 6 7 190.67 -14.17 343.01 <
1723 1 4 -3 -13 190.67 -14.17 343.01 <
1724 4 1 -4 -13 763.95 209.77 243.79 <
1724 2 5 -8 -5 763.95 209.77 243.79 <
1724 1 -1 4 13 763.95 209.77 243.79 <
1725 4 -4 1 13 763.94 232.45 249.46 <
1725 2 -8 5 5 763.94 232.45 249.46 <
1725 1 4 -1 -13 763.94 232.45 249.46 <
1726 4 -1 -4 -13 993.66 158.75 192.76 <
1726 2 4 -9 -3 993.66 158.75 192.76 <
1726 1 1 4 13 993.66 158.75 192.76 <
1727 4 -4 -1 13 993.67 155.91 260.80 <
1727 2 -9 4 3 993.67 155.91 260.80 <
1727 1 4 1 -13 993.67 155.91 260.80 <
1728 4 -3 -4 -13 685.91 289.15 161.58 <
1728 2 3 -10 -1 685.91 289.15 161.58 <
1728 1 3 4 13 685.91 289.15 161.58 <
1729 4 -4 -3 13 685.93 377.02 252.29 <
1729 2 -10 3 1 685.93 377.02 252.29 <
1729 1 4 3 -13 685.93 377.02 252.29 <
1730 4 2 -5 -13 195.79 184.26 430.88 <
1730 2 5 -8 -7 195.79 184.26 430.88 <
1730 1 -2 5 13 195.79 184.26 430.88 <
1731 4 -5 2 13 195.79 73.70 308.99 <
1731 2 -8 5 7 195.79 73.70 308.99 <
1731 1 5 -2 -13 195.79 73.70 308.99 <
1732 4 -2 -5 -13 435.83 240.96 187.10 <
1732 2 3 -10 -3 435.83 240.96 187.10 <
1732 1 2 5 13 435.83 240.96 187.10 <
1733 4 -5 -2 13 435.83 425.21 257.96 <
1733 2 -10 3 3 435.83 425.21 257.96 <
1733 1 5 2 -13 435.83 425.21 257.96 <
1734 4 -2 2 -14 3764.55 1958.82 260.80 o
1734 2 7 -7 4 3764.55 1958.82 260.80 o
1734 1 2 -2 14 3764.55 1958.82 260.80 o
1735 4 2 -2 14 4145.75 2789.41 286.31 o
1735 2 -7 7 -4 4145.75 2789.41 286.31 o
1735 1 -2 2 -14 4145.75 2789.41 286.31 o
1736 4 -1 1 -14 1552.09 711.53 232.45 o
1736 2 7 -7 2 1552.09 711.53 232.45 o
1736 1 1 -1 14 1552.09 711.53 232.45 o
1737 4 1 -1 14 1761.20 1346.51 249.46 o
1737 2 -7 7 -2 1761.20 1346.51 249.46 o
1737 1 -1 1 -14 1761.20 1346.51 249.46 o
1738 4 -3 1 -14 3513.53 2117.57 206.94 o
1738 2 6 -8 4 3513.53 2117.57 206.94 o
1738 1 3 -1 14 3513.53 2117.57 206.94 o
1739 4 1 -3 14 3752.39 2517.27 181.43 o
1739 2 -8 6 -4 3752.39 2517.27 181.43 o
1739 1 -1 3 -14 3752.39 2517.27 181.43 o
1740 4 0 0 -14 3955.25 2191.27 266.47 o
1740 2 7 -7 0 3955.25 2191.27 266.47 o
1740 1 0 0 14 3955.25 2191.27 266.47 o
1741 4 0 0 14 3985.27 2715.71 263.63 o
1741 2 -7 7 0 3985.27 2715.71 263.63 o
1741 1 0 0 -14 3985.27 2715.71 263.63 o
1742 4 -2 0 -14 1495.91 532.94 187.10 o
1742 2 6 -8 2 1495.91 532.94 187.10 o
1742 1 2 0 14 1495.91 532.94 187.10 o
1743 4 0 -2 14 1619.20 462.07 178.59 o
1743 2 -8 6 -2 1619.20 462.07 178.59 o
1743 1 0 2 -14 1619.20 462.07 178.59 o
1744 4 -4 0 -14 4140.60 2534.28 218.28 o
1744 2 5 -9 4 4140.60 2534.28 218.28 o
1744 1 4 0 14 4140.60 2534.28 218.28 o
1745 4 0 -4 14 4385.30 3157.93 198.43 o
1745 2 -9 5 -4 4385.30 3157.93 198.43 o
1745 1 0 4 -14 4385.30 3157.93 198.43 o
1746 4 1 -1 -14 1751.87 819.25 306.15 o
1746 2 7 -7 -2 1751.87 819.25 306.15 o
1746 1 -1 1 14 1751.87 819.25 306.15 o
1747 4 -1 1 14 1561.42 1085.72 260.80 o
1747 2 -7 7 2 1561.42 1085.72 260.80 o
1747 1 1 -1 -14 1561.42 1085.72 260.80 o
1748 4 -1 -1 -14 2647.02 300.48 209.77 <
1748 2 6 -8 0 2647.02 300.48 209.77 <
1748 1 1 1 14 2647.02 300.48 209.77 <
1749 4 -1 -1 14 2656.35 754.05 181.43 o
1749 2 -8 6 0 2656.35 754.05 181.43 o
1749 1 1 1 -14 2656.35 754.05 181.43 o
1750 4 -3 -1 -14 2926.67 1573.30 209.77 o
1750 2 5 -9 2 2926.67 1573.30 209.77 o
1750 1 3 1 14 2926.67 1573.30 209.77 o
1751 4 -1 -3 14 3062.20 2123.24 198.43 o
1751 2 -9 5 -2 3062.20 2123.24 198.43 o
1751 1 1 3 -14 3062.20 2123.24 198.43 o
1752 4 2 -2 -14 4123.04 2579.64 354.35 o
1752 2 7 -7 -4 4123.04 2579.64 354.35 o
1752 1 -2 2 14 4123.04 2579.64 354.35 o
1753 4 -2 2 14 3787.27 3225.96 365.68 o
1753 2 -7 7 4 3787.27 3225.96 365.68 o
1753 1 2 -2 -14 3787.27 3225.96 365.68 o
1754 4 0 -2 -14 1625.13 586.80 238.12 o
1754 2 6 -8 -2 1625.13 586.80 238.12 o
1754 1 0 2 14 1625.13 586.80 238.12 o
1755 4 -2 0 14 1489.98 912.79 198.43 o
1755 2 -8 6 2 1489.98 912.79 198.43 o
1755 1 2 0 -14 1489.98 912.79 198.43 o
1756 4 -2 -2 -14 4404.51 1649.83 206.94 o
1756 2 5 -9 0 4404.51 1649.83 206.94 o
1756 1 2 2 14 4404.51 1649.83 206.94 o
1757 4 -2 -2 14 4427.22 1255.80 192.76 o
1757 2 -9 5 0 4427.22 1255.80 192.76 o
1757 1 2 2 -14 4427.22 1255.80 192.76 o
1758 4 1 -3 -14 3741.83 2145.92 266.47 o
1758 2 6 -8 -4 3741.83 2145.92 266.47 o
1758 1 -1 3 14 3741.83 2145.92 266.47 o
1759 4 -3 1 14 3524.08 790.90 226.78 o
1759 2 -8 6 4 3524.08 790.90 226.78 o
1759 1 3 -1 -14 3524.08 790.90 226.78 o
1760 4 -1 -3 -14 3051.65 1593.14 226.78 o
1760 2 5 -9 -2 3051.65 1593.14 226.78 o
1760 1 1 3 14 3051.65 1593.14 226.78 o
1761 4 -3 -1 14 2937.22 943.98 198.43 o
1761 2 -9 5 2 2937.22 943.98 198.43 o
1761 1 3 1 -14 2937.22 943.98 198.43 o
1762 4 0 -4 -14 4368.69 2367.03 223.95 o
1762 2 5 -9 -4 4368.69 2367.03 223.95 o
1762 1 0 4 14 4368.69 2367.03 223.95 o
1763 4 -4 0 14 4157.21 2236.63 274.97 o
1763 2 -9 5 4 4157.21 2236.63 274.97 o
1763 1 4 0 -14 4157.21 2236.63 274.97 o
1764 2 8 -7 1 43.51 85.04 218.28 <
1765 2 -7 8 -1 43.51 79.37 187.10 <
1766 2 7 -6 1 66.04 164.42 181.43 <
1767 2 -6 7 -1 66.03 -11.34 167.25 <
1768 2 6 -5 1 367.79 467.74 164.42 o
1769 2 -5 6 -1 367.72 620.81 150.24 o
1770 2 5 -4 1 90.17 300.48 127.56 o
1771 2 -4 5 -1 90.22 85.04 127.56 <
1772 2 4 -3 1 3005.25 4790.76 133.23 o
1773 2 -3 4 -1 3005.07 4671.70 144.57 o
1774 2 3 -2 1 1341.62 2520.11 141.74 o
1775 2 -2 3 -1 1341.65 2205.45 138.90 o
1776 2 2 -1 1 4826.94 7381.73 189.93 o
1777 2 -1 2 -1 4826.94 6928.17 189.93 o
1778 2 -1 2 1 4826.94 5981.36 229.62 o
1779 2 2 -1 -1 4826.95 4949.50 218.28 o
1780 2 -2 3 1 1341.63 1910.63 130.40 o
1781 2 3 -2 -1 1341.65 2398.21 144.57 o
1782 2 -3 4 1 3005.25 4277.66 153.08 o
1783 2 4 -3 -1 3005.07 5386.06 178.59 o
1784 2 -4 5 1 90.17 215.44 127.56 <
1785 2 5 -4 -1 90.22 204.10 144.57 <
1786 2 -5 6 1 367.79 504.59 147.41 o
1787 2 6 -5 -1 367.72 552.78 170.09 o
1788 2 -6 7 1 66.04 -56.70 170.09 <
1789 2 7 -6 -1 66.03 -2.83 198.43 <
1790 2 -7 8 1 43.51 229.62 192.76 <
1791 2 8 -7 -1 43.51 85.04 221.11 <
1792 2 8 -5 3 487.71 583.96 161.58 o
1793 2 -5 8 -3 487.71 521.60 153.08 o
1794 2 7 -4 3 304.12 504.59 150.24 o
1795 2 -4 7 -3 304.12 311.82 147.41 o
1796 2 6 -3 3 2309.27 3458.42 150.24 o
1797 2 -3 6 -3 2309.26 2486.09 133.23 o
1798 2 5 -2 3 5.19 121.89 110.56 <
1799 2 -2 5 -3 5.19 127.56 93.55 <
1800 2 4 -1 3 6764.79 11863.50 167.25 o
1801 2 -1 4 -3 6764.75 8994.71 161.58 o
1802 2 2 1 3 3632.23 5717.72 136.07 o
1803 2 1 2 -3 3632.23 215.44 187.10 <
1804 2 1 2 3 3632.23 3843.94 147.41 o
1805 2 2 1 -3 3632.23 3135.25 178.59 o
1806 2 -1 4 3 6764.79 1074.38 221.11 o
1807 2 4 -1 -3 6764.75 3330.85 161.58 o
1808 2 -2 5 3 5.19 -5.67 195.60 <
1809 2 5 -2 -3 5.19 17.01 158.75 <
1810 2 -3 6 3 2309.27 2885.79 184.26 o
1811 2 6 -3 -3 2309.26 2613.65 206.94 o
1812 2 -4 7 3 304.12 87.88 161.58 <
1813 2 7 -4 -3 304.12 209.77 192.76 <
1814 2 -5 8 3 487.71 192.76 192.76 <
1815 2 8 -5 -3 487.71 -34.02 215.44 <
1816 2 9 -4 5 390.36 -306.15 158.75 <
1817 2 -4 9 -5 390.36 73.70 172.92 <
1818 2 8 -3 5 870.07 1125.40 144.57 o
1819 2 -3 8 -5 870.06 654.83 150.24 o
1820 2 7 -2 5 148.80 306.15 147.41 o
1821 2 -2 7 -5 148.80 99.22 138.90 <
1822 2 6 -1 5 3251.80 4717.05 144.57 o
1823 2 -1 6 -5 3251.74 3639.84 240.96 o
1824 2 4 1 5 4354.31 7021.72 119.06 o
1825 2 1 4 -5 4354.35 5184.79 240.96 o
1826 2 3 2 5 669.38 1165.09 107.72 o
1827 2 2 3 -5 669.38 1125.40 226.78 o
1828 2 2 3 5 669.38 1029.02 133.23 o
1829 2 3 2 -5 669.38 975.16 172.92 o
1830 2 1 4 5 4354.31 4563.97 150.24 o
1831 2 4 1 -5 4354.35 3566.14 206.94 o
1832 2 -1 6 5 3251.80 1071.54 226.78 o
1833 2 6 -1 -5 3251.74 1851.10 269.30 o
1834 2 -2 7 5 148.80 221.11 218.28 <
1835 2 7 -2 -5 148.80 53.86 249.46 <
1836 2 -3 8 5 870.07 612.31 257.96 o
1837 2 8 -3 -5 870.06 243.79 255.13 <
1838 2 -4 9 5 390.36 138.90 238.12 <
1839 2 9 -4 -5 390.36 155.91 263.63 <
1840 2 9 -2 7 108.31 243.79 155.91 <
1841 2 -2 9 -7 108.32 561.28 323.16 <
1842 2 8 -1 7 720.61 615.14 133.23 o
1843 2 -1 8 -7 720.61 357.18 294.82 <
1844 2 6 1 7 1799.68 2188.44 121.89 o
1845 2 1 6 -7 1799.66 1360.69 189.93 o
1846 2 5 2 7 4.54 48.19 102.05 <
1847 2 2 5 -7 4.55 -119.06 243.79 <
1848 2 4 3 7 864.88 1111.23 110.56 o
1849 2 3 4 -7 864.89 969.49 257.96 o
1850 2 3 4 7 864.88 1029.02 153.08 o
1851 2 4 3 -7 864.89 861.77 195.60 o
1852 2 2 5 7 4.54 161.58 144.57 <
1853 2 5 2 -7 4.55 -14.17 204.10 <
1854 2 1 6 7 1799.68 1780.23 229.62 o
1855 2 6 1 -7 1799.66 1389.04 232.45 o
1856 2 -1 8 7 720.61 527.27 249.46 o
1857 2 8 -1 -7 720.61 130.40 334.50 <
1858 2 -2 9 7 108.31 240.96 260.80 <
1859 2 9 -2 -7 108.32 328.83 331.67 <
1860 2 8 1 9 345.59 374.19 130.40 o
1861 2 1 8 -9 345.59 93.55 300.48 <
1862 2 7 2 9 40.28 34.02 133.23 <
1863 2 2 7 -9 40.28 -121.89 286.31 <
1864 2 6 3 9 404.64 362.85 144.57 o
1865 2 3 6 -9 404.64 -405.37 294.82 <
1866 2 5 4 9 17.08 2.83 121.89 <
1867 2 4 5 -9 17.08 25.51 317.49 <
1868 2 4 5 9 17.08 119.06 130.40 <
1869 2 5 4 -9 17.08 201.27 294.82 <
1870 2 3 6 9 404.64 592.47 150.24 o
1871 2 6 3 -9 404.64 362.85 204.10 <
1872 2 2 7 9 40.28 252.29 192.76 <
1873 2 7 2 -9 40.28 -87.88 240.96 <
1874 2 1 8 9 345.59 116.22 266.47 <
1875 2 8 1 -9 345.59 150.24 303.32 <
loop_
_jana_atom_site_adp_c_label
_jana_atom_site_adp_c_type_symbol
_jana_atom_site_adp_c_111
_jana_atom_site_adp_c_112
_jana_atom_site_adp_c_113
_jana_atom_site_adp_c_122
_jana_atom_site_adp_c_123
_jana_atom_site_adp_c_133
_jana_atom_site_adp_c_222
_jana_atom_site_adp_c_223
_jana_atom_site_adp_c_233
_jana_atom_site_adp_c_333
? ? ? ? ? ? ? ? ? ? ? ?
loop_
_jana_atom_site_adp_d_label
_jana_atom_site_adp_d_type_symbol
_jana_atom_site_adp_d_1111
_jana_atom_site_adp_d_1112
_jana_atom_site_adp_d_1113
_jana_atom_site_adp_d_1122
_jana_atom_site_adp_d_1123
_jana_atom_site_adp_d_1133
_jana_atom_site_adp_d_1222
_jana_atom_site_adp_d_1223
_jana_atom_site_adp_d_1233
_jana_atom_site_adp_d_1333
_jana_atom_site_adp_d_2222
_jana_atom_site_adp_d_2223
_jana_atom_site_adp_d_2233
_jana_atom_site_adp_d_2333
_jana_atom_site_adp_d_3333
? ? ? ? ? ? ? ? ? ? ? ? ? ? ? ? ?
loop_
_jana_atom_site_adp_e_label
_jana_atom_site_adp_e_type_symbol
_jana_atom_site_adp_e_11111
_jana_atom_site_adp_e_11112
_jana_atom_site_adp_e_11113
_jana_atom_site_adp_e_11122
_jana_atom_site_adp_e_11123
_jana_atom_site_adp_e_11133
_jana_atom_site_adp_e_11222
_jana_atom_site_adp_e_11223
_jana_atom_site_adp_e_11233
_jana_atom_site_adp_e_11333
_jana_atom_site_adp_e_12222
_jana_atom_site_adp_e_12223
_jana_atom_site_adp_e_12233
_jana_atom_site_adp_e_12333
_jana_atom_site_adp_e_13333
_jana_atom_site_adp_e_22222
_jana_atom_site_adp_e_22223
_jana_atom_site_adp_e_22233
_jana_atom_site_adp_e_22333
_jana_atom_site_adp_e_23333
_jana_atom_site_adp_e_33333
? ? ? ? ? ? ? ? ? ? ? ? ? ? ? ? ? ? ? ? ? ? ?
loop_
_jana_atom_site_adp_f_label
_jana_atom_site_adp_f_type_symbol
_jana_atom_site_adp_f_111111
_jana_atom_site_adp_f_111112
_jana_atom_site_adp_f_111113
_jana_atom_site_adp_f_111122
_jana_atom_site_adp_f_111123
_jana_atom_site_adp_f_111133
_jana_atom_site_adp_f_111222
_jana_atom_site_adp_f_111223
_jana_atom_site_adp_f_111233
_jana_atom_site_adp_f_111333
_jana_atom_site_adp_f_112222
_jana_atom_site_adp_f_112223
_jana_atom_site_adp_f_112233
_jana_atom_site_adp_f_112333
_jana_atom_site_adp_f_113333
_jana_atom_site_adp_f_122222
_jana_atom_site_adp_f_122223
_jana_atom_site_adp_f_122233
_jana_atom_site_adp_f_122333
_jana_atom_site_adp_f_123333
_jana_atom_site_adp_f_133333
_jana_atom_site_adp_f_222222
_jana_atom_site_adp_f_222223
_jana_atom_site_adp_f_222233
_jana_atom_site_adp_f_222333
_jana_atom_site_adp_f_223333
_jana_atom_site_adp_f_233333
_jana_atom_site_adp_f_333333
? ? ? ? ? ? ? ? ? ? ? ? ? ? ? ? ? ? ? ? ? ? ? ? ? ? ? ? ? ?
