#------------------------------------------------------------------------------
#$Date: 2020-10-03 00:23:57 +0300 (Sat, 03 Oct 2020) $
#$Revision: 256946 $
#$URL: file:///home/coder/svn-repositories/cod/cif/4/51/81/4518110.cif $
#------------------------------------------------------------------------------
#
# This file is available in the Crystallography Open Database (COD),
# http://www.crystallography.net/
#
# All data on this site have been placed in the public domain by the
# contributors.
#
data_4518110
loop_
_publ_author_name
'Wagener, Tobias'
'Heusler, Arne'
'Nairoukh, Zackaria'
'Bergander, Klaus'
'Daniliuc, Constantin G.'
'Glorius, Frank'
_publ_section_title
;
 Accessing (Multi)Fluorinated Piperidines Using Heterogeneous
 Hydrogenation
;
_journal_name_full               'ACS Catalysis'
_journal_page_first              12052
_journal_page_last               12057
_journal_paper_doi               10.1021/acscatal.0c03278
_journal_year                    2020
_chemical_formula_sum            'C5 H8 F N O'
_chemical_formula_weight         117.12
_space_group_crystal_system      monoclinic
_space_group_IT_number           14
_space_group_name_Hall           '-P 2ybc'
_space_group_name_H-M_alt        'P 1 21/c 1'
_atom_sites_solution_hydrogens   mixed
_audit_creation_method           'APEX3 v2016.1-0'
_cell_angle_alpha                90
_cell_angle_beta                 93.296(5)
_cell_angle_gamma                90
_cell_formula_units_Z            4
_cell_length_a                   6.8234(8)
_cell_length_b                   7.0364(7)
_cell_length_c                   11.2928(13)
_cell_measurement_reflns_used    2457
_cell_measurement_temperature    100.(2)
_cell_measurement_theta_max      66.5191
_cell_measurement_theta_min      6.4972
_cell_volume                     541.29(10)
_computing_cell_refinement       'SAINT V8.37A (Bruker AXS Inc., 2015)'
_computing_data_collection       'APEX3 v2016.1-0 (Bruker AXS Inc., 2016)'
_computing_data_reduction        'SAINT V8.37A (Bruker AXS Inc., 2015)'
_computing_molecular_graphics    'APEX3 v2016.1-0 (Bruker AXS Inc., 2016)'
_computing_publication_material  'APEX3 v2016.1-0 (Bruker AXS Inc., 2016)'
_computing_structure_refinement  'SHELXL-2014/7 (Sheldrick, 2014)'
_computing_structure_solution    'SHELXL-2014/7 (Sheldrick, 2014)'
_diffrn_ambient_temperature      100.(2)
_diffrn_detector_area_resol_mean 8.3333
_diffrn_measured_fraction_theta_full 0.999
_diffrn_measured_fraction_theta_max 0.999
_diffrn_measurement_device_type  'Kappa CCD APEXII'
_diffrn_measurement_method       'phi / omega scans'
_diffrn_radiation_monochromator  graphite
_diffrn_radiation_type           CuK\a
_diffrn_radiation_wavelength     1.54178
_diffrn_reflns_av_R_equivalents  0.0444
_diffrn_reflns_av_unetI/netI     0.0233
_diffrn_reflns_limit_h_max       8
_diffrn_reflns_limit_h_min       -7
_diffrn_reflns_limit_k_max       8
_diffrn_reflns_limit_k_min       -8
_diffrn_reflns_limit_l_max       13
_diffrn_reflns_limit_l_min       -13
_diffrn_reflns_number            7570
_diffrn_reflns_theta_full        66.55
_diffrn_reflns_theta_max         66.55
_diffrn_reflns_theta_min         6.50
_diffrn_source                   'fine-focus sealed tube'
_diffrn_source_type              'fine-focus sealed tube'
_exptl_absorpt_coefficient_mu    1.057
_exptl_absorpt_correction_T_max  0.96
_exptl_absorpt_correction_T_min  0.84
_exptl_absorpt_correction_type   multi-scan
_exptl_absorpt_process_details
;
Bruker AXS (2014). SADABS, Version 2014/5, Bruker AXS Inc., Madison, Wisconsin,
USA.
;
_exptl_crystal_colour            colourless
_exptl_crystal_density_diffrn    1.437
_exptl_crystal_density_method    'not measured'
_exptl_crystal_description       needle
_exptl_crystal_F_000             248
_exptl_crystal_size_max          0.120
_exptl_crystal_size_mid          0.080
_exptl_crystal_size_min          0.040
_refine_diff_density_max         0.202
_refine_diff_density_min         -0.215
_refine_ls_extinction_method     none
_refine_ls_goodness_of_fit_ref   1.121
_refine_ls_hydrogen_treatment    mixed
_refine_ls_matrix_type           full
_refine_ls_number_parameters     77
_refine_ls_number_reflns         956
_refine_ls_number_restraints     0
_refine_ls_restrained_S_all      1.121
_refine_ls_R_factor_all          0.0435
_refine_ls_R_factor_gt           0.0362
_refine_ls_shift/su_max          0.000
_refine_ls_shift/su_mean         0.000
_refine_ls_structure_factor_coef Fsqd
_refine_ls_weighting_details
'w=1/[\s^2^(Fo^2^)+(0.0332P)^2^+0.3467P] where P=(Fo^2^+2Fc^2^)/3'
_refine_ls_weighting_scheme      calc
_refine_ls_wR_factor_gt          0.0840
_refine_ls_wR_factor_ref         0.0891
_reflns_number_gt                833
_reflns_number_total             956
_reflns_threshold_expression     'I > 2\s(I)'
_cod_data_source_file            cs0c03278_si_002.cif
_cod_data_source_block           glo9673
_cod_database_code               4518110
_shelx_res_file
;


    glo9673.res created by SHELXL-2014/7


TITL glo9673.res in P2(1)/c
CELL  1.54178   6.8234   7.0364  11.2928   90.000   93.296   90.000
ZERR    4.000   0.0008   0.0007   0.0013    0.000    0.005    0.000
LATT 1
SYMM -X, 1/2+Y, 1/2-Z
SFAC C  H  N  O  F
UNIT 20  32  4  4  4
SIZE 0.12 0.08 0.04
TEMP -173.16
ACTA
CONF

OMIT    -2   8   1

L.S. 30
BOND $H
FMAP 2
PLAN 10
HTAB
EQIV $1 -x+1, -y, -z+1
HTAB N1 O1_$1
WGHT    0.033200    0.346700
FVAR       1.44616
F1    5    0.139085    0.274262    0.790827    11.00000    0.02736    0.02774 =
         0.01670    0.00025    0.00401   -0.00448
N1    3    0.314278    0.150229    0.562656    11.00000    0.01348    0.01733 =
         0.01893   -0.00534    0.00197    0.00118
H1    2    0.333711    0.049654    0.517883    11.00000    0.01862
O1    4    0.641097    0.198833    0.565514    11.00000    0.01220    0.01982 =
         0.02513   -0.00276    0.00305    0.00136
C2    1    0.475798    0.250980    0.593169    11.00000    0.01425    0.01703 =
         0.01417    0.00241    0.00049    0.00038
C3    1    0.453010    0.428188    0.666002    11.00000    0.01536    0.01727 =
         0.02163   -0.00143    0.00224   -0.00124
AFIX  23
H3A   2    0.544384    0.526154    0.638825    11.00000   -1.20000
H3B   2    0.491756    0.399025    0.749865    11.00000   -1.20000
AFIX   0
C4    1    0.245567    0.510254    0.659486    11.00000    0.01694    0.01562 =
         0.02323   -0.00155    0.00396    0.00240
AFIX  23
H4A   2    0.234444    0.607869    0.721876    11.00000   -1.20000
H4B   2    0.217897    0.571695    0.581445    11.00000   -1.20000
AFIX   0
C5    1    0.098698    0.354171    0.676380    11.00000    0.01421    0.01955 =
         0.01719   -0.00133    0.00188    0.00287
AFIX  13
H5    2   -0.036832    0.408773    0.671462    11.00000   -1.20000
AFIX   0
C6    1    0.111963    0.199193    0.585644    11.00000    0.01212    0.02129 =
         0.01841   -0.00150    0.00213    0.00026
AFIX  23
H6A   2    0.044501    0.084505    0.613677    11.00000   -1.20000
H6B   2    0.042781    0.240543    0.510577    11.00000   -1.20000
AFIX   0
HKLF 4

REM  glo9673.res in P2(1)/c
REM R1 =  0.0362 for     833 Fo > 4sig(Fo)  and  0.0435 for all     956 data
REM     77 parameters refined using      0 restraints

END

WGHT      0.0320      0.3527

REM Instructions for potential hydrogen bonds
HTAB N1 O1_$1
EQIV $2 -x+1, y+1/2, -z+3/2
HTAB C4 O1_$2
EQIV $3 -x+1, -y+1, -z+1
HTAB C4 O1_$3
EQIV $4 x, -y+1/2, z-1/2
HTAB C6 F1_$4

REM Highest difference peak  0.202,  deepest hole -0.215,  1-sigma level  0.049
Q1    1   0.3575  0.4749  0.6635  11.00000  0.05    0.20
Q2    1   0.2910  0.1804  0.7849  11.00000  0.05    0.18
Q3    1   0.6086  0.5293  0.6720  11.00000  0.05    0.17
Q4    1   0.4596  0.3354  0.6345  11.00000  0.05    0.16
Q5    1  -0.0297  0.3725  0.7042  11.00000  0.05    0.15
Q6    1   0.1218  0.2683  0.6360  11.00000  0.05    0.15
Q7    1  -0.0824  0.3449  0.6850  11.00000  0.05    0.15
Q8    1   0.2361  0.1509  0.5926  11.00000  0.05    0.14
Q9    1   0.1759  0.3665  0.8724  11.00000  0.05    0.14
Q10   1   0.0061  0.2123  0.8378  11.00000  0.05    0.14
;
_shelx_res_checksum              62476
_shelx_hkl_file
;
   1   0   0  342.17   10.80
   1   0   0  330.97   10.10
  -1   0   0  338.97   10.80
  -1   0   0  324.07   11.80
  -2   0   0    3.10    3.90
  -2   0   0    8.50    3.50
   2   0   0    2.50    3.20
   2   0   0    8.60    3.80
  -3   0   0  432.46   22.70
  -3   0   0  506.35   19.90
  -4   0   0 1048.30   37.00
   5   0   0 1564.54   55.19
   5   0   0 1559.14   47.70
   5   0   0 1585.34   61.49
   5   0   0 1548.95   59.49
   5   0   0 1559.14   47.70
  -5   0   0 1612.34   54.09
   6   0   0   49.20    9.50
   6   0   0   49.20    9.50
   6   0   0   46.20   11.50
   6   0   0   44.70   13.90
   6   0   0   46.70   13.70
   7   0   0   14.00   12.60
   7   0   0   10.60    7.80
   7   0   0   10.80    5.60
   7   0   0   10.80    5.60
   8   0   0  187.88   14.80
   0  -1   0   -3.80    2.10
   0  -1   0   -3.10    2.10
   0  -1   0   -2.80    1.90
   0  -1   0   -5.20    3.00
   0   1   0   -4.70    2.20
   0   1   0   -3.90    2.90
   0   1   0   -8.20    1.00
  -1  -1   0 3663.03  100.59
  -1  -1   0 4246.98   96.89
  -1  -1   0 4006.30   97.19
   1  -1   0 3999.00  100.19
  -1  -1   0 4106.29   98.69
   1  -1   0 3849.81  100.29
   1  -1   0 4303.77  104.59
   1   1   0 4109.19  100.99
  -1   1   0 3954.30  100.19
  -1   1   0 4025.50  103.49
  -1   1   0 4029.00  100.29
  -2  -1   0 6043.40  149.49
  -2  -1   0 5938.91  149.59
   2  -1   0 6522.65  154.28
  -2  -1   0 6275.17  152.88
   2  -1   0 6142.29  158.38
   2   1   0 5777.42  147.89
  -2   1   0 6413.16  159.28
  -2   1   0 6370.26  154.08
   3  -1   0 1910.31   57.49
   3  -1   0 1980.80   61.89
  -3  -1   0 1898.41   59.09
  -3   1   0 2071.99   58.69
  -3   1   0 1947.51   63.99
  -4  -1   0    5.80    4.30
   4  -1   0    3.20    5.30
  -4   1   0    0.60    7.60
  -4   1   0   14.80    6.70
  -4   1   0    3.00    6.00
   5  -1   0    4.20    6.80
   5  -1   0    5.40    9.30
   5  -1   0    8.20    7.50
   5  -1   0    6.20    6.50
   5   1   0   13.90    6.20
   5   1   0   13.90    6.20
   5   1   0    9.00    8.10
  -5   1   0   13.80    6.80
  -5   1   0    2.50    6.50
   5   1   0   -5.20    7.00
  -5   1   0    5.60    5.30
   5   1   0    6.10    9.90
   6  -1   0 2248.88   72.79
   6  -1   0 2348.57   67.49
   6  -1   0 2234.28   74.79
   6  -1   0 2249.57   81.59
   6  -1   0 2307.77   82.39
   6  -1   0 2348.57   67.49
   6   1   0 2148.58   78.89
  -6   1   0 2204.78   72.19
   6   1   0 2191.48   81.99
   6   1   0 2262.37   76.19
   7  -1   0   34.10   14.30
   7  -1   0   14.30    6.50
   7  -1   0   14.30    6.50
   7  -1   0   20.50    8.50
   7   1   0    2.30    9.90
  -7   1   0   14.80    9.30
   7   1   0   11.00    8.30
   8  -1   0   -2.30    4.50
   8   1   0   14.90    5.80
   0  -2   0 5914.01  153.98
   0  -2   0 6439.16  158.88
   0  -2   0 6234.38  154.18
   0  -2   0 6366.26  153.78
   0   2   0 6299.17  153.58
   0   2   0 6071.89  152.88
   0   2   0 6496.15  156.58
   1  -2   0  300.67   15.80
  -1  -2   0  344.07   13.20
   1  -2   0  319.27   15.50
  -1  -2   0  356.86   15.80
   1  -2   0  346.87   20.50
  -1  -2   0  352.06   13.20
   1   2   0  331.87   12.30
  -1   2   0  334.77   18.30
   1   2   0  384.36   17.80
  -1   2   0  362.76   16.50
  -1   2   0  330.87   15.40
   2  -2   0  277.07   15.40
  -2  -2   0  266.57   13.70
   2  -2   0  271.67   15.30
  -2  -2   0  275.87   11.70
   2  -2   0  253.27   19.70
  -2   2   0  278.97   15.60
  -2   2   0  241.38   19.50
  -2   2   0  240.48   15.40
   3  -2   0  129.69   16.60
   3  -2   0  119.49   13.50
  -3   2   0  153.98   14.10
  -3   2   0  146.29   18.40
  -3   2   0  138.59   14.50
   4  -2   0 2471.35   81.99
   4  -2   0 2436.06   77.59
   4  -2   0 2398.46   72.99
  -4   2   0 2422.46   77.69
  -4   2   0 2515.95   88.19
  -4   2   0 2347.77   75.89
  -4   2   0 2586.14   77.19
   4   2   0 2278.47   77.09
   5  -2   0  471.95   26.20
   5  -2   0  493.85   30.20
   5  -2   0  507.45   31.00
   5  -2   0  511.55   28.40
   5   2   0  523.45   27.70
   5   2   0  506.85   31.60
   5   2   0  508.05   31.90
  -5   2   0  540.45   27.00
   6  -2   0  458.95   23.70
   6  -2   0  455.35   27.80
   6  -2   0  458.95   23.70
   6  -2   0  479.25   33.20
   6  -2   0  468.05   26.80
   6   2   0  444.76   33.20
  -6   2   0  451.05   27.20
   6   2   0  451.55   28.50
   7  -2   0    2.40    5.00
   7  -2   0    9.80   11.90
   7  -2   0    2.40    5.00
   7  -2   0   -3.40    5.70
   7  -2   0    1.10    8.40
   7   2   0    3.50    7.10
  -7   2   0   -1.30    8.20
   0  -3   0    3.60    6.90
   0  -3   0    3.60    4.70
   0  -3   0   -1.10    5.00
   0   3   0    6.30    4.70
   0   3   0   -5.10    3.70
   1  -3   0  100.79   11.30
  -1  -3   0   85.69   11.00
   1  -3   0  101.79   15.00
   1  -3   0   96.59   11.00
  -1   3   0  108.89   11.50
   1   3   0  117.99   13.70
  -1   3   0  110.59   12.80
   2  -3   0 3145.59   96.69
   2  -3   0 3049.79   87.29
   2   3   0 3024.60   89.39
  -2   3   0 2936.31   86.89
   3  -3   0   -0.40    4.30
   3  -3   0   -5.70    5.00
  -3   3   0    8.10    7.10
  -3   3   0  -12.40    5.20
   4  -3   0  152.58   16.10
   4  -3   0  115.59   19.00
   4  -3   0  152.58   18.50
  -4   3   0  136.59   21.40
   4   3   0  134.69   16.30
   4   3   0  125.99   17.80
  -4   3   0  119.89   16.40
  -4   3   0  151.68   16.10
   5  -3   0   12.10   10.60
   5  -3   0   14.70    7.70
  -5   3   0   14.60    9.30
   5   3   0   15.50   11.00
   6  -3   0  144.49   16.90
   6  -3   0  119.79   17.60
   6  -3   0  117.79   13.20
   6  -3   0  117.79   13.20
  -6   3   0  103.19   13.80
   7  -3   0   48.60   11.50
   7  -3   0   48.70    7.60
   7  -3   0   48.70    7.60
   7  -3   0   20.30    6.40
  -7   3   0   35.00    7.50
  -7   3   0   54.69   10.30
   0  -4   0  761.02   32.20
   0  -4   0  727.53   38.30
   0   4   0  790.92   36.10
   1  -4   0    2.20    6.50
   1  -4   0    8.40    5.60
   1  -4   0   11.30    5.60
  -1   4   0    6.30    7.40
  -1   4   0   -2.40    4.00
   1   4   0    4.70    5.40
   2  -4   0   10.40    7.30
   2  -4   0   -0.10    5.60
   2  -4   0   -0.10    5.60
   2  -4   0    6.80    9.40
  -2   4   0   -4.30    7.00
   2   4   0   -3.90    9.70
  -2   4   0  -12.10    3.40
   3  -4   0  668.43   42.20
   3  -4   0  667.93   34.70
   3  -4   0  642.64   26.80
   3  -4   0  642.64   26.80
   3  -4   0  676.43   31.20
   3  -4   0  687.63   30.70
  -3   4   0  678.23   30.60
  -3   4   0  618.74   29.50
   3   4   0  678.93   31.70
  -3   4   0  612.54   25.30
  -3   4   0  676.73   35.00
  -3   4   0  612.54   25.30
   4  -4   0    0.60    6.30
   4  -4   0    0.60    6.30
   4  -4   0   -1.50    9.20
   4  -4   0    8.60    6.60
   4   4   0    2.90    6.50
  -4   4   0   -1.00    7.40
  -4   4   0   -1.00    7.40
  -4   4   0    4.60    7.30
   4   4   0   -3.80    7.40
  -4   4   0    1.60    5.80
   5  -4   0   19.70    9.10
   5  -4   0   15.40    9.80
  -5   4   0   20.90    8.50
  -5   4   0   22.50    7.90
   6  -4   0    5.40    7.40
   6  -4   0    5.40    7.40
   6  -4   0   10.50    7.50
   6  -4   0    7.50    7.70
  -6   4   0    9.90    6.30
  -6   4   0   -2.20    8.80
   7  -4   0    1.90    3.60
   7  -4   0   -1.80    5.10
   7  -4   0    1.90    3.60
  -7   4   0    0.40    5.70
   0  -5   0   -3.70   10.70
   0  -5   0   -0.30    6.80
   0   5   0   -8.70    7.30
   0   5   0   -4.10    5.00
   0   5   0   -4.10    5.00
   1  -5   0   29.70    9.40
   1  -5   0   43.50   15.30
   1  -5   0   31.70    6.80
  -1  -5   0   28.00    8.10
   1  -5   0   31.70    6.80
   1   5   0   32.50    9.70
   1   5   0   29.70    6.70
   1   5   0   29.70    6.70
  -1   5   0   29.60    7.00
  -1   5   0   38.20   10.50
   1   5   0   36.80   11.20
  -1   5   0   29.60    7.00
   2  -5   0    4.10    6.20
   2  -5   0    4.10    6.20
   2  -5   0   13.40    8.20
   2  -5   0   -0.30    8.00
  -2   5   0    2.30    6.10
   2   5   0    3.80    6.70
   2   5   0   15.40    7.10
  -2   5   0    2.30    6.10
   3  -5   0  204.78   14.90
   3  -5   0  204.78   14.90
   3  -5   0  179.98   17.70
   3  -5   0  205.38   19.60
  -3   5   0  204.48   16.30
  -3   5   0  195.48   18.80
   3   5   0  164.68   18.10
  -3   5   0  204.48   16.30
   4  -5   0  683.73   33.60
   4  -5   0  687.03   29.90
   4  -5   0  711.63   33.70
   4  -5   0  687.03   29.90
  -4   5   0  732.73   34.60
  -4   5   0  742.43   30.00
  -4   5   0  742.43   30.00
   5  -5   0   17.00   10.60
  -5   5   0   22.30    7.60
  -5   5   0   22.30    7.60
  -5   5   0   17.50    8.50
   6  -5   0   20.60    6.50
   6  -5   0   20.60    6.50
   6  -5   0   23.80    7.70
  -6   5   0   37.00    8.90
   0  -6   0    5.20    8.50
   0  -6   0   14.90    5.90
   0  -6   0   14.90    5.90
   0   6   0   -1.10    5.90
   0   6   0   13.90   10.80
   0   6   0   -1.10    5.90
  -1  -6   0   94.49   10.80
  -1  -6   0   91.89   13.80
   1  -6   0   97.19   11.90
   1  -6   0   96.29   14.10
  -1  -6   0   94.49   10.80
   1  -6   0   97.19   11.90
   1   6   0   75.49    8.70
  -1   6   0  103.79   10.80
   1   6   0   75.49    8.70
   1   6   0  105.29   16.20
  -1   6   0  103.79   10.80
   2  -6   0  563.64   26.80
   2  -6   0  569.84   30.80
   2  -6   0  563.64   26.80
  -2   6   0  517.55   24.90
   2   6   0  530.05   33.20
  -2   6   0  517.55   24.90
   2   6   0  546.05   30.10
   3  -6   0  546.75   29.00
   3  -6   0  540.65   26.60
   3  -6   0  537.05   30.10
   3  -6   0  540.65   26.60
  -3   6   0  598.14   26.30
   3   6   0  569.04   29.50
  -3   6   0  598.14   26.30
   4  -6   0   52.39    9.20
   4  -6   0   42.50   10.10
   4  -6   0   52.39    9.20
   4  -6   0   64.59   11.20
  -4   6   0   15.10    9.30
  -4   6   0   40.70   10.40
  -4   6   0   40.70   10.40
   5  -6   0   25.20    7.90
  -5   6   0   10.40    6.40
  -5   6   0   10.40    6.40
  -5   6   0   22.50    7.80
   0  -7   0    5.80    5.60
   0  -7   0    5.80    5.60
   0  -7   0    2.10    8.50
   0   7   0   -7.10    5.50
   0   7   0   -7.10    5.50
   1  -7   0   45.40    9.80
  -1  -7   0   29.90    8.20
  -1  -7   0   29.90    8.20
   1  -7   0   34.60   10.80
   1  -7   0   52.29    9.20
   1  -7   0   52.29    9.20
  -1   7   0   57.39    8.70
  -1   7   0   57.39    8.70
   2  -7   0   28.40    7.40
   2  -7   0   26.60    9.20
   2  -7   0   21.10    9.90
   2  -7   0   26.60    9.20
  -2   7   0   44.60    9.30
  -2   7   0   44.60    9.30
  -3  -7   0   -0.20    5.40
   3  -7   0   -0.80    7.70
   3  -7   0   -0.80    7.70
   3  -7   0   -9.10    5.50
  -3   7   0  -14.50    7.50
  -3   7   0  -14.50    7.50
   4  -7   0   58.69    8.00
   4  -7   0   58.69    8.00
  -4   7   0   47.70    8.90
  -4   7   0   47.70    8.90
   0  -8   0    8.80    6.00
   0  -8   0    0.10    5.90
   0  -8   0    0.10    5.90
   1  -8   0    5.80    5.30
   1  -8   0    5.80    5.30
   1  -8   0    7.30    5.60
  -1  -8   0   -2.50    7.60
  -1   8   0    8.00    4.80
  -1   8   0    8.00    4.80
  -2  -8   0   30.50    7.10
   2  -8   0   19.30    5.80
   2  -8   0   19.30    5.80
  -2   8   0   24.60    4.90
  -2   8   0   24.60    4.90
   8   0  -1    0.10    5.00
   7   0  -1   -5.30    7.30
   7   0  -1   -5.30    7.30
   7   0  -1    3.70   12.00
   7   0  -1    1.70    9.50
  -7   0   1   -1.10    8.50
   6   0  -1   -9.80    8.30
   6   0  -1    4.70    6.70
   6   0  -1    7.80   11.80
   6   0  -1    4.70    6.70
  -6   0   1   -5.30    7.80
   6   0  -1   -6.10    9.60
   5   0  -1    6.30    9.50
   5   0  -1   -2.10    4.90
  -5   0   1    1.80    6.90
   5   0  -1   -2.10    4.90
   5   0  -1    0.00    6.70
   5   0  -1    1.00    6.00
  -5   0   1   -4.20    5.70
  -4   0   1    4.90    7.90
  -4   0   1   -0.60    5.20
   3   0  -1    1.20    4.00
   3   0  -1    0.40    4.60
  -3   0   1    1.10    5.70
  -2   0   1   -0.30    4.60
   2   0  -1    4.20    2.70
  -2   0   1   -2.10    3.20
   2   0  -1   -0.20    1.90
  -1   0   1   -0.70    3.20
   1   0  -1    1.20    1.50
   1   0  -1   -3.00    2.30
  -1   0   1    1.40    1.60
   0   0   1    1.20    1.30
   0   0  -1    0.40    0.80
   0   0  -1    1.30    1.00
   1   0   1    5.10    1.60
   1   0   1   -1.00    1.40
  -1   0  -1    1.00    2.10
  -1   0  -1    2.30    1.80
  -1   0  -1   -1.40    2.30
  -2   0  -1   -2.20    2.20
   2   0   1    1.50    2.50
   2   0   1    1.70    2.10
  -2   0  -1    1.90    3.00
   2   0   1    0.20    1.00
  -2   0  -1    6.00    3.80
  -3   0  -1    0.70    5.20
  -3   0  -1   -2.70    3.70
  -4   0  -1    5.00    4.30
   5   0   1    5.10    9.80
  -5   0  -1    0.10    5.90
   5   0   1   -4.80    6.40
  -5   0  -1    0.60    5.30
   5   0   1   -1.70    4.90
   5   0   1    0.30    8.00
   5   0   1   -1.70    4.90
   6   0   1    6.10    6.90
   6   0   1    6.00    9.20
   6   0   1    0.60    9.80
   6   0   1    6.10    6.90
   7   0   1   -7.00    4.30
   7   0   1   -7.00    4.30
   7   0   1    1.40   11.80
   7   0   1    2.80    6.60
   8   0   1   -2.00    4.60
   8  -1  -1   34.10    9.20
   8  -1  -1   16.80    6.20
   8   1  -1    6.10    5.20
   7  -1  -1   30.30   11.10
   7  -1  -1   23.60    7.30
   7  -1  -1   23.60    7.30
   7  -1  -1   34.30   11.80
   7   1  -1   31.70   13.80
   7   1  -1   41.10   15.40
  -7   1   1   17.10   10.10
   7   1  -1   42.10   10.90
   6  -1  -1  327.67   18.80
   6  -1  -1  327.67   18.80
   6  -1  -1  347.47   28.70
   6  -1  -1  353.76   23.80
   6  -1  -1  328.07   26.80
  -6   1   1  316.37   23.00
   6   1  -1  341.87   27.30
   6   1  -1  351.96   28.40
   6   1  -1  362.86   24.50
   5  -1  -1  399.66   24.20
   5  -1  -1  352.46   22.80
   5  -1  -1  331.97   26.30
   5  -1  -1  354.36   26.50
  -5   1   1  352.96   24.70
   5   1  -1  346.97   27.40
   5   1  -1  340.47   23.70
   5   1  -1  372.06   23.90
  -5   1   1  375.96   24.70
   5   1  -1  392.46   25.90
  -5   1   1  358.46   21.40
   4  -1  -1   25.20    9.00
  -4   1   1   36.70    8.10
  -4   1   1   38.30   11.00
   3  -1  -1  706.03   27.50
   3  -1  -1  676.53   31.00
  -3  -1   1  743.33   30.90
  -3   1   1  647.94   31.80
  -3   1   1  760.22   28.70
  -2  -1   1  267.17   12.10
   2  -1  -1  265.07   14.00
   2  -1  -1  245.38   13.50
  -2  -1   1  243.88   14.30
   2   1  -1  265.37   11.30
  -2   1   1  252.97   17.10
   1  -1  -1 1646.54   45.50
  -1  -1   1 1708.93   44.40
  -1  -1   1 1737.73   47.20
   1  -1  -1 1630.94   45.50
  -1  -1   1 1682.33   45.80
   1   1  -1 1756.32   45.80
   1   1  -1 1677.23   44.10
  -1   1   1 1725.43   48.90
   1   1  -1 1602.74   43.40
   0  -1  -1    4.80    1.90
   0  -1  -1    4.00    2.30
   0  -1   1    5.10    4.00
   0   1  -1    5.10    2.50
   0   1   1    4.00    1.70
   0   1  -1    1.30    1.90
   0   1  -1    3.00    2.20
   0   1   1    6.50    3.00
   0   1   1    8.00    3.40
   1  -1   1 1479.15   40.80
   1  -1   1 1450.05   43.90
  -1  -1  -1 1454.85   35.50
  -1   1  -1 1535.45   41.00
   1   1   1 1492.65   41.60
  -1   1  -1 1533.55   44.30
  -1   1  -1 1453.15   41.10
   2  -1   1   21.10    6.70
  -2  -1  -1   19.30    3.20
  -2  -1  -1   17.00    2.30
   2  -1   1   16.90    4.90
  -2  -1  -1   15.10    2.10
  -2   1  -1   16.80    6.90
  -2   1  -1   12.40    5.30
  -2   1  -1   20.30    5.20
  -3  -1  -1  921.51   27.10
  -3  -1  -1  877.01   27.70
  -3   1  -1  869.11   32.30
  -3   1  -1  889.01   38.10
  -3   1  -1  944.81   33.00
  -4   1  -1 1017.90   38.80
  -4   1  -1  975.20   45.30
  -4   1  -1  979.50   37.80
   5  -1   1   43.00   10.40
   5  -1   1   29.70   11.60
   5  -1   1   49.10    8.70
   5  -1   1   56.89   14.30
   5  -1   1   49.10    8.70
   5  -1   1   49.80    9.90
   5   1   1   43.70   11.10
  -5   1  -1   42.50   11.00
  -5   1  -1   44.80   10.30
   5   1   1   54.79   12.60
   5   1   1   41.40    7.60
  -5   1  -1   30.60    9.40
   5   1   1   49.40   14.20
   5   1   1   41.40    7.60
   6  -1   1   59.19    9.10
   6  -1   1   28.70   10.70
   6  -1   1   59.19    9.10
   6  -1   1   56.19   15.30
   6  -1   1   42.00   12.80
   6   1   1   42.10   12.50
   6   1   1   77.69   10.70
  -6   1  -1   70.89   12.10
   6   1   1   47.60   13.90
   6   1   1   77.69   10.70
   7  -1   1   62.09    9.10
   7  -1   1   48.70   13.10
   7  -1   1   62.09    9.10
   7  -1   1   51.39   10.80
   7   1   1   64.29   12.70
  -7   1  -1   58.09   10.20
   7  -2  -1   56.69    9.90
   7  -2  -1   56.69    9.90
   7  -2  -1   69.59   11.50
   7  -2  -1   76.99   15.20
   7   2  -1   65.49   12.10
  -7   2   1   60.29   11.00
   6  -2  -1  241.58   19.70
   6  -2  -1  237.48   21.30
   6  -2  -1  247.38   25.60
   6  -2  -1  237.68   22.30
   6   2  -1  232.98   20.00
   6   2  -1  274.17   27.80
  -6   2   1  247.28   19.60
   5  -2  -1   81.39   14.90
   5  -2  -1   85.09   13.00
   5  -2  -1   77.29   15.70
   5  -2  -1   81.19   12.90
   5   2  -1   73.19   15.10
  -5   2   1   74.69   12.00
   5   2  -1   93.89   17.30
   5   2  -1   81.49   13.90
   4  -2  -1  112.29   10.60
   4  -2  -1  112.29   10.60
   4  -2  -1  129.49   14.00
   4  -2  -1  130.79   17.60
   4  -2  -1  112.49   17.60
  -4   2   1  125.59   15.10
   4   2  -1  111.69   14.50
   4   2  -1  117.39   15.90
  -4   2   1  108.59   18.40
  -4   2   1  117.89   11.90
   3  -2  -1 1947.61   68.79
   3  -2  -1 1981.30   62.39
  -3   2   1 2075.29   70.39
  -3   2   1 2034.70   63.89
  -3   2   1 2023.50   62.59
   2  -2  -1 1900.01   61.69
   2  -2  -1 1737.73   54.89
  -2  -2   1 1815.82   55.79
   2  -2  -1 1824.22   54.79
  -2   2   1 1817.62   55.49
  -2   2   1 1899.71   55.49
  -2   2   1 1879.91   61.29
  -1  -2   1  769.12   24.90
   1  -2  -1  742.23   26.40
  -1  -2   1  733.63   28.10
   1  -2  -1  769.52   26.40
   1   2  -1  750.52   27.10
   1   2  -1  754.52   24.10
  -1   2   1  722.53   26.00
  -1   2   1  738.13   26.10
  -1   2   1  721.93   29.20
   0  -2  -1  326.27   13.50
   0  -2   1  347.17   18.70
   0  -2  -1  341.87   14.20
   0  -2  -1  371.06   14.40
   0   2  -1  339.47   15.70
   0   2  -1  331.77   14.70
   0   2   1  341.87   13.60
   0   2   1  346.07   16.90
   0   2  -1  338.57   14.50
  -1  -2  -1   41.30    4.30
   1  -2   1   37.70    8.10
  -1  -2  -1   49.20    4.50
  -1  -2  -1   33.10    5.20
   1  -2   1   41.80    6.90
  -1  -2  -1   42.30    4.20
  -1  -2  -1   40.70    4.10
   1  -2   1   48.00    6.80
  -1   2  -1   52.49    6.90
  -1   2  -1   48.10    7.40
   1   2   1   46.70    7.90
   2  -2   1  387.36   19.50
  -2  -2  -1  391.16   12.60
   2  -2   1  384.96   23.70
  -2   2  -1  372.36   18.70
   2   2   1  399.26   20.00
  -2   2  -1  396.46   20.10
  -2   2  -1  414.76   24.60
   3  -2   1  102.19   12.20
   3  -2   1  107.09   14.50
  -3  -2  -1  104.49    7.80
  -3   2  -1  106.99   13.20
  -3   2  -1  105.49   15.70
  -3   2  -1  125.69   13.90
   4  -2   1  287.67   22.40
   4  -2   1  329.97   20.30
  -4   2  -1  286.97   19.30
  -4   2  -1  347.77   22.30
   4   2   1  288.17   19.50
  -4   2  -1  317.07   22.70
  -4   2  -1  270.87   24.80
   4   2   1  280.67   21.80
   5  -2   1   26.50    8.10
   5  -2   1   30.70   11.70
   5  -2   1   25.10    9.80
  -5   2  -1   21.80    8.70
   5   2   1   26.60   12.50
   5   2   1   22.10    9.70
   6  -2   1   18.90    9.50
   6  -2   1    5.30    5.60
   6  -2   1   15.70   12.30
   6  -2   1   -0.40    8.90
   6  -2   1    5.30    5.60
  -6   2  -1    7.80    9.10
   6   2   1   -3.40    8.60
   7  -2   1  -10.80    6.90
   7  -2   1    3.60    8.00
   7  -2   1  -10.80    6.90
   7  -2   1    3.30    5.90
   7  -2   1    4.50    6.50
   7   2   1    2.80    6.90
  -7   2  -1    3.70    8.40
   7  -3  -1   -1.80    6.20
   7  -3  -1   -2.90    4.80
   7  -3  -1    3.70    5.00
   7  -3  -1    3.70    5.00
  -7   3   1    9.30    6.90
   6  -3  -1   55.49   13.30
   6  -3  -1   50.69   11.40
  -6   3   1   38.40   10.50
   6   3  -1   64.29   16.70
   5  -3  -1   58.49   14.20
   5  -3  -1   53.89   11.30
   5   3  -1   47.20   14.00
  -5   3   1   40.10   10.30
   5   3  -1   73.69   16.60
   4  -3  -1  149.88   15.20
   4  -3  -1  151.08   14.30
   4  -3  -1   98.89   18.00
   4  -3  -1  142.29   18.70
  -4   3   1  153.98   16.10
  -4   3   1  135.99   17.70
  -4   3   1  128.89   21.40
   4   3  -1  141.69   16.30
   4   3  -1  159.88   17.50
   3  -3  -1   40.60   12.50
   3  -3  -1   43.30    9.20
  -3   3   1   35.70    9.80
  -3   3   1   34.30   10.80
   2  -3  -1 1319.57   46.10
  -2  -3   1 1290.77   50.39
   2  -3  -1 1441.56   48.20
   2  -3  -1 1406.66   54.19
   2   3  -1 1240.78   46.90
  -2   3   1 1284.17   45.60
  -2   3   1 1334.47   52.59
   1  -3  -1  291.67   20.70
   1  -3  -1  302.77   17.00
  -1  -3   1  285.07   18.70
   1  -3  -1  304.57   17.50
  -1   3   1  284.07   16.90
   1   3  -1  288.97   18.50
  -1   3   1  294.57   19.80
   0  -3  -1 4164.98  108.69
   0  -3   1 4125.59  116.89
   0  -3  -1 4250.07  107.79
   0  -3  -1 4019.50  114.89
   0   3   1 4067.69  106.89
   0   3  -1 4094.49  108.69
   0   3   1 4227.98  113.39
   0   3  -1 4224.38  111.69
   1  -3   1  320.47   18.70
  -1  -3  -1  351.36   15.80
  -1  -3  -1  331.47   18.90
   1  -3   1  367.86   25.00
  -1   3  -1  327.37   18.80
  -1   3  -1  355.36   19.10
   1   3   1  333.87   20.10
   2  -3   1   76.49   10.90
   2  -3   1   73.89   14.80
  -2   3  -1   42.60    9.50
   2   3   1   62.09   10.50
   3  -3   1 1854.01   69.69
   3  -3   1 1824.82   62.49
  -3   3  -1 1891.81   62.49
   4  -3   1  121.99   14.60
   4  -3   1  133.79   18.40
  -4   3  -1  154.48   16.70
  -4   3  -1  109.29   15.70
   4   3   1  141.49   17.80
   5  -3   1  403.46   26.40
   5  -3   1  403.56   27.70
   5   3   1  411.16   24.40
  -5   3  -1  415.16   24.40
   6  -3   1   38.40   11.60
   6  -3   1   12.30   10.40
   6  -3   1   43.20    8.20
   6  -3   1   43.20    8.20
   6   3   1   60.39   11.70
  -6   3  -1   44.80   10.40
   7  -3   1    7.30    6.40
   7  -3   1   13.40    6.40
   7  -3   1   10.10    6.90
   7  -3   1   10.10    6.90
  -7   3  -1    6.20    7.90
  -7   3  -1   14.30    6.70
   7  -4  -1   15.80    4.80
   7  -4  -1   15.80    4.80
   7  -4  -1    5.30    4.40
  -7   4   1   18.20    6.80
   6  -4  -1  453.55   28.00
   6  -4  -1  518.15   31.40
  -6   4   1  474.35   27.20
   5  -4  -1    3.40    9.70
   5  -4  -1   26.00    9.10
   5   4  -1   15.00   12.10
  -5   4   1   21.00    8.50
   4  -4  -1   46.60   11.00
   4  -4  -1   45.70   12.00
   4  -4  -1   28.20    8.90
   4   4  -1   25.80    9.80
   4   4  -1   18.90   10.90
  -4   4   1   30.50    8.80
  -4   4   1   30.60    9.20
  -4   4   1   30.50    8.80
   3  -4  -1   65.89   12.20
   3  -4  -1   61.59   12.30
   3  -4  -1   57.49    9.40
   3  -4  -1   38.50   13.60
   3  -4  -1   58.29   11.20
   3  -4  -1   57.49    9.40
  -3   4   1   71.49    9.40
  -3   4   1   71.49    9.40
   3   4  -1   62.99   12.20
  -3   4   1   69.19   12.60
  -3   4   1   60.79   11.40
   3   4  -1   63.99   12.30
   2  -4  -1   81.49   16.40
   2  -4  -1   42.70   10.70
   2  -4  -1   64.69   10.80
   2   4  -1   59.99   11.50
  -2   4   1   59.69   11.50
  -2   4   1   63.09   14.00
   1  -4  -1  700.73   30.00
   1  -4  -1  594.64   30.50
  -1  -4   1  696.63   36.60
   1  -4  -1  655.63   37.40
  -1   4   1  694.73   33.60
   1   4  -1  723.13   34.50
   0  -4  -1   39.30   11.50
   0  -4   1   34.20    9.90
   0  -4  -1   19.50    7.30
   0  -4  -1   37.10    8.00
   0   4  -1   47.10   10.70
   0   4   1   28.90    9.90
   1  -4   1  653.53   38.30
  -1  -4  -1  684.53   27.30
  -1   4  -1  675.53   32.90
  -1   4  -1  660.53   30.40
   1   4   1  670.23   34.50
   2  -4   1  553.24   23.80
   2  -4   1  553.24   23.80
   2  -4   1  641.64   31.80
   2  -4   1  640.64   29.50
   2  -4   1  651.83   38.20
  -2   4  -1  673.33   33.70
  -2   4  -1  630.04   31.10
   3  -4   1  181.88   14.00
   3  -4   1  160.58   15.00
   3  -4   1  161.98   16.60
   3  -4   1  158.98   24.30
   3  -4   1  155.48   18.60
   3  -4   1  181.88   14.00
   3   4   1  163.48   16.00
  -3   4  -1  169.78   14.10
  -3   4  -1  169.78   14.10
  -3   4  -1  158.48   14.60
  -3   4  -1  184.28   20.30
  -3   4  -1  168.68   14.80
   4  -4   1    1.80    5.10
   4  -4   1    3.40    6.70
   4  -4   1    3.40    6.70
  -4   4  -1    2.10    7.90
  -4   4  -1    4.10    7.70
   5  -4   1   64.59   12.10
   5  -4   1   43.30   13.30
  -5   4  -1   52.59   10.70
  -5   4  -1   47.80   10.40
   6  -4   1  224.08   14.00
   6  -4   1  223.98   18.50
   6  -4   1  224.08   14.00
   6  -4   1  230.48   21.80
  -6   4  -1  223.48   16.70
  -6   4  -1  227.18   19.80
   7  -4   1   -4.20    4.60
   7  -4   1    8.00    4.20
   7  -4   1    8.00    4.20
  -7   4  -1   -1.50    6.00
   6  -5  -1    1.70    4.40
   6  -5  -1    1.70    4.40
   6  -5  -1    8.20    6.60
  -6   5   1    1.40    6.40
   5  -5  -1    2.80    7.10
  -5   5   1   11.40    8.80
  -5   5   1    0.20    9.60
  -5   5   1   11.40    8.80
   4  -5  -1  578.74   31.00
   4  -5  -1  553.84   26.30
   4  -5  -1  553.84   26.30
   4  -5  -1  562.64   30.70
  -4   5   1  552.84   24.70
  -4   5   1  552.84   24.70
   4   5  -1  564.84   32.00
  -4   5   1  580.14   28.90
   3  -5  -1   88.19   11.60
   3  -5  -1   94.19   14.20
   3  -5  -1   88.19   11.60
   3  -5  -1  118.49   15.40
  -3   5   1   94.29   11.20
  -3   5   1   96.89   13.30
  -3   5   1   94.29   11.20
   3   5  -1  114.39   15.90
   2  -5  -1    0.90    6.00
   2  -5  -1    0.90    6.00
   2  -5  -1   -1.90    7.40
  -2   5   1    0.20    5.60
   2   5  -1   -0.30    6.20
  -2   5   1    0.20    5.60
   2   5  -1    1.20    5.40
   2   5  -1   -2.50    4.50
   2   5  -1   -2.50    4.50
  -1  -5   1  317.77   17.90
   1  -5  -1  348.67   23.20
  -1  -5   1  317.77   17.90
   1  -5  -1  303.27   28.40
  -1  -5   1  330.67   20.80
   1  -5  -1  341.57   21.80
   1   5  -1  340.37   16.50
   1   5  -1  340.37   16.50
  -1   5   1  328.37   16.00
  -1   5   1  328.37   16.00
   1   5  -1  342.17   22.60
  -1   5   1  374.06   23.40
   1   5  -1  315.77   22.10
   0  -5   1  658.23   42.30
   0  -5   1  602.54   29.00
   0  -5   1  579.04   24.80
   0  -5  -1  575.14   27.50
   0  -5   1  579.04   24.80
   0   5  -1  639.64   30.20
   0   5   1  621.54   22.60
   0   5  -1  642.64   24.20
   0   5   1  596.14   35.00
   0   5   1  626.54   31.90
   0   5  -1  605.74   31.00
   0   5  -1  642.64   24.20
   0   5   1  621.54   22.60
   1  -5   1  167.78   14.10
   1  -5   1  165.28   24.00
   1  -5   1  167.78   14.10
   1  -5   1  172.08   16.80
   1   5   1  167.38   12.10
  -1   5  -1  153.88   16.90
  -1   5  -1  157.98   13.00
  -1   5  -1  157.98   13.00
   1   5   1  167.38   12.10
   1   5   1  162.18   17.20
   2  -5   1   62.29   10.50
   2  -5   1   62.29   10.50
   2  -5   1   54.09   11.60
   2   5   1   61.19   13.00
  -2   5  -1   79.89   10.00
  -2   5  -1   88.29   13.00
  -2   5  -1   75.89   11.90
  -2   5  -1   79.89   10.00
   3  -5   1    2.60    6.80
   3  -5   1    8.90    5.50
   3  -5   1    8.90    5.50
   3  -5   1    6.60    6.20
  -3   5  -1   18.30    7.50
   3   5   1    8.10    7.30
  -3   5  -1   15.30    7.20
   3   5   1    7.10    8.10
  -3   5  -1    9.10    7.50
  -3   5  -1    9.10    7.50
   4  -5   1  325.77   23.10
   4  -5   1  328.37   19.30
   4  -5   1  325.97   22.20
   4  -5   1  328.37   19.30
  -4   5  -1  327.67   23.50
  -4   5  -1  349.47   20.80
  -4   5  -1  349.47   20.80
  -4   5  -1  360.36   22.40
   5  -5   1  130.79   15.80
   5  -5   1   84.39    9.70
   5  -5   1   84.39    9.70
  -5   5  -1  127.99   15.40
  -5   5  -1   89.49   13.00
   6  -5   1  136.09   15.00
  -6   5  -1  108.89   12.20
   5  -6  -1   26.20    7.10
  -5   6   1   53.89    8.60
  -5   6   1   53.89    8.60
   4  -6  -1    5.70    6.00
   4  -6  -1    5.70    6.00
   4  -6  -1    4.50    7.00
   4  -6  -1    1.80    7.10
  -4   6   1    6.40    8.20
  -4   6   1    6.40    8.20
  -3  -6   1    5.40    6.80
   3  -6  -1   17.20    8.80
   3  -6  -1   17.20    8.80
   3  -6  -1   19.80    8.60
   3  -6  -1   14.30    9.50
   3   6  -1   22.30    8.20
  -3   6   1   12.00    8.20
  -3   6   1   12.00    8.20
   2  -6  -1  570.04   26.70
   2  -6  -1  570.04   26.70
   2  -6  -1  623.84   32.20
  -2   6   1  588.04   25.90
  -2   6   1  588.04   25.90
   2   6  -1  635.84   31.80
  -1  -6   1   13.60    7.10
   1  -6  -1   24.60    7.50
   1  -6  -1   12.80    9.40
  -1  -6   1   13.60    7.10
   1  -6  -1   24.60    7.50
  -1   6   1   35.60    7.30
   1   6  -1   23.50    7.00
  -1   6   1   35.60    7.30
   1   6  -1   10.90    9.10
   1   6  -1   23.50    7.00
   0  -6  -1   -5.50    6.90
   0  -6  -1   14.40    7.70
   0  -6   1    6.50    8.30
   0  -6  -1   14.40    7.70
   0  -6   1   -0.40    6.30
   0  -6   1   -0.40    6.30
   0   6  -1   -6.40    6.30
   0   6  -1   -6.40    6.30
   0   6   1   14.00    5.10
   0   6  -1   -3.40    5.00
   0   6   1    1.20    7.10
   0   6   1   14.00    5.10
   1  -6   1    4.70    5.60
   1  -6   1    4.70    5.60
  -1  -6  -1    3.80    6.60
  -1  -6  -1    3.80    6.60
   1  -6   1    0.60    8.20
   1   6   1   11.00    8.70
  -1   6  -1    2.50    5.20
  -1   6  -1    2.50    5.20
  -1   6  -1    2.10    7.80
   2  -6   1  577.04   28.90
   2  -6   1  595.04   28.00
   2  -6   1  572.54   31.00
   2  -6   1  595.04   28.00
   2   6   1  559.94   32.00
  -2   6  -1  548.65   29.80
  -2   6  -1  609.74   26.40
  -2   6  -1  609.74   26.40
   3  -6   1  115.19   13.20
   3  -6   1  115.19   13.20
   3  -6   1  117.79   15.10
  -3   6  -1  115.19   12.60
  -3   6  -1  115.19   12.60
  -3   6  -1   76.59   13.00
   3   6   1  104.19   17.40
   4  -6   1   13.90    6.80
   4  -6   1   13.90    6.80
   4  -6   1   10.10    7.50
  -4   6  -1   12.30    9.70
  -4   6  -1    3.70    6.40
  -4   6  -1    3.70    6.40
   5  -6   1   13.00    6.70
  -5   6  -1    0.10    6.90
  -5   6  -1    0.10    6.90
  -5   6  -1    2.00    6.30
   4  -7  -1   16.80    5.70
   4  -7  -1   13.00    6.60
   4  -7  -1   16.80    5.70
  -4   7   1   15.60    5.70
  -4   7   1   15.60    5.70
   3  -7  -1   74.89   11.30
   3  -7  -1   52.59   11.00
  -3  -7   1   69.89   10.10
   3  -7  -1   74.89   11.30
   3   7  -1   57.99   10.10
  -3   7   1   91.59   10.20
  -3   7   1   91.59   10.20
   2  -7  -1   37.50   10.20
   2  -7  -1   37.50   10.20
  -2  -7   1   43.20   11.20
   2  -7  -1   70.89   12.40
   2  -7  -1   47.30   11.30
   2   7  -1   29.90    9.40
  -2   7   1   64.49    9.00
  -2   7   1   64.49    9.00
   1  -7  -1   41.30   11.10
   1  -7  -1   38.30    8.30
   1  -7  -1   38.30    8.30
  -1  -7   1   62.19   12.40
  -1   7   1   48.30    7.50
  -1   7   1   48.30    7.50
   0  -7  -1   69.39   11.30
   0  -7   1  103.39   11.60
   0  -7  -1   59.89   11.50
   0  -7   1   80.59   11.70
   0  -7  -1   69.39   11.30
   0  -7   1  103.39   11.60
   0   7   1   83.59    8.60
   0   7   1   83.59    8.60
   0   7  -1  115.49   10.60
   0   7  -1  115.49   10.60
   1  -7   1  109.09   13.70
   1  -7   1  141.79   13.30
   1  -7   1  141.79   13.30
  -1  -7  -1  107.09   11.90
  -1  -7  -1  107.09   11.90
  -1   7  -1   98.39   11.20
  -1   7  -1   98.39   11.20
   2  -7   1   93.19   13.70
   2  -7   1   88.19   11.30
   2  -7   1   88.19   11.30
   2  -7   1   74.29   12.60
  -2   7  -1   94.89   10.60
  -2   7  -1   94.89   10.60
   3  -7   1   12.90    8.70
   3  -7   1   12.90    8.70
  -3   7  -1   17.30    8.70
  -3   7  -1   17.30    8.70
   4  -7   1  305.57   15.30
   4  -7   1  305.57   15.30
  -4   7  -1  276.17   14.40
  -4   7  -1  276.17   14.40
  -2  -8   1   39.00    7.00
  -2   8   1   55.49    9.20
  -2   8   1   55.49    9.20
   1  -8  -1   78.59    9.00
   1  -8  -1   82.89    9.60
   1  -8  -1   78.59    9.00
  -1  -8   1   85.99   10.60
   0  -8  -1   52.79    8.70
   0  -8   1   62.99    9.70
   0  -8  -1   57.99    7.50
   0  -8  -1   57.99    7.50
  -1  -8  -1   -0.10    5.50
   1  -8   1    6.60    6.40
   1  -8   1    6.60    6.40
   1  -8   1    3.30    6.10
  -1   8  -1   13.90    4.50
  -1   8  -1   13.90    4.50
  -2  -8  -1  315.97   16.60
   2  -8   1  325.37   16.70
   2  -8   1  325.37   16.70
  -2   8  -1  339.47   13.90
  -2   8  -1  339.47   13.90
   8   0  -2  547.45   25.20
   7   0  -2  178.48   19.90
   7   0  -2  176.58   24.10
   7   0  -2  174.68   20.10
  -7   0   2  186.68   16.40
   6   0  -2  200.98   15.90
   6   0  -2  200.98   15.90
   6   0  -2  203.48   19.00
   6   0  -2  247.68   24.80
   6   0  -2  217.28   27.50
  -6   0   2  241.68   20.10
   5   0  -2 1297.57   54.89
   5   0  -2 1317.27   40.10
   5   0  -2 1300.47   52.69
  -5   0   2 1279.07   46.80
  -5   0   2 1214.98   48.20
   5   0  -2 1313.67   51.99
   5   0  -2 1317.27   40.10
  -4   0   2   -4.50    7.50
   4   0  -2   -0.50    5.90
  -3   0   2 4252.87  117.29
   3   0  -2 4042.00  109.29
   2   0  -2   40.40    6.40
  -2   0   2   48.70    8.80
   2   0  -2   50.19    6.70
  -1   0   2   15.30    5.60
   1   0  -2   11.30    3.40
   1   0  -2    7.80    3.00
   0   0   2   40.00    5.00
   0   0   2   44.10    2.30
   0   0  -2   44.60    4.50
   0   0  -2   42.90    4.00
  -1   0  -2 9183.18  217.58
   1   0   2 9439.86  217.48
  -1   0  -2 9207.18  217.58
  -1   0  -2 9243.88  218.08
   1   0   2 8500.55  217.38
  -2   0  -2  595.04   23.30
  -2   0  -2  671.33   20.90
  -2   0  -2  627.24   20.60
  -2   0  -2  671.63   20.90
  -3   0  -2 3203.38   83.69
  -3   0  -2 3102.69   82.79
  -4   0  -2    6.90    4.70
  -4   0  -2   14.30    5.40
   5   0   2 1292.07   42.00
   5   0   2 1309.87   53.89
   5   0   2 1285.57   47.70
   5   0   2 1292.07   42.00
   5   0   2 1296.97   49.99
   6   0   2 1583.64   63.89
   6   0   2 1600.94   51.59
   6   0   2 1600.94   51.59
   6   0   2 1671.73   60.49
   7   0   2  198.28   18.00
   7   0   2  192.88   14.90
   7   0   2  192.88   14.90
   8  -1  -2   14.30    5.80
   8  -1  -2    7.70    7.60
   8   1  -2    9.00    5.70
   7  -1  -2  412.56   21.10
   7  -1  -2  412.56   21.10
   7  -1  -2  431.96   26.10
   7  -1  -2  414.76   29.10
   7  -1  -2  464.55   30.20
  -7   1   2  425.36   26.10
   7   1  -2  427.06   26.70
   7   1  -2  466.95   31.50
   6  -1  -2   29.20   11.20
  -6  -1   2   16.60    9.20
   6  -1  -2   34.20   11.30
   6  -1  -2   14.10   12.20
   6   1  -2   19.40   11.20
  -6   1   2   16.30    9.70
   6   1  -2   24.20   14.40
   6   1  -2   22.60   12.50
   5  -1  -2 1884.11   54.39
  -5  -1   2 1866.41   59.79
   5  -1  -2 1781.32   67.39
   5  -1  -2 1843.52   68.79
   5  -1  -2 1884.11   54.39
   5   1  -2 1936.21   64.19
   5   1  -2 1854.31   52.19
   5   1  -2 1854.31   52.19
   5   1  -2 1855.91   67.79
  -5   1   2 1674.53   75.69
   5   1  -2 1896.81   70.59
  -5   1   2 1860.01   66.29
   5   1  -2 1710.63   64.89
  -5   1   2 1886.11   61.59
   4  -1  -2  447.66   28.60
  -4   1   2  476.35   25.10
  -4   1   2  402.46   30.20
   3  -1  -2 1698.33   54.49
  -3  -1   2 1828.72   59.89
  -3   1   2 1757.12   61.19
  -2  -1   2 2071.89   62.69
   2  -1  -2 2084.59   59.49
  -2  -1   2 1971.00   58.29
   2  -1  -2 2120.59   59.29
   2   1  -2 2081.29   57.39
  -2   1   2 2191.98   64.69
  -1  -1   2   98.39    7.70
   1  -1  -2   89.09    7.60
   1  -1  -2   84.59    8.00
  -1  -1   2   92.69    9.90
  -1   1   2   96.49    9.20
   1   1  -2   96.19    8.00
   1   1  -2   81.69    7.20
   0  -1  -2 9652.23  229.78
   0  -1   2 9999.00  235.88
   0  -1  -2 9793.12  229.98
   0   1  -2 9554.74  231.98
   0   1  -2 9748.32  232.28
   0   1  -2 9198.68  228.68
   0   1   2 9425.56  231.48
   0   1   2 9655.93  231.28
   1  -1   2 3766.32  100.39
  -1  -1  -2 3864.71   90.59
  -1  -1  -2 3855.81   91.69
   1   1   2 3966.10   97.49
  -1   1  -2 3824.92   97.19
  -1   1  -2 3719.83   97.09
  -2  -1  -2   35.90    2.40
  -2  -1  -2   32.00    2.30
   2  -1   2   33.50    6.90
  -2   1  -2   43.40    6.20
  -2   1  -2   25.40    5.30
  -2   1  -2   32.40    7.10
  -3  -1  -2   85.49    6.60
  -3  -1  -2   79.19    5.40
   3  -1   2   62.59    8.00
  -3   1  -2   77.49   10.10
  -3   1  -2   93.99   13.90
  -3   1  -2  100.69   11.20
   4  -1   2   -3.90    4.90
   4  -1   2   -3.90    4.90
   4  -1   2    7.00    8.10
   4   1   2    5.30    5.40
  -4   1  -2    6.70    5.90
  -4   1  -2    5.70    5.50
   5  -1   2    6.70    5.90
   5  -1   2    6.70    5.90
   5  -1   2   12.30    7.90
   5  -1   2   10.00    9.50
   5  -1   2   -0.30    7.30
   5  -1   2    1.40    6.40
  -5   1  -2    6.00    7.80
   5   1   2    7.60    5.80
   5   1   2   -2.00    7.80
   5   1   2    3.10    5.90
   5   1   2    7.60    5.80
   6  -1   2   -4.80    8.00
   6  -1   2    5.50    7.40
   6  -1   2    0.60   10.30
   6  -1   2    5.50    7.40
   6  -1   2    2.50    8.60
   6   1   2   -3.60    5.90
   6   1   2   -4.00    8.90
   6   1   2   -9.40    6.00
   6   1   2   -9.40    6.00
   7  -1   2   22.50    8.80
   7  -1   2   46.90    9.40
   7  -1   2   24.20   11.00
   7  -1   2   46.90    9.40
   7   1   2   38.70   10.40
   7   1   2   31.20    8.80
   7   1   2   31.20    8.80
   7  -2  -2   50.59    8.10
   7  -2  -2   64.59   14.50
   7  -2  -2   48.50   11.50
   7  -2  -2   50.59    8.10
   7   2  -2   72.89   12.60
   7   2  -2   49.50   14.30
  -7   2   2   43.30   11.20
   6  -2  -2  227.78   22.50
   6  -2  -2  217.18   20.40
   6  -2  -2  164.48   21.90
   6  -2  -2  197.78   17.90
   6   2  -2  227.08   21.20
   6   2  -2  150.58   21.80
  -6   2   2  215.88   20.90
   5  -2  -2   60.99   13.70
   5  -2  -2   34.30   10.40
   5  -2  -2   41.20   13.00
   5   2  -2   43.90   14.10
   5   2  -2   37.40    9.80
  -5   2   2   41.50   10.30
   5   2  -2   49.90   12.40
   4  -2  -2  410.16   26.50
   4  -2  -2  418.66   19.30
   4  -2  -2  447.06   31.50
   4  -2  -2  409.76   22.40
   4  -2  -2  418.66   19.30
   4   2  -2  418.66   23.00
   4   2  -2  380.46   25.60
  -4   2   2  415.26   22.70
   4   2  -2  434.96   27.70
  -4   2   2  451.05   26.30
  -4   2   2  427.66   30.80
   3  -2  -2 1491.35   50.59
  -3  -2   2 1508.95   54.19
   3  -2  -2 1398.16   56.19
  -3   2   2 1515.35   57.79
  -3   2   2 1446.56   49.60
  -2  -2   2  335.57   20.60
   2  -2  -2  323.87   18.50
   2  -2  -2  331.67   17.70
  -2   2   2  347.67   18.90
   2   2  -2  335.27   16.00
  -2   2   2  334.77   17.60
  -2   2   2  375.06   23.20
  -1  -2   2 5811.92  145.79
   1  -2  -2 5556.84  140.49
   1  -2  -2 5807.02  140.69
   1   2  -2 5270.57  138.59
  -1   2   2 5467.75  139.79
   1   2  -2 5376.86  139.69
  -1   2   2 5504.25  144.89
   1   2  -2 5612.14  139.49
   0  -2   2  718.13   29.50
   0  -2  -2  683.43   22.50
   0  -2  -2  671.83   22.20
   0   2   2  653.93   21.70
   0   2  -2  664.33   23.90
   0   2   2  697.63   26.10
   0   2  -2  673.73   24.50
   0   2  -2  632.54   22.90
  -1  -2  -2   62.59    4.90
   1  -2   2   98.69   12.90
  -1  -2  -2   82.19    5.00
  -1  -2  -2   80.29    5.20
  -1   2  -2   71.39    9.10
   1   2   2   77.79   10.10
  -1   2  -2   78.69    8.80
  -2  -2  -2   23.80    1.80
  -2  -2  -2   24.20    1.80
   2  -2   2   19.30    7.10
  -2   2  -2   30.40    7.60
   2   2   2   15.50    7.00
  -2   2  -2   19.10    6.90
   3  -2   2  109.39   14.90
  -3  -2  -2  112.19    5.60
  -3   2  -2  119.29   13.20
  -3   2  -2  112.59   12.90
   4  -2   2   77.29   11.70
   4  -2   2   67.29   10.70
   4  -2   2   73.29   14.70
   4   2   2   85.99   12.90
   4   2   2   78.29    9.30
   4   2   2   78.29    9.30
  -4   2  -2   73.39   12.40
  -4   2  -2   69.09   11.30
  -4   2  -2   86.59   13.50
   5  -2   2   34.90    7.30
   5  -2   2   22.30    9.80
   5  -2   2   27.70   11.90
   5  -2   2   34.90    7.30
   5  -2   2   22.40    7.90
  -5   2  -2   33.70    8.90
   5   2   2   25.70    7.50
   5   2   2   27.60   10.30
   5   2   2   25.70    7.50
   6  -2   2   99.39   16.90
   6  -2   2  106.69   11.70
   6  -2   2  106.69   11.70
   6  -2   2   87.69   17.20
   6  -2   2  102.89   15.40
   6  -2   2  121.79   16.50
  -6   2  -2   96.29   14.20
   6   2   2   73.39   13.60
   7  -2   2  263.57   15.10
   7  -2   2  263.57   15.10
   7  -2   2  267.77   21.90
   7  -2   2  238.58   17.70
   7  -2   2  228.58   18.00
   7   2   2  230.48   21.00
  -7   2  -2  218.48   17.90
   7  -3  -2  201.78   14.60
   7  -3  -2  201.78   14.60
  -7   3   2  219.08   16.70
   6  -3  -2   32.10   11.20
   6  -3  -2   46.50   10.50
   6  -3  -2    8.10    9.50
  -6   3   2   21.40   11.00
   6   3  -2   20.10   12.30
   5  -3  -2  497.95   27.80
   5  -3  -2  506.45   32.80
   5   3  -2  507.05   32.40
  -5   3   2  497.95   28.70
   5   3  -2  507.25   33.80
   4  -3  -2  119.89   21.30
   4  -3  -2  118.39   14.70
   4  -3  -2  124.89   15.30
   4  -3  -2  129.99   18.40
   4   3  -2  146.99   18.90
  -4   3   2  142.79   13.70
  -4   3   2   87.49   18.80
  -4   3   2  131.69   17.30
   4   3  -2  128.39   15.40
  -4   3   2  115.29   14.50
  -4   3   2  142.79   13.70
   3  -3  -2    7.30   10.00
   3  -3  -2   -1.70    6.40
  -3   3   2   -2.80    6.00
  -3   3   2  -10.30    5.70
  -2  -3   2   28.90    9.40
   2  -3  -2   28.70   11.10
   2  -3  -2   28.90    7.90
   2  -3  -2   31.70    7.50
  -2   3   2   30.90   11.00
  -2   3   2   26.50    7.00
   1  -3  -2   65.59    9.50
   1  -3  -2   73.59    9.80
  -1  -3   2   55.19   11.40
   1  -3  -2   51.99   10.70
  -1   3   2   68.49   10.50
  -1   3   2   84.39   12.60
   1   3  -2   75.09    9.80
  -1   3   2   76.59    9.40
   1   3  -2   66.79   10.40
   0  -3  -2    2.40    4.40
   0  -3   2   -7.10    6.40
   0  -3  -2   -2.50    5.40
   0  -3  -2   -0.30    4.10
   0   3  -2   -5.30    4.70
   0   3   2   -2.50    6.00
   0   3  -2    0.30    5.20
  -1  -3  -2 1781.82   48.40
   1  -3   2 1731.53   61.79
  -1  -3  -2 1663.43   46.90
   1   3   2 1693.93   56.39
  -1   3  -2 1578.84   53.19
  -1   3  -2 1676.73   52.99
   2  -3   2   66.49   12.90
  -2  -3  -2   58.99    5.70
  -2   3  -2   49.50   10.20
   2   3   2   51.99   10.00
   3  -3   2   64.99   14.30
   3  -3   2   42.00    8.60
  -3   3  -2   46.20    9.80
  -3   3  -2   29.20    9.80
   4  -3   2   -2.10    8.40
   4  -3   2    3.00    5.90
   4  -3   2   26.90   19.50
   4  -3   2    3.00    5.90
   4  -3   2   -3.10    4.30
  -4   3  -2    3.40    8.20
  -4   3  -2    1.30    6.00
   5  -3   2  381.26   27.10
   5  -3   2  362.56   20.00
   5  -3   2  362.56   20.00
   5  -3   2  330.57   22.90
   5   3   2  350.86   24.80
  -5   3  -2  371.76   23.00
   6  -3   2    1.60    5.30
   6  -3   2    1.40    7.80
   6  -3   2    1.60    5.30
   6  -3   2    1.80    7.20
   6  -3   2   -1.80    9.10
  -6   3  -2    0.50    6.30
   6   3   2    3.90    6.40
   7  -3   2   81.89    8.20
   7  -3   2   81.89    8.20
   7  -3   2   90.49   12.00
  -7   3  -2  120.19   12.90
  -7   3  -2   50.29    8.20
   7  -4  -2  161.88   10.00
   7  -4  -2  130.09   11.60
   7  -4  -2  161.88   10.00
  -7   4   2  151.38   12.30
   6  -4  -2   -0.70    6.20
   6  -4  -2   -0.20    6.50
  -6   4   2    4.00    9.40
   5  -4  -2  292.07   23.80
   5  -4  -2  281.57   21.40
  -5   4   2  267.57   17.30
  -5   4   2  267.57   17.30
   5   4  -2  335.77   26.30
  -5   4   2  289.47   22.70
   4  -4  -2   47.10   12.40
   4  -4  -2   47.50   11.80
   4  -4  -2   43.90   11.60
  -4   4   2   52.29   12.10
   4   4  -2   62.09   13.00
  -4   4   2   44.70    8.80
   4   4  -2   44.40   13.40
  -4   4   2   44.70    8.80
   3  -4  -2   97.39   11.40
   3  -4  -2   97.39   11.40
   3  -4  -2  132.19   15.00
   3  -4  -2  160.18   24.50
   3  -4  -2  102.69   15.10
   3  -4  -2  118.09   14.80
   3   4  -2  130.89    9.90
  -3   4   2  167.98   16.30
   3   4  -2  130.29   16.30
  -3   4   2  136.99   13.00
  -3   4   2  122.69   17.00
  -3   4   2  136.99   13.00
   3   4  -2  130.89    9.90
   3   4  -2  123.09   17.40
   2  -4  -2  318.07   21.90
   2  -4  -2  304.27   19.70
   2  -4  -2  332.47   19.30
   2  -4  -2  306.47   26.40
  -2   4   2  297.47   16.00
  -2   4   2  297.47   16.00
   2   4  -2  302.87   20.70
   1  -4  -2  357.36   21.40
   1  -4  -2  349.67   28.20
   1  -4  -2  381.56   22.10
  -1  -4   2  395.86   28.40
  -1   4   2  364.46   25.90
   0  -4   2   37.90   12.10
   0  -4  -2   63.69   15.40
   0  -4  -2   61.49    9.20
   0  -4  -2   50.79    8.80
   0   4  -2   48.60   10.00
   0   4   2   58.09   11.60
  -1  -4  -2    5.40    4.90
   1  -4   2    1.20    6.60
  -1   4  -2    7.10    7.70
   1   4   2    5.60    8.90
  -1   4  -2   -0.20    5.00
   2  -4   2  583.64   38.10
   2  -4   2  597.54   24.30
   2  -4   2  608.54   27.90
   2  -4   2  597.54   24.30
  -2   4  -2  606.14   28.50
  -2   4  -2  570.94   24.30
  -2   4  -2  602.04   31.60
  -2   4  -2  570.94   24.30
   2   4   2  575.54   28.00
  -2   4  -2  585.74   27.70
  -2   4  -2  619.14   32.50
   3  -4   2  174.18   17.50
   3  -4   2  157.08   12.30
   3  -4   2  157.08   12.30
   3  -4   2  132.59   21.50
   3  -4   2  177.38   16.70
  -3   4  -2  172.18   16.70
  -3   4  -2  167.08   13.20
  -3   4  -2  167.08   13.20
  -3   4  -2  161.48   19.20
  -3   4  -2  173.98   17.00
   3   4   2  176.28   15.80
   4  -4   2  211.18   16.50
   4  -4   2  211.18   16.50
   4  -4   2  207.48   19.60
  -4   4  -2  213.08   17.30
  -4   4  -2  215.28   19.10
   5  -4   2  281.27   16.10
   5  -4   2  303.17   23.40
   5  -4   2  281.27   16.10
  -5   4  -2  322.27   21.50
  -5   4  -2  271.47   21.60
   6  -4   2   72.89   14.30
   6  -4   2   71.19    9.50
   6  -4   2   71.19    9.50
   6  -4   2   64.69   11.60
  -6   4  -2   40.50   10.10
  -6   4  -2   33.60   10.30
   6  -5  -2   -2.00    4.20
   6  -5  -2   -2.00    4.20
   6  -5  -2   -0.10    6.20
  -6   5   2    5.50    9.00
   5  -5  -2    8.30    7.20
  -5   5   2    0.20    8.30
   5   5  -2    7.90   11.50
  -5   5   2   26.40   10.80
  -5   5   2    0.20    8.30
   4  -5  -2  151.08   18.10
   4  -5  -2  115.09   12.50
   4  -5  -2  115.09   12.50
   4  -5  -2  170.88   16.90
   4   5  -2  177.48   17.60
  -4   5   2  149.09   15.10
   4   5  -2  141.49   18.40
  -4   5   2  190.28   16.10
  -4   5   2  190.28   16.10
   3  -5  -2  160.48   15.80
   3  -5  -2  162.18   17.80
   3  -5  -2  181.98   14.20
   3  -5  -2  181.98   14.20
  -3  -5   2  167.48   15.70
  -3   5   2  171.38   13.20
   3   5  -2  162.78   16.60
  -3   5   2  171.38   13.20
   2  -5  -2  395.06   24.00
   2  -5  -2  415.26   24.20
   2   5  -2  406.86   25.90
  -2   5   2  352.76   25.10
   2   5  -2  358.76   16.90
   2   5  -2  358.76   16.90
  -2   5   2  381.46   19.60
  -2   5   2  381.46   19.60
   1  -5  -2   69.49   10.90
   1  -5  -2   96.09   14.60
   1  -5  -2   74.29   19.40
   1  -5  -2   96.69   15.30
   1  -5  -2  103.99   13.20
   1   5  -2   89.69   13.50
   1   5  -2   80.79    9.60
   1   5  -2   80.79    9.60
  -1   5   2   76.49    9.40
  -1   5   2   58.99   12.90
  -1   5   2   76.49    9.40
   0  -5  -2  121.19   15.60
   0  -5   2  150.78   13.50
   0  -5  -2  123.99   14.60
   0  -5   2  114.39   20.30
   0  -5   2  150.78   13.50
   0  -5   2   89.99   13.00
   0   5  -2  125.19   11.70
   0   5   2  120.59   17.10
   0   5  -2  146.09   16.40
   0   5   2  165.78   12.20
   0   5   2  165.78   12.20
   0   5   2  124.19   17.80
   0   5  -2  125.19   11.70
   1  -5   2 1077.49   42.30
   1  -5   2 1083.59   37.90
   1  -5   2  890.51   52.99
   1  -5   2 1083.59   37.90
  -1   5  -2 1077.49   36.10
   1   5   2  975.40   42.80
  -1   5  -2 1077.49   36.10
  -1   5  -2 1086.69   42.50
   1   5   2 1003.70   46.20
   2  -5   2  461.85   22.50
   2  -5   2  474.15   23.90
   2  -5   2  502.05   27.90
   2  -5   2  461.85   22.50
  -2   5  -2  469.15   22.80
  -2   5  -2  439.66   24.50
  -2   5  -2  481.45   27.50
   2   5   2  463.95   27.00
  -2   5  -2  469.15   22.80
   3  -5   2   82.99   12.90
   3  -5   2  116.49   14.80
   3  -5   2   68.09   10.00
   3  -5   2   68.09   10.00
  -3   5  -2   79.19   13.10
  -3   5  -2   54.69   10.70
  -3   5  -2   54.69   10.70
   3   5   2   85.89   14.50
  -3   5  -2   73.29   13.80
   4  -5   2  242.68   16.40
   4  -5   2  268.27   21.70
   4  -5   2  242.68   16.40
  -4   5  -2  198.78   19.80
  -4   5  -2  222.88   18.20
  -4   5  -2  161.88   15.40
  -4   5  -2  161.88   15.40
   5  -5   2  206.68   17.60
  -5   5  -2  192.78   17.10
  -5   5  -2  211.88   18.80
   6  -5   2  102.69   12.50
   6  -5   2  109.49   14.20
  -6   5  -2   71.79    9.30
  -6   5  -2   90.59   11.20
   5  -6  -2   42.70    8.10
  -5   6   2   47.10    8.20
  -5   6   2   47.10    8.20
   4  -6  -2   22.70    8.50
   4  -6  -2   17.00   10.50
   4  -6  -2   21.70    8.40
   4  -6  -2   22.70    8.50
  -4   6   2   23.80    9.40
   4   6  -2   22.30   10.40
  -4   6   2   23.80    9.40
   3  -6  -2   50.19   10.90
  -3  -6   2   38.30    9.40
   3  -6  -2   70.89   12.00
   3  -6  -2   55.69   13.20
   3  -6  -2   50.19   10.90
  -3   6   2   62.19    9.60
  -3   6   2   62.19    9.60
   3   6  -2   54.79   13.10
   2  -6  -2  130.99   13.80
  -2  -6   2  102.69   13.60
   2  -6  -2  130.99   13.80
   2  -6  -2  123.19   16.00
   2  -6  -2  135.89   16.70
  -2   6   2  117.79   12.00
   2   6  -2  110.19   16.20
   2   6  -2   79.89    8.30
   2   6  -2   79.89    8.30
  -2   6   2  117.79   12.00
   1  -6  -2  129.99   14.00
   1  -6  -2  129.99   14.00
  -1  -6   2  116.89   15.00
   1  -6  -2  131.09   16.00
  -1   6   2   97.09   10.80
  -1   6   2  133.99   19.30
   1   6  -2  146.69   17.70
  -1   6   2   97.09   10.80
   1   6  -2   97.89   10.20
   1   6  -2   97.89   10.20
   0  -6   2  109.19   12.10
   0  -6   2  136.29   15.30
   0  -6  -2  152.18   16.60
   0  -6   2  109.19   12.10
   0   6   2  111.69   17.90
   0   6  -2   89.69   11.20
   0   6   2  143.99   12.00
   0   6  -2   89.69   11.20
   0   6   2  143.99   12.00
   1  -6   2  242.78   19.70
   1  -6   2  250.67   16.80
   1  -6   2  219.28   17.50
   1  -6   2  250.67   16.80
  -1   6  -2  233.78   17.40
  -1   6  -2  233.78   17.40
   1   6   2  199.78   19.80
  -1   6  -2  243.08   20.90
   2  -6   2  307.67   22.10
   2  -6   2  338.47   21.10
   2  -6   2  290.17   21.20
   2  -6   2  338.47   21.10
  -2   6  -2  306.97   21.90
   2   6   2  327.47   26.90
  -2   6  -2  344.07   20.50
  -2   6  -2  344.07   20.50
   3  -6   2  130.09   13.80
   3  -6   2  130.09   13.80
   3   6   2  127.69   17.00
  -3   6  -2  149.39   16.60
  -3   6  -2  153.68   14.90
  -3   6  -2  116.49   13.50
  -3   6  -2  116.49   13.50
   4  -6   2  465.95   23.90
   4  -6   2  438.46   25.00
   4  -6   2  465.95   23.90
  -4   6  -2  473.45   24.30
  -4   6  -2  446.76   23.00
  -4   6  -2  476.75   24.80
  -4   6  -2  446.76   23.00
   5  -6   2   41.10    8.50
  -5   6  -2   19.90    6.70
   4  -7  -2  252.57   15.20
   4  -7  -2  224.38   12.60
   4  -7  -2  219.18   14.70
   4  -7  -2  224.38   12.60
  -4   7   2  213.08   11.90
  -4   7   2  213.08   11.90
  -3  -7   2   76.49   10.40
   3  -7  -2   83.59   10.20
   3  -7  -2   49.30    9.90
   3  -7  -2   83.59   10.20
   3   7  -2   57.09   11.20
  -3   7   2   85.99    9.10
  -3   7   2   85.99    9.10
   2  -7  -2  178.18   16.10
   2  -7  -2  146.19   14.60
  -2  -7   2  131.99   14.80
   2  -7  -2  146.19   14.60
   2   7  -2  151.88   15.10
  -2   7   2  155.68   11.70
  -2   7   2  155.68   11.70
   1  -7  -2   16.00    9.30
  -1  -7   2   19.00    8.00
   1  -7  -2   14.80    7.00
   1  -7  -2   14.80    7.00
  -1   7   2   16.00    5.40
  -1   7   2   16.00    5.40
   1   7  -2   21.00    8.10
   1   7  -2   10.80    5.90
   1   7  -2   10.80    5.90
   0  -7  -2    8.80    6.50
   0  -7   2    6.00    8.80
   0  -7  -2    8.80    6.50
   0  -7   2    5.10    7.30
   0  -7   2    5.10    7.30
   0  -7  -2    4.50    8.30
   0   7  -2    7.70    6.90
   0   7  -2    0.80    8.30
   0   7  -2    7.70    6.90
   1  -7   2  106.59   13.60
  -1  -7  -2  136.19   13.00
   1  -7   2  137.49   13.30
  -1  -7  -2  136.19   13.00
   1  -7   2  137.49   13.30
   1   7   2  112.49   18.50
  -1   7  -2   98.19   11.20
  -1   7  -2   98.19   11.20
  -1   7  -2  103.69   13.40
   2  -7   2    8.00    6.20
   2  -7   2    8.00    6.20
   2  -7   2   11.00    9.60
   2   7   2   -9.90   11.70
  -2   7  -2    3.80    8.20
  -2   7  -2    3.80    8.20
  -2   7  -2   -2.70    5.60
   3  -7   2   17.70    6.90
   3  -7   2   17.70    6.90
  -3   7  -2    9.10    6.60
  -3   7  -2    9.10    6.60
   4  -7   2  228.38   13.50
   4  -7   2  228.38   13.50
  -4   7  -2  232.78   12.90
  -4   7  -2  232.78   12.90
   2  -8  -2   -1.60    4.00
   2  -8  -2   -1.60    4.00
  -2  -8   2   -0.90    4.30
   1  -8  -2    2.40    5.10
  -1  -8   2    1.30    7.40
   1  -8  -2   -5.20    4.90
   1  -8  -2    2.40    5.10
   0  -8  -2   34.70    6.50
   0  -8   2   40.20    8.00
   0  -8  -2   51.99    8.80
   0  -8  -2   34.70    6.50
   1  -8   2  176.98   12.90
   1  -8   2  170.38   12.60
   1  -8   2  176.98   12.90
  -1  -8  -2  186.58   13.20
  -1   8  -2  183.88   10.10
  -1   8  -2  183.88   10.10
   2  -8   2  173.78   11.30
   2  -8   2  173.78   11.30
   8   0  -3   -6.30    4.00
   7   0  -3   -7.90   11.30
  -7   0   3    0.00    6.50
   7   0  -3   -0.80    9.80
   7   0  -3    0.70   12.00
   6   0  -3   12.90   12.30
   6   0  -3   -1.50    9.40
   6   0  -3   -0.70    4.10
   6   0  -3   -0.70    4.10
   6   0  -3   -3.60    7.10
  -6   0   3  -12.40    7.30
   5   0  -3   -0.60    6.30
  -5   0   3    0.40    6.90
   5   0  -3    3.10    5.80
   5   0  -3   -2.70    5.00
   5   0  -3    3.10    5.80
   5   0  -3    2.80    6.30
  -4   0   3    2.90    6.20
  -3   0   3   -1.10    7.00
   3   0  -3    0.00    4.10
   2   0  -3    0.10    3.20
  -2   0   3   -7.40    5.80
   2   0  -3   -0.90    4.20
   1   0  -3   30.30    5.70
   1   0  -3   -0.80    2.90
  -1   0   3    2.20    4.20
   0   0  -3    3.50    3.60
   0   0  -3   -1.20    3.30
   0   0   3    1.50    4.40
   0   0   3    0.00    1.10
  -1   0  -3   -0.30    2.20
   1   0   3    0.60    2.30
  -1   0  -3    0.00    2.90
  -1   0  -3    1.40    3.10
  -2   0  -3    3.50    2.90
  -2   0  -3    2.10    3.20
  -3   0  -3   -1.20    3.50
  -3   0  -3   -4.80    2.80
   4   0   3   -5.20    2.90
   4   0   3   -5.60    5.90
   4   0   3   -5.20    2.90
   4   0   3    6.50    7.40
  -4   0  -3   -0.70    4.40
  -4   0  -3    0.20    3.80
   4   0   3   -1.50    4.20
   5   0   3   -1.90    7.90
   5   0   3    1.30    6.90
   5   0   3   -4.20    8.10
   5   0   3   -3.60    3.60
   5   0   3   -6.50    7.20
   5   0   3   -3.60    3.60
   6   0   3   -4.70    6.70
   6   0   3    8.90    6.70
   6   0   3   -2.40    4.50
   6   0   3   -0.40    8.70
   6   0   3   -2.40    4.50
   7   0   3   -4.70    5.80
   7   0   3    0.90    7.50
   7   0   3    0.90    7.50
   7  -1  -3    3.20    8.90
   7  -1  -3    2.90    7.00
   7  -1  -3    7.00    7.60
  -7  -1   3    2.70    8.50
   7  -1  -3   -1.40    8.10
   7  -1  -3    7.00    7.60
   7   1  -3   -3.10    6.40
  -7   1   3   -2.60    6.00
   7   1  -3   -1.60    8.50
   6  -1  -3  478.75   31.70
   6  -1  -3  463.75   28.00
   6  -1  -3  484.85   22.80
  -6  -1   3  454.55   26.80
   6  -1  -3  478.85   33.90
   6  -1  -3  484.85   22.80
  -6   1   3  537.75   28.30
   6   1  -3  444.46   33.90
   6   1  -3  501.45   30.70
   6   1  -3  475.85   30.50
   6   1  -3  443.36   19.60
   6   1  -3  443.36   19.60
  -5  -1   3   66.39   11.60
   5  -1  -3   55.99   14.40
   5  -1  -3   65.59    9.80
   5  -1  -3   56.49   13.30
   5  -1  -3   65.59    9.80
   5   1  -3   73.29   16.90
   5   1  -3   76.59    9.40
  -5   1   3   75.89   22.90
   5   1  -3   62.09   14.30
   5   1  -3   67.69   13.30
  -5   1   3   42.00   10.80
   5   1  -3   76.59    9.40
  -4  -1   3  406.96   29.80
   4  -1  -3  419.76   18.10
   4  -1  -3  419.76   18.10
   4  -1  -3  383.06   24.40
   4   1  -3  386.26   26.20
  -4   1   3  393.26   30.40
  -4   1   3  405.36   22.20
   4   1  -3  417.86   25.40
  -3  -1   3    3.30    5.30
   3  -1  -3   -9.70    4.90
  -3   1   3    4.80    6.10
   2  -1  -3   37.30    7.60
   2  -1  -3   40.50    7.70
  -2  -1   3   44.80    9.90
   2   1  -3   33.20    6.20
  -2   1   3   32.90    9.30
  -1  -1   3   24.40    7.80
   1  -1  -3   34.40    5.50
   1  -1  -3   27.60    5.10
  -1  -1   3   32.90    4.70
   1   1  -3   29.00    5.20
  -1   1   3   22.10    7.20
   1   1  -3   25.80    4.90
   0  -1   3 5885.81  146.69
   0  -1  -3 5764.42  139.99
   0  -1  -3 5759.32  139.79
   0   1   3 5259.77  139.79
   0   1   3 5820.32  141.59
   0   1  -3 5768.52  142.39
   0   1  -3 5592.14  141.99
  -1  -1  -3 1072.69   29.30
   1  -1   3 1029.10   36.30
  -1  -1  -3 1135.89   29.30
  -1   1  -3 1071.29   33.80
  -1   1  -3 1083.69   33.50
   1   1   3 1069.59   32.80
  -2  -1  -3  156.78    6.20
   2  -1   3  143.99   11.70
  -2  -1  -3  162.08    6.80
  -2   1  -3  154.58   11.90
  -2   1  -3  151.78   11.50
  -3  -1  -3   41.70    5.00
  -3   1  -3   32.00    7.30
  -3   1  -3   35.70    7.60
   4  -1   3    4.40    6.50
  -4  -1  -3    3.40    3.20
   4  -1   3   -0.90    5.00
   4  -1   3   -0.90    5.00
   4  -1   3    1.00    5.60
   4  -1   3    0.70    4.50
   4   1   3    7.20    5.40
   4   1   3    7.20    5.40
   4   1   3    1.10    6.20
   4   1   3   -5.80    6.20
  -4   1  -3    3.40    5.80
   4   1   3    3.60    8.80
  -4   1  -3    5.10    5.80
   5  -1   3   20.10    5.80
   5  -1   3   19.40   10.80
   5  -1   3   29.20    9.70
   5  -1   3   30.60   10.40
   5  -1   3   20.10    5.80
   5  -1   3   25.90    9.60
   5   1   3   14.10    7.80
   5   1   3   15.40    7.20
   5   1   3   20.60    9.60
   5   1   3   15.40    7.20
   6  -1   3   -2.00    7.10
   6  -1   3   -2.20    8.60
   6  -1   3   -2.00    7.10
   6  -1   3  -16.20    9.10
   6  -1   3   -0.40    7.60
   6  -1   3   -4.80    8.40
   6   1   3   -0.50    4.50
   6   1   3   -0.50    4.50
   6   1   3   -8.80    5.50
   7  -1   3   17.30    6.60
   7  -1   3   17.30    6.60
   7  -1   3   13.90    6.90
   7  -1   3   14.20    9.40
   7   1   3   -5.40    7.20
   7   1   3   -5.40    7.20
   7   1   3   15.90    8.80
   7  -2  -3   34.40    8.60
   7  -2  -3   14.90    9.20
   7  -2  -3   34.40    8.60
   7  -2  -3   39.40   12.30
   7   2  -3   20.80   10.50
   7   2  -3    2.70   11.00
  -7   2   3   28.80    9.70
   6  -2  -3  462.55   31.20
   6  -2  -3  437.36   27.80
   6  -2  -3  427.26   31.10
  -6  -2   3  430.96   25.20
   6  -2  -3  386.96   26.20
   6   2  -3  463.05   28.70
   6   2  -3  463.05   31.10
   6   2  -3  484.65   35.40
  -6   2   3  486.45   27.30
   5  -2  -3  587.84   30.30
   5  -2  -3  604.64   25.70
   5  -2  -3  545.05   33.50
   5  -2  -3  579.94   35.40
   5  -2  -3  604.64   25.70
   5   2  -3  526.05   21.60
   5   2  -3  526.05   21.60
   5   2  -3  522.15   34.90
  -5   2   3  560.34   28.90
   5   2  -3  533.85   29.90
   5   2  -3  594.34   34.10
   4  -2  -3  495.75   26.20
   4  -2  -3  509.65   21.90
   4  -2  -3  501.75   33.50
   4  -2  -3  468.25   24.60
   4  -2  -3  487.15   27.60
   4  -2  -3  509.65   21.90
   4  -2  -3  524.05   30.20
   4   2  -3  528.25   20.10
  -4   2   3  501.85   35.40
   4   2  -3  486.75   29.30
  -4   2   3  495.05   25.90
   4   2  -3  528.25   20.10
   4   2  -3  470.75   28.00
   4   2  -3  502.05   25.50
  -4   2   3  475.85   27.50
  -3  -2   3    7.30    8.10
   3  -2  -3    3.50    4.90
  -3   2   3    7.10    8.00
  -3   2   3    9.50    7.00
  -2  -2   3   51.29   11.10
   2  -2  -3   49.30    9.20
   2  -2  -3   52.49    8.70
   2   2  -3   48.60    8.10
  -2   2   3   44.10    7.70
  -2   2   3   52.39   10.60
  -1  -2   3  197.58   15.70
   1  -2  -3  199.08   13.20
   1  -2  -3  201.18   13.20
  -1   2   3  190.08   14.30
  -1   2   3  172.58   11.70
   1   2  -3  211.18   13.60
   0  -2  -3 5307.57  127.79
   0  -2  -3 5177.08  127.79
   0  -2   3 5204.78  137.39
   0   2  -3 4988.30  131.29
   0   2   3 5266.27  131.99
   0   2   3 4834.12  126.29
   0   2   3 5050.69  127.09
   0   2  -3 4813.62  126.39
   0   2  -3 5260.77  131.59
   1  -2   3   34.30    9.60
  -1  -2  -3   26.60    4.00
  -1  -2  -3   40.40    4.30
  -1   2  -3   30.90    7.30
  -1   2  -3   36.50    6.90
  -1   2  -3   35.30    5.30
   1   2   3   47.80    8.40
   2  -2   3  181.28   15.80
  -2  -2  -3  182.68    6.10
  -2   2  -3  178.68   15.70
  -2   2  -3  181.98   13.60
  -3  -2  -3  883.41   22.60
  -3  -2  -3  878.91   22.50
   3  -2   3  892.71   38.30
  -3   2  -3  936.91   36.60
  -3   2  -3  913.61   37.50
   4  -2   3  294.77   16.20
   4  -2   3  260.47   18.30
   4  -2   3  294.77   16.20
   4  -2   3  309.67   16.80
   4  -2   3  286.07   23.60
   4  -2   3  297.57   20.20
   4  -2   3  309.67   16.80
  -4  -2  -3  311.47   11.20
  -4   2  -3  325.37   22.30
  -4   2  -3  301.27   21.90
   4   2   3  297.37   16.60
   4   2   3  281.17   20.50
  -4   2  -3  283.47   19.20
   4   2   3  297.37   16.60
   5  -2   3   27.80   12.00
   5  -2   3   40.40    9.80
   5  -2   3   45.20   11.50
   5  -2   3   52.39   13.10
   5  -2   3   37.70    8.30
   5  -2   3   37.70    8.30
   5   2   3   28.50    7.80
   5   2   3   28.50    7.80
   5   2   3   41.50   12.00
  -5   2  -3   35.30   10.80
   6  -2   3   39.10   10.20
   6  -2   3   42.10   10.30
   6  -2   3   40.10    7.90
   6  -2   3   38.40   11.90
   6  -2   3   40.10    7.90
   6  -2   3   47.80   12.80
   6   2   3   27.40   11.30
   6   2   3   52.39    9.50
  -6   2  -3   18.30    9.70
   6   2   3   52.39    9.50
   7  -2   3   12.10    5.60
   7  -2   3    2.40    5.10
   7  -2   3   12.10    5.60
   7  -2   3    6.50    5.70
  -7   2  -3   -8.00    6.20
   7   2   3   -6.10    8.90
   7  -3  -3   26.20    8.80
   7  -3  -3   50.89    7.00
   7  -3  -3   50.89    7.00
  -7   3   3   66.19   10.70
   6  -3  -3  257.87   21.80
   6  -3  -3  269.57   21.50
   6  -3  -3  275.17   26.30
  -6   3   3  264.77   22.70
   6   3  -3  278.47   26.50
   6   3  -3  259.07   24.00
   5  -3  -3   93.49   13.60
   5  -3  -3   70.89   16.40
  -5   3   3   88.29   13.70
   5   3  -3   72.99   15.40
   5   3  -3   58.19   16.40
   4  -3  -3   33.10    7.90
   4  -3  -3   39.60   11.00
   4  -3  -3   33.10    7.90
   4  -3  -3   34.60   14.30
   4  -3  -3   46.40   12.50
   4  -3  -3   39.80   11.50
   4  -3  -3   52.19   12.40
  -4   3   3   60.59   15.70
   4   3  -3   47.40    7.10
   4   3  -3   50.79   10.60
  -4   3   3   57.39   12.10
   4   3  -3   59.89   13.80
   4   3  -3   39.60   11.20
  -4   3   3   40.30   10.80
   4   3  -3   47.40    7.10
   3  -3  -3  146.59   16.90
   3  -3  -3  181.78   23.70
   3  -3  -3  182.88   16.50
   3  -3  -3  167.58   15.70
  -3   3   3  189.18   23.70
   3   3  -3  189.28   19.00
  -3   3   3  207.18   20.00
   3   3  -3  194.88   15.50
   2  -3  -3 1436.36   51.99
  -2  -3   3 1474.15   57.39
   2  -3  -3 1501.75   50.99
  -2   3   3 1393.16   50.49
  -2   3   3 1556.74   58.59
   1  -3  -3  578.34   25.30
   1  -3  -3  614.34   26.40
  -1  -3   3  580.94   31.30
  -1   3   3  628.84   30.10
   1   3  -3  627.04   26.50
  -1   3   3  637.64   29.80
   1   3  -3  590.04   26.50
   0  -3  -3    7.30    4.60
   0  -3  -3    1.80    4.30
   0  -3   3    0.70    5.20
   0   3  -3    1.20    4.20
   0   3  -3    2.60    4.70
   0   3   3    4.50    6.40
   1  -3   3  275.37   21.80
  -1  -3  -3  272.27   13.50
  -1  -3  -3  288.17   13.10
  -1   3  -3  307.17   18.20
   1   3   3  309.47   19.90
  -1   3  -3  269.07   16.30
  -2  -3  -3  279.47   11.60
   2  -3   3  284.87   24.50
  -2   3  -3  298.07   19.50
   2   3   3  274.77   22.50
   3  -3   3  231.98   24.70
   3  -3   3  194.48   14.00
   3  -3   3  195.48   16.50
   3  -3   3  194.48   14.00
  -3   3  -3  210.58   20.20
  -3   3  -3  174.48   15.80
   3   3   3  181.78   15.10
   4  -3   3  447.86   21.20
   4  -3   3  444.16   22.60
   4  -3   3  447.86   21.20
   4  -3   3  487.15   29.00
   4  -3   3  444.16   22.60
   4  -3   3  512.05   26.50
   4   3   3  455.25   26.60
  -4   3  -3  481.05   26.40
   5  -3   3   71.39    9.90
   5  -3   3   89.19   14.30
   5  -3   3   70.09   15.70
   5  -3   3   71.39    9.90
   5   3   3   73.29   13.20
  -5   3  -3   86.99   13.90
   6  -3   3  546.95   33.30
   6  -3   3  529.15   28.80
   6  -3   3  542.05   23.00
   6  -3   3  542.05   23.00
  -6   3  -3  507.65   28.10
   6   3   3  511.85   27.80
  -6   3  -3  512.65   28.80
   7  -3   3    2.50    6.00
   7  -3   3    5.90    6.20
   7  -3   3    6.10    5.90
   7  -3   3    2.50    6.00
  -7   3  -3    0.70    4.90
  -7   3  -3   -0.50    5.00
   6  -4  -3   -0.40    6.60
   6  -4  -3   12.70    8.90
  -6   4   3    9.80    9.90
   5  -4  -3  207.58   22.60
   5  -4  -3  183.48   17.50
   5  -4  -3  222.68   18.70
   5   4  -3  216.18   22.10
  -5   4   3  200.98   16.50
  -5   4   3  203.78   20.50
  -5   4   3  200.98   16.50
   4  -4  -3 1615.24   58.69
   4  -4  -3 1619.34   61.09
   4  -4  -3 1543.45   56.39
  -4   4   3 1607.74   50.99
   4   4  -3 1626.44   64.19
  -4   4   3 1607.74   50.99
  -4   4   3 1563.64   56.29
   4   4  -3 1642.44   59.59
   3  -4  -3  415.96   23.90
   3  -4  -3  369.06   33.90
   3  -4  -3  386.16   24.30
   3  -4  -3  343.57   24.50
   3   4  -3  395.26   17.50
  -3   4   3  392.46   22.50
  -3   4   3  409.86   20.30
  -3   4   3  374.86   30.60
  -3   4   3  409.86   20.30
   3   4  -3  395.26   17.50
   3   4  -3  428.96   25.70
   3   4  -3  389.06   26.30
   2  -4  -3  205.88   17.40
   2  -4  -3  240.98   27.30
  -2  -4   3  243.58   27.60
   2  -4  -3  223.28   20.60
  -2  -4   3  204.18   15.40
   2  -4  -3  218.88   17.60
   2   4  -3  236.08   20.60
   2   4  -3  232.68   13.30
  -2   4   3  211.78   12.90
   2   4  -3  232.68   13.30
  -2   4   3  211.78   12.90
   2   4  -3  203.68   17.70
   1  -4  -3   55.89   14.10
   1  -4  -3   75.59   11.90
  -1  -4   3   66.39   15.50
   1  -4  -3   74.09   11.40
  -1   4   3   64.69   12.80
  -1   4   3   63.89   15.30
   1   4  -3   47.10   10.40
   0  -4  -3 1976.50   61.69
   0  -4  -3 1988.80   60.19
   0  -4   3 1918.81   73.39
   0   4  -3 1944.31   65.19
   0   4   3 1870.81   68.69
   1  -4   3   20.50    8.50
   1  -4   3   24.60    8.30
  -1  -4  -3   19.70    5.00
   1  -4   3   21.60    6.70
  -1  -4  -3   27.10    6.50
   1  -4   3   21.60    6.70
   1  -4   3   29.80   11.90
   1   4   3   32.80    9.60
   1   4   3   20.60    9.90
  -1   4  -3   19.10    8.70
  -1   4  -3   11.90    8.60
   2  -4   3    1.20    4.00
   2  -4   3   -1.50    6.60
   2  -4   3   -0.20    6.30
   2  -4   3    1.20    4.00
   2  -4   3    0.50    7.90
  -2  -4  -3    4.10    3.40
   2   4   3   -4.70    7.60
  -2   4  -3   -1.40    4.90
  -2   4  -3    0.20    6.90
  -2   4  -3    4.60    8.00
  -2   4  -3    0.20    6.90
   2   4   3    7.80    7.80
  -2   4  -3    5.60    7.30
   3  -4   3   19.20    9.70
   3  -4   3   19.80    7.20
   3  -4   3   19.80    7.20
   3  -4   3   15.90    6.90
  -3   4  -3   15.30    8.60
  -3   4  -3   15.30    8.80
   3   4   3    3.00    7.90
   4  -4   3  171.58   13.20
   4  -4   3  133.89   16.50
   4  -4   3  171.58   13.20
   4  -4   3  120.69   17.60
   4  -4   3  120.69   17.60
  -4   4  -3  162.88   15.80
  -4   4  -3  137.19   17.00
   5  -4   3   60.49   13.00
   5  -4   3   61.59   10.70
   5  -4   3   58.19    8.40
   5  -4   3   61.59   10.70
   5  -4   3   58.19    8.40
  -5   4  -3   64.49   12.70
  -5   4  -3   73.49   12.40
   6  -4   3  105.89    9.40
   6  -4   3   86.09   12.30
   6  -4   3  105.89    9.40
   6  -4   3   82.99   13.60
  -6   4  -3   58.89   12.00
  -6   4  -3   63.79   10.80
  -6   5   3  332.97   16.90
  -6   5   3  332.97   16.90
  -6   5   3  286.97   17.10
   5  -5  -3   29.20   11.20
   5  -5  -3   17.70   10.00
  -5   5   3   24.30    9.60
  -5   5   3   27.40    7.70
   5   5  -3   32.00   11.70
  -5   5   3   27.40    7.70
   4  -5  -3   21.60    9.00
   4  -5  -3   21.90    9.30
   4   5  -3   26.90   10.60
   4   5  -3   22.60    8.90
  -4   5   3   13.50    8.40
  -4   5   3   13.50    8.40
   3  -5  -3  344.37   19.20
  -3  -5   3  346.97   21.60
   3  -5  -3  339.67   24.40
   3  -5  -3  350.96   24.10
   3  -5  -3  344.37   19.20
   3   5  -3  283.67   15.40
   3   5  -3  329.87   23.30
   3   5  -3  317.57   26.70
   3   5  -3  283.67   15.40
  -3   5   3  341.07   19.50
  -3   5   3  341.07   19.50
   2  -5  -3  238.58   19.30
  -2  -5   3  230.48   18.30
   2  -5  -3  238.18   18.50
  -2   5   3  235.88   15.30
   2   5  -3  243.28   14.80
   2   5  -3  260.47   21.50
  -2   5   3  217.08   20.80
   2   5  -3  243.28   14.80
  -2   5   3  235.88   15.30
   1  -5  -3   27.70    9.60
  -1  -5   3   18.50    8.00
   1  -5  -3   25.40    8.80
   1  -5  -3   38.50   12.10
  -1  -5   3   10.30   13.70
  -1   5   3   23.80    7.10
  -1   5   3   29.10   12.40
  -1   5   3   23.80    7.10
   1   5  -3   25.10    6.60
   1   5  -3   25.10    6.60
   1   5  -3   22.20    9.90
  -1   5   3   39.10   10.20
   0  -5  -3    2.40    7.10
   0  -5   3    1.40    5.90
   0  -5   3    1.40    5.90
   0  -5  -3    3.00    7.30
   0  -5  -3   -0.80    6.00
   0  -5   3   13.00   12.60
   0  -5   3    3.80    5.00
   0   5   3   -5.10    7.60
   0   5  -3   -4.50    5.70
   0   5   3    0.20    4.70
   0   5   3    2.80    9.80
   0   5  -3   -4.50    5.70
   0   5  -3    0.50    7.90
   0   5   3    0.20    4.70
   1  -5   3   14.10    8.90
   1  -5   3   29.90    7.80
   1  -5   3   29.90    7.80
   1  -5   3   35.90    8.60
   1   5   3   28.60   10.60
  -1   5  -3   27.40    8.10
  -1   5  -3   27.40    8.10
   1   5   3   26.00   11.70
  -1   5  -3   37.00    9.30
  -1   5  -3   37.40    9.50
   2  -5   3 1524.75   55.79
   2  -5   3 1659.63   51.69
   2  -5   3 1659.63   51.69
   2  -5   3 1590.44   52.89
  -2   5  -3 1624.14   57.09
  -2   5  -3 1506.55   49.90
  -2   5  -3 1506.55   49.90
   2   5   3 1415.46   59.59
  -2   5  -3 1523.75   54.79
   2   5   3 1571.64   58.29
   3  -5   3   29.20   10.40
   3  -5   3   33.50    8.10
   3  -5   3   33.50    8.10
  -3   5  -3   23.50   10.30
  -3   5  -3   37.50    8.60
  -3   5  -3   38.90    9.90
  -3   5  -3   37.50    8.60
   3   5   3   31.70   11.80
   4  -5   3  120.19   15.20
   4  -5   3   92.99   12.60
   4  -5   3   92.99   12.60
  -4   5  -3   82.19   14.10
  -4   5  -3  129.49   15.80
   5  -5   3   24.80    7.10
   5  -5   3   18.10   10.30
   5  -5   3   24.80    7.10
  -5   5  -3   16.80    7.50
  -5   5  -3   25.10    8.50
   6  -5   3  109.19   12.50
  -6   5  -3   95.39   10.80
   5  -6  -3   37.10    7.90
   5  -6  -3   82.89   11.60
  -5   6   3   64.69    8.40
  -5   6   3   64.69    8.40
   4  -6  -3   93.89   14.20
   4  -6  -3   96.09   10.80
   4  -6  -3   96.09   10.80
   4  -6  -3  131.89   15.10
  -4   6   3  113.19   12.60
  -4   6   3  113.19   12.60
   4   6  -3   84.29   14.20
  -3  -6   3    1.90    5.20
   3  -6  -3   -4.00    5.30
   3  -6  -3   -4.00    5.30
   3  -6  -3    0.60    6.30
   3  -6  -3    8.00   10.40
  -3   6   3   -5.70    7.10
   3   6  -3    1.90    9.40
  -3   6   3   -5.70    7.10
   2  -6  -3  104.79   12.60
   2  -6  -3  104.79   12.60
   2  -6  -3  106.39   15.90
   2  -6  -3   76.49   13.40
  -2  -6   3  105.99   13.60
   2   6  -3   78.29   15.00
   2   6  -3   62.89    8.60
   2   6  -3   62.89    8.60
  -2   6   3   69.19   10.20
  -2   6   3   69.19   10.20
   1  -6  -3  372.56   24.60
  -1  -6   3  404.36   23.40
   1   6  -3  334.57   25.50
   1   6  -3  372.06   18.40
   1   6  -3  372.06   18.40
  -1   6   3  373.16   18.50
  -1   6   3  373.16   18.50
  -1   6   3  374.76   25.80
   0  -6  -3  316.27   22.80
   0  -6   3  362.26   19.90
   0  -6   3  398.96   24.90
   0  -6   3  362.26   19.90
   0   6   3  395.46   26.30
   0   6  -3  371.76   25.80
   0   6  -3  381.36   20.50
   0   6  -3  381.36   20.50
   1  -6   3   58.49   10.30
   1  -6   3   58.49   10.30
   1  -6   3   84.69   13.90
  -1   6  -3   71.49   12.90
   1   6   3   59.79   15.10
   1   6   3   78.09   14.50
  -1   6  -3   94.89   11.70
  -1   6  -3   94.89   11.70
   2  -6   3   79.19   12.20
   2  -6   3   93.79   12.40
   2  -6   3   79.19   12.20
  -2   6  -3  100.79   15.00
  -2   6  -3   96.79   11.90
  -2   6  -3   96.79   11.90
   2   6   3   81.19   15.70
   3  -6   3   53.39    9.40
   3  -6   3   53.39    9.40
  -3   6  -3   40.70    9.80
  -3   6  -3   42.50    9.60
   3   6   3   66.89   13.00
  -3   6  -3   56.29   11.40
  -3   6  -3   40.70    9.80
   4  -6   3  545.95   25.80
   4  -6   3  545.95   25.80
  -4   6  -3  512.65   24.60
  -4   6  -3  512.65   24.60
   5  -6   3   54.29    7.90
   5  -6   3   63.29   12.80
   5  -6   3   54.29    7.90
  -5   6  -3   37.30    7.90
   4  -7  -3   16.90    6.00
  -4   7   3   17.90    4.50
  -4   7   3   17.90    4.50
  -3  -7   3   26.70    8.30
   3  -7  -3   37.70    8.50
   3  -7  -3   64.19   10.40
   3  -7  -3   64.19   10.40
   3   7  -3   22.80    9.40
  -3   7   3   71.59    8.30
  -3   7   3   71.59    8.30
  -2  -7   3  972.50   38.20
   2  -7  -3 1036.10   36.00
   2  -7  -3 1036.10   36.00
   2  -7  -3  859.71   37.80
  -2   7   3  971.60   31.60
   2   7  -3  965.70   39.80
  -2   7   3  971.60   31.60
   1  -7  -3  394.66   24.00
   1  -7  -3  419.16   21.60
   1  -7  -3  419.16   21.60
  -1  -7   3  411.66   25.10
   1   7  -3  407.76   18.70
   1   7  -3  407.76   18.70
   1   7  -3  381.66   24.00
  -1   7   3  396.96   17.10
  -1   7   3  396.96   17.10
   0  -7  -3  124.39   14.00
   0  -7  -3  143.89   15.50
   0  -7   3  150.18   13.10
   0  -7  -3  124.39   14.00
   0  -7   3  109.19   13.10
   0  -7   3  150.18   13.10
   0   7  -3  103.59   11.30
   0   7   3  119.59   18.30
   0   7  -3  103.59   11.30
   0   7  -3  120.99   16.00
  -1  -7  -3  164.38   13.70
   1  -7   3  142.59   13.00
  -1  -7  -3  164.38   13.70
   1  -7   3  142.59   13.00
   1  -7   3  125.79   14.90
  -1   7  -3  166.88   12.90
  -1   7  -3  166.88   12.90
  -1   7  -3  159.68   15.80
   1   7   3  188.18   20.40
   2  -7   3   69.79   10.30
   2  -7   3   69.79   10.30
   2  -7   3   55.99   11.40
   2   7   3   66.99   13.70
  -2   7  -3   69.19    9.60
  -2   7  -3   52.99    9.70
  -2   7  -3   69.19    9.60
   3  -7   3   21.80    6.90
   3  -7   3   21.80    6.90
   3   7   3   11.20    8.10
  -3   7  -3    6.90    8.00
  -3   7  -3    7.60    7.60
  -3   7  -3    6.90    8.00
   1  -8  -3   94.39    8.90
   1  -8  -3  112.29   10.40
   1  -8  -3   94.39    8.90
   1  -8  -3  104.49   10.60
   0  -8  -3   15.60    6.80
   0  -8   3   15.70    5.90
   0  -8  -3   15.60    6.80
   0   8  -3   21.10    5.50
   0   8  -3   21.10    5.50
   1  -8   3    2.40    4.80
   1  -8   3    3.10    4.90
   1  -8   3    2.40    4.80
  -1   8  -3    1.10    3.80
  -1   8  -3    1.10    3.80
   7   0  -4  400.96   28.10
   7   0  -4  343.77   25.80
  -7   0   4  345.07   22.00
   7   0  -4  401.76   24.80
   6   0  -4  213.88   19.80
   6   0  -4  239.28   26.00
   6   0  -4  217.78   24.80
  -6   0   4  233.48   20.70
   6   0  -4  223.78   15.70
   6   0  -4  223.78   15.70
   5   0  -4  103.59   18.80
   5   0  -4   56.99    9.00
  -5   0   4  108.49   14.50
   5   0  -4   56.99    9.00
   5   0  -4  102.29   17.30
   5   0  -4   61.19   13.40
  -4   0   4  136.39   21.10
   4   0  -4  118.29   11.60
   4   0  -4  158.48   19.60
  -4   0   4  141.09   12.60
   4   0  -4  118.29   11.60
   4   0  -4  141.69   18.20
   4   0  -4  158.38   20.10
   3   0  -4   47.50    9.30
  -3   0   4   43.80   11.90
   2   0  -4  742.13   29.40
   2   0  -4  753.72   29.40
  -2   0   4  791.42   34.20
   1   0  -4  997.10   33.40
   1   0  -4 1017.10   33.20
  -1   0   4  944.61   36.80
   0   0  -4 1443.96   41.60
   0   0  -4 1412.96   41.90
   0   0   4 1381.86   44.60
  -1   0  -4  187.18   11.10
  -1   0  -4  169.28   10.60
   1   0   4  183.98   10.70
  -2   0  -4 3429.56   86.99
  -2   0  -4 3177.18   85.59
  -3   0  -4   45.30    6.70
  -3   0  -4   54.59    7.60
   4   0   4  338.67   22.70
   4   0   4  334.37   17.50
  -4   0  -4  374.76   19.90
   4   0   4  335.37   24.20
   4   0   4  345.27   24.50
   4   0   4  334.37   17.50
   4   0   4  343.07   20.80
   5   0   4  497.55   22.60
   5   0   4  516.15   28.90
   5   0   4  497.55   22.60
   5   0   4  501.25   30.10
   5   0   4  508.75   34.00
   6   0   4 1014.10   44.70
   6   0   4 1011.20   36.60
   6   0   4 1029.80   48.10
   6   0   4  984.20   41.50
   6   0   4 1011.20   36.60
   7   0   4   25.60   11.00
   7   0   4   29.00    7.00
   7   0   4   29.00    7.00
   7  -1  -4    1.30    7.90
   7  -1  -4  -10.20    7.10
   7  -1  -4    3.00    6.70
  -7  -1   4    2.50    8.10
   7   1  -4    2.40    8.90
  -7   1   4   -3.40    6.10
   7   1  -4    2.00    7.10
   6  -1  -4  293.17   18.10
  -6  -1   4  297.27   20.40
   6  -1  -4  267.67   26.60
   6  -1  -4  251.07   23.20
   6  -1  -4  293.17   18.10
   6   1  -4  274.37   23.80
   6   1  -4  254.77   14.30
   6   1  -4  249.78   24.60
   6   1  -4  254.77   14.30
   6   1  -4  228.88   26.60
  -6   1   4  265.07   20.40
   5  -1  -4    0.20    9.00
   5  -1  -4   -1.50    6.30
  -5  -1   4    1.00    6.80
   5  -1  -4   -1.50    6.30
   5  -1  -4    3.60    7.30
   5   1  -4   -4.90    8.40
  -5   1   4    4.10    7.80
   5   1  -4    7.80    7.00
   5   1  -4   -3.80    5.90
   5   1  -4   -4.20   10.30
   5   1  -4   -3.80    5.90
   4  -1  -4  913.01   41.60
   4  -1  -4  928.31   32.40
  -4  -1   4  925.11   47.70
   4  -1  -4  931.41   42.00
   4  -1  -4  928.31   32.40
   4   1  -4  902.61   42.00
   4   1  -4  946.41   46.80
   4   1  -4  908.31   30.50
  -4   1   4  939.91   37.00
   4   1  -4  913.41   40.50
   4   1  -4  908.31   30.50
  -4   1   4  900.51   47.70
  -3  -1   4  184.98   21.20
   3  -1  -4  195.28   17.70
   3   1  -4  209.38   15.00
  -3   1   4  202.38   21.80
   2  -1  -4  757.92   30.50
  -2  -1   4  845.42   36.80
   2  -1  -4  788.52   31.50
  -2   1   4  795.52   35.20
   2   1  -4  745.13   29.90
  -1  -1   4  380.06   21.50
   1  -1  -4  368.76   17.00
   1  -1  -4  357.16   17.80
   1   1  -4  360.86   18.10
   1   1  -4  385.96   18.60
  -1   1   4  351.06   20.50
   0  -1   4 8325.57  215.68
   0  -1  -4 8631.24  208.28
   0  -1  -4 8304.67  208.38
   0   1   4 8557.64  209.88
   0   1   4 8979.40  207.48
   0   1  -4 8415.56  210.98
   0   1  -4 8437.86  210.78
  -1  -1  -4  127.09    8.00
   1  -1   4  105.29   12.00
  -1  -1  -4  113.99    7.50
  -1   1  -4   93.99    9.50
   1   1   4  103.69    8.70
  -1   1  -4  147.69   11.40
   2  -1   4  122.39   10.90
  -2  -1  -4  139.69    7.80
  -2  -1  -4  112.39    6.50
  -2   1  -4  123.29   11.50
  -2   1  -4  117.69   11.20
  -3  -1  -4   13.80    3.80
  -3   1  -4   -1.50    5.00
  -3   1  -4    9.60    4.40
   4  -1   4  567.94   24.40
   4  -1   4  567.94   24.40
   4  -1   4  580.04   23.80
   4  -1   4  571.84   32.10
  -4  -1  -4  573.34   22.10
   4  -1   4  580.04   23.80
   4  -1   4  571.64   27.90
   4  -1   4  582.14   33.00
   4  -1   4  625.34   30.30
   4   1   4  572.54   29.80
   4   1   4  593.44   24.30
   4   1   4  564.94   28.20
   4   1   4  550.64   33.00
   4   1   4  593.44   24.30
  -4   1  -4  585.24   29.30
  -4   1  -4  592.64   27.80
   5  -1   4  608.84   37.30
   5  -1   4  610.14   32.90
   5  -1   4  630.14   26.70
   5  -1   4  574.64   31.70
   5  -1   4  630.14   26.70
   5  -1   4  581.84   35.80
   5   1   4  628.44   26.00
   5   1   4  628.44   26.00
   5   1   4  569.94   32.70
   5   1   4  608.34   37.10
   6  -1   4  721.93   30.50
   6  -1   4  767.02   36.60
   6  -1   4  737.23   36.60
   6  -1   4  755.62   42.50
   6  -1   4  721.93   30.50
   6   1   4  802.62   38.90
   6   1   4  790.32   31.30
   6   1   4  790.32   31.30
   7  -1   4   -1.50    4.80
   7  -1   4    2.00    5.60
   7  -1   4   -1.50    4.80
   7   1   4   -3.60    4.70
   7   1   4   -3.60    4.70
   7   1   4    2.10    6.70
   7  -2  -4   56.69    7.70
   7  -2  -4   56.69    7.70
   7  -2  -4   63.89   12.50
   7  -2  -4   48.50    9.70
  -7  -2   4   51.59    8.50
  -7   2   4   40.50    9.70
   7   2  -4   88.89   16.20
   7   2  -4   35.70    9.10
   6  -2  -4 1155.58   51.69
  -6  -2   4 1024.60   41.00
   6  -2  -4 1005.30   44.20
   6  -2  -4  993.20   47.10
   6   2  -4 1165.58   54.09
   6   2  -4 1023.00   43.80
  -6   2   4 1045.80   43.00
   6   2  -4 1023.30   48.40
   5  -2  -4  280.57   21.60
   5  -2  -4  354.56   28.70
   5  -2  -4  305.17   24.40
   5  -2  -4  309.47   19.00
   5  -2  -4  309.47   19.00
   5   2  -4  326.67   17.00
   5   2  -4  310.67   26.40
   5   2  -4  331.27   28.50
   5   2  -4  326.67   17.00
  -5   2   4  293.47   22.80
   4  -2  -4  272.67   19.10
   4  -2  -4  275.47   16.60
   4  -2  -4  275.17   21.70
   4  -2  -4  265.57   20.00
   4  -2  -4  227.38   20.90
   4  -2  -4  305.37   24.10
   4  -2  -4  275.47   16.60
   4   2  -4  245.78   14.50
   4   2  -4  245.78   14.50
   4   2  -4  252.37   20.80
   4   2  -4  277.07   20.10
   4   2  -4  267.47   24.30
  -4   2   4  252.27   23.40
  -4   2   4  274.37   30.10
  -4   2   4  265.87   19.70
  -3  -2   4   -2.10    5.50
   3  -2  -4    7.20    7.20
  -3   2   4    3.30    4.80
  -3   2   4   -4.30    8.50
   2  -2  -4  476.45   24.00
  -2  -2   4  471.85   28.80
   2  -2  -4  456.45   23.80
   2   2  -4  432.66   22.60
  -2   2   4  503.75   28.20
   1  -2  -4 1959.30   58.69
  -1  -2   4 1988.40   66.49
   1  -2  -4 1968.40   58.09
  -1   2   4 1812.32   57.09
  -1   2   4 1986.00   62.59
   1   2  -4 2008.40   59.49
  -1   2   4 1956.30   60.09
   0  -2  -4  259.17   13.70
   0  -2   4  261.37   18.60
   0  -2  -4  231.68   13.40
   0   2  -4  243.78   15.40
   0   2   4  248.58   11.90
   0   2  -4  220.58   15.60
   0   2   4  238.18   15.30
   1  -2   4  220.98   19.30
  -1  -2  -4  266.07   11.80
  -1  -2  -4  239.78   11.40
  -1   2  -4  262.67   16.80
   1   2   4  236.18   15.80
  -1   2  -4  284.27   17.70
   2  -2   4 2424.36   78.49
  -2  -2  -4 2535.35   63.59
  -2   2  -4 2469.55   75.89
  -2   2  -4 2616.04   74.99
  -3  -2  -4   48.50    3.20
   3  -2   4   48.20    9.00
  -3  -2  -4   42.20    3.00
  -3   2  -4   36.10    9.60
  -3   2  -4   25.80    8.60
   4  -2   4  227.38   14.40
   4  -2   4  209.38   18.80
   4  -2   4  215.58   18.50
   4  -2   4  219.48   13.60
   4  -2   4  227.38   14.40
   4  -2   4  223.98   21.90
   4  -2   4  219.48   13.60
   4   2   4  192.28   21.50
   4   2   4  217.38   13.70
  -4   2  -4  229.18   17.90
   4   2   4  208.28   17.50
   4   2   4  217.38   13.70
  -4   2  -4  208.28   21.80
   5  -2   4   13.90    9.80
   5  -2   4    2.90    7.60
   5  -2   4   13.40   11.20
   5  -2   4   -0.60    6.40
   5  -2   4    5.40    8.90
   5  -2   4   -0.60    6.40
   5   2   4    4.20    6.70
   5   2   4    9.90    5.40
   5   2   4    9.90    5.40
  -5   2  -4   11.70    9.00
   6  -2   4  436.46   30.40
   6  -2   4  486.25   23.10
   6  -2   4  451.95   25.90
   6  -2   4  429.56   26.30
   6  -2   4  486.25   23.10
  -6   2  -4  443.86   24.10
   6   2   4  427.46   21.80
   6   2   4  472.75   27.50
   6   2   4  427.46   21.80
   7  -2   4   14.90    5.30
   7  -2   4    4.10    5.40
   7  -2   4   14.90    5.30
  -7   2  -4   19.40    8.90
   7   2   4   31.40    8.10
   7  -3  -4    7.80    5.90
   7  -3  -4    0.10    5.80
   7  -3  -4    7.80    5.90
   7   3  -4   -8.90    7.80
  -7   3   4    2.70    6.10
   6  -3  -4   34.20   10.50
   6  -3  -4   26.80   10.40
  -6  -3   4   23.80    8.90
   6  -3  -4   48.90   12.90
   6   3  -4   43.00   12.80
   6   3  -4   43.50   14.60
  -6   3   4   39.80   10.40
   5  -3  -4   20.50   11.30
   5  -3  -4    9.00    9.10
   5  -3  -4   44.30   14.50
   5   3  -4   31.10    6.80
  -5   3   4   17.00    9.30
  -5   3   4   17.00    9.30
   5   3  -4   18.10   11.90
   5   3  -4   26.00   13.50
  -5   3   4   31.00   10.70
   5   3  -4   31.10    6.80
   4  -3  -4  252.87   15.90
   4  -3  -4  245.38   23.30
   4  -3  -4  252.87   15.90
   4  -3  -4  270.87   20.00
   4  -3  -4  252.87   19.30
   4   3  -4  276.37   25.20
  -4   3   4  268.17   20.50
   4   3  -4  263.77   14.10
   4   3  -4  265.87   21.20
   4   3  -4  289.57   23.30
   4   3  -4  263.77   14.10
   3  -3  -4  966.60   34.80
   3  -3  -4 1007.30   43.00
   3  -3  -4  931.61   41.30
   3  -3  -4  949.60   39.40
  -3  -3   4  965.70   49.90
   3  -3  -4  966.60   34.80
   3  -3  -4  989.60   38.50
  -3   3   4  961.90   49.70
  -3   3   4 1029.60   43.40
   3   3  -4 1009.70   39.80
   3   3  -4 1043.10   32.80
   3   3  -4  985.10   44.00
   3   3  -4 1043.10   32.80
  -3   3   4 1018.00   39.00
   2  -3  -4  141.09   16.30
  -2  -3   4  141.29   19.70
   2  -3  -4  145.99   15.30
  -2   3   4  128.99   17.90
  -2   3   4  141.49   17.10
   1  -3  -4  135.69   13.80
  -1  -3   4  143.49   18.20
   1  -3  -4  127.29   12.90
  -1   3   4  140.59   16.20
   1   3  -4  127.29   14.30
  -1   3   4   86.79   12.10
   0  -3  -4 3833.82  104.49
   0  -3   4 4076.79  119.29
   0  -3  -4 3919.91  105.49
   0   3  -4 3900.81  110.19
   0   3   4 3949.80  111.99
   1  -3   4   25.40   10.20
  -1  -3  -4   39.50    5.90
  -1  -3  -4   42.80    6.40
   1   3   4   31.00    9.50
  -1   3  -4   41.40    8.70
  -2  -3  -4  741.23   22.60
   2  -3   4  664.63   36.40
   2  -3   4  654.63   25.90
   2  -3   4  654.63   25.90
  -2   3  -4  716.83   33.10
  -2   3  -4  693.93   29.90
   2   3   4  720.83   34.90
   3  -3   4  300.27   18.00
   3  -3   4  297.67   25.70
   3  -3   4  300.27   18.00
   3  -3   4  346.77   20.60
   3   3   4  335.17   21.50
  -3   3  -4  342.57   22.00
   3   3   4  328.57   25.50
  -3   3  -4  364.76   24.90
   3   3   4  312.97   16.80
   3   3   4  310.87   21.60
   3   3   4  312.97   16.80
  -3   3  -4  367.36   22.00
   4  -3   4  355.46   24.00
   4  -3   4  363.86   27.60
   4  -3   4  358.16   17.80
   4  -3   4  361.56   20.60
   4  -3   4  358.16   17.80
   4  -3   4  361.56   20.60
   4   3   4  348.47   18.80
   4   3   4  336.97   23.80
  -4   3  -4  356.16   22.60
  -4   3  -4  344.77   23.10
   4   3   4  322.27   26.90
   4   3   4  348.47   18.80
   4   3   4  309.07   22.60
   5  -3   4  179.08   14.60
   5  -3   4  192.08   21.40
   5  -3   4  175.58   19.30
   5  -3   4  179.08   14.60
  -5   3  -4  182.18   18.10
   5   3   4  184.38   17.20
  -5   3  -4  161.88   17.90
   6  -3   4   16.20   12.20
   6  -3   4   10.80    5.50
   6  -3   4   15.30   10.40
   6  -3   4   10.80    5.50
   6   3   4   10.70    7.40
  -6   3  -4   12.80    8.70
  -6   3  -4   17.70   10.10
   7  -3   4    2.60    4.00
   7  -3   4    0.50    5.10
   7  -3   4    2.60    4.00
  -7   3  -4   -2.10    4.60
   6  -4  -4  132.29   17.90
   6  -4  -4  135.69   14.90
  -6   4   4  114.79   11.60
  -6   4   4  114.79   11.60
   6   4  -4  152.68   19.00
  -6   4   4  125.49   13.80
   5  -4  -4   -1.00    6.50
   5  -4  -4    4.90    8.80
   5  -4  -4    2.50    9.30
   5   4  -4    2.70   11.40
  -5   4   4    0.70    8.60
  -5   4   4    0.70    8.60
  -5   4   4   -0.20    9.60
   4  -4  -4  914.61   40.20
   4  -4  -4  887.11   43.50
   4  -4  -4  839.32   39.80
   4   4  -4  876.01   29.60
   4   4  -4  915.91   40.20
   4   4  -4  876.01   29.60
  -4   4   4  918.81   34.80
  -4   4   4  881.61   37.70
  -4   4   4  918.81   34.80
   4   4  -4  913.11   45.70
   3  -4  -4  896.31   41.20
   3  -4  -4  882.91   39.00
  -3   4   4  896.01   33.20
   3   4  -4  910.61   39.90
   3   4  -4  928.31   31.60
  -3   4   4  896.01   33.20
   3   4  -4  928.31   31.60
   3   4  -4  899.61   44.20
   2  -4  -4  943.01   38.80
   2  -4  -4  957.20   38.40
  -2  -4   4  844.82   49.00
  -2  -4   4  935.01   35.60
   2  -4  -4  875.31   50.39
   2  -4  -4  917.11   40.30
  -2   4   4 1000.20   45.90
  -2   4   4  958.30   32.30
  -2   4   4  958.30   32.30
   2   4  -4 1020.50   40.60
   2   4  -4  947.41   42.50
   2   4  -4  945.81   32.00
   2   4  -4  945.81   32.00
   1  -4  -4  228.08   26.30
   1  -4  -4  227.28   17.90
  -1  -4   4  261.07   27.70
   1  -4  -4  277.27   20.60
  -1  -4   4  232.48   15.60
   1  -4  -4  201.18   16.30
   1   4  -4  232.78   18.40
  -1   4   4  230.28   14.60
  -1   4   4  200.68   13.00
   1   4  -4  219.68   12.90
   1   4  -4  211.28   19.70
  -1   4   4  235.98   21.90
   1   4  -4  219.68   12.90
  -1   4   4  230.28   14.60
  -1   4   4  242.38   19.10
  -1   4   4  200.68   13.00
   0  -4  -4   15.30    6.50
   0  -4   4   15.90    6.50
   0  -4   4   15.00   10.60
   0  -4   4   24.30    7.90
   0  -4   4   15.90    6.50
   0  -4  -4   23.70    7.10
   0   4  -4   11.00    6.20
   0   4   4    4.00    5.80
   0   4  -4   21.50    9.00
   0   4   4    4.00    5.80
   0   4  -4   19.80    9.80
   0   4  -4    0.80    7.60
   0   4  -4   11.00    6.20
   0   4   4   13.90    6.70
   0   4   4    5.30    8.50
   1  -4   4  315.67   16.60
   1  -4   4  294.07   27.90
   1  -4   4  315.67   16.60
   1  -4   4  282.97   18.60
  -1  -4  -4  298.67   17.30
   1   4   4  291.07   24.00
  -1   4  -4  286.27   20.80
  -1   4  -4  273.47   20.40
  -1   4  -4  298.77   19.90
   1   4   4  320.27   21.70
   1   4   4  271.67   14.60
  -1   4  -4  291.17   16.70
  -1   4  -4  303.07   23.30
   1   4   4  271.67   14.60
  -1   4  -4  291.17   16.70
   2  -4   4  943.11   33.80
   2  -4   4  866.41   35.10
   2  -4   4  879.11   47.50
   2  -4   4  943.11   33.80
  -2  -4  -4  914.61   30.50
  -2   4  -4  891.01   33.60
  -2   4  -4  880.81   38.20
  -2   4  -4  891.91   41.40
  -2   4  -4  884.51   37.20
  -2   4  -4  891.01   33.60
  -2   4  -4  901.41   42.40
   2   4   4  935.41   43.40
   2   4   4  909.61   38.90
   3  -4   4  553.04   25.00
   3  -4   4  553.04   25.00
   3  -4   4  573.54   29.30
   3   4   4  500.45   28.80
  -3   4  -4  545.75   28.20
   3   4   4  500.85   32.90
  -3   4  -4  550.54   28.60
   4  -4   4   -6.30    6.90
   4  -4   4   -1.00    6.10
   4  -4   4   -6.30    6.90
  -4   4  -4   12.70   10.00
  -4   4  -4    4.60    8.70
   4   4   4    4.30    9.70
   5  -4   4   12.20    5.20
   5  -4   4   18.60    8.80
   5  -4   4   12.20    5.20
   5  -4   4   12.40    8.40
   5  -4   4   12.40    8.40
  -5   4  -4   12.40    7.20
  -5   4  -4    5.50    6.80
   6  -4   4  243.48   17.70
   6  -4   4  197.88   12.10
   6  -4   4  217.68   20.00
   6  -4   4  197.88   12.10
  -6   4  -4  218.78   16.30
  -6   4  -4  204.58   16.00
  -6   5   4   82.89    9.10
  -6   5   4   82.89    9.10
   5  -5  -4   25.40    8.90
   5  -5  -4    7.70    9.00
  -5   5   4    6.00    6.30
  -5   5   4    6.00    6.30
   5   5  -4   22.60   13.20
   4  -5  -4  144.99   17.80
   4  -5  -4  171.38   17.00
  -4   5   4  174.58   13.80
   4   5  -4  165.98   18.90
   4   5  -4  126.79   19.30
  -4   5   4  174.58   13.80
   3  -5  -4  294.57   23.40
   3  -5  -4  281.37   18.90
   3  -5  -4  294.77   22.50
  -3  -5   4  300.67   21.10
   3  -5  -4  281.37   18.90
   3   5  -4  280.67   25.40
   3   5  -4  297.77   24.10
   3   5  -4  278.27   15.90
  -3   5   4  294.97   17.00
   3   5  -4  278.27   15.90
  -3   5   4  294.97   17.00
  -2  -5   4    8.60    7.50
   2  -5  -4   19.20    8.10
   2  -5  -4   15.60    9.00
  -2   5   4   14.60    5.80
  -2   5   4   14.60    5.80
   2   5  -4   17.60   10.20
   2   5  -4    7.80    5.20
  -2   5   4   -2.80    6.10
   2   5  -4    9.40   10.00
   2   5  -4    7.80    5.20
   1  -5  -4  104.29   13.80
  -1  -5   4   64.29   11.60
   1  -5  -4  136.19   15.70
   1   5  -4  104.89   16.40
   1   5  -4   82.29   10.60
   1   5  -4   82.29   10.60
  -1   5   4   85.89    9.00
   1   5  -4   86.99   14.60
  -1   5   4   68.69   12.90
  -1   5   4  102.49   17.10
  -1   5   4   85.89    9.00
   0  -5   4   76.99   10.10
   0  -5  -4   70.89   12.20
   0  -5   4   76.99   10.10
   0  -5   4  100.79   13.40
   0   5  -4   86.59   11.40
   0   5  -4   86.59   11.40
   0   5  -4   99.99   14.20
   0   5   4  103.39   15.10
   0   5   4   72.89   14.80
   1  -5   4  495.15   24.30
   1  -5   4  525.45   26.40
   1  -5   4  495.15   24.30
  -1   5  -4  494.45   26.50
  -1   5  -4  520.35   24.50
  -1   5  -4  520.35   24.50
   1   5   4  505.65   32.10
  -1   5  -4  504.45   29.20
   1   5   4  537.35   30.90
   2  -5   4  377.06   21.90
   2  -5   4  390.66   23.70
   2  -5   4  377.06   21.90
  -2   5  -4  386.86   20.80
  -2   5  -4  386.86   20.80
  -2   5  -4  375.26   24.40
   2   5   4  419.86   28.80
   2   5   4  381.86   25.70
  -2   5  -4  414.46   24.10
   3  -5   4  478.25   24.90
   3  -5   4  478.25   24.90
   3   5   4  501.45   29.40
  -3   5  -4  463.35   28.30
  -3   5  -4  443.26   27.10
  -3   5  -4  458.95   24.80
  -3   5  -4  458.95   24.80
   4  -5   4   -2.00    9.10
   4  -5   4   -1.00    8.40
   4  -5   4   -1.00    8.40
  -4   5  -4    2.40    8.80
   4   5   4    4.80    7.40
  -4   5  -4   -2.90    6.20
   5  -5   4  123.29   16.90
   5  -5   4  101.29   11.50
   5  -5   4  167.88   16.50
   5  -5   4  101.29   11.50
  -5   5  -4  134.59   13.60
  -5   5  -4   94.29   11.90
   5  -6  -4    3.10    6.00
   5  -6  -4    6.10    6.30
  -5   6   4    0.60    4.60
  -5   6   4    0.60    4.60
   4  -6  -4  103.69   13.40
   4   6  -4   67.59   12.40
  -4   6   4   96.59   11.30
  -4   6   4   96.59   11.30
   3  -6  -4   17.20   11.30
   3  -6  -4   39.40   10.10
   3  -6  -4   25.30    9.20
  -3  -6   4   21.70    9.00
   3  -6  -4   25.30    9.20
   3   6  -4   31.70    9.80
  -3   6   4   14.80    7.90
  -3   6   4   14.80    7.90
  -2  -6   4   12.70    9.50
   2  -6  -4    0.60    6.20
   2  -6  -4    1.50    5.60
   2  -6  -4    1.50    5.60
   2  -6  -4   -2.70    8.90
   2   6  -4    1.00    9.80
  -2   6   4  -10.50    6.10
   2   6  -4   -4.00    6.20
  -2   6   4  -10.50    6.10
   2   6  -4   -4.00    6.20
   1  -6  -4  349.87   23.90
  -1  -6   4  368.36   24.60
   1  -6  -4  365.56   22.70
   1   6  -4  371.36   24.90
  -1   6   4  350.36   17.40
  -1   6   4  350.36   17.40
  -1   6   4  368.56   25.10
   1   6  -4  369.26   18.60
   1   6  -4  369.26   18.60
   0  -6   4   15.40    7.90
   0  -6   4    7.30    7.20
   0  -6   4    7.30    7.20
   0   6   4   12.80   12.80
   0   6   4   20.90   11.80
   0   6  -4   18.40    7.00
   0   6  -4   18.40    7.00
   0   6  -4    3.80    9.40
   1  -6   4   16.20    7.90
   1  -6   4   16.20    7.90
   1  -6   4   24.10   10.30
  -1   6  -4   25.10    7.60
   1   6   4   36.20   12.60
  -1   6  -4   17.80   10.10
  -1   6  -4   25.10    7.60
   1   6   4   30.00   12.70
   2  -6   4  583.64   26.40
   2  -6   4  596.54   29.30
   2  -6   4  583.64   26.40
  -2   6  -4  591.34   32.40
   2   6   4  532.75   35.70
  -2   6  -4  567.84   29.90
   2   6   4  558.54   31.80
  -2   6  -4  547.15   25.40
  -2   6  -4  547.15   25.40
   3  -6   4    4.60    6.50
   3  -6   4    4.60    6.50
   3   6   4   -9.50   10.00
  -3   6  -4    1.30    9.50
  -3   6  -4    2.10    9.40
  -3   6  -4   -4.40    5.70
  -3   6  -4   -4.40    5.70
   4  -6   4    3.80    6.00
   4  -6   4    3.80    6.00
  -4   6  -4   18.10    7.30
  -4   6  -4    9.70    6.90
  -4   6  -4   18.10    7.30
  -4   6  -4   13.10    6.80
   3  -7  -4  198.08   13.20
   3  -7  -4  244.58   18.10
   3  -7  -4  198.08   13.20
   3   7  -4  237.08   17.30
  -3   7   4  240.48   12.00
  -3   7   4  240.48   12.00
  -2  -7   4    1.50    6.20
   2  -7  -4    3.90    5.90
   2  -7  -4    3.90    5.90
   2  -7  -4    1.60    6.20
   2   7  -4    2.70    8.40
  -2   7   4    1.40    5.30
  -2   7   4    1.40    5.30
   1  -7  -4    0.50    6.20
  -1  -7   4  -12.40    8.90
   1  -7  -4    0.50    6.20
   1   7  -4    3.80    4.60
   1   7  -4    2.50    7.20
   1   7  -4    3.80    4.60
   0  -7  -4   18.00    7.20
   0  -7  -4   18.00    7.20
   0  -7   4   16.20    6.20
   0  -7   4   16.20    6.20
   0  -7   4   25.10    8.80
   0   7  -4   24.10    8.30
   0   7  -4   24.10    8.30
   0   7  -4   15.50   10.10
   0   7   4   23.80   13.10
   1  -7   4    1.80    5.40
   1  -7   4    0.00    6.40
  -1  -7  -4    4.30    5.50
   1  -7   4    1.80    5.40
  -1  -7  -4    4.30    5.50
   1   7   4   -2.80    7.90
  -1   7  -4   -1.90    5.50
  -1   7  -4   -1.90    5.50
  -1   7  -4    3.70    6.30
   2  -7   4  178.58   13.70
   2  -7   4  174.28   13.80
   2  -7   4  178.58   13.70
   2   7   4  184.88   18.50
  -2   7  -4  194.18   15.40
  -2   7  -4  194.18   15.40
  -2   7  -4  194.98   15.80
   3  -7   4   95.89   10.40
   3  -7   4   95.89   10.40
  -3   7  -4   83.59   10.40
  -3   7  -4   76.09   10.10
  -3   7  -4   83.59   10.40
   3   7   4   69.49   11.20
  -7   0   5    0.10    6.10
   7   0  -5    0.70    8.50
   7   0  -5   -3.00    6.00
   7   0  -5    2.50    8.20
  -6   0   5   -5.80    8.70
   6   0  -5   -4.30    4.40
   6   0  -5   -4.30    4.40
   6   0  -5    2.90   11.80
   6   0  -5    5.10    8.10
   5   0  -5   18.70   11.10
   5   0  -5    1.90    6.90
  -5   0   5    3.70    5.70
   5   0  -5    1.90    6.90
   5   0  -5   -2.60    8.50
   5   0  -5    3.70    7.70
   4   0  -5   12.40    9.70
  -4   0   5    5.80   10.00
   4   0  -5    2.30    5.20
  -4   0   5   -3.30    6.10
   4   0  -5   10.00    8.40
   4   0  -5   -3.10    5.40
   4   0  -5   -3.10    5.40
  -3   0   5    5.20    6.60
   3   0  -5   -6.00    5.80
   2   0  -5   -0.40    5.60
  -2   0   5    5.10    6.00
   1   0  -5   -2.20    3.50
  -1   0   5    3.40    6.70
   1   0  -5   -0.10    3.80
   0   0  -5   -3.10    4.30
   0   0  -5    2.80    4.90
   0   0   5    6.40    5.60
  -1   0  -5   -6.20    3.60
   1   0   5   -2.90    2.90
  -1   0  -5   -6.10    3.60
  -2   0  -5    5.20    4.10
  -2   0  -5    5.20    4.40
  -3   0  -5   -1.00    3.20
   3   0   5   -4.20    4.80
   3   0   5   -6.90    5.80
   3   0   5   -4.20    4.80
  -3   0  -5   -5.40    3.40
   3   0   5   -0.30    4.90
   3   0   5   -4.60    3.70
   4   0   5   -3.00    8.60
   4   0   5    5.20    4.70
   4   0   5   -1.30    5.70
   4   0   5   -0.40    7.90
  -4   0  -5    2.20    4.80
   4   0   5   -1.30    5.70
   4   0   5    5.20    4.70
   4   0   5    8.20    7.80
   4   0   5    3.90    8.20
   5   0   5    5.80    8.70
   5   0   5   -7.10    7.70
   5   0   5   11.00   11.00
   5   0   5    5.80    8.70
   5   0   5   -3.70    6.10
   6   0   5    0.60    5.30
   6   0   5   -3.40   10.70
   6   0   5    0.60    5.30
   6   0   5   -3.60    9.30
   7   0   5    5.10    6.20
   7   0   5    2.40    4.70
   7   0   5    2.40    4.70
  -7  -1   5    2.50    6.00
   7  -1  -5    2.10    8.10
   7  -1  -5    3.20    7.90
   7  -1  -5    1.10    5.90
   7   1  -5   -0.90    6.40
   7   1  -5    3.60    8.30
  -7   1   5   -1.10    9.10
   6  -1  -5   56.09   14.20
   6  -1  -5   62.39    9.40
   6  -1  -5   62.39    9.40
   6  -1  -5   55.49   15.00
  -6  -1   5   47.70   11.70
   6   1  -5   46.00   11.60
   6   1  -5   73.49   16.90
  -6   1   5   66.49   12.20
   6   1  -5   41.20    8.30
   6   1  -5   42.70   11.80
   6   1  -5   41.20    8.30
   5  -1  -5  403.86   29.00
  -5  -1   5  450.55   26.20
   5  -1  -5  462.55   21.90
   5  -1  -5  437.16   31.40
   5  -1  -5  462.55   21.90
   5   1  -5  458.25   21.70
  -5   1   5  448.36   26.90
   5   1  -5  458.25   21.70
   5   1  -5  413.06   32.10
   5   1  -5  427.36   30.90
   5   1  -5  425.16   28.30
   4  -1  -5   -4.00    3.80
   4  -1  -5    8.00    8.60
   4  -1  -5   -0.90    7.70
   4  -1  -5    1.90    7.60
   4  -1  -5   -4.00    3.80
  -4  -1   5   13.70    9.60
   4   1  -5   10.40    6.00
  -4   1   5   13.60   11.40
  -4   1   5   10.70    7.60
   4   1  -5   12.30   10.00
   4   1  -5    6.00    8.10
   4   1  -5    9.10    7.20
   4   1  -5   10.40    6.00
   3  -1  -5   71.09   12.40
  -3  -1   5   64.19   14.40
   3   1  -5   73.99   11.00
  -3   1   5   81.39   14.70
   2  -1  -5   23.80    6.80
   2  -1  -5   18.60    6.10
  -2  -1   5   10.80    9.10
  -2   1   5   29.80    8.40
   2   1  -5   24.70    7.60
  -1  -1   5  768.62   34.90
   1  -1  -5  735.73   28.80
   1  -1  -5  676.23   27.00
   1   1  -5  713.73   29.50
  -1   1   5  681.13   25.30
  -1   1   5  689.13   31.30
   1   1  -5  641.34   27.50
   0  -1   5  879.41   37.60
   0  -1  -5  884.71   31.80
   0  -1  -5  933.51   31.50
   0   1  -5  947.61   34.10
   0   1  -5  916.21   33.20
   0   1   5  929.11   32.50
   0   1   5  965.00   29.40
  -1  -1  -5  719.13   25.60
  -1  -1  -5  701.63   24.70
   1  -1   5  767.72   31.40
  -1   1  -5  660.13   27.80
  -1   1  -5  700.83   28.20
  -2  -1  -5    7.70    3.30
  -2  -1  -5    1.40    3.70
  -2   1  -5    0.50    3.50
  -2   1  -5    2.60    5.20
   3  -1   5    9.80    5.50
   3  -1   5    2.60    7.20
   3  -1   5    4.00    4.60
   3  -1   5    9.80    5.50
   3  -1   5    1.50    5.00
   3  -1   5    2.60    5.20
   3  -1   5    1.50    5.00
  -3  -1  -5    8.20    4.00
   3   1   5    5.80    5.10
   3   1   5    2.70    7.70
   3   1   5    5.80    5.10
  -3   1  -5   -7.20    5.00
   3   1   5   16.60    8.40
  -3   1  -5    5.30    5.40
   3   1   5    6.00    7.10
   4  -1   5   -4.90    5.70
   4  -1   5   -0.90    5.40
   4  -1   5   -1.80    5.90
   4  -1   5   -6.10    5.80
   4  -1   5    2.20    5.60
   4  -1   5   -6.10    5.80
   4  -1   5   -6.40    6.60
   4  -1   5   -1.80    5.90
   4   1   5   -4.30    3.70
   4   1   5   -4.30    3.70
   4   1   5   -3.70    7.60
   4   1   5    4.70    6.00
   4   1   5   -5.10    8.60
  -4   1  -5   -6.40    5.20
   5  -1   5   55.79   13.80
   5  -1   5   55.59    9.00
   5  -1   5   55.59    9.00
   5  -1   5   45.60   10.70
   5  -1   5   57.29   13.30
   5   1   5   42.90    8.10
   5   1   5   42.90    8.10
   5   1   5   38.80   13.60
   5   1   5   65.09   13.00
   6  -1   5  269.97   22.70
   6  -1   5  268.97   16.70
   6  -1   5  263.97   20.50
   6  -1   5  268.97   16.70
   6  -1   5  277.57   27.10
   6   1   5  261.87   18.20
   6   1   5  261.87   18.20
   6   1   5  290.97   22.10
   6   1   5  297.27   23.80
   7  -1   5    6.80    5.40
   7  -1   5    0.70    4.10
   7  -1   5    0.70    4.10
   7   1   5    5.60    6.00
   7   1   5    6.10    4.90
  -7   1  -5   -3.10    8.00
   7   1   5    6.10    4.90
  -7  -2   5   12.10    6.40
   7  -2  -5   28.10   10.00
   7  -2  -5   27.20    5.50
   7  -2  -5   27.20    5.50
   7  -2  -5   19.90    7.30
   7   2  -5   39.70   11.60
  -7   2   5   21.80    8.20
   7   2  -5   11.50    6.70
   6  -2  -5   42.90   13.50
  -6  -2   5   63.59   11.50
   6  -2  -5   85.89   16.20
   6   2  -5   55.99   15.10
   6   2  -5   64.39   13.90
   6   2  -5   50.79    8.30
   6   2  -5   50.79    8.30
   6   2  -5   41.40   12.40
  -6   2   5   70.09   12.60
   5  -2  -5   28.50    9.10
   5  -2  -5   28.50    9.10
   5  -2  -5   43.50   14.30
   5  -2  -5   42.90   12.50
   5  -2  -5   35.60   10.40
   5   2  -5   31.50    8.20
   5   2  -5   54.79   14.80
   5   2  -5   29.60   12.10
   5   2  -5   31.50    8.20
  -5   2   5   44.80   10.90
   4  -2  -5   28.90    8.40
  -4  -2   5   48.70   14.80
   4  -2  -5   28.90    8.40
   4  -2  -5   42.60    9.60
   4  -2  -5   48.70   10.70
   4  -2  -5   27.50   11.30
   4  -2  -5   43.00   12.30
   4  -2  -5   19.70   11.00
  -4   2   5   34.20   11.60
   4   2  -5   50.39   10.20
   4   2  -5   19.30    7.20
   4   2  -5   42.60   11.80
   4   2  -5   39.10   13.90
   4   2  -5   19.30    7.20
  -4   2   5   44.50   11.30
   3  -2  -5  617.24   31.30
   3  -2  -5  599.74   28.10
   3  -2  -5  538.95   27.10
   3  -2  -5  573.84   30.20
  -3  -2   5  568.54   36.50
  -3   2   5  606.44   30.60
   3   2  -5  598.84   31.90
   3   2  -5  562.44   30.20
  -3   2   5  550.24   26.80
   3   2  -5  539.45   21.60
   3   2  -5  566.74   32.10
   3   2  -5  539.45   21.60
  -3   2   5  647.94   37.30
   2  -2  -5   33.30    8.00
   2  -2  -5   29.40    7.90
  -2  -2   5   48.70   11.70
  -2   2   5   38.10   11.50
   2   2  -5   26.30    7.60
   1  -2  -5   28.10    6.50
  -1  -2   5   17.10    9.80
   1  -2  -5   21.60    7.00
  -1   2   5   22.70    8.40
  -1   2   5   17.70    5.80
   1   2  -5   11.10    7.00
   0  -2   5 2783.52   85.69
   0  -2  -5 2622.44   73.99
   0  -2  -5 2595.04   73.39
   0   2  -5 2543.35   77.49
   0   2   5 2729.43   76.29
   0   2  -5 2615.14   78.79
  -1  -2  -5  311.17   14.70
  -1  -2  -5  338.47   15.70
   1  -2   5  306.37   22.70
  -1   2  -5  329.87   20.80
  -1   2  -5  322.67   19.20
   1   2   5  343.47   23.40
   2  -2   5  101.29   14.60
  -2  -2  -5  120.29    7.90
  -2   2  -5  101.29   13.70
  -2   2  -5  105.79   13.50
  -3  -2  -5   17.80    3.20
   3  -2   5   33.10    7.90
   3  -2   5   21.00    8.50
   3  -2   5   25.00    6.70
   3  -2   5   25.00    6.70
   3  -2   5   33.10    7.90
  -3   2  -5   26.90    8.60
   3   2   5   21.30    7.40
  -3   2  -5   21.10    8.50
   3   2   5   15.90    6.00
   3   2   5   15.90    6.00
   3   2   5   27.20    9.10
  -3   2  -5   23.20    9.20
   3   2   5   21.60    8.90
   4  -2   5  305.17   17.80
   4  -2   5  305.17   17.80
   4  -2   5  300.67   22.70
   4  -2   5  310.07   22.80
   4  -2   5  322.57   19.00
   4  -2   5  298.17   26.60
   4  -2   5  322.57   19.00
   4   2   5  303.37   18.30
  -4   2  -5  324.67   21.70
   4   2   5  308.17   21.80
   4   2   5  316.57   26.90
   4   2   5  303.37   18.30
   4   2   5  290.87   22.90
   5  -2   5  314.87   18.00
   5  -2   5  304.77   21.80
   5  -2   5  314.87   18.00
   5  -2   5  323.37   26.90
   5  -2   5  326.17   23.00
   5   2   5  330.57   19.40
   5   2   5  331.97   25.20
   5   2   5  330.57   19.40
  -5   2  -5  324.37   22.60
   5   2   5  316.17   25.80
   6  -2   5  193.98   19.90
   6  -2   5  174.58   13.20
   6  -2   5  181.18   17.80
   6  -2   5  174.58   13.20
   6  -2   5  151.58   19.90
   6   2   5  142.99   17.10
  -6   2  -5  186.88   17.10
   6   2   5  165.78   12.70
  -6   2  -5  172.48   14.40
   6   2   5  165.78   12.70
   7  -2   5   -0.80    3.80
   7  -2   5   -0.80    3.80
   7   2   5   -3.40    7.00
   7  -3  -5   73.09    6.60
   7  -3  -5  124.99   13.00
   7  -3  -5   73.09    6.60
   6  -3  -5  122.69   13.50
  -6  -3   5   93.19   11.70
   6  -3  -5  115.19   13.50
   6  -3  -5   87.69   14.40
   6   3  -5  160.58   18.60
   6   3  -5  177.58   21.50
  -6   3   5  156.28   15.40
   5  -3  -5   54.09   12.00
   5  -3  -5   46.30   14.60
   5  -3  -5   45.00   11.70
   5  -3  -5   59.29   10.30
   5  -3  -5   59.29   10.30
   5   3  -5   29.50    7.10
   5   3  -5   57.09   16.70
  -5   3   5   51.39   12.50
   5   3  -5   29.50    7.10
   5   3  -5   47.30   14.00
   4  -3  -5  626.34   26.90
   4  -3  -5  577.94   31.30
   4  -3  -5  626.34   26.90
   4  -3  -5  608.34   34.50
   4  -3  -5  633.84   31.20
   4   3  -5  616.84   30.60
   4   3  -5  581.54   24.50
  -4   3   5  611.64   30.90
   4   3  -5  581.54   24.50
   4   3  -5  607.54   37.30
   4   3  -5  624.54   35.40
   3  -3  -5   39.70   10.70
  -3  -3   5   15.80   12.80
   3  -3  -5   38.40    9.50
   3  -3  -5   36.30   10.90
   3  -3  -5   26.50    8.10
   3   3  -5   39.60   10.50
  -3   3   5   39.50   13.00
   3   3  -5   10.40    6.20
   3   3  -5   24.70   10.10
  -3   3   5   31.80    8.90
   3   3  -5   10.40    6.20
   3   3  -5   32.10   10.80
  -2  -3   5  113.19   19.80
   2  -3  -5  143.89   17.50
  -2  -3   5  112.29   13.30
   2  -3  -5  108.39   14.50
   2  -3  -5  138.49   15.20
   2   3  -5   95.79   10.30
  -2   3   5  101.49   16.40
   2   3  -5  103.29   13.70
  -2   3   5   82.99   14.30
   2   3  -5  100.59   15.80
  -2   3   5  103.29   15.70
   2   3  -5   95.79   10.30
   1  -3  -5   45.80    8.70
   1  -3  -5   28.50    8.60
  -1  -3   5   37.60   11.30
  -1   3   5   24.00    9.80
   1   3  -5   29.50    7.80
   0  -3  -5  355.46   18.80
   0  -3  -5  317.87   18.10
   0  -3   5  316.87   26.00
   0   3   5  329.97   22.80
   0   3  -5  335.17   22.10
   1  -3   5   10.70    9.40
  -1  -3  -5   19.30    5.30
   1   3   5   17.00    9.10
   1   3   5    1.30    7.90
  -1   3  -5   15.20    8.20
   1   3   5   28.20   10.70
   2  -3   5  143.59   11.70
   2  -3   5  172.88   13.60
   2  -3   5  143.59   11.70
   2  -3   5  143.99   13.40
  -2  -3  -5  150.78    9.70
  -2   3  -5  149.09   13.70
   2   3   5  150.08   14.50
   2   3   5  155.08   10.90
  -2   3  -5  130.59   16.40
   2   3   5  166.28   17.00
   2   3   5  185.48   18.10
   2   3   5  155.08   10.90
  -2   3  -5  178.28   16.10
   3  -3   5  291.97   17.10
   3  -3   5  309.87   21.70
   3  -3   5  291.97   17.10
   3   3   5  291.47   16.80
   3   3   5  296.37   22.00
  -3   3  -5  279.07   20.80
   3   3   5  245.78   22.00
   3   3   5  291.47   16.80
  -3   3  -5  288.57   21.10
   3   3   5  279.97   19.90
   4  -3   5   -2.00    4.50
   4  -3   5   11.40    9.40
   4  -3   5   -2.00    4.50
   4  -3   5    8.70    6.40
   4  -3   5    8.70    6.40
   4   3   5   -0.20    6.00
   4   3   5   -6.90    5.40
   4   3   5   -5.80    9.10
  -4   3  -5   -3.40    7.30
  -4   3  -5   -9.10    8.00
   4   3   5   -0.20    6.00
   4   3   5    3.80    8.50
   5  -3   5  131.49   13.40
   5  -3   5  139.19   13.30
   5  -3   5  131.49   13.40
   5  -3   5  184.98   18.10
   5  -3   5  200.68   21.70
   5  -3   5  139.19   13.30
  -5   3  -5  183.18   18.90
  -5   3  -5  142.39   16.70
   5   3   5  187.58   15.30
   5   3   5  168.38   16.90
   5   3   5  187.58   15.30
   6  -3   5  229.08   21.40
   6  -3   5  178.58   12.30
   6  -3   5  178.58   12.30
   6  -3   5  209.48   17.60
   6   3   5  198.18   19.70
  -6   3  -5  222.88   17.00
  -6   3  -5  180.98   16.70
  -6  -4   5   -0.40    4.90
   6  -4  -5    3.90    6.90
   6  -4  -5   -2.30    4.30
  -6   4   5    0.00    5.60
  -6   4   5    1.70    5.70
  -6   4   5    0.00    5.60
   6   4  -5  -10.70    7.70
   5  -4  -5    5.60    8.40
   5  -4  -5    6.40    8.00
   5  -4  -5   -1.60    9.60
  -5   4   5    4.90    8.70
  -5   4   5    9.60   10.20
   5   4  -5   10.10   12.70
  -5   4   5    4.90    8.70
   4  -4  -5   -2.20    8.90
   4  -4  -5    3.00   10.20
   4  -4  -5   -1.50    8.60
   4   4  -5    7.20   11.20
  -4   4   5    2.80   13.00
   4   4  -5    8.60    6.40
  -4   4   5   16.70    8.80
   4   4  -5    8.60    6.40
  -4   4   5   16.70    8.80
   4   4  -5   17.20    7.90
   3  -4  -5  262.07   23.20
   3  -4  -5  280.47   22.10
   3  -4  -5  235.18   21.00
   3   4  -5  283.87   25.50
   3   4  -5  255.17   15.00
   3   4  -5  253.07   21.60
   3   4  -5  255.17   15.00
   2  -4  -5   17.10    8.60
  -2  -4   5   21.60    7.90
   2  -4  -5    5.10    9.30
  -2  -4   5   19.80   14.60
   2  -4  -5   19.90    8.30
   2   4  -5   15.90    6.70
   2   4  -5   19.80    8.30
   2   4  -5   42.20   11.10
  -2   4   5   20.20   10.30
   2   4  -5   15.90    6.70
  -1  -4   5   25.70   13.30
   1  -4  -5   14.10    7.60
   1  -4  -5   25.60    9.40
  -1  -4   5   20.50    8.20
   1  -4  -5   29.60    9.10
  -1   4   5   29.80    6.90
  -1   4   5   24.20    6.90
   1   4  -5   13.60    6.60
  -1   4   5   29.80    6.90
  -1   4   5   30.10   10.20
   1   4  -5   20.90   10.80
   1   4  -5   36.90   10.50
  -1   4   5   24.20    6.90
  -1   4   5   21.60   10.50
   1   4  -5   13.60    6.60
   0  -4  -5  362.56   20.50
   0  -4   5  330.37   18.00
   0  -4   5  330.37   18.00
   0  -4   5  313.37   20.30
   0  -4  -5  320.67   20.40
   0   4  -5  365.66   18.70
   0   4  -5  331.27   22.70
   0   4   5  326.07   18.20
   0   4   5  326.07   18.20
   0   4  -5  347.97   25.20
   0   4  -5  365.66   18.70
   0   4  -5  338.17   22.60
   0   4  -5  341.27   25.20
   0   4   5  322.47   22.50
   0   4   5  292.57   25.00
  -1  -4  -5   20.70    6.40
   1  -4   5   14.90    7.00
   1  -4   5   14.90    7.00
   1  -4   5   20.90   12.60
   1  -4   5   24.00    8.50
   1   4   5   18.60    5.50
   1   4   5   18.60    5.50
   1   4   5   21.40    8.90
  -1   4  -5   11.40    8.50
  -1   4  -5    7.30    6.70
  -1   4  -5   23.40    8.30
  -1   4  -5   13.90    9.80
  -1   4  -5    7.30    6.70
  -1   4  -5   25.80    9.00
   1   4   5   22.60   10.20
   2  -4   5  371.76   22.50
   2  -4   5  376.36   20.10
   2  -4   5  376.36   20.10
   2   4   5  401.36   19.50
   2   4   5  401.36   19.50
   2   4   5  328.67   27.30
  -2   4  -5  370.66   21.90
  -2   4  -5  370.66   21.90
   2   4   5  342.97   23.40
  -2   4  -5  376.36   27.20
  -2   4  -5  386.36   23.50
  -2   4  -5  375.16   23.90
   3  -4   5  347.17   21.10
   3  -4   5  347.17   21.10
   3  -4   5  360.16   23.00
   3   4   5  364.46   27.20
  -3   4  -5  427.76   26.10
  -3   4  -5  396.26   25.50
   3   4   5  362.16   19.60
   3   4   5  362.16   19.60
  -3   4  -5  365.76   25.90
   3   4   5  351.36   25.70
   4  -4   5  422.56   27.80
   4  -4   5  440.96   23.70
   4  -4   5  440.96   23.70
   4   4   5  446.16   29.90
   4   4   5  417.16   28.40
  -4   4  -5  463.65   26.30
  -4   4  -5  427.06   27.20
   5  -4   5   74.29    9.90
   5  -4   5   58.69   10.80
   5  -4   5   74.29    9.90
   5  -4   5   46.90   15.00
  -5   4  -5   68.69   11.60
  -5   4  -5   82.89   13.00
   6  -4   5   21.70    6.90
   6  -4   5   29.70    9.30
  -6   4  -5   22.50    6.80
  -6   4  -5   30.10    7.40
   5  -5  -5  114.39   13.90
   5  -5  -5   76.59   10.70
  -5   5   5  152.68   12.90
  -5   5   5  152.68   12.90
   5   5  -5  123.89   18.90
   4  -5  -5   15.00    8.40
   4  -5  -5   11.70   10.30
  -4   5   5   18.40    8.90
   4   5  -5    9.60   12.60
  -4   5   5   18.40    8.90
   4   5  -5   11.90    4.50
   4   5  -5   13.90    8.60
   4   5  -5   11.90    4.50
   3  -5  -5  516.55   30.50
   3  -5  -5  563.24   31.50
   3   5  -5  519.25   29.80
  -3   5   5  564.24   24.10
  -3   5   5  564.24   24.10
   3   5  -5  554.54   22.70
   3   5  -5  554.54   22.70
   3   5  -5  590.14   36.30
   2  -5  -5  314.47   23.70
  -2  -5   5  299.47   21.50
   2  -5  -5  297.67   21.20
  -2   5   5  358.96   19.00
   2   5  -5  317.97   24.50
   2   5  -5  329.07   27.00
   2   5  -5  288.17   17.80
   2   5  -5  288.17   17.80
  -2   5   5  358.96   19.00
   1  -5  -5    9.40    8.20
   1  -5  -5   -0.50    8.00
  -1  -5   5    4.80    8.10
   1   5  -5    4.00    6.80
  -1   5   5    6.10    5.50
  -1   5   5   10.00    8.60
  -1   5   5    0.50    8.80
   1   5  -5   -0.60    6.50
  -1   5   5    6.10    5.50
   1   5  -5    1.20    8.80
   1   5  -5   -0.60    6.50
   0  -5   5    3.40    5.80
   0  -5   5    2.30    6.60
   0  -5   5    2.30    6.60
   0   5  -5    7.10    5.60
   0   5  -5    0.00    9.10
   0   5   5    4.60    9.00
   0   5   5   -5.00    6.20
   0   5   5    3.40    7.40
   0   5  -5    1.10    6.20
   0   5  -5    7.10    5.60
   0   5   5   -5.00    6.20
   1  -5   5   19.00    7.50
   1  -5   5   18.40    7.90
   1  -5   5   18.40    7.90
  -1   5  -5    8.00    9.70
  -1   5  -5   15.30   10.10
   1   5   5   35.60   12.30
  -1   5  -5   19.70    6.90
   1   5   5   14.90    9.20
  -1   5  -5   32.30   11.60
  -1   5  -5   19.70    6.90
   2  -5   5  102.79   12.90
   2  -5   5  107.09   14.90
   2  -5   5  102.79   12.90
  -2   5  -5   75.89   14.60
   2   5   5   82.39   16.50
  -2   5  -5   80.19   12.50
  -2   5  -5   89.79   15.30
  -2   5  -5   94.59   15.00
   2   5   5   72.09   14.40
  -2   5  -5   80.19   12.50
   3  -5   5   29.90    7.90
   3  -5   5   29.90    7.90
  -3   5  -5   21.10   10.80
  -3   5  -5   30.80    9.50
  -3   5  -5   27.50    8.20
  -3   5  -5   27.50    8.20
   3   5   5   23.00   12.60
   3   5   5   36.70   11.00
   4  -5   5    1.30    9.50
   4  -5   5   10.60    6.30
   4  -5   5   10.60    6.30
  -4   5  -5   -1.20    6.20
  -4   5  -5    1.30    6.70
   4   5   5    0.10    6.70
   5  -5   5   71.79    9.90
   5  -5   5   71.79    9.90
   5  -5   5   76.89   11.40
   5  -5   5   89.59   16.40
  -5   5  -5   84.89   11.60
  -5   5  -5   52.39    9.30
   4  -6  -5  104.99   12.70
   4  -6  -5   51.79    8.60
   4   6  -5   49.50   11.20
  -4   6   5   82.49    8.90
  -4   6   5   82.49    8.90
   4   6  -5   11.10   10.30
   3  -6  -5   -0.90    5.50
   3  -6  -5    6.00    6.80
   3  -6  -5   -0.90    5.50
   3  -6  -5    2.80    9.80
   3   6  -5   -3.30    3.80
  -3   6   5   -0.30    4.90
  -3   6   5   -0.30    4.90
   3   6  -5    3.30    7.00
   3   6  -5   -3.30    3.80
   3   6  -5   -4.90   10.50
   2  -6  -5   30.10    9.00
   2  -6  -5   39.40   10.10
  -2  -6   5   16.40    9.60
   2   6  -5   28.00    8.00
   2   6  -5   27.60   11.90
   2   6  -5   28.00    8.00
  -2   6   5   26.20    7.70
  -2   6   5   26.20    7.70
   1  -6  -5  367.66   23.20
   1  -6  -5  379.36   23.90
  -1  -6   5  412.76   24.10
   1   6  -5  422.76   21.10
   1   6  -5  422.76   21.10
  -1   6   5  337.97   15.50
  -1   6   5  337.97   15.50
   1   6  -5  386.36   27.00
  -1   6   5  369.16   24.90
   0  -6   5    3.30    6.60
   0  -6   5    3.30    6.60
   0  -6   5    1.40    8.30
   0   6  -5    3.30    5.80
   0   6  -5    1.20    7.20
   0   6   5   -1.10   11.70
   0   6   5    9.80   11.00
   0   6  -5    3.30    5.80
   1  -6   5   -2.50    7.10
   1  -6   5   -2.50    7.10
   1  -6   5   -1.10    9.00
  -1   6  -5   -2.20    6.20
   1   6   5    8.30   11.40
  -1   6  -5   -3.00    5.70
   1   6   5    4.50   13.30
  -1   6  -5   -3.00    5.70
   2  -6   5   51.09   10.40
   2  -6   5   41.10    8.90
   2  -6   5   51.09   10.40
  -2   6  -5   34.10   11.40
   2   6   5   47.10   14.80
  -2   6  -5   36.90    8.90
   2   6   5   32.40   13.90
  -2   6  -5   36.90    8.90
  -2   6  -5   26.70    8.10
   3  -6   5   14.50    9.20
   3  -6   5   14.50    9.20
  -3   6  -5   15.20    7.50
  -3   6  -5    8.60    7.20
  -3   6  -5    8.60    7.20
  -3   6  -5   17.60    8.20
   3   6   5   19.00   11.90
   4  -6   5    5.90    7.40
   4  -6   5    9.20    7.60
   4  -6   5    9.20    7.60
  -4   6  -5    6.60    6.60
  -4   6  -5   10.20    7.80
   3  -7  -5    2.80    4.60
   3  -7  -5   21.50    6.90
   3  -7  -5    9.20    5.00
   3  -7  -5    9.20    5.00
  -3   7   5   15.20    5.30
   3   7  -5    1.70    5.30
  -3   7   5   15.20    5.30
   2  -7  -5   26.70    9.10
  -2  -7   5    9.50    5.80
   2  -7  -5    1.10    5.60
   2  -7  -5   26.70    9.10
   2   7  -5   16.30    5.40
   2   7  -5   12.80    7.10
   2   7  -5   16.30    5.40
   1  -7  -5   47.40    9.40
   1  -7  -5   68.29   10.20
   1  -7  -5   68.29   10.20
  -1  -7   5   46.20    9.60
   1   7  -5   76.59    8.60
   1   7  -5   76.59    8.60
   1   7  -5   46.00    9.90
   0  -7   5   51.79   11.40
   0   7   5   43.60   10.80
   0   7  -5   50.99   10.30
   0   7  -5   56.59    8.40
   0   7  -5   56.59    8.40
   1  -7   5  621.64   24.80
   1  -7   5  607.44   28.50
   1  -7   5  621.64   24.80
  -1   7  -5  642.44   24.60
  -1   7  -5  642.44   24.60
   1   7   5  647.54   32.40
  -1   7  -5  610.84   29.30
   2  -7   5   69.79    8.70
   2  -7   5   69.79    8.70
   2  -7   5   63.49   10.40
  -2   7  -5   54.29    9.30
  -2   7  -5   71.19    8.70
   2   7   5   75.19   13.40
  -2   7  -5   71.19    8.70
   3  -7   5   58.89    6.90
   3  -7   5   58.89    6.90
  -3   7  -5   95.39    9.10
   3   7   5   60.09   10.40
  -3   7  -5   95.39    9.10
  -3   7  -5   67.69    9.10
   7   0  -6  108.29   13.90
   7   0  -6   91.39   16.90
   7   0  -6  135.69   15.20
  -7   0   6  146.89   15.40
   6   0  -6  501.55   22.60
  -6   0   6  522.65   29.50
   6   0  -6  513.85   31.90
   6   0  -6  562.74   36.40
   6   0  -6  501.55   22.60
   5   0  -6  536.35   25.70
   5   0  -6  599.44   34.70
   5   0  -6  536.35   25.70
  -5   0   6  588.44   31.00
   5   0  -6  596.84   35.90
   4   0  -6 1067.89   36.50
   4   0  -6 1067.89   36.50
   4   0  -6 1078.39   47.10
   4   0  -6 1029.90   41.00
   4   0  -6 1073.59   48.80
  -4   0   6 1063.49   41.40
   3   0  -6  816.42   30.00
   3   0  -6  898.71   38.30
   3   0  -6  856.81   39.20
   3   0  -6  886.91   40.10
  -3   0   6  897.21   44.80
   3   0  -6  895.31   35.40
   3   0  -6  816.42   30.00
   2   0  -6  261.27   17.80
  -2   0   6  276.47   23.60
  -1   0   6    5.30    7.80
   1   0  -6    3.20    6.20
   1   0  -6    5.50    5.90
   0   0  -6  337.37   18.70
   0   0   6  313.87   20.30
   0   0  -6  372.96   19.40
  -1   0  -6 1486.75   48.70
  -1   0  -6 1567.84   48.60
  -2   0  -6  352.76   19.30
  -2   0  -6  394.96   19.10
   3   0   6   21.20    9.80
   3   0   6   27.10   10.60
   3   0   6   16.30    8.60
   3   0   6   22.40    9.20
   3   0   6   20.00    6.60
   3   0   6   26.30    7.20
   3   0   6   26.30    7.20
   3   0   6   20.00    6.60
  -3   0  -6   24.30    6.90
   4   0   6    8.60    8.40
   4   0   6   12.60    7.30
   4   0   6    4.10    7.30
   4   0   6    2.90    9.40
   4   0   6    5.20    4.50
   4   0   6   12.60    7.30
   4   0   6    5.20    4.50
   4   0   6   -4.20    8.10
   5   0   6    0.70    7.30
   5   0   6    2.80   11.10
   5   0   6    4.20    5.00
   5   0   6    4.20    5.00
   6   0   6  473.75   27.40
   6   0   6  488.95   23.50
   6   0   6  488.95   23.50
   6   0   6  509.15   31.20
   7   0   6    2.10    3.60
   7   0   6    1.50    5.00
   7   0   6    2.10    3.60
   7  -1  -6   25.10   11.60
   7  -1  -6   52.99   10.10
  -7  -1   6   50.59    9.60
   7  -1  -6   49.40   10.90
   7   1  -6   64.59   14.10
  -7   1   6   72.89   11.10
   7   1  -6   32.70   10.50
   6  -1  -6  289.67   24.40
   6  -1  -6  285.07   17.10
  -6  -1   6  293.77   20.70
   6  -1  -6  275.27   24.10
   6  -1  -6  285.07   17.10
  -6   1   6  287.07   20.70
   6   1  -6  254.07   23.40
   6   1  -6  281.77   17.20
   6   1  -6  299.17   26.00
   6   1  -6  281.77   17.20
   5  -1  -6   38.80   13.70
  -5  -1   6   59.89   11.70
   5  -1  -6   54.99   14.80
   5  -1  -6   47.20   10.30
   5  -1  -6   47.20   10.30
   5   1  -6   32.50   14.40
   5   1  -6   64.89   14.20
   5   1  -6   50.09    9.70
   5   1  -6   50.09    9.70
  -5   1   6   41.30   11.40
   4  -1  -6    0.20    6.40
   4  -1  -6   15.40   10.10
   4  -1  -6   13.70    7.70
   4  -1  -6    0.20    6.40
   4  -1  -6    7.80    9.30
  -4   1   6   12.60    6.90
   4   1  -6    3.80    6.80
   4   1  -6  -11.70    9.60
   4   1  -6   11.40    6.90
   4   1  -6   11.40    6.90
   4   1  -6    7.80    7.00
   3  -1  -6 1075.79   44.50
   3  -1  -6 1042.20   35.70
   3  -1  -6 1060.89   45.10
  -3  -1   6 1152.38   52.39
   3  -1  -6 1050.59   39.60
   3  -1  -6 1074.69   44.50
   3  -1  -6 1042.20   35.70
  -3   1   6 1086.89   51.19
   3   1  -6 1068.29   35.10
   3   1  -6 1136.69   44.30
   3   1  -6 1017.40   39.20
   3   1  -6  892.61   45.10
   3   1  -6 1058.29   45.90
   3   1  -6  983.20   42.60
   3   1  -6 1068.29   35.10
  -3   1   6 1031.50   39.80
  -2  -1   6   18.00    8.40
   2  -1  -6   14.10    7.80
   2   1  -6   10.30    7.00
  -2   1   6   20.00    8.20
   1  -1  -6  531.05   25.10
  -1  -1   6  550.74   31.50
   1  -1  -6  554.64   26.30
   1   1  -6  539.05   25.80
  -1   1   6  517.85   28.20
   0  -1   6   41.90   10.50
   0  -1  -6   65.89    8.90
   0  -1  -6   54.59    8.60
   0   1  -6   51.69    8.70
   0   1   6   59.39    9.10
   0   1  -6   53.89    9.20
   1  -1   6  396.66   23.40
  -1  -1  -6  464.55   20.10
  -1  -1  -6  490.85   21.50
  -1   1  -6  457.35   23.80
  -1   1  -6  460.55   23.20
  -2  -1  -6  331.57   16.30
  -2  -1  -6  282.27   13.80
   2  -1   6  277.07   16.00
   2  -1   6  277.07   16.00
  -2   1  -6  293.27   18.60
   2   1   6  252.97   18.30
   2   1   6  296.17   14.90
   2   1   6  296.17   14.90
  -2   1  -6  286.67   19.30
   2   1   6  281.37   16.60
   2   1   6  272.77   19.40
   2   1   6  281.37   16.60
   2   1   6  268.47   20.70
   3  -1   6 1688.03   62.59
   3  -1   6 1753.92   58.99
   3  -1   6 1676.23   52.49
   3  -1   6 1676.03   50.49
   3  -1   6 1706.53   59.59
   3  -1   6 1676.03   50.49
   3  -1   6 1641.44   56.69
  -3  -1  -6 1742.13   50.89
   3  -1   6 1676.23   52.49
   3   1   6 1676.03   51.19
  -3   1  -6 1654.13   58.19
   3   1   6 1591.94   63.29
   3   1   6 1720.33   59.29
   3   1   6 1653.73   52.49
   3   1   6 1676.03   51.19
  -3   1  -6 1736.53   56.79
   3   1   6 1653.73   52.49
   3   1   6 1715.43   59.09
   4  -1   6   16.00    7.00
   4  -1   6   13.60    7.50
   4  -1   6   16.00    7.00
   4  -1   6    7.20    7.70
   4  -1   6   13.60    7.50
   4  -1   6   13.90    8.80
   4  -1   6    3.70    9.50
   4  -1   6   13.20    9.40
   4   1   6    9.20    5.60
   4   1   6   15.50    5.60
   4   1   6   12.40    9.10
   4   1   6   14.80    9.50
   4   1   6    8.20    9.30
   4   1   6   15.50    5.60
   4   1   6    9.20    5.60
   5  -1   6    9.30    7.10
   5  -1   6    2.20   11.50
   5  -1   6    1.10    6.60
   5  -1   6   16.70    6.20
   5  -1   6   16.70    6.20
   5   1   6   10.70   11.00
   5   1   6   13.00    5.80
   5   1   6    6.80    7.70
   5   1   6   13.00    5.80
   6  -1   6  197.08   21.10
   6  -1   6  196.88   15.30
   6  -1   6  180.78   16.50
   6  -1   6  196.88   15.30
   6   1   6  164.08   13.90
   6   1   6  164.08   13.90
   6   1   6  181.68   17.60
   6   1   6  124.49   17.10
  -6   1  -6  176.48   15.70
   7  -2  -6   20.60   10.60
  -7  -2   6    3.70    5.00
   7  -2  -6   10.10    7.10
  -7   2   6   17.40    7.10
   7   2  -6    8.30    6.60
   6  -2  -6   30.20    7.50
   6  -2  -6   30.20    7.50
   6  -2  -6   38.50   11.90
  -6  -2   6   20.40    9.90
   6  -2  -6   29.70   10.00
   6   2  -6   36.20   12.70
  -6   2   6   32.90   11.40
   6   2  -6   30.10    7.40
   6   2  -6   30.10    7.40
   6   2  -6   37.50    9.80
   6   2  -6   24.80   10.10
   5  -2  -6  683.63   29.50
   5  -2  -6  639.84   37.10
   5  -2  -6  636.74   33.20
   5  -2  -6  712.03   38.70
   5  -2  -6  683.63   29.50
   5   2  -6  660.33   40.80
  -5   2   6  692.03   34.00
   5   2  -6  677.23   27.20
   5   2  -6  704.83   37.70
   5   2  -6  677.23   27.20
   4  -2  -6   29.20    8.80
   4  -2  -6   29.60   12.10
   4  -2  -6   24.70   11.30
   4  -2  -6   35.50    9.20
   4  -2  -6   43.50   11.50
   4  -2  -6   29.20    8.80
  -4   2   6   37.20   11.50
   4   2  -6   37.40    8.50
   4   2  -6   32.30   11.80
   4   2  -6   37.40    8.50
   4   2  -6   53.39   10.70
   4   2  -6   33.40   13.50
   3  -2  -6  152.38   16.10
   3  -2  -6  129.39   16.80
   3  -2  -6  115.89   12.70
   3  -2  -6  143.49   16.40
   3  -2  -6  115.89   12.70
   3  -2  -6  134.89   15.40
  -3  -2   6  123.89   21.00
   3   2  -6  139.89   20.10
   3   2  -6  197.48   22.00
  -3   2   6  171.18   17.20
   3   2  -6  161.28   13.70
   3   2  -6  161.28   13.70
  -3   2   6  121.79   20.40
   3   2  -6  125.99   17.40
   2  -2  -6  180.18   18.00
   2  -2  -6  179.08   18.40
  -2  -2   6  190.58   23.70
   2  -2  -6  168.18   15.10
  -2   2   6  166.18   12.60
   2   2  -6  164.68   12.60
  -2   2   6  178.38   20.80
  -2   2   6  166.18   12.60
   2   2  -6  167.28   16.00
   2   2  -6  184.98   18.80
   2   2  -6  186.98   19.00
   2   2  -6  164.68   12.60
   1  -2  -6   13.50    6.80
  -1  -2   6   22.50    9.20
   1  -2  -6   19.40    7.10
   1   2  -6   20.50    8.10
  -1   2   6   12.40    7.50
   0  -2   6 2954.90   95.99
   0  -2  -6 2983.20   84.99
   0  -2  -6 3141.39   84.89
   0   2  -6 2896.31   88.19
  -1  -2  -6 1957.50   58.09
   1  -2   6 1913.51   69.39
  -1   2  -6 2056.39   65.29
   2  -2   6  108.79   11.10
  -2  -2  -6   90.69    8.80
   2  -2   6  108.79   11.10
   2  -2   6   99.79   12.30
   2  -2   6  111.39   14.00
   2  -2   6   94.49   14.00
   2   2   6   86.09   14.80
   2   2   6   94.29   12.80
  -2   2  -6   84.49   12.10
  -2   2  -6   95.69   13.80
  -2   2  -6  118.59   14.40
   2   2   6   88.39   13.40
   2   2   6   78.69    9.20
  -2   2  -6  101.49   13.50
   2   2   6   77.59   12.60
   2   2   6   78.69    9.20
   3  -2   6  458.05   21.90
   3  -2   6  481.75   27.00
  -3  -2  -6  487.35   17.70
   3  -2   6  456.65   20.50
   3  -2   6  483.75   30.80
   3  -2   6  456.65   20.50
   3  -2   6  458.05   21.90
   3   2   6  491.55   21.60
  -3   2  -6  489.35   26.10
   3   2   6  491.55   21.60
   3   2   6  471.35   31.80
   3   2   6  522.15   29.20
  -3   2  -6  455.55   26.10
  -3   2  -6  454.65   29.80
   3   2   6  457.05   27.20
   4  -2   6   71.49   13.00
   4  -2   6   89.19   15.00
   4  -2   6  103.59   10.70
   4  -2   6  114.39   17.30
   4  -2   6  110.19   19.00
   4  -2   6  104.09   13.00
   4  -2   6  104.09   13.00
   4  -2   6  103.59   10.70
   4   2   6  111.89   12.10
   4   2   6   74.19   14.60
  -4   2  -6  100.09   13.80
   4   2   6  102.59   15.90
   4   2   6  139.09   19.60
  -4   2  -6  102.69   14.70
   4   2   6  111.89   12.10
   5  -2   6   20.90   10.60
   5  -2   6   49.70   10.40
   5  -2   6   34.70    7.60
   5  -2   6   32.10   12.30
   5  -2   6   34.70    7.60
   5  -2   6   49.70   10.40
   5  -2   6   42.80   12.50
  -5   2  -6   43.10   12.10
   5   2   6   46.20   12.10
   5   2   6   26.70    7.50
  -5   2  -6   32.60   10.10
   5   2   6   42.40   11.10
   5   2   6   26.70    7.50
   6  -2   6   43.10    7.40
   6  -2   6   27.80   12.50
   6  -2   6   26.20    8.40
   6  -2   6   43.10    7.40
   6   2   6   25.60    6.30
   6   2   6   50.49   10.80
  -6   2  -6   22.70   10.20
   6   2   6   25.60    6.30
   6  -3  -6  514.55   25.40
  -6  -3   6  522.65   25.10
   6  -3  -6  531.45   30.00
   6   3  -6  523.05   30.50
  -6   3   6  507.55   23.80
   6   3  -6  532.05   31.00
  -6   3   6  491.05   26.50
  -6   3   6  507.55   23.80
   5  -3  -6  485.45   24.60
   5  -3  -6  485.45   24.60
   5  -3  -6  498.55   27.20
   5  -3  -6  526.25   27.60
   5  -3  -6  416.86   29.90
   5   3  -6  532.85   22.40
   5   3  -6  487.95   31.80
   5   3  -6  550.44   35.90
   5   3  -6  532.85   22.40
  -5   3   6  506.35   27.00
   4  -3  -6   80.59   15.30
   4  -3  -6   73.89   12.20
   4  -3  -6   68.79   12.80
   4  -3  -6   83.19   14.60
   4  -3  -6   73.89   12.20
   4   3  -6   98.69   18.00
   4   3  -6   76.79   15.70
   4   3  -6   74.39   13.20
   4   3  -6   80.29   10.00
  -4   3   6   98.39   13.50
   4   3  -6   80.29   10.00
   3  -3  -6 1315.17   53.39
   3  -3  -6 1280.27   49.00
   3  -3  -6 1323.27   49.30
   3   3  -6 1375.86   43.00
   3   3  -6 1289.07   48.60
   3   3  -6 1375.86   43.00
   3   3  -6 1278.77   54.19
   3   3  -6 1302.27   55.39
  -2  -3   6   63.79   16.80
   2  -3  -6   84.39   12.70
   2  -3  -6  114.29   15.60
   2  -3  -6  103.09   16.10
  -2  -3   6   84.99   11.50
   2   3  -6   99.29   17.00
   2   3  -6   87.79   10.30
   2   3  -6   95.89   16.10
  -2   3   6  101.59   16.30
   2   3  -6  107.59   14.00
   2   3  -6   87.79   10.30
  -2   3   6  102.39   17.80
   1  -3  -6   73.89   11.40
   1  -3  -6   75.19   12.90
  -1  -3   6   82.39   11.20
  -1  -3   6   65.19   15.90
   1  -3  -6   79.59   12.10
   1  -3  -6   60.89   12.40
   1   3  -6   68.79    8.80
   1   3  -6   78.69   14.60
   1   3  -6   67.69   13.80
  -1   3   6   79.49   14.80
   1   3  -6   82.09   12.20
  -1   3   6   73.19   12.30
  -1   3   6   67.69    9.00
  -1   3   6   67.69    9.00
   1   3  -6   93.19   14.40
   1   3  -6   68.79    8.80
   1   3  -6   82.29   11.80
   0  -3  -6  413.06   22.70
   0  -3   6  420.46   30.00
   0  -3   6  367.96   18.60
   0  -3   6  408.66   22.00
   0  -3   6  367.96   18.60
   0   3  -6  395.36   22.20
   0   3   6  414.46   19.40
   0   3  -6  417.36   26.20
   0   3   6  414.46   19.40
   0   3   6  429.46   24.10
   0   3  -6  372.16   19.20
   0   3  -6  372.16   19.20
   0   3  -6  402.26   26.30
   0   3   6  403.76   24.60
   0   3  -6  392.36   21.80
   0   3   6  435.06   27.60
   1  -3   6  139.49   19.40
  -1  -3  -6  174.88   13.20
   1  -3   6  167.78   12.40
   1  -3   6  162.08   13.70
   1  -3   6  167.78   12.40
   1   3   6  174.18   17.00
   1   3   6  167.98   13.20
   1   3   6  160.58   17.40
  -1   3  -6  168.78   14.80
  -1   3  -6  170.78   17.00
   1   3   6  167.98   13.20
  -1   3  -6  157.78   15.30
   1   3   6  167.28   16.60
  -1   3  -6  184.28   19.10
   2  -3   6   85.29   13.20
   2  -3   6   85.09   12.80
   2  -3   6   74.09   10.10
   2  -3   6   74.09   10.10
  -2  -3  -6   73.49    7.80
   2  -3   6   88.19   17.90
  -2   3  -6   75.79   13.40
   2   3   6   91.59   14.20
  -2   3  -6   78.09   12.40
  -2   3  -6   71.09   13.80
   2   3   6   64.59    9.00
   2   3   6   59.99   13.60
   2   3   6   90.29   14.30
   2   3   6   64.59    9.00
   3  -3   6    1.40    6.40
   3  -3   6    1.40    6.40
   3  -3   6    4.00    9.40
   3  -3   6    2.30    5.80
  -3   3  -6    3.60    7.50
   3   3   6    7.90    8.80
  -3   3  -6   -4.40    5.50
   3   3   6   14.60   10.90
   3   3   6  -12.60    4.50
   3   3   6  -12.60    4.50
   3   3   6    7.00    6.90
   4  -3   6  370.56   20.60
   4  -3   6  347.27   27.70
   4  -3   6  366.56   26.20
   4  -3   6  370.56   20.60
  -4   3  -6  382.86   23.90
  -4   3  -6  379.46   23.70
   4   3   6  364.46   20.00
   4   3   6  376.06   27.00
   4   3   6  327.77   23.20
   4   3   6  364.46   20.00
   4   3   6  379.46   30.20
   5  -3   6   20.80    9.20
   5  -3   6   17.50    6.20
   5  -3   6   17.50    6.20
   5  -3   6   14.40   11.80
   5  -3   6   24.20    7.60
   5  -3   6   24.20    7.60
  -5   3  -6   11.60    9.70
   5   3   6    1.40    9.90
   5   3   6   11.20    7.40
  -5   3  -6   19.10    7.50
   5   3   6    1.10    9.10
   5   3   6   11.20    7.40
   6  -3   6  145.19   10.60
   6  -3   6  158.78   16.50
   6  -3   6  162.28   18.00
   6  -3   6  145.19   10.60
   6   3   6  193.18   15.50
  -6   3  -6  172.28   14.20
   6  -4  -6   26.50    7.60
   6  -4  -6   38.80    6.80
  -6   4   6   42.80    9.10
   6   4  -6   80.59   13.40
  -6   4   6   42.80    9.10
   5  -4  -6  304.17   20.10
   5  -4  -6  262.57   18.90
   5   4  -6  263.37   13.10
   5   4  -6  280.97   23.90
   5   4  -6  263.37   13.10
  -5   4   6  260.27   16.40
  -5   4   6  260.27   16.40
   4  -4  -6   56.49   11.10
   4  -4  -6   70.69   15.00
   4  -4  -6   59.69   13.10
   4   4  -6   85.59   13.80
  -4   4   6   74.89   11.60
  -4   4   6   74.89   11.60
   4   4  -6  101.09   10.60
   4   4  -6  101.09   10.60
   4   4  -6   94.69   16.90
   3  -4  -6   87.19   15.50
   3  -4  -6  107.59   16.20
   3  -4  -6  112.59   15.10
   3   4  -6   97.69   11.80
   3   4  -6  112.39   18.90
   3   4  -6   97.69   11.80
   3   4  -6   88.19   14.80
   2  -4  -6 1023.60   41.70
   2  -4  -6  999.70   41.80
  -2  -4   6  987.60   39.00
   2  -4  -6  992.30   44.10
  -2   4   6  936.01   46.00
   2   4  -6 1048.70   36.30
   2   4  -6  995.60   41.60
   2   4  -6 1048.70   36.30
   2   4  -6  965.60   46.90
   1  -4  -6  491.15   26.30
  -1  -4   6  516.45   26.40
   1   4  -6  508.85   30.50
  -1   4   6  496.25   22.20
   1   4  -6  456.35   27.20
   1   4  -6  461.05   22.30
   1   4  -6  514.75   27.20
  -1   4   6  510.65   31.60
  -1   4   6  468.65   26.50
   1   4  -6  461.05   22.30
  -1   4   6  496.25   22.20
   0  -4   6   51.69    8.50
   0  -4  -6   40.80    9.00
   0  -4   6   51.69    8.50
   0  -4   6   51.39   11.30
   0   4   6   26.30   11.50
   0   4  -6   40.90   11.90
   0   4  -6   58.79    9.10
   0   4  -6   57.69   12.50
   0   4  -6   52.19   11.70
   0   4   6   58.49    8.90
   0   4   6   57.19   11.70
   0   4  -6   47.20   13.70
   0   4   6   58.49    8.90
   0   4  -6   58.79    9.10
   1  -4   6  507.95   27.10
   1  -4   6  540.45   25.20
   1  -4   6  540.45   25.20
   1   4   6  534.65   29.60
  -1   4  -6  527.85   24.10
   1   4   6  509.55   32.30
   1   4   6  547.35   24.20
  -1   4  -6  527.85   24.10
  -1   4  -6  539.25   29.70
   1   4   6  547.35   24.20
  -1   4  -6  528.85   32.30
  -1   4  -6  551.14   29.40
   2  -4   6  224.48   17.20
   2  -4   6  220.68   17.80
   2  -4   6  220.68   17.80
  -2   4  -6  257.27   19.80
   2   4   6  243.28   23.00
   2   4   6  244.88   16.80
  -2   4  -6  268.17   22.20
   2   4   6  254.37   22.90
   2   4   6  244.88   16.80
  -2   4  -6  241.08   19.00
   3  -4   6  337.77   24.30
   3  -4   6  321.17   25.90
   3  -4   6  329.37   19.40
   3  -4   6  329.37   19.40
  -3   4  -6  327.57   24.40
   3   4   6  310.57   18.80
   3   4   6  331.47   26.20
   3   4   6  322.87   28.60
  -3   4  -6  341.57   25.40
  -3   4  -6  341.97   22.60
   3   4   6  310.57   18.80
   4  -4   6  106.29   12.50
   4  -4   6   90.29   18.30
   4  -4   6   82.89   15.00
   4  -4   6  106.29   12.50
   4   4   6  113.89   17.30
  -4   4  -6   80.29   14.00
  -4   4  -6  108.99   15.50
  -4   4  -6  126.19   17.70
   4   4   6  108.99   16.40
   4   4   6  120.79   12.50
   4   4   6  120.79   12.50
   5  -4   6   -3.40    5.40
   5  -4   6   -0.50    8.50
   5  -4   6   -4.70    6.20
   5  -4   6   -3.40    5.40
  -5   4  -6   -0.40    6.20
  -5   4  -6    1.10    7.80
  -5   4  -6    6.80    9.40
   5  -5  -6  177.08   14.50
   5  -5  -6  166.48   15.40
  -5   5   6  185.68   12.40
   5   5  -6  179.88   18.10
  -5   5   6  185.68   12.40
   4  -5  -6   53.79   11.10
   4  -5  -6   27.90    8.80
  -4   5   6   60.89    9.40
   4   5  -6   51.19   12.70
   4   5  -6   48.00    7.80
   4   5  -6   48.00    7.80
  -4   5   6   60.89    9.40
   4   5  -6   50.89   11.20
   3  -5  -6  108.69   15.50
   3  -5  -6  117.09   17.20
  -3   5   6   88.19   11.00
   3   5  -6  101.19   16.10
   3   5  -6   90.29   10.60
   3   5  -6   90.29   10.60
   3   5  -6  150.98   20.50
  -3   5   6   88.19   11.00
   2  -5  -6  228.38   19.30
  -2  -5   6  204.88   19.30
   2  -5  -6  211.88   18.20
  -2   5   6  197.18   13.30
   2   5  -6  184.78   20.70
  -2   5   6  197.18   13.30
   2   5  -6  206.58   16.40
   2   5  -6  218.18   23.40
   2   5  -6  206.58   16.40
  -1  -5   6   28.00   10.40
   1  -5  -6   27.70    8.80
   1  -5  -6   23.60    8.70
   1   5  -6   39.10   11.00
  -1   5   6   18.40    6.10
   1   5  -6   27.00    9.00
  -1   5   6   26.60   13.40
  -1   5   6   18.40    6.10
   1   5  -6   27.00    9.00
  -1   5   6   26.30   11.20
   1   5  -6   28.40   10.30
   0  -5   6  420.96   22.80
   0  -5   6  422.36   24.70
   0  -5   6  420.96   22.80
   0   5  -6  457.05   22.10
   0   5  -6  457.05   22.10
   0   5   6  416.06   22.10
   0   5  -6  424.96   26.00
   0   5   6  416.06   22.10
   0   5  -6  393.86   29.10
   0   5   6  423.86   26.90
   0   5   6  422.16   33.30
   1  -5   6    6.90    5.60
   1  -5   6    6.90    5.60
   1  -5   6   -3.50    8.00
  -1   5  -6    7.90    7.80
  -1   5  -6   -1.50    6.80
   1   5   6    5.90    7.60
  -1   5  -6    1.70    6.70
   1   5   6    4.40    8.30
   1   5   6    6.00    6.00
   1   5   6    6.00    6.00
  -1   5  -6    7.90    7.80
  -1   5  -6    6.30    7.10
   2  -5   6  115.09   13.20
   2  -5   6  115.09   13.20
   2  -5   6   98.59   13.10
   2   5   6   76.39   15.70
   2   5   6   89.69   17.80
  -2   5  -6   98.19   12.90
  -2   5  -6  127.99   17.30
  -2   5  -6  126.29   17.50
  -2   5  -6  102.39   16.20
  -2   5  -6   98.19   12.90
   3  -5   6   -6.60    7.10
   3  -5   6   -6.60    7.10
   3  -5   6    8.20   11.60
  -3   5  -6    1.30    6.80
  -3   5  -6   -1.20    6.80
   3   5   6   -0.50    7.60
  -3   5  -6    1.50    9.50
   3   5   6    6.60   10.90
   4  -5   6   51.79   12.90
   4  -5   6   59.79    9.50
   4  -5   6   59.79    9.50
  -4   5  -6   44.50    9.90
  -4   5  -6   40.40   11.10
   4   5   6   35.30   11.70
   5  -5   6   30.90    9.60
   5  -5   6   35.80    6.80
   5  -5   6   35.80    6.80
  -5   5  -6   13.30    5.80
  -5   5  -6   26.80    7.70
   4  -6  -6  124.09   13.80
   4   6  -6  128.69   14.40
   4   6  -6   80.29   10.70
   3  -6  -6   32.00    8.60
   3  -6  -6   15.50    6.40
   3  -6  -6    8.00    9.30
   3  -6  -6   15.50    6.40
   3   6  -6   21.10    8.80
  -3   6   6   14.50    7.00
   3   6  -6   22.40    9.90
  -3   6   6   14.50    7.00
   3   6  -6   36.30    6.00
   3   6  -6   36.30    6.00
   2  -6  -6   24.60    8.90
  -2  -6   6   11.80    6.70
   2  -6  -6   15.60   10.40
   2   6  -6   28.00   11.70
   2   6  -6    9.80   11.70
   2   6  -6   32.40    7.20
   2   6  -6   32.40    7.20
  -2   6   6   23.60    6.60
  -2   6   6   23.60    6.60
  -1  -6   6  164.98   17.40
   1  -6  -6  155.88   16.30
   1  -6  -6  136.79   15.70
   1   6  -6  121.09   12.90
   1   6  -6  117.59   17.60
   1   6  -6  121.09   12.90
   1   6  -6  109.39   16.30
  -1   6   6  146.09   18.60
   0  -6   6    4.40    6.70
   0   6   6   10.20    8.30
   0   6   6   -5.70   11.30
   0   6  -6   19.00    9.30
   0   6  -6    4.60    7.60
   0   6  -6   19.00    9.30
   1  -6   6    6.80    7.70
   1  -6   6    8.60    7.50
   1  -6   6    6.80    7.70
  -1   6  -6   21.00    7.80
  -1   6  -6    9.50   10.30
   1   6   6   14.90   12.00
  -1   6  -6   21.00    7.80
   1   6   6   24.70   11.30
   2  -6   6   21.70    9.10
   2  -6   6   21.70    9.10
   2  -6   6   11.10    8.60
  -2   6  -6   39.10   10.00
   2   6   6   39.90   11.70
   2   6   6   23.60   10.90
  -2   6  -6   30.60    9.20
   3  -6   6  167.58   13.10
   3  -6   6  167.58   13.10
  -3   6  -6  149.59   12.60
  -3   6  -6  149.59   12.60
   3   6   6  161.98   18.20
  -3   6  -6  137.79   15.30
   3   6   6  159.58   16.70
  -3   6  -6  151.18   13.80
   4  -6   6   63.89    8.20
   4  -6   6   63.89    8.20
   2  -7  -6   35.90    8.10
  -2  -7   6   30.90    6.80
   2  -7  -6   39.60    8.90
   2  -7  -6   37.40    8.60
   2  -7  -6   37.40    8.60
   2   7  -6   45.00    8.80
   2   7  -6   41.40    6.30
   2   7  -6   41.40    6.30
   1  -7  -6   -2.90    5.10
  -1  -7   6    0.60    5.70
   1  -7  -6   -4.80    4.00
   1  -7  -6   -2.90    5.10
   1   7  -6   -2.00    4.60
   1   7  -6   -2.00    4.60
   1   7  -6   -2.50    5.00
   0  -7   6  124.19   12.60
   0   7  -6   97.39   11.90
   0   7   6  114.79   14.20
   0   7  -6  145.49   11.70
   0   7  -6  145.49   11.70
   1  -7   6    5.60    4.20
   1  -7   6    5.60    4.20
   1  -7   6    9.60    6.00
  -1   7  -6    0.00    5.00
  -1   7  -6   10.60    6.60
  -1   7  -6    0.00    5.00
   1   7   6   16.00    9.20
   2  -7   6   66.29    7.20
   2  -7   6   66.29    7.20
  -2   7  -6   79.39    8.10
  -2   7  -6   39.60    7.00
  -2   7  -6   79.39    8.10
   2   7   6  101.99   13.60
   7   0  -7   -1.70    7.40
  -7   0   7   -3.20    5.60
   7   0  -7   -3.80    7.10
  -6   0   7    2.30    9.60
   6   0  -7   -6.50    7.00
   6   0  -7   -0.10    8.50
   6   0  -7    9.70    6.00
   6   0  -7    9.70    6.00
   5   0  -7   -2.90   10.20
   5   0  -7   16.70    9.10
   5   0  -7   16.70    9.10
  -5   0   7    9.20    9.10
   5   0  -7   -2.00   11.30
   4   0  -7   12.70    7.60
  -4   0   7    2.00    8.20
   4   0  -7   -2.40    9.10
   4   0  -7   -1.00    6.90
   4   0  -7   12.70    7.60
   4   0  -7    4.90    9.30
   3   0  -7   -3.10    5.00
  -3   0   7   -3.50    9.00
   3   0  -7   -4.50    4.80
   3   0  -7    2.70    6.40
   3   0  -7   -0.10    5.70
   3   0  -7   -0.10    5.70
   3   0  -7   -4.70    7.50
  -3   0   7   -6.70    4.30
   2   0  -7   -4.10    6.00
   2   0  -7    2.40    5.90
   2   0  -7   -4.20    6.60
  -2   0   7   -1.80    7.80
   2   0  -7    8.20    7.20
   1   0  -7    7.90    5.80
   1   0  -7    7.20    6.50
  -1   0   7   -4.30    7.10
   0   0   7    0.20    5.90
   0   0  -7   -6.10    5.50
   0   0  -7   -6.30    5.10
   1   0   7   -8.20    6.30
   1   0   7    4.50    5.80
   1   0   7    3.30    4.10
  -1   0  -7   -2.80    5.10
  -1   0  -7   -4.60    3.30
   1   0   7    8.00    6.00
   1   0   7    3.30    4.10
   2   0   7   -2.50    4.80
   2   0   7   -4.30    4.60
   2   0   7    3.00    5.70
   2   0   7    3.60    6.70
   2   0   7    4.50    5.60
   2   0   7   -4.30    4.60
   2   0   7   -2.50    4.80
  -2   0  -7   -6.90    4.40
   2   0   7   -2.20    6.50
  -2   0  -7    0.80    5.20
   3   0   7   -5.60    7.20
   3   0   7   -5.00    3.90
   3   0   7   -3.20    5.50
   3   0   7   -2.70    3.40
   3   0   7   -5.00    3.90
   3   0   7    6.00    9.60
   3   0   7    4.00    8.00
   3   0   7   -2.70    3.40
   4   0   7   -1.60    9.70
   4   0   7    5.10    6.60
   4   0   7    5.10    6.60
   4   0   7    2.60    5.40
   4   0   7    2.60    5.40
   4   0   7    5.30   11.10
   4   0   7    1.60    6.90
   5   0   7   -1.30    7.00
   5   0   7    4.30    9.20
   5   0   7    5.40   10.20
   5   0   7   -3.10    6.60
   5   0   7   -1.30    7.00
   6   0   7    0.90    6.30
   6   0   7    3.20    7.70
   7  -1  -7   18.00    8.10
  -7  -1   7   26.80    7.60
   7  -1  -7   39.20    8.00
   7   1  -7   26.10    7.30
  -7   1   7   33.30    7.80
   7   1  -7   37.00   10.90
   6  -1  -7   71.79   10.30
   6  -1  -7   56.39   15.40
   6  -1  -7   71.79   10.30
   6  -1  -7   41.00   11.80
  -6  -1   7   65.19   12.10
   6   1  -7   66.69   12.30
   6   1  -7   65.29    9.20
  -6   1   7   69.99   12.30
   6   1  -7   65.29    9.20
   6   1  -7   58.59   16.50
   5  -1  -7   28.40   10.50
   5  -1  -7    7.40   11.30
  -5  -1   7   28.70   10.60
   5  -1  -7   14.70    8.70
   5  -1  -7   14.70    8.70
   5   1  -7   10.20    7.70
   5   1  -7   17.30   10.40
   5   1  -7   11.00    6.30
   5   1  -7   11.00    6.30
  -5   1   7    6.90   10.00
   4  -1  -7   35.40   11.50
   4  -1  -7   32.90   11.00
   4  -1  -7   41.80    9.40
   4  -1  -7   43.10   12.30
   4  -1  -7   41.80    9.40
   4   1  -7   50.09    9.60
   4   1  -7   50.09    9.60
  -4   1   7   57.79   11.10
   4   1  -7   52.69   11.90
   4   1  -7   30.60   13.30
   3  -1  -7  121.69   14.80
   3  -1  -7  115.09   17.50
   3  -1  -7  155.08   14.20
   3  -1  -7  155.08   14.20
  -3  -1   7  154.18   23.10
   3  -1  -7  140.19   19.40
  -3   1   7  140.69   21.50
   3   1  -7  159.78   19.40
   3   1  -7  148.29   13.80
  -3   1   7  176.18   17.60
   3   1  -7  126.79   14.70
   3   1  -7  152.58   17.40
   3   1  -7  146.49   16.90
   3   1  -7  148.29   13.80
   2  -1  -7    8.90    7.90
   2  -1  -7    2.90    6.50
   2  -1  -7   -2.10    4.20
   2  -1  -7   -3.70    6.60
  -2  -1   7   -3.20    5.30
  -2  -1   7    7.70    9.90
   2   1  -7   -1.60    6.60
   2   1  -7   -2.10    5.00
   2   1  -7    6.50    6.00
   2   1  -7    6.50    6.00
  -2   1   7    4.80    4.90
  -2   1   7    5.90    9.40
   2   1  -7    0.50    5.80
   2   1  -7   -1.20    4.90
  -2   1   7    4.80    4.90
   2   1  -7    6.40    5.20
  -1  -1   7   20.70    9.40
   1  -1  -7   37.40    9.60
   1  -1  -7   33.30    7.70
   1   1  -7   33.90   11.10
   1   1  -7   24.30    7.40
  -1   1   7   22.60    8.70
   1   1  -7   36.40    8.20
  -1   1   7   36.00   10.60
   0  -1  -7 1117.29   40.60
   0  -1   7 1119.89   38.80
   0  -1  -7 1158.68   42.20
   0  -1   7 1122.19   47.30
   0   1  -7 1235.08   43.90
   0   1   7  991.40   42.50
   0   1  -7 1099.09   44.20
   0   1   7 1102.69   41.20
   1  -1   7  428.36   20.40
   1  -1   7  427.36   25.60
  -1  -1  -7  441.46   21.20
  -1  -1  -7  392.56   21.80
   1  -1   7  391.56   21.30
   1  -1   7  428.36   20.40
   1   1   7  440.46   20.00
  -1   1  -7  455.45   24.20
  -1   1  -7  450.35   24.80
  -1   1  -7  431.76   25.90
   1   1   7  440.46   20.00
   1   1   7  426.16   19.10
   1   1   7  386.36   24.60
   1   1   7  447.16   24.00
   1   1   7  426.16   19.10
   1   1   7  413.06   21.30
  -1   1  -7  403.56   24.60
   1   1   7  413.26   23.50
   2  -1   7  156.28   12.20
   2  -1   7  149.99   16.60
   2  -1   7  156.28   12.20
  -2  -1  -7  146.39   13.50
   2  -1   7  167.48   13.90
   2  -1   7  150.98   15.00
   2  -1   7  190.28   17.00
   2  -1   7  167.48   13.90
   2  -1   7  197.98   19.50
  -2   1  -7  151.58   15.00
   2   1   7  170.48   16.40
   2   1   7  172.68   19.30
   2   1   7  146.49   14.10
   2   1   7  168.38   20.30
  -2   1  -7  129.59   14.50
   2   1   7  168.38   13.10
   2   1   7  168.38   13.10
   2   1   7  165.38   15.40
  -2   1  -7  196.68   18.80
   2   1   7  146.49   14.10
   3  -1   7   44.30   12.30
   3  -1   7   40.20   11.70
   3  -1   7   37.90   10.70
   3  -1   7   38.10   11.10
   3  -1   7   40.20    8.20
   3  -1   7   39.10    7.90
   3  -1   7   39.10    7.90
   3  -1   7   40.20    8.20
  -3   1  -7   47.40   12.10
   3   1   7   44.40    9.20
   3   1   7   35.20   12.50
   3   1   7   43.20    7.60
   3   1   7   43.20    7.60
   3   1   7   51.19   12.40
   3   1   7   40.60   10.70
   3   1   7   37.00   10.60
   3   1   7   44.40    9.20
   4  -1   7   17.90    6.50
   4  -1   7   16.50   10.20
   4  -1   7   21.20   11.20
   4  -1   7   27.50    8.10
   4  -1   7   17.90    6.50
   4  -1   7   27.50    8.10
   4  -1   7   30.50    9.30
   4  -1   7   15.30   10.50
  -4   1  -7   12.60    7.30
   4   1   7   20.10    8.90
   4   1   7   10.20    7.30
   4   1   7   29.30   13.40
   4   1   7   10.20    7.30
   4   1   7   -9.00    8.00
   5  -1   7  224.48   21.80
   5  -1   7  251.77   26.90
   5  -1   7  233.58   15.40
   5  -1   7  226.18   15.90
   5  -1   7  226.18   15.90
   5  -1   7  233.58   15.40
   5  -1   7  242.08   20.20
   5   1   7  211.78   22.30
   5   1   7  217.28   15.10
   5   1   7  242.78   26.00
   5   1   7  153.48   18.70
   5   1   7  217.28   15.10
   6  -1   7   20.10    9.70
   6  -1   7   22.80    7.40
   6  -1   7   22.80    7.40
   6  -1   7   17.50    6.90
  -6   1  -7   31.00    8.20
   6   1   7   28.10    9.50
   6   1   7   22.60    5.90
   6   1   7   22.60    5.90
   6   1   7   12.00    7.10
   6  -2  -7   52.69   12.80
   6  -2  -7   48.60    8.40
   6  -2  -7   48.60    8.40
  -6  -2   7   35.00   10.70
   6   2  -7   30.30   11.20
  -6   2   7   39.40   11.40
   6   2  -7   31.90    7.40
   6   2  -7   66.89   15.20
   6   2  -7   42.00   10.10
   6   2  -7   31.90    7.40
   5  -2  -7   69.69   17.00
   5  -2  -7   40.70   13.10
   5  -2  -7   40.30   10.00
  -5  -2   7   77.49   12.50
   5  -2  -7   74.49   13.10
   5  -2  -7   40.30   10.00
   5   2  -7  107.99   19.10
   5   2  -7   78.29   10.30
   5   2  -7   61.99   13.70
  -5   2   7   62.69   13.40
   5   2  -7   78.29   10.30
   4  -2  -7   68.29   12.10
   4  -2  -7  120.19   17.80
   4  -2  -7   99.39   12.80
   4  -2  -7  101.79   17.30
   4  -2  -7   99.39   12.80
   4  -2  -7  110.39   16.40
  -4   2   7  109.69   15.80
   4   2  -7  117.49   12.30
   4   2  -7   99.49   19.30
   4   2  -7   73.99   15.30
   4   2  -7  117.49   12.30
   3  -2  -7  267.47   24.00
   3  -2  -7  249.08   18.70
   3  -2  -7  254.77   18.50
   3   2  -7  240.98   15.30
   3   2  -7  260.07   22.50
   3   2  -7  299.77   23.70
   3   2  -7  263.97   23.10
  -3   2   7  234.98   19.70
   3   2  -7  240.98   15.30
   2  -2  -7    0.40    8.00
   2  -2  -7    8.80    5.90
  -2  -2   7    4.30    7.70
  -2  -2   7   12.60    5.70
   2  -2  -7   12.30    8.50
   2   2  -7    5.70    7.80
  -2   2   7    2.80    9.90
   2   2  -7   10.90    6.70
   2   2  -7   10.90    6.70
   2   2  -7    0.50    7.60
   2   2  -7    8.20    8.80
   2   2  -7   17.40    7.60
  -2   2   7    7.80    4.40
  -2   2   7    7.80    4.40
  -1  -2   7    7.70    6.60
  -1  -2   7    3.50   10.00
   1  -2  -7   -8.10    5.70
   1  -2  -7    0.60    6.40
   1  -2  -7    1.60    6.70
   1   2  -7   -0.80    4.30
   1   2  -7    0.30    8.30
  -1   2   7    3.60    3.70
   1   2  -7   -0.80    4.30
  -1   2   7   -1.50    4.00
   1   2  -7    7.40    7.60
   1   2  -7    4.60    7.80
  -1   2   7    1.90    7.80
  -1   2   7    3.60    3.70
  -1   2   7   -0.50    5.10
   1   2  -7    7.30    5.80
   0  -2   7  242.28   17.50
   0  -2   7  244.98   14.80
   0  -2  -7  277.07   18.80
   0  -2  -7  269.27   18.10
   0  -2   7  255.57   26.50
   0  -2   7  244.98   14.80
   0   2   7  262.67   21.70
   0   2   7  251.97   14.40
   0   2   7  264.77   16.60
   0   2   7  251.97   14.40
   0   2  -7  267.27   19.40
   0   2  -7  268.77   17.70
   0   2   7  233.48   20.60
   0   2  -7  275.67   21.70
   0   2   7  257.47   18.80
   1  -2   7  704.73   26.80
   1  -2   7  618.64   35.40
  -1  -2  -7  685.83   28.80
   1  -2   7  643.84   28.30
  -1  -2  -7  656.93   27.00
   1  -2   7  704.73   26.80
   1   2   7  707.73   32.80
   1   2   7  675.93   26.20
  -1   2  -7  684.43   35.00
  -1   2  -7  654.23   30.30
   1   2   7  649.04   29.40
   1   2   7  675.93   26.20
  -1   2  -7  691.73   33.60
   1   2   7  667.13   31.90
   1   2   7  635.64   34.70
   2  -2   7  496.15   25.60
   2  -2   7  466.95   24.90
   2  -2   7  456.25   29.60
  -2  -2  -7  483.05   21.60
   2   2   7  468.25   24.20
  -2   2  -7  507.65   28.60
   2   2   7  458.25   27.10
   2   2   7  465.75   20.90
  -2   2  -7  471.45   24.90
   2   2   7  465.75   20.90
   2   2   7  467.75   27.90
   2   2   7  483.85   30.10
  -2   2  -7  482.45   30.70
  -2   2  -7  448.36   25.10
   3  -2   7  106.59   10.50
   3  -2   7  106.59   10.50
   3  -2   7   94.09   14.90
   3  -2   7   74.99   11.70
   3  -2   7   88.89   16.20
   3  -2   7   74.99   11.70
   3   2   7  112.99   15.70
  -3   2  -7   87.89   13.20
  -3   2  -7   90.79   14.00
   3   2   7  110.09   16.80
   3   2   7  110.29   17.40
   3   2   7  113.19   11.40
   3   2   7  113.19   11.40
   4  -2   7    8.40    6.50
   4  -2   7   11.70    8.00
   4  -2   7   11.70    8.00
   4  -2   7    9.30    7.70
   4  -2   7    8.40    6.50
   4  -2   7   18.30    9.40
   4  -2   7   13.80    9.40
   4   2   7   16.60    9.00
   4   2   7   28.10    7.00
  -4   2  -7    7.40    8.30
   4   2   7   28.10    7.00
   4   2   7   19.70    8.70
   4   2   7   15.60   11.70
  -4   2  -7    8.90    9.30
   5  -2   7   47.30   11.30
   5  -2   7   30.70    9.10
   5  -2   7   30.70    9.10
   5  -2   7   29.50    8.40
   5  -2   7   27.00    9.60
   5  -2   7   45.50   12.80
   5  -2   7   29.50    8.40
  -5   2  -7   33.50    9.20
   5   2   7   52.99    8.30
   5   2   7   41.20   11.90
   5   2   7   52.99    8.30
   5   2   7   47.80   13.10
  -5   2  -7   32.90    8.50
   6  -2   7  557.94   22.00
   6  -2   7  458.75   28.20
   6  -2   7  557.94   22.00
   6   2   7  554.14   21.10
   6   2   7  554.14   21.10
   6   2   7  554.34   26.40
  -6   2  -7  573.84   26.20
  -6  -3   7  101.89   12.10
   6   3  -7   70.89   12.70
  -6   3   7  104.59   11.60
  -6   3   7   75.89    8.80
   6   3  -7   98.89   14.80
  -6   3   7   75.89    8.80
   5  -3  -7  382.36   21.70
   5  -3  -7  411.86   25.70
   5  -3  -7  382.36   21.70
   5  -3  -7  367.86   22.30
   5  -3  -7  394.56   27.50
  -5   3   7  418.16   24.90
   5   3  -7  399.76   19.50
   5   3  -7  373.96   27.70
   5   3  -7  401.66   27.70
   5   3  -7  399.76   19.50
   4  -3  -7  461.05   27.50
   4  -3  -7  471.85   26.40
   4  -3  -7  430.16   29.20
   4  -3  -7  400.86   21.80
   4  -3  -7  400.86   21.80
   4   3  -7  470.55   33.60
   4   3  -7  404.56   25.80
   4   3  -7  435.06   20.80
   4   3  -7  435.06   20.80
   4   3  -7  432.56   31.50
   3  -3  -7  825.22   41.70
   3  -3  -7  817.62   36.50
   3  -3  -7  770.92   35.90
   3   3  -7  845.12   42.20
   3   3  -7  862.51   32.50
   3   3  -7  789.72   36.50
   3   3  -7  862.51   32.50
   3   3  -7  812.72   41.90
  -2  -3   7  133.49   14.00
   2  -3  -7  150.28   14.30
   2  -3  -7  116.89   17.00
   2   3  -7  171.18   17.20
   2   3  -7  112.19   12.40
   2   3  -7  125.29   18.80
   2   3  -7  125.59   18.40
   2   3  -7  112.19   12.40
   2   3  -7  114.09   14.40
  -2   3   7  145.49   18.90
  -1  -3   7    4.10    4.90
  -1  -3   7   -6.90    9.30
   1  -3  -7    5.00    8.30
   1  -3  -7    2.50    5.70
   1  -3  -7   -0.80    5.30
   1  -3  -7    8.90    7.40
  -1   3   7   12.70    6.30
   1   3  -7    3.90    9.20
   1   3  -7    5.60    6.90
   1   3  -7    4.70    5.90
   1   3  -7    5.40    9.10
  -1   3   7    5.30    8.40
   1   3  -7   -5.30    4.80
   1   3  -7    3.90    4.50
  -1   3   7   12.70    6.30
   1   3  -7    3.90    4.50
   0  -3   7  776.82   45.30
   0  -3   7  859.41   34.70
   0  -3  -7  798.52   35.60
   0  -3  -7  819.12   34.50
   0  -3   7  803.52   30.30
   0  -3   7  803.52   30.30
   0   3  -7  828.52   35.10
   0   3   7  783.42   39.30
   0   3   7  815.52   30.50
   0   3   7  785.42   35.70
   0   3   7  772.42   36.60
   0   3  -7  817.32   38.50
   0   3   7  815.52   30.50
   0   3  -7  805.12   35.30
   0   3  -7  850.81   39.70
   0   3  -7  805.52   30.20
   0   3  -7  805.52   30.20
   0   3  -7  791.12   39.10
   1  -3   7    5.30    6.10
   1  -3   7   -4.20    4.40
   1  -3   7    5.30    6.10
   1  -3   7   -9.20   11.40
  -1   3  -7   -3.50    4.90
   1   3   7   -1.30    5.70
   1   3   7    0.30   13.20
   1   3   7    3.70    8.20
   1   3   7    5.80    4.60
  -1   3  -7   -5.40    5.10
   1   3   7    5.80    4.60
  -1   3  -7   -3.60    5.20
   2  -3   7  281.07   23.00
   2  -3   7  303.77   21.00
   2  -3   7  314.17   18.30
   2  -3   7  314.17   18.30
  -2   3  -7  315.47   22.70
   2   3   7  308.97   18.40
  -2   3  -7  356.26   23.20
   2   3   7  324.87   23.00
   2   3   7  302.97   23.00
  -2   3  -7  297.37   25.60
   2   3   7  295.27   26.70
   2   3   7  308.97   18.40
   3  -3   7   58.29   14.20
   3  -3   7   61.99   12.90
   3  -3   7   60.59   10.10
   3  -3   7   60.59   10.10
   3   3   7   65.89    9.60
   3   3   7   65.89    9.60
  -3   3  -7   64.99   13.30
  -3   3  -7   69.49   12.30
   3   3   7   53.29   13.10
   3   3   7   56.19   13.60
   3   3   7   65.09   13.30
   4  -3   7  721.33   37.20
   4  -3   7  727.63   30.80
   4  -3   7  737.23   41.90
   4  -3   7  727.63   30.80
   4  -3   7  765.22   35.70
  -4   3  -7  725.13   35.40
   4   3   7  717.73   35.90
   4   3   7  759.62   36.50
  -4   3  -7  723.43   34.00
   4   3   7  754.22   29.10
   4   3   7  735.83   41.30
   4   3   7  754.22   29.10
   5  -3   7    1.60    7.00
   5  -3   7    3.20    5.90
   5  -3   7    3.20    5.90
   5  -3   7   16.70   10.30
  -5   3  -7   16.40    8.30
  -5   3  -7    6.90    5.90
   5   3   7    6.30    7.50
   5   3   7   16.50    5.80
   5   3   7   16.50    5.80
   5   3   7   16.10    8.80
   6  -3   7  156.48   15.50
  -6   3  -7  174.28   14.80
   5  -4  -7    9.10    6.20
   5  -4  -7    1.20    5.90
   5  -4  -7   17.50    7.60
   5   4  -7    5.50    4.70
  -5   4   7   11.00    6.30
   5   4  -7    3.80    8.50
   5   4  -7    5.50    4.70
  -5   4   7   11.00    6.30
   4  -4  -7  167.48   18.10
   4  -4  -7  129.69   17.20
   4  -4  -7   85.99   13.80
  -4   4   7  136.49   13.50
   4   4  -7  175.58   21.60
  -4   4   7  136.49   13.50
   4   4  -7  135.39   17.10
   4   4  -7  166.88   13.20
   4   4  -7  166.88   13.20
   3  -4  -7   34.10   11.40
   3  -4  -7    5.00    9.10
   3  -4  -7   21.80   11.30
   3   4  -7   21.10    6.80
   3   4  -7   19.90    8.10
   3   4  -7   21.70    9.50
   3   4  -7   21.10    6.80
   2  -4  -7  675.53   33.60
   2  -4  -7  662.93   35.60
  -2  -4   7  742.13   31.80
   2  -4  -7  753.92   35.40
   2   4  -7  702.93   28.70
  -2   4   7  696.33   38.80
   2   4  -7  702.93   28.70
   2   4  -7  734.73   39.20
   2   4  -7  671.33   34.10
   1  -4  -7  109.59   14.90
   1  -4  -7  109.49   16.40
  -1  -4   7   81.79   12.90
   1   4  -7   84.49   12.00
  -1   4   7   55.19   14.10
  -1   4   7   87.79   10.80
   1   4  -7   84.49   12.00
  -1   4   7   77.69   14.40
   1   4  -7  101.89   15.50
  -1   4   7   87.79   10.80
   1   4  -7   88.69   15.00
   1   4  -7   71.89   15.30
   0  -4   7    7.80    8.10
   0  -4   7    0.90    6.60
   0  -4   7    0.90    6.60
   0   4  -7    8.10    7.10
   0   4  -7   -7.70    8.40
   0   4   7   12.30    7.50
   0   4   7    1.70    7.10
   0   4  -7    3.90    8.60
   0   4  -7    5.00    8.60
   0   4   7    7.10    8.40
   0   4   7    1.70    7.10
   0   4  -7    8.10    7.10
   1  -4   7  521.65   24.50
   1  -4   7  519.55   28.00
   1  -4   7  521.65   24.50
  -1   4  -7  495.35   28.00
   1   4   7  514.45   24.70
  -1   4  -7  527.55   24.90
  -1   4  -7  527.45   31.90
  -1   4  -7  527.55   24.90
  -1   4  -7  535.75   29.80
   1   4   7  551.44   36.00
   1   4   7  514.45   24.70
   1   4   7  545.85   30.50
   2  -4   7  319.87   22.30
   2  -4   7  357.56   21.60
   2  -4   7  357.56   21.60
   2   4   7  339.57   18.70
  -2   4  -7  341.07   24.60
  -2   4  -7  341.27   24.20
   2   4   7  365.96   27.00
  -2   4  -7  338.97   25.70
   2   4   7  339.57   18.70
   2   4   7  326.17   29.10
   3  -4   7   35.00    8.10
   3  -4   7   31.20   11.00
   3  -4   7   35.00    8.10
  -3   4  -7   37.20   11.50
   3   4   7   27.90   12.00
  -3   4  -7   44.50   10.60
  -3   4  -7   31.00   11.60
   3   4   7   38.70    9.10
   3   4   7   38.70    9.10
   3   4   7   38.90   11.80
   4  -4   7   11.40    6.70
   4  -4   7    4.10    8.80
   4  -4   7   13.20   10.30
   4  -4   7    1.70    7.10
   4  -4   7   11.40    6.70
  -4   4  -7    7.20   10.30
   4   4   7    3.20    5.40
  -4   4  -7    4.30    9.30
   4   4   7    4.30    8.00
  -4   4  -7   16.90   11.20
   4   4   7    3.00    7.40
   4   4   7    3.20    5.40
   5  -4   7   72.99   13.10
   5  -4   7   67.99   10.00
   5  -4   7   67.99   10.00
  -5   4  -7   58.69   10.70
  -5   4  -7   50.59   10.80
  -5   4  -7   53.79    9.50
   5  -5  -7   40.40    7.30
   5  -5  -7   37.30    7.40
  -5   5   7   33.30    5.80
   5   5  -7   34.50    9.40
  -5   5   7   33.30    5.80
   4  -5  -7  120.79   13.30
   4  -5  -7  132.39   15.40
   4   5  -7  108.19    9.10
   4   5  -7  108.19    9.10
   4   5  -7  119.09   15.40
   4   5  -7  138.69   17.90
  -4   5   7  119.39   10.80
  -4   5   7  119.39   10.80
   3  -5  -7   13.10   10.00
   3  -5  -7   25.40    8.60
   3   5  -7   25.70    6.90
  -3   5   7   19.20    6.20
   3   5  -7   10.40    8.10
  -3   5   7   19.20    6.20
   3   5  -7   23.60   10.60
   3   5  -7   25.70    6.90
   2  -5  -7   14.80    8.00
  -2  -5   7    9.10    6.30
   2  -5  -7   12.40    9.20
   2   5  -7   13.20   12.20
  -2   5   7    3.50    6.40
   2   5  -7   24.40    7.40
  -2   5   7    3.50    6.40
   2   5  -7   24.40    7.40
   2   5  -7   15.00    8.40
   1  -5  -7  174.48   17.10
   1  -5  -7  185.78   18.50
  -1  -5   7  175.58   18.20
  -1   5   7  167.98   17.10
   1   5  -7  208.58   23.60
  -1   5   7  205.58   22.50
   1   5  -7  161.08   18.90
   1   5  -7  182.68   14.50
  -1   5   7  184.48   11.40
  -1   5   7  184.48   11.40
   1   5  -7  182.68   14.50
   0  -5   7  802.82   36.70
   0   5  -7  848.52   41.40
   0   5   7  918.51   45.10
   0   5  -7  736.53   35.90
   0   5   7  789.72   38.00
   0   5  -7  831.92   33.00
   0   5   7  762.72   30.40
   0   5  -7  834.32   37.50
   0   5  -7  831.92   33.00
   0   5   7  762.72   30.40
   1  -5   7   18.20   10.40
   1  -5   7   18.50    6.80
   1  -5   7   18.50    6.80
  -1   5  -7   13.60    6.80
  -1   5  -7   16.30    8.40
  -1   5  -7   13.60    6.80
  -1   5  -7   10.10    7.80
   1   5   7   11.90    8.90
   1   5   7   17.80   13.20
   1   5   7   11.90    8.90
  -1   5  -7    3.50    7.60
   1   5   7   18.10    9.40
   2  -5   7  149.79   15.20
   2  -5   7  177.38   14.40
   2  -5   7  177.38   14.40
   2   5   7  166.68   20.60
  -2   5  -7  172.48   16.70
  -2   5  -7  144.49   19.10
   2   5   7  188.18   21.70
  -2   5  -7  149.99   14.30
  -2   5  -7  149.99   14.30
   2   5   7  204.58   16.60
  -2   5  -7  198.98   18.30
   2   5   7  204.58   16.60
   3  -5   7    7.50    6.20
   3  -5   7    7.50    6.20
   3  -5   7   10.20   11.80
   3   5   7    6.50    7.70
  -3   5  -7   14.90    7.90
  -3   5  -7    3.70    7.10
   3   5   7   11.00    8.40
  -3   5  -7    4.90    8.00
   4  -5   7  267.67   18.30
   4  -5   7  238.78   19.40
   4  -5   7  277.07   15.70
   4  -5   7  277.07   15.70
  -4   5  -7  236.38   17.10
   4   5   7  259.87   18.50
  -4   5  -7  228.28   17.70
   4  -6  -7   58.49    8.50
   4  -6  -7   54.19    7.40
  -4   6   7   82.19    7.00
  -4   6   7   82.19    7.00
   3  -6  -7  173.58   14.50
   3  -6  -7  170.88   16.70
   3   6  -7  113.19   14.40
   3   6  -7  171.58   10.00
   3   6  -7  171.58   10.00
  -3   6   7  164.68    9.50
   3   6  -7  162.08   16.30
  -3   6   7  164.68    9.50
   2  -6  -7  351.86   21.60
   2  -6  -7  361.96   20.90
   2   6  -7  320.77   21.60
   2   6  -7  351.16   26.10
   2   6  -7  334.37   18.10
   2   6  -7  334.37   18.10
   1  -6  -7   -3.40    5.10
  -1  -6   7    2.80    6.90
   1  -6  -7   -3.70    6.30
   1   6  -7   -2.80    7.30
   1   6  -7  -13.00    7.50
  -1   6   7    4.20    7.20
   1   6  -7  -13.00    7.50
   1   6  -7   -3.00    6.90
   0  -6   7    0.00    6.90
   0  -6  -7    7.10    9.50
   0   6  -7   -7.10    5.10
   0   6  -7   -7.10    5.10
   0   6  -7    4.30    7.90
   0   6   7   10.30   12.70
   0   6   7    2.00   10.20
   0   6  -7   -9.50    6.50
   1  -6   7   19.40    6.50
   1  -6   7    3.20    6.80
   1  -6   7   19.40    6.50
   1   6   7   29.00   12.50
  -1   6  -7   16.90   10.40
  -1   6  -7   27.10    9.30
   1   6   7   11.80   12.70
  -1   6  -7   30.00   11.40
  -1   6  -7   27.10    9.30
   2  -6   7  405.96   20.90
   2  -6   7  427.26   22.20
   2  -6   7  405.96   20.90
  -2   6  -7  410.86   21.30
   2   6   7  332.07   25.60
  -2   6  -7  410.86   21.30
  -2   6  -7  442.26   23.40
  -2   6  -7  384.26   21.20
   2   6   7  492.65   26.80
   3  -6   7   16.40    6.30
   3  -6   7   16.40    6.30
  -3   6  -7   17.90    6.50
   3   6   7   15.30    7.80
  -3   6  -7   24.20    7.10
   3   6   7   16.20    7.50
   1  -7  -7   13.30    5.80
  -1  -7   7    9.40    5.70
   1  -7  -7   13.30    5.80
   1   7  -7   17.10    6.40
   1   7  -7    2.80    4.20
   1   7  -7    2.80    4.20
   0  -7   7   39.20    7.40
   0   7  -7   67.59    7.50
   0   7  -7   67.59    7.50
   0   7  -7   55.79    9.40
   0   7   7   39.70    8.00
   1  -7   7    7.90    4.90
  -1   7  -7    4.30    4.40
  -1   7  -7    4.30    4.40
   1   7   7    9.80    6.80
  -1   7  -7    2.20    5.00
   6   0  -8   42.10   10.10
   6   0  -8   59.59   10.00
   6   0  -8   59.59   10.00
   6   0  -8   70.99   15.20
  -6   0   8   52.59   10.70
  -5   0   8  185.58   17.30
   5   0  -8  205.28   24.20
   5   0  -8  198.28   16.40
   5   0  -8  198.28   16.40
   5   0  -8  185.58   22.40
   4   0  -8  368.26   28.70
   4   0  -8  387.76   29.50
   4   0  -8  325.37   24.10
   4   0  -8  364.56   20.00
   4   0  -8  364.56   20.00
  -4   0   8  399.76   25.50
   3   0  -8   98.59   17.70
   3   0  -8   51.39    9.70
   3   0  -8   76.29   12.70
  -3   0   8   81.79   13.30
   3   0  -8   69.19   14.50
   3   0  -8   51.39    9.70
  -2   0   8  346.67   18.80
   2   0  -8  330.37   25.10
   2   0  -8  329.07   22.80
  -2   0   8  292.87   20.60
  -2   0   8  350.56   29.70
   2   0  -8  334.37   25.50
   2   0  -8  337.37   21.70
   1   0  -8  533.15   29.50
   1   0  -8  596.54   27.70
   1   0  -8  544.35   30.40
  -1   0   8  571.84   26.10
  -1   0   8  555.44   33.40
  -1   0   8  567.64   28.80
   0   0   8 2865.61   82.29
   0   0   8 2965.10   80.69
   0   0   8 2960.40   88.89
   0   0   8 3172.28   89.99
   0   0  -8 3115.49   90.49
   0   0   8 2865.61   82.29
   0   0   8 2965.10   80.69
   0   0   8 3058.79   86.09
   0   0  -8 2962.40   86.89
   1   0   8  393.36   24.90
   1   0   8  407.76   20.70
  -1   0  -8  419.96   23.80
   1   0   8  397.96   22.30
   1   0   8  410.86   27.30
  -1   0  -8  401.96   24.00
   1   0   8  410.16   19.10
  -1   0  -8  356.86   23.20
   1   0   8  393.96   24.00
   1   0   8  410.16   19.10
   1   0   8  407.76   20.70
  -1   0  -8  394.76   22.90
   2   0   8    2.10    4.50
   2   0   8   -1.20    4.60
   2   0   8   -0.70    8.60
   2   0   8   -1.20    4.60
   2   0   8    5.10    5.80
   2   0   8   -7.00    4.60
   2   0   8    2.10    4.50
   2   0   8   11.30    9.20
   3   0   8   57.59   13.30
   3   0   8   65.79    9.00
   3   0   8   51.89   14.80
   3   0   8   66.99   14.70
   3   0   8   46.20   10.90
   3   0   8   54.89   10.40
   3   0   8   54.89   10.40
   3   0   8   65.79    9.00
   4   0   8  614.94   27.70
   4   0   8  640.34   39.60
   4   0   8  610.04   33.20
   4   0   8  618.64   27.30
   4   0   8  618.64   27.30
   4   0   8  614.94   27.70
   4   0   8  611.24   34.40
   5   0   8  246.38   15.10
   5   0   8  244.58   23.30
   5   0   8  246.38   15.10
   5   0   8  240.18   19.70
   5   0   8  214.88   19.20
   6   0   8   16.50    7.90
   6   0   8    2.30    5.70
   6   0   8   14.30    4.80
   6   0   8   14.30    4.80
   6  -1  -8  440.76   26.70
   6  -1  -8  434.76   21.10
   6  -1  -8  434.76   21.10
   6  -1  -8  420.56   26.10
  -6  -1   8  431.36   23.00
   6   1  -8  444.06   28.00
  -6   1   8  440.86   22.80
   6   1  -8  425.26   18.70
   6   1  -8  425.26   18.70
  -5  -1   8   35.80   10.20
   5  -1  -8   29.60   11.70
   5  -1  -8   26.20    8.30
   5  -1  -8   26.20    8.30
   5  -1  -8   25.90   13.30
   5   1  -8   28.00   12.00
   5   1  -8   31.60    9.60
   5   1  -8   31.60    9.60
  -5   1   8   25.70    9.40
   5   1  -8   25.90   11.10
   4  -1  -8   97.79   13.10
   4  -1  -8   49.70   12.80
   4  -1  -8   97.79   13.10
   4  -1  -8   48.70   14.00
   4  -1  -8   94.19   16.80
  -4  -1   8   71.19   13.00
   4   1  -8   62.19   16.10
   4   1  -8   67.69   14.30
   4   1  -8   82.09   12.20
  -4   1   8  102.09   14.20
   4   1  -8   82.09   12.20
   3  -1  -8   -1.40    7.60
   3  -1  -8    9.70    9.20
   3  -1  -8    4.80    6.20
   3  -1  -8    5.40    6.70
   3  -1  -8   -1.40    7.60
   3   1  -8   -2.00    6.00
   3   1  -8    3.30    8.80
   3   1  -8   -0.20    8.70
   3   1  -8    7.20    7.00
   3   1  -8    7.20    7.00
   3   1  -8    9.40    9.00
  -3   1   8   10.00    7.00
   2  -1  -8  184.28   17.20
   2  -1  -8  188.98   18.70
  -2  -1   8  158.98   14.70
   2  -1  -8  154.88   16.80
   2   1  -8  172.18   16.90
   2   1  -8  176.28   19.40
  -2   1   8  189.38   13.60
  -2   1   8  189.38   13.60
   2   1  -8  176.48   15.90
   2   1  -8  166.98   19.30
   2   1  -8  150.08   21.00
  -2   1   8  197.18   23.70
  -2   1   8  177.88   14.70
   2   1  -8  185.18   17.20
   2   1  -8  176.48   15.90
   1  -1  -8  921.01   42.70
  -1  -1   8  848.52   33.20
   1  -1  -8  811.22   36.20
  -1  -1   8  717.93   41.70
   1  -1  -8  755.12   33.20
   1  -1  -8  808.72   38.00
  -1   1   8  805.02   28.60
   1   1  -8  799.72   33.50
  -1   1   8  805.02   28.60
   1   1  -8  792.42   36.60
  -1   1   8  792.32   31.90
   1   1  -8  723.93   36.70
  -1   1   8  801.92   35.00
   1   1  -8  787.32   38.30
   0  -1   8   32.80   10.00
   0  -1   8   34.70    7.60
   0  -1  -8   33.20    8.90
   0  -1   8   34.90    8.10
   0  -1   8   34.70    7.60
   0  -1  -8   21.30    8.70
   0  -1   8   59.19   10.60
   0  -1   8   22.30   10.70
   0  -1  -8   35.40    9.00
   0   1   8   33.80    7.30
   0   1  -8   34.10   10.40
   0   1   8   42.70    9.50
   0   1   8   30.30    8.70
   0   1   8   33.80    7.30
   0   1  -8   31.60    9.10
   0   1   8   40.50   10.10
   0   1  -8   38.20   10.40
   0   1   8   30.40    9.00
   1  -1   8   40.50   10.80
   1  -1   8   20.10    9.70
   1  -1   8   31.70    7.90
   1  -1   8   31.70    7.90
   1  -1   8   22.10    8.50
  -1  -1  -8   24.10    7.50
  -1  -1  -8   38.60    9.70
   1   1   8   27.90   10.90
  -1   1  -8   42.00   11.20
   1   1   8   31.40    6.40
   1   1   8   31.40    6.40
   1   1   8   30.00    7.30
  -1   1  -8   43.80   12.40
   1   1   8   39.10   10.90
  -1   1  -8   46.90    9.30
   1   1   8   37.80    9.50
   1   1   8   30.00    7.30
   1   1   8   34.00   10.10
  -1   1  -8   29.00    8.30
   2  -1   8  843.22   38.30
   2  -1   8  878.61   35.70
   2  -1   8  827.02   30.40
   2  -1   8  787.92   38.30
   2  -1   8  789.42   41.10
   2  -1   8  827.02   30.40
   2   1   8  830.42   39.20
   2   1   8  799.62   32.90
   2   1   8  853.81   38.50
   2   1   8  872.61   31.70
   2   1   8  872.61   31.70
   2   1   8  881.41   36.30
   2   1   8  799.62   32.90
   2   1   8  827.92   41.20
   3  -1   8   43.50    8.60
   3  -1   8   43.50    8.60
   3  -1   8   62.89   10.30
   3  -1   8   41.70   12.30
   3  -1   8   64.49   14.00
   3  -1   8   54.49   12.40
   3  -1   8   62.89   10.30
   3  -1   8   73.49   11.70
   3   1   8   53.29   13.60
   3   1   8   74.59   13.10
   3   1   8   54.79   14.00
   3   1   8   61.09   12.50
   3   1   8   47.50    9.50
  -3   1  -8   54.29   10.70
   3   1   8   47.50    9.50
   4  -1   8  185.08   15.10
   4  -1   8  205.48   24.60
   4  -1   8  181.98   13.90
   4  -1   8  185.08   15.10
   4  -1   8  151.98   18.70
   4  -1   8  204.08   19.70
   4  -1   8  181.98   13.90
   4   1   8  199.98   22.20
   4   1   8  213.08   22.50
   4   1   8  190.08   14.30
   4   1   8  199.28   21.10
   4   1   8  190.08   14.30
   5  -1   8    7.90    5.50
   5  -1   8   15.10   10.90
   5  -1   8    6.60    8.80
   5  -1   8    6.60    8.80
   5  -1   8   17.50    9.90
   5  -1   8   13.70   10.20
   5  -1   8    7.90    5.50
   5   1   8   12.30    9.30
   5   1   8    0.80    7.10
   5   1   8    7.40   10.50
   5   1   8    0.80    7.10
   5   1   8    4.90    7.10
   6  -1   8  263.47   19.90
   6  -1   8  266.17   13.10
   6  -1   8  236.98   15.70
   6  -1   8  266.17   13.10
   6   1   8  285.97   18.00
   6  -2  -8    3.00    5.60
  -6  -2   8    2.50    6.50
   6  -2  -8    6.10    7.90
   6  -2  -8    3.00    5.60
   6   2  -8   -4.10    6.70
   6   2  -8    3.10    4.60
  -6   2   8    3.00    5.80
   6   2  -8    2.50    7.80
  -6   2   8    3.00    5.80
   6   2  -8    3.10    4.60
  -6   2   8   -9.60    7.80
  -5  -2   8  276.97   20.00
   5  -2  -8  269.57   16.90
   5  -2  -8  262.97   21.40
   5  -2  -8  300.07   27.10
   5  -2  -8  269.57   16.90
   5   2  -8  241.38   20.90
   5   2  -8  294.27   25.00
   5   2  -8  259.97   15.80
   5   2  -8  259.97   15.80
  -5   2   8  275.77   19.40
   4  -2  -8  547.45   28.50
   4  -2  -8  577.24   34.20
   4  -2  -8  577.44   31.30
   4  -2  -8  581.14   26.40
   4  -2  -8  581.14   26.40
   4   2  -8  610.74   27.10
   4   2  -8  549.85   36.20
   4   2  -8  610.74   27.10
  -4   2   8  515.55   28.70
   4   2  -8  558.14   32.90
   3  -2  -8    9.90    8.20
   3  -2  -8    1.50    7.20
   3  -2  -8   -6.60    5.10
   3   2  -8    3.00    7.10
   3   2  -8   -1.80    9.20
   3   2  -8    2.30   10.60
   3   2  -8    3.00    7.10
   3   2  -8   -2.80    8.60
   2  -2  -8  339.87   26.60
   2  -2  -8  340.37   22.50
   2   2  -8  322.27   17.80
   2   2  -8  322.27   17.80
   2   2  -8  310.27   25.00
   2   2  -8  321.67   25.20
  -2   2   8  328.87   19.80
   2   2  -8  317.87   20.70
   1  -2  -8    5.90    9.30
   1  -2  -8   15.50    8.10
  -1  -2   8   12.50    6.00
  -1   2   8   10.70    6.00
  -1   2   8    4.90    8.40
   1   2  -8   -5.20    7.80
   1   2  -8    9.80    5.70
  -1   2   8   10.70    6.00
   1   2  -8   12.10    9.90
   1   2  -8    9.80    5.70
  -1   2   8    5.30    6.70
   1   2  -8    7.60    6.50
   1   2  -8   -0.20    7.80
   0  -2   8  542.05   24.50
   0  -2  -8  543.95   28.10
   0  -2  -8  573.64   29.50
   0  -2  -8  547.65   26.90
   0  -2   8  597.44   27.20
   0  -2   8  542.05   24.50
   0   2  -8  595.54   32.90
   0   2  -8  584.14   32.80
   0   2   8  530.55   32.30
   0   2  -8  608.84   29.00
   0   2   8  574.84   24.60
   0   2   8  611.14   32.10
   0   2   8  574.84   24.60
   0   2   8  517.55   28.70
   0   2   8  544.55   26.50
   1  -2   8    3.30    4.40
   1  -2   8   -1.60    6.60
   1  -2   8    3.30    4.40
  -1   2  -8    6.50    7.70
   1   2   8   -4.10    3.80
   1   2   8   -7.90   12.50
   1   2   8    1.60    8.50
   1   2   8    8.80    6.80
   1   2   8   -4.10    3.80
  -1   2  -8    4.60    8.60
   1   2   8    6.00    7.10
   2  -2   8   50.39   10.80
   2  -2   8   59.59    9.80
   2  -2   8   49.40   12.30
   2  -2   8   59.59    9.80
   2   2   8   61.79   12.00
   2   2   8   58.29    9.30
   2   2   8   61.99   13.80
  -2   2  -8   57.89   11.80
   2   2   8   60.89   13.40
  -2   2  -8   53.39   12.50
   2   2   8   58.29    9.30
   2   2   8   63.89   13.30
   3  -2   8   45.20   10.10
   3  -2   8   47.50   13.40
   3  -2   8   49.30   12.00
   3  -2   8   45.20   10.10
   3  -2   8   47.40   13.20
   3   2   8   37.60   13.00
  -3   2  -8   37.30   10.70
   3   2   8   40.90    9.00
   3   2   8   40.90    9.00
   3   2   8   60.79   13.50
   3   2   8   52.59   13.40
   4  -2   8  180.68   22.40
   4  -2   8  148.29   15.40
   4  -2   8  159.88   20.50
   4  -2   8  175.88   14.00
   4  -2   8  148.29   15.40
   4  -2   8  175.88   14.00
  -4   2  -8  117.19   14.90
   4   2   8  133.89   17.20
   4   2   8  178.78   20.20
   4   2   8  153.38   13.60
  -4   2  -8  102.79   14.80
   4   2   8  179.48   22.40
   4   2   8  153.38   13.60
   5  -2   8  562.24   22.90
   5  -2   8  510.25   28.80
   5  -2   8  605.44   26.50
   5  -2   8  605.44   26.50
   5  -2   8  562.24   22.90
   5  -2   8  639.44   36.90
   5   2   8  625.74   32.00
   5   2   8  597.24   23.90
   5   2   8  626.64   33.60
   5   2   8  558.44   28.70
   5   2   8  597.24   23.90
   6  -3  -8   -0.80    5.10
  -6  -3   8   -2.60    5.40
   6   3  -8   -1.50    5.30
  -6   3   8    0.00    5.20
  -6   3   8    0.00    5.20
   5  -3  -8   50.29    9.20
   5  -3  -8   50.29    9.20
  -5  -3   8   29.40   10.40
   5  -3  -8   48.70   14.10
   5  -3  -8   15.40    7.90
   5  -3  -8   17.90    9.80
   5   3  -8   24.50    8.10
   5   3  -8   29.70   10.20
   5   3  -8   13.20   10.80
   5   3  -8   24.50    8.10
   4  -3  -8  238.58   19.30
   4  -3  -8  233.08   22.00
   4  -3  -8  256.17   19.20
   4   3  -8  242.08   22.20
   4   3  -8  267.77   16.50
   4   3  -8  250.77   25.40
   4   3  -8  267.77   16.50
   3  -3  -8    0.20    5.90
   3  -3  -8    0.90    9.90
   3  -3  -8   13.40    7.60
   3   3  -8    3.00    5.90
   3   3  -8   -8.00    8.60
   3   3  -8    3.00    5.90
   3   3  -8    7.10    9.00
   2  -3  -8    7.70    9.80
  -2  -3   8    6.60    7.50
   2  -3  -8    3.90    7.80
   2   3  -8   -1.10    9.30
   2   3  -8   -1.50    5.70
   2   3  -8    3.70    7.50
   2   3  -8    4.30    5.60
   2   3  -8    4.30    5.60
   1  -3  -8  245.78   23.10
   1  -3  -8  228.38   19.30
  -1  -3   8  264.37   18.40
  -1   3   8  249.38   22.20
   1   3  -8  254.67   16.20
   1   3  -8  279.17   23.00
   1   3  -8  254.67   16.20
   1   3  -8  265.37   21.20
   1   3  -8  250.17   22.30
  -1   3   8  244.68   15.60
  -1   3   8  244.68   15.60
   0  -3   8   63.29    9.60
   0  -3   8  114.39   14.30
   0  -3   8   63.29    9.60
   0   3   8   99.49   11.00
   0   3  -8   88.89   16.00
   0   3   8   99.49   11.00
   0   3  -8   74.49   11.10
   0   3   8   98.69   16.40
   0   3  -8  103.09   16.70
   0   3  -8   88.79   13.60
   0   3  -8   74.49   11.10
   0   3   8   56.19   14.20
   0   3   8   88.39   14.00
   1  -3   8  535.05   25.50
   1  -3   8  560.94   28.30
   1  -3   8  535.05   25.50
  -1   3  -8  555.54   30.30
   1   3   8  533.15   29.60
  -1   3  -8  497.65   27.00
  -1   3  -8  535.25   33.10
   1   3   8  527.65   35.00
   1   3   8  515.05   24.80
   1   3   8  505.95   35.30
   1   3   8  515.05   24.80
   2  -3   8 1014.60   38.70
   2  -3   8 1014.60   38.70
   2  -3   8 1055.69   47.00
   2  -3   8  946.61   39.80
   2   3   8 1058.69   44.70
  -2   3  -8  975.60   40.80
   2   3   8  948.41   36.20
  -2   3  -8 1007.10   42.90
  -2   3  -8  981.50   46.20
   2   3   8  948.41   36.20
   2   3   8 1028.80   45.00
   2   3   8 1033.60   49.10
   3  -3   8   58.89   13.90
   3  -3   8   35.20   10.00
   3  -3   8   35.20   10.00
   3   3   8   67.39   15.10
   3   3   8   94.99   10.50
  -3   3  -8   65.59   14.10
  -3   3  -8   74.59   12.60
   3   3   8   43.80   14.10
  -3   3  -8   30.60   10.50
   3   3   8   94.99   10.50
   3   3   8   55.29   12.30
   4  -3   8   23.30   11.70
   4  -3   8   35.80   14.30
   4  -3   8   33.00   10.30
   4  -3   8   33.00   10.30
   4   3   8   27.00   10.40
   4   3   8   23.60    6.20
  -4   3  -8   39.80    9.70
  -4   3  -8   22.30   12.00
   4   3   8   23.60    6.20
   4   3   8   27.00   12.20
   4   3   8   53.49   12.50
  -4   3  -8   41.50    9.90
   5  -3   8   77.49   13.90
   5  -3   8   74.49   11.40
   5  -3   8   65.49    8.40
   5  -3   8   65.49    8.40
   5   3   8   69.29   12.80
   5   3   8   74.89    8.30
  -5   3  -8   69.09    9.80
  -5   3  -8   56.29   13.20
   5   3   8   74.89    8.30
  -5   3  -8   60.59    9.80
   5   3   8   84.49   13.40
   5  -4  -8  182.88   13.70
  -5  -4   8  205.18   15.20
   5  -4  -8  186.18   16.20
   5  -4  -8  183.58   14.10
   5   4  -8  182.88   11.20
   5   4  -8  202.58   18.00
  -5   4   8  195.88   14.20
   5   4  -8  182.88   11.20
  -5   4   8  195.88   14.20
   4  -4  -8   -1.10    6.00
   4  -4  -8   -1.30    5.60
   4  -4  -8    6.10    7.10
   4   4  -8   -3.60    7.00
   4   4  -8  -12.00   10.20
   4   4  -8    3.70    7.50
   4   4  -8    3.70    7.50
  -4   4   8   -2.90    5.60
  -4   4   8   -2.90    5.60
   3  -4  -8   22.60    8.80
   3  -4  -8   23.70   11.60
   3  -4  -8   33.10    9.40
   3   4  -8   14.60    7.30
   3   4  -8   21.30   11.50
   3   4  -8   14.60    7.30
   3   4  -8   12.80    7.50
  -2  -4   8   69.59   11.10
   2  -4  -8   63.89   12.70
   2  -4  -8   50.99   12.30
   2  -4  -8   60.19   14.60
   2   4  -8   70.19   14.90
   2   4  -8   38.50   10.60
   2   4  -8   74.69   11.50
   2   4  -8   74.69   11.50
  -2   4   8   59.69   13.80
   1  -4  -8  152.68   19.40
  -1  -4   8  121.89   15.20
   1  -4  -8  152.38   17.40
   1   4  -8  132.49   19.40
   1   4  -8  148.19   14.50
   1   4  -8   85.39   13.50
   1   4  -8  148.19   14.50
  -1   4   8  130.79   18.70
   1   4  -8  150.88   17.10
  -1   4   8  168.58   14.20
  -1   4   8  168.58   14.20
   0  -4   8   17.20    8.20
   0  -4   8   16.00    9.70
   0  -4  -8   19.50    8.90
   0  -4   8   17.20    8.20
   0   4  -8   17.70    9.50
   0   4  -8   18.60    6.90
   0   4  -8   18.60    6.90
   0   4   8    6.10    9.50
   0   4  -8   26.00   10.70
   0   4   8   15.80    6.80
   0   4   8   15.80    6.80
   0   4  -8   18.00   10.40
   0   4   8    9.10   11.70
   1  -4   8  136.39   13.60
   1  -4   8  136.39   13.60
   1  -4   8  157.78   17.50
  -1   4  -8  137.89   15.70
  -1   4  -8  137.89   15.70
   1   4   8  127.19   12.80
   1   4   8  127.19   12.80
   1   4   8  115.29   19.60
  -1   4  -8  136.59   17.10
  -1   4  -8  148.39   19.90
   1   4   8  129.29   17.90
  -1   4  -8  112.79   14.80
   2  -4   8   63.79   12.70
   2  -4   8   46.60   10.20
   2  -4   8   46.60   10.20
   2   4   8   45.60    9.90
   2   4   8   43.80   12.60
   2   4   8   64.59   13.60
   2   4   8   45.60    9.90
  -2   4  -8   32.40    9.10
  -2   4  -8   48.90   11.90
  -2   4  -8   58.59   13.30
   3  -4   8  344.77   21.60
   3  -4   8  344.77   21.60
   3  -4   8  307.07   24.60
   3   4   8  343.97   20.10
  -3   4  -8  303.57   26.30
  -3   4  -8  313.67   22.00
   3   4   8  343.97   20.10
   3   4   8  295.07   23.20
  -3   4  -8  312.07   23.00
   3   4   8  323.67   28.80
   4  -4   8   -2.30    6.00
   4  -4   8   -2.30    6.00
   4  -4   8    3.60    7.60
   4  -4   8    8.30    8.40
  -4   4  -8    8.90    7.30
  -4   4  -8   -6.40    5.60
   4   4   8   -2.60    7.00
  -4   4  -8   -4.20    6.60
   4   4   8    6.00   10.00
   4   4   8    2.50    7.00
   4   4   8   -2.60    7.00
   4  -5  -8  521.95   26.00
   4  -5  -8  538.25   24.80
   4   5  -8  537.15   19.20
   4   5  -8  537.15   19.20
   4   5  -8  517.55   29.60
   3  -5  -8    1.00    6.30
   3  -5  -8    4.40    6.60
   3   5  -8   -2.00    5.30
  -3   5   8   -0.50    4.60
  -3   5   8   -0.50    4.60
   3   5  -8   -2.00    5.30
   3   5  -8    4.70    6.90
   3   5  -8  -16.10   10.30
  -2  -5   8    4.20    6.20
   2  -5  -8    8.10    7.10
   2  -5  -8    0.00    8.40
   2   5  -8    9.00    8.70
   2   5  -8    9.00    8.70
  -2   5   8   -8.00    5.50
   2   5  -8   -2.80    7.50
   2   5  -8   14.80    8.20
  -2   5   8   -8.00    5.50
  -1  -5   8   12.40   10.10
   1  -5  -8    8.70    7.10
   1  -5  -8   10.50    6.90
   1   5  -8   12.60    6.90
   1   5  -8   10.10    7.90
   1   5  -8   12.60    6.90
  -1   5   8   17.50   13.60
   1   5  -8    2.70   11.00
   0  -5   8    2.60    9.30
   0   5  -8    2.00    9.60
   0   5   8   -2.00    9.80
   0   5  -8    2.40    6.10
   0   5   8   -0.10    8.60
   0   5  -8    2.40    6.10
   0   5  -8    0.90    7.00
   0   5  -8    2.30    7.30
   1  -5   8  125.79   12.80
   1  -5   8  169.48   16.70
   1  -5   8  125.79   12.80
   1   5   8  143.69   20.00
   1   5   8   99.99   10.40
  -1   5  -8  153.68   17.90
  -1   5  -8   98.59   12.70
   1   5   8  152.98   19.70
   1   5   8   99.99   10.40
  -1   5  -8   98.59   12.70
  -1   5  -8  127.39   17.50
  -1   5  -8   89.59   12.10
   2  -5   8   27.30    7.70
   2  -5   8   26.20    9.70
   2  -5   8   27.30    7.70
   2   5   8   42.50   12.10
   2   5   8   36.40   11.70
   2   5   8   39.80    8.00
  -2   5  -8   10.90    9.70
  -2   5  -8   30.50   10.80
   2   5   8   39.80    8.00
  -2   5  -8   33.20   12.50
   3  -5   8   -6.30    5.70
   3  -5   8   -6.30    5.70
   3   5   8    9.50    9.40
  -3   5  -8    9.80    7.30
  -3   5  -8    0.60    6.40
   3   5   8    6.90   10.80
   3   5   8    3.00    7.30
  -3   5  -8    3.90    7.60
   3   5   8    9.50    9.40
   4  -5   8    6.30    4.60
   4  -5   8    6.30    4.60
   4  -5   8   16.60    6.40
  -4   5  -8    2.90    7.20
  -4   5  -8   20.10    6.50
   4   5   8   39.10   13.60
   3  -6  -8  311.57   17.40
   3  -6  -8  275.57   16.20
   3   6  -8  287.47   16.70
   3   6  -8  291.67   13.20
   3   6  -8  291.67   13.20
   3   6  -8  346.77   21.90
   2  -6  -8   -3.40    4.10
  -2  -6   8   -1.80    5.30
   2  -6  -8    3.50    5.60
   2   6  -8  -23.10    8.90
   2   6  -8   -3.10    4.80
   2   6  -8   -3.10    4.80
   2   6  -8   -3.70    6.00
   1  -6  -8   -0.70    8.50
   1  -6  -8   -1.70    4.60
  -1  -6   8    3.20    6.30
   1   6  -8   11.50    6.20
   1   6  -8    2.80    7.90
   1   6  -8   -4.20    6.40
   1   6  -8   11.50    6.20
   0  -6  -8   66.69   10.60
   0  -6   8   62.69   10.50
   0   6  -8   67.49   11.50
   0   6   8   51.29   10.20
   0   6  -8   78.99   10.00
   0   6  -8   78.99   10.00
   0   6   8   35.20   14.10
   0   6  -8   65.19   12.40
   1  -6   8    7.70    6.50
   1  -6   8    7.90    5.20
   1  -6   8    7.90    5.20
  -1   6  -8   13.60    7.30
  -1   6  -8   16.20    7.00
  -1   6  -8   17.70   11.10
  -1   6  -8   16.20    7.00
   1   6   8   12.10    8.40
   1   6   8   10.80   12.30
   2  -6   8   67.89    7.30
   2  -6   8   67.89    7.30
   2  -6   8   61.99    7.50
   2   6   8  101.69   13.90
  -2   6  -8   63.69    8.00
  -2   6  -8   72.09    9.90
  -2   6  -8  123.39   12.00
  -2   6  -8   63.69    8.00
   6   0  -9    5.00    4.90
   6   0  -9    5.00    4.90
   6   0  -9    7.30    8.00
  -6   0   9   -0.50    5.80
   5   0  -9   -0.50    7.60
   5   0  -9    1.70    8.00
   5   0  -9   -9.60    8.10
  -5   0   9    1.40    9.80
   5   0  -9   -9.60    8.10
   4   0  -9   -1.90    7.30
   4   0  -9    2.20    9.60
   4   0  -9   -3.90    7.80
   4   0  -9    0.80   10.10
   4   0  -9   -3.90    7.80
  -4   0   9  -12.50    8.80
   3   0  -9   -0.90    4.70
   3   0  -9   -0.90    4.70
   3   0  -9   -7.40    8.60
   3   0  -9   -7.10    8.80
   3   0  -9    1.00    6.90
  -3   0   9    0.30    9.40
   2   0  -9    0.60    7.70
  -2   0   9    2.30    6.90
   2   0  -9   12.10   10.60
   2   0  -9   10.90    9.30
  -1   0   9    9.60    6.80
   1   0  -9    5.80    9.10
   1   0  -9   -4.30    6.40
   0   0   9    0.20    6.10
   0   0  -9   -6.40    9.00
   0   0   9    4.90    7.90
   0   0   9    0.20    6.10
   0   0   9    8.70    7.10
   0   0  -9   -1.60    4.10
   0   0   9   -2.70    7.30
  -1   0  -9    0.60    6.80
   1   0   9    2.10    4.20
   1   0   9    2.10    4.20
   1   0   9    0.70    6.70
   1   0   9   -3.50    8.00
   1   0   9    4.20    5.40
   1   0   9    4.00    7.30
   1   0   9    0.70    6.70
   1   0   9   10.80    9.00
  -2   0  -9   -0.10    9.50
   2   0   9    2.60   11.30
   2   0   9   -0.50    4.00
   2   0   9    2.60    6.50
   2   0   9   -6.60    8.60
   2   0   9   -1.00    8.00
   2   0   9   -0.50    4.00
   2   0   9   -1.60    4.90
   2   0   9   -1.60    4.90
   3   0   9   -3.10    8.50
   3   0   9    2.90   11.80
   3   0   9    1.00    7.80
   3   0   9   -0.80    4.30
   3   0   9    8.70    6.10
   3   0   9   -6.50    5.40
   3   0   9   -0.80    4.30
   3   0   9    8.70    6.10
   4   0   9   -0.20    6.50
   4   0   9   -0.20    6.50
   4   0   9   -9.40    6.20
   4   0   9    1.30    8.40
   4   0   9   -7.00   10.90
   5   0   9   -5.10    9.00
   5   0   9   -1.10    5.90
   5   0   9    8.70    8.50
   5   0   9   -4.30   11.00
   5   0   9   -1.10    5.90
   6  -1  -9  130.19   10.80
   6  -1  -9  117.79   14.90
  -6  -1   9  107.69   11.50
   6  -1  -9  130.09   13.90
   6  -1  -9  130.19   10.80
   6   1  -9   72.09   10.70
  -6   1   9  103.69   12.10
   6   1  -9  127.39    9.40
   6   1  -9  127.39    9.40
   5  -1  -9   26.20    8.10
   5  -1  -9   26.20    8.10
  -5  -1   9   18.50   10.20
   5  -1  -9   24.30   10.30
  -5   1   9   21.00   10.80
   5   1  -9   11.30   12.50
   5   1  -9   25.80    7.60
   5   1  -9   25.80    7.60
   4  -1  -9   24.80   12.90
   4  -1  -9   25.00    9.90
   4  -1  -9   32.50   11.60
   4  -1  -9   47.60   11.00
   4  -1  -9   25.00    9.90
  -4  -1   9   35.50    9.70
   4   1  -9   39.50    9.00
   4   1  -9   39.50    9.00
   4   1  -9   48.00   13.90
  -4   1   9   15.70   10.20
  -3  -1   9   85.79   13.60
   3  -1  -9   67.59   13.10
   3  -1  -9   84.99   15.70
   3  -1  -9   48.90   13.50
   3   1  -9   90.29   11.80
   3   1  -9   90.29   11.80
   3   1  -9   92.39   18.50
   3   1  -9   38.30   12.30
   3   1  -9   88.99   15.10
   3   1  -9   71.09   13.70
   2  -1  -9   44.60   10.80
   2  -1  -9   35.00   10.50
  -2  -1   9   26.40    8.20
   2  -1  -9   35.60   12.40
   2   1  -9   27.00    8.70
   2   1  -9   27.00    8.70
   2   1  -9   33.00   11.30
  -2   1   9   19.60    8.20
   2   1  -9   38.20    9.90
   2   1  -9   33.80   13.50
   2   1  -9   37.30   10.50
   1  -1  -9   10.20    6.20
   1  -1  -9    1.70    6.10
  -1  -1   9    3.50    7.00
   1   1  -9   11.50    8.30
  -1   1   9    2.30    3.90
   1   1  -9   11.70    8.60
  -1   1   9    2.30    3.90
  -1   1   9   10.30    6.10
   1   1  -9    9.00    6.80
   0  -1   9  197.98   18.80
   0  -1   9  203.08   15.60
   0  -1  -9  181.58   20.30
   0  -1  -9  218.78   16.40
   0  -1   9  207.18   16.00
   0  -1   9  223.58   19.30
   0  -1   9  203.08   15.60
   0   1   9  227.58   20.90
   0   1  -9  226.58   18.80
   0   1   9  189.88   16.80
   0   1   9  217.68   16.50
   0   1   9  212.48   13.90
   0   1  -9  211.78   19.10
   0   1   9  212.48   13.90
   0   1  -9  199.38   21.90
   1  -1   9   31.40    7.50
   1  -1   9   32.10    9.70
   1  -1   9   19.00    9.40
   1  -1   9   31.40    7.50
   1  -1   9   29.40   10.90
   1   1   9   37.80   10.90
   1   1   9   34.40   11.10
   1   1   9   47.20    7.70
   1   1   9   30.50    8.20
  -1   1  -9   30.10   10.10
   1   1   9   33.40   11.60
  -1   1  -9   26.10    8.10
   1   1   9   47.20    7.70
   2  -1   9   20.60   11.50
   2  -1   9   14.30   10.90
   2  -1   9   20.10    8.70
   2  -1   9   18.60    9.30
   2  -1   9   32.10    8.60
   2  -1   9   20.10    8.70
   2   1   9   19.00    7.40
  -2   1  -9   22.10   11.90
  -2   1  -9   12.30    8.10
   2   1   9   18.20   11.60
   2   1   9   42.40   10.70
   2   1   9   19.00    7.40
   2   1   9   31.30   10.10
   2   1   9   26.20   15.20
   3  -1   9  319.77   19.40
   3  -1   9  319.77   19.40
   3  -1   9  301.07   17.00
   3  -1   9  341.97   27.30
   3  -1   9  313.27   24.00
   3  -1   9  298.27   25.20
   3  -1   9  324.77   22.70
   3  -1   9  301.07   17.00
  -3   1  -9  320.37   25.20
   3   1   9  330.97   18.10
  -3   1  -9  309.77   20.30
   3   1   9  330.97   18.10
   3   1   9  301.47   25.60
   3   1   9  318.97   26.50
   3   1   9  343.57   23.00
   3   1   9  365.96   29.20
   4  -1   9   38.30   11.50
   4  -1   9   53.09    9.80
   4  -1   9   48.20   13.90
   4  -1   9   34.10    8.60
   4  -1   9   44.80   13.30
   4  -1   9   53.09    9.80
   4  -1   9   34.10    8.60
   4   1   9   32.50   12.80
   4   1   9   49.90   14.90
   4   1   9   45.30    9.10
   4   1   9   62.89   13.60
   4   1   9   45.30    9.10
   5  -1   9    5.30    4.30
   5  -1   9    4.90    7.60
   5  -1   9    5.30    4.30
   5  -1   9    3.10    7.90
   5  -1   9    6.40    6.80
   5   1   9    2.90    6.70
   5   1   9    7.80    8.00
   5   1   9    2.90    6.70
   5   1   9    4.20    6.60
  -5   1  -9    5.10    6.60
   5   1   9    1.90    8.70
  -6  -2   9    2.50    5.40
   6  -2  -9    0.40    5.70
   6   2  -9   -4.60    6.10
   6   2  -9   -0.50    3.20
   6   2  -9   -0.50    3.20
   5  -2  -9   -1.40    6.10
   5  -2  -9    2.90    7.70
  -5  -2   9    2.30    6.80
   5  -2  -9   -1.40    6.10
   5  -2  -9    5.60    9.30
   5   2  -9    3.10    5.50
   5   2  -9   -2.90    5.60
   5   2  -9    3.70   10.80
   5   2  -9    3.10    5.50
   4  -2  -9   75.09   12.60
   4  -2  -9   83.09   13.30
   4  -2  -9   86.69   16.90
   4  -2  -9   83.09   13.30
  -4  -2   9   99.69   13.70
   4   2  -9  113.09   18.90
   4   2  -9  113.19   12.90
   4   2  -9   85.49   15.10
   4   2  -9  113.19   12.90
   3  -2  -9  643.94   37.60
   3  -2  -9  623.74   32.00
   3  -2  -9  615.94   31.40
   3   2  -9  598.84   30.20
   3   2  -9  628.74   27.20
   3   2  -9  628.74   27.20
   3   2  -9  643.04   36.30
   3   2  -9  629.94   36.80
   2  -2  -9   23.30   10.00
  -2  -2   9   14.60    7.90
   2  -2  -9   25.00   12.40
   2   2  -9   21.00   10.40
   2   2  -9   24.60    8.90
   2   2  -9   32.20   10.40
   2   2  -9    9.50    8.30
   2   2  -9    9.50    8.30
   1  -2  -9   -2.40    7.00
  -1  -2   9   -2.30    7.10
  -1   2   9   -0.70    3.90
   1   2  -9   -2.10    5.90
   1   2  -9    2.20    5.20
  -1   2   9   -0.70    3.90
   1   2  -9    2.20    5.20
   1   2  -9   -2.30    5.40
  -1   2   9    1.10    5.00
   1   2  -9   -1.70    9.20
   0  -2   9   31.90    9.20
   0  -2   9   35.10    8.40
   0  -2   9   32.00    9.80
   0  -2  -9   25.50    9.60
   0  -2   9   35.10    8.40
   0   2  -9   33.80   13.10
   0   2   9   29.60    7.00
   0   2   9   31.20    9.90
   0   2   9   29.60    7.00
   0   2   9   35.40   10.70
   0   2  -9   25.80   11.60
   0   2   9   21.00   11.10
   0   2   9   46.90   10.10
   0   2  -9   46.20   10.50
   1  -2   9  113.39   14.80
   1  -2   9   99.29   12.20
   1  -2   9   99.29   12.20
   1  -2   9  146.49   18.10
  -1   2  -9  121.59   18.20
   1   2   9  126.19   15.70
   1   2   9  143.39   13.30
   1   2   9  143.39   13.30
   1   2   9  123.99   20.50
   1   2   9   90.79   16.60
  -1   2  -9  144.69   17.50
   1   2   9  122.59   16.90
   2  -2   9  111.89   17.50
   2  -2   9  108.59   13.50
   2  -2   9  108.59   13.50
   2  -2   9  113.59   16.80
   2  -2   9   88.59   13.90
  -2   2  -9  139.69   19.40
   2   2   9  113.19   12.30
   2   2   9  113.19   12.30
  -2   2  -9   84.59   13.50
   2   2   9  137.29   19.90
   2   2   9  121.19   18.20
   2   2   9  140.89   19.50
   2   2   9  118.89   14.60
   3  -2   9  178.88   18.10
   3  -2   9  124.19   18.90
   3  -2   9  128.19   18.70
   3  -2   9  186.68   16.70
   3  -2   9  186.68   16.70
  -3   2  -9  102.49   14.60
   3   2   9  107.49   17.60
   3   2   9  168.98   13.20
   3   2   9  162.58   21.10
   3   2   9  168.98   13.20
  -3   2  -9  148.09   20.60
   3   2   9  116.99   18.60
   4  -2   9   31.30   11.80
   4  -2   9   37.20    8.50
   4  -2   9   14.30   10.80
   4  -2   9   37.20    8.50
   4   2   9   32.50    8.70
  -4   2  -9   22.10   12.10
  -4   2  -9   14.00    6.80
   4   2   9   32.50    8.70
   4   2   9   16.40    9.50
   4   2   9   36.40   16.50
   4   2   9   15.10   11.50
   5  -2   9   13.80    6.10
   5  -2   9   11.10    6.50
   5  -2   9   13.80    6.10
   5  -2   9    8.10    8.10
   5   2   9   11.00    9.70
   5   2   9    7.50    7.70
  -5   2  -9   10.40   10.00
   5   2   9   11.20    4.90
   5   2   9   11.20    4.90
   5   2   9    6.70    7.00
   5  -3  -9   15.60    7.70
  -5  -3   9   12.60    7.00
   5  -3  -9   13.20    6.70
  -5   3   9   23.60    7.00
   5   3  -9    2.10    6.20
   5   3  -9   21.80    8.10
   5   3  -9   20.20    5.40
  -5   3   9   23.60    7.00
   5   3  -9   20.20    5.40
   4  -3  -9   79.59   13.80
   4  -3  -9  105.49   14.30
   4  -3  -9   95.39   11.30
   4   3  -9  159.88   13.80
   4   3  -9  159.88   13.80
   4   3  -9  103.69   16.00
   4   3  -9  115.49   16.30
   3  -3  -9  241.38   22.10
   3  -3  -9  248.08   19.40
   3  -3  -9  226.08   21.10
   3   3  -9  243.88   18.40
   3   3  -9  251.67   22.30
   3   3  -9  243.88   18.40
   2  -3  -9  196.78   17.30
   2  -3  -9  159.98   20.70
   2   3  -9  189.38   20.30
   2   3  -9  151.58   14.80
   2   3  -9  167.78   19.10
   2   3  -9  151.58   14.80
   2   3  -9  178.08   16.60
   1  -3  -9  508.15   32.80
   1  -3  -9  551.64   28.10
  -1  -3   9  522.45   26.70
   1   3  -9  539.95   24.90
   1   3  -9  505.35   27.70
  -1   3   9  521.15   25.00
  -1   3   9  532.35   34.00
   1   3  -9  523.85   34.50
  -1   3   9  521.15   25.00
   1   3  -9  536.25   33.60
   1   3  -9  539.95   24.90
   0  -3   9  197.48   16.30
   0  -3   9  157.98   14.10
   0  -3   9  157.98   14.10
   0   3   9  146.09   20.10
   0   3   9  147.19   14.20
   0   3   9  147.19   14.20
   0   3  -9  188.28   16.90
   0   3   9  141.09   17.40
   0   3  -9  187.18   23.10
   0   3  -9  167.48   22.00
   1  -3   9  168.88   15.40
   1  -3   9  197.38   19.60
   1  -3   9  168.88   15.40
   1   3   9  151.38   18.80
  -1   3  -9  192.58   17.70
   1   3   9  209.18   16.10
   1   3   9  209.18   16.10
  -1   3  -9  210.38   22.80
  -1   3  -9  183.78   22.70
   1   3   9  181.08   23.20
   1   3   9  215.48   21.80
   2  -3   9  180.98   16.40
   2  -3   9  197.88   16.70
   2  -3   9  196.18   19.00
   2  -3   9  180.98   16.40
   2   3   9  211.28   23.30
   2   3   9  183.88   14.60
   2   3   9  208.68   19.60
  -2   3  -9  199.38   19.60
   2   3   9  183.88   14.60
  -2   3  -9  203.08   20.20
   2   3   9  208.98   22.60
   3  -3   9  227.48   25.10
   3  -3   9  262.37   23.60
   3  -3   9  261.67   17.40
   3  -3   9  261.67   17.40
   3   3   9  224.28   15.30
  -3   3  -9  233.88   21.70
   3   3   9  244.18   20.80
   3   3   9  224.28   15.30
   3   3   9  235.28   26.40
  -3   3  -9  244.08   21.50
   3   3   9  207.38   26.20
   4  -3   9   57.59   11.60
   4  -3   9   55.59    8.90
   4  -3   9   55.59    8.90
   4  -3   9   43.50   11.50
   4   3   9   54.59   14.80
  -4   3  -9   33.00    8.30
   4   3   9   27.30    6.50
   4   3   9   17.40   11.10
   4   3   9   46.00   10.50
   4   3   9   27.30    6.50
  -4   3  -9   38.50   11.10
   4  -4  -9    3.80    5.20
   4  -4  -9    4.30    6.60
   4  -4  -9   -1.20    5.60
   4   4  -9   -4.50    5.70
  -4   4   9    3.30    7.70
   4   4  -9   -8.60    6.70
   4   4  -9   -8.60    6.70
  -4   4   9    3.30    7.70
   3  -4  -9   69.89   11.00
   3  -4  -9  112.49   15.40
   3  -4  -9  121.79   15.40
  -3   4   9   89.29    9.80
   3   4  -9  117.99   11.80
   3   4  -9   68.79   15.20
   3   4  -9  117.99   11.80
  -3   4   9   89.29    9.80
   2  -4  -9   32.70   10.70
   2  -4  -9   44.70   11.10
  -2  -4   9   40.40    8.50
   2  -4  -9   54.99   11.90
   2   4  -9   59.89    9.80
  -2   4   9   27.80    7.00
   2   4  -9   43.30   12.40
   2   4  -9   59.89    9.80
  -2   4   9   27.80    7.00
   1  -4  -9    4.90    9.90
   1  -4  -9   12.20    9.20
  -1  -4   9    9.00    9.20
  -1   4   9    3.40   11.50
   1   4  -9    8.00    8.50
   1   4  -9   19.20    9.80
   1   4  -9    7.10    9.80
   1   4  -9    8.00    8.50
   0  -4  -9   39.70   12.70
   0  -4   9   55.49   12.10
   0   4  -9   42.10   11.70
   0   4   9   48.20   10.30
   0   4   9   49.90   12.70
   0   4  -9   32.60    9.80
   0   4   9   48.20   10.30
   0   4  -9   33.70   10.50
   0   4   9   47.10   12.90
   0   4  -9   32.60    9.80
   0   4  -9   46.90   11.70
   1  -4   9   98.99   13.80
   1  -4   9   62.69   10.90
   1  -4   9   62.69   10.90
  -1   4  -9   82.39   15.70
   1   4   9   81.09   15.10
   1   4   9  101.79   17.60
  -1   4  -9   50.79   12.10
   1   4   9   83.19   11.00
   1   4   9   83.19   11.00
  -1   4  -9   73.49   13.20
   2  -4   9  128.69   14.40
   2  -4   9   82.39   11.50
   2  -4   9   82.39   11.50
   2   4   9   74.39   16.50
   2   4   9   98.59   18.40
   2   4   9   97.39   11.20
   2   4   9  101.89   15.90
   2   4   9   97.39   11.20
  -2   4  -9  116.89   15.50
  -2   4  -9  104.79   15.30
  -2   4  -9   82.89   15.60
   3  -4   9    6.30    9.30
   3  -4   9   -1.90    6.30
   3  -4   9    6.30    9.30
   3   4   9   13.50    8.90
  -3   4  -9    6.20   10.30
   3   4   9    8.50    6.10
  -3   4  -9  -11.00    8.60
   3   4   9    0.50    7.50
   3   4   9    8.50    6.10
  -3   4  -9    3.30    6.80
   4  -4   9   77.69   13.40
   4  -4   9   29.60    7.10
   4  -4   9   78.39    8.40
   4  -4   9   78.39    8.40
  -4   4  -9   35.60    8.30
   4   4   9   39.10    9.00
  -4   4  -9   66.19    8.90
   4   4   9   39.80    6.30
   4   4   9   73.49   11.20
   4   4   9   39.80    6.30
   3  -5  -9   78.49   11.50
   3  -5  -9   48.30    8.50
   3   5  -9   56.89    8.00
  -3   5   9   48.20    6.60
   3   5  -9   51.39   11.00
  -3   5   9   48.20    6.60
   3   5  -9   56.89    8.00
  -2  -5   9  188.38   17.00
   2  -5  -9  205.18   17.60
   2  -5  -9  236.28   17.70
   2   5  -9  204.58   16.40
   2   5  -9  241.48   22.80
   2   5  -9  213.48   14.30
   2   5  -9  213.48   14.30
   1  -5  -9  128.99   12.80
  -1  -5   9  114.39   14.50
   1  -5  -9  182.18   18.10
   1   5  -9  125.79   12.80
   1   5  -9  125.79   12.80
  -1   5   9  163.98   19.90
   1   5  -9  156.98   19.40
   1   5  -9  140.19   14.30
   0  -5   9    8.10    9.60
   0   5  -9   -5.80    5.00
   0   5  -9    8.70    8.30
   0   5   9   -4.20    9.20
   0   5   9    6.40    7.30
   0   5  -9    9.70    7.50
   1  -5   9   54.49    7.80
   1  -5   9   96.39   12.50
   1  -5   9   54.49    7.80
   1   5   9  113.29   16.70
  -1   5  -9   96.39   12.60
  -1   5  -9   87.29   10.40
   1   5   9   90.59   11.20
  -1   5  -9   87.29   10.40
   1   5   9   73.59   11.80
  -1   5  -9   64.69   12.00
   1   5   9   90.59   11.20
  -1   5  -9  104.09   15.20
   2  -5   9    1.10    5.50
   2  -5   9    7.60    7.80
   2  -5   9    7.60    7.80
   2   5   9    4.50   11.40
  -2   5  -9   -3.90    6.30
   2   5   9   -0.90    9.60
  -2   5  -9    8.80    7.50
  -2   5  -9    4.50    6.70
   2   5   9    3.10    5.40
   2   5   9    3.10    5.40
   3  -5   9   44.50    7.80
   3  -5   9   32.80    9.20
   3  -5   9   44.50    7.80
   3   5   9   51.59   10.60
  -3   5  -9   46.90    8.30
   3   5   9   32.70    8.00
  -3   5  -9   54.19   10.00
  -1  -6   9   42.40    8.90
   1  -6  -9   48.30    7.20
   1   6  -9   50.79    9.50
   1   6  -9   91.89    8.30
   1   6  -9   91.89    8.30
   1   6  -9   32.20   12.80
   0  -6  -9    8.30    8.90
   0  -6   9    4.30    5.90
   0   6  -9   14.60    8.00
   0   6  -9    9.20    6.30
   0   6  -9    9.90    5.70
   0   6   9    0.40    6.20
   0   6  -9    9.90    5.70
   1  -6   9   28.40    6.40
  -1   6  -9   20.30    6.80
   1   6   9   30.60    8.80
   1   6   9   44.50    8.80
  -1   6  -9   36.40    9.10
  -1   6  -9   20.30    6.80
  -5   0  10  215.78   15.50
   5   0 -10  243.78   20.30
   5   0 -10  248.28   15.00
   5   0 -10  248.28   15.00
   5   0 -10  227.28   18.20
  -4   0  10   90.19   12.30
   4   0 -10   83.19   12.50
   4   0 -10   72.89   14.10
   4   0 -10   47.80   14.60
   4   0 -10   72.99   11.00
   4   0 -10   72.99   11.00
   3   0 -10 1322.67   55.99
   3   0 -10 1374.56   56.59
   3   0 -10 1290.57   44.70
   3   0 -10 1290.57   44.70
   3   0 -10 1395.46   50.79
   2   0 -10   27.70   10.40
  -2   0  10   31.90    7.50
   2   0 -10   46.10   14.60
   2   0 -10   53.89   14.10
   1   0 -10   28.00   10.60
  -1   0  10   11.60    6.60
   1   0 -10   11.70    7.40
   0   0  10   12.70    9.60
   0   0  10   12.30    8.70
   0   0 -10   19.40    9.50
   0   0  10   11.70    9.30
   0   0 -10   24.30    7.80
   1   0  10 1213.18   47.30
   1   0  10 1359.76   44.90
   1   0  10 1279.77   42.00
   1   0  10 1359.76   44.90
   1   0  10 1246.68   50.09
  -1   0 -10 1185.68   45.90
   1   0  10 1203.58   49.10
   1   0  10 1279.77   42.00
   2   0  10  990.10   40.10
   2   0  10 1000.40   38.90
   2   0  10 1000.40   38.90
   2   0  10  984.50   35.10
   2   0  10 1035.60   44.80
   2   0  10  984.50   35.10
   2   0  10 1038.30   45.20
   2   0  10 1040.20   48.70
   3   0  10  177.28   13.90
   3   0  10  128.79   20.30
   3   0  10  177.28   13.90
   3   0  10  123.89   20.30
   3   0  10  178.78   16.90
   3   0  10  140.09   19.00
   4   0  10   45.10    6.70
   4   0  10   97.39   15.60
   4   0  10   62.49   15.00
   4   0  10   93.59   13.80
   4   0  10   45.10    6.70
   5   0  10   -0.70    3.70
   5   0  10   -0.70    3.70
   5   0  10    1.50   11.00
   5   0  10   -0.10    7.00
  -5  -1  10  528.65   24.40
   5  -1 -10  539.95   28.60
   5  -1 -10  520.95   23.30
   5  -1 -10  520.95   23.30
   5  -1 -10  538.45   30.40
   5   1 -10  549.25   23.30
   5   1 -10  527.85   31.40
   5   1 -10  549.25   23.30
   4  -1 -10  649.93   36.60
   4  -1 -10  613.34   26.30
   4  -1 -10  615.24   29.40
   4  -1 -10  613.34   26.30
  -4  -1  10  573.64   29.40
   4  -1 -10  546.05   32.40
   4   1 -10  654.03   36.10
   4   1 -10  640.04   26.60
   4   1 -10  640.04   26.60
   3  -1 -10  169.78   18.50
  -3  -1  10  132.69   16.30
   3  -1 -10  126.79   18.00
   3  -1 -10  149.29   20.30
   3   1 -10   92.49   12.60
   3   1 -10   92.49   12.60
   3   1 -10  123.19   14.80
   3   1 -10  179.88   23.50
   2  -1 -10  250.87   19.60
  -2  -1  10  231.38   18.30
   2  -1 -10  226.08   23.50
   2  -1 -10  250.37   21.90
   2   1 -10  211.08   22.00
   2   1 -10  228.18   18.50
   2   1 -10  256.97   23.30
  -2   1  10  215.98   17.70
  -1  -1  10  197.68   17.80
   1  -1 -10  211.38   17.40
   1  -1 -10  187.88   19.60
  -1   1  10  185.88   15.80
  -1   1  10  212.28   15.20
   1   1 -10  205.88   21.10
  -1   1  10  212.28   15.20
   1   1 -10  191.58   17.00
   1   1 -10  199.48   21.10
   0  -1  10 1533.25   50.39
   0  -1  10 1498.45   55.49
   0  -1  10 1533.25   50.39
   0  -1 -10 1513.15   53.79
   0  -1 -10 1578.64   60.39
   0  -1  10 1505.85   53.09
   0   1 -10 1618.84   55.49
   0   1  10 1380.46   54.69
   0   1 -10 1609.54   62.59
   0   1  10 1516.05   48.20
   0   1  10 1576.44   57.29
   0   1 -10 1535.65   58.59
   0   1  10 1516.05   48.20
   0   1  10 1566.34   54.39
   1  -1  10  152.88   15.00
   1  -1  10  116.99   15.40
  -1  -1 -10  128.29   18.50
   1  -1  10  167.48   19.60
  -1  -1 -10   93.19   13.00
   1  -1  10  130.99   15.90
   1  -1  10  152.88   15.00
   1   1  10  103.09   11.60
   1   1  10  103.09   11.60
   1   1  10  135.09   17.90
  -1   1 -10  127.69   15.60
   1   1  10  137.69   17.80
  -1   1 -10  136.59   18.00
   1   1  10  142.19   15.70
   1   1  10  133.69   19.10
   2  -1  10  126.19   15.20
   2  -1  10  106.59   17.40
   2  -1  10   74.49   15.10
   2  -1  10   83.69   15.10
   2  -1  10  123.59   13.90
   2  -1  10  123.59   13.90
   2   1  10  120.79   12.50
   2   1  10  127.19   16.20
  -2   1 -10   92.89   13.60
   2   1  10  114.99   17.40
   2   1  10  120.79   12.50
   2   1  10  120.69   18.90
  -2   1 -10  137.39   18.40
   2   1  10  116.19   16.20
   3  -1  10  303.67   19.00
   3  -1  10  320.37   23.30
   3  -1  10  279.57   21.10
   3  -1  10  324.07   25.80
   3  -1  10  303.67   19.00
   3  -1  10  287.57   22.30
   3   1  10  285.57   18.20
  -3   1 -10  300.27   19.50
   3   1  10  340.77   32.70
   3   1  10  285.57   18.20
   3   1  10  284.57   22.40
   3   1  10  332.77   26.50
  -3   1 -10  305.57   23.40
   4  -1  10  140.39   13.00
   4  -1  10   79.89    9.30
   4  -1  10   80.39   14.60
   4  -1  10   49.70   13.20
   4  -1  10  140.39   13.00
   4  -1  10   79.89    9.30
   4  -1  10  120.19   17.10
   4   1  10   91.99   10.90
   4   1  10  107.09   14.90
   4   1  10  114.89   17.30
   4   1  10   91.99   10.90
   4   1  10   94.09   16.70
  -4   1 -10   58.29   11.20
   5  -2 -10   -1.30    5.50
   5  -2 -10   -1.30    5.50
  -5  -2  10   10.80    6.20
   5  -2 -10    5.10    7.40
   5   2 -10   16.60    8.10
   5   2 -10   -4.00    4.70
   5   2 -10   -4.00    4.70
   4  -2 -10    5.60   10.00
  -4  -2  10   11.90    9.80
   4  -2 -10   -0.40   10.50
   4   2 -10    0.90    7.40
   4   2 -10    3.70    6.40
   4   2 -10    1.80    6.20
   4   2 -10    1.80    6.20
   3  -2 -10 1072.19   48.10
   3  -2 -10 1018.60   40.80
  -3  -2  10  967.20   39.20
   3  -2 -10  974.00   39.20
   3   2 -10  932.61   39.90
   3   2 -10  982.00   35.80
   3   2 -10  982.00   35.80
   3   2 -10  955.90   44.60
   3   2 -10  985.60   46.80
  -2  -2  10  189.28   15.30
   2  -2 -10  175.88   19.40
   2  -2 -10  193.78   19.30
   2   2 -10  180.88   14.50
   2   2 -10  180.88   14.50
   2   2 -10  181.28   18.70
   2   2 -10  165.28   21.80
   2   2 -10  213.48   17.90
   1  -2 -10    8.20    8.50
  -1  -2  10    8.80    6.40
   1  -2 -10   15.30    9.30
  -1   2  10   13.90    8.60
   1   2 -10    6.10    9.10
  -1   2  10   13.00    7.20
   1   2 -10    5.00   10.70
   1   2 -10   12.50   10.20
  -1   2  10   13.00    7.20
   0  -2  10  579.24   26.20
   0  -2  10  577.24   30.30
   0  -2  10  579.24   26.20
   0  -2  10  555.64   27.90
   0  -2 -10  565.84   28.20
   0   2  10  534.45   30.40
   0   2 -10  556.14   30.50
   0   2 -10  550.84   33.80
   0   2 -10  581.34   35.10
   0   2  10  555.24   32.00
   0   2  10  557.74   25.70
   0   2  10  571.84   33.60
   0   2  10  554.64   29.10
   0   2  10  557.74   25.70
   1  -2  10   33.50   11.70
   1  -2  10   14.10    7.80
   1  -2  10   14.10    7.80
   1  -2  10   26.50    8.50
   1   2  10   15.30    8.30
  -1   2 -10   29.50   12.30
  -1   2 -10   34.80   11.50
   1   2  10   15.50   15.80
   1   2  10   37.80   11.60
  -1   2 -10   22.70    8.80
   1   2  10   15.30    8.30
   1   2  10   12.50   10.30
   1   2  10   38.50   10.50
   2  -2  10  531.85   26.40
   2  -2  10  531.85   26.40
   2  -2  10  492.75   30.90
   2  -2  10  463.05   25.30
  -2   2 -10  482.65   31.80
   2   2  10  488.35   24.10
   2   2  10  535.95   32.10
   2   2  10  483.65   36.70
  -2   2 -10  478.15   27.00
   2   2  10  488.35   24.10
   2   2  10  482.45   32.40
   3  -2  10  205.38   20.70
   3  -2  10  212.68   18.00
   3  -2  10  261.27   18.90
   3  -2  10  217.78   19.80
   3  -2  10  261.27   18.90
  -3   2 -10  213.98   17.40
   3   2  10  211.28   18.90
   3   2  10  242.98   24.20
   3   2  10  205.88   22.00
  -3   2 -10  213.28   20.00
   3   2  10  201.38   14.30
   3   2  10  201.38   14.30
   4  -2  10   22.10    6.60
   4  -2  10   25.60    9.10
   4  -2  10   22.10    6.60
   4  -2  10   33.30    8.90
   4   2  10   25.40    6.40
   4   2  10   31.40   10.00
   4   2  10   25.40    6.40
  -4   2 -10    5.80    6.90
   4   2  10   17.00    8.10
   4   2  10   23.10   12.60
  -4   2 -10   11.50    9.30
  -4  -3  10  175.78   16.90
   4  -3 -10  175.98   17.50
   4  -3 -10  195.08   15.70
   4   3 -10  187.38   12.90
   4   3 -10  179.78   16.40
   4   3 -10  187.38   12.90
   4   3 -10  191.38   17.90
   3  -3 -10  108.09   13.90
   3  -3 -10  106.39   16.70
   3  -3 -10   52.79   10.70
   3   3 -10   54.29   13.00
   3   3 -10  110.69   11.90
   3   3 -10  110.69   11.90
   3   3 -10   85.69   15.40
   2  -3 -10   -3.00    7.30
   2  -3 -10   -4.20    7.70
  -2  -3  10    4.60    7.30
   2  -3 -10    0.20    6.00
   2   3 -10   -2.50    7.80
   2   3 -10    5.20    9.60
   2   3 -10   -2.50    7.80
   2   3 -10   -0.70    6.60
   2   3 -10   -3.40    9.50
   1  -3 -10  322.77   21.60
  -1  -3  10  290.07   21.80
   1  -3 -10  305.07   26.10
   1   3 -10  281.87   19.70
   1   3 -10  280.97   25.70
   1   3 -10  281.87   19.70
  -1   3  10  288.67   17.30
   1   3 -10  315.37   21.10
   1   3 -10  295.37   26.10
  -1   3  10  288.67   17.30
   0  -3  10   47.50   12.20
   0  -3 -10   42.90   12.20
   0  -3  10   36.90   11.00
   0   3 -10   29.50    8.90
   0   3  10   33.80    8.00
   0   3 -10   21.40   11.90
   0   3 -10   27.90   10.30
   0   3  10   33.80    8.00
   0   3  10   42.80   12.60
   0   3  10   29.30    9.40
   1  -3  10   72.89   14.20
   1  -3  10   62.69   10.60
   1  -3  10   62.69   10.60
   1  -3  10  101.29   14.00
   1   3  10   83.39   11.80
   1   3  10   79.29   15.00
  -1   3 -10   98.99   16.30
  -1   3 -10  101.49   14.20
  -1   3 -10   63.49   15.20
   1   3  10   83.39   11.80
   1   3  10   94.09   14.80
   1   3  10   67.49   16.50
   2  -3  10   29.80    9.60
   2  -3  10   33.30   12.40
   2  -3  10   29.80    9.60
   2  -3  10   24.70    8.50
  -2   3 -10   32.70   11.80
   2   3  10   31.70    7.60
   2   3  10   31.70    7.60
   2   3  10   36.20   10.90
   2   3  10   29.00   18.50
  -2   3 -10   26.10    8.50
  -2   3 -10   43.90   11.80
   2   3  10   19.50   14.10
   3  -3  10  185.98   14.80
   3  -3  10  185.98   14.80
   3  -3  10  212.58   19.00
   3   3  10  208.08   13.90
  -3   3 -10  205.38   16.90
   3   3  10  208.08   13.90
   3   3  10  243.48   22.10
   3   3  10  253.87   19.50
  -3   3 -10  186.38   17.40
  -3   3 -10  199.08   20.30
   3   3  10  239.38   21.60
   4  -3  10    1.60    5.00
   4  -3  10    6.50    5.30
   4  -3  10    1.60    5.00
   4   3  10    0.50    9.80
   4   3  10    1.90    7.10
   4   3  10    0.90    4.70
  -4   3 -10    0.30    5.90
  -4   3 -10   -1.60    5.20
   4   3  10    0.90    4.70
   4   3  10   -2.10    6.00
   4  -4 -10    9.40    5.80
  -4  -4  10   26.70    6.80
   4  -4 -10   11.50    5.70
   4   4 -10   12.40    6.10
   4   4 -10   23.30    4.80
  -4   4  10   31.90    5.30
   4   4 -10   23.30    4.80
  -4   4  10   31.90    5.30
   3  -4 -10   28.80    8.00
   3  -4 -10   23.20    9.00
   3  -4 -10   14.70    9.20
   3   4 -10   39.60    7.50
  -3   4  10   39.80    6.20
   3   4 -10   12.70   10.00
  -3   4  10   39.80    6.20
   3   4 -10   39.60    7.50
  -2  -4  10   12.60    8.50
   2  -4 -10    4.10    7.50
   2  -4 -10    6.50    9.20
   2  -4 -10    5.50    6.50
   2   4 -10    2.80    6.20
   2   4 -10   -4.00    6.40
  -2   4  10    9.10    5.20
   2   4 -10    2.80    6.20
  -2   4  10    9.10    5.20
   1  -4 -10   -0.50    6.30
   1  -4 -10   -0.10    5.30
  -1  -4  10    9.40    9.40
   1   4 -10   -1.70    8.50
   1   4 -10    2.20    5.80
  -1   4  10   10.70    9.20
   1   4 -10    2.20    5.80
   1   4 -10    1.10    7.80
   0  -4  10  102.59   14.40
   0  -4 -10   97.59   15.40
   0  -4  10   93.19   14.20
   0   4 -10  141.89   15.30
   0   4  10  122.19   12.50
   0   4 -10  151.68   19.00
   0   4  10  122.19   12.50
   0   4  10  140.39   19.50
   0   4 -10  113.79   13.70
   0   4 -10  113.79   13.70
   0   4  10  140.19   17.10
   1  -4  10    9.00    7.10
   1  -4  10   10.20    6.10
   1  -4  10   10.20    6.10
   1  -4  10   14.50   10.50
   1   4  10   18.60    9.70
  -1   4 -10   14.20    8.80
   1   4  10   13.10    8.40
   1   4  10    2.90    9.50
  -1   4 -10    5.70    7.20
   1   4  10   18.60    9.70
   2  -4  10  111.99   10.60
   2  -4  10  159.98   16.00
   2  -4  10  111.99   10.60
   2  -4  10  145.29   13.70
   2   4  10  118.69   12.80
  -2   4 -10   97.19   13.80
   2   4  10  153.38   15.60
   2   4  10  118.69   12.80
   2   4  10  156.18   18.50
  -2   4 -10  101.39   12.60
   3  -4  10   91.39   11.40
   3  -4  10  143.49   11.30
   3  -4  10  143.49   11.30
  -3   4 -10  128.69   12.70
   3   4  10  146.49   10.70
   3   4  10  144.19   15.90
   3   4  10  146.49   10.70
   3   4  10  134.09   14.00
  -3   4 -10   96.99   12.70
   2  -5 -10   33.10    7.20
  -2  -5  10   34.60    6.70
   2  -5 -10   39.30    7.40
   2   5 -10   67.79    8.40
   2   5 -10   29.50   10.70
   2   5 -10   67.79    8.40
   1  -5 -10    5.50    4.90
  -1  -5  10    7.60    5.90
   1  -5 -10    3.00    6.20
   1   5 -10    6.20    5.90
   1   5 -10    6.20    5.90
   1   5 -10    7.60    7.70
   0  -5 -10    5.00    6.20
   0  -5  10    5.40    6.00
   0   5 -10    4.40    7.30
   0   5 -10    9.90    6.70
   0   5  10   -6.10   11.20
   0   5  10    8.40    7.20
   0   5 -10    9.90    6.70
   1  -5  10  233.28   14.90
   1  -5  10  250.37   17.20
   1   5  10  228.58   16.50
  -1   5 -10  237.58   15.00
  -1   5 -10  228.08   20.10
   1   5  10  254.67   21.20
  -2   5 -10   53.99    8.40
   2   5  10   46.30   10.50
  -2   5 -10   61.39   10.20
   5   0 -11   -4.20    4.60
   5   0 -11   -4.20    4.60
   5   0 -11   -1.20    6.90
   4   0 -11   -8.50    8.70
   4   0 -11    1.20    6.00
   4   0 -11   -4.00    6.70
   4   0 -11   -3.10    7.20
   4   0 -11   -8.50    8.70
   3   0 -11   10.40    7.80
   3   0 -11   -4.50    6.80
   3   0 -11    0.20   10.50
  -2   0  11    2.20    6.70
   2   0 -11    9.80   11.70
   2   0 -11   -0.40   10.20
   2   0 -11   -3.20    5.50
   1   0 -11   -4.50    7.90
   1   0 -11   -3.60    7.50
  -1   0  11   -8.70    4.80
   1   0 -11    1.70    7.60
   0   0  11   11.90    7.10
   0   0 -11   -2.40    7.50
   0   0 -11    4.00    8.30
   0   0  11   -3.30    5.70
   1   0  11    2.90    6.30
  -1   0 -11   -2.80    7.30
   1   0  11    2.50    9.60
  -1   0 -11   -0.40    4.80
   1   0  11   -0.60    9.70
   2   0  11   -7.50    5.90
   2   0  11   -7.50    5.90
   2   0  11   -3.60    9.50
   2   0  11    4.40    7.90
   2   0  11    1.90   11.10
   2   0  11    1.80    7.30
   3   0  11    0.80    4.40
   3   0  11   -6.30    5.50
   3   0  11    4.10   12.20
   3   0  11   -0.90   11.80
   3   0  11   -0.70   10.50
   3   0  11    0.80    4.40
   4   0  11   -2.10    3.40
   4   0  11    3.10    6.80
   4   0  11   -2.10    3.40
   4   0  11   -1.60    6.30
   4   0  11    3.10    6.80
   4  -1 -11   24.40   12.10
   4  -1 -11   35.70   10.90
   4  -1 -11   39.40    8.80
   4   1 -11   11.90    9.30
   4   1 -11   45.70   11.60
   4   1 -11   11.90    9.30
   3  -1 -11    3.80    8.00
   3  -1 -11    4.80    6.60
   3  -1 -11    3.50    7.10
   3   1 -11   -2.10    5.50
   3   1 -11   -2.10    5.50
   3   1 -11    3.40    9.70
   3   1 -11    7.50    8.60
   2  -1 -11   34.80   11.00
   2  -1 -11   18.00   12.40
   2  -1 -11   15.30    7.90
  -2  -1  11   22.30    7.20
   2   1 -11   19.30   10.20
   2   1 -11   37.10   11.60
  -2   1  11   12.10    7.20
   2   1 -11   24.40    9.20
   1  -1 -11   39.40   13.50
   1  -1 -11   33.10   10.30
  -1  -1  11   32.20    8.90
   1  -1 -11   31.70   12.60
   1   1 -11   24.60   11.00
   1   1 -11   50.29   12.20
   1   1 -11   68.39   12.40
  -1   1  11   26.30    9.70
   0  -1 -11   44.20   10.70
   0  -1  11   46.40   11.20
   0  -1 -11   66.49   14.30
   0   1  11   49.20   10.20
   0   1  11   35.80    6.70
   0   1 -11   69.79   14.60
   0   1 -11   49.40   11.10
   0   1  11   35.80    6.70
   0   1  11   51.89   12.20
   1  -1  11   15.20    6.90
   1  -1  11   18.40   10.80
   1  -1  11   14.10    9.10
  -1  -1 -11    7.80   11.30
  -1  -1 -11   18.10    6.60
   1  -1  11   15.20    6.90
   1   1  11   20.90    9.10
  -1   1 -11   20.10    9.20
   1   1  11    0.30   11.00
   1   1  11   34.50    7.20
   1   1  11   16.10    9.40
  -1   1 -11   14.70   11.90
   1   1  11   34.50    7.20
  -1   1 -11   19.60   10.60
   2  -1  11    1.30    6.80
   2  -1  11    1.90    7.40
   2  -1  11   -4.10    5.80
   2  -1  11    2.10    8.80
   2  -1  11    2.10    8.80
  -2  -1 -11   14.70   12.10
   2   1  11   -3.70    9.70
  -2   1 -11   -4.60    6.50
  -2   1 -11   -0.10    7.50
   2   1  11    3.70    5.30
  -2   1 -11   -3.90    8.90
   2   1  11    2.80   11.90
   2   1  11    7.90    8.60
   2   1  11    3.70    5.30
   2   1  11   -0.80    5.90
   3  -1  11    0.00    8.40
   3  -1  11   -0.50    5.70
   3  -1  11    5.50   11.40
   3   1  11    0.40    4.60
  -3   1 -11    1.60    5.60
   3   1  11    0.40    4.60
   3   1  11   24.50   16.30
   3   1  11   -1.80    8.20
   4  -1  11   35.80    9.40
   4  -1  11   39.30    8.90
   4   1  11   39.30    8.60
   4   1  11   35.50    5.80
   4   1  11   52.69   11.00
   4   1  11   15.00    8.60
   4   1  11   35.50    5.80
  -4  -2  11   98.89   10.90
   4  -2 -11   66.29   10.60
   4  -2 -11  113.49   15.60
   4   2 -11  116.39   10.70
   4   2 -11  128.59   17.00
   4   2 -11  116.39   10.70
   3  -2 -11   52.39   10.60
   3  -2 -11   63.19   15.20
   3   2 -11   53.59    9.60
   3   2 -11   43.70   12.20
   3   2 -11   53.59    9.60
   3   2 -11   38.90    9.70
   3   2 -11   31.40   10.20
   2  -2 -11  129.39   15.50
   2  -2 -11  171.58   20.80
  -2  -2  11  146.49   13.30
   2   2 -11  138.89   17.20
   2   2 -11  135.49   14.20
   2   2 -11  135.49   14.20
   2   2 -11  172.68   17.60
   2   2 -11  101.79   17.30
   1  -2 -11   16.10    8.70
  -1  -2  11   29.20    9.90
   1  -2 -11   32.80   13.40
   1   2 -11   30.60    8.60
   1   2 -11    7.80   11.20
   1   2 -11   14.20    9.80
   0  -2  11   79.29   13.10
   0  -2 -11   67.09   11.50
   0   2  11   74.99   10.00
   0   2  11   74.99   10.00
   0   2 -11   74.99   13.00
   0   2 -11   88.09   17.30
   0   2 -11   93.29   12.70
   1  -2  11    3.30    9.30
   1  -2  11   24.40    8.80
   1  -2  11   24.40    8.80
   1  -2  11    1.60   10.20
  -1   2 -11   10.00    8.00
   1   2  11   14.40   12.70
  -1   2 -11   12.60    7.00
   1   2  11   11.50   12.50
   1   2  11   17.20    8.90
   1   2  11   15.60    8.50
  -1   2 -11   14.80    8.80
   1   2  11   15.60    8.50
   2  -2  11  108.09   14.30
   2  -2  11   95.69   10.80
   2  -2  11   95.69   10.80
   2  -2  11  119.89   16.40
  -2   2 -11   67.89   14.50
   2   2  11  116.49   14.80
   2   2  11   92.79   15.10
  -2   2 -11   70.39   11.70
   2   2  11  110.09   10.70
   2   2  11  110.09   10.70
   2   2  11  107.29   16.80
  -2   2 -11   53.89   12.50
   3  -2  11  119.29   11.20
   3  -2  11  148.09   15.10
   3  -2  11  119.29   11.20
   3   2  11  166.98   18.70
   3   2  11  158.98   17.10
   3   2  11  152.18   11.50
  -3   2 -11  139.59   15.00
   3   2  11  152.18   11.50
  -3   2 -11   85.69   14.20
   3   2  11  162.58   17.90
   4  -3 -11   -4.80    4.70
   4  -3 -11    3.30    5.60
   4   3 -11    2.40    4.50
  -4   3  11    1.30    4.20
   4   3 -11    2.40    4.50
  -4   3  11    1.30    4.20
  -3  -3  11   15.40   14.40
   3  -3 -11   17.60    5.90
   3  -3 -11   18.50    7.10
   3  -3 -11   17.50    8.20
   3   3 -11   20.60    7.20
   3   3 -11   15.00    6.70
   3   3 -11   10.90    7.40
   3   3 -11   20.60    7.20
  -2  -3  11   13.90    6.50
   2  -3 -11   19.10    7.30
   2  -3 -11    7.30    6.90
   2  -3 -11   14.20    6.30
   2   3 -11   16.10    9.70
   2   3 -11   23.20    7.80
   2   3 -11   23.20    7.80
   2   3 -11   22.00    8.10
   2   3 -11   17.20    9.80
  -1  -3  11  116.29   13.40
   1  -3 -11  134.89   14.30
   1  -3 -11  135.99   18.50
   1   3 -11  105.19   15.30
   1   3 -11  128.69   15.00
   0  -3  11   16.90    9.40
   0  -3 -11    8.10    6.90
   0   3 -11    8.90    9.80
   0   3 -11   27.10    9.40
   0   3  11   26.20    8.60
   0   3  11   26.20    8.60
   0   3  11   33.00   10.60
   0   3 -11   20.70    8.40
   1  -3  11  101.59   13.30
   1  -3  11   61.89    8.20
   1  -3  11  137.69   14.90
  -1  -3 -11   60.09   10.60
   1  -3  11   61.89    8.20
   1   3  11   88.89   11.40
  -1   3 -11  119.09   14.70
   1   3  11  103.99   17.30
   1   3  11   73.59   13.10
  -1   3 -11  103.89   15.00
   1   3  11   88.89   11.40
  -1   3 -11  103.99   14.90
   2  -3  11   24.50    8.30
   2  -3  11   29.30    7.20
   2  -3  11   29.30    7.20
   2  -3  11   34.00    8.20
   2   3  11   20.90    9.80
   2   3  11   22.70    9.30
   2   3  11   32.30    9.60
  -2   3 -11    8.80    7.00
  -2   3 -11   14.90    7.80
  -2   3 -11   32.10    8.90
   2   3  11   30.20   13.40
   2   3  11   22.70    9.30
   3  -3  11   56.29    7.40
   3  -3  11   56.29    7.40
   3  -3  11   39.70    9.50
   3   3  11   50.29   10.20
  -3   3 -11   73.49   10.70
   3   3  11   75.19    7.90
   3   3  11   75.19    7.90
  -3   3 -11   48.00    8.00
   3   3  11   47.00    8.10
   2  -4 -11   -0.30    5.30
   2  -4 -11    3.70    5.10
   2  -4 -11   -3.30    4.80
  -2  -4  11    0.20    7.10
   2   4 -11    0.20    5.60
   2   4 -11    0.50    5.50
   2   4 -11    0.20    5.60
  -1  -4  11   34.90    7.60
   1  -4 -11   34.70    8.40
   1  -4 -11   15.40    6.70
   1  -4 -11   16.70    8.80
   1   4 -11   15.30    8.40
   1   4 -11   16.40    6.30
   1   4 -11   26.00    8.80
   1   4 -11   16.40    6.30
   0  -4  11  415.46   20.90
   0  -4 -11  355.46   22.10
   0   4 -11  415.26   25.00
   0   4  11  425.56   25.70
   0   4 -11  431.56   21.20
   1  -4  11   23.60    9.60
   1  -4  11   37.60    9.20
   1   4  11   31.90    8.30
  -1   4 -11   55.29   11.20
   1   4  11   31.70    7.60
  -1   4 -11   33.10    7.80
   1   4  11   31.90    8.30
   1   4  11   26.00    9.40
   2  -4  11   11.90    9.10
   2  -4  11    4.20    7.00
   2  -4  11   11.90    9.10
   2  -4  11   -2.50    4.60
  -2   4 -11   10.80    6.20
   2   4  11    4.10    4.50
   2   4  11    4.10    4.50
   2   4  11    5.60    7.60
   2   4  11    2.10    7.00
  -2   4 -11   -1.40    5.70
   4   0 -12   40.70   10.10
   3   0 -12  156.58   18.70
   3   0 -12  194.38   14.90
   2   0 -12  142.19   18.20
   2   0 -12  114.99   13.30
   2   0 -12  135.09   16.10
   1   0 -12   84.69   15.40
  -1   0  12   67.29   10.00
   1   0 -12  106.39   15.90
   1   0 -12   82.99   12.10
   0   0 -12  330.77   24.30
   0   0 -12  345.67   20.80
   0   0 -12  312.67   23.90
   0   0  12  334.67   22.10
   1   0  12   96.49   13.20
  -1   0 -12  109.09   15.80
  -1   0 -12   60.29   10.10
   1   0  12  100.69   13.80
  -2   0 -12   24.20    8.70
   2   0  12   43.10   11.80
   2   0  12   60.59    9.70
   2   0  12   39.20    8.80
   3   0  12  279.27   17.80
  -3   0 -12  275.07   18.90
   3  -1 -12  523.55   24.20
   3  -1 -12  525.35   27.70
   3   1 -12  543.65   29.20
   3   1 -12  499.45   23.30
   2  -1 -12  190.08   15.90
   2  -1 -12  174.88   18.50
  -2  -1  12  167.88   13.30
   2  -1 -12  159.28   16.00
   2   1 -12  158.18   17.30
   2   1 -12  167.68   15.00
   1  -1 -12   67.39   12.80
   1  -1 -12   50.49   10.40
   1  -1 -12   61.39   14.10
  -1  -1  12   68.59   11.30
  -1   1  12   63.79   11.50
   1   1 -12   74.69   14.30
   1   1 -12  106.39   17.10
   1   1 -12   65.29   12.10
   0  -1  12    3.70    6.50
   0  -1 -12    5.00   10.70
   0  -1 -12    2.50    9.90
   0  -1 -12    4.90    5.30
   0   1 -12   19.40    9.50
   0   1 -12    5.00    7.50
   0   1  12    4.40    6.60
   0   1 -12    8.00    6.80
  -1  -1 -12   14.30   10.60
   1  -1  12   12.20    7.30
   1  -1  12   26.70    8.20
  -1  -1 -12   15.70    8.10
  -1   1 -12   18.20    6.90
   1   1  12   14.00    9.60
   1   1  12   16.00   10.00
   1   1  12    6.10    6.60
   1   1  12    6.10    6.60
  -1   1 -12   25.90   10.20
   2  -1  12   65.19    9.60
  -2  -1 -12   82.29   13.20
   2  -1  12   66.89   11.70
  -2   1 -12   32.90    7.90
   2   1  12   50.59    6.40
   2   1  12   50.59    6.40
  -2   1 -12   95.09   15.00
   2   1  12   64.59   11.20
   2   1  12   51.09   10.30
   2   1  12   70.89   12.50
   3  -1  12   62.19    9.90
   3   1  12   46.70    8.70
   3   1  12   52.69    9.20
  -3   1 -12   61.99   11.40
   3  -2 -12   67.19   10.50
   3  -2 -12   52.99    8.50
   3   2 -12   62.89    8.40
   3   2 -12   62.89    8.40
   3   2 -12   37.20   10.70
   2  -2 -12   43.40   12.20
   2  -2 -12   26.30    9.50
   2   2 -12   17.10    6.70
   2   2 -12   43.80   11.30
  -1  -2  12   25.50    7.50
   1  -2 -12   10.70    8.40
   1  -2 -12    7.10    8.10
   1   2 -12    4.00    8.60
   1   2 -12    7.30    8.20
   1   2 -12    8.50   10.40
   0  -2 -12   49.90    9.00
   0  -2  12   44.20   10.40
   0  -2 -12   34.50   10.60
   0   2  12   36.60    6.40
   0   2 -12   32.40    8.40
   0   2 -12   40.90    9.40
   0   2 -12   14.40   10.20
   0   2  12   36.60    6.40
   1  -2  12   87.49   13.40
   1  -2  12   74.59   11.60
  -1   2 -12   72.29   11.20
  -1   2 -12   42.10   10.00
   1   2  12   91.69    9.70
   1   2  12   80.29   12.50
   1   2  12   91.69    9.70
   2  -2  12   92.29   10.00
   2  -2  12  129.39   12.70
   2   2  12  142.39   15.00
   2   2  12  124.59   10.80
   2   2  12  124.59   10.80
  -2   2 -12   79.89   11.70
   2   2  12  112.99   15.60
   2  -3 -12   57.99    8.30
   2  -3 -12   75.79   10.60
   2   3 -12   63.09    9.00
   2   3 -12   63.09    9.00
   2   3 -12   44.00    8.90
   1  -3 -12    7.10    6.50
  -1  -3  12    4.60    5.50
   1  -3 -12   13.60    5.80
   1  -3 -12   16.60    6.30
   1   3 -12    6.80    6.30
   1   3 -12   14.70    6.80
   1   3 -12    8.70    6.20
   0  -3  12    0.80    5.20
   0  -3 -12    3.20    6.20
   0   3 -12   -0.50    5.30
   0   3 -12   -0.70    6.10
   0   3 -12    0.80    5.40
   1  -3  12   99.49   12.10
   1  -3  12   55.09    7.80
   1   3  12   85.79    8.30
  -1   3 -12   86.69   10.10
  -1   3 -12   73.99   11.40
   1   3  12  101.29   12.30
  -1   3 -12   88.19   12.30
   1   3  12   85.79    8.30
   2   0 -13    2.50    6.30
   2   0 -13   -4.20    5.00
   2   0 -13   -2.00    8.40
  -1   0  13    1.70    5.30
   1   0 -13    6.10    6.70
   1   0 -13   -0.50    6.30
   1   0 -13   -2.80    4.90
   0   0 -13    2.10    6.00
   0   0 -13   -6.30    4.40
   0   0  13    4.50    5.70
   0   0 -13   -1.90    6.50
  -1   0 -13   -6.50    5.80
  -1   0 -13    4.00    6.30
  -1   0 -13    1.10    3.90
   1   0  13    1.40    5.10
   2  -1 -13   19.40    6.60
   2  -1 -13    9.70    6.30
   2   1 -13   14.40    7.60
   2   1 -13   18.10    5.80
  -1  -1  13   14.30    6.10
   1  -1 -13    8.60    7.30
   1  -1 -13   11.00    6.80
   1  -1 -13   -0.30    5.40
   1   1 -13    7.70    5.90
   1   1 -13    8.30    7.20
   0  -1 -13    0.80    4.30
   0  -1 -13   11.30    7.10
   0  -1 -13    1.60    5.80
   0  -1  13    7.20    5.60
   0   1 -13    9.70    6.00
   0   1 -13    8.90    8.00
  -1  -1 -13   43.30   11.10
   1  -1  13   41.30    6.50
  -1   1 -13   57.59    8.80
  -1   1 -13   39.60    9.70
   1  -2 -13    3.40    5.20
   1   2 -13   15.40    5.90
   1   2 -13   11.50    7.00
   0  -2  13  123.49   10.60
   0  -2 -13  152.18   14.00
   0   2 -13   98.79   11.80
   0   2 -13  105.49   10.90
   0   0   0    0.00    0.00

_computing_structure_solution     'SHELXT 2014/5 (Sheldrick, 2014)'
;
_shelx_hkl_checksum              97663
loop_
_space_group_symop_operation_xyz
'x, y, z'
'-x, y+1/2, -z+1/2'
'-x, -y, -z'
'x, -y-1/2, z-1/2'
loop_
_atom_site_type_symbol
_atom_site_label
_atom_site_fract_x
_atom_site_fract_y
_atom_site_fract_z
_atom_site_U_iso_or_equiv
_atom_site_adp_type
_atom_site_calc_flag
_atom_site_refinement_flags_adp
_atom_site_refinement_flags_occupancy
_atom_site_refinement_flags_posn
_atom_site_occupancy
_atom_site_disorder_assembly
_atom_site_disorder_group
F F1 0.13909(15) 0.27426(15) 0.79083(8) 0.0238(3) Uani d . . . 1 . .
N N1 0.3143(2) 0.1502(2) 0.56266(12) 0.0165(3) Uani d . . . 1 . .
H H1 0.334(3) 0.050(3) 0.5179(17) 0.019(5) Uiso d . . . 1 . .
O O1 0.64110(16) 0.19883(17) 0.56551(10) 0.0190(3) Uani d . . . 1 . .
C C2 0.4758(2) 0.2510(2) 0.59317(14) 0.0152(4) Uani d . . . 1 . .
C C3 0.4530(2) 0.4282(2) 0.66600(15) 0.0180(4) Uani d . . . 1 . .
H H3A 0.5444 0.5262 0.6388 0.022 Uiso calc U . R 1 . .
H H3B 0.4918 0.399 0.7499 0.022 Uiso calc U . R 1 . .
C C4 0.2456(2) 0.5103(2) 0.65949(15) 0.0185(4) Uani d . . . 1 . .
H H4A 0.2344 0.6079 0.7219 0.022 Uiso calc U . R 1 . .
H H4B 0.2179 0.5717 0.5814 0.022 Uiso calc U . R 1 . .
C C5 0.0987(2) 0.3542(2) 0.67638(14) 0.0169(4) Uani d . . . 1 . .
H H5 -0.0368 0.4088 0.6715 0.02 Uiso calc U . R 1 . .
C C6 0.1120(2) 0.1992(2) 0.58564(14) 0.0172(4) Uani d . . . 1 . .
H H6A 0.0445 0.0845 0.6137 0.021 Uiso calc U . R 1 . .
H H6B 0.0428 0.2405 0.5106 0.021 Uiso calc U . R 1 . .
loop_
_atom_site_aniso_label
_atom_site_aniso_U_11
_atom_site_aniso_U_22
_atom_site_aniso_U_33
_atom_site_aniso_U_12
_atom_site_aniso_U_13
_atom_site_aniso_U_23
F1 0.0274(6) 0.0277(6) 0.0167(5) -0.0045(4) 0.0040(4) 0.0002(4)
N1 0.0135(7) 0.0173(7) 0.0189(7) 0.0012(6) 0.0020(5) -0.0053(6)
O1 0.0122(6) 0.0198(6) 0.0251(6) 0.0014(5) 0.0030(5) -0.0028(5)
C2 0.0143(9) 0.0170(8) 0.0142(8) 0.0004(7) 0.0005(6) 0.0024(6)
C3 0.0154(9) 0.0173(9) 0.0216(8) -0.0012(7) 0.0022(6) -0.0014(7)
C4 0.0169(9) 0.0156(8) 0.0232(9) 0.0024(7) 0.0040(6) -0.0016(7)
C5 0.0142(8) 0.0196(9) 0.0172(8) 0.0029(7) 0.0019(6) -0.0013(7)
C6 0.0121(8) 0.0213(9) 0.0184(8) 0.0003(7) 0.0021(6) -0.0015(7)
loop_
_atom_type_symbol
_atom_type_description
_atom_type_scat_dispersion_real
_atom_type_scat_dispersion_imag
_atom_type_scat_source
C C 0.0181 0.0091 'International Tables Vol C Tables 4.2.6.8 and 6.1.1.4'
H H 0.0000 0.0000 'International Tables Vol C Tables 4.2.6.8 and 6.1.1.4'
N N 0.0311 0.0180 'International Tables Vol C Tables 4.2.6.8 and 6.1.1.4'
O O 0.0492 0.0322 'International Tables Vol C Tables 4.2.6.8 and 6.1.1.4'
F F 0.0727 0.0534 'International Tables Vol C Tables 4.2.6.8 and 6.1.1.4'
loop_
_geom_angle_atom_site_label_1
_geom_angle_atom_site_label_2
_geom_angle_atom_site_label_3
_geom_angle_site_symmetry_1
_geom_angle_site_symmetry_3
_geom_angle
_geom_angle_publ_flag
C2 N1 C6 . . 127.01(15) ?
C2 N1 H1 . . 115.0(12) ?
C6 N1 H1 . . 117.7(12) ?
O1 C2 N1 . . 121.64(15) ?
O1 C2 C3 . . 120.34(14) ?
N1 C2 C3 . . 118.00(15) ?
C2 C3 C4 . . 114.28(14) ?
C2 C3 H3A . . 108.7 ?
C4 C3 H3A . . 108.7 ?
C2 C3 H3B . . 108.7 ?
C4 C3 H3B . . 108.7 ?
H3A C3 H3B . . 107.6 ?
C5 C4 C3 . . 109.87(14) ?
C5 C4 H4A . . 109.7 ?
C3 C4 H4A . . 109.7 ?
C5 C4 H4B . . 109.7 ?
C3 C4 H4B . . 109.7 ?
H4A C4 H4B . . 108.2 ?
F1 C5 C6 . . 108.47(14) ?
F1 C5 C4 . . 107.93(13) ?
C6 C5 C4 . . 112.10(13) ?
F1 C5 H5 . . 109.4 ?
C6 C5 H5 . . 109.4 ?
C4 C5 H5 . . 109.4 ?
N1 C6 C5 . . 112.77(13) ?
N1 C6 H6A . . 109.0 ?
C5 C6 H6A . . 109.0 ?
N1 C6 H6B . . 109.0 ?
C5 C6 H6B . . 109.0 ?
H6A C6 H6B . . 107.8 ?
loop_
_geom_bond_atom_site_label_1
_geom_bond_atom_site_label_2
_geom_bond_site_symmetry_2
_geom_bond_distance
_geom_bond_publ_flag
F1 C5 . 1.4218(19) ?
N1 C2 . 1.339(2) ?
N1 C6 . 1.460(2) ?
N1 H1 . 0.88(2) ?
O1 C2 . 1.243(2) ?
C2 C3 . 1.507(2) ?
C3 C4 . 1.527(2) ?
C3 H3A . 0.99 ?
C3 H3B . 0.99 ?
C4 C5 . 1.506(2) ?
C4 H4A . 0.99 ?
C4 H4B . 0.99 ?
C5 C6 . 1.503(2) ?
C5 H5 . 1.0 ?
C6 H6A . 0.99 ?
C6 H6B . 0.99 ?
loop_
_geom_hbond_atom_site_label_D
_geom_hbond_atom_site_label_H
_geom_hbond_atom_site_label_A
_geom_hbond_site_symmetry_A
_geom_hbond_distance_DH
_geom_hbond_distance_HA
_geom_hbond_distance_DA
_geom_hbond_angle_DHA
_geom_hbond_publ_flag
N1 H1 O1 3_656 0.88(2) 2.00(2) 2.8759(19) 171.8(18) ?
loop_
_geom_torsion_atom_site_label_1
_geom_torsion_atom_site_label_2
_geom_torsion_atom_site_label_3
_geom_torsion_atom_site_label_4
_geom_torsion_site_symmetry_1
_geom_torsion_site_symmetry_2
_geom_torsion_site_symmetry_3
_geom_torsion_site_symmetry_4
_geom_torsion
_geom_torsion_publ_flag
C6 N1 C2 O1 . . . . -177.54(15) ?
C6 N1 C2 C3 . . . . 4.3(2) ?
O1 C2 C3 C4 . . . . 161.07(15) ?
N1 C2 C3 C4 . . . . -20.8(2) ?
C2 C3 C4 C5 . . . . 47.08(19) ?
C3 C4 C5 F1 . . . . 61.37(17) ?
C3 C4 C5 C6 . . . . -58.02(18) ?
C2 N1 C6 C5 . . . . -14.8(2) ?
F1 C5 C6 N1 . . . . -77.45(16) ?
C4 C5 C6 N1 . . . . 41.62(19) ?
