#------------------------------------------------------------------------------
#$Date: 2020-11-04 03:16:39 +0200 (Wed, 04 Nov 2020) $
#$Revision: 258699 $
#$URL: file:///home/coder/svn-repositories/cod/cif/4/51/81/4518167.cif $
#------------------------------------------------------------------------------
#
# This file is available in the Crystallography Open Database (COD),
# http://www.crystallography.net/
#
# All data on this site have been placed in the public domain by the
# contributors.
#
data_4518167
loop_
_publ_author_name
'Yahia, Hamdi Ben'
'Sabri, Souhir'
'Essehli, Rachid'
'Kasak, Peter'
'Drogosz-Stachowicz, Joanna'
'Janecka, Anna'
'El Bali, Brahim'
_publ_section_title
;
 Crystal Growth, Single Crystal Structure, and Biological Activity of
 Thiazolo-Pyridine Dicarboxylic Acid Derivatives
;
_journal_issue                   43
_journal_name_full               'ACS Omega'
_journal_page_first              27756
_journal_page_last               27765
_journal_paper_doi               10.1021/acsomega.0c01769
_journal_volume                  5
_journal_year                    2020
_chemical_formula_moiety         'C9 H9 N1 Na1 O7 P1 S1'
_chemical_formula_sum            'C9 H9 N Na O7 P S'
_chemical_formula_weight         329.2
_space_group_IT_number           2
_space_group_name_Hall           '-P 1'
_space_group_name_H-M_alt        'P -1'
_symmetry_cell_setting           triclinic
_symmetry_Int_Tables_number      2
_symmetry_space_group_name_Hall  '-P 1'
_symmetry_space_group_name_H-M   'P -1'
_cell_angle_alpha                97.642(2)
_cell_angle_beta                 93.975(2)
_cell_angle_gamma                103.694(2)
_cell_formula_units_Z            2
_cell_length_a                   6.2307(3)
_cell_length_b                   9.0432(4)
_cell_length_c                   11.7429(5)
_cell_measurement_reflns_used    8781
_cell_measurement_temperature    150
_cell_measurement_theta_max      30.53
_cell_measurement_theta_min      2.35
_cell_volume                     633.64(5)
_computing_cell_refinement       'SAINT V8.38A (Bruker AXS Inc., 2016)'
_computing_data_collection       'Apex 3'
_computing_data_reduction        'SAINT V8.38A (Bruker AXS Inc., 2017)'
_computing_molecular_graphics    Diamond
_computing_structure_refinement  Jana2006
_computing_structure_solution    'Direct method'
_diffrn_ambient_temperature      150
_diffrn_measured_fraction_theta_full 0.99
_diffrn_measured_fraction_theta_max 0.99
_diffrn_measurement_device       'four circle diffractometer'
_diffrn_measurement_device_type  'D8 venture'
_diffrn_measurement_method       multi-scan'
_diffrn_radiation_probe          x-ray
_diffrn_radiation_source         'X-ray tube'
_diffrn_radiation_type           'Mo K\a'
_diffrn_radiation_wavelength     0.71073
_diffrn_reflns_av_R_equivalents  0.02
_diffrn_reflns_av_unetI/netI     0.0292
_diffrn_reflns_limit_h_max       8
_diffrn_reflns_limit_h_min       -8
_diffrn_reflns_limit_k_max       12
_diffrn_reflns_limit_k_min       -12
_diffrn_reflns_limit_l_max       16
_diffrn_reflns_limit_l_min       -11
_diffrn_reflns_number            8781
_diffrn_reflns_theta_full        30.53
_diffrn_reflns_theta_max         30.53
_diffrn_reflns_theta_min         2.35
_exptl_absorpt_coefficient_mu    0.446
_exptl_absorpt_correction_T_max  0.7491
_exptl_absorpt_correction_T_min  0.7042
_exptl_absorpt_correction_type   multi-scan
_exptl_absorpt_process_details   sadabs
_exptl_crystal_colour            yellow
_exptl_crystal_density_diffrn    1.7254
_exptl_crystal_description       needle
_exptl_crystal_F_000             336
_exptl_crystal_size_max          0.160
_exptl_crystal_size_mid          0.1
_exptl_crystal_size_min          0.08
_refine_diff_density_max         0.37
_refine_diff_density_min         -0.23
_refine_ls_extinction_coef       400(800)
_refine_ls_extinction_method
'B-C type 1 Gaussian isotropic (Becker & Coppens, 1974)'
_refine_ls_goodness_of_fit_gt    1.20
_refine_ls_goodness_of_fit_ref   1.19
_refine_ls_hydrogen_treatment    mixed
_refine_ls_number_constraints    22
_refine_ls_number_parameters     196
_refine_ls_number_reflns         3842
_refine_ls_number_restraints     2
_refine_ls_R_factor_all          0.0462
_refine_ls_R_factor_gt           0.0427
_refine_ls_shift/su_max          0.0039
_refine_ls_shift/su_mean         0.0004
_refine_ls_structure_factor_coef Fsqd
_refine_ls_weighting_details     w=1/(\s^2^(I)+0.0038439999I^2^)
_refine_ls_weighting_scheme      sigma
_refine_ls_wR_factor_gt          0.1057
_refine_ls_wR_factor_ref         0.1077
_reflns_number_gt                3689
_reflns_number_total             3842
_reflns_threshold_expression     I>0\s(I)
_cod_data_source_file            ao0c01769_si_004.cif
_cod_data_source_block           (3)
_cod_depositor_comments
;
The following automatic conversions were performed:

data item '_diffrn_radiation_probe' value 'X-ray' was changed to
'x-ray' in accordance with the
/home/data/users/saulius/crontab/automatic-downloads/rss-feeds/ACS/lib/dictionaries/cif_core.dic
dictionary named 'cif_core.dic' version 2.4.2 last updated on
2011-04-26.

Automatic conversion script
Id: cif_fix_values 7556 2019-12-06 15:28:31Z antanas 

 Adding full bibliography for 4518166--4518169.cif.
;
_cod_original_formula_sum        'C9 H9 N1 Na1 O7 P1 S1'
_cod_database_code               4518167
loop_
_space_group_symop_id
_space_group_symop_operation_xyz
1 x,y,z
2 -x,-y,-z
loop_
_atom_site_label
_atom_site_type_symbol
_atom_site_fract_x
_atom_site_fract_y
_atom_site_fract_z
_atom_site_adp_type
_atom_site_U_iso_or_equiv
_atom_site_site_symmetry_multiplicity
_atom_site_occupancy
_atom_site_calc_flag
_atom_site_refinement_flags
_atom_site_disorder_assembly
_atom_site_disorder_group
S1 S -0.09202(6) 0.20599(5) 0.22679(4) Uani 0.02380(13) 2 1 d . . .
C1 C -0.0289(3) 0.38563(19) 0.16746(15) Uani 0.0234(5) 2 1 d . . .
C2 C 0.2237(2) 0.43121(16) 0.17236(12) Uani 0.0155(4) 2 1 d . . .
N1 N 0.3055(2) 0.38227(13) 0.27739(10) Uani 0.0143(3) 2 1 d . . .
C3 C 0.5198(2) 0.44742(16) 0.32909(12) Uani 0.0151(4) 2 1 d . . .
O1 O 0.63674(17) 0.55970(12) 0.29359(9) Uani 0.0196(3) 2 1 d . . .
C4 C 0.5861(2) 0.37511(17) 0.42171(12) Uani 0.0168(4) 2 1 d . . .
C5 C 0.4425(2) 0.25635(16) 0.45863(12) Uani 0.0166(4) 2 1 d . . .
C6 C 0.2222(2) 0.19870(17) 0.40639(12) Uani 0.0178(4) 2 1 d . . .
C7 C 0.1614(2) 0.26259(17) 0.31429(12) Uani 0.0160(4) 2 1 d . . .
C8 C 0.5173(3) 0.18989(17) 0.56073(12) Uani 0.0178(4) 2 1 d . . .
O2 O 0.38883(19) 0.10447(12) 0.61113(9) Uani 0.0216(3) 2 1 d . . .
O3 O 0.7326(2) 0.23600(15) 0.58892(11) Uani 0.0292(4) 2 1 d . . .
H1o3 H 0.775(3) 0.186(2) 0.6511(12) Uiso 0.035 2 1 d . . .
C9 C 0.3029(2) 0.35693(16) 0.06394(12) Uani 0.0145(4) 2 1 d . . .
O4 O 0.22575(19) 0.36912(14) -0.03083(9) Uani 0.0251(4) 2 1 d . . .
O5 O 0.45531(18) 0.28272(13) 0.08320(9) Uani 0.0194(3) 2 1 d . . .
H1o5 H 0.496(3) 0.2381(19) 0.0116(8) Uiso 0.0232 2 1 d . . .
Na1 Na 0.74862(9) 0.77456(7) 0.21683(5) Uani 0.01767(19) 2 1 d . . .
P1 P 1.28913(6) 0.91595(4) 0.15022(3) Uani 0.01623(12) 2 1 d . . .
O6 O 1.44820(19) 0.82207(14) 0.11022(10) Uani 0.0248(4) 2 1 d . . .
O7 O 1.12522(17) 0.84898(13) 0.22887(9) Uani 0.0206(3) 2 1 d . . .
H1p1 H 1.185(3) 0.934(2) 0.0595(16) Uiso 0.022(5) 2 1 d . . .
H2p1 H 1.411(3) 1.047(2) 0.1996(17) Uiso 0.029(5) 2 1 d . . .
H1c1 H -0.092271 0.367451 0.088456 Uiso 0.028 2 1 d . . .
H2c1 H -0.077945 0.462786 0.215759 Uiso 0.028 2 1 d . . .
H1c2 H 0.280022 0.540117 0.174733 Uiso 0.0186 2 1 d . . .
H1c4 H 0.735092 0.410785 0.458948 Uiso 0.0202 2 1 d . . .
H1c6 H 0.119639 0.118025 0.434442 Uiso 0.0213 2 1 d . . .
loop_
_atom_site_aniso_label
_atom_site_aniso_type_symbol
_atom_site_aniso_U_11
_atom_site_aniso_U_22
_atom_site_aniso_U_33
_atom_site_aniso_U_12
_atom_site_aniso_U_13
_atom_site_aniso_U_23
S1 S 0.01633(19) 0.0315(2) 0.0227(2) 0.00330(15) -0.00051(14) 0.00720(16)
C1 C 0.0186(7) 0.0341(8) 0.0233(8) 0.0143(6) 0.0053(6) 0.0100(7)
C2 C 0.0185(7) 0.0191(7) 0.0119(6) 0.0091(5) 0.0028(5) 0.0045(5)
N1 N 0.0172(6) 0.0174(6) 0.0104(5) 0.0076(5) 0.0035(4) 0.0025(4)
C3 C 0.0176(6) 0.0178(6) 0.0107(6) 0.0066(5) 0.0041(5) 0.0001(5)
O1 O 0.0222(5) 0.0200(5) 0.0166(5) 0.0035(4) 0.0051(4) 0.0048(4)
C4 C 0.0185(7) 0.0215(7) 0.0106(6) 0.0059(5) 0.0013(5) 0.0017(5)
C5 C 0.0227(7) 0.0199(7) 0.0097(6) 0.0099(6) 0.0034(5) 0.0020(5)
C6 C 0.0213(7) 0.0181(6) 0.0143(7) 0.0043(5) 0.0041(5) 0.0038(5)
C7 C 0.0155(6) 0.0188(6) 0.0141(6) 0.0053(5) 0.0035(5) 0.0015(5)
C8 C 0.0246(7) 0.0193(7) 0.0112(6) 0.0086(6) 0.0026(5) 0.0027(5)
O2 O 0.0289(6) 0.0222(5) 0.0152(5) 0.0074(4) 0.0039(4) 0.0057(4)
O3 O 0.0239(6) 0.0433(7) 0.0235(6) 0.0078(5) 0.0001(5) 0.0181(5)
C9 C 0.0141(6) 0.0168(6) 0.0137(6) 0.0041(5) 0.0028(5) 0.0045(5)
O4 O 0.0318(6) 0.0375(7) 0.0123(5) 0.0207(5) 0.0006(4) 0.0047(5)
O5 O 0.0213(5) 0.0282(6) 0.0136(5) 0.0150(4) 0.0037(4) 0.0039(4)
Na1 Na 0.0139(3) 0.0240(3) 0.0158(3) 0.0047(2) 0.0026(2) 0.0050(2)
P1 P 0.01594(19) 0.0211(2) 0.01489(19) 0.00884(14) 0.00445(13) 0.00502(14)
O6 O 0.0261(6) 0.0396(7) 0.0145(5) 0.0217(5) 0.0031(4) 0.0002(5)
O7 O 0.0134(5) 0.0310(6) 0.0180(5) 0.0041(4) 0.0019(4) 0.0085(5)
loop_
_atom_type_symbol
_atom_type_scat_dispersion_real
_atom_type_scat_dispersion_imag
_atom_type_scat_source
C 0.0033 0.0016 'International Tables Vol C tables 4.2.6.8 and 6.1.1.1'
H 0.0000 0.0000 'International Tables Vol C tables 4.2.6.8 and 6.1.1.1'
N 0.0061 0.0033 'International Tables Vol C tables 4.2.6.8 and 6.1.1.1'
Na 0.0362 0.0249 'International Tables Vol C tables 4.2.6.8 and 6.1.1.1'
O 0.0106 0.0060 'International Tables Vol C tables 4.2.6.8 and 6.1.1.1'
P 0.1023 0.0942 'International Tables Vol C tables 4.2.6.8 and 6.1.1.1'
S 0.1246 0.1234 'International Tables Vol C tables 4.2.6.8 and 6.1.1.1'
loop_
_diffrn_standard_refln_index_h
_diffrn_standard_refln_index_k
_diffrn_standard_refln_index_l
? ? ?
loop_
_exptl_crystal_face_index_h
_exptl_crystal_face_index_k
_exptl_crystal_face_index_l
_exptl_crystal_face_perp_dist
? ? ? ?
loop_
_geom_angle_atom_site_label_1
_geom_angle_atom_site_label_2
_geom_angle_atom_site_label_3
_geom_angle_site_symmetry_1
_geom_angle_site_symmetry_2
_geom_angle_site_symmetry_3
_geom_angle
_geom_angle_publ_flag
C1 S1 C7 . . . 90.80(7) ?
S1 C1 C2 . . . 104.71(12) ?
S1 C1 H1c1 . . . 109.47 ?
S1 C1 H2c1 . . . 109.47 ?
C2 C1 H1c1 . . . 109.47 ?
C2 C1 H2c1 . . . 109.47 ?
H1c1 C1 H2c1 . . . 113.84 ?
C1 C2 N1 . . . 105.73(12) ?
C1 C2 C9 . . . 111.16(11) ?
C1 C2 H1c2 . . . 111.88 ?
N1 C2 C9 . . . 112.37(13) ?
N1 C2 H1c2 . . . 110.66 ?
C9 C2 H1c2 . . . 105.17 ?
C2 N1 C3 . . . 120.89(12) ?
C2 N1 C7 . . . 115.25(11) ?
C3 N1 C7 . . . 123.71(13) ?
N1 C3 O1 . . . 119.79(14) ?
N1 C3 C4 . . . 114.67(12) ?
O1 C3 C4 . . . 125.54(13) ?
C3 C4 C5 . . . 121.53(13) ?
C3 C4 H1c4 . . . 119.23 ?
C5 C4 H1c4 . . . 119.23 ?
C4 C5 C6 . . . 121.55(14) ?
C4 C5 C8 . . . 119.31(12) ?
C6 C5 C8 . . . 119.09(13) ?
C5 C6 C7 . . . 117.10(13) ?
C5 C6 H1c6 . . . 121.45 ?
C7 C6 H1c6 . . . 121.45 ?
S1 C7 N1 . . . 111.44(11) ?
S1 C7 C6 . . . 127.22(11) ?
N1 C7 C6 . . . 121.31(12) ?
C5 C8 O2 . . . 122.70(14) ?
C5 C8 O3 . . . 112.49(13) ?
C5 C8 H1o3 . . . 141.2(5) ?
O2 C8 O3 . . . 124.80(15) ?
O2 C8 H1o3 . . . 96.0(5) ?
C8 O3 H1o3 . . . 109.9(11) ?
C2 C9 O4 . . . 120.24(14) ?
C2 C9 O5 . . . 114.94(12) ?
C2 C9 H1o5 . . . 143.6(4) ?
O4 C9 O5 . . . 124.81(14) ?
O4 C9 H1o5 . . . 96.2(4) ?
C9 O5 H1o5 . . . 110.6(11) ?
O6 P1 O7 . . . 116.91(7) ?
O6 P1 H1p1 . . . 105.4(9) ?
O6 P1 H2p1 . . . 105.7(10) ?
O7 P1 H1p1 . . . 109.1(8) ?
O7 P1 H2p1 . . . 110.4(9) ?
H1p1 P1 H2p1 . . . 109.0(12) ?
H1o5 O6 P1 2_765 . . 132.6(7) ?
H1o3 O7 P1 2_766 . . 116.8(7) ?
loop_
_geom_bond_atom_site_label_1
_geom_bond_atom_site_label_2
_geom_bond_site_symmetry_1
_geom_bond_site_symmetry_2
_geom_bond_distance
_geom_bond_publ_flag
S1 C1 . . 1.8208(18) ?
S1 C7 . . 1.7501(14) ?
C1 C2 . . 1.524(2) ?
C1 H1c1 . . 0.96 ?
C1 H2c1 . . 0.96 ?
C2 N1 . . 1.463(2) ?
C2 C9 . . 1.527(2) ?
C2 H1c2 . . 0.96 ?
N1 C3 . . 1.3855(17) ?
N1 C7 . . 1.3724(18) ?
C3 O1 . . 1.2408(18) ?
C3 C4 . . 1.427(2) ?
C4 C5 . . 1.366(2) ?
C4 H1c4 . . 0.96 ?
C5 C6 . . 1.411(2) ?
C5 C8 . . 1.504(2) ?
C6 C7 . . 1.364(2) ?
C6 H1c6 . . 0.96 ?
C8 O2 . . 1.2175(19) ?
C8 O3 . . 1.3115(19) ?
O3 H1o3 . . 0.960(18) ?
C9 O4 . . 1.2104(18) ?
C9 O5 . . 1.310(2) ?
O5 H1o5 . . 0.960(13) ?
P1 O6 . . 1.5102(14) ?
P1 O7 . . 1.4998(11) ?
P1 H1p1 . . 1.256(19) ?
P1 H2p1 . . 1.287(17) ?
loop_
_geom_hbond_atom_site_label_D
_geom_hbond_atom_site_label_H
_geom_hbond_atom_site_label_A
_geom_hbond_site_symmetry_D
_geom_hbond_site_symmetry_H
_geom_hbond_site_symmetry_A
_geom_hbond_distance_DH
_geom_hbond_distance_HA
_geom_hbond_distance_DA
_geom_hbond_angle_DHA
_geom_hbond_publ_flag
O3 H1o3 O7 . . 2_766 0.960(18) 1.602(17) 2.5396(18) 164.3(16) ?
O5 H1o5 O6 . . 2_765 0.960(13) 1.554(12) 2.5109(16) 174.1(18) ?
C1 H2c1 O1 . . 1_455 0.96 2.35 3.221(2) 150.84 ?
C4 H1c4 O3 . . . 0.96 2.34 2.688(2) 100.80 ?
loop_
_refln_index_h
_refln_index_k
_refln_index_l
_refln_F_squared_calc
_refln_F_squared_meas
_refln_F_squared_sigma
_refln_observed_status
1 0 0 2197.73 2070.32 24.56 o
2 0 0 977.59 1011.41 13.76 o
3 0 0 42.05 61.00 1.49 o
4 0 0 374.34 384.40 4.68 o
5 0 0 552.18 557.74 8.84 o
6 0 0 385.47 389.76 7.40 o
7 0 0 44.35 39.77 3.11 o
8 0 0 1.98 2.10 3.13 o
-8 1 0 1.26 2.29 3.02 o
-7 1 0 176.70 178.75 5.51 o
-6 1 0 35.10 42.13 4.39 o
-5 1 0 182.93 170.81 3.10 o
-4 1 0 921.82 985.30 8.34 o
-3 1 0 1526.09 1585.07 12.44 o
-2 1 0 1094.10 1121.52 9.43 o
-1 1 0 900.18 953.45 6.66 o
0 1 0 121.99 97.41 4.09 o
1 1 0 112.01 115.12 1.14 o
2 1 0 633.71 704.45 5.73 o
3 1 0 815.09 841.65 8.64 o
4 1 0 293.71 273.32 4.96 o
5 1 0 160.87 164.08 4.35 o
6 1 0 353.38 325.38 10.98 o
7 1 0 6.45 4.28 3.61 o
8 1 0 0.56 1.70 5.23 o
-8 2 0 10.27 12.02 6.12 o
-7 2 0 7.88 2.99 2.16 o
-6 2 0 1706.00 1660.74 17.80 o
-5 2 0 47.91 45.92 1.87 o
-4 2 0 707.98 786.16 7.69 o
-3 2 0 2093.28 2115.68 14.92 o
-2 2 0 107.35 138.63 1.42 o
1 2 0 2464.29 2498.68 24.79 o
2 2 0 1.43 3.75 0.40 o
3 2 0 251.01 240.60 3.27 o
4 2 0 88.99 91.17 2.05 o
5 2 0 73.90 72.84 4.64 o
6 2 0 18.11 21.90 3.61 o
7 2 0 3.81 7.81 4.20 o
8 2 0 12.91 3.83 5.46 o
-8 3 0 463.61 438.20 9.65 o
-7 3 0 2.55 4.17 2.17 o
-6 3 0 690.22 701.22 12.10 o
-5 3 0 12.81 15.80 1.38 o
-4 3 0 293.33 319.48 7.67 o
-3 3 0 1024.42 961.97 7.28 o
-2 3 0 160.54 216.97 1.93 o
-1 3 0 34.44 25.71 0.61 o
0 3 0 1534.77 1502.68 22.13 o
1 3 0 10.16 12.44 1.52 o
2 3 0 63.56 55.02 1.28 o
3 3 0 0.15 1.99 1.40 o
4 3 0 6.47 8.80 1.05 o
5 3 0 415.77 374.32 13.31 o
6 3 0 5.40 4.05 3.02 o
7 3 0 190.35 218.74 10.17 o
-8 4 0 47.13 44.82 5.60 o
-7 4 0 13.58 13.12 2.53 o
-6 4 0 328.25 315.32 6.52 o
-5 4 0 9.12 8.31 1.39 o
-4 4 0 15.91 20.64 1.05 o
-3 4 0 839.15 869.96 9.60 o
-2 4 0 607.34 550.77 4.52 o
-1 4 0 84.24 85.32 1.37 o
0 4 0 115.20 138.24 2.06 o
1 4 0 136.99 154.71 2.27 o
2 4 0 98.00 84.82 2.46 o
3 4 0 2930.34 2890.43 45.97 o
4 4 0 117.05 123.34 2.71 o
5 4 0 4.32 8.18 2.88 o
6 4 0 2.86 7.37 3.47 o
7 4 0 41.87 48.95 6.86 o
-8 5 0 2.64 2.14 2.97 o
-7 5 0 250.18 247.98 6.47 o
-6 5 0 55.48 48.76 3.31 o
-5 5 0 1.68 1.60 1.11 o
-4 5 0 233.83 245.43 3.95 o
-3 5 0 234.63 264.13 3.36 o
-2 5 0 0.03 0.74 0.57 o
-1 5 0 364.24 336.55 4.57 o
0 5 0 1100.75 1120.09 10.38 o
1 5 0 144.95 141.19 3.44 o
2 5 0 2.31 2.82 0.97 o
3 5 0 441.17 419.19 4.82 o
4 5 0 333.95 308.40 6.08 o
5 5 0 3.33 0.74 1.86 o
6 5 0 181.95 180.85 9.36 o
7 5 0 34.09 30.96 6.41 o
-8 6 0 6.76 6.86 3.23 o
-7 6 0 56.07 57.43 3.88 o
-6 6 0 9.65 13.01 4.02 o
-5 6 0 3.33 5.09 1.38 o
-4 6 0 92.70 89.28 2.23 o
-3 6 0 3152.29 3058.27 30.75 o
-2 6 0 627.08 605.56 6.76 o
-1 6 0 169.28 178.35 3.90 o
0 6 0 942.35 1014.33 11.27 o
1 6 0 60.96 48.21 2.40 o
2 6 0 335.10 329.27 6.26 o
3 6 0 325.37 325.36 4.96 o
4 6 0 67.91 61.78 5.38 o
5 6 0 0.45 3.24 2.43 o
6 6 0 17.49 29.49 6.34 o
-8 7 0 122.79 108.74 11.72 o
-7 7 0 37.10 39.55 3.70 o
-6 7 0 458.31 477.98 8.24 o
-5 7 0 154.88 152.48 3.69 o
-4 7 0 1.01 2.56 1.24 o
-3 7 0 825.20 845.18 10.02 o
-2 7 0 466.74 469.65 5.51 o
-1 7 0 215.12 216.84 4.06 o
0 7 0 624.37 599.38 7.62 o
1 7 0 2.95 3.96 1.14 o
2 7 0 344.63 341.88 5.21 o
3 7 0 0.30 -2.16 1.31 <
4 7 0 163.13 159.43 5.18 o
5 7 0 113.91 120.72 5.58 o
6 7 0 26.10 23.59 6.71 o
-8 8 0 4.96 5.49 3.76 o
-7 8 0 211.33 193.82 7.82 o
-6 8 0 184.79 178.12 4.59 o
-5 8 0 170.92 180.08 4.29 o
-4 8 0 49.99 48.82 2.54 o
-3 8 0 84.79 94.39 2.94 o
-2 8 0 22.59 21.75 1.43 o
-1 8 0 36.97 37.90 2.12 o
0 8 0 11.01 10.23 1.51 o
1 8 0 3.96 4.37 1.39 o
2 8 0 32.93 38.16 2.96 o
3 8 0 0.01 2.16 1.72 o
4 8 0 38.86 38.22 3.59 o
5 8 0 6.38 2.36 5.53 o
-7 9 0 27.81 30.82 4.94 o
-6 9 0 490.78 497.91 10.82 o
-5 9 0 11.74 12.83 2.13 o
-4 9 0 126.18 133.83 3.86 o
-3 9 0 2.02 2.09 1.92 o
-2 9 0 111.38 111.10 2.94 o
-1 9 0 192.13 179.05 5.68 o
0 9 0 45.10 52.26 2.77 o
1 9 0 88.42 95.42 4.13 o
2 9 0 31.05 36.98 3.68 o
3 9 0 7.42 4.53 2.90 o
4 9 0 44.44 42.79 4.50 o
-7 10 0 15.63 21.23 6.19 o
-6 10 0 26.11 26.86 3.30 o
-5 10 0 1.40 3.12 2.85 o
-4 10 0 9.26 6.86 2.10 o
-3 10 0 0.43 2.75 1.85 o
-2 10 0 33.50 35.03 2.31 o
-1 10 0 105.79 109.89 3.44 o
0 10 0 22.57 27.48 2.47 o
1 10 0 6.10 0.81 2.15 o
2 10 0 34.86 28.61 4.82 o
3 10 0 33.77 39.30 8.99 o
-6 11 0 3.84 0.59 5.60 o
-5 11 0 16.98 10.42 3.01 o
-4 11 0 15.40 10.34 2.57 o
-3 11 0 81.36 85.98 4.42 o
-2 11 0 18.81 18.30 2.29 o
-1 11 0 83.30 94.20 3.83 o
0 11 0 205.23 217.29 6.81 o
1 11 0 90.21 89.96 5.35 o
2 11 0 18.57 17.55 4.38 o
-5 12 0 26.15 23.78 7.78 o
-4 12 0 0.02 0.66 3.98 o
-3 12 0 15.53 26.14 8.74 o
-2 12 0 37.31 46.17 3.63 o
-1 12 0 11.34 9.62 3.11 o
0 12 0 11.99 17.05 3.63 o
-1 -12 1 69.21 71.84 6.23 o
0 -12 1 35.66 38.01 4.34 o
1 -12 1 52.10 48.62 3.31 o
2 -12 1 81.28 87.68 6.27 o
3 -12 1 48.14 55.43 3.99 o
4 -12 1 8.87 6.29 4.85 o
5 -12 1 47.04 49.54 8.85 o
-2 -11 1 7.03 6.34 4.57 o
-1 -11 1 145.11 140.93 5.78 o
0 -11 1 113.94 112.18 7.51 o
1 -11 1 11.55 11.91 2.35 o
2 -11 1 71.46 62.33 5.27 o
3 -11 1 427.86 430.10 13.20 o
4 -11 1 37.80 29.95 3.10 o
5 -11 1 269.43 286.70 9.15 o
6 -11 1 4.48 6.34 5.46 o
-3 -10 1 12.56 16.00 5.38 o
-2 -10 1 40.96 43.28 6.86 o
-1 -10 1 9.04 12.90 2.65 o
0 -10 1 1.46 -0.96 1.85 <
1 -10 1 35.49 34.17 2.18 o
2 -10 1 244.42 240.72 5.56 o
3 -10 1 3.62 2.95 1.90 o
4 -10 1 51.63 52.36 4.91 o
5 -10 1 76.11 77.65 4.48 o
6 -10 1 20.15 25.14 3.48 o
7 -10 1 0.04 0.37 4.08 o
-4 -9 1 10.79 12.31 4.50 o
-3 -9 1 36.61 31.08 3.50 o
-2 -9 1 4.45 3.12 2.49 o
-1 -9 1 827.53 822.62 10.41 o
0 -9 1 1.78 4.55 2.37 o
1 -9 1 283.61 276.70 7.43 o
2 -9 1 188.52 178.42 4.27 o
3 -9 1 47.59 47.08 2.78 o
4 -9 1 112.47 114.71 4.34 o
5 -9 1 0.27 -2.38 1.84 <
6 -9 1 5.51 9.44 2.40 o
7 -9 1 32.95 38.55 5.31 o
-5 -8 1 12.21 1.03 5.01 o
-4 -8 1 259.48 266.04 7.06 o
-3 -8 1 144.35 162.15 5.33 o
-2 -8 1 55.56 49.02 3.49 o
-1 -8 1 77.69 74.73 5.00 o
0 -8 1 31.29 34.50 2.09 o
1 -8 1 16.45 14.30 1.53 o
2 -8 1 689.51 694.68 7.66 o
3 -8 1 0.01 1.87 1.53 o
4 -8 1 246.47 252.28 4.70 o
5 -8 1 192.48 197.31 4.54 o
6 -8 1 74.17 75.29 3.67 o
7 -8 1 5.07 6.45 3.10 o
8 -8 1 67.20 58.38 5.07 o
-6 -7 1 14.82 17.69 6.56 o
-5 -7 1 39.58 39.58 5.82 o
-4 -7 1 0.57 -2.47 2.99 <
-3 -7 1 3.32 3.35 1.85 o
-2 -7 1 522.40 478.06 12.01 o
-1 -7 1 5.95 6.29 1.12 o
0 -7 1 7.18 5.80 1.18 o
1 -7 1 83.89 78.68 2.45 o
2 -7 1 658.61 644.24 6.99 o
3 -7 1 217.35 223.30 4.05 o
4 -7 1 220.13 225.05 6.08 o
5 -7 1 63.66 67.67 2.85 o
6 -7 1 259.01 242.93 11.87 o
7 -7 1 72.51 81.02 7.45 o
8 -7 1 284.19 284.55 8.62 o
-6 -6 1 0.48 8.18 4.79 o
-5 -6 1 5.67 6.08 2.12 o
-4 -6 1 696.75 711.94 19.62 o
-3 -6 1 360.03 347.11 9.13 o
-2 -6 1 271.95 269.74 5.43 o
-1 -6 1 21.60 30.57 1.63 o
0 -6 1 332.86 382.56 6.19 o
1 -6 1 568.49 535.07 9.48 o
2 -6 1 45.64 36.61 1.43 o
3 -6 1 49.60 45.48 1.95 o
4 -6 1 531.59 533.82 7.06 o
5 -6 1 9.99 6.86 1.33 o
6 -6 1 95.01 95.69 4.22 o
7 -6 1 6.88 8.59 2.58 o
8 -6 1 34.38 32.29 3.86 o
-7 -5 1 3.03 4.72 5.82 o
-6 -5 1 32.86 31.85 5.09 o
-5 -5 1 8.12 6.86 3.10 o
-4 -5 1 611.17 589.17 12.75 o
-3 -5 1 677.02 622.90 6.36 o
-2 -5 1 66.71 62.33 1.61 o
-1 -5 1 27.88 46.40 1.38 o
0 -5 1 82.12 81.94 2.06 o
1 -5 1 771.99 747.03 5.49 o
2 -5 1 2323.09 2176.69 15.60 o
3 -5 1 568.59 584.04 6.14 o
4 -5 1 23.60 29.31 3.10 o
5 -5 1 631.59 614.03 9.78 o
6 -5 1 48.23 50.57 3.69 o
7 -5 1 242.93 227.85 7.34 o
8 -5 1 0.01 4.87 4.05 o
-7 -4 1 18.04 14.67 5.09 o
-6 -4 1 105.00 109.63 7.23 o
-5 -4 1 189.59 188.22 4.74 o
-4 -4 1 466.43 473.01 7.58 o
-3 -4 1 16.06 17.40 1.02 o
-2 -4 1 65.07 87.90 2.62 o
-1 -4 1 1530.72 1550.83 20.72 o
0 -4 1 744.74 735.33 6.19 o
1 -4 1 210.32 217.13 2.00 o
2 -4 1 1191.86 1239.24 8.48 o
3 -4 1 16.42 20.47 0.83 o
4 -4 1 33.31 43.64 1.92 o
5 -4 1 543.06 576.50 9.36 o
6 -4 1 31.18 33.51 2.71 o
7 -4 1 25.31 27.83 4.31 o
8 -4 1 7.23 5.60 2.97 o
-7 -3 1 51.75 51.31 6.19 o
-6 -3 1 6.42 2.73 3.17 o
-5 -3 1 106.92 92.38 4.13 o
-4 -3 1 2944.46 2821.21 34.72 o
-3 -3 1 22.38 23.64 1.11 o
-2 -3 1 958.29 1044.84 11.56 o
-1 -3 1 174.27 214.39 2.50 o
0 -3 1 51.95 50.78 0.86 o
1 -3 1 889.83 843.16 5.80 o
2 -3 1 8.57 6.76 0.43 o
3 -3 1 3.00 2.47 0.73 o
4 -3 1 104.64 96.73 2.04 o
5 -3 1 45.52 37.79 1.98 o
6 -3 1 164.64 161.92 5.82 o
7 -3 1 8.54 5.86 5.27 o
8 -3 1 15.44 19.39 3.39 o
-8 -2 1 1.39 -8.11 4.94 <
-7 -2 1 508.77 507.30 14.60 o
-6 -2 1 104.84 99.53 6.12 o
-5 -2 1 533.85 494.22 8.13 o
-4 -2 1 57.21 60.67 1.95 o
-3 -2 1 337.24 359.45 3.98 o
-2 -2 1 25.23 33.22 0.74 o
0 -2 1 3543.31 3236.02 44.76 o
1 -2 1 804.86 761.71 5.13 o
2 -2 1 226.32 253.77 2.70 o
3 -2 1 275.66 271.78 3.68 o
4 -2 1 534.99 531.47 7.02 o
5 -2 1 159.03 170.14 3.27 o
6 -2 1 24.78 30.35 2.26 o
7 -2 1 8.62 9.09 1.96 o
8 -2 1 8.41 10.51 3.21 o
-8 -1 1 18.53 12.16 5.38 o
-7 -1 1 5.71 9.10 2.43 o
-6 -1 1 13.62 12.57 2.01 o
-5 -1 1 318.75 322.39 7.61 o
-4 -1 1 179.34 188.82 3.09 o
-3 -1 1 332.71 376.08 7.93 o
-2 -1 1 1003.76 1008.79 8.93 o
-1 -1 1 564.94 585.58 4.15 o
0 -1 1 6.73 6.28 0.21 o
1 -1 1 109.76 142.74 1.41 o
2 -1 1 1575.82 1687.84 18.72 o
3 -1 1 834.78 939.08 8.04 o
4 -1 1 502.69 484.84 6.34 o
5 -1 1 43.34 40.96 1.92 o
6 -1 1 41.35 39.44 2.43 o
7 -1 1 40.70 50.72 3.55 o
8 -1 1 274.77 290.23 8.08 o
-8 0 1 34.85 35.02 3.80 o
-7 0 1 363.67 371.35 9.77 o
-6 0 1 442.61 454.66 8.17 o
-5 0 1 235.53 233.61 4.98 o
-4 0 1 23.17 20.86 1.24 o
-3 0 1 718.63 762.25 8.28 o
-2 0 1 446.29 436.78 4.82 o
1 0 1 15.08 12.61 0.40 o
2 0 1 29.39 35.48 0.80 o
3 0 1 991.51 1104.15 9.51 o
4 0 1 411.18 364.67 4.18 o
5 0 1 34.19 34.43 1.85 o
6 0 1 286.66 270.29 5.99 o
7 0 1 98.92 98.83 4.64 o
8 0 1 203.54 182.54 9.88 o
-8 1 1 111.38 114.45 5.68 o
-7 1 1 294.30 291.67 6.77 o
-6 1 1 75.60 75.42 3.29 o
-5 1 1 3.81 3.76 1.70 o
-4 1 1 225.65 214.39 3.17 o
-3 1 1 2.57 6.72 0.90 o
-2 1 1 1702.05 1632.46 12.03 o
-1 1 1 533.11 558.02 4.36 o
0 1 1 128.96 103.78 1.86 o
1 1 1 3400.70 3279.31 27.43 o
2 1 1 150.84 135.32 1.38 o
3 1 1 486.73 493.49 4.17 o
4 1 1 154.96 140.42 2.09 o
5 1 1 90.57 84.58 1.85 o
6 1 1 29.49 23.96 2.40 o
7 1 1 95.65 97.53 7.08 o
8 1 1 8.00 5.16 5.68 o
-8 2 1 25.46 21.86 3.34 o
-7 2 1 54.53 52.56 5.38 o
-6 2 1 42.81 42.35 2.40 o
-5 2 1 40.96 45.68 1.78 o
-4 2 1 3005.92 3118.79 28.86 o
-3 2 1 38.15 70.79 1.10 o
-2 2 1 4.88 4.22 0.34 o
-1 2 1 2665.94 2815.65 24.88 o
0 2 1 6100.98 5685.43 94.40 o
1 2 1 453.34 563.87 5.14 o
2 2 1 3800.73 3685.37 40.08 o
3 2 1 249.18 257.29 3.55 o
4 2 1 4.25 3.06 1.36 o
5 2 1 101.37 101.81 3.13 o
6 2 1 0.85 2.43 2.95 o
7 2 1 547.86 565.93 15.63 o
8 2 1 8.83 6.27 5.53 o
-8 3 1 189.77 197.13 9.51 o
-7 3 1 29.42 34.43 4.20 o
-6 3 1 89.08 87.09 2.72 o
-5 3 1 128.73 111.25 3.12 o
-4 3 1 347.16 339.85 6.56 o
-3 3 1 77.51 59.66 1.19 o
-2 3 1 26.96 20.22 0.67 o
-1 3 1 1.61 3.52 0.48 o
0 3 1 1394.82 1407.55 12.38 o
1 3 1 0.07 0.03 0.41 o
2 3 1 99.69 93.41 1.42 o
3 3 1 43.62 37.48 1.50 o
4 3 1 193.56 182.99 3.24 o
5 3 1 92.51 91.49 3.06 o
6 3 1 0.04 3.61 3.17 o
7 3 1 0.38 1.40 4.20 o
-8 4 1 20.10 22.49 4.57 o
-7 4 1 2.49 0.44 3.91 o
-6 4 1 72.05 74.44 2.67 o
-5 4 1 124.04 118.60 2.38 o
-4 4 1 1568.77 1614.64 12.99 o
-3 4 1 902.23 968.71 20.92 o
-2 4 1 141.56 119.68 1.57 o
-1 4 1 245.44 213.72 2.72 o
0 4 1 76.16 111.81 2.11 o
1 4 1 1033.20 1010.31 12.61 o
2 4 1 285.87 273.30 5.49 o
3 4 1 241.74 238.74 3.73 o
4 4 1 97.42 102.67 4.64 o
5 4 1 5.15 4.46 1.74 o
6 4 1 366.29 370.94 12.31 o
7 4 1 92.18 106.53 10.69 o
-8 5 1 8.81 13.20 4.57 o
-7 5 1 21.01 28.61 3.83 o
-6 5 1 7.69 7.08 1.90 o
-5 5 1 4.85 4.90 1.33 o
-4 5 1 328.23 286.22 4.96 o
-3 5 1 850.71 894.17 9.93 o
-2 5 1 865.98 935.15 7.95 o
-1 5 1 477.28 425.35 4.23 o
0 5 1 4.31 8.57 0.86 o
1 5 1 601.61 566.89 9.89 o
2 5 1 43.04 46.29 2.04 o
3 5 1 595.75 577.09 10.54 o
4 5 1 176.20 173.57 5.12 o
5 5 1 61.22 64.14 3.60 o
6 5 1 104.49 97.02 7.82 o
-8 6 1 0.08 -2.51 4.64 <
-7 6 1 47.01 47.99 6.93 o
-6 6 1 108.07 116.99 3.44 o
-5 6 1 79.53 74.96 2.32 o
-4 6 1 62.02 64.93 2.44 o
-3 6 1 103.84 95.20 2.39 o
-2 6 1 60.96 59.20 1.90 o
-1 6 1 168.42 177.39 3.25 o
0 6 1 77.96 80.06 2.29 o
1 6 1 395.49 383.21 8.01 o
2 6 1 38.20 42.16 2.63 o
3 6 1 272.44 284.50 4.65 o
4 6 1 186.63 184.24 5.09 o
5 6 1 115.42 131.30 6.27 o
6 6 1 0.09 0.74 7.52 o
-8 7 1 51.83 60.37 9.66 o
-7 7 1 29.94 29.64 3.19 o
-6 7 1 69.74 74.66 3.98 o
-5 7 1 264.92 274.29 4.84 o
-4 7 1 135.48 138.47 3.26 o
-3 7 1 45.61 49.81 2.12 o
-2 7 1 1566.21 1538.47 14.37 o
-1 7 1 1.30 0.79 1.05 o
0 7 1 94.05 84.46 2.60 o
1 7 1 64.16 67.25 2.44 o
2 7 1 3.61 1.82 1.21 o
3 7 1 347.24 358.26 7.36 o
4 7 1 7.56 9.22 2.51 o
5 7 1 37.42 33.55 3.58 o
-8 8 1 4.96 -7.23 5.46 <
-7 8 1 317.43 321.85 6.58 o
-6 8 1 0.02 -0.86 1.98 <
-5 8 1 165.40 171.04 4.11 o
-4 8 1 1.09 0.86 1.32 o
-3 8 1 1.09 0.26 1.47 o
-2 8 1 246.16 247.60 3.86 o
-1 8 1 308.48 308.11 5.18 o
0 8 1 156.57 169.57 4.05 o
1 8 1 79.61 71.63 4.09 o
2 8 1 121.40 111.29 4.24 o
3 8 1 252.52 258.90 6.37 o
4 8 1 94.82 98.94 7.37 o
5 8 1 0.12 0.59 5.82 o
-7 9 1 114.70 98.97 7.78 o
-6 9 1 2.83 5.21 2.58 o
-5 9 1 12.84 14.16 2.10 o
-4 9 1 0.09 1.57 1.67 o
-3 9 1 479.62 457.54 6.86 o
-2 9 1 4.41 5.33 1.39 o
-1 9 1 185.79 193.47 4.48 o
0 9 1 43.78 37.11 2.43 o
1 9 1 191.24 195.22 4.65 o
2 9 1 9.13 7.65 2.09 o
3 9 1 17.74 14.06 2.46 o
4 9 1 31.65 30.82 4.31 o
-7 10 1 133.04 130.52 10.51 o
-6 10 1 24.17 22.23 3.89 o
-5 10 1 38.40 35.61 3.68 o
-4 10 1 9.49 8.87 2.12 o
-3 10 1 155.39 174.43 5.65 o
-2 10 1 53.31 57.83 2.84 o
-1 10 1 0.25 -1.31 1.67 <
0 10 1 6.51 5.23 2.62 o
1 10 1 13.06 13.69 2.49 o
2 10 1 77.86 81.56 4.89 o
3 10 1 117.82 132.00 7.37 o
-6 11 1 131.42 135.13 11.06 o
-5 11 1 114.36 120.94 7.78 o
-4 11 1 47.92 47.80 4.41 o
-3 11 1 34.40 34.04 2.92 o
-2 11 1 91.33 85.33 6.36 o
-1 11 1 20.33 21.62 2.89 o
0 11 1 51.43 45.33 3.39 o
1 11 1 64.95 67.19 8.07 o
2 11 1 4.58 -2.06 4.35 <
-4 12 1 2.56 10.51 4.19 o
-3 12 1 82.48 98.09 14.93 o
-2 12 1 15.23 20.61 6.01 o
-1 12 1 2.95 8.68 3.20 o
0 12 1 2.78 -3.17 6.51 <
-1 -12 2 4.17 -5.20 4.61 <
0 -12 2 27.24 23.59 5.01 o
1 -12 2 19.30 18.25 2.88 o
2 -12 2 0.29 -0.63 2.57 <
3 -12 2 41.20 34.95 6.76 o
4 -12 2 93.95 95.62 6.51 o
5 -12 2 5.48 7.28 3.69 o
-2 -11 2 46.59 55.91 11.24 o
-1 -11 2 20.17 18.87 5.31 o
0 -11 2 68.98 73.52 5.88 o
1 -11 2 75.77 74.11 3.67 o
2 -11 2 480.66 493.49 8.95 o
3 -11 2 1.74 2.29 2.34 o
4 -11 2 0.63 -0.49 2.44 <
5 -11 2 74.40 84.90 6.62 o
6 -11 2 139.71 136.79 7.28 o
-3 -10 2 62.04 58.57 7.26 o
-2 -10 2 139.83 153.49 6.32 o
-1 -10 2 0.15 1.18 2.68 o
0 -10 2 56.99 47.55 2.96 o
1 -10 2 244.85 256.37 5.54 o
2 -10 2 0.00 4.78 1.71 o
3 -10 2 78.95 89.55 3.78 o
4 -10 2 1.86 5.09 2.69 o
5 -10 2 12.53 15.39 2.63 o
6 -10 2 15.70 21.12 3.68 o
7 -10 2 41.69 44.85 7.41 o
-4 -9 2 70.28 71.43 9.73 o
-3 -9 2 119.15 117.10 5.27 o
-2 -9 2 90.19 78.84 6.16 o
-1 -9 2 49.37 51.99 2.93 o
0 -9 2 65.94 72.78 3.04 o
1 -9 2 1.90 3.12 1.36 o
2 -9 2 234.45 245.70 4.34 o
3 -9 2 179.25 178.93 5.46 o
4 -9 2 38.56 42.73 3.78 o
5 -9 2 4.94 3.04 2.44 o
6 -9 2 17.36 17.73 7.11 o
7 -9 2 231.95 226.15 8.85 o
-5 -8 2 31.63 23.81 5.97 o
-4 -8 2 89.89 88.80 4.93 o
-3 -8 2 130.06 131.45 4.89 o
-2 -8 2 0.00 1.44 3.06 o
-1 -8 2 90.27 83.82 2.67 o
0 -8 2 247.20 248.96 4.40 o
1 -8 2 7.93 8.09 1.22 o
2 -8 2 171.06 156.65 4.08 o
3 -8 2 54.48 59.42 3.15 o
4 -8 2 12.34 14.94 1.70 o
5 -8 2 22.21 23.05 2.66 o
6 -8 2 157.11 142.14 5.23 o
7 -8 2 12.82 15.70 3.34 o
8 -8 2 5.67 1.03 3.78 o
-6 -7 2 0.12 0.00 5.46 <
-5 -7 2 47.96 42.16 5.38 o
-4 -7 2 52.30 51.67 3.51 o
-3 -7 2 78.80 65.46 7.89 o
-2 -7 2 31.04 33.32 2.86 o
-1 -7 2 13.21 17.67 1.39 o
0 -7 2 29.11 28.41 1.64 o
1 -7 2 146.01 142.05 2.37 o
2 -7 2 45.02 40.62 3.11 o
3 -7 2 3.08 3.44 1.47 o
4 -7 2 334.48 327.70 5.32 o
5 -7 2 807.37 811.18 10.42 o
6 -7 2 408.68 396.02 8.84 o
7 -7 2 16.09 15.45 3.05 o
8 -7 2 62.43 70.51 5.79 o
-6 -6 2 2.88 2.14 4.50 o
-5 -6 2 53.46 43.93 5.01 o
-4 -6 2 17.14 19.91 2.16 o
-3 -6 2 0.01 -1.11 2.51 <
-2 -6 2 91.32 84.19 4.06 o
-1 -6 2 1.93 2.75 0.80 o
0 -6 2 17.15 23.63 1.60 o
1 -6 2 424.83 405.92 4.17 o
2 -6 2 0.00 1.13 0.81 o
3 -6 2 53.95 37.23 1.86 o
4 -6 2 754.85 761.64 9.35 o
5 -6 2 357.13 344.19 6.86 o
6 -6 2 325.94 325.30 7.28 o
7 -6 2 39.91 37.60 3.41 o
8 -6 2 17.81 19.94 7.04 o
-7 -5 2 3.83 -2.36 5.09 <
-6 -5 2 117.09 125.54 8.26 o
-5 -5 2 3.74 0.88 2.88 o
-4 -5 2 66.97 66.83 2.90 o
-3 -5 2 63.75 63.91 2.17 o
-2 -5 2 106.96 108.13 2.46 o
-1 -5 2 329.44 316.13 3.65 o
0 -5 2 324.03 318.76 3.44 o
1 -5 2 136.90 141.71 1.67 o
2 -5 2 310.96 354.25 3.39 o
3 -5 2 3.25 3.54 1.02 o
4 -5 2 226.03 195.71 8.15 o
5 -5 2 959.15 969.04 14.25 o
6 -5 2 102.70 100.34 7.67 o
7 -5 2 34.60 33.99 4.13 o
8 -5 2 7.97 6.16 3.26 o
-7 -4 2 13.26 19.61 5.01 o
-6 -4 2 101.55 103.21 6.93 o
-5 -4 2 0.04 0.00 1.45 <
-4 -4 2 2.74 0.66 1.11 o
-3 -4 2 242.62 231.54 3.44 o
-2 -4 2 4017.09 3822.30 70.38 o
-1 -4 2 3844.86 3870.62 46.18 o
0 -4 2 180.65 126.95 1.47 o
1 -4 2 372.79 408.89 4.22 o
2 -4 2 145.24 164.82 2.04 o
3 -4 2 1539.81 1555.52 12.82 o
4 -4 2 33.23 33.91 2.00 o
5 -4 2 197.62 209.57 5.01 o
6 -4 2 4.20 8.22 1.95 o
7 -4 2 8.82 6.52 2.84 o
8 -4 2 68.07 66.75 4.72 o
-7 -3 2 141.41 148.26 8.85 o
-6 -3 2 57.45 56.69 5.53 o
-5 -3 2 139.88 131.96 3.75 o
-4 -3 2 204.21 188.67 3.93 o
-3 -3 2 179.10 154.98 2.46 o
-2 -3 2 3.41 9.45 0.69 o
-1 -3 2 431.50 474.02 4.66 o
0 -3 2 893.62 1049.24 9.70 o
1 -3 2 1148.60 1233.86 8.22 o
2 -3 2 15.52 21.95 0.69 o
3 -3 2 1093.83 1170.84 9.68 o
4 -3 2 757.42 743.99 18.05 o
5 -3 2 414.25 403.86 5.81 o
6 -3 2 102.08 104.50 4.46 o
7 -3 2 79.42 75.56 4.46 o
8 -3 2 304.06 312.31 6.87 o
-8 -2 2 50.36 64.58 7.52 o
-7 -2 2 58.00 55.29 5.82 o
-6 -2 2 73.24 77.63 5.68 o
-5 -2 2 242.81 246.57 4.01 o
-4 -2 2 670.21 633.53 10.06 o
-3 -2 2 2226.35 2221.48 19.20 o
-2 -2 2 0.05 1.12 0.41 o
-1 -2 2 4210.44 4176.42 40.25 o
0 -2 2 988.79 977.15 22.03 o
1 -2 2 80.92 108.28 1.19 o
2 -2 2 44.72 51.90 1.02 o
3 -2 2 784.08 868.49 7.42 o
4 -2 2 394.97 391.47 6.35 o
5 -2 2 202.27 199.53 3.73 o
6 -2 2 307.37 300.62 5.62 o
7 -2 2 130.10 132.77 4.20 o
8 -2 2 28.64 29.45 3.70 o
-8 -1 2 341.26 380.74 18.88 o
-7 -1 2 56.69 58.90 5.53 o
-6 -1 2 71.79 65.46 8.33 o
-5 -1 2 21.88 19.02 1.47 o
-4 -1 2 0.05 0.94 0.72 o
-3 -1 2 375.04 345.76 3.75 o
-2 -1 2 28.63 48.70 1.01 o
-1 -1 2 63.71 82.06 1.42 o
0 -1 2 43.62 57.21 0.80 o
1 -1 2 373.43 386.90 3.73 o
2 -1 2 3709.58 3739.80 39.75 o
3 -1 2 2723.69 2810.23 28.00 o
4 -1 2 73.28 79.47 4.07 o
5 -1 2 6.95 5.88 1.15 o
6 -1 2 86.93 75.34 4.05 o
7 -1 2 221.90 199.90 4.05 o
8 -1 2 197.16 200.93 7.12 o
-8 0 2 3.81 2.03 3.05 o
-7 0 2 47.56 44.15 3.27 o
-6 0 2 25.94 21.90 2.20 o
-5 0 2 342.04 341.28 6.22 o
-4 0 2 107.53 103.86 2.32 o
-3 0 2 60.37 72.84 1.59 o
-2 0 2 1499.82 1656.57 22.89 o
-1 0 2 1310.30 1367.38 23.16 o
1 0 2 4275.25 4130.11 68.95 o
2 0 2 4560.52 4525.71 45.15 o
3 0 2 805.18 870.43 7.46 o
4 0 2 329.16 343.45 5.33 o
5 0 2 394.31 365.20 4.65 o
6 0 2 325.72 339.76 4.55 o
7 0 2 2.06 2.43 2.37 o
8 0 2 87.43 74.38 8.11 o
-8 1 2 0.04 -2.36 3.24 <
-7 1 2 3.13 6.93 3.31 o
-6 1 2 36.19 35.39 3.83 o
-5 1 2 99.49 106.90 4.50 o
-4 1 2 537.34 539.61 6.53 o
-3 1 2 879.78 870.90 7.02 o
-2 1 2 163.37 170.90 1.73 o
-1 1 2 30.84 47.75 0.95 o
0 1 2 27.38 37.51 0.57 o
1 1 2 987.44 1130.08 12.81 o
2 1 2 791.09 772.61 6.48 o
3 1 2 836.95 851.18 7.33 o
4 1 2 113.27 104.49 3.37 o
5 1 2 52.61 63.23 2.35 o
6 1 2 325.05 319.73 6.06 o
7 1 2 4.86 5.53 3.76 o
8 1 2 1.15 -1.92 5.68 <
-8 2 2 1.31 -2.17 2.69 <
-7 2 2 42.30 33.77 3.98 o
-6 2 2 294.58 290.13 8.55 o
-5 2 2 556.51 529.18 7.74 o
-4 2 2 729.23 739.84 7.32 o
-3 2 2 1.13 0.44 0.39 o
-2 2 2 459.08 483.86 4.15 o
0 2 2 309.24 284.33 3.16 o
1 2 2 77.09 80.13 1.23 o
2 2 2 1035.18 1126.57 8.40 o
3 2 2 25.91 37.62 1.54 o
4 2 2 155.93 149.48 3.48 o
5 2 2 113.31 114.60 3.38 o
6 2 2 7.20 5.23 3.02 o
7 2 2 181.57 159.02 8.63 o
-8 3 2 50.48 45.04 5.38 o
-7 3 2 13.65 17.40 3.39 o
-6 3 2 311.33 317.08 5.90 o
-5 3 2 636.79 610.69 7.03 o
-4 3 2 78.68 91.18 1.59 o
-3 3 2 2096.96 2194.94 15.96 o
-2 3 2 1.97 0.88 0.46 o
-1 3 2 247.67 210.96 2.82 o
0 3 2 2258.54 2155.67 17.87 o
1 3 2 45.24 47.83 1.08 o
2 3 2 274.96 287.31 3.53 o
3 3 2 733.20 731.06 8.40 o
4 3 2 0.44 0.07 1.25 o
5 3 2 1029.20 987.11 15.59 o
6 3 2 54.97 55.80 5.38 o
7 3 2 32.51 33.69 5.53 o
-8 4 2 27.70 20.42 4.64 o
-7 4 2 457.02 470.87 13.05 o
-6 4 2 335.97 325.20 6.77 o
-5 4 2 132.31 134.97 2.75 o
-4 4 2 80.65 67.20 1.47 o
-3 4 2 13.53 19.55 0.83 o
-2 4 2 765.23 761.84 6.50 o
-1 4 2 103.31 114.72 1.94 o
0 4 2 32.37 40.12 1.34 o
1 4 2 482.92 514.40 4.85 o
2 4 2 158.66 132.91 3.98 o
3 4 2 692.29 662.08 7.97 o
4 4 2 24.90 31.00 2.40 o
5 4 2 93.71 96.02 3.84 o
6 4 2 0.79 -0.29 3.69 <
7 4 2 2.69 -4.94 8.63 <
-8 5 2 43.53 38.99 5.46 o
-7 5 2 312.44 294.33 10.10 o
-6 5 2 213.15 214.30 4.18 o
-5 5 2 44.71 45.48 2.99 o
-4 5 2 1.19 1.75 0.78 o
-3 5 2 615.52 630.03 7.46 o
-2 5 2 133.08 128.48 2.40 o
-1 5 2 3170.85 3018.87 30.24 o
0 5 2 295.73 298.64 4.26 o
1 5 2 991.95 979.34 14.49 o
2 5 2 11.30 10.91 2.06 o
3 5 2 261.23 261.99 4.93 o
4 5 2 360.69 356.31 16.55 o
5 5 2 12.62 12.86 2.84 o
6 5 2 101.15 109.85 8.55 o
-8 6 2 52.03 38.55 6.05 o
-7 6 2 15.05 17.77 4.35 o
-6 6 2 25.46 24.33 2.81 o
-5 6 2 51.01 48.06 2.01 o
-4 6 2 88.30 89.79 2.47 o
-3 6 2 411.86 401.08 5.41 o
-2 6 2 5.40 7.84 0.97 o
-1 6 2 624.53 576.30 9.05 o
0 6 2 371.11 371.82 4.52 o
1 6 2 51.94 57.02 2.71 o
2 6 2 1191.44 1192.89 16.62 o
3 6 2 45.71 40.36 3.00 o
4 6 2 14.65 15.70 2.37 o
5 6 2 127.35 122.96 9.51 o
-8 7 2 176.74 168.46 11.35 o
-7 7 2 61.94 69.48 4.77 o
-6 7 2 31.42 30.38 4.79 o
-5 7 2 2.95 3.17 1.35 o
-4 7 2 5.08 4.17 1.66 o
-3 7 2 12.50 15.24 1.45 o
-2 7 2 731.71 691.34 9.39 o
-1 7 2 162.49 170.82 3.62 o
0 7 2 1.47 3.02 1.35 o
1 7 2 6.00 3.19 1.46 o
2 7 2 22.35 21.56 2.37 o
3 7 2 0.03 -1.03 2.01 <
4 7 2 17.26 19.28 2.79 o
5 7 2 30.73 28.53 3.59 o
-8 8 2 0.09 2.88 5.82 o
-7 8 2 195.79 202.74 7.06 o
-6 8 2 0.17 0.61 1.84 o
-5 8 2 3.39 3.00 1.95 o
-4 8 2 683.10 680.16 8.81 o
-3 8 2 0.98 2.38 1.65 o
-2 8 2 61.42 59.27 5.05 o
-1 8 2 128.62 123.76 6.74 o
0 8 2 13.92 12.13 1.83 o
1 8 2 112.73 109.30 3.38 o
2 8 2 62.61 58.97 5.03 o
3 8 2 0.61 3.28 3.87 o
4 8 2 25.52 27.54 3.58 o
5 8 2 1.42 0.37 6.05 o
-7 9 2 8.29 9.40 3.70 o
-6 9 2 267.61 278.65 7.90 o
-5 9 2 7.99 8.04 2.47 o
-4 9 2 230.74 232.14 5.00 o
-3 9 2 66.68 59.07 2.91 o
-2 9 2 26.75 25.03 3.12 o
-1 9 2 2.87 3.47 1.71 o
0 9 2 137.57 135.70 4.02 o
1 9 2 21.99 28.14 2.43 o
2 9 2 160.79 176.47 4.93 o
3 9 2 12.60 16.68 2.73 o
4 9 2 7.70 3.83 3.97 o
-6 10 2 11.50 21.27 4.18 o
-5 10 2 0.09 3.87 3.00 o
-4 10 2 0.01 0.24 1.93 o
-3 10 2 0.20 -0.61 2.42 <
-2 10 2 48.04 44.36 2.71 o
-1 10 2 40.52 40.67 2.42 o
0 10 2 132.34 134.98 4.53 o
1 10 2 5.10 5.92 3.16 o
2 10 2 44.25 39.10 3.69 o
3 10 2 98.56 103.95 6.73 o
-6 11 2 68.25 76.26 7.48 o
-5 11 2 143.41 133.25 7.25 o
-4 11 2 60.11 54.00 4.51 o
-3 11 2 0.26 2.58 3.16 o
-2 11 2 78.04 77.11 5.79 o
-1 11 2 89.25 88.76 4.98 o
0 11 2 0.10 0.46 2.76 o
1 11 2 57.35 57.23 4.77 o
2 11 2 10.68 10.91 4.56 o
-4 12 2 63.02 61.41 8.26 o
-3 12 2 133.44 133.14 7.51 o
-2 12 2 15.84 7.23 4.09 o
-1 12 2 135.74 137.82 7.37 o
0 12 2 0.38 -5.90 3.50 <
-1 -12 3 0.40 2.43 4.64 o
0 -12 3 52.52 52.93 4.65 o
1 -12 3 63.21 50.11 3.55 o
2 -12 3 81.27 89.56 8.31 o
3 -12 3 23.09 25.68 3.41 o
4 -12 3 22.89 25.60 3.61 o
5 -12 3 0.93 -0.59 3.77 <
-2 -11 3 26.85 17.73 5.06 o
-1 -11 3 2.63 0.29 3.44 o
0 -11 3 22.26 28.68 2.76 o
1 -11 3 0.09 -1.51 1.95 <
2 -11 3 2.99 4.02 2.10 o
3 -11 3 50.63 50.22 4.54 o
4 -11 3 10.31 9.88 3.75 o
5 -11 3 277.82 276.20 8.02 o
6 -11 3 127.13 138.01 7.44 o
-3 -10 3 16.69 14.82 5.09 o
-2 -10 3 17.71 20.57 3.51 o
-1 -10 3 151.79 169.93 6.28 o
0 -10 3 41.69 40.67 4.87 o
1 -10 3 282.77 291.14 4.90 o
2 -10 3 345.33 371.93 5.66 o
3 -10 3 60.41 55.95 4.58 o
4 -10 3 0.39 2.19 2.07 o
5 -10 3 32.01 34.97 3.97 o
6 -10 3 50.50 45.89 6.23 o
-4 -9 3 24.10 25.62 3.86 o
-3 -9 3 0.69 1.18 3.39 o
-2 -9 3 171.06 168.42 5.39 o
-1 -9 3 98.64 111.81 3.33 o
0 -9 3 153.97 159.22 3.86 o
1 -9 3 729.42 736.75 8.30 o
2 -9 3 435.40 414.78 5.64 o
3 -9 3 55.51 54.03 3.08 o
4 -9 3 675.92 687.84 9.54 o
5 -9 3 161.45 168.13 5.70 o
6 -9 3 131.63 122.68 14.97 o
7 -9 3 130.80 138.08 17.99 o
-5 -8 3 36.85 33.10 6.27 o
-4 -8 3 0.07 -0.55 3.72 <
-3 -8 3 134.30 139.26 5.00 o
-2 -8 3 21.56 20.27 3.54 o
-1 -8 3 5.09 6.73 2.02 o
0 -8 3 339.42 337.36 5.51 o
1 -8 3 63.85 62.92 2.25 o
2 -8 3 7.09 10.25 1.33 o
3 -8 3 68.49 71.95 2.93 o
4 -8 3 276.12 261.96 5.00 o
5 -8 3 157.83 171.12 5.43 o
6 -8 3 9.18 12.90 2.85 o
7 -8 3 9.21 6.41 4.20 o
-6 -7 3 31.71 33.55 6.93 o
-5 -7 3 101.79 104.76 8.33 o
-4 -7 3 41.38 35.54 2.83 o
-3 -7 3 147.37 129.71 4.27 o
-2 -7 3 851.72 803.73 12.30 o
-1 -7 3 97.77 108.47 2.60 o
0 -7 3 250.60 248.03 4.05 o
1 -7 3 106.79 101.59 2.07 o
2 -7 3 0.28 0.63 0.85 o
3 -7 3 317.83 304.42 6.30 o
4 -7 3 61.72 60.47 2.73 o
5 -7 3 39.73 36.68 2.87 o
6 -7 3 7.27 8.07 2.50 o
7 -7 3 45.61 48.17 4.04 o
8 -7 3 27.09 28.20 4.19 o
-6 -6 3 0.54 -4.05 4.42 <
-5 -6 3 0.09 0.15 3.54 o
-4 -6 3 193.58 166.84 6.19 o
-3 -6 3 212.56 224.37 5.16 o
-2 -6 3 1155.40 1165.68 30.33 o
-1 -6 3 232.45 207.81 4.48 o
0 -6 3 37.44 43.44 2.81 o
1 -6 3 105.68 99.26 1.80 o
2 -6 3 592.79 633.52 9.47 o
3 -6 3 168.64 163.77 3.57 o
4 -6 3 837.63 844.44 12.62 o
5 -6 3 503.72 481.52 11.64 o
6 -6 3 127.61 120.86 5.35 o
7 -6 3 79.99 82.27 5.08 o
8 -6 3 11.35 12.39 5.16 o
-7 -5 3 39.94 40.62 7.08 o
-6 -5 3 37.38 38.11 5.31 o
-5 -5 3 159.91 158.06 7.67 o
-4 -5 3 41.95 39.96 3.17 o
-3 -5 3 174.69 159.27 3.08 o
-2 -5 3 1.71 1.18 0.94 o
-1 -5 3 25.76 28.38 1.51 o
0 -5 3 7.81 7.28 0.60 o
1 -5 3 2434.55 2440.91 16.34 o
2 -5 3 692.48 645.87 5.89 o
3 -5 3 6.97 11.67 1.21 o
4 -5 3 515.78 495.46 8.29 o
5 -5 3 348.13 363.29 7.62 o
6 -5 3 1.90 2.58 2.06 o
7 -5 3 180.14 182.35 6.81 o
8 -5 3 84.26 82.09 8.52 o
-7 -4 3 55.76 45.85 6.71 o
-6 -4 3 39.23 33.62 4.42 o
-5 -4 3 85.29 74.31 5.46 o
-4 -4 3 35.32 34.43 3.61 o
-3 -4 3 374.61 362.98 15.74 o
-2 -4 3 1149.17 1077.39 11.44 o
-1 -4 3 701.87 825.18 7.81 o
0 -4 3 18.38 15.57 0.69 o
1 -4 3 403.11 425.59 3.61 o
2 -4 3 1433.77 1586.67 10.74 o
3 -4 3 2111.18 2070.08 25.70 o
4 -4 3 38.13 36.79 2.88 o
5 -4 3 559.02 513.56 10.10 o
6 -4 3 7.60 8.26 5.01 o
7 -4 3 244.02 231.06 6.70 o
8 -4 3 7.18 5.88 2.82 o
-7 -3 3 7.13 0.00 3.98 <
-6 -3 3 2.04 9.14 3.39 o
-5 -3 3 839.09 756.25 11.06 o
-4 -3 3 907.49 877.30 18.30 o
-3 -3 3 34.12 30.49 1.61 o
-2 -3 3 617.73 705.15 10.10 o
-1 -3 3 667.39 720.10 7.98 o
0 -3 3 206.68 234.04 2.09 o
1 -3 3 7336.86 7262.41 78.20 o
2 -3 3 782.35 923.21 10.19 o
3 -3 3 626.49 634.66 6.52 o
4 -3 3 0.68 3.07 1.00 o
5 -3 3 46.35 43.79 2.87 o
6 -3 3 109.03 114.09 5.12 o
7 -3 3 87.85 95.89 4.18 o
8 -3 3 19.31 19.02 2.93 o
-8 -2 3 193.90 231.20 11.65 o
-7 -2 3 2.55 9.73 4.05 o
-6 -2 3 278.03 281.09 8.89 o
-5 -2 3 586.57 561.03 8.30 o
-4 -2 3 14.48 17.14 1.47 o
-3 -2 3 325.88 340.19 4.09 o
-2 -2 3 0.72 0.81 0.59 o
-1 -2 3 546.77 579.76 6.22 o
0 -2 3 447.39 461.61 3.81 o
1 -2 3 4186.46 4177.09 31.32 o
2 -2 3 95.22 116.69 2.71 o
3 -2 3 14.57 10.97 0.78 o
4 -2 3 8.90 13.99 2.17 o
5 -2 3 854.01 855.43 15.93 o
6 -2 3 492.39 486.40 7.27 o
7 -2 3 250.90 255.24 5.60 o
8 -2 3 0.14 1.70 2.62 o
-8 -1 3 0.21 -2.17 7.19 <
-7 -1 3 8.55 9.62 2.37 o
-6 -1 3 0.84 0.33 1.67 o
-5 -1 3 2105.22 2094.49 21.60 o
-4 -1 3 33.12 31.85 1.42 o
-3 -1 3 1074.20 1168.87 10.55 o
-2 -1 3 58.88 49.69 1.37 o
-1 -1 3 60.34 77.27 2.21 o
0 -1 3 2360.29 2364.01 28.29 o
1 -1 3 739.85 819.41 7.48 o
2 -1 3 46.46 66.13 1.59 o
3 -1 3 213.50 174.07 2.99 o
4 -1 3 104.36 109.21 2.59 o
5 -1 3 221.60 205.75 3.79 o
6 -1 3 0.02 2.62 1.30 o
7 -1 3 8.17 10.40 2.17 o
8 -1 3 34.86 39.66 5.75 o
-8 0 3 70.23 73.87 5.51 o
-7 0 3 116.23 108.00 4.63 o
-6 0 3 3.68 5.90 1.70 o
-5 0 3 1749.97 1716.80 24.32 o
-4 0 3 60.69 60.16 2.42 o
-3 0 3 98.11 109.26 2.67 o
-2 0 3 16.67 40.69 1.10 o
0 0 3 906.61 949.63 9.43 o
1 0 3 3070.12 2819.76 81.61 o
2 0 3 20.82 19.63 0.81 o
3 0 3 11.52 9.50 0.77 o
4 0 3 439.02 443.62 6.00 o
5 0 3 113.71 84.83 2.96 o
6 0 3 585.26 550.41 7.35 o
7 0 3 26.76 30.82 2.73 o
8 0 3 105.21 122.96 9.14 o
-8 1 3 3.36 3.87 2.87 o
-7 1 3 56.35 53.41 3.79 o
-6 1 3 164.50 173.11 6.34 o
-5 1 3 156.00 138.68 5.01 o
-4 1 3 0.07 0.52 0.82 o
-3 1 3 0.09 0.28 0.40 o
-2 1 3 1128.70 1164.37 10.14 o
0 1 3 770.48 834.93 6.54 o
1 1 3 56.18 81.49 1.31 o
2 1 3 54.81 45.06 1.33 o
3 1 3 0.62 -0.29 1.27 <
4 1 3 420.63 396.56 6.32 o
5 1 3 3.31 4.28 1.39 o
6 1 3 23.24 16.85 2.15 o
7 1 3 114.39 119.57 7.59 o
8 1 3 6.96 16.96 7.15 o
-8 2 3 64.82 74.94 5.19 o
-7 2 3 1.06 -1.70 2.80 <
-6 2 3 289.37 302.44 8.70 o
-5 2 3 841.07 846.13 9.17 o
-4 2 3 23.94 20.25 1.23 o
-3 2 3 24.02 25.35 0.90 o
-2 2 3 2341.81 2706.63 26.59 o
-1 2 3 6491.23 6881.69 114.50 o
0 2 3 1925.41 2004.35 13.97 o
1 2 3 203.41 307.37 3.15 o
2 2 3 1555.68 1645.25 11.96 o
3 2 3 5.26 3.33 0.74 o
4 2 3 144.51 140.35 3.07 o
5 2 3 103.57 94.92 3.38 o
6 2 3 38.72 36.68 2.78 o
7 2 3 68.14 57.94 6.12 o
-8 3 3 231.92 237.91 9.81 o
-7 3 3 77.15 82.35 5.82 o
-6 3 3 235.16 235.71 13.27 o
-5 3 3 21.68 20.33 1.22 o
-4 3 3 1535.17 1569.11 14.03 o
-3 3 3 614.75 625.67 5.50 o
-2 3 3 2892.30 2750.89 23.65 o
-1 3 3 16.94 19.15 0.88 o
0 3 3 727.81 763.64 6.72 o
1 3 3 390.98 429.19 4.09 o
2 3 3 24.63 18.21 1.11 o
3 3 3 103.05 106.31 3.91 o
4 3 3 14.83 15.74 1.70 o
5 3 3 17.03 14.82 2.02 o
6 3 3 6.06 10.80 2.31 o
7 3 3 0.15 -6.64 4.50 <
-8 4 3 85.43 89.65 7.59 o
-7 4 3 0.30 -2.43 3.10 <
-6 4 3 10.03 6.05 1.93 o
-5 4 3 920.70 949.41 9.29 o
-4 4 3 13.19 14.83 1.04 o
-3 4 3 51.60 44.18 1.78 o
-2 4 3 1053.79 1125.71 10.54 o
-1 4 3 3532.89 3667.85 27.76 o
0 4 3 90.73 76.36 1.62 o
1 4 3 1100.82 1054.64 14.02 o
2 4 3 125.70 140.04 3.47 o
3 4 3 440.20 417.74 28.90 o
4 4 3 8.09 8.63 1.67 o
5 4 3 17.31 16.04 2.20 o
6 4 3 192.65 204.07 9.36 o
7 4 3 104.33 92.60 9.29 o
-8 5 3 26.58 37.00 5.90 o
-7 5 3 9.08 9.51 3.39 o
-6 5 3 69.88 60.08 3.46 o
-5 5 3 670.51 679.70 8.34 o
-4 5 3 82.87 82.75 1.97 o
-3 5 3 471.86 447.27 7.35 o
-2 5 3 196.58 179.79 8.44 o
-1 5 3 242.13 259.82 10.70 o
0 5 3 28.78 32.03 1.88 o
1 5 3 0.70 3.66 1.03 o
2 5 3 580.61 636.67 9.86 o
3 5 3 0.17 0.22 1.70 o
4 5 3 97.37 93.63 3.92 o
5 5 3 23.01 19.65 6.23 o
6 5 3 0.42 -4.64 4.42 <
-8 6 3 164.63 160.05 9.81 o
-7 6 3 172.05 168.50 5.68 o
-6 6 3 18.88 20.97 2.54 o
-5 6 3 252.88 272.72 3.81 o
-4 6 3 56.04 52.74 5.35 o
-3 6 3 223.67 218.87 6.97 o
-2 6 3 1.44 4.53 1.23 o
-1 6 3 1.36 1.92 0.81 o
0 6 3 479.05 494.97 6.56 o
1 6 3 95.86 94.18 3.39 o
2 6 3 39.52 39.00 4.79 o
3 6 3 14.58 20.72 2.35 o
4 6 3 16.19 18.98 2.58 o
5 6 3 254.86 264.45 6.98 o
6 6 3 23.97 36.64 7.00 o
-8 7 3 67.83 59.71 6.93 o
-7 7 3 80.81 84.00 5.19 o
-6 7 3 2.00 5.93 2.17 o
-5 7 3 230.40 236.20 4.48 o
-4 7 3 190.02 181.52 4.87 o
-3 7 3 110.83 94.26 3.65 o
-2 7 3 0.22 1.87 1.21 o
-1 7 3 712.13 703.37 7.56 o
0 7 3 181.59 177.46 3.24 o
1 7 3 200.20 191.61 5.09 o
2 7 3 419.40 409.42 8.03 o
3 7 3 84.64 75.08 5.28 o
4 7 3 140.20 136.31 5.32 o
5 7 3 27.61 25.51 6.12 o
-7 8 3 14.64 10.69 3.36 o
-6 8 3 35.28 35.43 7.70 o
-5 8 3 0.23 -2.43 4.79 <
-4 8 3 15.74 13.90 2.40 o
-3 8 3 21.09 18.39 2.34 o
-2 8 3 200.70 218.45 3.44 o
-1 8 3 266.60 237.19 4.73 o
0 8 3 0.38 -1.45 1.43 <
1 8 3 217.69 230.59 4.86 o
2 8 3 350.49 375.22 11.50 o
3 8 3 53.09 47.91 3.68 o
4 8 3 117.35 127.50 6.32 o
-7 9 3 127.32 129.75 7.17 o
-6 9 3 331.78 348.22 8.81 o
-5 9 3 10.97 7.70 2.61 o
-4 9 3 15.78 7.45 2.53 o
-3 9 3 24.42 26.32 2.87 o
-2 9 3 274.58 264.88 4.98 o
-1 9 3 1.06 3.81 1.64 o
0 9 3 120.90 122.38 5.13 o
1 9 3 85.13 85.86 3.96 o
2 9 3 22.02 15.83 2.68 o
3 9 3 11.71 15.43 4.00 o
-6 10 3 9.54 0.74 4.00 o
-5 10 3 27.32 22.27 3.69 o
-4 10 3 143.16 135.87 5.94 o
-3 10 3 102.42 107.86 12.09 o
-2 10 3 360.02 387.97 6.63 o
-1 10 3 84.94 91.66 4.33 o
0 10 3 100.68 106.13 4.66 o
1 10 3 69.52 74.46 4.45 o
2 10 3 18.56 15.61 4.98 o
-5 11 3 29.05 20.31 4.99 o
-4 11 3 104.42 112.10 6.67 o
-3 11 3 14.68 15.15 3.55 o
-2 11 3 5.01 10.32 3.29 o
-1 11 3 8.79 12.57 3.40 o
0 11 3 41.03 40.93 3.69 o
1 11 3 3.84 12.09 3.38 o
-4 12 3 36.88 38.04 5.09 o
-3 12 3 70.90 83.16 7.08 o
-2 12 3 0.34 -3.76 4.94 <
-1 12 3 72.23 71.07 4.63 o
-1 -12 4 31.92 36.42 7.81 o
0 -12 4 66.18 64.30 4.39 o
1 -12 4 2.65 5.64 3.01 o
2 -12 4 122.56 129.70 4.90 o
3 -12 4 2.60 8.59 3.65 o
4 -12 4 4.73 9.16 5.00 o
-2 -11 4 14.33 20.05 5.75 o
-1 -11 4 6.37 9.81 5.60 o
0 -11 4 157.01 166.91 4.79 o
1 -11 4 29.73 27.15 5.51 o
2 -11 4 13.97 12.18 2.23 o
3 -11 4 136.97 143.22 5.07 o
4 -11 4 1.55 5.77 2.73 o
5 -11 4 85.78 101.11 6.70 o
6 -11 4 42.30 48.21 5.04 o
-3 -10 4 35.85 37.78 4.34 o
-2 -10 4 18.04 15.85 3.37 o
-1 -10 4 148.89 151.13 6.10 o
0 -10 4 88.43 81.46 3.56 o
1 -10 4 0.83 5.29 2.20 o
2 -10 4 68.98 66.96 4.88 o
3 -10 4 189.01 199.99 5.05 o
4 -10 4 3.11 7.54 2.38 o
5 -10 4 5.41 9.36 3.16 o
6 -10 4 13.75 15.89 3.94 o
-4 -9 4 4.86 10.98 6.05 o
-3 -9 4 58.54 64.80 8.55 o
-2 -9 4 1.53 4.17 2.18 o
-1 -9 4 65.75 73.54 4.12 o
0 -9 4 25.08 28.07 2.05 o
1 -9 4 264.83 260.37 6.35 o
2 -9 4 1.33 1.46 2.34 o
3 -9 4 29.02 39.17 6.31 o
4 -9 4 159.30 152.24 5.11 o
5 -9 4 6.48 8.81 2.76 o
6 -9 4 10.66 11.17 3.24 o
7 -9 4 1.30 -0.48 3.65 <
-5 -8 4 3.67 -6.12 5.38 <
-4 -8 4 0.66 0.37 3.69 o
-3 -8 4 584.90 565.03 10.51 o
-2 -8 4 83.25 84.63 3.97 o
-1 -8 4 371.85 323.28 9.39 o
0 -8 4 0.72 1.82 2.29 o
1 -8 4 379.52 376.86 5.01 o
2 -8 4 218.43 221.64 3.88 o
3 -8 4 53.13 60.08 3.38 o
4 -8 4 18.04 20.97 2.45 o
5 -8 4 2.46 3.94 2.27 o
6 -8 4 79.16 66.27 8.48 o
7 -8 4 40.20 46.29 4.87 o
-6 -7 4 0.47 10.40 5.82 o
-5 -7 4 60.23 74.68 7.89 o
-4 -7 4 18.13 16.37 3.98 o
-3 -7 4 154.34 152.02 4.59 o
-2 -7 4 154.47 132.04 4.12 o
-1 -7 4 9.82 10.17 1.75 o
0 -7 4 140.28 132.85 2.91 o
1 -7 4 236.58 238.02 3.97 o
2 -7 4 53.97 52.14 1.97 o
3 -7 4 486.67 457.27 6.66 o
4 -7 4 24.12 21.97 2.40 o
5 -7 4 9.54 9.07 3.24 o
6 -7 4 349.47 349.96 8.08 o
7 -7 4 9.92 -0.33 3.10 <
8 -7 4 32.80 28.50 4.56 o
-6 -6 4 0.00 6.71 4.87 o
-5 -6 4 45.54 47.91 5.46 o
-4 -6 4 260.19 254.43 6.05 o
-3 -6 4 341.69 327.18 15.81 o
-2 -6 4 489.53 451.12 7.54 o
-1 -6 4 23.21 23.44 2.65 o
0 -6 4 12.48 15.89 1.04 o
1 -6 4 1.77 2.46 0.75 o
2 -6 4 740.77 740.93 8.20 o
3 -6 4 190.09 194.79 7.52 o
4 -6 4 110.06 113.17 4.28 o
5 -6 4 137.31 134.18 4.53 o
6 -6 4 103.01 99.16 4.72 o
7 -6 4 62.17 60.63 9.77 o
8 -6 4 71.22 66.83 5.64 o
-7 -5 4 15.40 16.81 5.97 o
-6 -5 4 90.59 71.66 7.45 o
-5 -5 4 72.05 69.67 6.12 o
-4 -5 4 352.10 327.89 6.14 o
-3 -5 4 68.45 66.86 3.24 o
-2 -5 4 90.26 80.87 2.22 o
-1 -5 4 5.82 8.04 1.02 o
0 -5 4 1615.03 1552.41 11.86 o
1 -5 4 5.20 6.91 0.63 o
2 -5 4 536.17 462.90 7.62 o
3 -5 4 18.70 15.73 1.36 o
4 -5 4 0.05 1.14 1.73 o
5 -5 4 481.41 478.31 9.17 o
6 -5 4 103.46 107.93 4.69 o
7 -5 4 20.11 20.20 3.13 o
8 -5 4 0.24 4.42 5.01 o
-6 -4 4 40.19 33.40 4.64 o
-5 -4 4 4.49 1.18 2.58 o
-4 -4 4 492.09 496.64 12.39 o
-3 -4 4 130.05 133.11 4.53 o
-2 -4 4 5.80 6.49 1.12 o
-1 -4 4 19.87 32.88 2.17 o
0 -4 4 1302.99 1301.89 10.29 o
1 -4 4 5.15 6.77 0.69 o
2 -4 4 7.71 7.26 0.66 o
3 -4 4 533.62 560.85 8.38 o
4 -4 4 120.13 120.57 3.80 o
5 -4 4 10.39 14.56 2.09 o
6 -4 4 272.42 269.36 10.95 o
7 -4 4 1.45 0.70 4.02 o
8 -4 4 6.90 8.38 2.88 o
-7 -3 4 35.31 30.89 5.60 o
-6 -3 4 85.98 95.77 6.86 o
-5 -3 4 86.58 79.25 5.16 o
-4 -3 4 150.58 155.04 6.05 o
-3 -3 4 27.90 36.24 1.76 o
-2 -3 4 183.70 190.76 2.99 o
-1 -3 4 523.65 586.76 6.56 o
0 -3 4 510.99 592.45 4.57 o
1 -3 4 572.79 703.30 5.36 o
2 -3 4 274.10 265.58 2.65 o
3 -3 4 102.97 120.10 3.01 o
4 -3 4 502.17 492.74 8.24 o
5 -3 4 21.49 21.12 2.14 o
6 -3 4 3.85 1.99 1.98 o
7 -3 4 3.09 1.84 2.01 o
8 -3 4 192.35 200.45 6.12 o
-8 -2 4 0.47 1.77 4.94 o
-7 -2 4 0.68 6.78 3.91 o
-6 -2 4 258.95 238.10 5.56 o
-5 -2 4 96.09 97.39 3.13 o
-4 -2 4 3.82 4.50 1.14 o
-3 -2 4 525.71 517.94 7.30 o
-2 -2 4 27.00 27.91 1.25 o
-1 -2 4 810.99 787.46 8.14 o
0 -2 4 14.14 27.19 0.74 o
1 -2 4 76.99 122.74 1.55 o
2 -2 4 331.66 373.13 4.20 o
3 -2 4 120.43 105.32 2.95 o
4 -2 4 96.40 101.06 2.65 o
5 -2 4 1058.28 1081.48 12.68 o
6 -2 4 48.44 48.90 2.78 o
7 -2 4 50.07 47.38 3.41 o
8 -2 4 39.41 44.80 3.87 o
-8 -1 4 153.78 168.13 8.88 o
-7 -1 4 28.77 36.31 3.94 o
-6 -1 4 417.45 417.78 11.80 o
-5 -1 4 606.86 575.32 8.70 o
-4 -1 4 2.45 1.77 0.75 o
-3 -1 4 319.95 298.47 4.76 o
-2 -1 4 1004.08 1039.44 13.05 o
-1 -1 4 236.61 170.58 3.84 o
0 -1 4 4.37 11.57 1.26 o
1 -1 4 506.14 532.24 6.08 o
2 -1 4 969.68 1149.18 10.45 o
3 -1 4 2538.26 2504.09 25.25 o
4 -1 4 336.02 361.51 5.26 o
5 -1 4 4.83 7.84 2.08 o
6 -1 4 47.23 48.23 2.99 o
7 -1 4 212.63 205.99 6.56 o
8 -1 4 528.05 537.27 11.64 o
-8 0 4 64.04 69.78 5.09 o
-7 0 4 98.24 100.71 4.60 o
-6 0 4 48.14 43.34 3.10 o
-5 0 4 41.79 36.83 2.41 o
-4 0 4 161.41 152.67 2.82 o
-3 0 4 132.32 145.39 2.54 o
-2 0 4 4.53 3.76 0.60 o
0 0 4 15.62 18.34 0.68 o
1 0 4 2089.24 2104.79 39.52 o
2 0 4 121.05 120.79 1.95 o
3 0 4 711.72 721.56 19.44 o
4 0 4 319.01 292.88 5.65 o
5 0 4 92.11 100.78 4.79 o
6 0 4 34.42 32.98 2.23 o
7 0 4 67.60 64.60 3.73 o
8 0 4 1.42 10.25 5.38 o
-8 1 4 0.11 4.13 6.12 o
-7 1 4 213.28 231.72 6.11 o
-6 1 4 1.37 2.29 2.21 o
-5 1 4 761.17 773.56 15.71 o
-4 1 4 1153.43 1163.81 14.12 o
-3 1 4 2050.09 1967.46 19.60 o
-2 1 4 213.80 235.89 5.09 o
-1 1 4 3049.63 2977.51 39.56 o
0 1 4 1702.86 1740.54 16.16 o
1 1 4 570.00 590.11 5.56 o
2 1 4 3615.82 3681.65 32.06 o
3 1 4 106.46 92.49 2.77 o
4 1 4 41.71 46.24 2.03 o
5 1 4 9.08 7.98 2.17 o
6 1 4 194.32 179.69 4.36 o
7 1 4 184.66 181.29 8.70 o
-8 2 4 0.12 1.33 2.93 o
-7 2 4 35.65 39.73 4.28 o
-6 2 4 61.17 62.81 4.50 o
-5 2 4 84.01 86.18 2.50 o
-4 2 4 49.06 46.28 1.31 o
-3 2 4 975.58 956.08 10.39 o
-2 2 4 13.20 21.14 1.04 o
-1 2 4 2681.79 2839.43 34.22 o
0 2 4 1726.70 1789.63 17.35 o
1 2 4 440.46 432.19 3.98 o
2 2 4 632.68 599.65 5.01 o
3 2 4 197.88 209.35 3.14 o
4 2 4 0.32 0.24 1.88 o
5 2 4 0.06 3.22 1.42 o
6 2 4 169.76 177.86 5.08 o
7 2 4 54.00 56.47 5.82 o
-8 3 4 41.88 46.88 5.53 o
-7 3 4 87.86 78.81 6.05 o
-6 3 4 99.84 88.10 3.21 o
-5 3 4 730.27 730.35 8.03 o
-4 3 4 1221.96 1156.37 10.64 o
-3 3 4 10.15 12.20 0.82 o
-2 3 4 598.02 572.53 5.95 o
-1 3 4 0.74 1.33 0.66 o
0 3 4 119.29 139.74 1.85 o
1 3 4 1270.85 1312.80 10.67 o
2 3 4 34.84 35.62 1.53 o
3 3 4 55.20 54.06 2.23 o
4 3 4 13.58 14.30 1.78 o
5 3 4 486.70 511.14 8.80 o
6 3 4 155.67 151.32 5.19 o
7 3 4 86.64 79.32 8.63 o
-8 4 4 2.86 1.40 3.98 o
-7 4 4 106.72 101.74 6.49 o
-6 4 4 111.48 114.10 3.26 o
-5 4 4 2.78 6.45 1.14 o
-4 4 4 428.09 405.48 7.81 o
-3 4 4 231.08 265.04 4.06 o
-2 4 4 3185.98 3334.72 38.48 o
-1 4 4 83.97 83.85 2.07 o
0 4 4 73.21 59.92 1.53 o
1 4 4 491.51 506.24 7.64 o
2 4 4 496.30 479.23 7.72 o
3 4 4 8.69 9.36 1.59 o
4 4 4 19.70 21.60 2.43 o
5 4 4 0.76 0.37 2.43 o
6 4 4 11.20 11.39 4.83 o
-8 5 4 92.32 89.20 7.89 o
-7 5 4 80.29 85.89 4.27 o
-6 5 4 342.02 383.92 7.50 o
-5 5 4 214.56 202.80 5.72 o
-4 5 4 61.23 53.85 2.76 o
-3 5 4 114.31 99.20 4.31 o
-2 5 4 82.84 86.44 2.89 o
-1 5 4 428.88 423.70 4.79 o
0 5 4 363.81 367.06 5.06 o
1 5 4 182.51 183.83 3.52 o
2 5 4 12.02 16.66 1.85 o
3 5 4 213.89 217.46 6.82 o
4 5 4 655.43 654.07 10.75 o
5 5 4 213.37 226.78 6.25 o
6 5 4 18.15 10.47 4.79 o
-8 6 4 39.41 46.22 6.12 o
-7 6 4 53.78 60.63 4.30 o
-6 6 4 105.92 107.56 4.46 o
-5 6 4 29.19 29.79 2.51 o
-4 6 4 25.71 25.47 6.08 o
-3 6 4 302.36 318.82 6.33 o
-2 6 4 271.80 276.71 9.22 o
-1 6 4 556.52 563.64 7.74 o
0 6 4 280.31 305.60 4.83 o
1 6 4 17.89 15.92 3.39 o
2 6 4 538.09 526.07 14.45 o
3 6 4 31.27 37.01 3.17 o
4 6 4 24.85 27.17 3.21 o
5 6 4 48.91 54.84 4.33 o
-8 7 4 1.34 8.77 5.31 o
-7 7 4 381.05 403.49 9.03 o
-6 7 4 14.35 14.49 2.69 o
-5 7 4 50.25 54.07 3.99 o
-4 7 4 364.76 349.09 7.25 o
-3 7 4 330.31 306.47 6.89 o
-2 7 4 813.02 805.13 12.36 o
-1 7 4 340.76 326.51 4.45 o
0 7 4 23.22 24.49 1.61 o
1 7 4 194.83 226.89 22.38 o
2 7 4 138.49 136.72 4.70 o
3 7 4 69.49 72.02 4.38 o
4 7 4 40.94 38.70 3.69 o
5 7 4 11.47 19.94 7.56 o
-7 8 4 147.86 160.60 6.97 o
-6 8 4 57.41 65.46 4.56 o
-5 8 4 95.05 90.24 4.67 o
-4 8 4 482.93 464.50 16.40 o
-3 8 4 240.41 238.36 6.05 o
-2 8 4 454.43 440.10 8.32 o
-1 8 4 63.56 55.03 4.08 o
0 8 4 113.31 116.77 3.74 o
1 8 4 195.20 189.32 4.62 o
2 8 4 94.93 105.17 5.04 o
3 8 4 3.62 7.59 3.11 o
4 8 4 191.32 191.57 7.17 o
-7 9 4 58.64 61.08 5.86 o
-6 9 4 13.61 15.41 3.39 o
-5 9 4 2.16 2.32 4.39 o
-4 9 4 22.82 25.44 3.10 o
-3 9 4 3.73 2.54 2.29 o
-2 9 4 320.91 313.32 7.40 o
-1 9 4 58.91 58.92 6.18 o
0 9 4 0.52 0.07 1.93 o
1 9 4 13.65 14.38 2.41 o
2 9 4 1.42 1.11 3.21 o
3 9 4 3.16 -0.39 3.27 <
-6 10 4 118.81 122.71 7.33 o
-5 10 4 132.07 120.42 6.49 o
-4 10 4 58.48 67.19 4.92 o
-3 10 4 54.49 47.58 6.82 o
-2 10 4 7.02 2.69 2.74 o
-1 10 4 2.28 4.03 5.03 o
0 10 4 0.33 -1.45 3.11 <
1 10 4 60.17 65.76 5.57 o
2 10 4 0.40 -7.00 3.60 <
-5 11 4 25.79 23.30 4.62 o
-4 11 4 38.37 40.65 4.78 o
-3 11 4 0.12 2.25 6.30 o
-2 11 4 7.60 6.49 3.57 o
-1 11 4 6.32 6.32 3.07 o
0 11 4 27.80 38.45 4.81 o
1 11 4 127.47 145.65 8.87 o
-2 12 4 9.98 2.95 7.45 o
-1 -12 5 19.88 10.10 5.01 o
0 -12 5 1.45 -0.37 3.36 <
1 -12 5 5.18 6.21 3.74 o
2 -12 5 44.34 41.87 3.98 o
3 -12 5 5.80 3.17 3.91 o
4 -12 5 14.39 23.70 9.40 o
-1 -11 5 0.06 -4.53 3.55 <
0 -11 5 13.15 11.92 2.87 o
1 -11 5 118.49 120.86 4.19 o
2 -11 5 0.05 5.38 2.17 o
3 -11 5 109.06 115.56 5.90 o
4 -11 5 74.50 84.96 6.13 o
5 -11 5 4.12 6.82 3.80 o
-3 -10 5 18.02 13.12 5.68 o
-2 -10 5 98.19 95.54 8.85 o
-1 -10 5 18.83 19.28 3.26 o
0 -10 5 0.34 1.44 1.67 o
1 -10 5 350.64 372.82 5.71 o
2 -10 5 162.55 172.94 4.11 o
3 -10 5 36.54 33.91 3.29 o
4 -10 5 30.13 31.92 4.20 o
5 -10 5 113.89 105.90 6.08 o
6 -10 5 66.19 85.59 6.52 o
-4 -9 5 9.08 18.21 6.19 o
-3 -9 5 63.04 52.85 6.12 o
-2 -9 5 27.44 26.10 2.85 o
-1 -9 5 51.26 49.72 3.44 o
0 -9 5 0.74 2.65 1.43 o
1 -9 5 58.20 60.73 2.99 o
2 -9 5 127.72 132.62 3.30 o
3 -9 5 2.88 4.09 5.57 o
4 -9 5 190.14 178.42 10.02 o
5 -9 5 85.50 98.16 7.34 o
6 -9 5 9.37 11.39 6.30 o
7 -9 5 13.85 14.52 4.22 o
-5 -8 5 152.25 157.10 10.69 o
-4 -8 5 37.45 33.10 5.23 o
-3 -8 5 15.79 6.12 3.83 o
-2 -8 5 14.57 14.01 3.17 o
-1 -8 5 2.04 4.24 2.43 o
0 -8 5 83.23 87.16 3.48 o
1 -8 5 1210.53 1199.87 11.92 o
2 -8 5 221.49 217.40 5.07 o
3 -8 5 4.64 6.86 1.99 o
4 -8 5 7.07 4.42 1.98 o
5 -8 5 162.30 160.46 5.66 o
6 -8 5 17.36 17.92 3.41 o
7 -8 5 23.05 19.21 5.53 o
-6 -7 5 0.20 2.51 5.75 o
-5 -7 5 40.26 37.30 5.97 o
-4 -7 5 23.89 30.96 4.50 o
-3 -7 5 60.79 42.83 4.64 o
-2 -7 5 17.33 18.06 3.02 o
-1 -7 5 843.28 855.52 16.59 o
0 -7 5 1052.20 1013.45 9.73 o
1 -7 5 28.23 26.75 1.37 o
2 -7 5 45.91 45.59 2.80 o
3 -7 5 12.78 11.13 1.83 o
4 -7 5 236.71 229.85 7.71 o
5 -7 5 20.43 19.50 3.28 o
6 -7 5 117.29 121.49 5.61 o
7 -7 5 166.12 168.75 6.96 o
-6 -6 5 27.68 24.03 6.34 o
-5 -6 5 88.15 88.39 7.30 o
-4 -6 5 0.01 -1.77 2.88 <
-3 -6 5 48.17 49.32 4.20 o
-2 -6 5 70.76 72.17 4.50 o
-1 -6 5 522.47 510.69 11.58 o
0 -6 5 6.65 6.58 0.88 o
1 -6 5 8.46 10.85 0.91 o
2 -6 5 41.07 48.67 2.13 o
3 -6 5 0.02 1.84 3.32 o
4 -6 5 2382.50 2367.42 30.80 o
5 -6 5 83.94 79.66 3.91 o
6 -6 5 250.15 231.02 6.65 o
7 -6 5 0.35 0.59 3.02 o
8 -6 5 127.87 124.96 10.62 o
-7 -5 5 72.92 79.84 8.55 o
-6 -5 5 166.51 185.63 9.44 o
-5 -5 5 117.53 127.98 7.15 o
-4 -5 5 101.12 113.68 6.12 o
-3 -5 5 362.55 325.03 6.02 o
-2 -5 5 189.10 210.75 5.86 o
-1 -5 5 434.49 443.80 5.83 o
0 -5 5 532.31 502.00 5.05 o
1 -5 5 301.73 301.26 3.24 o
2 -5 5 272.88 280.56 4.18 o
3 -5 5 11.99 9.29 1.31 o
4 -5 5 0.08 0.55 1.46 o
5 -5 5 6.91 4.42 3.47 o
6 -5 5 30.50 28.35 3.02 o
7 -5 5 188.22 200.79 11.17 o
8 -5 5 66.08 62.96 5.04 o
-6 -4 5 9.22 8.70 3.83 o
-5 -4 5 0.09 4.13 2.80 o
-4 -4 5 13.14 11.94 2.65 o
-3 -4 5 87.53 81.43 2.84 o
-2 -4 5 1955.06 1951.81 32.64 o
-1 -4 5 259.84 288.68 3.97 o
0 -4 5 602.44 611.00 5.79 o
1 -4 5 155.42 195.42 2.43 o
2 -4 5 147.93 144.20 2.37 o
3 -4 5 1365.89 1318.24 14.25 o
4 -4 5 3455.27 3344.20 46.26 o
5 -4 5 1714.15 1641.18 24.69 o
6 -4 5 18.73 21.82 3.91 o
7 -4 5 2.27 2.58 2.20 o
8 -4 5 6.31 4.90 4.03 o
-7 -3 5 134.31 149.14 9.22 o
-6 -3 5 80.81 88.61 6.64 o
-5 -3 5 14.18 12.02 2.88 o
-4 -3 5 666.72 609.26 13.94 o
-3 -3 5 126.23 122.49 2.93 o
-2 -3 5 861.73 862.26 11.45 o
-1 -3 5 462.97 493.77 4.84 o
0 -3 5 318.64 376.89 3.51 o
1 -3 5 847.21 875.55 6.73 o
2 -3 5 68.15 56.69 1.50 o
3 -3 5 1009.72 1073.92 29.15 o
4 -3 5 81.13 81.24 3.23 o
5 -3 5 1.75 7.45 3.24 o
6 -3 5 41.76 46.42 2.82 o
7 -3 5 191.85 199.84 5.36 o
8 -3 5 30.92 31.65 4.08 o
-8 -2 5 251.92 244.77 12.46 o
-7 -2 5 15.74 15.67 2.86 o
-6 -2 5 54.87 46.29 3.13 o
-5 -2 5 18.77 22.63 2.10 o
-4 -2 5 77.85 74.79 2.51 o
-3 -2 5 2.37 2.14 0.65 o
-2 -2 5 4098.76 4401.98 88.81 o
-1 -2 5 517.01 627.60 11.80 o
0 -2 5 19.87 18.32 0.72 o
1 -2 5 216.64 255.23 4.91 o
2 -2 5 1534.71 1658.43 14.99 o
3 -2 5 12.60 10.32 1.33 o
4 -2 5 22.84 19.15 1.47 o
5 -2 5 144.19 132.70 4.11 o
6 -2 5 3.11 5.23 1.73 o
7 -2 5 202.94 203.26 5.42 o
8 -2 5 4.14 9.69 3.80 o
-8 -1 5 126.95 135.35 6.91 o
-7 -1 5 0.15 1.51 2.69 o
-6 -1 5 6.24 8.00 1.98 o
-5 -1 5 1070.19 1054.44 16.67 o
-4 -1 5 703.32 704.23 10.03 o
-3 -1 5 2244.91 2355.80 23.35 o
-2 -1 5 758.92 824.20 10.72 o
-1 -1 5 574.07 595.23 10.92 o
0 -1 5 1577.49 1611.62 20.04 o
1 -1 5 454.27 593.40 9.30 o
2 -1 5 110.16 135.20 2.17 o
3 -1 5 115.97 99.95 2.32 o
4 -1 5 168.84 176.73 3.49 o
5 -1 5 50.08 51.99 2.42 o
6 -1 5 56.04 60.41 3.85 o
7 -1 5 33.21 33.40 5.97 o
8 -1 5 10.09 10.43 4.00 o
-8 0 5 73.39 66.20 7.08 o
-7 0 5 43.26 43.16 3.30 o
-6 0 5 487.62 501.30 8.78 o
-5 0 5 30.48 31.26 2.80 o
-4 0 5 22.06 23.37 1.83 o
-3 0 5 372.46 417.32 6.34 o
-1 0 5 48.08 81.91 2.58 o
0 0 5 1007.50 1049.26 22.85 o
1 0 5 3291.63 3327.44 25.11 o
2 0 5 206.07 209.22 2.85 o
3 0 5 266.47 289.89 5.13 o
4 0 5 277.31 270.82 5.44 o
5 0 5 47.54 48.65 3.13 o
6 0 5 364.38 348.58 6.67 o
7 0 5 254.93 270.45 5.96 o
-8 1 5 40.82 49.94 4.98 o
-7 1 5 331.41 342.99 7.66 o
-6 1 5 1196.70 1185.75 23.09 o
-5 1 5 58.03 57.72 3.69 o
-4 1 5 1018.93 1048.71 11.16 o
-3 1 5 429.59 466.88 5.48 o
-2 1 5 108.80 89.62 2.19 o
-1 1 5 132.32 107.83 2.23 o
0 1 5 78.07 97.56 1.64 o
1 1 5 156.91 170.43 2.17 o
2 1 5 93.05 128.59 2.00 o
3 1 5 95.53 93.63 6.93 o
4 1 5 767.53 724.43 11.02 o
5 1 5 13.13 19.61 1.91 o
6 1 5 126.91 139.33 4.14 o
7 1 5 3.63 9.51 4.57 o
-8 2 5 47.34 58.38 4.48 o
-7 2 5 50.35 45.92 4.50 o
-6 2 5 557.70 569.35 13.35 o
-5 2 5 123.01 116.72 2.70 o
-4 2 5 287.38 309.93 9.01 o
-3 2 5 0.26 0.39 0.63 o
-2 2 5 198.46 206.67 3.94 o
-1 2 5 94.32 99.83 2.09 o
0 2 5 1469.32 1396.36 13.19 o
1 2 5 683.63 710.89 9.16 o
2 2 5 1162.65 1194.24 10.01 o
3 2 5 435.70 455.30 5.41 o
4 2 5 103.54 93.09 2.88 o
5 2 5 100.00 95.64 3.41 o
6 2 5 43.83 46.99 3.66 o
7 2 5 87.21 84.04 8.33 o
-8 3 5 19.96 24.18 5.16 o
-7 3 5 125.76 131.59 7.00 o
-6 3 5 14.21 14.27 2.10 o
-5 3 5 806.15 783.95 11.59 o
-4 3 5 9.22 13.92 1.83 o
-3 3 5 13.98 16.51 1.18 o
-2 3 5 2437.53 2562.43 22.36 o
-1 3 5 4.48 4.35 0.99 o
0 3 5 520.60 482.83 4.82 o
1 3 5 59.01 64.86 1.45 o
2 3 5 628.35 682.39 8.11 o
3 3 5 589.69 572.21 7.47 o
4 3 5 126.78 132.13 3.36 o
5 3 5 94.16 82.75 8.22 o
6 3 5 36.90 42.94 3.52 o
7 3 5 65.01 59.12 6.86 o
-8 4 5 0.49 6.49 4.20 o
-7 4 5 195.60 189.99 8.33 o
-6 4 5 94.51 99.53 3.29 o
-5 4 5 128.43 129.55 3.23 o
-4 4 5 0.75 -1.70 1.77 <
-3 4 5 174.37 214.69 6.56 o
-2 4 5 229.39 264.40 7.23 o
-1 4 5 473.85 498.99 9.51 o
0 4 5 430.84 498.72 5.37 o
1 4 5 507.69 536.59 6.80 o
2 4 5 12.94 10.62 1.99 o
3 4 5 25.05 21.09 2.06 o
4 4 5 57.62 66.60 4.41 o
5 4 5 6.17 2.47 2.37 o
6 4 5 59.02 58.05 4.08 o
-8 5 5 280.21 296.75 12.02 o
-7 5 5 0.51 -5.49 2.76 <
-6 5 5 258.24 255.28 5.98 o
-5 5 5 0.49 0.26 1.49 o
-4 5 5 816.65 789.54 11.84 o
-3 5 5 1086.06 1116.98 15.63 o
-2 5 5 216.57 212.05 4.72 o
-1 5 5 38.61 34.01 2.79 o
0 5 5 198.93 205.16 4.17 o
1 5 5 36.07 32.96 2.60 o
2 5 5 0.05 0.26 1.33 o
3 5 5 114.16 123.44 4.28 o
4 5 5 0.29 -2.51 2.03 <
5 5 5 0.63 4.79 2.56 o
6 5 5 0.38 1.99 5.23 o
-8 6 5 40.92 33.99 9.29 o
-7 6 5 5.79 3.17 4.13 o
-6 6 5 5.22 6.52 2.27 o
-5 6 5 90.00 98.24 4.07 o
-4 6 5 16.15 21.09 2.43 o
-3 6 5 939.86 959.52 14.08 o
-2 6 5 2.67 4.98 2.62 o
-1 6 5 305.06 307.54 4.11 o
0 6 5 68.57 68.36 2.53 o
1 6 5 306.57 320.04 6.62 o
2 6 5 11.52 12.83 4.42 o
3 6 5 208.90 214.06 5.69 o
4 6 5 6.12 6.45 3.21 o
5 6 5 28.54 28.38 3.75 o
-7 7 5 145.43 144.09 6.27 o
-6 7 5 47.16 41.28 3.39 o
-5 7 5 23.91 33.18 3.00 o
-4 7 5 4.77 2.40 2.40 o
-3 7 5 50.95 50.05 5.60 o
-2 7 5 3.65 4.72 2.14 o
-1 7 5 12.34 11.10 1.57 o
0 7 5 128.46 125.42 3.51 o
1 7 5 385.06 395.80 7.96 o
2 7 5 3.84 2.54 2.14 o
3 7 5 1.70 5.53 2.74 o
4 7 5 0.24 2.43 3.18 o
5 7 5 61.40 59.05 8.48 o
-7 8 5 49.90 52.15 8.29 o
-6 8 5 79.56 86.59 5.24 o
-5 8 5 23.47 20.02 3.00 o
-4 8 5 160.11 157.55 5.45 o
-3 8 5 190.34 197.29 5.74 o
-2 8 5 0.77 2.62 3.80 o
-1 8 5 0.12 -1.36 1.42 <
0 8 5 144.54 144.52 5.01 o
1 8 5 13.31 17.29 2.71 o
2 8 5 6.10 11.43 4.28 o
3 8 5 12.51 16.59 3.52 o
4 8 5 178.10 200.34 9.55 o
-6 9 5 58.11 60.41 4.67 o
-5 9 5 139.42 135.43 6.08 o
-4 9 5 19.64 16.00 2.95 o
-3 9 5 6.64 6.49 2.50 o
-2 9 5 163.26 166.99 5.82 o
-1 9 5 7.25 6.49 2.13 o
0 9 5 252.16 266.05 6.15 o
1 9 5 201.64 215.52 5.66 o
2 9 5 69.17 80.28 4.94 o
3 9 5 3.64 2.65 5.31 o
-6 10 5 22.51 23.96 4.38 o
-5 10 5 19.33 18.50 7.59 o
-4 10 5 20.81 22.74 8.44 o
-3 10 5 0.47 1.88 3.65 o
-2 10 5 60.94 58.38 4.38 o
-1 10 5 41.63 45.41 3.88 o
0 10 5 241.91 266.81 6.64 o
1 10 5 26.81 24.33 3.38 o
2 10 5 6.01 3.81 3.52 o
-4 11 5 5.82 8.99 4.34 o
-3 11 5 29.92 29.86 4.77 o
-2 11 5 1.38 4.13 5.60 o
-1 11 5 8.80 3.65 4.76 o
0 11 5 62.34 61.72 4.46 o
0 -12 6 237.39 270.27 12.60 o
1 -12 6 3.84 4.68 4.19 o
2 -12 6 128.17 139.07 7.07 o
3 -12 6 1.49 13.16 4.15 o
4 -12 6 0.00 -1.33 8.18 <
-1 -11 6 69.50 65.83 7.23 o
0 -11 6 13.63 13.20 3.65 o
1 -11 6 78.00 85.74 4.56 o
2 -11 6 5.40 9.18 3.16 o
3 -11 6 2.68 0.55 7.19 o
4 -11 6 18.84 23.30 3.91 o
5 -11 6 46.61 62.44 9.88 o
-3 -10 6 28.74 22.71 6.27 o
-2 -10 6 0.14 -3.98 4.57 <
-1 -10 6 98.14 99.08 8.26 o
0 -10 6 52.66 54.03 3.02 o
1 -10 6 432.87 421.09 7.05 o
2 -10 6 34.99 30.54 2.71 o
3 -10 6 40.67 45.44 3.74 o
4 -10 6 145.79 139.34 9.29 o
5 -10 6 15.26 17.66 3.80 o
6 -10 6 28.74 25.47 4.51 o
-4 -9 6 0.47 8.63 7.00 o
-3 -9 6 13.35 21.38 4.87 o
-2 -9 6 12.26 11.43 3.91 o
-1 -9 6 316.45 325.08 10.62 o
0 -9 6 360.82 374.06 5.99 o
1 -9 6 0.30 0.49 1.58 o
2 -9 6 91.49 91.78 3.50 o
3 -9 6 73.73 79.95 4.27 o
4 -9 6 0.28 1.59 2.53 o
5 -9 6 70.25 72.72 4.95 o
6 -9 6 22.93 29.56 5.46 o
-5 -8 6 158.05 143.24 10.40 o
-4 -8 6 31.86 25.88 5.16 o
-3 -8 6 29.39 23.15 4.13 o
-2 -8 6 266.00 255.84 9.07 o
-1 -8 6 136.38 134.17 7.30 o
0 -8 6 161.08 157.76 3.03 o
1 -8 6 339.24 348.72 8.07 o
2 -8 6 2.05 -1.77 3.24 <
3 -8 6 607.31 626.82 10.69 o
4 -8 6 0.71 0.18 3.28 o
5 -8 6 126.47 125.58 5.60 o
6 -8 6 14.29 16.66 3.41 o
7 -8 6 82.59 79.03 5.53 o
-5 -7 6 19.68 18.80 5.09 o
-4 -7 6 0.95 4.35 3.69 o
-3 -7 6 65.62 52.27 5.31 o
-2 -7 6 23.84 26.54 3.47 o
-1 -7 6 123.66 129.82 5.68 o
0 -7 6 897.23 885.95 9.08 o
1 -7 6 461.08 429.96 10.55 o
2 -7 6 34.57 36.53 2.71 o
3 -7 6 0.76 -0.55 1.59 <
4 -7 6 4.31 9.47 2.24 o
5 -7 6 1.25 5.71 2.54 o
6 -7 6 101.70 116.81 5.74 o
7 -7 6 0.02 5.01 3.89 o
-5 -6 6 2.56 -0.88 3.83 <
-4 -6 6 31.17 30.67 4.20 o
-3 -6 6 683.97 703.47 15.93 o
-2 -6 6 443.87 398.71 10.25 o
-1 -6 6 346.36 337.63 8.63 o
0 -6 6 200.72 210.51 3.05 o
1 -6 6 91.25 90.68 2.06 o
2 -6 6 443.17 451.35 6.16 o
3 -6 6 309.32 303.83 8.13 o
4 -6 6 679.13 655.33 16.89 o
5 -6 6 26.09 22.85 3.10 o
6 -6 6 13.72 13.64 2.82 o
7 -6 6 41.06 43.79 4.25 o
-6 -5 6 13.97 22.19 5.16 o
-5 -5 6 61.39 62.00 6.19 o
-4 -5 6 294.03 276.48 5.71 o
-3 -5 6 21.77 12.46 1.85 o
-2 -5 6 43.29 37.90 2.73 o
-1 -5 6 0.00 0.44 1.19 o
0 -5 6 339.03 341.52 4.00 o
1 -5 6 71.16 68.22 1.51 o
2 -5 6 847.06 807.46 9.38 o
3 -5 6 0.29 0.76 1.04 o
4 -5 6 16.63 16.02 1.76 o
5 -5 6 376.52 395.80 8.19 o
6 -5 6 157.94 155.82 11.02 o
7 -5 6 123.21 124.33 6.36 o
8 -5 6 9.52 7.17 4.93 o
-7 -4 6 121.40 114.34 9.81 o
-6 -4 6 0.97 2.51 3.69 o
-5 -4 6 3.14 7.37 2.95 o
-4 -4 6 87.34 78.14 4.94 o
-3 -4 6 4.39 4.76 1.33 o
-2 -4 6 735.00 777.56 10.85 o
-1 -4 6 185.96 232.99 2.91 o
0 -4 6 498.99 497.08 6.98 o
1 -4 6 469.98 551.58 5.47 o
2 -4 6 7.96 11.23 1.68 o
3 -4 6 13.30 9.68 1.36 o
4 -4 6 193.90 188.49 5.88 o
5 -4 6 8.14 10.91 2.20 o
6 -4 6 285.67 290.05 11.95 o
7 -4 6 121.01 117.97 4.79 o
8 -4 6 3.01 7.50 4.46 o
-7 -3 6 17.98 21.60 5.46 o
-6 -3 6 304.44 287.76 10.32 o
-5 -3 6 36.06 36.35 4.20 o
-4 -3 6 937.87 927.34 19.25 o
-3 -3 6 77.18 90.16 2.71 o
-2 -3 6 457.36 446.28 6.73 o
-1 -3 6 605.69 602.59 6.72 o
0 -3 6 570.87 587.15 5.67 o
1 -3 6 82.69 71.05 1.61 o
2 -3 6 180.93 154.83 2.77 o
3 -3 6 63.88 61.75 2.08 o
4 -3 6 234.58 240.10 5.55 o
5 -3 6 108.21 101.81 4.67 o
6 -3 6 143.49 152.07 4.32 o
7 -3 6 9.69 8.75 2.53 o
8 -3 6 0.01 2.36 5.90 o
-7 -2 6 71.70 83.97 5.04 o
-6 -2 6 51.93 52.34 3.30 o
-5 -2 6 193.46 197.58 4.94 o
-4 -2 6 299.59 298.84 8.48 o
-3 -2 6 207.43 167.63 2.92 o
-2 -2 6 208.66 228.28 5.75 o
-1 -2 6 368.75 360.92 7.82 o
0 -2 6 4046.42 4112.81 69.67 o
1 -2 6 1527.19 1651.91 32.19 o
2 -2 6 1.26 -0.29 1.25 <
3 -2 6 0.20 0.98 0.83 o
4 -2 6 1140.78 1059.70 12.21 o
5 -2 6 1030.02 1041.06 14.84 o
6 -2 6 292.98 282.40 5.67 o
7 -2 6 87.00 77.22 5.35 o
8 -2 6 5.76 4.94 5.75 o
-8 -1 6 66.90 75.05 7.45 o
-7 -1 6 196.48 204.25 6.01 o
-6 -1 6 8.23 8.40 2.05 o
-5 -1 6 283.15 286.44 5.76 o
-4 -1 6 98.04 98.05 2.87 o
-3 -1 6 3.80 3.58 0.94 o
-2 -1 6 54.16 68.71 2.88 o
-1 -1 6 553.75 615.95 8.35 o
0 -1 6 369.47 456.74 6.83 o
1 -1 6 85.91 80.90 2.01 o
2 -1 6 153.47 174.07 3.47 o
3 -1 6 1351.63 1337.26 17.48 o
4 -1 6 16.04 19.43 1.82 o
5 -1 6 423.60 420.14 12.24 o
6 -1 6 4.42 4.98 3.35 o
7 -1 6 18.17 24.96 3.47 o
-8 0 6 0.33 1.47 3.29 o
-7 0 6 28.25 26.65 5.20 o
-6 0 6 584.80 584.29 9.79 o
-5 0 6 240.34 266.16 7.15 o
-4 0 6 98.83 94.86 2.24 o
-3 0 6 110.76 102.89 4.53 o
-1 0 6 606.58 557.19 10.85 o
0 0 6 929.73 944.26 29.55 o
1 0 6 1740.59 1895.66 19.45 o
2 0 6 113.65 129.64 2.86 o
3 0 6 44.73 51.53 2.31 o
4 0 6 184.13 186.63 4.49 o
5 0 6 461.92 458.46 8.42 o
6 0 6 9.48 15.76 2.95 o
7 0 6 2.83 7.30 2.82 o
-8 1 6 52.25 49.32 5.60 o
-7 1 6 108.56 114.97 5.35 o
-6 1 6 2.33 2.14 2.43 o
-5 1 6 8.70 9.33 1.66 o
-4 1 6 2.74 5.11 0.99 o
-3 1 6 445.60 462.36 6.89 o
-2 1 6 14.78 20.53 1.29 o
-1 1 6 411.48 401.58 4.79 o
0 1 6 5.48 5.18 0.61 o
1 1 6 0.67 1.53 0.58 o
2 1 6 3858.81 3865.45 47.01 o
3 1 6 5.16 8.07 1.38 o
4 1 6 180.94 193.82 4.72 o
5 1 6 92.73 85.35 3.27 o
6 1 6 1.14 3.17 2.12 o
7 1 6 325.07 351.42 8.47 o
-8 2 6 18.20 21.53 4.87 o
-7 2 6 0.33 -0.29 2.88 <
-6 2 6 184.90 187.18 6.93 o
-5 2 6 23.40 24.99 1.70 o
-4 2 6 0.46 1.45 1.30 o
-3 2 6 886.23 871.20 14.88 o
-2 2 6 142.19 134.26 2.67 o
-1 2 6 0.01 1.75 0.63 o
0 2 6 921.97 970.15 7.98 o
1 2 6 178.28 172.31 2.96 o
2 2 6 195.38 183.46 3.13 o
3 2 6 526.59 499.05 6.68 o
4 2 6 1.03 0.49 1.28 o
5 2 6 60.61 59.29 3.18 o
6 2 6 0.06 0.74 2.65 o
7 2 6 5.87 15.85 5.60 o
-8 3 6 49.98 61.48 6.19 o
-7 3 6 313.54 329.42 10.54 o
-6 3 6 4.00 6.75 1.49 o
-5 3 6 81.53 71.75 2.34 o
-4 3 6 1136.12 1147.90 12.37 o
-3 3 6 4.17 4.39 1.20 o
-2 3 6 293.19 265.08 4.98 o
-1 3 6 77.46 83.88 1.61 o
0 3 6 26.91 28.87 1.31 o
1 3 6 1015.01 1042.34 8.85 o
2 3 6 197.32 198.77 3.13 o
3 3 6 322.71 336.83 5.34 o
4 3 6 1.77 0.57 1.53 o
5 3 6 81.22 78.81 4.22 o
6 3 6 99.32 103.65 5.05 o
-8 4 6 0.08 2.29 4.64 o
-7 4 6 18.14 19.28 7.63 o
-6 4 6 439.38 436.40 8.27 o
-5 4 6 0.26 2.93 1.21 o
-4 4 6 1130.44 1133.98 15.73 o
-3 4 6 575.45 632.37 9.73 o
-2 4 6 260.71 261.08 9.88 o
-1 4 6 647.38 664.33 14.31 o
0 4 6 11.66 12.84 1.09 o
1 4 6 77.24 68.27 2.48 o
2 4 6 765.32 784.76 11.74 o
3 4 6 3.22 5.20 2.76 o
4 4 6 180.44 173.88 5.35 o
5 4 6 89.97 100.26 6.78 o
6 4 6 46.99 49.87 4.24 o
-8 5 6 100.77 92.89 9.07 o
-7 5 6 1.16 1.18 2.56 o
-6 5 6 239.05 248.72 7.34 o
-5 5 6 7.74 15.41 3.61 o
-4 5 6 135.04 130.56 4.15 o
-3 5 6 395.11 377.87 7.01 o
-2 5 6 115.04 113.71 3.60 o
-1 5 6 91.79 97.24 4.94 o
0 5 6 400.75 389.44 5.52 o
1 5 6 7.97 6.56 1.61 o
2 5 6 267.82 277.96 6.05 o
3 5 6 0.88 2.36 2.27 o
4 5 6 20.81 24.70 2.95 o
5 5 6 275.59 264.79 7.35 o
-8 6 6 42.96 37.37 6.27 o
-7 6 6 67.52 76.15 6.05 o
-6 6 6 269.07 255.42 6.56 o
-5 6 6 474.37 473.75 8.87 o
-4 6 6 17.84 22.12 2.34 o
-3 6 6 283.47 321.69 7.33 o
-2 6 6 248.57 241.13 5.58 o
-1 6 6 65.89 63.51 3.26 o
0 6 6 308.88 305.79 5.04 o
1 6 6 197.72 202.52 8.70 o
2 6 6 18.24 16.48 6.23 o
3 6 6 1.31 2.58 2.27 o
4 6 6 11.00 12.98 3.98 o
5 6 6 17.46 16.92 5.71 o
-7 7 6 155.38 164.07 12.05 o
-6 7 6 47.98 52.74 5.12 o
-5 7 6 60.57 69.04 4.39 o
-4 7 6 212.39 194.49 5.55 o
-3 7 6 1.17 2.32 1.75 o
-2 7 6 11.26 10.28 2.09 o
-1 7 6 858.40 807.03 11.54 o
0 7 6 100.32 102.57 5.92 o
1 7 6 73.97 78.22 7.52 o
2 7 6 3.14 5.60 2.66 o
3 7 6 7.48 4.76 2.89 o
4 7 6 90.64 110.40 8.15 o
-7 8 6 0.02 9.29 3.89 o
-6 8 6 48.54 47.73 4.17 o
-5 8 6 37.77 42.31 3.60 o
-4 8 6 0.00 0.29 2.09 o
-3 8 6 89.93 97.31 4.69 o
-2 8 6 42.77 44.30 4.72 o
-1 8 6 222.12 220.29 5.09 o
0 8 6 4.17 2.90 1.90 o
1 8 6 51.04 46.26 3.73 o
2 8 6 16.39 17.10 3.36 o
3 8 6 0.46 -0.66 5.16 <
-6 9 6 41.67 42.24 4.94 o
-5 9 6 75.63 64.87 5.75 o
-4 9 6 11.99 9.77 3.02 o
-3 9 6 193.98 205.76 6.70 o
-2 9 6 30.27 31.55 3.44 o
-1 9 6 13.01 5.88 2.33 o
0 9 6 260.17 269.03 6.26 o
1 9 6 132.00 145.97 7.05 o
2 9 6 56.82 57.35 8.18 o
-5 10 6 0.16 -5.05 3.70 <
-4 10 6 37.73 32.29 4.20 o
-3 10 6 0.69 4.09 3.05 o
-2 10 6 31.55 31.37 3.73 o
-1 10 6 2.71 1.79 2.70 o
0 10 6 13.01 11.23 3.19 o
1 10 6 0.10 -2.23 4.80 <
-4 11 6 91.37 82.71 7.37 o
-3 11 6 71.76 70.11 5.63 o
-2 11 6 106.75 107.08 7.64 o
-1 11 6 20.96 17.25 5.82 o
0 -12 7 60.84 70.36 6.05 o
1 -12 7 11.92 4.24 4.89 o
2 -12 7 0.85 -2.32 4.04 <
3 -12 7 1.59 6.08 10.36 o
-1 -11 7 12.07 9.22 4.02 o
0 -11 7 1.89 -1.36 3.36 <
1 -11 7 0.25 -1.77 2.57 <
2 -11 7 1.43 4.57 3.32 o
3 -11 7 31.08 34.54 4.08 o
4 -11 7 50.11 59.16 11.17 o
5 -11 7 18.03 45.44 5.62 o
-3 -10 7 0.95 -7.59 6.86 <
-2 -10 7 46.01 50.57 6.64 o
-1 -10 7 51.55 58.83 4.53 o
0 -10 7 35.85 36.05 3.76 o
1 -10 7 31.04 36.86 2.78 o
2 -10 7 306.06 296.65 7.48 o
3 -10 7 26.94 28.64 4.98 o
4 -10 7 119.77 130.01 6.38 o
5 -10 7 1.26 -1.77 4.05 <
6 -10 7 0.46 -2.51 4.66 <
-3 -9 7 17.44 11.50 4.87 o
-2 -9 7 39.36 41.35 5.16 o
-1 -9 7 2.44 4.94 3.61 o
0 -9 7 5.44 6.49 2.29 o
1 -9 7 17.35 18.41 4.17 o
2 -9 7 12.75 8.92 2.33 o
3 -9 7 134.99 130.89 6.38 o
4 -9 7 18.55 24.55 3.26 o
5 -9 7 78.32 83.34 6.03 o
6 -9 7 20.46 22.19 4.43 o
-5 -8 7 22.09 18.80 6.19 o
-4 -8 7 237.98 246.25 10.91 o
-3 -8 7 204.18 234.89 9.66 o
-2 -8 7 30.49 30.01 4.20 o
-1 -8 7 4.28 4.20 3.02 o
0 -8 7 27.08 27.94 4.00 o
1 -8 7 1048.40 1038.06 12.30 o
2 -8 7 26.50 27.91 2.70 o
3 -8 7 1098.94 1046.39 23.02 o
4 -8 7 121.53 112.50 7.37 o
5 -8 7 3.70 4.53 3.43 o
6 -8 7 93.53 85.15 6.10 o
7 -8 7 15.72 20.83 11.02 o
-5 -7 7 31.75 38.26 5.97 o
-4 -7 7 144.53 139.70 7.96 o
-3 -7 7 58.29 56.32 5.53 o
-2 -7 7 1.43 1.11 2.43 o
-1 -7 7 36.18 38.04 4.05 o
0 -7 7 71.29 65.68 2.88 o
1 -7 7 418.21 403.29 5.94 o
2 -7 7 10.26 11.39 4.31 o
3 -7 7 82.86 71.88 3.68 o
4 -7 7 73.13 80.76 7.04 o
5 -7 7 1.45 2.54 4.09 o
6 -7 7 223.17 234.56 9.40 o
7 -7 7 237.28 224.49 8.34 o
-6 -6 7 16.18 16.59 6.71 o
-5 -6 7 87.23 80.13 7.30 o
-4 -6 7 37.73 29.93 4.13 o
-3 -6 7 106.99 137.34 7.67 o
-2 -6 7 11.92 10.91 2.43 o
-1 -6 7 83.07 88.25 4.35 o
0 -6 7 1015.06 1008.77 13.47 o
1 -6 7 5.54 5.65 0.94 o
2 -6 7 647.52 610.26 7.78 o
3 -6 7 75.29 74.31 2.76 o
4 -6 7 1.48 0.63 1.88 o
5 -6 7 178.53 186.92 5.94 o
6 -6 7 2.24 2.47 2.85 o
7 -6 7 3.10 7.11 7.34 o
-6 -5 7 0.34 0.52 4.35 o
-5 -5 7 410.09 430.15 12.83 o
-4 -5 7 163.40 155.30 4.48 o
-3 -5 7 378.33 351.49 6.58 o
-2 -5 7 408.30 414.26 9.96 o
-1 -5 7 339.15 320.22 4.31 o
0 -5 7 2.06 1.86 0.80 o
1 -5 7 375.71 355.17 4.81 o
2 -5 7 83.71 94.42 2.50 o
3 -5 7 24.94 28.29 1.84 o
4 -5 7 14.43 13.93 1.54 o
5 -5 7 212.57 214.51 6.18 o
6 -5 7 310.80 311.54 14.56 o
7 -5 7 2.81 1.82 2.65 o
-7 -4 7 17.82 8.70 5.60 o
-6 -4 7 5.89 2.80 3.98 o
-5 -4 7 11.94 21.38 3.91 o
-4 -4 7 46.70 38.55 2.79 o
-3 -4 7 121.99 122.16 3.52 o
-2 -4 7 334.39 320.72 5.74 o
-1 -4 7 1202.48 1212.02 12.57 o
0 -4 7 672.80 705.18 6.89 o
1 -4 7 173.92 161.86 2.95 o
2 -4 7 94.39 89.52 2.31 o
3 -4 7 202.52 202.80 3.72 o
4 -4 7 954.20 981.13 40.22 o
5 -4 7 22.83 25.07 5.97 o
6 -4 7 202.74 199.18 5.00 o
7 -4 7 47.02 44.50 5.22 o
-7 -3 7 19.26 21.68 5.38 o
-6 -3 7 329.52 302.95 10.69 o
-5 -3 7 33.03 35.61 4.13 o
-4 -3 7 26.61 21.60 1.82 o
-3 -3 7 10.66 11.10 1.49 o
-2 -3 7 251.06 266.61 3.85 o
-1 -3 7 304.88 305.31 4.74 o
0 -3 7 136.03 141.26 2.52 o
1 -3 7 707.73 712.87 15.71 o
2 -3 7 168.93 180.64 6.27 o
3 -3 7 197.15 208.60 4.31 o
4 -3 7 284.15 295.61 7.18 o
5 -3 7 0.68 3.37 1.62 o
6 -3 7 0.07 1.97 1.95 o
7 -3 7 129.59 126.03 6.38 o
-7 -2 7 14.90 8.85 4.50 o
-6 -2 7 171.47 175.87 4.89 o
-5 -2 7 5.01 6.08 1.88 o
-4 -2 7 36.76 34.98 1.50 o
-3 -2 7 752.25 745.86 10.35 o
-2 -2 7 1333.50 1323.67 23.91 o
-1 -2 7 107.83 117.55 2.99 o
0 -2 7 1346.80 1364.41 35.55 o
1 -2 7 620.52 668.10 16.78 o
2 -2 7 321.13 316.41 8.48 o
3 -2 7 1470.47 1480.35 19.16 o
4 -2 7 183.74 181.84 4.46 o
5 -2 7 99.26 94.88 3.86 o
6 -2 7 110.61 113.39 6.49 o
7 -2 7 0.03 -2.25 2.95 <
-8 -1 7 48.19 44.01 6.34 o
-7 -1 7 323.75 334.80 7.67 o
-6 -1 7 0.76 -1.03 2.88 <
-5 -1 7 143.49 133.84 5.71 o
-4 -1 7 231.22 213.74 3.56 o
-3 -1 7 406.11 400.05 6.29 o
-2 -1 7 1252.44 1309.47 23.55 o
-1 -1 7 18.54 19.09 1.24 o
0 -1 7 5.53 7.52 1.47 o
1 -1 7 1079.15 1061.25 14.41 o
2 -1 7 967.43 1053.13 20.73 o
3 -1 7 355.49 357.18 9.73 o
4 -1 7 126.38 118.25 3.66 o
5 -1 7 311.70 310.66 6.70 o
6 -1 7 124.71 130.93 5.19 o
7 -1 7 63.38 56.50 4.80 o
-8 0 7 2.88 0.41 3.44 o
-7 0 7 6.50 11.87 2.70 o
-6 0 7 89.87 85.81 7.08 o
-5 0 7 1.81 1.70 1.92 o
-4 0 7 210.38 192.83 3.76 o
-3 0 7 648.13 695.27 9.68 o
-2 0 7 175.12 190.29 5.09 o
-1 0 7 445.03 464.70 9.74 o
0 0 7 31.83 49.09 1.95 o
1 0 7 506.56 502.29 7.80 o
2 0 7 214.80 221.56 4.50 o
3 0 7 71.47 81.65 2.99 o
4 0 7 13.54 13.57 2.14 o
5 0 7 97.55 100.56 4.22 o
6 0 7 90.84 96.87 4.55 o
7 0 7 103.14 108.49 5.26 o
-8 1 7 135.60 137.97 6.64 o
-7 1 7 8.17 13.82 4.09 o
-6 1 7 26.82 26.32 3.47 o
-5 1 7 969.21 957.31 12.95 o
-4 1 7 633.74 650.65 8.34 o
-3 1 7 736.96 724.45 10.22 o
-2 1 7 38.38 35.57 1.95 o
-1 1 7 6.17 8.48 0.83 o
0 1 7 159.69 173.24 2.62 o
1 1 7 16.42 15.50 0.92 o
2 1 7 652.75 656.50 11.61 o
3 1 7 327.95 316.47 5.93 o
4 1 7 8.85 5.35 3.35 o
5 1 7 6.21 8.92 1.87 o
6 1 7 18.87 18.26 3.37 o
7 1 7 0.05 5.51 4.05 o
-8 2 7 10.48 10.87 3.61 o
-7 2 7 33.47 35.54 4.42 o
-6 2 7 2.51 2.88 1.59 o
-5 2 7 245.58 245.02 4.11 o
-4 2 7 3.48 3.07 1.00 o
-3 2 7 383.35 368.99 4.85 o
-2 2 7 0.71 2.51 0.83 o
-1 2 7 82.07 69.93 1.96 o
0 2 7 430.20 445.50 4.79 o
1 2 7 498.76 508.08 4.86 o
2 2 7 260.45 245.97 3.42 o
3 2 7 0.08 0.88 1.14 o
4 2 7 126.43 115.67 3.45 o
5 2 7 222.06 213.04 5.86 o
6 2 7 106.62 117.73 4.80 o
-8 3 7 59.15 67.53 6.64 o
-7 3 7 151.26 144.42 7.67 o
-6 3 7 44.26 44.52 2.90 o
-5 3 7 26.39 34.38 1.97 o
-4 3 7 511.11 455.43 36.20 o
-3 3 7 2.09 4.02 1.25 o
-2 3 7 677.91 741.23 20.62 o
-1 3 7 122.78 116.43 2.37 o
0 3 7 78.05 71.91 1.54 o
1 3 7 133.64 132.95 2.22 o
2 3 7 14.77 16.27 1.58 o
3 3 7 51.97 48.78 2.52 o
4 3 7 64.28 76.78 3.98 o
5 3 7 7.73 7.96 2.58 o
6 3 7 37.25 43.31 3.89 o
-8 4 7 0.47 3.69 4.72 o
-7 4 7 36.05 44.26 3.38 o
-6 4 7 296.71 319.10 6.75 o
-5 4 7 31.53 35.50 2.48 o
-4 4 7 150.24 156.15 4.33 o
-3 4 7 220.87 206.81 4.85 o
-2 4 7 372.60 386.46 9.88 o
-1 4 7 353.67 349.29 9.37 o
0 4 7 180.07 191.39 3.45 o
1 4 7 71.17 69.47 2.54 o
2 4 7 46.68 41.43 2.37 o
3 4 7 8.10 5.71 2.06 o
4 4 7 176.48 183.16 5.39 o
5 4 7 3.04 -1.33 2.79 <
6 4 7 9.85 16.40 3.97 o
-8 5 7 100.14 109.04 9.22 o
-7 5 7 0.01 6.89 3.72 o
-6 5 7 215.34 210.56 5.83 o
-5 5 7 2.48 3.98 1.92 o
-4 5 7 89.84 87.66 3.65 o
-3 5 7 429.29 449.32 8.89 o
-2 5 7 542.92 516.36 8.89 o
-1 5 7 740.26 693.81 15.56 o
0 5 7 157.82 170.03 7.74 o
1 5 7 22.71 23.67 4.05 o
2 5 7 56.53 60.63 3.49 o
3 5 7 120.57 116.51 4.82 o
4 5 7 13.00 13.23 2.92 o
5 5 7 86.01 96.28 6.05 o
-7 6 7 186.53 182.47 6.22 o
-6 6 7 22.75 29.60 3.01 o
-5 6 7 35.21 33.99 2.75 o
-4 6 7 154.86 148.00 9.62 o
-3 6 7 205.11 214.10 13.35 o
-2 6 7 262.09 258.49 5.89 o
-1 6 7 145.98 143.39 6.34 o
0 6 7 1.84 2.75 2.31 o
1 6 7 127.24 108.30 11.13 o
2 6 7 0.97 0.55 2.24 o
3 6 7 256.29 265.56 7.12 o
4 6 7 56.29 51.49 4.22 o
-7 7 7 238.34 230.91 10.40 o
-6 7 7 21.68 22.60 3.29 o
-5 7 7 166.79 151.91 5.55 o
-4 7 7 171.40 172.07 5.50 o
-3 7 7 78.63 78.48 4.12 o
-2 7 7 3.89 5.53 2.03 o
-1 7 7 399.58 378.96 10.88 o
0 7 7 7.63 8.00 2.46 o
1 7 7 5.02 7.59 2.48 o
2 7 7 0.26 1.51 2.68 o
3 7 7 55.10 50.38 4.25 o
4 7 7 14.07 13.68 4.83 o
-6 8 7 123.82 122.93 18.40 o
-5 8 7 8.13 10.73 2.97 o
-4 8 7 34.31 28.79 3.87 o
-3 8 7 42.78 43.86 3.55 o
-2 8 7 12.59 13.45 2.58 o
-1 8 7 52.00 46.26 3.52 o
0 8 7 41.98 42.63 3.04 o
1 8 7 96.67 100.56 6.78 o
2 8 7 212.68 221.80 8.22 o
3 8 7 32.57 34.98 4.62 o
-6 9 7 26.99 21.01 7.23 o
-5 9 7 186.97 195.81 7.72 o
-4 9 7 0.04 -1.99 2.63 <
-3 9 7 6.14 3.13 6.16 o
-2 9 7 7.14 8.77 3.00 o
-1 9 7 8.45 7.08 5.53 o
0 9 7 154.27 171.83 5.63 o
1 9 7 32.49 37.15 3.71 o
2 9 7 8.88 18.62 4.62 o
-5 10 7 12.67 11.80 4.22 o
-4 10 7 39.53 41.72 6.78 o
-3 10 7 66.34 73.46 5.11 o
-2 10 7 9.26 1.51 3.60 o
-1 10 7 4.43 8.55 5.01 o
0 10 7 0.16 4.99 3.65 o
1 -12 8 50.41 42.72 5.48 o
2 -12 8 24.64 24.81 5.51 o
-1 -11 8 93.54 105.83 7.40 o
0 -11 8 1.07 -0.29 4.79 <
1 -11 8 5.65 4.35 2.93 o
2 -11 8 159.32 164.22 6.88 o
3 -11 8 150.35 164.73 12.94 o
4 -11 8 5.02 6.49 4.57 o
-2 -10 8 36.18 38.26 6.56 o
-1 -10 8 21.86 17.62 6.41 o
0 -10 8 154.54 150.40 6.26 o
1 -10 8 136.19 140.00 4.65 o
2 -10 8 367.58 369.17 13.13 o
3 -10 8 0.75 5.93 6.67 o
4 -10 8 0.82 4.09 3.44 o
5 -10 8 4.62 9.36 5.60 o
-4 -9 8 100.11 130.04 13.05 o
-3 -9 8 28.73 25.73 5.60 o
-2 -9 8 76.64 76.01 7.59 o
-1 -9 8 124.54 129.71 10.80 o
0 -9 8 107.74 110.22 4.70 o
1 -9 8 11.60 10.54 2.71 o
2 -9 8 14.57 17.44 2.81 o
3 -9 8 44.18 48.43 3.81 o
4 -9 8 9.65 8.33 3.05 o
5 -9 8 416.80 425.47 13.16 o
6 -9 8 7.69 9.29 5.90 o
-4 -8 8 64.93 63.47 6.64 o
-3 -8 8 8.31 13.79 4.20 o
-2 -8 8 35.22 26.76 4.13 o
-1 -8 8 53.29 52.56 4.00 o
0 -8 8 149.66 132.26 3.67 o
1 -8 8 82.37 80.80 3.20 o
2 -8 8 35.66 36.42 3.61 o
3 -8 8 12.81 14.56 2.76 o
4 -8 8 23.09 27.09 3.26 o
5 -8 8 18.42 18.91 3.65 o
6 -8 8 5.91 8.55 4.72 o
-5 -7 8 6.37 5.97 5.16 o
-4 -7 8 24.10 10.69 4.13 o
-3 -7 8 18.57 19.24 3.91 o
-2 -7 8 99.15 100.41 5.68 o
-1 -7 8 643.89 630.60 10.60 o
0 -7 8 4.74 6.21 1.51 o
1 -7 8 184.42 156.89 5.96 o
2 -7 8 2.04 4.89 1.67 o
3 -7 8 36.43 27.28 4.05 o
4 -7 8 249.84 237.48 6.57 o
5 -7 8 43.45 43.68 3.86 o
6 -7 8 330.09 361.12 9.54 o
7 -7 8 38.03 46.03 5.11 o
-6 -6 8 97.81 109.85 10.10 o
-5 -6 8 32.65 37.00 5.31 o
-4 -6 8 15.77 13.93 3.83 o
-3 -6 8 179.36 175.25 6.93 o
-2 -6 8 4.23 3.39 2.36 o
-1 -6 8 1149.65 1133.72 21.84 o
0 -6 8 206.70 194.90 3.78 o
1 -6 8 8.13 9.27 1.47 o
2 -6 8 2.66 1.45 1.38 o
3 -6 8 487.22 449.51 6.61 o
4 -6 8 114.49 104.84 10.32 o
5 -6 8 378.51 368.25 11.25 o
6 -6 8 25.16 22.78 3.68 o
7 -6 8 22.63 15.24 3.27 o
-6 -5 8 5.80 5.90 4.87 o
-5 -5 8 87.58 93.63 7.08 o
-4 -5 8 16.66 16.22 3.39 o
-3 -5 8 0.01 3.10 2.43 o
-2 -5 8 17.75 21.31 2.58 o
-1 -5 8 825.18 796.23 10.45 o
0 -5 8 720.97 694.38 7.08 o
1 -5 8 10.42 11.87 1.27 o
2 -5 8 182.22 161.59 3.30 o
3 -5 8 366.39 396.52 7.51 o
4 -5 8 27.10 25.71 3.16 o
5 -5 8 14.73 10.54 2.66 o
6 -5 8 86.00 90.66 4.26 o
7 -5 8 0.19 -2.48 3.75 <
-7 -4 8 178.43 200.01 11.80 o
-6 -4 8 0.04 3.02 4.05 o
-5 -4 8 14.03 16.22 3.83 o
-4 -4 8 243.53 228.52 7.34 o
-3 -4 8 1.16 3.94 1.78 o
-2 -4 8 746.30 726.86 9.96 o
-1 -4 8 682.62 682.51 8.00 o
0 -4 8 660.13 669.63 10.05 o
1 -4 8 33.92 35.02 3.69 o
2 -4 8 122.89 122.16 5.60 o
3 -4 8 160.06 157.62 3.35 o
4 -4 8 227.35 215.85 4.36 o
5 -4 8 140.46 140.98 4.03 o
6 -4 8 11.52 14.67 2.39 o
7 -4 8 47.09 45.33 5.16 o
-6 -3 8 0.55 2.06 3.61 o
-5 -3 8 141.17 154.15 7.23 o
-4 -3 8 8.70 6.05 1.64 o
-3 -3 8 403.47 389.21 5.10 o
-2 -3 8 89.36 83.14 2.26 o
-1 -3 8 9.24 10.27 1.12 o
0 -3 8 399.19 385.99 5.01 o
1 -3 8 447.40 470.12 11.36 o
2 -3 8 996.41 974.10 20.22 o
3 -3 8 3.46 -0.37 2.21 <
4 -3 8 118.06 112.21 2.88 o
5 -3 8 201.86 203.44 5.36 o
6 -3 8 25.87 18.21 2.93 o
7 -3 8 84.47 85.52 6.93 o
-7 -2 8 103.67 106.01 8.63 o
-6 -2 8 46.97 47.21 5.35 o
-5 -2 8 150.91 138.30 4.50 o
-4 -2 8 7.87 8.57 1.22 o
-3 -2 8 137.02 151.87 3.41 o
-2 -2 8 13.70 13.27 1.84 o
-1 -2 8 456.22 451.99 7.18 o
0 -2 8 29.57 26.21 1.95 o
1 -2 8 14.61 14.01 2.21 o
2 -2 8 22.66 28.24 3.17 o
3 -2 8 861.24 835.20 18.22 o
4 -2 8 211.41 204.55 4.81 o
5 -2 8 59.13 61.52 3.72 o
6 -2 8 316.40 317.59 7.58 o
7 -2 8 140.20 131.37 6.54 o
-7 -1 8 1.83 2.65 2.80 o
-6 -1 8 40.77 36.46 3.13 o
-5 -1 8 256.93 261.21 5.48 o
-4 -1 8 247.69 246.97 3.89 o
-3 -1 8 2.03 6.49 1.70 o
-2 -1 8 40.75 47.66 2.06 o
-1 -1 8 501.33 530.52 7.60 o
0 -1 8 148.41 153.28 5.09 o
2 -1 8 135.19 114.71 5.16 o
3 -1 8 20.83 23.41 1.80 o
4 -1 8 12.22 15.85 3.98 o
5 -1 8 26.42 26.61 2.69 o
6 -1 8 101.39 96.32 5.12 o
7 -1 8 13.18 14.12 10.58 o
-7 0 8 44.29 43.64 3.72 o
-6 0 8 331.21 330.27 7.03 o
-5 0 8 45.19 47.79 2.08 o
-4 0 8 359.27 385.56 8.55 o
-3 0 8 742.53 769.67 10.77 o
-2 0 8 132.43 129.39 4.35 o
-1 0 8 1262.88 1351.74 19.60 o
0 0 8 128.29 160.94 3.62 o
1 0 8 224.76 227.17 6.64 o
2 0 8 140.71 137.87 5.60 o
3 0 8 955.47 940.57 13.13 o
4 0 8 1051.55 1038.40 14.88 o
5 0 8 186.21 185.05 5.49 o
6 0 8 6.53 2.54 4.76 o
7 0 8 48.07 53.59 3.87 o
-8 1 8 2.11 1.14 3.60 o
-7 1 8 4.29 4.83 2.66 o
-6 1 8 1.77 -1.11 2.58 <
-5 1 8 60.40 54.81 3.94 o
-4 1 8 1.52 0.46 1.11 o
-3 1 8 38.09 36.25 1.71 o
-2 1 8 8.32 12.02 1.70 o
-1 1 8 65.36 80.01 1.95 o
0 1 8 1269.45 1270.86 13.23 o
1 1 8 78.65 79.18 2.34 o
2 1 8 239.78 236.49 4.98 o
3 1 8 179.53 189.03 4.52 o
4 1 8 182.82 192.42 8.18 o
5 1 8 212.12 214.86 5.00 o
6 1 8 100.52 108.99 4.78 o
-8 2 8 40.68 38.56 4.40 o
-7 2 8 778.37 782.95 18.07 o
-6 2 8 13.04 12.83 5.23 o
-5 2 8 210.23 212.68 6.76 o
-4 2 8 95.43 91.47 4.22 o
-3 2 8 354.85 399.60 5.61 o
-2 2 8 647.89 656.95 7.66 o
-1 2 8 164.39 188.55 3.87 o
0 2 8 65.84 72.23 3.37 o
1 2 8 70.68 64.21 1.98 o
2 2 8 87.82 98.26 2.28 o
3 2 8 211.13 197.44 4.02 o
4 2 8 125.53 134.42 3.83 o
5 2 8 5.33 7.72 2.37 o
6 2 8 6.89 10.12 2.95 o
-8 3 8 196.22 197.87 10.25 o
-7 3 8 2.80 7.45 3.83 o
-6 3 8 2.33 5.93 2.37 o
-5 3 8 119.45 115.87 3.11 o
-4 3 8 92.53 121.05 3.78 o
-3 3 8 654.45 601.07 10.03 o
-2 3 8 973.70 982.10 19.85 o
-1 3 8 443.87 431.17 5.64 o
0 3 8 11.23 11.93 1.08 o
1 3 8 4.11 3.80 1.12 o
2 3 8 206.27 216.00 4.15 o
3 3 8 42.79 37.96 2.46 o
4 3 8 353.57 355.48 6.33 o
5 3 8 77.57 84.68 4.28 o
6 3 8 47.27 60.19 5.86 o
-7 4 8 93.66 99.16 4.85 o
-6 4 8 145.61 142.54 4.92 o
-5 4 8 18.77 21.68 2.43 o
-4 4 8 171.58 166.84 4.56 o
-3 4 8 171.11 180.23 4.69 o
-2 4 8 1.52 3.10 2.06 o
-1 4 8 66.46 62.22 4.42 o
0 4 8 54.27 48.31 2.12 o
1 4 8 221.79 215.14 5.45 o
2 4 8 580.85 560.59 7.76 o
3 4 8 1.23 3.76 2.26 o
4 4 8 162.08 174.10 5.79 o
5 4 8 0.03 1.81 3.29 o
-7 5 8 6.53 7.23 2.95 o
-6 5 8 0.03 -0.29 2.34 <
-5 5 8 81.62 89.42 4.12 o
-4 5 8 56.24 50.46 3.36 o
-3 5 8 1.04 3.65 2.03 o
-2 5 8 496.17 488.89 8.98 o
-1 5 8 4.25 3.32 2.58 o
0 5 8 134.53 127.89 3.24 o
1 5 8 10.27 13.12 3.91 o
2 5 8 0.71 2.43 2.43 o
3 5 8 24.63 25.55 4.02 o
4 5 8 84.98 80.65 5.40 o
5 5 8 89.75 95.25 6.70 o
-7 6 8 1.54 -0.63 5.42 <
-6 6 8 69.08 64.06 4.56 o
-5 6 8 40.32 50.64 3.58 o
-4 6 8 508.42 516.75 9.59 o
-3 6 8 12.69 11.35 2.22 o
-2 6 8 3.80 0.15 1.84 o
-1 6 8 20.10 16.29 3.24 o
0 6 8 21.63 22.04 4.28 o
1 6 8 704.03 702.75 12.02 o
2 6 8 12.56 10.69 2.63 o
3 6 8 284.71 310.02 14.60 o
4 6 8 1.31 8.07 4.83 o
-7 7 8 17.92 18.17 3.99 o
-6 7 8 136.18 144.68 10.73 o
-5 7 8 34.50 34.32 4.24 o
-4 7 8 197.33 194.56 5.99 o
-3 7 8 1.05 3.50 2.14 o
-2 7 8 55.53 55.29 4.04 o
-1 7 8 152.04 152.09 11.13 o
0 7 8 59.12 64.06 4.25 o
1 7 8 282.57 294.25 7.59 o
2 7 8 3.32 6.19 3.10 o
3 7 8 29.60 33.99 4.12 o
-6 8 8 1.23 1.25 5.53 o
-5 8 8 7.93 12.02 3.28 o
-4 8 8 300.20 294.88 7.87 o
-3 8 8 159.78 147.85 5.87 o
-2 8 8 1.09 5.93 2.58 o
-1 8 8 117.40 105.72 5.42 o
0 8 8 118.79 121.34 7.37 o
1 8 8 1.77 8.66 3.41 o
2 8 8 20.33 26.36 4.22 o
-5 9 8 736.95 717.77 24.23 o
-4 9 8 7.95 3.98 3.21 o
-3 9 8 45.61 43.46 7.41 o
-2 9 8 68.19 75.42 6.19 o
-1 9 8 29.60 29.60 3.94 o
0 9 8 22.81 26.34 3.31 o
1 9 8 28.05 30.30 4.62 o
-4 10 8 32.44 32.81 6.19 o
-3 10 8 3.90 8.29 3.86 o
-2 10 8 39.14 41.57 6.77 o
-1 10 8 40.26 30.15 6.71 o
-1 -11 9 50.73 66.49 7.67 o
0 -11 9 42.78 49.39 6.05 o
1 -11 9 16.83 17.14 4.63 o
2 -11 9 178.95 210.48 7.84 o
3 -11 9 92.91 108.08 9.22 o
4 -11 9 82.76 80.43 6.00 o
-2 -10 9 5.92 4.42 4.07 o
-1 -10 9 9.64 13.42 5.16 o
0 -10 9 116.78 117.21 6.40 o
1 -10 9 1.96 -2.03 3.26 <
2 -10 9 62.90 75.42 4.99 o
3 -10 9 45.20 53.08 4.94 o
4 -10 9 24.76 35.20 8.52 o
5 -10 9 12.68 23.63 8.52 o
-3 -9 9 5.47 1.55 5.09 o
-2 -9 9 138.55 126.80 8.26 o
-1 -9 9 9.70 3.35 4.98 o
0 -9 9 33.48 33.73 3.68 o
1 -9 9 4.45 2.06 2.74 o
2 -9 9 0.78 0.18 2.68 o
3 -9 9 229.79 233.27 7.19 o
4 -9 9 79.76 78.92 5.90 o
5 -9 9 36.62 33.03 8.70 o
-4 -8 9 2.20 2.58 5.01 o
-3 -8 9 2.81 6.78 4.20 o
-2 -8 9 225.95 234.45 9.07 o
-1 -8 9 4.24 4.53 2.48 o
0 -8 9 28.50 27.02 2.90 o
1 -8 9 0.18 -0.22 2.15 <
2 -8 9 236.04 244.88 6.46 o
3 -8 9 147.54 143.91 6.27 o
4 -8 9 76.31 78.22 5.37 o
5 -8 9 0.11 -1.81 3.36 <
6 -8 9 12.40 13.20 4.73 o
-5 -7 9 0.00 -6.27 5.23 <
-4 -7 9 0.25 -2.80 4.05 <
-3 -7 9 70.73 71.58 6.27 o
-2 -7 9 20.97 23.15 3.61 o
-1 -7 9 0.93 0.18 2.03 o
0 -7 9 10.29 10.00 1.82 o
1 -7 9 194.36 197.58 4.24 o
2 -7 9 230.59 219.01 5.88 o
3 -7 9 4.22 3.24 2.36 o
4 -7 9 1.17 2.73 6.49 o
5 -7 9 103.93 114.74 6.08 o
6 -7 9 106.01 108.37 7.06 o
-5 -6 9 134.95 150.91 9.29 o
-4 -6 9 0.00 2.29 3.32 o
-3 -6 9 80.68 98.12 5.60 o
-2 -6 9 292.08 306.27 8.77 o
-1 -6 9 30.71 29.91 1.89 o
0 -6 9 207.69 201.64 3.34 o
1 -6 9 25.50 24.40 1.59 o
2 -6 9 98.50 74.83 3.28 o
3 -6 9 152.39 172.96 5.99 o
4 -6 9 0.49 -0.74 2.22 <
5 -6 9 65.28 63.32 8.63 o
6 -6 9 15.99 8.31 2.74 o
-6 -5 9 0.99 10.17 5.23 o
-5 -5 9 142.82 144.42 8.18 o
-4 -5 9 175.82 193.08 7.96 o
-3 -5 9 242.82 240.65 7.96 o
-2 -5 9 1.00 0.37 2.06 o
-1 -5 9 844.30 804.99 9.49 o
0 -5 9 834.51 813.48 9.57 o
1 -5 9 461.19 483.66 7.86 o
3 -5 9 310.49 273.39 9.44 o
4 -5 9 32.51 32.73 3.07 o
5 -5 9 1.63 4.35 1.98 o
6 -5 9 844.93 836.44 13.87 o
7 -5 9 17.79 13.20 6.05 o
-6 -4 9 80.15 79.32 7.96 o
-5 -4 9 0.00 -1.25 3.24 <
-4 -4 9 0.24 -0.81 1.99 <
-3 -4 9 137.67 139.71 5.68 o
-2 -4 9 57.33 51.38 2.57 o
-1 -4 9 313.96 299.87 4.51 o
0 -4 9 63.42 65.54 3.69 o
1 -4 9 748.98 727.60 16.38 o
2 -4 9 6.82 7.37 2.73 o
3 -4 9 290.87 286.15 9.22 o
4 -4 9 75.70 90.38 6.49 o
5 -4 9 58.82 53.48 5.86 o
6 -4 9 266.19 255.83 7.05 o
7 -4 9 8.95 6.27 5.97 o
-7 -3 9 107.51 106.75 9.73 o
-6 -3 9 211.00 209.15 9.59 o
-5 -3 9 603.89 578.71 14.75 o
-4 -3 9 490.41 475.01 8.62 o
-3 -3 9 35.08 41.94 2.24 o
-2 -3 9 16.78 16.68 3.02 o
-1 -3 9 21.77 25.21 2.07 o
0 -3 9 2069.65 2140.17 39.42 o
1 -3 9 112.94 113.24 5.46 o
2 -3 9 349.09 309.47 9.14 o
4 -3 9 3.61 3.10 2.95 o
5 -3 9 490.47 477.84 8.80 o
6 -3 9 42.55 45.19 3.83 o
7 -3 9 8.31 7.15 5.60 o
-7 -2 9 28.10 31.33 5.90 o
-6 -2 9 47.45 51.75 3.49 o
-5 -2 9 148.38 162.04 4.49 o
-4 -2 9 4.57 4.37 1.11 o
-3 -2 9 268.80 254.04 4.80 o
-2 -2 9 473.46 447.21 7.21 o
-1 -2 9 4.36 3.02 2.06 o
0 -2 9 1031.53 976.06 19.70 o
1 -2 9 88.16 93.26 4.79 o
2 -2 9 3.54 1.40 1.99 o
3 -2 9 838.71 835.88 18.66 o
4 -2 9 40.93 49.20 3.01 o
5 -2 9 139.67 140.33 4.84 o
6 -2 9 46.80 44.15 3.78 o
7 -2 9 0.27 -1.03 5.46 <
-7 -1 9 42.52 37.08 5.38 o
-6 -1 9 193.40 197.28 5.48 o
-5 -1 9 7.50 3.32 2.80 o
-4 -1 9 18.55 25.78 1.65 o
-3 -1 9 182.74 190.91 4.17 o
-2 -1 9 128.22 126.99 3.13 o
-1 -1 9 734.00 743.90 15.60 o
1 -1 9 25.56 22.27 2.80 o
2 -1 9 10.54 10.91 2.58 o
3 -1 9 32.43 42.09 4.35 o
4 -1 9 102.67 104.72 3.74 o
5 -1 9 14.63 11.17 2.57 o
6 -1 9 25.42 24.48 3.34 o
-7 0 9 36.16 45.22 3.94 o
-6 0 9 187.12 200.23 8.92 o
-5 0 9 145.26 142.23 3.34 o
-4 0 9 28.13 30.63 2.29 o
-3 0 9 739.98 717.48 10.41 o
-2 0 9 92.82 82.35 3.83 o
-1 0 9 25.98 19.80 1.52 o
0 0 9 84.50 78.37 3.10 o
1 0 9 48.25 47.99 3.61 o
2 0 9 1186.72 1155.56 23.24 o
3 0 9 732.14 725.85 16.74 o
4 0 9 131.16 131.81 4.34 o
5 0 9 35.78 44.93 3.64 o
6 0 9 20.14 21.06 3.29 o
-7 1 9 15.90 20.20 4.35 o
-6 1 9 1.95 -0.22 2.88 <
-5 1 9 110.37 115.74 3.61 o
-4 1 9 14.36 15.41 2.65 o
-3 1 9 1684.33 1730.60 18.16 o
-2 1 9 60.15 56.32 2.04 o
-1 1 9 92.37 94.74 2.29 o
0 1 9 349.72 328.47 4.59 o
1 1 9 6.60 5.38 3.47 o
2 1 9 0.41 -0.88 2.06 <
3 1 9 638.80 674.22 15.16 o
4 1 9 4.84 7.13 1.98 o
5 1 9 12.51 11.52 2.68 o
6 1 9 11.82 12.57 3.50 o
-7 2 9 74.63 86.03 7.30 o
-6 2 9 11.08 15.00 2.23 o
-5 2 9 1.27 0.44 1.70 o
-4 2 9 101.81 113.68 2.34 o
-3 2 9 202.48 190.54 4.56 o
-2 2 9 307.86 317.55 5.24 o
-1 2 9 461.22 454.94 5.89 o
0 2 9 1040.02 1028.35 9.88 o
1 2 9 444.02 448.70 6.10 o
2 2 9 72.23 71.01 2.43 o
3 2 9 741.18 721.65 9.34 o
4 2 9 34.71 32.56 2.59 o
5 2 9 0.01 0.37 2.31 o
6 2 9 214.68 225.57 8.10 o
-7 3 9 23.69 19.54 4.64 o
-6 3 9 74.35 74.42 3.96 o
-5 3 9 50.99 53.08 4.94 o
-4 3 9 376.44 389.09 10.10 o
-3 3 9 386.51 369.97 7.01 o
-2 3 9 37.03 35.31 3.61 o
-1 3 9 285.33 265.98 6.41 o
0 3 9 47.35 44.52 3.20 o
1 3 9 45.08 46.99 2.68 o
2 3 9 557.60 561.00 10.04 o
3 3 9 1.10 -0.37 1.62 <
4 3 9 5.04 1.40 2.13 o
5 3 9 13.66 18.43 5.79 o
-7 4 9 81.34 80.36 7.52 o
-6 4 9 37.33 43.42 3.19 o
-5 4 9 68.60 68.49 3.86 o
-4 4 9 56.28 48.36 3.54 o
-3 4 9 398.38 405.32 7.69 o
-2 4 9 39.04 37.89 4.20 o
0 4 9 1277.92 1213.83 13.50 o
1 4 9 168.06 163.15 7.76 o
2 4 9 172.70 181.68 4.23 o
3 4 9 24.98 25.38 2.46 o
4 4 9 8.69 15.33 4.20 o
5 4 9 149.03 150.69 8.11 o
-7 5 9 26.42 31.37 5.07 o
-6 5 9 142.96 152.57 6.38 o
-5 5 9 182.24 171.96 5.45 o
-4 5 9 52.08 43.20 3.16 o
-3 5 9 0.44 -1.22 1.80 <
-2 5 9 0.01 2.95 2.65 o
-1 5 9 0.52 1.40 2.43 o
0 5 9 103.72 99.67 4.64 o
1 5 9 8.42 7.85 2.24 o
2 5 9 72.21 67.23 4.21 o
3 5 9 42.86 45.37 3.79 o
4 5 9 10.81 15.85 3.60 o
-7 6 9 6.54 2.25 3.55 o
-6 6 9 95.46 108.11 5.53 o
-5 6 9 0.03 2.58 2.45 o
-4 6 9 174.53 161.57 5.45 o
-3 6 9 49.69 49.54 3.68 o
-2 6 9 2.16 -0.52 1.96 <
-1 6 9 157.76 163.82 7.89 o
0 6 9 78.90 74.83 6.12 o
1 6 9 18.15 21.56 2.66 o
2 6 9 30.87 31.41 6.33 o
3 6 9 42.50 59.93 4.44 o
4 6 9 29.58 36.27 6.19 o
-6 7 9 356.03 369.68 12.68 o
-5 7 9 226.51 229.58 7.07 o
-4 7 9 51.73 50.16 3.86 o
-3 7 9 0.23 -0.44 2.51 <
-2 7 9 0.17 -0.48 3.35 <
-1 7 9 130.47 130.23 7.19 o
0 7 9 22.02 29.93 4.72 o
1 7 9 6.66 5.86 3.07 o
2 7 9 1.84 5.05 3.47 o
3 7 9 1.37 2.40 4.17 o
-5 8 9 117.51 99.56 6.82 o
-4 8 9 100.33 86.81 5.63 o
-3 8 9 105.21 89.68 5.60 o
-2 8 9 0.56 -2.84 2.76 <
-1 8 9 9.61 8.96 3.07 o
0 8 9 16.96 12.39 4.79 o
1 8 9 51.97 55.88 5.68 o
2 8 9 18.12 19.35 8.81 o
-4 9 9 74.48 89.20 7.82 o
-3 9 9 18.91 23.96 6.56 o
-2 9 9 32.62 29.38 11.10 o
-1 9 9 45.94 42.97 5.85 o
0 9 9 0.20 9.33 4.70 o
0 -11 10 0.54 6.05 4.53 o
1 -11 10 34.54 31.52 7.85 o
2 -11 10 16.04 9.73 6.41 o
3 -11 10 9.72 12.39 4.60 o
-2 -10 10 0.48 0.44 5.38 o
-1 -10 10 0.49 5.79 4.12 o
0 -10 10 1.73 2.21 3.61 o
1 -10 10 15.97 15.04 3.73 o
2 -10 10 251.27 251.33 12.17 o
3 -10 10 54.63 51.45 4.74 o
4 -10 10 5.34 2.03 4.03 o
-3 -9 10 14.03 8.70 5.75 o
-2 -9 10 214.35 232.23 10.47 o
-1 -9 10 2.99 2.10 3.05 o
0 -9 10 12.72 10.91 4.13 o
1 -9 10 249.35 257.01 7.26 o
2 -9 10 322.54 339.30 12.90 o
3 -9 10 49.68 40.87 4.07 o
4 -9 10 0.16 -0.88 6.27 <
5 -9 10 31.92 38.85 5.51 o
-4 -8 10 137.05 151.79 10.62 o
-3 -8 10 5.28 9.22 4.64 o
-2 -8 10 49.85 51.49 4.08 o
-1 -8 10 19.77 18.58 2.99 o
0 -8 10 39.01 36.72 3.32 o
1 -8 10 79.02 69.74 6.49 o
2 -8 10 432.02 446.68 13.94 o
3 -8 10 14.10 16.77 3.18 o
4 -8 10 13.13 18.43 3.91 o
5 -8 10 16.63 24.29 4.17 o
-4 -7 10 230.64 259.36 10.76 o
-3 -7 10 128.85 137.12 7.67 o
-2 -7 10 0.23 -0.33 2.32 <
-1 -7 10 203.26 205.43 5.87 o
0 -7 10 243.97 236.41 9.70 o
1 -7 10 232.78 243.82 9.81 o
2 -7 10 153.19 143.54 7.89 o
3 -7 10 63.15 64.65 6.93 o
4 -7 10 25.52 27.09 3.50 o
5 -7 10 76.39 81.50 10.51 o
6 -7 10 34.22 32.92 6.82 o
-5 -6 10 20.09 16.88 5.23 o
-4 -6 10 82.71 78.07 6.86 o
-3 -6 10 0.01 -4.35 2.80 <
-2 -6 10 2.61 4.68 2.16 o
-1 -6 10 128.83 125.99 3.36 o
0 -6 10 1.03 2.03 1.67 o
1 -6 10 2.89 5.23 2.36 o
2 -6 10 216.11 190.43 8.41 o
3 -6 10 52.51 55.29 6.19 o
4 -6 10 2.16 3.61 3.91 o
5 -6 10 96.84 99.01 8.77 o
6 -6 10 16.46 19.39 6.86 o
-5 -5 10 98.19 104.02 8.04 o
-4 -5 10 69.23 78.66 6.34 o
-3 -5 10 27.88 23.96 3.47 o
-2 -5 10 138.75 134.03 4.42 o
-1 -5 10 433.04 412.68 7.21 o
0 -5 10 250.12 241.09 6.19 o
1 -5 10 722.57 652.17 15.78 o
2 -5 10 87.07 72.47 5.75 o
3 -5 10 4.40 3.10 3.10 o
4 -5 10 126.89 139.55 8.04 o
5 -5 10 162.36 170.45 9.58 o
6 -5 10 6.36 6.05 7.30 o
-6 -4 10 85.10 81.54 8.55 o
-5 -4 10 30.77 31.26 4.87 o
-4 -4 10 111.73 105.35 5.97 o
-3 -4 10 17.84 20.20 3.02 o
-2 -4 10 642.55 612.41 18.47 o
-1 -4 10 1.32 1.30 1.28 o
0 -4 10 127.85 118.91 6.05 o
1 -4 10 8.71 7.23 2.58 o
2 -4 10 573.47 558.82 14.23 o
3 -4 10 161.69 149.59 7.37 o
4 -4 10 387.16 384.74 12.46 o
5 -4 10 83.39 92.59 8.48 o
6 -4 10 46.94 52.93 7.00 o
-6 -3 10 82.56 101.15 8.26 o
-5 -3 10 3.80 5.75 3.39 o
-4 -3 10 1.23 0.37 1.70 o
-3 -3 10 7.56 10.91 1.45 o
-2 -3 10 1353.71 1325.07 14.45 o
-1 -3 10 1391.65 1417.35 18.55 o
0 -3 10 42.18 46.81 4.35 o
1 -3 10 8.59 5.60 2.51 o
2 -3 10 242.34 271.69 9.07 o
3 -3 10 52.71 39.73 4.50 o
4 -3 10 24.80 37.96 4.72 o
5 -3 10 0.01 4.72 4.35 o
6 -3 10 64.60 72.69 7.52 o
-7 -2 10 111.33 91.49 10.84 o
-6 -2 10 32.58 40.47 5.31 o
-5 -2 10 13.31 19.37 1.71 o
-4 -2 10 63.29 65.88 2.43 o
-3 -2 10 707.95 699.26 8.56 o
-2 -2 10 115.78 116.92 3.41 o
-1 -2 10 10.28 13.97 1.45 o
0 -2 10 3.15 6.56 2.36 o
1 -2 10 299.18 299.43 8.92 o
2 -2 10 0.79 1.77 2.58 o
3 -2 10 102.20 102.99 6.34 o
4 -2 10 71.69 71.80 6.64 o
5 -2 10 1.90 -0.29 3.83 <
6 -2 10 8.89 17.69 5.97 o
-7 -1 10 61.65 68.85 7.08 o
-6 -1 10 44.26 44.23 3.36 o
-5 -1 10 139.80 130.91 3.74 o
-4 -1 10 851.76 848.35 12.64 o
-3 -1 10 28.88 34.98 1.73 o
-2 -1 10 128.21 126.62 4.90 o
-1 -1 10 196.28 196.72 3.05 o
0 -1 10 419.59 443.47 10.91 o
1 -1 10 187.44 180.49 6.64 o
2 -1 10 632.53 604.87 14.46 o
3 -1 10 51.82 56.76 5.38 o
4 -1 10 67.90 71.43 6.49 o
5 -1 10 8.59 16.33 3.58 o
-7 0 10 9.99 7.89 3.21 o
-6 0 10 6.85 5.05 2.48 o
-5 0 10 0.30 4.25 2.45 o
-4 0 10 138.68 134.03 3.86 o
-3 0 10 0.48 2.12 1.89 o
-2 0 10 3.35 4.53 1.41 o
-1 0 10 457.04 469.07 7.12 o
0 0 10 0.32 4.05 1.92 o
1 0 10 142.90 149.22 6.05 o
2 0 10 9.45 5.23 2.51 o
3 0 10 31.17 29.56 4.13 o
4 0 10 1.91 1.03 1.95 o
5 0 10 515.14 566.29 16.67 o
6 0 10 38.01 42.13 4.64 o
-7 1 10 1.58 1.33 4.57 o
-6 1 10 17.31 17.08 2.06 o
-5 1 10 132.12 135.76 4.13 o
-4 1 10 259.13 240.35 4.20 o
-3 1 10 201.52 181.17 3.55 o
-2 1 10 57.20 47.72 2.18 o
-1 1 10 147.16 151.01 3.05 o
0 1 10 29.83 29.44 1.70 o
1 1 10 853.32 848.22 17.78 o
2 1 10 0.13 -1.62 2.21 <
3 1 10 0.03 -2.38 1.51 <
4 1 10 332.28 342.27 6.17 o
5 1 10 26.69 29.54 2.92 o
6 1 10 10.58 8.44 4.09 o
-7 2 10 112.14 120.53 8.41 o
-6 2 10 5.16 8.33 2.38 o
-5 2 10 171.62 164.04 3.66 o
-4 2 10 0.54 1.00 1.13 o
-3 2 10 117.05 107.66 4.63 o
-2 2 10 360.65 358.86 6.32 o
-1 2 10 119.72 117.12 2.86 o
0 2 10 352.30 341.68 5.41 o
1 2 10 694.67 703.90 8.70 o
2 2 10 318.28 300.82 7.53 o
3 2 10 17.59 19.41 2.06 o
4 2 10 373.44 390.04 6.92 o
5 2 10 7.56 10.49 2.79 o
-7 3 10 24.42 27.35 5.31 o
-6 3 10 8.72 6.38 2.45 o
-5 3 10 33.62 38.81 3.06 o
-4 3 10 87.04 83.53 3.75 o
-3 3 10 4.19 3.65 3.65 o
-2 3 10 8.83 12.98 2.95 o
-1 3 10 633.40 664.04 12.50 o
0 3 10 40.68 39.73 1.96 o
1 3 10 242.45 225.29 4.45 o
2 3 10 5.56 5.40 1.63 o
3 3 10 16.70 17.77 2.21 o
4 3 10 283.99 284.59 6.21 o
5 3 10 53.09 57.70 6.81 o
-7 4 10 29.29 40.76 5.90 o
-6 4 10 64.55 66.94 4.54 o
-5 4 10 210.17 212.29 6.05 o
-4 4 10 37.70 36.60 4.83 o
-3 4 10 100.95 96.61 4.17 o
-2 4 10 199.23 185.86 7.59 o
-1 4 10 129.38 120.72 3.88 o
0 4 10 121.78 117.29 3.80 o
1 4 10 3.85 3.89 1.62 o
2 4 10 18.75 16.39 2.15 o
3 4 10 118.28 111.81 7.59 o
4 4 10 0.35 4.20 6.71 o
-6 5 10 254.78 241.42 12.50 o
-5 5 10 7.19 14.71 2.71 o
-4 5 10 44.74 44.60 6.41 o
-3 5 10 19.18 20.83 2.71 o
-2 5 10 544.84 521.41 13.86 o
-1 5 10 43.40 39.22 4.72 o
0 5 10 0.99 -0.29 2.80 <
1 5 10 1.36 1.62 2.38 o
2 5 10 18.00 13.71 3.98 o
3 5 10 81.07 76.45 7.23 o
4 5 10 76.44 87.14 6.38 o
-6 6 10 3.40 4.53 3.18 o
-5 6 10 20.03 20.24 3.23 o
-4 6 10 169.20 176.64 6.10 o
-3 6 10 7.73 10.43 2.66 o
-2 6 10 27.05 26.47 4.42 o
-1 6 10 56.35 56.17 5.90 o
0 6 10 39.46 35.31 4.87 o
1 6 10 71.69 82.38 5.12 o
2 6 10 121.39 108.45 5.92 o
3 6 10 62.84 73.02 7.56 o
-6 7 10 28.38 21.75 8.63 o
-5 7 10 27.69 30.45 4.87 o
-4 7 10 3.10 4.28 2.87 o
-3 7 10 25.88 27.13 3.36 o
-2 7 10 38.18 33.18 3.55 o
-1 7 10 0.01 2.80 4.13 o
0 7 10 4.95 3.69 4.42 o
1 7 10 78.69 95.62 6.00 o
2 7 10 14.30 12.75 5.68 o
-5 8 10 185.68 178.86 7.75 o
-4 8 10 9.96 5.38 3.75 o
-3 8 10 13.07 14.67 3.62 o
-2 8 10 297.87 297.75 8.60 o
-1 8 10 58.53 56.14 4.67 o
1 8 10 50.80 56.17 5.01 o
-3 9 10 116.51 109.44 7.32 o
-2 9 10 50.98 45.00 4.95 o
-1 9 10 30.18 33.32 4.91 o
-1 -10 11 0.64 -0.85 4.19 <
0 -10 11 50.01 53.04 5.07 o
1 -10 11 11.04 17.33 8.77 o
2 -10 11 167.01 169.12 12.53 o
3 -10 11 1.07 -2.43 5.97 <
-2 -9 11 134.07 158.87 7.70 o
-1 -9 11 0.03 0.41 4.39 o
0 -9 11 308.52 305.68 8.18 o
1 -9 11 51.78 65.61 7.23 o
2 -9 11 18.39 19.98 5.68 o
3 -9 11 9.46 3.54 5.46 o
4 -9 11 274.93 298.96 13.86 o
-3 -8 11 29.48 20.79 5.46 o
-2 -8 11 14.14 14.52 4.13 o
-1 -8 11 19.29 17.51 4.39 o
0 -8 11 3.95 6.97 2.91 o
1 -8 11 3.25 6.34 4.28 o
2 -8 11 7.47 9.58 4.42 o
3 -8 11 3.75 9.73 4.94 o
4 -8 11 257.58 241.31 12.24 o
5 -8 11 0.48 7.74 6.27 o
-4 -7 11 86.76 73.79 6.86 o
-3 -7 11 126.38 102.77 7.52 o
-2 -7 11 185.79 187.00 6.32 o
-1 -7 11 169.02 174.84 5.73 o
0 -7 11 346.04 339.08 8.40 o
1 -7 11 69.81 71.66 7.15 o
2 -7 11 30.43 37.15 5.23 o
3 -7 11 242.39 245.80 10.91 o
4 -7 11 0.02 1.99 4.64 o
-5 -6 11 5.88 6.34 5.16 o
-4 -6 11 14.14 17.47 4.64 o
-3 -6 11 115.00 112.27 6.64 o
-2 -6 11 157.36 173.55 5.63 o
-1 -6 11 12.34 11.43 3.83 o
0 -6 11 10.16 11.02 2.12 o
1 -6 11 453.65 440.72 13.20 o
2 -6 11 90.97 84.41 7.08 o
3 -6 11 233.48 238.87 10.18 o
4 -6 11 97.34 100.11 8.48 o
5 -6 11 246.03 240.42 12.09 o
6 -6 11 20.17 16.81 6.78 o
-5 -5 11 51.53 46.74 6.05 o
-4 -5 11 33.68 35.61 4.87 o
-3 -5 11 196.60 185.41 7.08 o
-2 -5 11 64.73 69.07 3.75 o
-1 -5 11 10.14 10.10 1.96 o
0 -5 11 18.77 21.90 4.05 o
1 -5 11 51.92 55.80 5.46 o
2 -5 11 15.38 8.11 3.54 o
3 -5 11 17.94 20.72 4.35 o
4 -5 11 1.75 -3.39 3.83 <
5 -5 11 54.14 63.62 7.08 o
6 -5 11 151.10 159.17 11.94 o
-6 -4 11 5.93 7.23 5.46 o
-5 -4 11 55.88 52.71 5.75 o
-4 -4 11 36.25 44.67 4.57 o
-3 -4 11 127.76 134.98 3.42 o
-2 -4 11 79.73 70.42 2.94 o
-1 -4 11 42.78 47.47 3.47 o
0 -4 11 58.51 61.11 5.31 o
1 -4 11 348.17 306.73 10.03 o
2 -4 11 130.34 156.81 7.59 o
3 -4 11 28.20 29.79 4.72 o
4 -4 11 26.70 40.84 5.60 o
5 -4 11 81.26 90.97 9.29 o
6 -4 11 0.12 -6.49 5.53 <
-6 -3 11 7.39 6.49 4.72 o
-5 -3 11 278.83 280.83 10.25 o
-4 -3 11 52.33 58.02 3.83 o
-3 -3 11 357.75 356.20 5.63 o
-2 -3 11 47.77 46.85 2.88 o
-1 -3 11 3.94 2.73 1.48 o
0 -3 11 143.43 144.13 6.64 o
1 -3 11 365.23 308.36 10.32 o
2 -3 11 171.02 161.83 7.52 o
3 -3 11 229.53 220.37 9.22 o
4 -3 11 0.42 0.96 3.76 o
5 -3 11 342.74 342.03 13.13 o
6 -3 11 100.08 109.70 10.69 o
-6 -2 11 5.82 11.72 4.79 o
-5 -2 11 0.03 1.16 1.82 o
-4 -2 11 45.42 48.62 7.26 o
-3 -2 11 0.42 2.71 1.95 o
-2 -2 11 828.76 817.34 11.83 o
-1 -2 11 98.13 110.22 5.68 o
0 -2 11 947.46 952.40 20.14 o
1 -2 11 631.44 609.07 14.53 o
2 -2 11 193.68 171.71 7.08 o
3 -2 11 53.06 54.99 5.97 o
4 -2 11 216.89 222.06 10.10 o
5 -2 11 151.26 139.63 9.66 o
6 -2 11 84.87 100.48 10.32 o
-6 -1 11 594.06 578.29 10.43 o
-5 -1 11 59.01 60.91 2.98 o
-4 -1 11 215.63 230.52 3.82 o
-3 -1 11 472.54 473.94 5.70 o
-2 -1 11 133.04 143.21 3.72 o
-1 -1 11 119.18 129.23 5.68 o
0 -1 11 629.14 650.44 14.82 o
1 -1 11 91.00 90.31 5.46 o
3 -1 11 96.11 86.48 6.78 o
4 -1 11 105.20 104.61 7.82 o
5 -1 11 15.24 23.30 5.53 o
6 -1 11 57.10 58.97 8.18 o
-7 0 11 18.64 30.89 6.78 o
-6 0 11 143.83 158.21 8.48 o
-5 0 11 78.05 88.52 3.27 o
-4 0 11 47.70 48.06 2.24 o
-3 0 11 293.95 277.10 4.76 o
-2 0 11 574.70 570.13 7.48 o
-1 0 11 1404.57 1380.24 14.30 o
0 0 11 604.90 611.28 13.79 o
1 0 11 52.02 56.91 4.72 o
2 0 11 54.86 48.58 5.46 o
3 0 11 113.02 107.93 6.78 o
4 0 11 94.49 94.14 7.82 o
5 0 11 99.81 106.71 6.57 o
-7 1 11 47.23 46.59 4.64 o
-6 1 11 56.45 51.93 3.86 o
-5 1 11 159.01 157.75 3.75 o
-4 1 11 8.35 10.91 1.80 o
-3 1 11 96.03 104.67 3.07 o
-2 1 11 191.62 183.70 3.69 o
-1 1 11 63.74 69.32 3.00 o
0 1 11 2.42 3.83 1.70 o
1 1 11 132.81 128.20 4.48 o
2 1 11 16.28 10.91 2.37 o
3 1 11 286.58 286.36 7.38 o
4 1 11 6.52 7.00 4.94 o
5 1 11 80.15 77.37 5.43 o
-7 2 11 89.91 91.34 8.48 o
-6 2 11 182.15 190.02 5.73 o
-5 2 11 45.68 41.21 2.40 o
-4 2 11 10.31 8.38 1.52 o
-3 2 11 24.73 27.89 2.00 o
-2 2 11 72.41 64.21 3.47 o
-1 2 11 352.93 352.29 5.32 o
0 2 11 23.04 22.95 1.76 o
1 2 11 279.82 271.98 4.81 o
2 2 11 282.02 295.13 8.82 o
3 2 11 17.24 24.28 2.35 o
4 2 11 219.33 225.93 7.64 o
5 2 11 1.05 -2.29 5.46 <
-6 3 11 1.14 2.54 2.76 o
-5 3 11 2.32 2.03 3.27 o
-4 3 11 30.02 36.38 3.13 o
-3 3 11 339.47 352.51 7.45 o
-2 3 11 39.98 47.55 4.57 o
-1 3 11 204.39 199.65 5.01 o
0 3 11 218.44 200.87 5.35 o
1 3 11 24.45 22.45 2.64 o
2 3 11 132.58 130.93 5.68 o
3 3 11 28.37 28.97 2.67 o
4 3 11 38.83 43.13 12.53 o
-6 4 11 11.41 8.99 4.64 o
-5 4 11 53.70 59.97 4.17 o
-4 4 11 50.36 56.95 4.07 o
-3 4 11 377.39 361.84 7.82 o
-2 4 11 0.50 1.55 3.10 o
-1 4 11 0.17 1.84 3.24 o
0 4 11 144.55 130.23 4.63 o
1 4 11 82.45 85.22 5.53 o
2 4 11 351.20 363.80 6.54 o
3 4 11 42.71 44.89 6.49 o
4 4 11 7.09 13.64 6.19 o
-6 5 11 13.84 12.05 3.36 o
-5 5 11 103.82 108.11 11.24 o
-4 5 11 10.03 8.29 2.58 o
-3 5 11 72.60 67.71 4.46 o
-2 5 11 183.09 186.00 8.63 o
-1 5 11 1.45 4.57 3.32 o
0 5 11 55.14 63.18 6.64 o
1 5 11 91.18 88.17 7.82 o
2 5 11 58.66 57.17 7.41 o
3 5 11 0.52 3.10 3.58 o
-6 6 11 41.15 43.20 6.78 o
-5 6 11 26.97 22.04 6.78 o
-4 6 11 273.54 261.80 7.59 o
-3 6 11 50.75 55.18 4.12 o
-2 6 11 164.34 142.95 6.02 o
-1 6 11 107.04 95.54 7.89 o
0 6 11 3.56 8.26 4.13 o
1 6 11 10.24 4.42 4.79 o
2 6 11 28.10 33.14 4.93 o
-5 7 11 42.23 48.36 4.62 o
-4 7 11 108.22 86.81 12.50 o
-3 7 11 15.41 28.97 7.67 o
-2 7 11 0.09 6.78 3.10 o
-1 7 11 4.74 5.23 4.72 o
0 7 11 138.23 135.28 10.62 o
1 7 11 14.26 16.44 5.97 o
-4 8 11 0.89 -1.59 7.19 <
-3 8 11 6.02 2.43 7.52 o
-2 8 11 2.97 -1.66 3.57 <
-1 8 11 5.63 9.99 3.97 o
0 8 11 4.80 5.60 5.82 o
0 -10 12 1.17 -1.55 4.51 <
1 -10 12 21.80 23.96 7.52 o
2 -10 12 3.37 8.85 6.71 o
-2 -9 12 124.15 120.17 12.09 o
-1 -9 12 132.51 132.15 7.17 o
0 -9 12 13.28 2.36 5.01 o
1 -9 12 31.24 47.55 7.89 o
3 -9 12 216.16 236.44 13.20 o
-3 -8 12 6.15 9.77 4.44 o
-2 -8 12 65.01 67.49 5.12 o
-1 -8 12 0.97 2.65 3.23 o
0 -8 12 13.40 14.38 5.38 o
1 -8 12 308.67 291.08 12.46 o
2 -8 12 167.59 179.45 10.62 o
3 -8 12 9.66 24.11 6.12 o
4 -8 12 324.28 333.10 14.38 o
-4 -7 12 1.54 1.18 5.60 o
-3 -7 12 363.80 381.99 9.44 o
-2 -7 12 41.89 36.64 10.03 o
-1 -7 12 2.81 -1.51 2.84 <
0 -7 12 140.70 146.49 6.12 o
1 -7 12 168.92 190.28 9.66 o
2 -7 12 91.86 95.62 8.70 o
3 -7 12 0.97 5.75 4.72 o
4 -7 12 0.01 2.51 5.60 o
5 -7 12 99.97 114.04 11.58 o
-4 -6 12 4.10 -2.36 4.57 <
-3 -6 12 9.47 11.91 3.50 o
-2 -6 12 16.83 25.18 3.13 o
-1 -6 12 1.69 -1.22 2.20 <
0 -6 12 194.27 185.04 9.22 o
1 -6 12 224.73 215.94 9.51 o
2 -6 12 0.56 1.47 3.98 o
3 -6 12 156.68 150.25 9.44 o
4 -6 12 4.20 -7.08 4.79 <
5 -6 12 8.16 5.46 5.90 o
-5 -5 12 110.34 142.13 9.58 o
-4 -5 12 377.01 373.37 11.72 o
-3 -5 12 21.46 28.02 3.13 o
-2 -5 12 52.94 65.87 8.07 o
-1 -5 12 164.78 162.93 4.96 o
0 -5 12 1.87 1.77 3.32 o
1 -5 12 396.69 384.44 12.46 o
2 -5 12 19.22 17.18 4.13 o
3 -5 12 38.58 33.62 5.23 o
4 -5 12 9.20 12.90 5.16 o
5 -5 12 0.30 -0.44 5.97 <
-5 -4 12 22.17 28.09 5.16 o
-4 -4 12 49.72 57.46 3.97 o
-3 -4 12 43.42 42.88 3.45 o
-2 -4 12 99.80 99.45 4.50 o
-1 -4 12 21.37 28.16 3.98 o
0 -4 12 180.79 168.32 7.82 o
1 -4 12 199.74 210.26 8.77 o
2 -4 12 42.69 47.32 5.16 o
3 -4 12 3.73 2.80 3.76 o
4 -4 12 16.47 19.83 5.09 o
5 -4 12 246.23 238.80 17.70 o
-6 -3 12 1.46 -6.71 4.87 <
-5 -3 12 221.11 214.02 9.36 o
-4 -3 12 52.76 54.18 2.98 o
-3 -3 12 79.17 84.21 3.05 o
-2 -3 12 2.53 1.99 1.49 o
-1 -3 12 35.84 38.77 5.82 o
0 -3 12 647.15 618.79 15.05 o
1 -3 12 8.68 8.55 3.54 o
2 -3 12 89.37 85.07 6.56 o
3 -3 12 1.43 3.39 3.83 o
4 -3 12 103.49 103.58 8.70 o
5 -3 12 2.58 5.53 5.97 o
-6 -2 12 0.55 -1.99 4.72 <
-5 -2 12 157.49 164.53 4.20 o
-4 -2 12 0.91 1.33 1.54 o
-3 -2 12 42.96 43.23 4.28 o
-2 -2 12 202.11 187.41 4.59 o
-1 -2 12 40.41 46.00 4.87 o
0 -2 12 130.10 115.67 6.12 o
1 -2 12 28.48 25.58 3.10 o
2 -2 12 141.84 142.87 7.52 o
3 -2 12 156.98 154.67 8.48 o
4 -2 12 148.51 144.94 9.44 o
5 -2 12 11.77 10.54 5.46 o
-6 -1 12 45.26 56.47 7.52 o
-5 -1 12 7.65 9.29 1.81 o
-4 -1 12 7.56 8.05 1.55 o
-3 -1 12 434.14 431.40 5.49 o
-2 -1 12 662.30 676.65 10.14 o
-1 -1 12 0.64 0.29 2.51 o
0 -1 12 53.37 52.78 4.79 o
1 -1 12 66.21 74.53 5.90 o
2 -1 12 208.52 213.58 8.70 o
3 -1 12 130.85 148.62 8.48 o
4 -1 12 17.37 21.90 5.01 o
5 -1 12 15.86 10.69 7.74 o
-6 0 12 51.31 57.94 4.09 o
-5 0 12 13.69 15.98 1.84 o
-4 0 12 29.92 29.18 1.89 o
-3 0 12 180.80 176.69 4.00 o
-2 0 12 14.91 21.23 1.50 o
-1 0 12 32.36 38.40 4.28 o
0 0 12 1.53 0.22 2.58 o
1 0 12 31.97 31.19 3.98 o
2 0 12 1.06 -1.77 3.17 <
3 0 12 273.70 255.91 10.25 o
4 0 12 36.27 39.36 6.05 o
5 0 12 20.16 20.57 5.11 o
-6 1 12 67.77 67.65 3.97 o
-5 1 12 54.95 60.84 4.54 o
-4 1 12 265.92 265.97 6.39 o
-3 1 12 91.65 92.84 4.22 o
-2 1 12 98.69 94.17 6.21 o
-1 1 12 76.27 79.25 3.36 o
0 1 12 4.05 7.11 2.54 o
1 1 12 368.42 367.55 7.77 o
2 1 12 19.90 18.91 3.72 o
3 1 12 234.05 251.00 7.40 o
4 1 12 3.34 4.87 3.44 o
5 1 12 3.70 -5.16 5.82 <
-6 2 12 21.34 26.54 3.47 o
-5 2 12 42.39 48.28 3.65 o
-4 2 12 28.57 34.87 2.42 o
-3 2 12 30.81 35.87 3.54 o
-2 2 12 126.29 129.05 4.28 o
-1 2 12 6.68 8.15 2.06 o
0 2 12 0.44 1.29 2.01 o
1 2 12 13.59 15.08 2.56 o
2 2 12 146.12 147.52 5.68 o
3 2 12 71.13 71.88 5.14 o
4 2 12 85.22 90.09 6.32 o
-6 3 12 1.10 2.99 3.58 o
-5 3 12 21.19 21.05 3.10 o
-4 3 12 0.19 2.06 2.37 o
-3 3 12 213.64 216.35 6.67 o
-2 3 12 218.90 227.00 8.85 o
-1 3 12 138.23 139.34 4.70 o
0 3 12 178.67 168.54 5.68 o
1 3 12 28.74 23.08 4.13 o
2 3 12 2.77 0.15 2.76 o
3 3 12 110.42 116.14 6.54 o
4 3 12 7.58 13.75 5.29 o
-6 4 12 2.13 1.33 4.20 o
-5 4 12 122.28 125.32 6.27 o
-4 4 12 7.11 10.32 2.76 o
-3 4 12 5.46 4.50 2.51 o
-2 4 12 46.64 45.85 5.16 o
-1 4 12 48.97 51.01 3.40 o
0 4 12 220.31 212.37 6.05 o
1 4 12 4.32 2.06 3.02 o
2 4 12 18.09 20.24 7.48 o
3 4 12 3.02 -1.00 4.99 <
-5 5 12 142.17 155.04 7.15 o
-4 5 12 19.97 25.14 3.49 o
-3 5 12 22.48 19.61 3.18 o
-2 5 12 221.23 232.31 10.10 o
-1 5 12 179.86 168.68 9.00 o
0 5 12 47.32 49.09 5.82 o
1 5 12 0.17 0.44 4.57 o
-5 6 12 3.51 6.78 5.23 o
-4 6 12 15.59 21.53 7.08 o
-3 6 12 0.80 3.32 3.02 o
-2 6 12 1.92 0.18 2.87 o
-1 6 12 0.32 -4.72 4.13 <
0 6 12 34.62 43.64 6.34 o
1 6 12 5.54 7.96 5.38 o
-4 7 12 86.92 94.66 9.95 o
-3 7 12 136.24 132.77 14.08 o
-2 7 12 83.92 77.33 5.71 o
-1 7 12 8.71 9.81 5.46 o
0 7 12 128.34 127.02 11.06 o
0 -9 13 3.94 -1.33 6.12 <
1 -9 13 7.46 11.57 6.34 o
2 -9 13 5.57 7.15 6.41 o
-2 -8 13 46.09 49.32 5.16 o
-1 -8 13 60.48 56.25 6.78 o
0 -8 13 17.99 16.07 5.82 o
1 -8 13 85.30 73.65 7.59 o
3 -8 13 6.92 13.64 6.12 o
-3 -7 13 0.14 -4.20 7.00 <
-2 -7 13 0.93 6.64 3.59 o
-1 -7 13 51.64 62.66 4.58 o
0 -7 13 0.12 -4.79 4.50 <
1 -7 13 195.51 206.21 10.99 o
2 -7 13 27.73 27.94 6.27 o
3 -7 13 237.33 239.17 13.27 o
4 -7 13 26.68 26.17 7.00 o
-4 -6 13 11.03 13.38 4.05 o
-3 -6 13 34.75 37.01 4.03 o
-2 -6 13 36.46 39.37 4.79 o
-1 -6 13 94.15 82.27 4.71 o
0 -6 13 315.98 314.23 12.24 o
1 -6 13 99.46 88.47 8.33 o
2 -6 13 0.24 -2.73 4.42 <
3 -6 13 147.22 138.74 10.25 o
4 -6 13 30.49 15.04 6.12 o
-4 -5 13 8.49 10.95 3.58 o
-3 -5 13 64.84 63.99 4.44 o
-2 -5 13 8.64 10.28 3.21 o
-1 -5 13 204.20 211.81 9.66 o
0 -5 13 1.39 3.54 3.69 o
1 -5 13 41.45 55.66 5.97 o
2 -5 13 9.49 8.85 4.50 o
3 -5 13 0.48 -0.15 4.50 <
4 -5 13 70.98 63.69 7.67 o
5 -5 13 21.12 22.19 7.00 o
-5 -4 13 27.73 26.87 6.16 o
-4 -4 13 0.02 6.89 3.10 o
-3 -4 13 466.78 434.88 17.07 o
-2 -4 13 20.25 23.11 2.72 o
-1 -4 13 415.90 423.74 12.90 o
0 -4 13 8.44 3.69 3.61 o
1 -4 13 213.14 198.76 9.14 o
2 -4 13 322.16 329.57 12.02 o
3 -4 13 197.82 188.51 10.03 o
4 -4 13 99.96 111.09 10.32 o
5 -4 13 57.87 64.58 8.26 o
-5 -3 13 19.61 23.89 3.89 o
-4 -3 13 10.81 12.18 1.97 o
-3 -3 13 37.53 40.27 2.50 o
-2 -3 13 5.81 5.27 4.24 o
-1 -3 13 29.62 31.92 4.50 o
0 -3 13 30.68 26.54 4.35 o
1 -3 13 71.89 68.78 6.41 o
2 -3 13 139.89 132.48 8.33 o
3 -3 13 101.81 98.12 8.11 o
4 -3 13 80.85 84.41 9.36 o
5 -3 13 2.84 -1.33 5.82 <
-5 -2 13 105.94 101.52 4.67 o
-4 -2 13 244.49 239.24 5.12 o
-3 -2 13 261.31 263.67 5.64 o
-2 -2 13 294.34 283.63 6.26 o
-1 -2 13 67.31 69.15 6.19 o
0 -2 13 32.05 30.67 4.42 o
1 -2 13 22.05 26.54 4.28 o
2 -2 13 280.25 305.82 10.99 o
3 -2 13 4.54 9.58 4.64 o
4 -2 13 13.86 14.60 5.75 o
5 -2 13 21.81 10.69 6.56 o
-5 -1 13 9.38 12.99 2.61 o
-4 -1 13 544.92 541.89 17.72 o
-3 -1 13 13.44 15.28 2.03 o
-2 -1 13 39.93 42.54 6.34 o
-1 -1 13 1.76 5.23 2.95 o
0 -1 13 410.62 389.90 13.05 o
1 -1 13 20.10 16.00 3.83 o
2 -1 13 520.66 541.82 15.04 o
3 -1 13 0.14 6.41 4.35 o
4 -1 13 77.18 83.23 9.14 o
-6 0 13 8.08 6.76 2.88 o
-5 0 13 73.16 74.07 3.25 o
-4 0 13 105.23 116.06 3.32 o
-3 0 13 0.25 0.49 1.90 o
-2 0 13 6.33 4.92 1.64 o
-1 0 13 140.86 134.87 4.85 o
0 0 13 420.40 412.68 11.43 o
1 0 13 0.01 2.65 3.39 o
2 0 13 34.33 37.74 5.09 o
3 0 13 20.27 23.00 5.23 o
4 0 13 3.46 0.74 3.91 o
-6 1 13 41.01 43.97 4.30 o
-5 1 13 3.21 5.79 2.09 o
-4 1 13 477.90 473.21 7.20 o
-3 1 13 170.99 157.13 4.18 o
-2 1 13 298.73 302.62 6.78 o
-1 1 13 4.57 3.69 2.14 o
0 1 13 42.29 48.50 3.75 o
1 1 13 19.40 16.74 2.68 o
2 1 13 17.53 22.41 3.44 o
3 1 13 30.19 35.87 4.46 o
4 1 13 31.09 34.95 6.46 o
-6 2 13 207.09 207.83 10.17 o
-5 2 13 1.58 -4.17 2.91 <
-4 2 13 35.77 43.49 4.42 o
-3 2 13 61.02 56.42 2.93 o
-2 2 13 2.29 8.29 2.23 o
-1 2 13 320.45 326.14 7.26 o
0 2 13 55.55 50.97 3.86 o
1 2 13 71.95 73.87 6.71 o
2 2 13 44.25 46.03 4.18 o
3 2 13 20.86 24.44 4.07 o
-5 3 13 38.52 32.07 3.70 o
-4 3 13 9.93 8.96 2.85 o
-3 3 13 147.23 155.63 5.89 o
-2 3 13 9.91 14.82 4.20 o
-1 3 13 630.74 619.24 10.60 o
0 3 13 52.40 49.43 3.69 o
1 3 13 104.24 99.75 10.99 o
2 3 13 15.24 11.54 3.55 o
3 3 13 206.79 207.64 10.88 o
-5 4 13 37.05 38.34 6.19 o
-4 4 13 63.74 67.60 4.90 o
-3 4 13 24.28 26.91 3.39 o
-2 4 13 88.38 77.63 7.37 o
-1 4 13 5.24 13.57 4.42 o
0 4 13 168.82 162.56 6.49 o
1 4 13 185.86 177.05 7.32 o
2 4 13 25.81 28.86 4.48 o
-4 5 13 168.85 172.40 7.59 o
-3 5 13 23.19 29.27 3.91 o
-2 5 13 190.81 191.68 10.03 o
-1 5 13 531.16 501.62 15.56 o
0 5 13 339.88 320.21 14.23 o
1 5 13 42.08 45.92 6.93 o
-4 6 13 47.80 41.94 6.71 o
-3 6 13 0.88 2.29 5.09 o
-2 6 13 2.77 -4.50 4.20 <
-1 6 13 9.10 17.10 5.90 o
0 6 13 35.92 41.13 6.86 o
-1 -8 14 122.05 100.26 11.50 o
0 -8 14 0.83 3.61 6.05 o
1 -8 14 15.96 19.39 6.78 o
2 -8 14 93.65 91.05 9.36 o
-2 -7 14 259.25 225.90 12.61 o
-1 -7 14 20.96 7.15 5.82 o
0 -7 14 174.75 186.66 11.58 o
1 -7 14 2.95 5.75 5.75 o
2 -7 14 119.87 115.74 13.05 o
3 -7 14 6.14 -2.51 6.34 <
-3 -6 14 20.84 29.27 5.46 o
-2 -6 14 215.85 221.91 11.58 o
-1 -6 14 10.96 18.65 5.75 o
0 -6 14 2.29 10.25 5.01 o
1 -6 14 213.15 213.51 11.35 o
2 -6 14 65.78 76.59 7.89 o
3 -6 14 127.43 109.85 10.69 o
-3 -5 14 23.03 22.93 4.35 o
-2 -5 14 1.83 -2.51 4.42 <
-1 -5 14 78.28 78.51 8.11 o
0 -5 14 86.96 84.12 8.11 o
1 -5 14 139.57 144.64 9.66 o
2 -5 14 19.98 20.50 5.60 o
3 -5 14 15.21 25.36 6.05 o
4 -5 14 13.03 24.85 6.86 o
-4 -4 14 4.74 6.27 2.88 o
-3 -4 14 90.01 91.88 4.70 o
-2 -4 14 58.03 68.85 7.67 o
-1 -4 14 0.11 -0.37 3.91 <
0 -4 14 12.28 11.28 4.35 o
1 -4 14 39.90 47.40 5.82 o
2 -4 14 298.17 276.55 11.58 o
3 -4 14 32.50 40.54 6.49 o
4 -4 14 43.05 45.04 7.30 o
-4 -3 14 5.29 10.12 4.97 o
-3 -3 14 51.76 55.16 3.35 o
-2 -3 14 0.06 -3.76 3.69 <
-1 -3 14 51.67 55.58 5.75 o
0 -3 14 330.66 301.85 11.13 o
1 -3 14 174.79 186.22 9.51 o
2 -3 14 61.72 73.13 7.08 o
3 -3 14 23.85 21.53 5.75 o
4 -3 14 13.78 9.51 6.27 o
-5 -2 14 11.18 13.16 3.89 o
-4 -2 14 96.00 91.07 4.09 o
-3 -2 14 0.09 -1.36 1.76 <
-2 -2 14 0.21 -0.74 3.61 <
-1 -2 14 117.39 127.24 7.59 o
0 -2 14 20.27 34.58 4.72 o
1 -2 14 277.18 274.19 10.84 o
2 -2 14 0.24 -2.21 4.13 <
3 -2 14 49.57 54.77 6.86 o
4 -2 14 549.30 454.58 20.87 o
-5 -1 14 94.61 87.18 4.30 o
-4 -1 14 129.54 128.81 4.43 o
-3 -1 14 37.56 42.90 2.67 o
-2 -1 14 19.08 18.73 4.13 o
-1 -1 14 358.89 345.28 10.32 o
0 -1 14 29.93 29.49 4.57 o
1 -1 14 3.10 11.13 3.91 o
2 -1 14 0.30 4.42 4.42 o
3 -1 14 30.31 34.80 6.27 o
4 -1 14 0.75 -2.29 6.71 <
-5 0 14 190.21 183.80 5.28 o
-4 0 14 58.71 63.45 3.30 o
-3 0 14 145.12 140.93 6.15 o
-2 0 14 173.90 171.45 5.86 o
-1 0 14 13.79 14.74 2.74 o
0 0 14 59.98 62.40 4.34 o
1 0 14 16.51 16.00 4.20 o
2 0 14 12.72 14.30 4.87 o
3 0 14 74.76 83.89 7.74 o
-5 1 14 28.16 28.77 3.41 o
-4 1 14 497.30 485.46 6.84 o
-3 1 14 72.61 74.05 3.73 o
-2 1 14 390.05 386.67 6.25 o
-1 1 14 0.06 -0.77 2.48 <
0 1 14 19.82 19.68 3.13 o
1 1 14 3.19 2.06 3.47 o
2 1 14 23.02 20.20 3.73 o
3 1 14 45.06 47.88 6.89 o
-5 2 14 98.63 87.10 5.84 o
-4 2 14 27.43 25.29 4.64 o
-3 2 14 16.14 9.29 3.02 o
-2 2 14 42.38 42.35 4.35 o
-1 2 14 1.51 -3.54 3.69 <
0 2 14 0.10 -1.00 5.27 <
1 2 14 2.34 0.70 3.07 o
2 2 14 88.71 98.64 8.70 o
3 2 14 15.03 9.36 4.46 o
-4 3 14 22.03 23.26 4.02 o
-3 3 14 250.31 264.75 7.69 o
-2 3 14 31.12 28.75 5.23 o
-1 3 14 277.61 281.19 11.58 o
0 3 14 219.82 230.76 7.13 o
1 3 14 25.86 25.95 4.90 o
2 3 14 10.46 8.48 4.12 o
-4 4 14 9.72 9.51 5.31 o
-3 4 14 45.73 42.20 4.83 o
-2 4 14 1.32 1.03 4.42 o
-1 4 14 5.76 13.05 5.31 o
0 4 14 0.99 7.74 7.30 o
1 4 14 178.29 186.26 8.80 o
-3 5 14 28.87 22.27 5.70 o
-2 5 14 2.41 5.75 5.01 o
-1 5 14 130.11 131.30 10.40 o
0 5 14 10.21 13.93 5.97 o
0 -7 15 33.04 38.85 7.08 o
1 -7 15 47.45 57.20 8.11 o
-2 -6 15 17.03 7.37 7.00 o
-1 -6 15 26.19 19.46 6.78 o
0 -6 15 2.53 4.50 5.60 o
2 -6 15 55.07 53.00 7.45 o
-3 -5 15 5.05 -6.12 5.90 <
-2 -5 15 3.41 8.48 5.68 o
-1 -5 15 0.06 -7.67 4.72 <
0 -5 15 485.39 518.65 16.52 o
1 -5 15 62.06 61.19 7.45 o
2 -5 15 4.58 -0.15 6.34 <
3 -5 15 9.60 2.43 6.05 o
-3 -4 15 0.64 3.76 5.31 o
-2 -4 15 99.65 87.88 8.99 o
-1 -4 15 89.06 123.63 9.22 o
0 -4 15 2.23 -0.88 4.57 <
1 -4 15 22.65 22.85 5.75 o
2 -4 15 16.73 14.16 5.75 o
3 -4 15 141.86 152.31 11.72 o
-4 -3 15 74.64 76.60 7.89 o
-3 -3 15 3.71 4.46 6.89 o
-2 -3 15 17.00 16.96 5.09 o
-1 -3 15 24.09 27.87 5.38 o
0 -3 15 6.00 5.90 4.50 o
1 -3 15 16.40 16.29 5.01 o
2 -3 15 1.09 -4.35 4.94 <
-4 -2 15 1.40 3.47 2.90 o
-3 -2 15 158.73 160.57 5.15 o
-2 -2 15 134.27 129.23 8.55 o
-1 -2 15 26.35 25.80 5.31 o
0 -2 15 0.31 -3.69 3.98 <
1 -2 15 7.44 9.66 4.79 o
2 -2 15 261.16 269.69 12.02 o
3 -2 15 54.62 52.19 7.74 o
-4 -1 15 30.38 39.47 3.34 o
-3 -1 15 145.41 149.88 5.03 o
-2 -1 15 10.17 12.50 4.76 o
-1 -1 15 1.61 -3.02 3.91 <
0 -1 15 1.42 -2.36 4.05 <
1 -1 15 20.30 15.04 4.94 o
2 -1 15 195.46 183.65 10.91 o
3 -1 15 135.10 115.67 10.76 o
-4 0 15 150.82 140.11 4.87 o
-3 0 15 15.53 14.03 2.70 o
-2 0 15 95.40 104.65 12.13 o
-1 0 15 38.89 44.49 3.91 o
0 0 15 67.23 66.68 4.93 o
1 0 15 70.68 79.29 5.65 o
2 0 15 8.01 10.36 6.23 o
-4 1 15 85.05 88.41 6.53 o
-3 1 15 108.47 98.20 5.76 o
-2 1 15 391.22 387.09 11.80 o
-1 1 15 286.21 279.09 7.67 o
0 1 15 2.44 -2.47 3.05 <
1 1 15 56.71 47.55 6.19 o
2 1 15 133.40 132.40 7.54 o
-4 2 15 3.52 3.54 3.49 o
-3 2 15 15.61 15.78 3.57 o
-2 2 15 14.03 8.85 4.79 o
-1 2 15 152.87 144.68 7.85 o
0 2 15 21.35 30.30 4.22 o
1 2 15 98.62 94.25 6.18 o
-3 3 15 2.78 4.42 5.16 o
-2 3 15 0.06 8.85 5.01 o
-1 3 15 2.40 7.59 8.77 o
0 3 15 52.34 44.38 6.78 o
1 3 15 4.45 5.53 4.19 o
-2 4 15 35.52 37.08 6.56 o
-1 4 15 45.39 46.07 7.15 o
-1 -5 16 254.75 242.56 16.59 o
1 -5 16 90.94 98.42 9.14 o
-2 -4 16 54.64 62.81 7.67 o
-1 -4 16 2.76 -7.67 5.31 <
0 -4 16 9.19 5.38 5.60 o
1 -4 16 236.15 253.10 12.83 o
-2 -3 16 0.13 -3.76 5.16 <
-1 -3 16 83.33 102.69 9.66 o
0 -3 16 10.75 6.71 5.31 o
1 -3 16 97.59 101.44 10.10 o
-3 -2 16 109.59 105.00 5.35 o
-2 -2 16 1.36 6.86 3.47 o
-1 -2 16 0.27 4.28 4.72 o
0 -2 16 0.55 -7.00 4.94 <
1 -2 16 152.24 151.57 10.47 o
2 -2 16 12.08 6.27 6.05 o
-3 -1 16 319.80 303.34 10.30 o
-2 -1 16 50.76 56.32 4.56 o
-1 -1 16 65.87 67.34 7.11 o
0 -1 16 11.69 15.70 5.46 o
1 -1 16 55.74 71.36 7.52 o
-3 0 16 0.00 6.60 3.55 o
-2 0 16 54.64 59.78 4.78 o
-1 0 16 3.56 6.56 3.61 o
0 0 16 284.55 286.72 8.63 o
1 0 16 29.17 30.63 4.53 o
-2 1 16 85.39 94.44 8.77 o
-1 1 16 27.61 23.19 4.39 o
0 1 16 3.90 7.15 6.05 o
-2 2 16 40.26 27.50 6.27 o
-1 2 16 25.00 22.34 6.05 o
loop_
_restr_distance_atom_site_label_1
_restr_distance_site_symmetry_1
_restr_distance_atom_site_label_2
_restr_distance_site_symmetry_2
_restr_distance_target
_restr_distance_target_weight_param
O3 . H1o3 . 0.96 0.001
O5 . H1o5 . 0.96 0.001
loop_
_twin_individual_id
_twin_individual_mass_fraction_refined
_twin_individual_twin_matrix_11
_twin_individual_twin_matrix_12
_twin_individual_twin_matrix_13
_twin_individual_twin_matrix_21
_twin_individual_twin_matrix_22
_twin_individual_twin_matrix_23
_twin_individual_twin_matrix_31
_twin_individual_twin_matrix_32
_twin_individual_twin_matrix_33
? ? ? ? ? ? ? ? ? ? ?
loop_
_twin_refln_datum_id
_twin_refln_individual_id
_twin_refln_index_h
_twin_refln_index_k
_twin_refln_index_l
_twin_refln_F_squared_calc
_twin_refln_F_squared_meas
_twin_refln_F_squared_sigma
_twin_refln_include_status
? ? ? ? ? ? ? ? ?
