#------------------------------------------------------------------------------
#$Date: 2021-09-03 22:43:20 +0300 (Fri, 03 Sep 2021) $
#$Revision: 268418 $
#$URL: file:///home/coder/svn-repositories/cod/cif/4/51/89/4518989.cif $
#------------------------------------------------------------------------------
#
# This file is available in the Crystallography Open Database (COD),
# http://www.crystallography.net/
#
# All data on this site have been placed in the public domain by the
# contributors.
#
data_4518989
loop_
_publ_author_name
'Li, Weikang'
'Huang, Ming'
'Liu, Jiahao'
'Huang, Yong-Liang'
'Lan, Xiao-Bing'
'Ye, Zongren'
'Zhao, Cunyuan'
'Liu, Yan'
'Ke, Zhuofeng'
_publ_section_title
;
 Enhanced Hydride Donation Achieved Molybdenum Catalyzed Direct
 N-Alkylation of Anilines or Nitroarenes with Alcohols: From Computational
 Design to Experiment
;
_journal_issue                   16
_journal_name_full               'ACS Catalysis'
_journal_page_first              10377
_journal_page_last               10382
_journal_paper_doi               10.1021/acscatal.1c02956
_journal_volume                  11
_journal_year                    2021
_chemical_formula_moiety         'C14 H11 Mo N3 O4'
_chemical_formula_sum            'C14 H11 Mo N3 O4'
_chemical_formula_weight         381.20
_space_group_crystal_system      triclinic
_space_group_IT_number           2
_space_group_name_Hall           '-P 1'
_space_group_name_H-M_alt        'P -1'
_atom_sites_solution_hydrogens   geom
_atom_sites_solution_primary     iterative
_audit_creation_date             2021-04-01
_audit_creation_method
;
Olex2 1.2
(compiled 2018.05.29 svn.r3508 for OlexSys, GUI svn.r5506)
;
_cell_angle_alpha                79.028(9)
_cell_angle_beta                 81.338(10)
_cell_angle_gamma                63.090(14)
_cell_formula_units_Z            2
_cell_length_a                   8.4036(13)
_cell_length_b                   8.9796(11)
_cell_length_c                   11.1670(10)
_cell_measurement_reflns_used    2273
_cell_measurement_temperature    149.99(10)
_cell_measurement_theta_max      75.3590
_cell_measurement_theta_min      4.0370
_cell_volume                     735.69(18)
_computing_cell_refinement       'CrysAlisPro 1.171.39.46 (Rigaku OD, 2018)'
_computing_data_collection       'CrysAlisPro 1.171.39.46 (Rigaku OD, 2018)'
_computing_data_reduction        'CrysAlisPro 1.171.39.46 (Rigaku OD, 2018)'
_computing_molecular_graphics    'Olex2 (Dolomanov et al., 2009)'
_computing_publication_material  'Olex2 (Dolomanov et al., 2009)'
_computing_structure_refinement  'ShelXL (Sheldrick, 2015)'
_computing_structure_solution    'olex2.solve (Bourhis et al., 2015)'
_diffrn_ambient_environment      N~2~
_diffrn_ambient_temperature      149.99(10)
_diffrn_detector                 'CCD plate'
_diffrn_detector_area_resol_mean 5.2913
_diffrn_detector_type            AtlasS2
_diffrn_measured_fraction_theta_full 0.961
_diffrn_measured_fraction_theta_max 0.961
_diffrn_measurement_details
;
List of Runs (angles in degrees, time in seconds):

  # Type    Start    End  Width  t~exp~   \w     \q     \k     \f   Frames
--------------------------------------------------------------------------
  1  \w   -105.00  -1.00   1.00    4.00    --  -41.39 -19.00-150.00  104
  2  \w    -66.00  -2.00   1.00    4.00    --  -41.39 125.00 -30.00   64
  3  \w   -115.00 -21.00   1.00    4.00    --  -41.39 -38.00 150.00   94
  4  \w     27.00  67.00   1.00    4.00    --   41.39 -99.00 -60.00   40
  5  \w      4.00  81.00   1.00    4.00    --   41.39 -99.00 120.00   77
  6  \w     98.00 165.00   1.00   16.00    --  112.00 125.00 -60.00   67
  7  \w     82.00 115.00   1.00   16.00    --  112.00-125.00-120.00   33
  8  \w    101.00 173.00   1.00   16.00    --  112.00 125.00   0.00   72
  9  \w     48.00 118.00   1.00   16.00    --  112.00-125.00  60.00   70
 10  \w    146.00 178.00   1.00   16.00    --  112.00  30.00  60.00   32
 11  \w     29.00 103.00   1.00   16.00    --  112.00 -94.00 -60.00   74
 12  \w     90.00 134.00   1.00   16.00    --  112.00  30.00  60.00   44
 13  \w    136.00 178.00   1.00   16.00    --  112.00  45.00  90.00   42
 14  \w     87.00 133.00   1.00   16.00    --  112.00  45.00  90.00   46
 15  \w     36.00  95.00   1.00   16.00    --  112.00 -30.00  60.00   59
 16  \w     41.00 128.00   1.00   16.00    --  112.00 -77.00  30.00   87
 17  \w    100.00 145.00   1.00   16.00    --  112.00 125.00 -30.00   45
 18  \w     65.00 133.00   1.00   16.00    --  112.00 -30.00-120.00   68
 19  \w     93.00 118.00   1.00   20.00    --  112.00-125.00-180.00   25
;
_diffrn_measurement_device       'four-circle diffractometer'
_diffrn_measurement_device_type  'SuperNova, Dual, Cu at home/near, AtlasS2'
_diffrn_measurement_method       '\w scans'
_diffrn_orient_matrix_type
'CrysAlisPro convention (1999,Acta A55,543-557)'
_diffrn_orient_matrix_UB_11      0.1420752000
_diffrn_orient_matrix_UB_12      0.0627360000
_diffrn_orient_matrix_UB_13      0.0031913000
_diffrn_orient_matrix_UB_21      -0.1478606000
_diffrn_orient_matrix_UB_22      0.1678450000
_diffrn_orient_matrix_UB_23      0.0369851000
_diffrn_orient_matrix_UB_31      0.0211740000
_diffrn_orient_matrix_UB_32      -0.0750488000
_diffrn_orient_matrix_UB_33      0.1359272000
_diffrn_radiation_monochromator  mirror
_diffrn_radiation_probe          x-ray
_diffrn_radiation_type           CuK\a
_diffrn_radiation_wavelength     1.54184
_diffrn_reflns_av_R_equivalents  0.0947
_diffrn_reflns_av_unetI/netI     0.0923
_diffrn_reflns_Laue_measured_fraction_full 0.961
_diffrn_reflns_Laue_measured_fraction_max 0.961
_diffrn_reflns_limit_h_max       9
_diffrn_reflns_limit_h_min       -9
_diffrn_reflns_limit_k_max       8
_diffrn_reflns_limit_k_min       -10
_diffrn_reflns_limit_l_max       13
_diffrn_reflns_limit_l_min       -11
_diffrn_reflns_number            4060
_diffrn_reflns_point_group_measured_fraction_full 0.961
_diffrn_reflns_point_group_measured_fraction_max 0.961
_diffrn_reflns_theta_full        64.484
_diffrn_reflns_theta_max         64.484
_diffrn_reflns_theta_min         4.043
_diffrn_source                   'micro-focus sealed X-ray tube'
_diffrn_source_type              'SuperNova (Cu) X-ray Source'
_exptl_absorpt_coefficient_mu    7.503
_exptl_absorpt_correction_T_max  1.00000
_exptl_absorpt_correction_T_min  0.45556
_exptl_absorpt_correction_type   multi-scan
_exptl_absorpt_process_details
;
CrysAlisPro 1.171.39.46 (Rigaku Oxford Diffraction, 2018)
Empirical absorption correction using spherical harmonics,
 implemented in SCALE3 ABSPACK scaling algorithm.
;
_exptl_crystal_colour            yellow
_exptl_crystal_colour_primary    yellow
_exptl_crystal_density_diffrn    1.721
_exptl_crystal_description       block
_exptl_crystal_F_000             380
_exptl_crystal_size_max          0.15
_exptl_crystal_size_mid          0.12
_exptl_crystal_size_min          0.08
_refine_diff_density_max         2.279
_refine_diff_density_min         -0.908
_refine_diff_density_rms         0.242
_refine_ls_extinction_method     none
_refine_ls_goodness_of_fit_ref   1.089
_refine_ls_hydrogen_treatment    constr
_refine_ls_matrix_type           full
_refine_ls_number_parameters     179
_refine_ls_number_reflns         2385
_refine_ls_number_restraints     1
_refine_ls_restrained_S_all      1.093
_refine_ls_R_factor_all          0.1170
_refine_ls_R_factor_gt           0.1079
_refine_ls_shift/su_max          0.000
_refine_ls_shift/su_mean         0.000
_refine_ls_structure_factor_coef Fsqd
_refine_ls_weighting_details
'w=1/[\s^2^(Fo^2^)+(0.1863P)^2^+2.9448P] where P=(Fo^2^+2Fc^2^)/3'
_refine_ls_weighting_scheme      calc
_refine_ls_wR_factor_gt          0.2775
_refine_ls_wR_factor_ref         0.2885
_reflns_Friedel_coverage         0.000
_reflns_number_gt                2084
_reflns_number_total             2385
_reflns_threshold_expression     'I > 2\s(I)'
_cod_data_source_file            cs1c02956_si_004.cif
_cod_data_source_block           a20082006a0826
_cod_database_code               4518989
_shelx_shelxl_version_number     2018/3
_chemical_oxdiff_formula         CHONMo
_chemical_oxdiff_usercomment     mo-py-c-nhc
_shelx_space_group_comment
;
The symmetry employed for this shelxl refinement is uniquely defined
by the following loop, which should always be used as a source of
symmetry information in preference to the above space-group names.
They are only intended as comments.
;
_shelx_estimated_absorpt_t_max   0.585
_shelx_estimated_absorpt_t_min   0.399
_reflns_odcompleteness_completeness 99.78
_reflns_odcompleteness_iscentric 1
_reflns_odcompleteness_theta     68.13
_olex2_refinement_description
;
1. Others
 Fixed Uiso: H6(0.1) H7(0.088) H14(0.086) H11(0.085) H12(0.108) H13(0.102)
 H9A(0.084) H9B(0.084) H8A(0.125) H8B(0.125) H8C(0.125)
 Fixed X: H6(0.69185) H7(0.450072) H14(0.320043) H11(0.052622) H12(-0.122965)
 H13(0.010742) H9A(0.335364) H9B(0.479697) H8A(0.963551) H8B(0.948071)
 H8C(0.837074)
 Fixed Y: H6(1.155129) H7(1.253878) H14(0.56904) H11(1.114409) H12(0.984369)
 H13(0.711685) H9A(1.11097) H9B(0.935116) H8A(0.704904) H8B(0.862443)
 H8C(0.765375)
 Fixed Z: H6(-0.00282) H7(0.165904) H14(0.260979) H11(0.357962) H12(0.335759)
 H13(0.287268) H9A(0.347541) H9B(0.401171) H8A(0.053502) H8B(-0.042066) H8C(-
 0.05322)
;
_shelx_res_file
;
TITL a20082006a0826_a.res in P-1
    a20082006a0826.res
    created by SHELXL-2018/3 at 22:48:45 on 22-Mar-2021
REM Old TITL a20082006a0826_a.res in P-1
REM SHELXT solution in P-1
REM R1 0.214, Rweak 0.118, Alpha 0.148, Orientation as input
REM Formula found by SHELXT: C15 Mo N2 O3
CELL 1.54184 8.4036 8.9796 11.167 79.028 81.338 63.09
ZERR 2 0.0013 0.0011 0.001 0.009 0.01 0.014
LATT 1
SFAC C H Mo N O
UNIT 28 22 2 6 8
DFIX 1.5 C8 N3

L.S. 25
PLAN  27
SIZE 0.08 0.12 0.15
BOND $H
list 4
temp
fmap 2
acta
OMIT -3 129
OMIT 2 -1 13
OMIT 1 -2 12
OMIT 2 -2 12
OMIT 1 -1 13
OMIT 1 0 4
OMIT 6 -1 1
OMIT -1 3 2
OMIT 7 2 10
OMIT -5 2 0
OMIT 0 2 9
OMIT 2 2 0
OMIT 5 0 12
OMIT 2 -3 8
OMIT 4 -1 12
OMIT 1 0 13
OMIT 1 5 0
OMIT 0 4 1
OMIT 9 5 8
OMIT 7 0 0
OMIT 1 0 6
OMIT -1 -1 1
OMIT 1 5 4
OMIT -4 -1 4
OMIT 2 6 3
OMIT -2 4 10
OMIT -5 -7 5
OMIT -3 -5 5
OMIT 1 5 2
OMIT 0 -4 1
OMIT -4 -6 4
OMIT -6 1 1
OMIT 3 -2 3
OMIT -3 3 9
OMIT 7 0 2
OMIT -2 6 2
OMIT 1 1 1
OMIT -4 -1 2
OMIT -3 5 1
OMIT 2 6 5
OMIT 6 3 0
OMIT 2 -2 1
OMIT 2 1 5
OMIT -2 4 8
OMIT 2 -3 2
OMIT 4 -3 1
OMIT -1 0 11
OMIT 5 0 9
OMIT 0 -1 3
OMIT -1 3 0
OMIT 8 1 1
OMIT -8 -1 1
OMIT 0 -1 5
OMIT -5 -2 3
OMIT -4 -6 6
OMIT 3 -2 7
OMIT -1 5 11
OMIT -1 5 9
OMIT -2 -1 12
OMIT 1 -4 3
OMIT 4 -1 8
OMIT -2 2 1
OMIT 5 4 8
OMIT 3 -2 9
OMIT -4 -6 2
OMIT 2 1 1
OMIT 3 2 6
OMIT -3 7 6
OMIT 0 -3 9
OMIT -1 -2 6
OMIT 0 6 10
OMIT 8 4 5
OMIT -4 6 7
OMIT -3 4 6
OMIT 5 -2 2
OMIT -1 7 3
OMIT -1 0 9
OMIT 3 2 8
OMIT 1 -3 2
OMIT 3 7 4
OMIT -5 -7 7
OMIT 3 6 9
OMIT -7 0 2
OMIT -7 4 1
OMIT 6 -1 3
OMIT -4 6 5
OMIT -2 -4 6
OMIT -4 3 1
OMIT 9 5 6
OMIT -1 0 13
OMIT -1 1 10
OMIT -6 5 0
OMIT 0 4 3
OMIT 9 2 0
OMIT 2 -3 4
OMIT -2 1 4
OMIT 3 3 5
OMIT 5 2 1
OMIT 2 -3 6
OMIT -6 -3 2
OMIT 5 3 11
OMIT -2 6 4
OMIT 6 1 8
OMIT -1 -7 6
OMIT 4 3 9
OMIT -4 -5 5
OMIT -1 -4 8
REM <olex2.extras>
REM <HklSrc "%.\\A20082006A0826.hkl">
REM </olex2.extras>

WGHT    0.186300    2.944800
FVAR       0.60375
MO1   3    0.677737    0.598858    0.268460    11.00000    0.04256    0.03920 =
         0.06394   -0.01321    0.00798   -0.01061
O2    5    0.685620    0.478540    0.018434    11.00000    0.06975    0.07841 =
         0.08930   -0.02996    0.00034   -0.02868
O4    5    0.647444    0.269445    0.399677    11.00000    0.08935    0.05990 =
         0.09421   -0.01323    0.02263   -0.03414
O3    5    1.092089    0.394672    0.225275    11.00000    0.04843    0.05963 =
         0.07760   -0.01707    0.00009   -0.00751
O1    5    0.779439    0.637477    0.518729    11.00000    0.08471    0.08563 =
         0.08140   -0.02869   -0.00697   -0.01838
C2    1    0.669405    0.531712    0.106939    11.00000    0.04624    0.05769 =
         0.04601   -0.01625    0.00855   -0.01544
AFIX  56
N2    4    0.520661    0.997689    0.231378    11.00000    0.05902    0.03351 =
         0.09311   -0.01207   -0.01468   -0.01174
C5    1    0.655076    0.852550    0.183115    11.00000    0.04834    0.06177 =
         0.05822   -0.01390    0.01013   -0.02998
N3    4    0.741692    0.907415    0.077132    11.00000    0.06988    0.06047 =
         0.08739   -0.00491   -0.00206   -0.03223
C6    1    0.660808    1.086462    0.059893    11.00000    0.07356    0.05340 =
         0.11411   -0.00391   -0.01173   -0.02169
AFIX  43
H6    2    0.691850    1.155129   -0.002820    11.00000   -1.20000
AFIX  55
C7    1    0.524203    1.142255    0.155222    11.00000    0.07429    0.05192 =
         0.08978   -0.00202   -0.01115   -0.02629
AFIX  43
H7    2    0.450072    1.253878    0.165904    11.00000   -1.20000
AFIX   0
C1    1    0.730943    0.631044    0.429040    11.00000    0.05462    0.05400 =
         0.05755   -0.00373   -0.00280   -0.01227
C4    1    0.661990    0.389282    0.350975    11.00000    0.05761    0.04533 =
         0.06865   -0.01271    0.01316   -0.02107
AFIX  66
C14   1    0.266443    0.678349    0.280417    11.00000    0.06633    0.05816 =
         0.09067   -0.01828    0.01006   -0.02851
AFIX  43
H14   2    0.320043    0.569040    0.260979    11.00000   -1.20000
AFIX  65
N1    4    0.371642    0.756263    0.293720    11.00000    0.05100    0.04377 =
         0.06235   -0.01412    0.02319   -0.01207
C10   1    0.291531    0.919638    0.322773    11.00000    0.05758    0.04226 =
         0.05651    0.00327   -0.00182   -0.00407
C11   1    0.106221    1.005100    0.338523    11.00000    0.05414    0.05598 =
         0.07880   -0.01779    0.02266   -0.00938
AFIX  43
H11   2    0.052622    1.114409    0.357962    11.00000   -1.20000
AFIX  65
C12   1    0.001020    0.927188    0.325221    11.00000    0.05909    0.05783 =
         0.14264   -0.01977    0.00664   -0.01916
AFIX  43
H12   2   -0.122965    0.984369    0.335759    11.00000   -1.20000
AFIX  65
C13   1    0.081128    0.763813    0.296168    11.00000    0.06581    0.06517 =
         0.11664   -0.00753   -0.00310   -0.02591
AFIX  43
H13   2    0.010742    0.711685    0.287268    11.00000   -1.20000
AFIX   0
C9    1    0.408696    0.995821    0.331590    11.00000    0.05269    0.05079 =
         0.08676   -0.01869   -0.00143   -0.00302
AFIX  23
H9A   2    0.335364    1.110970    0.347541    11.00000   -1.20000
H9B   2    0.479697    0.935116    0.401171    11.00000   -1.20000
AFIX   0
C3    1    0.934427    0.474493    0.243860    11.00000    0.05842    0.05318 =
         0.06413   -0.01751    0.01083   -0.02064
C8    1    0.883979    0.801567    0.002899    11.00000    0.08294    0.06743 =
         0.09445   -0.02117    0.01350   -0.02990
AFIX 137
H8A   2    0.963551    0.704904    0.053502    11.00000   -1.50000
H8B   2    0.948071    0.862443   -0.042066    11.00000   -1.50000
H8C   2    0.837074    0.765375   -0.053220    11.00000   -1.50000
AFIX   0
HKLF 4




REM  a20082006a0826_a.res in P-1
REM wR2 = 0.2885, GooF = S = 1.089, Restrained GooF = 1.093 for all data
REM R1 = 0.1079 for 2084 Fo > 4sig(Fo) and 0.1170 for all 2385 data
REM 179 parameters refined using 1 restraints

END

WGHT      0.1893      2.9689

REM Highest difference peak  2.279,  deepest hole -0.908,  1-sigma level  0.242
Q1    1   0.6259  0.5496  0.2214  11.00000  0.05    2.28
Q2    1   0.7049  0.5651  0.1889  11.00000  0.05    2.20
Q3    1   0.4644  0.7813  0.2122  11.00000  0.05    2.19
Q4    1   0.7518  0.6264  0.2990  11.00000  0.05    2.07
Q5    1   0.1754  1.0120  0.2581  11.00000  0.05    1.97
Q6    1   0.4040  0.8217  0.3190  11.00000  0.05    1.09
Q7    1   0.9339  0.3999  0.2182  11.00000  0.05    0.97
Q8    1   0.7178  0.9020  0.1169  11.00000  0.05    0.94
Q9    1   0.8265  0.3586  0.2814  11.00000  0.05    0.92
Q10   1   0.6530  0.3979  0.2271  11.00000  0.05    0.76
Q11   1   0.5419  0.8343  0.2536  11.00000  0.05    0.73
Q12   1   0.2491  0.7057  0.3537  11.00000  0.05    0.68
Q13   1   0.2947  0.8798  0.2509  11.00000  0.05    0.68
Q14   1   1.0432  0.2590  0.2409  11.00000  0.05    0.67
Q15   1   0.6769  0.2248  0.3197  11.00000  0.05    0.67
Q16   1   0.5721  0.9744  0.2141  11.00000  0.05    0.66
Q17   1   0.4210  0.4331  0.3666  11.00000  0.05    0.66
Q18   1   0.6983  0.7658  0.3391  11.00000  0.05    0.65
Q19   1   0.5971  1.1333  0.1123  11.00000  0.05    0.64
Q20   1   1.1696  0.4119  0.2336  11.00000  0.05    0.62
Q21   1   0.9221  0.4988  0.1594  11.00000  0.05    0.62
Q22   1   0.5197  0.6317  0.3152  11.00000  0.05    0.62
Q23   1   0.2227  0.7527  0.2816  11.00000  0.05    0.60
Q24   1   0.4110  0.6401  0.2484  11.00000  0.05    0.60
Q25   1   0.7132  0.7729  0.2514  11.00000  0.05    0.55
Q26   1   1.0970  0.4594  0.2832  11.00000  0.05    0.52
Q27   1   0.5263  1.0703  0.1530  11.00000  0.05    0.52
;
_shelx_res_checksum              86128
_shelx_hkl_file
;
 -10  -7  -5    2.78    1.41
 -10  -7  -4   30.39    4.01
 -10  -7  -3    2.12    1.48
 -10  -7  -2   28.66    4.32
 -10  -7  -1   -0.32    1.59
 -10  -7   0   22.37    3.73
 -10  -6  -3   27.58    4.51
 -10  -6  -2   48.95    5.90
 -10  -6  -1   34.98    4.93
 -10  -6   0    7.15    2.49
 -10  -6   1   43.31    5.44
 -10  -5  -2    3.69    2.19
 -10  -5  -1   93.36    8.06
 -10  -5   0   -0.36    1.76
 -10  -5   1   51.86    5.78
 -10  -4  -3   65.65    6.12
 -10  -4  -2    4.65    2.12
 -10  -4  -1   20.24    3.47
  -9  -9  -5    4.02    1.61
  -9  -9  -4   24.59    3.43
  -9  -9  -3    2.14    1.64
  -9  -9  -2   62.78    5.72
  -9  -8  -6   20.80    2.94
  -9  -8  -5    2.07    1.51
  -9  -8  -4   28.35    4.34
  -9  -8  -4   33.36    4.53
  -9  -8  -3    6.14    2.18
  -9  -8  -3    5.27    2.29
  -9  -8  -2   33.89    5.43
  -9  -8  -2   32.74    4.73
  -9  -8  -1   33.51    5.52
  -9  -8   0   46.00    6.55
  -9  -8   1   58.68    7.48
  -9  -8   2   16.41    3.86
  -9  -7  -2    9.98    3.22
  -9  -7  -1   23.99    5.25
  -9  -7   0    2.81    2.03
  -9  -7   1   15.84    4.30
  -9  -7   2   -1.66    2.26
  -9  -7   3   61.39    7.84
  -9  -6  -1   66.27    8.91
  -9  -6   0    7.90    3.20
  -9  -6   1   19.81    5.17
  -9  -6   2   21.08    5.00
  -9  -6   3   40.57    6.92
  -9  -6   4   18.57    4.39
  -9  -5   0   56.73    8.09
  -9  -5   0   48.54    7.26
  -9  -5   1    0.92    1.93
  -9  -5   1    1.03    2.04
  -9  -5   2   50.43    7.64
  -9  -5   2   37.23    6.50
  -9  -5   3    3.57    2.87
  -9  -5   3   -1.76    1.95
  -9  -5   4   66.89    8.12
  -9  -4  -1    2.32    2.03
  -9  -4   0   67.24    8.43
  -9  -4   0  100.32   10.52
  -9  -4   1   14.05    4.38
  -9  -4   1   16.54    4.15
  -9  -4   2  129.79   12.22
  -9  -4   2  138.06   12.08
  -9  -4   3    1.10    1.57
  -9  -4   3    6.74    3.27
  -9  -4   4   45.42    6.71
  -9  -4   5   20.00    3.84
  -9  -3   0   22.30    4.63
  -9  -3   0   29.69    5.19
  -9  -3   1   54.81    7.37
  -9  -3   1   68.46    7.71
  -9  -3   2   18.97    4.60
  -9  -3   3   46.84    6.95
  -9  -3   4    6.72    2.78
  -9  -3   5   34.90    4.90
  -9  -2   1   31.36    4.72
  -9  -2   2   16.94    4.60
  -9  -2   3   26.51    4.10
  -9  -2   4    4.10    2.26
  -9  -2   5   26.63    4.00
  -9  -1   2    2.37    1.29
  -9  -1   3   32.76    4.50
  -9  -1   4   18.50    3.23
  -8 -10  -6   13.92    2.47
  -8 -10  -5   -0.19    0.94
  -8 -10  -4   44.58    5.15
  -8 -10  -3    7.25    2.31
  -8 -10  -2   51.98    5.87
  -8 -10  -1    9.60    2.83
  -8 -10   0   11.61    2.75
  -8  -9  -8   22.72    2.79
  -8  -9  -7   14.38    2.65
  -8  -9  -6   17.32    3.12
  -8  -9  -5   23.59    3.87
  -8  -9  -4   14.81    2.81
  -8  -9  -3   52.08    7.12
  -8  -9  -2   10.23    3.36
  -8  -9  -1   81.55    8.40
  -8  -9  -1   63.16    7.77
  -8  -9   0    2.85    2.12
  -8  -9   0   10.07    3.60
  -8  -9   1   22.06    4.41
  -8  -9   1   28.37    5.17
  -8  -9   2   -1.53    2.31
  -8  -9   2    0.55    1.52
  -8  -8  -9   12.91    2.09
  -8  -8  -4    2.92    2.15
  -8  -8  -3   46.87    6.98
  -8  -8  -2    4.01    2.39
  -8  -8  -2    1.31    1.75
  -8  -8  -1   70.01    8.97
  -8  -8  -1   83.54    9.54
  -8  -8   0    4.29    2.70
  -8  -8   0    9.85    3.81
  -8  -8   1   70.55    9.25
  -8  -8   1   57.06    7.87
  -8  -8   2    9.46    3.65
  -8  -8   2   11.23    3.36
  -8  -8   3   42.69    7.35
  -8  -8   4   11.45    3.34
  -8  -7  -1   19.13    5.29
  -8  -7  -1   14.84    4.35
  -8  -7   0   17.51    4.89
  -8  -7   0   21.29    5.18
  -8  -7   1    7.49    3.18
  -8  -7   1    4.63    3.03
  -8  -7   2   54.12    8.99
  -8  -7   3   17.70    5.44
  -8  -7   4  104.70   12.11
  -8  -7   5    2.66    2.59
  -8  -6   0   73.64   10.08
  -8  -6   1    5.92    3.54
  -8  -6   1   -0.99    2.74
  -8  -6   2   47.12    8.28
  -8  -6   2   36.18    7.67
  -8  -6   3   -1.10    2.95
  -8  -6   4   54.77    8.95
  -8  -6   5    1.24    2.15
  -8  -6   6   22.82    5.09
  -8  -5  -1    0.69    1.64
  -8  -5   0  109.26   13.21
  -8  -5   1   28.24    6.60
  -8  -5   1   21.61    5.81
  -8  -5   2   82.44   11.92
  -8  -5   2  117.85   13.28
  -8  -5   3   29.45    6.47
  -8  -5   3   23.68    6.12
  -8  -5   4   23.54    6.33
  -8  -5   4   38.32    8.18
  -8  -5   5   32.97    6.36
  -8  -5   5   55.54    8.99
  -8  -5   6   19.27    5.24
  -8  -4  -1   43.46    7.04
  -8  -4   0    5.06    2.85
  -8  -4   1  164.22   15.75
  -8  -4   1  205.41   16.43
  -8  -4   2   16.05    5.44
  -8  -4   2   23.07    6.22
  -8  -4   3  125.22   13.86
  -8  -4   3  114.76   12.55
  -8  -4   4   14.75    5.00
  -8  -4   4    8.40    4.48
  -8  -4   5   32.47    6.93
  -8  -4   5   27.71    5.91
  -8  -4   6   41.92    7.32
  -8  -4   6   29.20    5.74
  -8  -3  -1  123.27   11.79
  -8  -3   0   28.26    6.50
  -8  -3   1   54.56    8.28
  -8  -3   1   59.70    9.14
  -8  -3   2   60.16    9.39
  -8  -3   2   55.08    8.07
  -8  -3   3   99.14   12.19
  -8  -3   3  124.16   12.49
  -8  -3   4   61.34    9.62
  -8  -3   5   35.58    7.30
  -8  -3   6   40.03    6.66
  -8  -3   7    8.49    2.61
  -8  -2   0  119.29   11.72
  -8  -2   1   53.11    8.43
  -8  -2   2   53.89    8.77
  -8  -2   3    6.00    3.73
  -8  -2   4  108.82   12.33
  -8  -2   5    1.19    2.21
  -8  -2   6   76.50    9.12
  -8  -2   7   -0.87    1.61
  -8  -1   1   51.18    8.24
  -8  -1   2   95.65   10.80
  -8  -1   3   20.12    5.77
  -8  -1   4   51.38    8.02
  -8  -1   5   19.31    5.66
  -8  -1   6   15.30    4.09
  -8  -1   7   13.07    3.02
  -8   0   2   48.97    7.22
  -8   0   3   20.74    4.81
  -8   0   4   25.68    5.35
  -8   0   5   22.19    4.86
  -8   0   6   10.04    3.05
  -8   1   3   55.37    6.40
  -8   1   4    9.27    3.12
  -8   1   5   30.45    4.43
  -7 -10  -7   11.54    2.20
  -7 -10  -7   12.38    2.33
  -7 -10  -6   -0.36    1.11
  -7 -10  -6    1.54    1.29
  -7 -10  -5   14.43    2.66
  -7 -10  -5   20.12    3.89
  -7 -10  -4    1.38    1.78
  -7 -10  -4    3.93    1.68
  -7 -10  -3   64.15    7.57
  -7 -10  -2    1.67    1.69
  -7 -10  -1   29.21    5.45
  -7 -10   0    0.93    1.65
  -7 -10   1   15.80    3.95
  -7 -10   2    2.67    2.06
  -7  -9  -9    9.48    1.88
  -7  -9  -8    0.76    1.10
  -7  -9  -7   28.69    4.24
  -7  -9  -6   -1.84    1.67
  -7  -9  -5   15.85    3.45
  -7  -9  -4   -2.99    2.28
  -7  -9  -3   33.55    4.88
  -7  -9  -2   26.31    5.96
  -7  -9  -1   77.40    9.86
  -7  -9   0   23.64    5.42
  -7  -9   1   13.14    4.21
  -7  -9   1   33.19    6.60
  -7  -9   2   29.35    6.11
  -7  -9   2   20.19    5.10
  -7  -9   3   11.80    3.83
  -7  -9   3   14.32    4.02
  -7  -8 -10    2.14    1.07
  -7  -8  -9   38.02    4.34
  -7  -8  -3   57.18    7.57
  -7  -8  -2  137.34   12.39
  -7  -8  -1   13.53    4.86
  -7  -8  -1   14.96    4.43
  -7  -8   0  171.83   15.56
  -7  -8   0  205.06   16.52
  -7  -8   1    6.42    3.73
  -7  -8   1    7.86    4.21
  -7  -8   2  126.91   13.92
  -7  -8   2  108.07   12.13
  -7  -8   3    8.34    3.93
  -7  -8   3    3.36    2.86
  -7  -8   4   68.70    9.03
  -7  -8   4   79.32   10.96
  -7  -8   5   17.52    5.12
  -7  -7 -10    9.53    2.01
  -7  -7  -1   28.55    6.19
  -7  -7   0   40.64    7.72
  -7  -7   0   32.97    6.95
  -7  -7   1   34.25    6.99
  -7  -7   1   55.46    9.09
  -7  -7   2   34.49    7.52
  -7  -7   2   53.97    9.43
  -7  -7   3   70.84   10.01
  -7  -7   3  101.35   12.94
  -7  -7   4   71.77   11.66
  -7  -7   4   51.44    8.60
  -7  -7   5   46.64    9.24
  -7  -7   6    7.57    3.90
  -7  -6   0   13.05    5.31
  -7  -6   1   57.54    9.08
  -7  -6   1   55.82   10.34
  -7  -6   1   41.26    7.49
  -7  -6   2    5.76    3.79
  -7  -6   2    4.73    3.36
  -7  -6   2    1.24    2.37
  -7  -6   3   91.27   11.79
  -7  -6   3   82.04   12.39
  -7  -6   4    2.34    2.92
  -7  -6   4    1.24    2.57
  -7  -6   5  109.14   14.50
  -7  -6   6    8.91    4.70
  -7  -6   7   41.09    7.13
  -7  -5  -2    3.89    3.25
  -7  -5  -1  267.22   20.31
  -7  -5   0   25.70    7.37
  -7  -5   1  169.97   17.30
  -7  -5   2   55.20    8.97
  -7  -5   2   46.02    9.25
  -7  -5   3   88.46   12.95
  -7  -5   3  101.20   12.51
  -7  -5   4   33.08    7.38
  -7  -5   4   28.61    7.24
  -7  -5   5    5.56    3.43
  -7  -5   5    9.06    3.23
  -7  -5   6   25.58    7.30
  -7  -5   6   14.53    4.99
  -7  -5   7   17.07    5.30
  -7  -5   8   12.83    3.37
  -7  -4  -2   35.93    6.60
  -7  -4  -1   34.72    7.11
  -7  -4   0   43.26    7.87
  -7  -4   1   71.85   12.39
  -7  -4   2   31.39    7.06
  -7  -4   2   34.44    7.01
  -7  -4   3  161.60   15.83
  -7  -4   3  116.34   15.34
  -7  -4   4   14.56    5.35
  -7  -4   4    8.83    3.41
  -7  -4   5   14.73    6.79
  -7  -4   5    3.35    3.79
  -7  -4   6   29.14    7.22
  -7  -4   6   33.64    7.22
  -7  -4   7   10.42    3.72
  -7  -4   7   23.16    7.00
  -7  -3  -1  108.77   11.68
  -7  -3   0   57.61    9.09
  -7  -3   1   54.48    9.13
  -7  -3   2  142.24   13.26
  -7  -3   2  148.95   15.59
  -7  -3   3    9.47    4.75
  -7  -3   3   12.77    5.63
  -7  -3   4  214.40   19.35
  -7  -3   4  184.26   16.17
  -7  -3   5    9.59    5.17
  -7  -3   5    6.99    4.57
  -7  -3   5    3.36    4.06
  -7  -3   6   62.91   10.18
  -7  -3   6   48.27    8.72
  -7  -3   7   33.19    6.69
  -7  -3   8   13.12    3.24
  -7  -2   0  184.46   15.42
  -7  -2   1   35.92    7.36
  -7  -2   2  126.65   13.88
  -7  -2   2  115.18   11.52
  -7  -2   3   64.90   10.31
  -7  -2   4   22.36    7.30
  -7  -2   5   97.45   11.74
  -7  -2   5  101.51   12.92
  -7  -2   6   23.13    6.92
  -7  -2   6   27.67    6.43
  -7  -2   7   66.14    9.43
  -7  -2   8    6.79    2.92
  -7  -1   0    9.89    3.65
  -7  -1   1   83.12   10.44
  -7  -1   2   38.48    7.47
  -7  -1   3  144.89   14.67
  -7  -1   4   -1.92    2.69
  -7  -1   5  125.57   13.92
  -7  -1   6    1.90    2.57
  -7  -1   7  115.02   12.02
  -7  -1   8   14.05    3.77
  -7   0   1  285.21   18.44
  -7   0   2  111.60   12.52
  -7   0   3  228.58   18.10
  -7   0   4   99.56   12.79
  -7   0   5   70.25   10.04
  -7   0   6   64.32   10.41
  -7   0   7   29.91    5.87
  -7   0   8   30.23    5.06
  -7   1   2  119.27   12.14
  -7   1   3    6.53    3.83
  -7   1   4   94.98   11.24
  -7   1   5    5.46    3.20
  -7   1   6   51.52    7.90
  -7   1   7   10.83    3.56
  -7   2   2   88.74    8.94
  -7   2   3    4.87    2.76
  -7   2   4   43.33    6.83
  -7   2   5    5.46    2.86
  -7   2   6   39.06    5.77
  -7   3   4   34.41    4.62
  -6 -10  -8    6.64    1.70
  -6 -10  -7   34.33    4.19
  -6 -10  -7   42.46    4.52
  -6 -10  -6    8.11    2.15
  -6 -10  -6    9.97    2.81
  -6 -10  -6    6.07    2.11
  -6 -10  -5   33.33    4.60
  -6 -10  -5   42.25    5.91
  -6 -10  -5   34.62    4.42
  -6 -10  -4   33.34    4.56
  -6 -10  -4   27.95    4.13
  -6 -10  -3   33.12    4.61
  -6 -10  -3   22.19    3.53
  -6 -10  -2   40.96    6.69
  -6 -10  -1    7.25    3.06
  -6 -10   0   16.71    4.79
  -6 -10   1   -0.51    1.87
  -6 -10   2   25.66    5.38
  -6  -9  -9   14.18    2.59
  -6  -9  -8   31.72    4.49
  -6  -9  -7    8.04    2.66
  -6  -9  -6    7.19    2.75
  -6  -9  -5    2.05    2.02
  -6  -9  -4   31.37    5.45
  -6  -9  -3    1.67    2.06
  -6  -9  -3    0.62    1.33
  -6  -9  -2   81.04   10.54
  -6  -9  -1    8.53    3.94
  -6  -9   0   87.42   10.95
  -6  -9   1    0.39    2.15
  -6  -9   2    8.46    3.86
  -6  -9   3   25.62    5.93
  -6  -9   4   18.67    4.86
  -6  -8 -10   22.20    3.05
  -6  -8  -9    3.83    1.91
  -6  -8  -8   70.26    7.77
  -6  -8   0   49.04    8.83
  -6  -8   0   34.62    7.52
  -6  -8   1   45.47    8.74
  -6  -8   1   62.30    9.72
  -6  -8   2   37.03    8.54
  -6  -8   2   56.30   10.48
  -6  -8   3   74.31   11.73
  -6  -8   3   54.45    9.34
  -6  -8   4   35.49    8.55
  -6  -8   4   22.49    6.21
  -6  -8   5   45.70    8.38
  -6  -8   6   19.37    4.47
  -6  -7 -10   12.72    2.77
  -6  -7  -1  176.41   14.75
  -6  -7   0    2.61    2.97
  -6  -7   1  125.18   13.47
  -6  -7   1  101.91   12.20
  -6  -7   2    0.30    2.29
  -6  -7   2    3.12    2.92
  -6  -7   3  354.88   24.64
  -6  -7   3  283.37   21.18
  -6  -7   4   15.18    5.71
  -6  -7   4   17.88    6.73
  -6  -7   5  110.37   14.84
  -6  -7   5   94.02   12.50
  -6  -7   6   21.97    6.46
  -6  -7   7   17.81    4.87
  -6  -6   0   28.76    7.40
  -6  -6   1   16.89    5.28
  -6  -6   1   15.76    5.23
  -6  -6   1   16.20    5.80
  -6  -6   2   61.82   11.49
  -6  -6   2   48.09    8.30
  -6  -6   2   64.17    9.65
  -6  -6   3   25.16    6.48
  -6  -6   3   35.35    8.39
  -6  -6   3   34.08    7.60
  -6  -6   4   59.12    9.76
  -6  -6   4   62.38   11.24
  -6  -6   4   50.19   10.29
  -6  -6   5   12.30    5.18
  -6  -6   5   18.29    7.43
  -6  -6   6   94.54   13.71
  -6  -6   7   12.74    6.09
  -6  -6   8   50.25    7.50
  -6  -6   8   45.73    5.37
  -6  -5  -2  208.85   17.32
  -6  -5  -1  105.58   12.93
  -6  -5   0  229.79   19.11
  -6  -5   1   28.87    7.25
  -6  -5   2  327.40   25.04
  -6  -5   2  307.40   19.83
  -6  -5   2  308.66   19.49
  -6  -5   3    8.58    4.62
  -6  -5   3   10.10    4.61
  -6  -5   4  125.86   14.26
  -6  -5   4  128.51   16.25
  -6  -5   5    8.37    4.72
  -6  -5   5    3.10    2.89
  -6  -5   6   44.46    8.44
  -6  -5   6   92.63   13.69
  -6  -5   7   16.25    6.27
  -6  -5   8   50.43    8.62
  -6  -4   1  150.61   15.88
  -6  -4   2  476.53   28.07
  -6  -4   3  202.53   16.60
  -6  -4   3  197.22   18.63
  -6  -4   3  207.09   16.31
  -6  -4   4   74.56   12.01
  -6  -4   4   69.14   10.40
  -6  -4   4   70.01   10.19
  -6  -4   5  166.23   16.85
  -6  -4   5  137.77   14.88
  -6  -4   5  150.67   17.30
  -6  -4   6    0.67    2.20
  -6  -4   6    9.83    5.09
  -6  -4   6    3.01    3.60
  -6  -4   7   88.33   11.72
  -6  -4   7   67.47    9.45
  -6  -4   8    5.01    3.00
  -6  -4   8    4.49    3.73
  -6  -4   9   28.92    5.51
  -6  -3   2  111.70   13.29
  -6  -3   2  104.39   12.02
  -6  -3   3  202.48   15.44
  -6  -3   3  201.31   17.80
  -6  -3   3  190.32   15.84
  -6  -3   4   37.97    8.50
  -6  -3   4   24.51    7.87
  -6  -3   4   16.62    7.18
  -6  -3   5   97.13   12.04
  -6  -3   5   95.60   13.80
  -6  -3   5   71.68   10.23
  -6  -3   6   15.75    6.46
  -6  -3   6   22.27    7.33
  -6  -3   6   19.57    7.54
  -6  -3   7   29.44    7.00
  -6  -3   7   35.10    7.60
  -6  -3   7   42.17    9.12
  -6  -3   8    5.17    2.80
  -6  -3   8    8.57    4.70
  -6  -3   8   11.55    4.62
  -6  -3   9   25.50    5.25
  -6  -2   2   61.96    8.56
  -6  -2   2   57.24    8.99
  -6  -2   3  145.17   14.96
  -6  -2   3  125.73   12.75
  -6  -2   3  150.26   12.42
  -6  -2   4   40.89    7.37
  -6  -2   4   42.74    8.52
  -6  -2   4   44.47    8.26
  -6  -2   5  110.54   12.65
  -6  -2   5  118.84   14.73
  -6  -2   6   19.61    6.94
  -6  -2   6   12.38    4.73
  -6  -2   7   67.60    9.92
  -6  -2   7   65.39   10.48
  -6  -2   8   27.53    6.16
  -6  -2   8   37.33    7.41
  -6  -2   9   13.53    4.14
  -6  -1  -5  237.82   40.66
  -6  -1  -4    9.18   12.23
  -6  -1   1  128.67   12.53
  -6  -1   1  174.25   35.02
  -6  -1   2   48.67    8.13
  -6  -1   2   38.36   14.93
  -6  -1   3   93.46   12.32
  -6  -1   3   79.86   10.00
  -6  -1   4   42.13    7.50
  -6  -1   4   54.54    9.70
  -6  -1   5    1.93    4.01
  -6  -1   5    1.65    2.91
  -6  -1   6   62.60   10.60
  -6  -1   6   52.21    8.48
  -6  -1   7   -0.48    2.96
  -6  -1   7    1.11    2.38
  -6  -1   8   55.74    8.46
  -6  -1   8   53.90    8.22
  -6  -1   9    4.10    2.49
  -6  -1   9    5.02    2.38
  -6   0  -4   45.29   19.40
  -6   0  -3  115.20   31.42
  -6   0  -2  149.09   35.20
  -6   0  -1   44.29   20.03
  -6   0   0  268.04   45.70
  -6   0   1   51.85    8.18
  -6   0   1   83.15   25.53
  -6   0   2  126.76   13.65
  -6   0   2  166.07   36.12
  -6   0   3    1.48    2.25
  -6   0   4  128.31   14.90
  -6   0   5    3.56    3.30
  -6   0   5   -0.12    2.16
  -6   0   6  163.48   14.27
  -6   0   6  165.95   16.82
  -6   0   7   12.47    4.79
  -6   0   7   16.40    4.27
  -6   0   8   88.67    9.59
  -6   0   8   74.87    9.89
  -6   0   9   15.11    3.55
  -6   0   9   17.44    3.94
  -6   1   1  200.45   16.11
  -6   1   2  201.65   16.62
  -6   1   3  250.75   19.42
  -6   1   4  101.20   12.65
  -6   1   5  232.27   20.13
  -6   1   6   66.85   10.50
  -6   1   7  116.95   13.43
  -6   1   8   28.80    5.94
  -6   1   9   35.86    5.14
  -6   2   2   95.83   11.75
  -6   2   3  186.95   16.33
  -6   2   4    5.36    4.19
  -6   2   5  149.08   15.14
  -6   2   6    4.38    3.38
  -6   2   7  112.88   11.93
  -6   2   8    0.91    2.01
  -6   3   2   10.15    3.70
  -6   3   3  156.13   13.69
  -6   3   4    3.82    2.83
  -6   3   5  116.50   11.99
  -6   3   6   20.82    5.10
  -6   3   7   37.95    5.94
  -6   4   3   15.79    4.01
  -6   4   4   13.13    3.40
  -6   4   5   34.69    5.44
  -6   4   6   27.31    4.27
  -5 -11  -5    3.34    1.32
  -5 -11  -4   33.05    3.90
  -5 -11  -3   -1.26    1.49
  -5 -11  -2   43.53    4.66
  -5 -10  -8   50.70    4.70
  -5 -10  -7   -0.17    1.10
  -5 -10  -6   47.71    5.69
  -5 -10  -5    5.88    2.85
  -5 -10  -5    9.78    3.21
  -5 -10  -4  110.70    9.18
  -5 -10  -4   92.35    8.00
  -5 -10  -4  120.02   10.35
  -5 -10  -3   19.22    3.72
  -5 -10  -3   34.78    6.02
  -5 -10  -3   30.49    5.05
  -5 -10  -2   77.36    8.20
  -5 -10  -2   82.79    9.43
  -5 -10  -1   36.60    5.89
  -5 -10  -1   40.65    6.97
  -5 -10   0   22.40    4.57
  -5 -10   0   21.59    5.13
  -5 -10   1   34.93    6.51
  -5 -10   1   32.23    5.04
  -5 -10   2   10.71    3.89
  -5 -10   2   10.20    2.67
  -5  -9  -9    4.79    1.72
  -5  -9  -8   34.39    5.05
  -5  -9  -7   29.96    5.10
  -5  -9  -6   17.84    4.56
  -5  -9  -5   36.57    6.18
  -5  -9  -4   31.19    6.31
  -5  -9  -3   80.68    8.70
  -5  -9  -2   21.27    6.25
  -5  -9  -2   20.24    4.46
  -5  -9  -2   13.04    4.21
  -5  -9  -1  139.92   12.12
  -5  -9  -1  175.88   15.90
  -5  -9   0   -0.53    2.24
  -5  -9   0    1.11    2.40
  -5  -9   1   60.23    9.74
  -5  -9   1   57.75    8.01
  -5  -9   2   -0.36    1.78
  -5  -9   2    2.48    2.93
  -5  -9   3   37.55    7.78
  -5  -9   4    7.74    3.89
  -5  -8 -10   18.90    3.16
  -5  -8  -9   85.09    7.99
  -5  -8  -8   27.39    5.14
  -5  -8  -7   72.31    9.06
  -5  -8  -6    5.50    3.15
  -5  -8  -5  127.13   12.48
  -5  -8  -4    0.43    2.54
  -5  -8  -3   77.02    9.64
  -5  -8  -2    0.83    1.64
  -5  -8  -1   28.33    5.34
  -5  -8   0    8.81    3.40
  -5  -8   0   13.17    4.61
  -5  -8   1   63.22    8.86
  -5  -8   1   67.35   10.81
  -5  -8   2   30.77    8.10
  -5  -8   2   19.93    6.04
  -5  -8   3   54.12   10.70
  -5  -8   3   35.56    8.06
  -5  -8   4   47.52    9.84
  -5  -8   4   31.48    8.01
  -5  -8   5    5.25    3.32
  -5  -8   5    5.33    4.06
  -5  -8   6   11.10    3.83
  -5  -8   7    3.01    1.88
  -5  -7 -10    2.04    1.78
  -5  -7  -9  102.85    9.52
  -5  -7   0   29.55    5.71
  -5  -7   1   15.62    5.51
  -5  -7   1   11.99    5.11
  -5  -7   2  113.16   13.27
  -5  -7   2  143.86   15.21
  -5  -7   3   44.76   10.41
  -5  -7   3   50.42    9.78
  -5  -7   4  149.95   18.11
  -5  -7   4  135.05   15.24
  -5  -7   5   83.78   12.53
  -5  -7   5   77.51   13.42
  -5  -7   6   30.26    8.22
  -5  -7   7   45.66    8.40
  -5  -7   8   15.85    3.68
  -5  -6 -10    0.83    1.61
  -5  -6   1   26.23    5.83
  -5  -6   2   81.40   10.86
  -5  -6   2   71.45   10.09
  -5  -6   3   59.50    9.87
  -5  -6   3   53.12    8.88
  -5  -6   4  115.78   14.76
  -5  -6   4  100.49   13.20
  -5  -6   5   39.93    9.33
  -5  -6   5   35.56    8.33
  -5  -6   6   72.96   12.15
  -5  -6   6   76.58   13.92
  -5  -6   7   35.38    9.04
  -5  -6   8   15.00    4.69
  -5  -6   9   25.54    4.14
  -5  -5   3  156.99   14.28
  -5  -5   3  163.69   14.43
  -5  -5   3  161.26   14.63
  -5  -5   3  195.09   19.21
  -5  -5   4   11.60    4.41
  -5  -5   4    8.87    4.30
  -5  -5   4   14.80    4.37
  -5  -5   4    9.87    4.79
  -5  -5   5   20.64    6.58
  -5  -5   5   18.78    5.69
  -5  -5   5   23.36    6.21
  -5  -5   5   19.33    6.21
  -5  -5   6   -1.00    2.42
  -5  -5   6    0.41    2.36
  -5  -5   6    0.93    3.37
  -5  -5   7   97.73   14.87
  -5  -5   7   60.14    9.01
  -5  -5   8    4.71    4.64
  -5  -5   9   43.42    7.53
  -5  -5   9   44.35    6.01
  -5  -4   4   29.43    7.34
  -5  -4   4   21.88    5.58
  -5  -4   4   20.80    5.52
  -5  -4   5  103.07   13.75
  -5  -4   5  141.43   14.83
  -5  -4   5  133.96   14.33
  -5  -4   6   23.53    6.41
  -5  -4   6   18.48    6.07
  -5  -4   6   25.90    7.80
  -5  -4   7   73.39   13.17
  -5  -4   7   56.85    9.69
  -5  -4   8   15.94    4.53
  -5  -4   8   26.76    7.81
  -5  -4   9   31.03    6.78
  -5  -4   9   26.92    5.38
  -5  -3   4  355.41   20.58
  -5  -3   4  304.09   20.02
  -5  -3   4  371.32   24.69
  -5  -3   5   82.83   12.35
  -5  -3   5   77.06   10.71
  -5  -3   5   80.71   10.83
  -5  -3   6  235.83   20.04
  -5  -3   6  185.78   18.32
  -5  -3   7    1.76    2.45
  -5  -3   7    2.47    3.07
  -5  -3   7    1.26    3.30
  -5  -3   8  156.43   18.33
  -5  -3   8  139.74   14.67
  -5  -3   9    0.34    2.24
  -5  -3   9   -1.97    2.32
  -5  -3  10   35.76    5.97
  -5  -2   5   30.26    8.43
  -5  -2   5   28.26    7.09
  -5  -2   5   29.25    7.32
  -5  -2   6  333.74   23.94
  -5  -2   6  338.45   22.67
  -5  -2   7   24.60    9.21
  -5  -2   7    6.89    5.80
  -5  -2   7   33.55   10.60
  -5  -2   8  124.10   15.62
  -5  -2   8  100.40   13.10
  -5  -2   8   97.45   11.94
  -5  -2   9   14.25    5.20
  -5  -2  10   26.14    5.37
  -5  -2  11    5.44    2.18
  -5  -1   3   64.14   16.47
  -5  -1   4  307.44   21.13
  -5  -1   5   41.08    8.48
  -5  -1   5   52.05   18.33
  -5  -1   5   39.58    7.62
  -5  -1   6   89.36   12.69
  -5  -1   6   86.28   11.74
  -5  -1   7  137.02   15.35
  -5  -1   7  143.56   15.49
  -5  -1   8   39.14    8.12
  -5  -1   8   60.04   10.14
  -5  -1   9   53.89    9.16
  -5  -1  10    5.06    2.60
  -5  -1  11   33.36    4.79
  -5   0  -5  127.70   30.35
  -5   0  -4  521.26   56.03
  -5   0  -3   27.29   17.51
  -5   0  -2  691.84   64.86
  -5   0  -1  550.22   58.70
  -5   0   0 1012.60   77.66
  -5   0   1  179.96   32.07
  -5   0   2  206.75   33.13
  -5   0   3  209.21   33.42
  -5   0   4   56.19    8.28
  -5   0   5  107.48   25.87
  -5   0   5   73.29    9.48
  -5   0   5   88.00   12.58
  -5   0   6   22.85    6.33
  -5   0   6   23.47    6.90
  -5   0   7  114.64   14.24
  -5   0   7  112.00   12.99
  -5   0   8    0.58    1.95
  -5   0   8    0.71    2.12
  -5   0   9   24.67    5.35
  -5   0   9   37.98    7.25
  -5   0  10    8.15    3.11
  -5   0  11   12.44    2.83
  -5   1  -4  147.83   32.12
  -5   1  -3  107.62   27.95
  -5   1  -2   45.85   18.72
  -5   1  -1  391.98   51.63
  -5   1   0  121.66   29.03
  -5   1   1  676.96   66.96
  -5   1   2    6.59    8.21
  -5   1   3  303.61   42.16
  -5   1   6   12.49    4.64
  -5   1   6   14.81    5.42
  -5   1   7  166.01   17.10
  -5   1   7  169.22   15.29
  -5   1   8   19.37    5.34
  -5   1   8   17.58    5.48
  -5   1   9   69.25    8.91
  -5   1   9   72.75    9.01
  -5   1  10   28.10    4.74
  -5   2  -3  209.14   39.59
  -5   2  -2   77.71   26.70
  -5   2  -1  164.85   35.11
  -5   2   0  220.93   48.48
  -5   2   1  234.23   40.78
  -5   2   2  124.55   29.41
  -5   2   3   69.20   20.79
  -5   2   7    7.70    4.63
  -5   2   8  108.97   12.63
  -5   2   9   -0.75    1.57
  -5   3   7    7.52    4.14
  -5   3   8   54.21    8.24
  -5   3   9   30.36    4.91
  -5   4   6  113.35   12.23
  -5   4   7   30.22    6.09
  -5   4   8   17.83    3.90
  -5   5   3   84.76    8.67
  -5   5   4   26.92    5.24
  -5   5   5   60.64    7.75
  -5   5   6   26.64    4.87
  -5   5   7   25.09    3.99
  -4 -11  -5    7.77    2.04
  -4 -11  -4    9.40    2.32
  -4 -11  -3   19.61    3.36
  -4 -11  -2    6.08    1.98
  -4 -11  -1   17.48    3.17
  -4 -10  -8    6.39    1.88
  -4 -10  -7   27.59    4.07
  -4 -10  -6   31.58    4.76
  -4 -10  -5   28.31    4.80
  -4 -10  -4    5.30    2.42
  -4 -10  -4    5.74    2.40
  -4 -10  -3   55.80    6.20
  -4 -10  -3   78.37    8.44
  -4 -10  -2   -0.23    2.27
  -4 -10  -2    0.58    1.60
  -4 -10  -1   38.28    6.43
  -4 -10  -1   54.74    8.14
  -4 -10   0   10.63    4.07
  -4 -10   0    7.74    2.57
  -4 -10   1   40.48    6.47
  -4 -10   1   40.51    7.35
  -4 -10   2    4.00    2.22
  -4 -10   2    2.73    2.36
  -4 -10   3   28.54    4.55
  -4  -9 -10    5.59    1.79
  -4  -9  -9   30.33    4.14
  -4  -9  -8    4.32    2.13
  -4  -9  -7   31.28    5.32
  -4  -9  -6   10.32    3.59
  -4  -9  -5   28.16    5.62
  -4  -9  -4   36.47    6.48
  -4  -9  -3   53.36    7.47
  -4  -9  -3   83.08   10.09
  -4  -9  -2   26.02    5.19
  -4  -9  -2   44.44    7.09
  -4  -9  -2   47.57    7.97
  -4  -9  -1  120.16   12.69
  -4  -9  -1  104.69   11.05
  -4  -9   0   57.53    9.07
  -4  -9   0   57.47    8.28
  -4  -9   1   68.06    8.97
  -4  -9   1   49.34    8.76
  -4  -9   2   51.73    9.38
  -4  -9   2   66.34    8.92
  -4  -9   3    7.00    3.72
  -4  -9   3    7.55    3.62
  -4  -9   4  117.29   10.75
  -4  -9   5    1.05    2.00
  -4  -8 -10    5.53    1.72
  -4  -8  -9   67.15    7.16
  -4  -8  -8    9.44    3.24
  -4  -8  -7   56.44    7.87
  -4  -8  -6   25.41    5.74
  -4  -8  -5   61.18    8.58
  -4  -8  -4  155.24   13.44
  -4  -8  -3   78.70    9.98
  -4  -8  -2  105.23   10.48
  -4  -8  -1   10.48    5.03
  -4  -8   0  252.29   17.31
  -4  -8   0  256.50   18.85
  -4  -8   1    5.62    3.27
  -4  -8   1   10.61    5.32
  -4  -8   2  242.09   18.25
  -4  -8   2  290.33   21.64
  -4  -8   3   38.61    7.45
  -4  -8   3   37.80    8.67
  -4  -8   4   54.58   10.10
  -4  -8   4   50.46    8.26
  -4  -8   5   28.52    5.88
  -4  -8   5   36.45    7.60
  -4  -8   5   35.04    8.25
  -4  -8   6   11.83    3.38
  -4  -8   7   10.02    3.10
  -4  -7 -10  108.34    8.51
  -4  -7  -9   25.02    5.14
  -4  -7  -8  258.26   16.76
  -4  -7  -7   29.51    6.41
  -4  -7   1    6.49    2.97
  -4  -7   1    7.07    3.53
  -4  -7   2   31.21    6.40
  -4  -7   2   32.65    7.70
  -4  -7   3  110.28   12.55
  -4  -7   3  133.13   14.86
  -4  -7   4   56.76    9.26
  -4  -7   4   66.75   10.97
  -4  -7   5   31.57    7.92
  -4  -7   5   41.27    7.80
  -4  -7   5   41.76   10.04
  -4  -7   6    0.17    2.75
  -4  -7   6   -1.61    3.98
  -4  -7   7   42.09    8.22
  -4  -7   8    1.19    1.63
  -4  -6  -9   19.53    4.81
  -4  -6   2   52.34   10.09
  -4  -6   2   39.61    8.65
  -4  -6   3  218.48   18.34
  -4  -6   3  180.27   16.41
  -4  -6   4  114.48   15.12
  -4  -6   4   94.84   13.54
  -4  -6   5  114.68   14.52
  -4  -6   5  149.95   17.99
  -4  -6   6  133.27   18.30
  -4  -6   6   97.04   13.85
  -4  -6   7   70.37   11.59
  -4  -6   8   34.64    7.58
  -4  -6   9    5.95    2.84
  -4  -5   4   62.62    8.80
  -4  -5   4   65.83   10.25
  -4  -5   4   58.82    9.21
  -4  -5   4   61.00   10.32
  -4  -5   5   21.27    6.82
  -4  -5   5   47.30   10.31
  -4  -5   5   44.45   11.27
  -4  -5   6   27.69    6.50
  -4  -5   6   43.66    9.45
  -4  -5   6   47.64   11.44
  -4  -5   7   13.41    4.61
  -4  -5   7   10.18    6.51
  -4  -5   8   60.17   11.26
  -4  -5   9    1.30    2.00
  -4  -5   9    4.16    3.15
  -4  -5  10   22.56    4.04
  -4  -5  10   35.92    4.43
  -4  -4   4  164.24   27.20
  -4  -4   5   16.25    5.86
  -4  -4   5   18.52    5.78
  -4  -4   5   11.15    4.61
  -4  -4   5   14.13   10.32
  -4  -4   6  134.69   14.35
  -4  -4   6  179.13   18.68
  -4  -4   6  103.23   26.18
  -4  -4   6  124.84   14.86
  -4  -4   7   -0.01    2.49
  -4  -4   7    3.00    3.91
  -4  -4   8   64.13   12.25
  -4  -4   8   34.53    6.91
  -4  -4   9    0.09    2.05
  -4  -4   9    3.40    3.33
  -4  -4   9    3.02    3.23
  -4  -4  10   23.66    4.35
  -4  -4  10   24.60    4.44
  -4  -4  11   11.58    2.63
  -4  -3   1    4.11    3.96
  -4  -3   2 1155.53   53.07
  -4  -3   3   50.69   13.34
  -4  -3   4  263.64   33.27
  -4  -3   5   69.88   19.40
  -4  -3   6  260.43   19.87
  -4  -3   6  264.65   21.17
  -4  -3   6  201.75   35.32
  -4  -3   7  123.13   15.87
  -4  -3   7   94.32   12.16
  -4  -3   8   42.28   10.72
  -4  -3   8   30.87    7.87
  -4  -3   9   75.15   11.98
  -4  -3   9   65.51    9.71
  -4  -3   9   63.39    8.93
  -4  -3  10   12.24    4.02
  -4  -3  11    6.09    2.35
  -4  -2   1  179.85   18.07
  -4  -2   2  734.67   42.51
  -4  -2   3  325.39   33.68
  -4  -2   4   16.14    7.35
  -4  -2   5  505.25   52.86
  -4  -2   6   22.05   12.21
  -4  -2   6   30.81    7.11
  -4  -2   6   31.95    7.07
  -4  -2   6   33.77    7.24
  -4  -2   7  482.41   29.86
  -4  -2   7  469.74   58.43
  -4  -2   7  528.69   30.42
  -4  -2   8   -3.21    2.58
  -4  -2   8    0.07    2.93
  -4  -2   9  114.36   13.93
  -4  -2   9  117.15   14.39
  -4  -2  10    9.77    4.17
  -4  -2  11   32.49    5.72
  -4  -1   1 1077.66   47.54
  -4  -1   2  264.18   26.18
  -4  -1   3  581.95   44.77
  -4  -1   4  246.84   35.54
  -4  -1   5  233.95   35.14
  -4  -1   6  164.17   17.89
  -4  -1   6  141.12   15.70
  -4  -1   6  115.60   28.36
  -4  -1   7  140.26   31.42
  -4  -1   7  168.75   17.83
  -4  -1   7   98.98   12.77
  -4  -1   8   49.18    8.99
  -4  -1   8   78.29   13.14
  -4  -1   9  104.11   13.78
  -4  -1  10   21.71    5.99
  -4  -1  11    8.94    3.93
  -4  -1  12   12.31    2.67
  -4   0  -5  423.58   44.15
  -4   0   1 1020.48   51.33
  -4   0   2  236.90   27.61
  -4   0   2  217.54   29.32
  -4   0   3   23.08   10.49
  -4   0   3   12.93   10.20
  -4   0   4  150.85   25.79
  -4   0   5  328.29   41.42
  -4   0   6   98.35   13.05
  -4   0   6   87.08   24.29
  -4   0   7   58.21    9.79
  -4   0   7   76.49   12.56
  -4   0   8   98.20   12.70
  -4   0   8  162.24   18.65
  -4   0   9   13.04    5.01
  -4   0  10   71.05   10.86
  -4   0  11   -4.35    2.88
  -4   0  12   33.00    4.38
  -4   1  -5  320.31   39.66
  -4   1  -4  267.54   40.19
  -4   1  -3   80.58   21.11
  -4   1  -2  435.10   49.72
  -4   1  -1  375.72   42.89
  -4   1   0  412.59   44.83
  -4   1   1 1152.20   72.90
  -4   1   2 1322.03   76.86
  -4   1   3  106.02   20.99
  -4   1   3  138.13   24.14
  -4   1   4  503.13   52.72
  -4   1   4  382.97   39.10
  -4   1   5   53.83   16.96
  -4   1   6  314.30   45.98
  -4   1   6  336.72   24.01
  -4   1   7   12.35    5.15
  -4   1   8  122.48   14.75
  -4   1   8   87.10   11.87
  -4   1   9   -1.79    2.29
  -4   1   9    0.44    1.74
  -4   1  10   21.89    5.83
  -4   1  11    8.61    3.17
  -4   2  -4  297.49   41.46
  -4   2  -3  154.39   30.62
  -4   2  -2  610.42   59.96
  -4   2  -1   87.73   22.65
  -4   2   0  442.76   49.90
  -4   2   1   38.71   14.80
  -4   2   2  611.84   56.81
  -4   2   3   10.29    7.82
  -4   2   4  363.05   47.65
  -4   2   4  292.53   38.62
  -4   2   5  113.21   29.63
  -4   2   7   50.30    8.88
  -4   2   8  164.61   15.79
  -4   2   9   15.17    4.85
  -4   2   9   19.91    5.25
  -4   2  10   48.13    6.68
  -4   2  10   91.80    9.82
  -4   2  11   19.74    3.44
  -4   3  -3   39.79   20.57
  -4   3  -2  509.47   58.71
  -4   3  -1  230.83   48.99
  -4   3   0  564.35   61.41
  -4   3   1   55.14   20.08
  -4   3   2  177.45   32.97
  -4   3   3   60.11   19.32
  -4   3   4  303.79   41.24
  -4   3   4  327.32   47.70
  -4   3   9  105.17   11.46
  -4   3  10   19.15    3.78
  -4   4   9   20.36    4.75
  -4   5   8   50.40    7.11
  -4   6   7   30.96    4.98
  -3 -11  -4   25.20    3.46
  -3 -11  -3   54.32    5.33
  -3 -11  -2   29.39    3.91
  -3 -11  -1   11.80    2.60
  -3 -10  -7   30.70    4.04
  -3 -10  -6    7.22    2.34
  -3 -10  -5   24.17    4.23
  -3 -10  -5   24.22    4.41
  -3 -10  -4   28.65    5.18
  -3 -10  -4   24.41    4.35
  -3 -10  -3   16.68    4.13
  -3 -10  -3   14.13    3.29
  -3 -10  -2   54.00    7.21
  -3 -10  -1    0.94    1.53
  -3 -10   0   29.09    5.47
  -3 -10   1    1.94    2.49
  -3 -10   2   30.52    5.49
  -3 -10   3    7.55    2.87
  -3  -9 -10    8.80    2.07
  -3  -9  -9    8.34    2.25
  -3  -9  -9    8.56    2.66
  -3  -9  -8   40.82    5.58
  -3  -9  -7    0.20    1.51
  -3  -9  -6   65.94    8.04
  -3  -9  -5   -0.29    1.95
  -3  -9  -4  113.38   10.98
  -3  -9  -3    4.60    3.18
  -3  -9  -2  165.59   13.70
  -3  -9  -2  106.86   10.06
  -3  -9  -1   10.80    3.99
  -3  -9  -1   14.78    4.28
  -3  -9   0   62.21    9.17
  -3  -9   0   71.16   10.02
  -3  -9   1   17.35    5.04
  -3  -9   1   16.36    5.72
  -3  -9   2   17.25    5.62
  -3  -9   2   25.02    6.85
  -3  -9   3   28.83    6.16
  -3  -9   3   33.21    7.19
  -3  -9   4   10.01    3.65
  -3  -9   5    9.48    3.02
  -3  -8 -11    4.61    1.66
  -3  -8 -10   46.72    4.69
  -3  -8  -9   -0.31    1.75
  -3  -8  -8   76.78    8.75
  -3  -8  -7    1.92    2.31
  -3  -8  -6   18.88    4.74
  -3  -8  -5   80.14   10.18
  -3  -8  -4   10.72    3.80
  -3  -8  -3   37.16    6.79
  -3  -8  -2    0.47    2.02
  -3  -8  -2    0.03    2.91
  -3  -8  -1   41.24    7.41
  -3  -8  -1   25.15    5.06
  -3  -8   0   10.11    4.20
  -3  -8   0    7.54    3.20
  -3  -8   1   66.27    9.32
  -3  -8   1   48.81    8.69
  -3  -8   2   26.33    6.25
  -3  -8   2   18.61    5.71
  -3  -8   3  134.09   15.29
  -3  -8   3  147.16   14.28
  -3  -8   4    3.41    3.44
  -3  -8   4   -1.48    3.04
  -3  -8   5   58.30    8.77
  -3  -8   6    0.22    2.27
  -3  -8   7   39.01    5.44
  -3  -8   7   42.60    5.50
  -3  -7  -9   53.57    7.00
  -3  -7  -8   24.34    5.56
  -3  -7  -7   11.13    3.92
  -3  -7  -6   51.94    8.28
  -3  -7  -5   80.83   10.04
  -3  -7  -4  216.78   16.32
  -3  -7  -3  177.23   13.47
  -3  -7  -2   29.74    6.70
  -3  -7  -1  204.96   13.04
  -3  -7   0   47.71    8.61
  -3  -7   1  105.13   11.59
  -3  -7   1  116.57   11.45
  -3  -7   2   66.93   10.72
  -3  -7   2   53.75    9.10
  -3  -7   3  271.01   19.41
  -3  -7   3  281.41   20.89
  -3  -7   4   71.89   10.67
  -3  -7   4   68.34   11.54
  -3  -7   4  101.53   16.08
  -3  -7   5  100.03   14.39
  -3  -7   5  122.42   16.01
  -3  -7   5  115.57   13.59
  -3  -7   6   49.56    8.58
  -3  -7   6   47.61    9.74
  -3  -7   7   10.29    3.36
  -3  -7   8   21.88    4.80
  -3  -7   8   26.62    4.32
  -3  -7   9    2.97    1.42
  -3  -6  -9  159.11   12.44
  -3  -6  -8    8.06    3.84
  -3  -6   3   37.52    7.73
  -3  -6   3   38.96    7.05
  -3  -6   3   53.11    9.63
  -3  -6   4  146.80   17.97
  -3  -6   4  106.58   12.54
  -3  -6   4  117.37   13.80
  -3  -6   5   42.84    8.41
  -3  -6   5   46.53    9.68
  -3  -6   5   70.81   13.24
  -3  -6   6  130.55   16.10
  -3  -6   6  145.18   18.67
  -3  -6   6  113.73   13.57
  -3  -6   7    4.72    3.20
  -3  -6   7    8.80    4.94
  -3  -6   8   98.02   12.95
  -3  -6   8   83.23    9.85
  -3  -6   9    1.32    1.99
  -3  -6  10   25.00    3.76
  -3  -5   5  248.64   19.58
  -3  -5   5  289.96   21.53
  -3  -5   6   81.56   11.33
  -3  -5   6   83.89   12.60
  -3  -5   7  111.88   13.61
  -3  -5   7  176.41   19.85
  -3  -5   8   56.33   11.51
  -3  -5   8   61.20    9.19
  -3  -5   9   69.58   10.55
  -3  -5   9   78.51    9.46
  -3  -5   9   55.62    8.53
  -3  -5  10    6.28    2.79
  -3  -5  10    3.46    2.33
  -3  -4   6    2.23    3.27
  -3  -4   6    5.31    4.68
  -3  -4   6    3.34    4.41
  -3  -4   7   21.74    5.58
  -3  -4   7   45.81   11.33
  -3  -4   8   -0.38    2.10
  -3  -4   8    0.64    2.99
  -3  -4   9   47.25   10.26
  -3  -4  10   -1.12    2.09
  -3  -4  10   -7.28    4.53
  -3  -4  11   15.85    3.36
  -3  -4  11   23.55    4.27
  -3  -3   1  860.89   39.56
  -3  -3   2   15.78    7.38
  -3  -3   3  380.85   35.41
  -3  -3   4   -1.66    5.86
  -3  -3   5  353.31   42.51
  -3  -3   6   13.03    7.74
  -3  -3   7  215.79   18.56
  -3  -3   7  262.63   23.02
  -3  -3   8   27.66    8.45
  -3  -3   8   19.96    6.13
  -3  -3   9   43.63    8.09
  -3  -3   9   47.39    9.94
  -3  -3   9   33.96    7.20
  -3  -3  10    9.52    3.44
  -3  -3  10    6.08    3.44
  -3  -3  11    6.41    2.33
  -3  -3  11    0.00    1.81
  -3  -3  12   10.04    2.32
  -3  -2   0   50.71    6.45
  -3  -2   1 2390.00   60.82
  -3  -2   2   61.45   12.11
  -3  -2   3  156.61   21.92
  -3  -2   4  220.91   29.09
  -3  -2   5  267.87   36.11
  -3  -2   6  149.74   30.25
  -3  -2   7  213.25   20.74
  -3  -2   7  187.14   18.92
  -3  -2   8  144.95   17.11
  -3  -2   8  114.56   15.42
  -3  -2   9   28.25    7.89
  -3  -2   9   34.43    7.48
  -3  -2   9   37.98    8.79
  -3  -2  10   56.07    9.36
  -3  -2  11   13.73    4.36
  -3  -2  12   20.86    3.43
  -3  -2  12   32.02    4.72
  -3  -1  -1  527.42   15.64
  -3  -1   0  946.69   32.39
  -3  -1   1 2341.65   62.23
  -3  -1   2  366.45   28.30
  -3  -1   3  338.34   31.35
  -3  -1   4  657.40   52.15
  -3  -1   5  294.29   37.19
  -3  -1   6  757.17   67.16
  -3  -1   7    8.83    5.06
  -3  -1   7    5.30    5.31
  -3  -1   8  539.70   31.18
  -3  -1   8  669.43   35.60
  -3  -1   9    2.44    3.02
  -3  -1   9    1.07    4.30
  -3  -1  10  126.49   15.27
  -3  -1  11   18.76    5.31
  -3  -1  12   26.17    4.73
  -3   0  -5  399.18   35.05
  -3   0   2 1338.24   57.73
  -3   0   3  398.03   30.91
  -3   0   3  578.09   43.50
  -3   0   4  616.91   36.30
  -3   0   4  721.45   53.97
  -3   0   5  171.24   27.49
  -3   0   6  308.37   41.45
  -3   0   7  170.33   15.99
  -3   0   7  178.43   17.73
  -3   0   7  133.19   31.35
  -3   0   8   40.54    9.34
  -3   0   9  137.70   17.28
  -3   0  10    0.57    4.61
  -3   0  11   43.77    8.05
  -3   0  12    8.18    3.28
  -3   1  -5   45.79   13.24
  -3   1  -4 1099.48   62.75
  -3   1  -3   34.10   11.01
  -3   1  -2  677.80   49.28
  -3   1  -1  296.95   31.59
  -3   1   0 2564.38   91.04
  -3   1   1  823.96   50.27
  -3   1   2  649.33   50.89
  -3   1   3  441.72   35.12
  -3   1   4   44.83   11.22
  -3   1   4   49.50   14.18
  -3   1   5  288.74   39.85
  -3   1   6   32.96   14.59
  -3   1   7  187.42   17.53
  -3   1   7  169.86   34.05
  -3   1   8   62.67   11.54
  -3   1   9  105.14   14.65
  -3   1  10    1.09    3.41
  -3   1  11   74.60   11.13
  -3   1  12    3.45    2.43
  -3   2  -4  360.20   39.60
  -3   2  -3  857.64   62.94
  -3   2  -2    8.79    6.42
  -3   2  -1  530.47   47.65
  -3   2   0  259.94   31.71
  -3   2   1  457.07   41.64
  -3   2   2    9.45    7.23
  -3   2   3 1007.75   60.58
  -3   2   4   25.08    8.98
  -3   2   4   49.12   16.43
  -3   2   5 1123.63   80.12
  -3   2   6  127.57   13.64
  -3   2   6  131.28   30.00
  -3   2   7  416.43   26.42
  -3   2   7  388.73   51.84
  -3   2   8   22.65    6.83
  -3   2   9   49.02    9.84
  -3   2  10   36.08    8.76
  -3   2  11   23.80    5.49
  -3   2  12    9.01    2.86
  -3   3  -4   34.82   15.36
  -3   3  -3  597.82   55.70
  -3   3  -2    5.34    4.97
  -3   3  -1 1503.03   87.47
  -3   3   0    5.67    6.94
  -3   3   1  774.42   61.40
  -3   3   2  301.82   36.69
  -3   3   3  218.09   31.87
  -3   3   4   23.94   11.11
  -3   3   5  199.06   38.08
  -3   3   6  115.14   29.88
  -3   3   8   57.44   10.36
  -3   3   9  119.73   14.59
  -3   3  10   15.61    3.98
  -3   3  10   31.69    6.54
  -3   3  11   57.63    7.15
  -3   4  -3  228.21   37.82
  -3   4  -2  260.67   41.45
  -3   4  -1  214.82   36.77
  -3   4   0  278.54   42.96
  -3   4   1  258.48   39.00
  -3   4   2   89.43   22.77
  -3   4   3   95.30   22.60
  -3   4   4   70.12   20.19
  -3   4  10   60.77    7.05
  -3   5  10   10.35    2.58
  -3   6   9   50.04    5.43
  -2 -10  -7    0.73    1.13
  -2 -10  -6   64.68    6.09
  -2 -10  -5   -1.84    1.75
  -2 -10  -4   73.67    7.61
  -2 -10  -3   37.92    5.59
  -2 -10  -2   77.77    8.42
  -2 -10  -1   50.48    6.83
  -2 -10   0   19.60    4.52
  -2 -10   1   33.28    5.48
  -2 -10   2    5.34    2.51
  -2 -10   3   37.01    4.81
  -2  -9  -9   37.91    4.60
  -2  -9  -8   28.97    4.30
  -2  -9  -8   29.26    4.68
  -2  -9  -7   62.28    7.48
  -2  -9  -7   58.19    7.03
  -2  -9  -6   32.78    5.72
  -2  -9  -6   22.42    4.51
  -2  -9  -5   97.98    9.11
  -2  -9  -5   87.98    9.45
  -2  -9  -4   28.82    5.64
  -2  -9  -3   97.36    9.75
  -2  -9  -2   21.48    4.48
  -2  -9  -2   22.30    4.90
  -2  -9  -1  125.77   11.93
  -2  -9   0    5.17    2.55
  -2  -9   1   84.02    9.99
  -2  -9   2   15.09    5.00
  -2  -9   3   36.28    6.62
  -2  -9   4   14.14    4.20
  -2  -9   5   15.22    3.69
  -2  -8 -11   12.75    2.41
  -2  -8 -10   14.65    3.47
  -2  -8  -9   96.15    8.06
  -2  -8  -8   29.22    5.46
  -2  -8  -7   72.04    8.76
  -2  -8  -6    3.76    3.00
  -2  -8  -5  136.88   12.97
  -2  -8  -4   42.56    7.50
  -2  -8  -3  139.19   12.38
  -2  -8  -2   39.80    6.79
  -2  -8  -1   57.21    8.12
  -2  -8   0   37.83    7.05
  -2  -8   1  164.33   15.97
  -2  -8   1  144.90   13.81
  -2  -8   2   82.39   10.89
  -2  -8   2   94.65   12.70
  -2  -8   3   37.87    7.97
  -2  -8   3   55.57   10.71
  -2  -8   4   59.39    9.05
  -2  -8   5   20.22    5.69
  -2  -8   6   22.60    4.97
  -2  -8   6   14.16    3.72
  -2  -8   7    5.02    2.35
  -2  -7  -9  106.76    9.45
  -2  -7  -8   14.03    3.95
  -2  -7  -7  114.50   11.46
  -2  -7  -6   21.54    5.78
  -2  -7  -5  125.76   12.30
  -2  -7  -4   77.53    9.55
  -2  -7  -3   74.13    9.19
  -2  -7  -2  130.17   11.14
  -2  -7  -1    4.77    2.79
  -2  -7   0   50.92    8.17
  -2  -7   1    0.74    1.86
  -2  -7   1   -1.99    2.16
  -2  -7   2   92.31   11.01
  -2  -7   2  114.20   12.72
  -2  -7   3   20.17    5.80
  -2  -7   3    9.15    4.95
  -2  -7   4  158.26   15.54
  -2  -7   4  142.89   16.22
  -2  -7   5    0.22    2.26
  -2  -7   5   -1.77    3.07
  -2  -7   6   45.81    8.32
  -2  -7   7   30.16    6.13
  -2  -7   7   30.63    6.17
  -2  -7   8   17.19    4.00
  -2  -7   8   16.28    4.09
  -2  -6 -12    1.18    1.53
  -2  -6  -8   36.74    6.58
  -2  -6  -7   17.37    4.62
  -2  -6  -6  258.27   17.32
  -2  -6  -5  116.95   12.63
  -2  -6   3  144.25   14.75
  -2  -6   3  113.54   13.02
  -2  -6   4   34.46    7.09
  -2  -6   4   54.56   11.32
  -2  -6   4   37.06    7.85
  -2  -6   5   98.37   12.35
  -2  -6   5  120.85   17.22
  -2  -6   5   85.70   14.04
  -2  -6   6   65.01   11.67
  -2  -6   6   65.34   10.48
  -2  -6   7   97.18   13.91
  -2  -6   7   96.99   12.16
  -2  -6   8    2.53    2.44
  -2  -6   8    4.58    3.36
  -2  -6   9   45.28    6.89
  -2  -6  10   -0.95    1.27
  -2  -5  -7    0.90    2.71
  -2  -5   5  156.59   14.87
  -2  -5   5  154.24   15.62
  -2  -5   6    9.40    4.56
  -2  -5   6    6.15    4.83
  -2  -5   6    0.10    2.81
  -2  -5   7  237.02   22.52
  -2  -5   7  243.44   20.07
  -2  -5   8   -2.25    2.69
  -2  -5   8    0.42    2.76
  -2  -5   8   -7.81    4.91
  -2  -5   9  126.56   13.99
  -2  -5   9  172.43   13.50
  -2  -5   9  136.04   13.01
  -2  -5  10    3.58    1.82
  -2  -5  10    3.75    2.65
  -2  -5  11   18.17    3.11
  -2  -4   2   10.25    5.87
  -2  -4   6  216.59   18.16
  -2  -4   6  208.93   18.36
  -2  -4   6  233.58   23.07
  -2  -4   7   36.13    7.82
  -2  -4   7   30.04    9.61
  -2  -4   8   85.61   13.67
  -2  -4   8   70.93   10.73
  -2  -4   9    5.96    3.68
  -2  -4   9   10.01    5.02
  -2  -4  10   55.39    8.60
  -2  -4  10   73.51    9.67
  -2  -4  11    7.29    2.68
  -2  -4  11    0.74    1.83
  -2  -3   2  641.17   30.55
  -2  -3   2  690.34   40.97
  -2  -3   3  249.07   28.48
  -2  -3   3  210.16   22.23
  -2  -3   4  224.65   30.26
  -2  -3   5  204.95   32.22
  -2  -3   6  251.06   39.04
  -2  -3   7   31.24    7.84
  -2  -3   7   10.91    8.71
  -2  -3   7   36.03    9.42
  -2  -3   8   72.85   10.43
  -2  -3   8   89.26   11.73
  -2  -3   9    2.06    3.31
  -2  -3   9    0.64    2.64
  -2  -3  10   12.39    5.14
  -2  -3  11    3.30    2.76
  -2  -3  11    1.76    2.77
  -2  -3  12   14.65    3.23
  -2  -2   1  769.54   32.45
  -2  -2   2 1251.97   53.43
  -2  -2   3   -3.91    6.72
  -2  -2   4  260.35   31.12
  -2  -2   5   79.85   18.95
  -2  -2   6  241.93   36.28
  -2  -2   7   44.69   17.76
  -2  -2   8  167.70   18.81
  -2  -2   8  102.48   28.86
  -2  -2   8  124.56    9.89
  -2  -2   8  141.14   16.30
  -2  -2   9   41.83    8.14
  -2  -2   9   62.43   11.05
  -2  -2   9   56.06   10.27
  -2  -2  10    5.11    3.84
  -2  -2  10    2.31    2.21
  -2  -2  11   15.38    4.50
  -2  -2  11   14.25    3.63
  -2  -2  12    9.86    3.24
  -2  -1   0 1667.71   31.76
  -2  -1   1  283.55   17.71
  -2  -1   2  511.34   30.42
  -2  -1   3   21.35    6.94
  -2  -1   4  285.81   30.54
  -2  -1   5  332.02   37.05
  -2  -1   6   73.89   19.47
  -2  -1   7  189.19   33.71
  -2  -1   8  105.42   15.93
  -2  -1   8   78.25   13.24
  -2  -1   8   59.30   24.59
  -2  -1   8   61.98    9.00
  -2  -1   9  112.55   13.80
  -2  -1   9  116.12    9.53
  -2  -1   9   91.51   11.89
  -2  -1  10   46.53   11.02
  -2  -1  10  322.77   15.78
  -2  -1  11   27.76    6.83
  -2  -1  12   32.38    6.06
  -2  -1  12   28.62    5.48
  -2   0  -5   13.10    4.82
  -2   0   2   15.69    5.50
  -2   0   3  518.45   26.55
  -2   0   3  618.39   39.99
  -2   0   4  193.19   25.18
  -2   0   4  122.33   11.57
  -2   0   5 1025.06   63.05
  -2   0   6   48.70   14.93
  -2   0   7  566.21   58.13
  -2   0   8   -3.64    3.58
  -2   0   8    7.74    3.17
  -2   0   8    7.71    8.22
  -2   0   9  287.40   22.90
  -2   0   9  188.29   11.54
  -2   0  10  197.63   13.26
  -2   0  10   46.61    9.72
  -2   0  11  118.09   14.67
  -2   0  12   22.65    5.22
  -2   0  13   14.01    2.88
  -2   1  -4  407.81   31.39
  -2   1  -3  468.82   33.65
  -2   1  -2    6.48    5.14
  -2   1  -1 1906.47   64.80
  -2   1   0 1946.01   64.23
  -2   1   1 3835.78   87.52
  -2   1   2  199.99   22.16
  -2   1   3 1958.79   59.53
  -2   1   4  311.82   23.30
  -2   1   4  494.30   40.48
  -2   1   5  368.19   40.28
  -2   1   6  363.97   41.82
  -2   1   7  224.46   35.48
  -2   1   8   73.41   11.03
  -2   1   8   58.07   21.24
  -2   1   9   16.07    5.43
  -2   1  10   67.55   11.79
  -2   1  11    1.04    2.76
  -2   1  12   68.54    9.86
  -2   1  13   -0.11    1.23
  -2   2  -4    0.92    4.34
  -2   2  -3 1583.07   69.44
  -2   2  -2  309.11   30.43
  -2   2  -1 2847.52   89.95
  -2   2   0  421.90   34.17
  -2   2   1 1196.75   58.99
  -2   2   2  748.67   43.02
  -2   2   3  609.42   39.23
  -2   2   4  650.42   39.12
  -2   2   5  225.36   31.44
  -2   2   6  594.40   58.68
  -2   2   7   14.24    6.50
  -2   2   7    8.75    9.16
  -2   2   8  184.15   35.63
  -2   2   8  218.16   18.67
  -2   2   9    3.75    4.47
  -2   2  10   82.61   12.47
  -2   2  11    4.02    3.23
  -2   2  12   76.64    9.88
  -2   2  13   12.18    2.86
  -2   3  -4  780.30   57.05
  -2   3  -3   88.87   18.62
  -2   3  -2 1661.47   80.73
  -2   3  -1  875.52   57.37
  -2   3   0  906.88   60.16
  -2   3   1   -0.89    4.67
  -2   3   2  274.57   30.84
  -2   3   3    0.03    3.53
  -2   3   4  447.02   37.80
  -2   3   5   57.86   13.09
  -2   3   6  613.73   59.95
  -2   3   7  164.37   15.67
  -2   3   7  185.61   35.94
  -2   3   8  189.38   17.40
  -2   3   9  204.88   19.10
  -2   3  10   18.92    5.86
  -2   3  11   82.18   11.48
  -2   3  12   16.01    4.22
  -2   4  -3   10.73    9.63
  -2   4  -2  507.78   50.60
  -2   4  -1    0.41    5.88
  -2   4   0 1311.96   77.76
  -2   4   1  487.64   47.11
  -2   4   2  736.83   57.44
  -2   4   3  251.97   32.72
  -2   4   4  153.63   25.91
  -2   4   5  296.75   35.09
  -2   4   6  151.02   31.88
  -2   4   9  114.21   13.20
  -2   4  10  101.42   11.90
  -2   4  11   57.32    7.89
  -2   5  -3  278.24   43.54
  -2   5  -2  255.43   40.23
  -2   5  -1  367.70   48.86
  -2   5   0   42.89   17.14
  -2   5   1  698.73   63.64
  -2   5   2   19.16   12.55
  -2   5   3  369.69   45.32
  -2   5   4   27.83   13.13
  -2   6  10   13.84    2.80
  -1 -10  -6    9.31    2.25
  -1 -10  -5   71.59    5.53
  -1 -10  -5   62.66    5.70
  -1 -10  -4   -0.39    1.37
  -1 -10  -4    3.15    1.96
  -1 -10  -3  114.65    8.53
  -1 -10  -3   97.41    7.32
  -1 -10  -2   30.44    4.92
  -1 -10  -2   22.86    3.57
  -1 -10  -1   51.78    6.12
  -1 -10   0   22.65    4.16
  -1 -10   1   17.97    3.46
  -1 -10   2   11.49    2.65
  -1  -9  -8    9.51    2.56
  -1  -9  -7   97.30    8.53
  -1  -9  -6    9.26    3.20
  -1  -9  -5   68.14    7.67
  -1  -9  -4   14.03    3.88
  -1  -9  -3  166.33   12.77
  -1  -9  -2    7.89    2.92
  -1  -9  -1   77.79    9.45
  -1  -9   0   48.04    7.33
  -1  -9   1   44.57    7.58
  -1  -9   2   74.85    9.04
  -1  -9   3    8.72    3.64
  -1  -9   4   52.36    6.64
  -1  -9   5   -0.64    1.28
  -1  -8 -10   21.81    3.83
  -1  -8  -9   32.48    5.44
  -1  -8  -8   19.21    4.04
  -1  -8  -8   21.90    4.92
  -1  -8  -7   88.39    9.88
  -1  -8  -7   60.64    7.78
  -1  -8  -6   46.75    7.75
  -1  -8  -6   43.25    7.77
  -1  -8  -5    7.05    3.43
  -1  -8  -5    3.90    2.88
  -1  -8  -4  213.60   15.90
  -1  -8  -4  179.76   13.82
  -1  -8  -3    7.01    3.75
  -1  -8  -2  176.98   13.58
  -1  -8  -1   -1.48    2.57
  -1  -8  -1    4.70    3.01
  -1  -8   0  206.48   15.81
  -1  -8   1    2.08    3.28
  -1  -8   2  157.84   14.27
  -1  -8   3   54.66    8.91
  -1  -8   4   46.31    7.63
  -1  -8   5   42.12    7.87
  -1  -8   6    5.22    2.74
  -1  -8   7   26.62    4.35
  -1  -7 -11   41.37    5.14
  -1  -7 -10   75.12    8.26
  -1  -7  -9   13.47    3.70
  -1  -7  -8  138.02   11.71
  -1  -7  -7    4.47    2.68
  -1  -7  -6  255.06   17.37
  -1  -7  -5    4.63    3.10
  -1  -7  -4  198.68   15.01
  -1  -7  -3   81.11    9.50
  -1  -7  -2   93.16    9.82
  -1  -7  -1   79.52    8.93
  -1  -7   0   30.91    6.39
  -1  -7   0   20.47    5.44
  -1  -7   1   78.75    9.71
  -1  -7   2   24.03    6.48
  -1  -7   3  153.79   14.94
  -1  -7   3  206.30   18.60
  -1  -7   4   52.97    9.03
  -1  -7   5   78.71   11.18
  -1  -7   6   20.33    5.92
  -1  -7   6   26.57    5.99
  -1  -7   7   21.32    5.19
  -1  -7   7   21.01    4.73
  -1  -7   8   12.58    3.57
  -1  -7   8   12.36    3.00
  -1  -6 -12   31.11    3.89
  -1  -6 -11    9.97    3.22
  -1  -6  -8  112.50   11.01
  -1  -6  -7   61.03    8.62
  -1  -6  -6   95.83   10.52
  -1  -6  -5  289.18   17.43
  -1  -6   2    2.64    2.83
  -1  -6   3   88.82   10.48
  -1  -6   3  123.49   13.85
  -1  -6   4   -1.74    2.39
  -1  -6   4   -2.09    3.46
  -1  -6   5   77.39   10.75
  -1  -6   5   67.12   11.93
  -1  -6   6   22.29    6.41
  -1  -6   7   99.80   12.15
  -1  -6   7   82.50   10.91
  -1  -6   8   19.13    5.17
  -1  -6   8   13.54    4.47
  -1  -6   9    6.92    2.70
  -1  -6   9    4.14    2.09
  -1  -6  10   10.86    2.53
  -1  -5  -7   79.73    9.27
  -1  -5   3  199.69   26.91
  -1  -5   5    4.69    2.73
  -1  -5   5    6.75    4.25
  -1  -5   5   13.85    6.33
  -1  -5   6  175.34   19.69
  -1  -5   6  160.61   15.93
  -1  -5   6  210.62   18.44
  -1  -5   7    6.14    4.21
  -1  -5   7    7.37    3.85
  -1  -5   7   10.94    4.68
  -1  -5   8  124.80   14.50
  -1  -5   8  137.39   14.95
  -1  -5   8  152.96   14.29
  -1  -5   9    1.27    1.89
  -1  -5   9    0.49    2.16
  -1  -5   9   -2.81    3.60
  -1  -5  10   29.50    5.30
  -1  -5  11    2.91    1.47
  -1  -4   3    2.64    4.04
  -1  -4   4  374.27   36.45
  -1  -4   5   39.35   13.35
  -1  -4   6  239.22   12.95
  -1  -4   6  243.72   19.14
  -1  -4   6  300.90   25.03
  -1  -4   6  262.13   20.55
  -1  -4   7   81.90   11.56
  -1  -4   7   92.26   13.58
  -1  -4   8  161.25   18.60
  -1  -4   8  196.40   19.50
  -1  -4   8  153.66   16.46
  -1  -4   9   35.57    8.14
  -1  -4   9   32.77    7.58
  -1  -4   9   39.29    7.39
  -1  -4  10  102.26   10.61
  -1  -4  10   80.97   10.28
  -1  -4  11    7.45    2.60
  -1  -4  11    5.95    2.53
  -1  -3   3  174.52   20.88
  -1  -3   4  540.52   40.26
  -1  -3   4  585.08   48.44
  -1  -3   5  341.43   41.07
  -1  -3   5  305.03   36.15
  -1  -3   6  362.45   46.05
  -1  -3   7  265.50   21.85
  -1  -3   7  245.47   19.05
  -1  -3   8   56.01   10.40
  -1  -3   8   27.17    4.91
  -1  -3   8   46.89    8.51
  -1  -3   9  129.34   14.29
  -1  -3   9  156.03   12.49
  -1  -3   9  143.31   14.12
  -1  -3  10   -2.61    3.19
  -1  -3  10    1.18    3.40
  -1  -3  11   24.44    5.25
  -1  -3  11   39.05    6.50
  -1  -3  12    1.37    1.46
  -1  -3  12   -3.23    1.89
  -1  -2   1 5431.07   86.76
  -1  -2   2 2824.75   76.95
  -1  -2   2 2863.98   65.02
  -1  -2   3  830.18   40.24
  -1  -2   3  782.07   44.76
  -1  -2   4   26.43    9.10
  -1  -2   4   28.52   10.84
  -1  -2   5  997.04   63.30
  -1  -2   6   98.97   23.85
  -1  -2   7  276.44   41.65
  -1  -2   8   17.30    6.08
  -1  -2   8   10.60    5.10
  -1  -2   8    1.68    1.86
  -1  -2   8    4.58    6.51
  -1  -2   9  131.33   16.24
  -1  -2   9  124.39   13.84
  -1  -2   9  112.47   14.13
  -1  -2  10   43.03    5.93
  -1  -2  10   11.04    4.37
  -1  -2  11    4.82    3.19
  -1  -2  11   15.37    5.15
  -1  -2  12    5.88    2.56
  -1  -2  12    8.74    2.83
  -1  -1   0  424.82   13.58
  -1  -1   1 5438.28   79.12
  -1  -1   1 5316.58   52.29
  -1  -1   2  297.76   18.68
  -1  -1   3   57.28   11.76
  -1  -1   4    1.55    4.00
  -1  -1   5  213.43   28.79
  -1  -1   6   69.16   17.97
  -1  -1   7   47.57   17.13
  -1  -1   8   75.06   11.26
  -1  -1   8   59.15    9.67
  -1  -1   8   48.06    6.65
  -1  -1   8   49.79   18.77
  -1  -1   8   74.09   10.24
  -1  -1   9   36.54    8.62
  -1  -1   9   28.69    7.93
  -1  -1   9   31.16    7.27
  -1  -1   9   15.86    4.49
  -1  -1  10    9.19    4.52
  -1  -1  10    6.15    3.49
  -1  -1  10    6.08    2.82
  -1  -1  11    4.93    2.80
  -1  -1  11    4.71    4.00
  -1  -1  12   29.39    5.83
  -1  -1  12   27.04    5.20
  -1  -1  13    2.06    1.44
  -1   0   2   12.62    3.14
  -1   0   3    4.58    1.93
  -1   0   4   23.83    7.80
  -1   0   5  371.10   36.01
  -1   0   6   97.78   20.77
  -1   0   7   77.94   20.92
  -1   0   8  197.71   34.83
  -1   0   8  218.51   17.60
  -1   0   9   36.48    8.35
  -1   0   9   33.00    9.27
  -1   0   9   42.02    7.52
  -1   0   9   12.66   12.32
  -1   0  10   39.56    6.11
  -1   0  10   86.11   12.61
  -1   0  11   40.30    5.61
  -1   0  11   39.28    9.41
  -1   0  12   65.44    7.57
  -1   0  12   69.34   10.16
  -1   0  13   20.28    3.73
  -1   0  13   20.89    3.11
  -1   1  -4   17.42    4.58
  -1   1  -3  104.55   12.32
  -1   1  -2  686.73   30.39
  -1   1  -1 1170.44   38.86
  -1   1   0  763.43   30.73
  -1   1   1 1131.19   36.67
  -1   1   2  968.85   20.18
  -1   1   2  998.04   33.93
  -1   1   3   16.91    4.25
  -1   1   3   16.23    3.87
  -1   1   4 1500.69   38.71
  -1   1   4 1632.72   65.18
  -1   1   5  197.25   26.95
  -1   1   6  255.12   33.04
  -1   1   7   42.56   13.92
  -1   1   8  433.37   24.50
  -1   1   8  364.04   47.88
  -1   1   9    2.22    2.44
  -1   1   9    3.01    1.90
  -1   1   9    3.60    5.92
  -1   1  10   76.33    7.46
  -1   1  10  119.33   14.53
  -1   1  11   45.55    5.37
  -1   1  11   55.76    9.84
  -1   1  12   37.40    7.82
  -1   1  12   29.97    4.85
  -1   1  13   17.97    4.04
  -1   2  -4  825.12   40.72
  -1   2  -3   -2.11    3.69
  -1   2  -2 1067.35   46.71
  -1   2  -1   26.19    7.79
  -1   2   0 2421.08   67.02
  -1   2   1  224.64   21.01
  -1   2   2  295.69   22.71
  -1   2   2  293.27   11.22
  -1   2   3  130.53   11.35
  -1   2   3  141.21   19.48
  -1   2   4 1536.06   50.76
  -1   2   4 1532.39   44.32
  -1   2   5  261.87   20.59
  -1   2   5  249.11   29.42
  -1   2   6  282.95   36.72
  -1   2   7  186.06   30.62
  -1   2   8   81.83   10.93
  -1   2   8   66.36   20.06
  -1   2   9   65.69   10.97
  -1   2  10   14.20    5.32
  -1   2  11   63.40   10.41
  -1   2  12    3.63    2.96
  -1   2  13   29.88    5.36
  -1   3  -4  135.70   20.42
  -1   3  -3  504.88   38.14
  -1   3  -2 1670.83   69.59
  -1   3  -1  188.86   23.37
  -1   3   0 2630.36   83.26
  -1   3   1  695.03   41.29
  -1   3   2 1493.02   64.50
  -1   3   3  294.28   26.87
  -1   3   4  328.26   30.70
  -1   3   5  940.25   47.00
  -1   3   6  114.06   24.31
  -1   3   7  752.24   66.91
  -1   3   8    9.10    5.41
  -1   3   8   12.86   10.86
  -1   3   9  167.89   16.98
  -1   3  10   33.52    8.39
  -1   3  11   77.38   10.94
  -1   3  12   13.41    4.84
  -1   3  13   11.63    3.20
  -1   4  -3  747.55   54.98
  -1   4  -2  327.52   35.57
  -1   4  -1 1592.48   76.83
  -1   4   0  206.44   27.23
  -1   4   1 1685.58   76.68
  -1   4   2   14.01    7.82
  -1   4   3  912.89   55.14
  -1   4   4   43.99   12.34
  -1   4   5  180.69   23.84
  -1   4   6   51.51   15.56
  -1   4   7  146.71   14.46
  -1   4   7  138.92   29.33
  -1   4   8   80.49   11.53
  -1   4   9   12.68    5.21
  -1   4  10  145.03   15.54
  -1   4  11   19.65    5.50
  -1   4  12   83.57    9.69
  -1   5  -3  658.79   57.60
  -1   5  -2   34.85   13.88
  -1   5  -1  794.77   62.63
  -1   5   0  324.88   39.72
  -1   5   1  134.54   25.10
  -1   5   2  420.81   44.01
  -1   5   3  369.01   40.86
  -1   5   4  368.39   39.69
  -1   5   5   50.25   15.16
  -1   5   6  264.15   41.87
  -1   5   9   45.97    8.82
  -1   5  10   87.56   10.38
  -1   5  11   44.24    6.78
  -1   6  -2   35.59   18.28
  -1   6  -1  151.46   31.37
  -1   6   0  361.07   47.19
  -1   6   1    4.79    8.12
  -1   6   2  217.32   35.40
  -1   6   3    9.69   11.08
  -1   6   4  567.27   55.73
   0  -9  -7    4.02    2.10
   0  -9  -7    4.25    1.84
   0  -9  -6   82.52    7.24
   0  -9  -6   75.09    7.20
   0  -9  -5   10.28    2.74
   0  -9  -4   79.33    7.49
   0  -9  -3   22.97    4.75
   0  -9  -2   59.05    7.20
   0  -9  -2   53.55    6.58
   0  -9  -1   53.31    7.14
   0  -9  -1   50.46    6.05
   0  -9   0   34.49    5.72
   0  -9   1   57.39    7.21
   0  -9   2    7.51    3.02
   0  -9   3   46.47    5.94
   0  -9   4    0.39    1.33
   0  -8  -9   18.53    3.50
   0  -8  -8   91.13    9.02
   0  -8  -7   16.45    4.32
   0  -8  -6   70.97    8.94
   0  -8  -5   82.19    9.86
   0  -8  -4   70.30    8.77
   0  -8  -3  107.66   10.50
   0  -8  -3  126.18   11.03
   0  -8  -2  106.58   11.00
   0  -8  -1   26.41    5.25
   0  -8   0  105.57   11.08
   0  -8   1   78.96    9.73
   0  -8   2   32.58    7.06
   0  -8   3   93.20   10.50
   0  -8   4    8.01    4.18
   0  -8   5   52.17    7.39
   0  -8   6    7.62    2.92
   0  -7 -10   12.33    3.14
   0  -7  -9   53.27    7.32
   0  -7  -8   46.92    7.73
   0  -7  -7   62.67    8.20
   0  -7  -7   61.92    8.95
   0  -7  -6   52.11    7.81
   0  -7  -6   45.73    7.94
   0  -7  -5  110.89   11.93
   0  -7  -5  122.99   12.61
   0  -7  -4   28.57    6.02
   0  -7  -4   28.12    5.93
   0  -7  -3  178.15   14.04
   0  -7  -3  131.23   12.40
   0  -7  -2   22.53    5.64
   0  -7  -1  140.66   12.19
   0  -7  -1  151.43   12.04
   0  -7   0   16.48    4.39
   0  -7   1  102.31   10.99
   0  -7   2   86.83   10.91
   0  -7   3  153.48   14.31
   0  -7   4   56.21    9.31
   0  -7   5   78.96   10.14
   0  -7   6   79.95   10.24
   0  -7   7    1.91    1.69
   0  -7   8   45.63    5.52
   0  -6 -11   48.94    5.73
   0  -6 -10   34.98    6.67
   0  -6  -9  128.16   12.66
   0  -6  -8   68.81    9.28
   0  -6  -7  160.51   13.05
   0  -6  -6   56.45    9.04
   0  -6  -5  379.75   20.34
   0  -6  -4   29.92    6.73
   0  -6  -3  274.72   16.11
   0  -6  -2   92.39    9.49
   0  -6   1   39.33    6.23
   0  -6   2  248.62   16.41
   0  -6   3   -1.29    5.46
   0  -6   3   -0.46    5.28
   0  -6   4   98.26   11.49
   0  -6   5   11.15    5.44
   0  -6   6  142.39   14.35
   0  -6   6  123.82   13.37
   0  -6   7    4.29    2.89
   0  -6   7    3.73    2.44
   0  -6   8   31.26    5.73
   0  -6   8   42.13    6.88
   0  -6   9   10.00    2.75
   0  -5 -11   84.91    8.46
   0  -5  -7   84.30    9.22
   0  -5  -6  266.46   16.37
   0  -5   4  219.22   16.00
   0  -5   4  211.84   32.32
   0  -5   4  259.46   20.28
   0  -5   5    8.31    7.90
   0  -5   5    5.12    3.15
   0  -5   5   12.17    5.48
   0  -5   6    7.83    4.60
   0  -5   6   11.66    5.05
   0  -5   7   24.08    6.18
   0  -5   7   20.75    5.72
   0  -5   7   24.02    6.18
   0  -5   8   65.04   10.04
   0  -5   8   77.93    9.92
   0  -5   8   79.74   10.89
   0  -5   9   15.03    4.47
   0  -5   9   13.21    4.01
   0  -5  10   10.24    3.21
   0  -4   4   94.75   18.84
   0  -4   5  287.39   36.97
   0  -4   6    3.33    5.27
   0  -4   6    6.25    3.97
   0  -4   6    5.26    4.45
   0  -4   6    4.39    2.99
   0  -4   6   18.00    4.27
   0  -4   7  130.89   14.45
   0  -4   7  145.85   16.33
   0  -4   7  131.72   10.03
   0  -4   8    6.63    4.19
   0  -4   8    7.20    4.85
   0  -4   8    2.82    3.15
   0  -4   9   76.12   11.36
   0  -4   9   81.50   10.80
   0  -4  10   -4.98    3.50
   0  -4  10   -2.69    2.36
   0  -4  11   14.12    3.42
   0  -3   4    3.10    3.19
   0  -3   5  335.68   36.80
   0  -3   6   31.13   13.34
   0  -3   7   90.45    8.70
   0  -3   7  144.84   16.82
   0  -3   7  131.81   14.14
   0  -3   7  110.45   28.08
   0  -3   8   51.22    9.43
   0  -3   8   33.68    5.61
   0  -3   8   71.08   11.41
   0  -3   8   68.32   10.46
   0  -3   9   53.02    7.03
   0  -3   9   76.68   12.20
   0  -3   9   44.88   10.53
   0  -3   9   44.43    9.47
   0  -3  10    7.56    4.03
   0  -3  10   12.49    4.90
   0  -3  11   17.16    4.57
   0  -3  11   28.17    5.50
   0  -2   3  300.87   24.73
   0  -2   3  289.34   27.48
   0  -2   4  404.68   33.81
   0  -2   4  388.47   36.49
   0  -2   5  227.03   29.27
   0  -2   5  177.91   27.25
   0  -2   6  307.43   39.44
   0  -2   6  364.39   42.85
   0  -2   7  206.68   35.11
   0  -2   8  353.63   22.09
   0  -2   8  401.00   27.26
   0  -2   8  269.49   15.56
   0  -2   8  308.00   18.17
   0  -2   8  419.27   24.44
   0  -2   9   22.53    5.56
   0  -2   9   20.04    4.06
   0  -2   9   45.70    8.83
   0  -2   9   51.97    9.05
   0  -2  10  109.89   12.66
   0  -2  10   82.35    8.49
   0  -2  11   -0.71    1.90
   0  -2  11    3.25    2.96
   0  -2  12   48.75    6.16
   0  -1   2 1129.99   36.83
   0  -1   3 3064.66   75.36
   0  -1   3 2918.92   82.31
   0  -1   4 3570.13   96.07
   0  -1   4 3706.07  102.38
   0  -1   5  256.87   31.10
   0  -1   5  284.15   33.15
   0  -1   6  944.48   63.70
   0  -1   7   83.69   20.80
   0  -1   8  536.00   26.35
   0  -1   8  612.84   30.44
   0  -1   8  368.53   46.57
   0  -1   8  434.33   19.19
   0  -1   8  621.49   27.73
   0  -1   9   34.52    5.41
   0  -1   9   56.26    7.44
   0  -1   9   70.27   10.59
   0  -1   9   46.21   17.49
   0  -1   9   58.69    9.65
   0  -1  10   63.24    9.58
   0  -1  10   31.04    4.86
   0  -1  10   52.76    9.17
   0  -1  10   46.78    7.01
   0  -1  11   42.67    7.43
   0  -1  11   21.47    5.16
   0  -1  12  130.07    8.64
   0  -1  12   12.00    3.80
   0  -1  13   16.86    2.95
   0   0  -4 1426.37   22.40
   0   0  -3 2056.75   29.82
   0   0  -2 7223.98   52.86
   0   0   1   19.09    2.68
   0   0   2 5884.71   75.90
   0   0   2 5935.64   87.25
   0   0   3 1837.36   50.17
   0   0   3 1791.54   56.72
   0   0   4 1517.43   54.39
   0   0   4 1732.92   65.00
   0   0   5  294.42   30.87
   0   0   6  133.40   23.22
   0   0   7  115.61   23.68
   0   0   8   55.31   18.29
   0   0   9   50.70    6.93
   0   0   9   37.97    7.95
   0   0   9   20.14    3.83
   0   0   9   47.16   17.69
   0   0   9   46.66    8.47
   0   0  10    1.33    2.00
   0   0  10    4.29    3.32
   0   0  10    2.18    2.22
   0   0  11   30.49    6.29
   0   0  11   25.84    5.21
   0   0  11   36.92    7.98
   0   0  12    5.54    3.51
   0   0  12    6.80    2.75
   0   0  12    6.08    2.22
   0   0  13   13.02    2.79
   0   0  13   10.46    2.35
   0   1  -4 5132.07  101.13
   0   1  -3 3217.62   43.63
   0   1  -2 1424.45   29.44
   0   1  -1 1686.65   32.80
   0   1   0 1220.82   27.62
   0   1   1 4234.04   51.54
   0   1   2  222.96   12.26
   0   1   2  201.73   12.68
   0   1   3 1074.41   35.35
   0   1   3 1133.29   28.22
   0   1   3 1047.15   41.00
   0   1   4  287.13   21.53
   0   1   4  251.11   14.23
   0   1   4  299.13   26.20
   0   1   5  418.12   34.18
   0   1   5  534.02   36.01
   0   1   6   16.74    8.41
   0   1   6   16.51    8.93
   0   1   7  320.33   37.96
   0   1   8   32.51   14.68
   0   1   9   52.86    9.20
   0   1   9   58.11    6.90
   0   1   9   42.91   16.57
   0   1  10   26.12    7.67
   0   1  10   33.84   10.25
   0   1  10   51.83    7.11
   0   1  11   73.33   10.81
   0   1  11   51.97    6.40
   0   1  12   47.63    5.95
   0   1  12   52.81    5.64
   0   1  13   19.00    4.39
   0   1  13  520.91   13.03
   0   2  -5  339.62   34.72
   0   2  -3  414.21   24.25
   0   2  -2  414.30   24.56
   0   2  -1 1624.97   46.86
   0   2   0 1342.88   41.46
   0   2   1  213.51   16.73
   0   2   2  333.21   20.58
   0   2   3 1397.12   42.15
   0   2   3 1317.62   41.25
   0   2   4    8.22    3.67
   0   2   4    9.93    4.12
   0   2   5  644.43   36.82
   0   2   5  535.77   27.95
   0   2   6  195.85   24.51
   0   2   6  193.94   27.10
   0   2   7  137.80   24.67
   0   2   7  132.08   23.92
   0   2   8  150.77   27.80
   0   2   9  124.87   10.29
   0   2   9  112.05   26.83
   0   2   9  115.44   15.13
   0   2  10   19.18    5.97
   0   2  10   18.46    4.07
   0   2  11   32.51    7.35
   0   2  11   19.50    3.61
   0   2  12   28.24    6.54
   0   2  12   16.72    2.97
   0   2  13    1.28    2.21
   0   3  -3  521.12   34.38
   0   3  -2   60.39   11.75
   0   3  -1 3959.39   92.98
   0   3   0  382.94   28.13
   0   3   1   22.45    6.72
   0   3   2  911.68   42.91
   0   3   3   89.27   13.23
   0   3   3   90.36   12.15
   0   3   4  289.60   23.85
   0   3   4  201.06   18.82
   0   3   5   26.19    7.48
   0   3   5   36.41    9.06
   0   3   6  796.38   47.95
   0   3   6  784.24   54.75
   0   3   7  242.21   34.22
   0   3   8  158.31   15.60
   0   3   8  139.49   26.08
   0   3   9   -1.48    3.49
   0   3   9    0.07    5.25
   0   3  10  165.32   16.84
   0   3  11    8.15    4.63
   0   3  12   52.76    8.24
   0   3  13   -0.92    1.85
   0   4  -3   52.54   14.96
   0   4  -2  254.00   28.24
   0   4  -1  713.21   48.79
   0   4   0  521.23   39.01
   0   4   1  541.11   40.36
   0   4   2  301.91   28.85
   0   4   3  694.95   44.02
   0   4   3  622.72   38.05
   0   4   4  335.60   30.41
   0   4   5   44.46   15.32
   0   4   6  385.31   40.86
   0   4   7   12.79    9.08
   0   4   8  159.65   30.03
   0   4   8  165.33   16.04
   0   4   9   56.45    9.97
   0   4  10  149.18   15.58
   0   4  11   45.67    8.18
   0   4  12   25.50    5.80
   0   4  13   27.05    4.74
   0   5  -3   92.03   20.88
   0   5  -2  949.13   63.52
   0   5  -1  176.27   27.82
   0   5   0  877.36   59.15
   0   5   1   25.89   10.84
   0   5   2 1111.57   64.57
   0   5   3   25.17    9.63
   0   5   4  960.27   59.74
   0   5   5   88.00   18.28
   0   5   7   88.78   22.62
   0   5   8   36.67    7.67
   0   5   9   41.42    8.15
   0   5  10   29.41    6.56
   0   5  11   86.47   10.79
   0   5  12   -1.27    2.07
   0   6  -2  421.42   50.02
   0   6  -1   72.09   21.01
   0   6   0  320.24   41.82
   0   6   1  300.86   39.65
   0   6   2  153.24   28.11
   0   6   3  386.65   43.69
   0   6   4   39.83   14.31
   0   6   5  296.28   38.24
   1  -9  -5   28.01    3.89
   1  -9  -4    2.02    2.01
   1  -9  -3   66.06    6.53
   1  -9  -2    1.78    1.91
   1  -9  -1   56.14    5.48
   1  -9  -1   45.24    4.88
   1  -9   0    5.76    2.22
   1  -8  -8    7.11    2.51
   1  -8  -7   76.78    7.77
   1  -8  -7   76.74    7.09
   1  -8  -6    6.78    2.97
   1  -8  -6    4.95    2.37
   1  -8  -5   99.49    9.78
   1  -8  -4   51.59    7.27
   1  -8  -3   90.04    9.34
   1  -8  -2  108.36   11.05
   1  -8  -1   57.26    7.23
   1  -8  -1   52.27    7.33
   1  -8   0   65.83    8.23
   1  -8   0   46.34    6.35
   1  -8   1   39.79    6.15
   1  -8   1   27.37    4.38
   1  -8   2  123.38   10.99
   1  -8   2   92.63    8.64
   1  -8   3    6.29    2.84
   1  -8   3    4.98    2.13
   1  -8   4   90.98    8.33
   1  -8   5   -0.54    1.30
   1  -7 -10   13.42    2.91
   1  -7  -9   57.82    6.84
   1  -7  -8   35.39    5.96
   1  -7  -8   30.93    4.85
   1  -7  -7  101.51   10.92
   1  -7  -6   73.62    9.81
   1  -7  -5  139.44   14.04
   1  -7  -4  152.89   13.71
   1  -7  -3   61.82    8.94
   1  -7  -2  183.26   13.90
   1  -7  -2  212.77   14.11
   1  -7  -1   23.40    4.71
   1  -7   0  213.07   15.10
   1  -7   1   37.16    7.19
   1  -7   1   22.27    5.45
   1  -7   2  159.77   13.77
   1  -7   3   14.59    5.28
   1  -7   3   13.42    4.42
   1  -7   4  109.22   10.27
   1  -7   4  162.37   13.64
   1  -7   5    8.22    3.80
   1  -7   5    2.35    2.13
   1  -7   6   33.73    5.75
   1  -7   7   16.77    3.52
   1  -6 -10   70.46    7.61
   1  -6  -9   25.70    5.42
   1  -6  -8   90.36   10.72
   1  -6  -7   17.33    5.09
   1  -6  -6  228.45   17.48
   1  -6  -5    0.68    2.72
   1  -6  -5    2.42    2.49
   1  -6  -4  451.11   23.52
   1  -6  -4  459.80   22.58
   1  -6  -3    4.64    3.89
   1  -6  -3    5.59    3.03
   1  -6  -2  103.35   10.53
   1  -6  -2  146.23   12.30
   1  -6  -1    6.00    1.84
   1  -6   0  216.96   14.20
   1  -6   1   95.32   10.23
   1  -6   2   22.27    5.60
   1  -6   3   86.70   10.57
   1  -6   4   25.83    5.82
   1  -6   4   26.11    5.87
   1  -6   5   86.63   11.14
   1  -6   5   59.13    8.43
   1  -6   6   20.46    5.57
   1  -6   6   16.87    4.50
   1  -6   7  122.59   11.69
   1  -6   8    0.24    1.51
   1  -5 -10   90.36    9.25
   1  -5  -9   36.57    7.38
   1  -5  -8  118.53   12.66
   1  -5  -6  241.18   16.18
   1  -5  -5   86.99   12.42
   1  -5  -4  291.37   16.33
   1  -5   3  417.52   21.01
   1  -5   4    6.96    6.03
   1  -5   4    2.13    2.44
   1  -5   4    3.69    2.94
   1  -5   5   98.90   11.49
   1  -5   5   70.68    9.18
   1  -5   6   15.50    4.83
   1  -5   6   33.25    7.06
   1  -5   7   78.99   10.16
   1  -5   7   83.01   10.93
   1  -5   8   24.64    5.47
   1  -5   8   24.64    5.67
   1  -5   8   14.46    3.70
   1  -5   9   26.04    4.81
   1  -5   9   31.73    5.28
   1  -4 -10  136.16   12.23
   1  -4  -9   15.13    4.45
   1  -4   4  233.87   31.41
   1  -4   5  218.95   16.32
   1  -4   5  209.18   32.30
   1  -4   5  234.00   16.01
   1  -4   6  128.95   26.92
   1  -4   6  153.74   15.74
   1  -4   6  150.16   14.56
   1  -4   6  106.09   11.40
   1  -4   6  171.07   15.72
   1  -4   7   67.10   10.38
   1  -4   7   78.34   11.12
   1  -4   7   64.85    9.63
   1  -4   8   54.50    9.17
   1  -4   8   51.44    8.38
   1  -4   8   57.81    9.38
   1  -4   9   14.63    4.50
   1  -4   9   14.25    4.68
   1  -4   9   10.79    3.40
   1  -4  10   15.39    4.09
   1  -3   4   86.60   17.65
   1  -3   5   10.34    7.87
   1  -3   6  210.63   33.34
   1  -3   7    2.97    5.84
   1  -3   7   -3.91    3.74
   1  -3   7   -4.57    4.24
   1  -3   7   -0.91    2.29
   1  -3   7    1.83    3.97
   1  -3   7   -2.06    2.52
   1  -3   8   81.49   12.14
   1  -3   8  126.47   14.35
   1  -3   8   46.56    7.80
   1  -3   8   44.46    6.39
   1  -3   8  107.10   12.67
   1  -3   9   31.89    7.74
   1  -3   9   19.81    4.96
   1  -3   9   24.69    4.64
   1  -3   9   37.36    7.20
   1  -3  10    8.28    3.49
   1  -3  10    1.60    1.25
   1  -3  11    7.36    2.98
   1  -2   4  480.05   38.13
   1  -2   5  201.01   27.10
   1  -2   6  179.89   29.00
   1  -2   7   55.90   19.21
   1  -2   8   41.86    7.82
   1  -2   8   44.91    7.71
   1  -2   8   47.94   10.09
   1  -2   8   64.62   10.06
   1  -2   9   26.33    6.19
   1  -2   9   18.35    5.93
   1  -2   9   11.18    4.07
   1  -2   9   19.43    6.39
   1  -2   9   16.51    4.38
   1  -2  10    9.47    4.36
   1  -2  10    2.79    1.93
   1  -2  10   12.03    4.88
   1  -2  10    9.30    3.42
   1  -2  11    4.19    1.70
   1  -2  11    1.97    2.20
   1  -2  11    4.15    2.53
   1  -2  12  485.40   14.96
   1  -1   3   91.33   13.59
   1  -1   3  101.67   15.32
   1  -1   4   21.35    7.78
   1  -1   4   18.94    7.62
   1  -1   5  131.27   21.22
   1  -1   5  137.34   22.26
   1  -1   6   -1.14    6.43
   1  -1   6    6.40    7.33
   1  -1   7  162.63   28.62
   1  -1   8   -0.80    2.79
   1  -1   8   -2.02    3.05
   1  -1   8   -1.77    1.99
   1  -1   8    2.11    5.45
   1  -1   8   -2.79    2.86
   1  -1   9  122.10   13.76
   1  -1   9   83.92   10.18
   1  -1   9  112.68   10.45
   1  -1  10    1.81    2.09
   1  -1  10   -2.44    2.38
   1  -1  10    5.42    4.01
   1  -1  10    3.25    2.33
   1  -1  11   53.74    5.85
   1  -1  11   65.21    7.26
   1  -1  12    2.30    2.12
   1  -1  12    6.88    2.06
   1  -1  13  620.16   13.86
   1   0  -4   24.67    4.95
   1   0  -3    9.21    3.16
   1   0  -2   12.30    3.49
   1   0  -1 2651.18   43.40
   1   0   0 1809.10   33.35
   1   0   1 1718.79   31.77
   1   0   1 1730.31   31.64
   1   0   2 1074.11   33.67
   1   0   2 1366.50   37.78
   1   0   3    8.74    3.88
   1   0   3   11.37    5.67
   1   0   4 1417.09   57.32
   1   0   4 1532.71   65.20
   1   0   5  748.26   47.50
   1   0   5  827.24   55.48
   1   0   6  793.19   53.74
   1   0   6  973.57   59.97
   1   0   7  448.57   43.74
   1   0   8   92.32   21.24
   1   0   9  113.70   12.73
   1   0   9  109.12   10.30
   1   0   9   88.95    9.44
   1   0   9   77.91   21.07
   1   0   9   90.14   11.12
   1   0  10   63.80    9.75
   1   0  10   51.88    7.18
   1   0  10   55.81    8.85
   1   0  10   67.69    8.75
   1   0  11   29.32    5.35
   1   0  11   38.22    7.19
   1   0  11   47.46    7.32
   1   0  11   42.03    7.46
   1   0  12   65.38    6.98
   1   0  12   33.21    5.34
   1   0  13   87.75    5.77
   1   1  -5  233.20   18.33
   1   1  -4    2.66    2.76
   1   1  -3   64.37   10.48
   1   1  -2  376.33   23.73
   1   1  -1 5970.74   92.96
   1   1   0  396.13   19.78
   1   1   0  454.06   21.89
   1   1   1 9999.00   83.77
   1   1   2 1184.16   21.89
   1   1   2 1151.54   28.98
   1   1   2 1237.31   37.39
   1   1   3 6928.42   98.33
   1   1   3 6566.79   94.53
   1   1   4 1397.86   50.99
   1   1   4 1322.18   50.20
   1   1   5  888.58   47.22
   1   1   5  709.98   43.11
   1   1   6  584.12   44.75
   1   1   6  424.58   37.29
   1   1   7  368.20   40.75
   1   1   7  268.16   32.84
   1   1   8  138.53   25.63
   1   1   9   59.27    9.61
   1   1   9   44.73    7.17
   1   1   9   31.40    5.36
   1   1   9   37.18   14.14
   1   1   9   45.46    8.43
   1   1  10   33.85    6.82
   1   1  10   61.01    7.53
   1   1  10   48.83    6.69
   1   1  10   48.93    8.99
   1   1  11    1.99    3.22
   1   1  11   -1.07    3.03
   1   1  11    2.74    2.09
   1   1  12   68.63    7.25
   1   1  12   67.92    7.22
   1   1  12   74.37    9.43
   1   1  13    1.41    2.07
   1   1  13    6.86    1.90
   1   2  -5 1662.15   67.12
   1   2  -4   38.45   11.57
   1   2  -3 1072.94   57.79
   1   2  -3 1101.17   40.61
   1   2  -2 3658.36   75.49
   1   2  -1 8161.20  105.05
   1   2   0 1582.73   45.94
   1   2   1  503.59   25.92
   1   2   2  326.11   21.63
   1   2   3 1525.12   47.56
   1   2   3 1429.61   48.65
   1   2   4 1540.47   51.64
   1   2   4 1537.76   52.63
   1   2   4 1393.35   51.97
   1   2   5  177.27   20.45
   1   2   5  172.87   21.16
   1   2   6  932.75   52.89
   1   2   6  696.84   43.90
   1   2   7    4.40    5.94
   1   2   7    2.26    5.03
   1   2   8  238.69   34.83
   1   2   8  178.84   28.25
   1   2   9   23.56    8.25
   1   2   9    7.62    6.75
   1   2  10  101.78   12.44
   1   2  10   86.68    8.96
   1   2  11   18.62    6.92
   1   2  11   22.97    5.35
   1   2  12   15.19    4.30
   1   2  12   14.47    3.56
   1   2  13   35.74    3.79
   1   2  13   51.57    7.28
   1   3  -5  434.46   44.97
   1   3  -4  864.02   63.93
   1   3  -3  340.79   28.55
   1   3  -2 2230.58   69.11
   1   3  -1 2057.19   63.45
   1   3   0 3442.24   80.41
   1   3   1   32.63    7.78
   1   3   2 1284.18   49.13
   1   3   3   13.86    5.27
   1   3   4  906.18   45.22
   1   3   4  968.15   44.64
   1   3   5   25.76    8.67
   1   3   5   15.22    6.28
   1   3   5   26.68    7.84
   1   3   6  772.80   50.28
   1   3   6  687.57   45.98
   1   3   7   83.69   18.10
   1   3   7   89.98   18.32
   1   3   8  147.68   16.21
   1   3   8   92.41   21.65
   1   3   8  101.57   23.24
   1   3   9   64.24    9.72
   1   3   9   58.13    7.02
   1   3  10   35.68    8.28
   1   3  10   35.17    5.74
   1   3  11   68.56    7.03
   1   3  11   79.09   10.90
   1   3  12    2.18    2.51
   1   3  12    0.31    1.37
   1   3  13    9.94    3.30
   1   4  -5   71.58   21.05
   1   4  -4  570.33   59.66
   1   4  -3    4.16    4.47
   1   4  -2 1373.42   63.77
   1   4  -1  190.91   23.65
   1   4   0 1024.23   52.16
   1   4   1  248.70   25.56
   1   4   2  727.80   42.61
   1   4   3  423.29   33.43
   1   4   4   10.43    5.30
   1   4   4   16.42    6.91
   1   4   5  200.95   24.16
   1   4   5  213.89   24.97
   1   4   6    4.39    4.04
   1   4   6    5.88    6.03
   1   4   6    4.71    3.40
   1   4   7  256.68   31.01
   1   4   7  261.58   33.85
   1   4   8    0.21    3.78
   1   4   8   -4.17    3.80
   1   4   9  155.48   15.93
   1   4  10   -2.68    3.26
   1   4  11  143.92   14.46
   1   4  12    8.12    3.05
   1   4  13   20.25    4.41
   1   5  -5    7.54    5.22
   1   5  -4  139.93   35.19
   1   5  -3  412.06   42.25
   1   5  -2 1206.12   71.40
   1   5  -1  418.64   40.02
   1   5   0  436.29   41.28
   1   5   1  400.12   37.26
   1   5   2  288.95   32.48
   1   5   3  726.89   50.26
   1   5   4  297.23   32.59
   1   5   4  237.20   31.95
   1   5   5  323.56   34.45
   1   5   6   10.25    8.82
   1   5   7   86.35   20.33
   1   5   8   33.03    8.21
   1   5   9   27.75    6.81
   1   5  10   27.71    7.49
   1   5  11   25.28    5.92
   1   5  12   36.08    6.05
   1   5  13    6.33    2.32
   1   6  -4    4.53    9.73
   1   6  -2    2.54    6.19
   1   6  -1  535.93   53.68
   1   6   0  106.16   23.28
   1   6   1  421.77   45.26
   1   6   2   89.60   20.87
   1   6   3  195.86   30.44
   1   6   4  319.74   38.69
   1   6   5  237.32   33.62
   1   6   6   75.42   18.08
   1   6   8  119.89   13.21
   1   6   9   34.77    7.09
   1   6  10   92.26   11.03
   1   6  11    3.21    1.84
   1   6  12   33.88    4.99
   1   7  -1  109.27   28.12
   1   7   0   39.78   18.03
   1   7   1  144.06   30.58
   1   7   2  129.84   28.79
   1   7   3  126.36   27.22
   1   7   4  238.52   37.69
   2  -8  -6   59.30    6.16
   2  -8  -6   57.29    5.42
   2  -8  -5    7.54    3.44
   2  -8  -5   13.92    3.80
   2  -8  -4  103.23    8.89
   2  -8  -4  107.95    9.06
   2  -8  -3    7.58    3.54
   2  -8  -3    9.55    4.34
   2  -8  -2   30.57    5.10
   2  -8  -1    2.29    2.75
   2  -8   0   37.22    5.11
   2  -8   1   10.44    3.14
   2  -8   1    7.53    2.83
   2  -8   2   25.38    4.13
   2  -8   3   26.46    3.63
   2  -7  -9   -0.41    1.17
   2  -7  -8   79.60    7.67
   2  -7  -7    1.25    1.61
   2  -7  -7    0.93    2.22
   2  -7  -6   50.22    7.34
   2  -7  -6   53.25    7.15
   2  -7  -5   25.33    6.03
   2  -7  -5   22.91    5.70
   2  -7  -4   73.13    9.71
   2  -7  -4   79.62    9.83
   2  -7  -3  115.49   11.89
   2  -7  -3  108.39   12.28
   2  -7  -2   23.91    5.41
   2  -7  -2   36.00    6.53
   2  -7  -1  179.29   14.17
   2  -7   0   38.02    6.22
   2  -7   1  163.79   11.77
   2  -7   2    2.21    2.39
   2  -7   2    2.36    2.01
   2  -7   3  142.00   11.67
   2  -7   4    0.02    2.35
   2  -7   4    5.57    2.51
   2  -7   5   57.27    6.25
   2  -7   5   87.97    7.56
   2  -6 -10   24.36    3.68
   2  -6  -9    0.52    1.77
   2  -6  -8   67.19    8.90
   2  -6  -7   40.13    7.31
   2  -6  -7   39.13    6.48
   2  -6  -6   40.20    8.30
   2  -6  -5  214.28   17.13
   2  -6  -4   87.91   11.88
   2  -6  -3  142.36   13.53
   2  -6  -2   74.65    9.94
   2  -6  -1   91.33   10.01
   2  -6   0   72.48    9.09
   2  -6   1  105.35   10.26
   2  -6   2   57.60    7.39
   2  -6   3   96.36   10.64
   2  -6   4   24.37    5.74
   2  -6   4   34.61    7.07
   2  -6   5   70.01    8.85
   2  -6   5   93.72   10.20
   2  -6   6   15.96    4.22
   2  -6   6    8.26    3.15
   2  -6   7   35.72    4.73
   2  -6   7   53.25    6.18
   2  -5 -10    2.05    2.08
   2  -5  -9   85.88    9.55
   2  -5  -8   -0.81    3.17
   2  -5  -7  157.67   14.76
   2  -5  -6    4.05    4.03
   2  -5  -5  260.21   18.87
   2  -5  -4   26.38    6.49
   2  -5  -3  270.08   17.46
   2  -5  -2   10.92    3.79
   2  -5  -1  458.70   21.41
   2  -5   0   22.49    5.08
   2  -5   1  207.28   14.05
   2  -5   2   93.31    9.04
   2  -5   3  196.08   14.97
   2  -5   4   87.74   10.01
   2  -5   4   91.58   10.63
   2  -5   5    3.10    2.37
   2  -5   5    3.42    2.79
   2  -5   6   67.54    9.35
   2  -5   6   87.90   10.35
   2  -5   7    1.86    2.29
   2  -5   7    0.01    1.86
   2  -5   8   43.31    5.87
   2  -5   8   89.96    8.58
   2  -4  -9   93.63   10.48
   2  -4  -8   99.73   12.57
   2  -4  -7   57.25    8.59
   2  -4  -6  166.03   15.36
   2  -4  -5  323.10   19.27
   2  -4   4  280.46   36.27
   2  -4   4  315.87   18.29
   2  -4   5   38.60    7.06
   2  -4   5   41.05   14.81
   2  -4   5   45.37    7.25
   2  -4   6  163.89   14.48
   2  -4   6  191.24   16.04
   2  -4   7   56.75    9.56
   2  -4   7   27.06    6.84
   2  -4   7   47.76    8.95
   2  -4   8   11.71    4.15
   2  -4   8   12.38    3.65
   2  -4   8    6.04    3.22
   2  -4   9   20.26    4.70
   2  -4   9   12.59    3.33
   2  -4  10    4.18    1.27
   2  -3  -8  191.31   15.06
   2  -3  -7  148.75   13.36
   2  -3   4  470.00   43.44
   2  -3   5  186.53   29.19
   2  -3   6  134.73   13.82
   2  -3   6  108.18   11.71
   2  -3   6  118.23   12.32
   2  -3   7  251.55   18.85
   2  -3   7  217.23   16.95
   2  -3   7  285.70   20.50
   2  -3   7  272.84   18.95
   2  -3   8  112.17   12.36
   2  -3   8  101.71   11.35
   2  -3   8   86.35   11.21
   2  -3   9   39.15    6.74
   2  -3   9   32.25    5.03
   2  -3  10   19.49    5.33
   2  -3  10   12.82    3.11
   2  -3  11   13.97    2.25
   2  -2   4   -4.77    5.91
   2  -2   5  783.94   55.24
   2  -2   6    4.22    6.90
   2  -2   7  260.09   18.83
   2  -2   7  201.57   16.38
   2  -2   7  326.94   21.63
   2  -2   7  224.98   13.48
   2  -2   7  279.00   19.11
   2  -2   7  216.07   36.43
   2  -2   8   22.06    5.92
   2  -2   8   18.11    5.84
   2  -2   8   16.32    5.31
   2  -2   8   30.70    7.21
   2  -2   8    7.91    3.67
   2  -2   9   52.03    9.00
   2  -2   9   35.90    7.05
   2  -2   9   41.17    5.84
   2  -2  10    2.70    2.55
   2  -2  10    0.93    1.56
   2  -2  10    8.37    4.38
   2  -2  10    0.68    2.24
   2  -2  11    2.26    1.55
   2  -2  11   12.42    2.92
   2  -2  12  657.41   14.24
   2  -1  -3 1833.24   55.80
   2  -1  -2  171.24   18.52
   2  -1  -1 3771.25   79.68
   2  -1   4  277.99   27.56
   2  -1   5  373.56   35.23
   2  -1   6  107.56   21.88
   2  -1   7   71.23   21.27
   2  -1   8  175.69   15.46
   2  -1   8  152.95   11.97
   2  -1   8  125.60   12.30
   2  -1   8  209.85   17.03
   2  -1   8  194.81   15.19
   2  -1   9   26.66    7.75
   2  -1   9   22.40    5.74
   2  -1   9   43.91    8.75
   2  -1   9   34.28    7.03
   2  -1  10   21.72    5.75
   2  -1  10   10.92    3.37
   2  -1  10   23.61    6.11
   2  -1  10   23.60    4.90
   2  -1  11    4.40    2.12
   2  -1  11    6.48    3.03
   2  -1  11    8.36    3.14
   2  -1  12  100.98    6.22
   2  -1  12   21.05    3.23
   2  -1  13  508.77   11.05
   2   0  -5  955.97   38.09
   2   0  -4  169.55   16.26
   2   0  -3  515.83   28.60
   2   0  -2   13.65    5.24
   2   0  -1 3720.89   70.53
   2   0   0 2181.74   52.32
   2   0   0 2143.61   36.18
   2   0   1 2399.04   45.97
   2   0   1 2545.34   54.65
   2   0   2   36.91    7.14
   2   0   2   35.56    6.83
   2   0   3    5.77    4.44
   2   0   3    4.64    3.28
   2   0   4  396.44   31.19
   2   0   4  438.79   33.42
   2   0   5   10.51    6.76
   2   0   5   10.21    6.31
   2   0   5    6.32    5.31
   2   0   6  188.33   27.80
   2   0   6  111.75   19.73
   2   0   6  161.46   27.66
   2   0   7    0.57    3.66
   2   0   8   80.74    9.97
   2   0   8  115.83   12.23
   2   0   8  107.89    9.67
   2   0   9    0.93    2.44
   2   0   9    2.68    2.09
   2   0   9   -2.27    2.73
   2   0  10   48.41    8.35
   2   0  10   42.08    6.62
   2   0  10   71.24    9.46
   2   0  10   54.83    7.17
   2   0  11   16.36    3.62
   2   0  11   21.90    4.55
   2   0  11   13.24    4.33
   2   0  12   15.04    3.90
   2   0  13   20.37    2.85
   2   1  -5  341.02   25.52
   2   1  -4  288.56   24.21
   2   1  -3   21.73    6.54
   2   1  -2  524.65   30.25
   2   1  -1  291.77   21.31
   2   1   0 1668.15   46.08
   2   1   1  135.70    9.92
   2   1   1  124.97   11.93
   2   1   2 3793.65   70.50
   2   1   2 3655.71   60.34
   2   1   2 3550.72   72.30
   2   1   3   12.00    7.15
   2   1   3   20.75   10.60
   2   1   4 1093.97   46.96
   2   1   4 1091.52   56.03
   2   1   5  430.63   35.17
   2   1   5  399.17   32.45
   2   1   6  217.82   28.19
   2   1   6  135.68   19.62
   2   1   7  371.84   41.54
   2   1   7  358.15   34.93
   2   1   8   87.81   22.42
   2   1   9   36.33    7.56
   2   1   9   58.67    9.33
   2   1   9   50.41    7.56
   2   1   9   49.86    8.30
   2   1   9   57.23    7.49
   2   1  10   17.33    5.17
   2   1  10   12.17    3.53
   2   1  10   19.43    5.54
   2   1  10   16.42    4.50
   2   1  11  152.10   12.10
   2   1  11  133.59    9.95
   2   1  11  151.60   11.82
   2   1  11  129.29   12.61
   2   1  12   -1.38    2.54
   2   1  12   -2.74    2.17
   2   1  12    1.82    1.88
   2   1  13   22.99    3.31
   2   2  -5  116.53   17.67
   2   2  -4  289.62   29.57
   2   2  -3    3.49    4.53
   2   2  -2 1436.95   62.70
   2   2  -1 1120.90   50.30
   2   2   0 4932.75  110.69
   2   2   1   36.71    8.13
   2   2   2  357.42   21.20
   2   2   3 1435.63   35.95
   2   2   3 1560.64   54.09
   2   2   4  696.03   18.97
   2   2   4  606.45   29.77
   2   2   5  844.26   45.63
   2   2   5  609.45   35.57
   2   2   6  143.58   22.69
   2   2   6  104.58   17.25
   2   2   7  852.33   58.68
   2   2   7  723.14   48.96
   2   2   8    6.53    7.12
   2   2   9  116.82   12.81
   2   2   9  122.62   28.36
   2   2   9   76.26    8.21
   2   2   9   95.76    8.98
   2   2  10    2.57    3.39
   2   2  10   -0.30    2.08
   2   2  11   98.37    9.18
   2   2  11  103.83   11.89
   2   2  12   -0.37    1.82
   2   2  12    1.95    2.02
   2   2  13   18.82    4.04
   2   2  13   11.31    2.38
   2   3  -5  296.67   34.13
   2   3  -4  314.34   36.43
   2   3  -3  304.02   35.12
   2   3  -2  986.19   61.36
   2   3  -1 2412.70   93.32
   2   3  -1 2647.47   84.30
   2   3   0  316.14   30.84
   2   3   0  362.90   30.38
   2   3   1 1276.99   57.15
   2   3   1 1295.12   55.58
   2   3   2   86.52   13.72
   2   3   2   72.91   14.10
   2   3   3 1492.98   48.78
   2   3   3 1484.84   63.17
   2   3   4   25.02    7.88
   2   3   4   17.22    4.36
   2   3   5  482.12   33.14
   2   3   5  598.85   40.80
   2   3   6    4.71    4.70
   2   3   6    2.12    2.23
   2   3   7  622.69   50.42
   2   3   8    8.93    9.11
   2   3   9   67.78   10.15
   2   3   9   76.47   22.53
   2   3   9   62.28    7.43
   2   3  10   50.29    9.02
   2   3  10   38.56    5.73
   2   3  11   70.35   10.08
   2   3  11   61.56    6.86
   2   3  12   13.73    4.59
   2   3  12   16.80    3.65
   2   3  13    5.33    2.41
   2   3  13   -4.78    1.83
   2   4  -5  232.17   35.81
   2   4  -4   78.02   25.73
   2   4  -3 1029.11   75.01
   2   4  -2    0.31    6.41
   2   4  -2    7.20    9.48
   2   4  -1 2245.23   84.53
   2   4   0  123.03   20.05
   2   4   1 1666.94   69.28
   2   4   2   20.36    9.54
   2   4   3  955.10   50.69
   2   4   3 1180.49   57.44
   2   4   4  138.15   17.02
   2   4   4  191.60   24.75
   2   4   4  190.79   23.47
   2   4   5  266.67   30.80
   2   4   5  332.74   32.47
   2   4   6  109.56   19.26
   2   4   6  123.60   19.07
   2   4   7  128.21   22.88
   2   4   8   45.08   14.90
   2   4   8   52.55    6.42
   2   4   9   94.47   24.33
   2   4   9   74.40    8.07
   2   4  10  104.15   12.84
   2   4  10   99.48    8.80
   2   4  11   11.12    4.55
   2   4  11    5.82    2.40
   2   4  12   28.73    3.91
   2   4  12   32.41    6.40
   2   4  13   -1.62    1.83
   2   5  -5  152.60   33.05
   2   5  -4   -3.26    8.06
   2   5  -3  634.39   67.17
   2   5  -2   26.34   14.78
   2   5  -2   32.08   12.32
   2   5  -1 1029.43   64.16
   2   5   0  150.93   24.01
   2   5   1  175.26   25.43
   2   5   2  397.31   38.21
   2   5   3  524.80   43.16
   2   5   4  227.63   27.18
   2   5   4  258.56   31.71
   2   5   4  187.92   25.87
   2   5   5  106.78   20.95
   2   5   5  112.11   20.58
   2   5   6  239.57   30.45
   2   5   7   -0.34    3.96
   2   5   9    2.50    2.88
   2   5  10  139.89   14.67
   2   5  11    5.41    3.43
   2   5  12   13.36    4.13
   2   5  13    6.94    2.42
   2   6  -4   38.98   19.98
   2   6  -3  121.74   33.78
   2   6  -2  226.06   43.42
   2   6  -2  244.76   38.07
   2   6  -1  226.52   37.99
   2   6   0  345.69   42.02
   2   6   1  183.61   32.46
   2   6   2  443.98   45.45
   2   6   3  276.04   37.12
   2   6   4  257.60   34.91
   2   6   4  201.09   28.67
   2   6   5   81.25   24.18
   2   6   5  102.23   22.24
   2   6   6  188.15   31.34
   2   6   9   35.89    7.66
   2   6  10   46.43    7.83
   2   6  11    9.75    3.79
   2   6  12    0.04    1.95
   2   7  -2  127.73   35.94
   2   7  -1    7.43   11.40
   2   7  -1   -0.39    7.40
   2   7   0   57.50   21.26
   2   7   0   45.96   21.71
   2   7   1    9.36    8.30
   2   7   2  179.61   34.60
   2   7   2  193.46   34.07
   2   7   3   71.47   21.25
   2   7   3  106.15   25.46
   2   7   4   78.49   21.09
   2   7   5  115.84   26.04
   2   7   8   14.39    4.53
   2   7   9   99.53   10.89
   2   7  10    1.69    2.17
   2   7  11   57.27    6.36
   3  -8  -3   90.98    6.71
   3  -8  -2    8.12    2.25
   3  -8  -1   76.77    6.45
   3  -8   0    1.56    1.42
   3  -7  -7  144.58    9.44
   3  -7  -6   33.12    6.05
   3  -7  -6   38.61    5.34
   3  -7  -5  179.38   12.68
   3  -7  -5  187.61   11.79
   3  -7  -4   18.79    5.57
   3  -7  -4   21.43    5.44
   3  -7  -3  155.32   12.35
   3  -7  -3  149.73   11.60
   3  -7  -2   19.08    5.76
   3  -7  -1   45.46    6.16
   3  -7  -1   83.86    8.54
   3  -7   0   24.84    5.93
   3  -7   1   38.45    6.04
   3  -7   1   50.74    6.24
   3  -7   2    9.74    3.31
   3  -7   3   37.42    5.41
   3  -7   4   20.92    3.66
   3  -6  -8    3.45    2.30
   3  -6  -7   65.22    8.17
   3  -6  -6   30.60    6.47
   3  -6  -6   33.78    5.99
   3  -6  -5  146.22   13.32
   3  -6  -5  145.06   12.58
   3  -6  -4   65.31    9.78
   3  -6  -4   47.89    9.33
   3  -6  -3   90.35   10.77
   3  -6  -3   90.55   10.28
   3  -6  -2  139.06   14.62
   3  -6  -2   90.41   11.42
   3  -6  -1   39.17    7.04
   3  -6  -1   43.24    6.97
   3  -6   0  306.23   17.78
   3  -6   1    6.30    3.41
   3  -6   2  261.65   14.61
   3  -6   3   11.81    4.25
   3  -6   4  117.77   11.07
   3  -6   5   10.19    3.23
   3  -6   6   56.86    6.40
   3  -6   7    5.24    1.61
   3  -5  -9   68.93    7.40
   3  -5  -8   27.33    5.56
   3  -5  -7   41.99    7.33
   3  -5  -6  160.54   14.81
   3  -5  -6  161.82   13.34
   3  -5  -5   59.28   11.19
   3  -5  -5   71.07   10.65
   3  -5  -4  303.48   19.85
   3  -5  -4  227.38   16.51
   3  -5  -3   34.84    7.05
   3  -5  -3   35.70    6.97
   3  -5  -2  272.04   18.07
   3  -5  -2  270.25   17.39
   3  -5  -1  130.78   13.53
   3  -5  -1  129.02   12.70
   3  -5   0   45.41    7.29
   3  -5   0   59.88    7.55
   3  -5   1  232.88   15.64
   3  -5   2   18.32    4.26
   3  -5   3   54.52    7.02
   3  -5   4    8.71    3.67
   3  -5   5   26.76    5.81
   3  -5   6    1.98    2.12
   3  -5   7   26.05    4.88
   3  -5   8    6.62    2.06
   3  -4  -9    1.33    2.02
   3  -4  -8  151.23   13.37
   3  -4  -7  126.16   12.79
   3  -4  -6  310.66   20.97
   3  -4  -5  162.74   14.56
   3  -4  -5  162.28   13.54
   3  -4  -4   96.91   11.21
   3  -4  -3   59.22    8.16
   3  -4  -2   67.80    8.45
   3  -4  -1  150.85   12.19
   3  -4  -1  151.14   11.71
   3  -4   0  186.21   14.74
   3  -4   0  212.56   14.75
   3  -4   1  131.99   11.74
   3  -4   1  124.45   10.33
   3  -4   2  161.73   13.22
   3  -4   3   82.08    8.39
   3  -4   4   70.35    8.73
   3  -4   5  157.71   14.38
   3  -4   6    8.83    4.06
   3  -4   6   10.60    4.44
   3  -4   7   64.14    8.61
   3  -4   7  103.47   10.37
   3  -4   8    6.18    2.94
   3  -4   9    9.82    2.64
   3  -4  10   -1.91    1.17
   3  -3  -8   42.48    7.04
   3  -3  -7  118.80   12.60
   3  -3  -6   94.42   11.00
   3  -3  -5  229.51   18.76
   3  -3   4   11.96    8.67
   3  -3   5   87.36   20.68
   3  -3   5   86.36    9.73
   3  -3   6   70.80    9.54
   3  -3   6   80.67   10.14
   3  -3   7  103.43   11.50
   3  -3   7   73.48    9.54
   3  -3   7  103.24   11.09
   3  -3   8   30.65    6.48
   3  -3   8   56.90    7.67
   3  -3   9    5.55    2.70
   3  -3  10    1.09    1.13
   3  -3  11   -1.18    0.93
   3  -2  -6  107.60   10.76
   3  -2   4  213.43   27.97
   3  -2   5  357.61   38.88
   3  -2   6  101.90   22.25
   3  -2   6  135.91   13.37
   3  -2   6  121.37   11.87
   3  -2   6  146.10   13.07
   3  -2   7  109.69   11.91
   3  -2   7   77.82   10.01
   3  -2   7  108.18   11.40
   3  -2   8   93.07   11.08
   3  -2   8   80.59   10.07
   3  -2   9   65.81    9.10
   3  -2   9   46.11    5.93
   3  -2  10   26.64    4.92
   3  -2  10   18.99    3.37
   3  -2  11   34.31    4.32
   3  -2  11  182.17    7.84
   3  -1   4  717.98   46.81
   3  -1   5   23.99    9.12
   3  -1   6  529.79   48.62
   3  -1   7   97.80   11.30
   3  -1   7   89.62   10.53
   3  -1   7  125.17   12.43
   3  -1   7   83.39    8.05
   3  -1   7  112.83   11.30
   3  -1   7   80.36   21.87
   3  -1   8   92.33   10.85
   3  -1   8   76.41    8.13
   3  -1   9   22.10    6.12
   3  -1   9   20.41    5.33
   3  -1   9   13.05    3.78
   3  -1  10   32.24    6.07
   3  -1  10   45.86    6.11
   3  -1  11    8.39    2.52
   3  -1  11   12.19    2.92
   3  -1  12   29.86    3.31
   3  -1  12   15.39    2.41
   3   0  -5  159.80   20.05
   3   0  -4  598.16   37.76
   3   0  -3  465.21   33.05
   3   0  -2 1457.32   57.75
   3   0  -1  190.50   22.02
   3   0   0 3799.77   87.55
   3   0   0 3766.12   51.61
   3   0   1  269.85   18.80
   3   0   1  263.12   24.10
   3   0   2  625.47   32.55
   3   0   2  590.34   34.92
   3   0   3  539.83   34.67
   3   0   3  700.25   38.63
   3   0   4   57.23   12.58
   3   0   4   58.00   13.84
   3   0   5  268.04   30.16
   3   0   5  294.70   33.35
   3   0   6  159.63   27.39
   3   0   6  139.82   25.16
   3   0   7  134.43   27.96
   3   0   8    9.08    3.17
   3   0   8    6.00    3.12
   3   0   8   12.46    4.33
   3   0   8    3.97    2.42
   3   0   9   36.35    6.44
   3   0   9   40.69    7.50
   3   0   9   35.61    6.80
   3   0   9   52.39    8.47
   3   0  10   -0.44    2.04
   3   0  10    2.93    2.87
   3   0  10    0.92    1.87
   3   0  11   41.08    5.50
   3   0  11   51.54    6.35
   3   0  12   38.06    4.30
   3   0  12    0.23    1.24
   3   0  13   30.72    3.08
   3   1  -5  292.10   28.00
   3   1  -4  635.24   42.45
   3   1  -3  451.72   33.78
   3   1  -2  428.52   33.01
   3   1  -1 2181.86   69.63
   3   1   0  709.08   37.74
   3   1   1  426.58   20.96
   3   1   1  375.66   25.94
   3   1   1  377.32   24.48
   3   1   2 1075.08   40.36
   3   1   2 1052.85   40.80
   3   1   2 1037.59   42.53
   3   1   3 1808.02   61.96
   3   1   3 1727.45   51.06
   3   1   3 1746.51   59.67
   3   1   4  333.23   28.77
   3   1   4  319.36   29.96
   3   1   5  146.92   21.56
   3   1   5  138.53   23.41
   3   1   6    1.49    4.72
   3   1   7  202.71   32.49
   3   1   8   -2.52    4.09
   3   1   8    6.08    7.34
   3   1   8    0.52    2.13
   3   1   8   -0.41    2.11
   3   1   9   13.20    3.81
   3   1   9   19.42    4.96
   3   1   9   21.79    4.89
   3   1  10   -0.50    2.17
   3   1  10    0.54    1.96
   3   1  10   -5.03    2.65
   3   1  11   27.84    4.72
   3   1  11   37.83    5.66
   3   1  12  119.42    7.40
   3   1  12    3.81    2.34
   3   1  13    2.28    1.25
   3   2  -5  297.30   31.09
   3   2  -4  265.56   29.19
   3   2  -3  173.14   23.44
   3   2  -2   75.71   14.54
   3   2  -1 2180.17   73.29
   3   2   0   47.34   10.38
   3   2   1   20.46    6.29
   3   2   2   24.73    7.82
   3   2   3  429.45   24.91
   3   2   3  449.39   31.84
   3   2   4  125.44   13.23
   3   2   4  239.51   26.59
   3   2   5  750.69   45.77
   3   2   6  298.74   34.94
   3   2   7  148.78   26.27
   3   2   8  122.07   27.53
   3   2   8  117.87   10.59
   3   2   8  112.34   10.05
   3   2   9   18.38    5.36
   3   2   9   30.07   14.47
   3   2   9   24.73    4.75
   3   2   9   24.87    5.19
   3   2  10   78.31   10.24
   3   2  10   81.22    8.80
   3   2  10  101.12   10.18
   3   2  11    7.91    3.20
   3   2  11    0.85    1.59
   3   2  12   47.06    6.01
   3   2  12   34.43    5.53
   3   2  13   -3.57    1.48
   3   3  -5  500.55   44.69
   3   3  -4    6.83    5.17
   3   3  -3  409.73   40.95
   3   3  -2   15.39    7.53
   3   3  -1 1196.25   62.91
   3   3   0   12.27    6.58
   3   3   1  770.40   44.62
   3   3   2   57.13   10.95
   3   3   3  647.01   33.03
   3   3   4   47.71    7.97
   3   3   4   70.04   13.95
   3   3   5  232.89   28.27
   3   3   6  523.72   42.07
   3   3   7   22.01   11.42
   3   3   8  172.47   30.34
   3   3   8  126.75   10.06
   3   3   8  167.66   11.52
   3   3   9    5.88    7.37
   3   3   9   15.85    4.43
   3   3   9    6.09    3.21
   3   3  10  165.42   15.31
   3   3  10  157.57   11.70
   3   3  11   27.31    6.19
   3   3  11   15.09    4.26
   3   3  12   25.42    4.30
   3   3  12   34.77    6.09
   3   3  13    0.22    1.55
   3   3  13    0.60    1.08
   3   4  -5  149.30   28.26
   3   4  -4  170.73   31.18
   3   4  -3  292.91   38.90
   3   4  -2 1273.69   76.45
   3   4  -1  440.57   42.70
   3   4   0  648.07   48.92
   3   4   1   41.57   11.46
   3   4   2 1863.19   70.80
   3   4   3   11.50    5.51
   3   4   4  611.37   33.04
   3   4   4  569.62   41.92
   3   4   5  111.91   19.79
   3   4   6  423.22   39.42
   3   4   7   40.02   13.23
   3   4   8  100.82   23.21
   3   4   8   98.50    8.76
   3   4   9   36.52    5.52
   3   4  10  137.07   14.22
   3   4  10   88.64    9.06
   3   4  11   38.88    7.35
   3   4  11   35.08    5.10
   3   4  12   10.21    3.35
   3   4  12    5.12    1.93
   3   4  13   18.90    2.71
   3   4  13   25.55    4.41
   3   5  -5  262.26   41.97
   3   5  -4  101.65   26.53
   3   5  -3   38.32   20.78
   3   5  -2 1095.29   79.97
   3   5  -1   58.62   19.31
   3   5   0  187.43   30.69
   3   5   0  235.56   33.99
   3   5   1  399.51   41.85
   3   5   1  492.19   48.40
   3   5   2  692.11   50.95
   3   5   2  842.41   61.90
   3   5   3  165.15   22.85
   3   5   3  252.26   34.95
   3   5   4  405.38   32.27
   3   5   4  391.15   37.37
   3   5   5  218.66   29.38
   3   5   6  220.08   30.39
   3   5   7  100.72   21.13
   3   5   8   10.40    7.54
   3   5   9  140.60   10.64
   3   5  10   20.87    6.35
   3   5  10   13.87    3.73
   3   5  11   86.36   10.22
   3   5  11   89.18    7.41
   3   5  12    1.87    2.11
   3   5  12   -0.26    1.34
   3   5  13   24.75    4.05
   3   6  -4  140.74   32.82
   3   6  -3   56.95   20.93
   3   6  -2  325.91   48.73
   3   6  -1  243.02   41.21
   3   6  -1  304.38   43.03
   3   6   0  472.77   54.41
   3   6   0  430.89   50.67
   3   6   1  338.01   44.05
   3   6   1  394.91   48.43
   3   6   2  265.35   35.64
   3   6   2  303.86   42.23
   3   6   3  402.57   40.84
   3   6   3  643.08   59.87
   3   6   4   26.16   11.12
   3   6   4   30.14   12.84
   3   6   5  512.97   47.88
   3   6   6    6.89    7.51
   3   6   6    8.09    3.71
   3   6   7  159.03   27.26
   3   6   7  122.14   13.18
   3   6  10    8.90    3.99
   3   6  11   24.51    5.58
   3   6  12    0.46    1.36
   3   6  13    4.14    1.58
   3   7  -2   45.45   21.53
   3   7  -1  129.18   33.34
   3   7   0   44.32   22.42
   3   7   0   24.81   15.39
   3   7   1  261.04   42.47
   3   7   1  296.84   46.71
   3   7   2   44.11   20.56
   3   7   2   23.88   14.72
   3   7   3  144.51   27.25
   3   7   3  231.04   39.37
   3   7   4  334.15   47.93
   3   7   4  159.87   28.99
   3   7   5   87.54   20.55
   3   7   9   51.97    8.48
   3   7  10   19.71    4.72
   3   7  11    3.97    2.07
   3   7  12   11.33    2.76
   3   8   9    4.63    2.41
   3   8  10   44.55    5.34
   4  -7  -3    6.71    2.23
   4  -7  -1    4.15    2.02
   4  -7   0  103.54    8.08
   4  -7   1    5.98    2.24
   4  -7   2   45.07    4.87
   4  -6  -6  167.19   11.95
   4  -6  -5   42.68    7.85
   4  -6  -5   48.10    6.65
   4  -6  -4  145.37   12.55
   4  -6  -4  188.81   12.55
   4  -6  -3   32.53    7.72
   4  -6  -3   29.92    7.24
   4  -6  -2  107.28   10.55
   4  -6  -1   28.41    6.42
   4  -6  -1   41.09    7.47
   4  -6   0   48.05    6.90
   4  -6   0   67.57    8.11
   4  -6   1   62.79    7.39
   4  -6   2   54.65    6.99
   4  -6   3   33.90    5.78
   4  -6   4   43.20    5.57
   4  -6   5   13.15    2.87
   4  -5  -8   77.81    7.55
   4  -5  -7   16.38    4.59
   4  -5  -6   93.35   10.24
   4  -5  -5   63.78    9.77
   4  -5  -5   62.90    8.69
   4  -5  -4  110.19   12.69
   4  -5  -4  101.48   10.36
   4  -5  -3   89.69   12.51
   4  -5  -3   81.52   11.37
   4  -5  -2  200.14   15.93
   4  -5  -2  194.70   14.79
   4  -5  -1  214.01   16.70
   4  -5  -1  159.78   14.27
   4  -5   0   67.65    8.60
   4  -5   1  145.68   13.98
   4  -5   1  223.30   16.28
   4  -5   2    0.21    1.89
   4  -5   3  238.82   16.09
   4  -5   4    8.27    3.34
   4  -5   5   86.66    8.99
   4  -5   6   37.18    5.59
   4  -5   7   29.57    4.20
   4  -4  -8   59.24    7.54
   4  -4  -7  128.54   12.38
   4  -4  -6   44.16    7.72
   4  -4  -5  306.97   20.16
   4  -4  -5  321.07   18.66
   4  -4  -4   31.20    6.82
   4  -4  -4   31.13    6.50
   4  -4  -3  237.60   17.45
   4  -4  -3  216.10   15.78
   4  -4  -2    2.60    3.41
   4  -4  -2    5.72    3.78
   4  -4  -1  423.31   22.42
   4  -4  -1  378.49   20.78
   4  -4   0  168.67   14.35
   4  -4   0  153.25   12.86
   4  -4   1  124.50   11.32
   4  -4   2   67.84    9.05
   4  -4   2   80.43    8.92
   4  -4   3   31.50    5.44
   4  -4   4   55.71    8.03
   4  -4   5    6.83    3.44
   4  -4   6   53.85    7.68
   4  -4   7    2.17    2.02
   4  -4   8   11.37    3.01
   4  -4   9   -0.99    1.06
   4  -3  -8    3.03    2.79
   4  -3  -7  305.28   19.18
   4  -3  -6   58.37    8.80
   4  -3  -5  214.37   16.66
   4  -3  -4  226.42   16.68
   4  -3  -4  237.88   16.00
   4  -3  -3   40.39    7.25
   4  -3  -3   40.83    6.84
   4  -3  -2  116.52   11.13
   4  -3  -2  126.07   11.42
   4  -3  -1   45.08    8.34
   4  -3  -1   53.24    7.31
   4  -3   0  348.92   19.12
   4  -3   0  334.02   17.80
   4  -3   1   97.68   17.70
   4  -3   1  284.56   15.62
   4  -3   2  329.76   19.04
   4  -3   2  295.75   16.53
   4  -3   3   47.65   18.43
   4  -3   3   29.30    8.15
   4  -3   3   35.79    7.34
   4  -3   4  150.18   12.31
   4  -3   5    9.44    4.18
   4  -3   6  168.83   14.18
   4  -3   7   15.73    5.05
   4  -3   8   34.34    6.05
   4  -3   9    2.65    1.98
   4  -3  10   -0.94    1.35
   4  -2  -6  292.89   19.06
   4  -2  -5   67.76    8.71
   4  -2  -4  324.05   18.84
   4  -2   3   90.84   18.68
   4  -2   4  168.00   26.73
   4  -2   4  176.91   13.90
   4  -2   4  171.99   12.84
   4  -2   5   92.01   20.88
   4  -2   5  112.79   11.13
   4  -2   6   80.24    9.52
   4  -2   7   76.52   10.50
   4  -2   8    1.69    2.34
   4  -2   9   21.49    4.85
   4  -2  10    0.45    1.19
   4  -2  11   13.01    2.18
   4  -1   3   56.39   13.41
   4  -1   4   70.84   18.16
   4  -1   5  180.30   27.03
   4  -1   6   49.60   15.98
   4  -1   6   53.47    7.87
   4  -1   7  129.48   12.38
   4  -1   8   47.44    7.60
   4  -1   9   32.13    6.10
   4  -1   9   40.69    5.44
   4  -1  10   25.79    4.89
   4  -1  10   14.82    3.07
   4  -1  11   12.24    2.68
   4  -1  11    5.68    1.58
   4  -1  12   45.48    3.23
   4   0  -5  358.12   35.79
   4   0  -4  146.62   22.80
   4   0  -3   11.50    7.29
   4   0  -2  202.69   25.35
   4   0  -1  813.42   51.20
   4   0   0  136.92   20.39
   4   0   1  786.35   50.19
   4   0   3  360.99   31.25
   4   0   3  483.01   36.92
   4   0   4   29.01   10.27
   4   0   4   38.99   11.59
   4   0   5  257.12   31.52
   4   0   5  315.32   36.64
   4   0   6   40.86   13.85
   4   0   7   80.54    9.73
   4   0   7   80.14    8.08
   4   0   7   83.50   22.40
   4   0   8   25.20    5.78
   4   0   8   22.82    4.44
   4   0   9   34.01    6.28
   4   0   9   21.48    4.36
   4   0  10   35.30    5.70
   4   0  10   28.01    5.46
   4   0  11    3.80    1.77
   4   0  11    7.50    2.33
   4   0  12   41.87    3.82
   4   0  12   14.44    2.52
   4   1  -5  217.52   27.53
   4   1  -4  233.75   29.44
   4   1  -3  568.46   43.64
   4   1  -2  186.75   25.36
   4   1  -1  918.54   52.43
   4   1   0   99.82   19.80
   4   1   0   52.73   15.67
   4   1   1  786.48   34.36
   4   1   1  786.36   44.35
   4   1   1  799.12   37.89
   4   1   2  124.02   16.97
   4   1   2  114.19   17.23
   4   1   2  106.07   15.49
   4   1   3  673.11   40.06
   4   1   3  670.73   40.20
   4   1   4  234.52   27.51
   4   1   4  230.79   26.62
   4   1   5  140.29   22.48
   4   1   5   94.92   19.41
   4   1   6  213.22   32.85
   4   1   6  219.39   32.87
   4   1   7    4.21    5.90
   4   1   7    0.94    2.02
   4   1   8   71.30    9.02
   4   1   8   78.72    8.59
   4   1   9    3.40    2.23
   4   1   9    7.38    2.94
   4   1  10   37.63    6.06
   4   1  10   52.24    6.51
   4   1  11    3.28    1.79
   4   1  11    0.40    1.49
   4   1  12   83.15    5.65
   4   1  12   15.14    3.32
   4   1  13   -0.96    0.83
   4   2  -5  557.07   48.39
   4   2  -4   12.33    6.66
   4   2  -3  360.27   37.94
   4   2  -2  707.98   49.98
   4   2  -1  153.90   22.57
   4   2   0  575.74   40.30
   4   2   1  108.75   16.72
   4   2   2  505.28   34.21
   4   2   2  483.84   34.13
   4   2   3   23.89    8.16
   4   2   3   25.24    7.53
   4   2   4 1349.88   50.22
   4   2   4 1371.01   63.13
   4   2   5   26.81    9.70
   4   2   6  590.54   49.32
   4   2   7   29.21   12.46
   4   2   8   52.93   18.67
   4   2   8   34.28    6.17
   4   2   8   65.92    7.48
   4   2   9   -0.86    2.24
   4   2   9    3.25    2.39
   4   2  10   32.73    6.33
   4   2  10   19.80    4.22
   4   2  10   29.05    5.72
   4   2  11   15.87    3.65
   4   2  11    5.99    2.31
   4   2  12    8.62    2.70
   4   2  13   -1.48    1.09
   4   3  -5   87.83   20.84
   4   3  -4  334.94   38.57
   4   3  -3   80.44   18.42
   4   3  -2 1499.61   76.17
   4   3  -1    4.04    6.36
   4   3   0  513.19   40.18
   4   3   1   85.78   15.44
   4   3   2  421.06   31.73
   4   3   3   28.79    9.44
   4   3   3   21.29    7.34
   4   3   4    0.95    2.67
   4   3   4    2.06    2.20
   4   3   5  109.65   20.17
   4   3   6   99.10   19.10
   4   3   7  154.03   28.37
   4   3   8   47.35   16.25
   4   3   8   31.40    5.03
   4   3   8   46.71    6.58
   4   3   9   95.85    9.29
   4   3   9  119.02   10.75
   4   3  10    5.65    3.10
   4   3  10    4.66    2.61
   4   3  11   78.05    9.18
   4   3  11  111.99    9.37
   4   3  12    2.05    1.66
   4   3  12    0.68    1.26
   4   3  13   10.07    2.04
   4   4  -5   12.18    9.28
   4   4  -4  249.87   36.86
   4   4  -3  242.07   36.29
   4   4  -2  797.29   61.68
   4   4  -1   75.16   18.83
   4   4   0  177.92   26.74
   4   4   1   13.74    7.37
   4   4   2  401.37   34.45
   4   4   3  135.26   18.35
   4   4   4  398.41   28.81
   4   4   4  356.96   34.91
   4   4   5  154.87   23.70
   4   4   6   32.64   12.42
   4   4   7   56.58   15.95
   4   4   8    7.96    8.60
   4   4   8   40.30    6.39
   4   4   9   81.91    8.63
   4   4  10    7.91    2.82
   4   4  11   31.13    6.14
   4   4  11   18.93    4.20
   4   4  12    8.71    2.90
   4   4  12    7.44    2.34
   4   4  13    6.99    2.11
   4   4  13    5.68    1.54
   4   5  -5   23.36   14.10
   4   5  -4   60.61   20.62
   4   5  -3  117.79   28.98
   4   5  -2  198.68   34.03
   4   5  -1  449.84   48.17
   4   5   0   31.55   12.15
   4   5   1  459.10   43.14
   4   5   2    6.18    4.96
   4   5   3  348.83   32.58
   4   5   4   11.78    6.73
   4   5   4   11.78    5.91
   4   5   5  233.18   31.50
   4   5   6   74.67   18.02
   4   5   7   17.89    9.54
   4   5   7   22.98    5.69
   4   5   8   32.50   13.43
   4   5   9   17.18    4.48
   4   5  10   54.28    6.76
   4   5  11   27.66    5.87
   4   5  11   18.92    4.06
   4   5  12   15.70    3.84
   4   5  12   10.14    2.43
   4   5  13    6.68    2.04
   4   6  -4   81.24   25.50
   4   6  -3  252.69   42.97
   4   6  -2   24.06   16.25
   4   6  -1  164.76   32.83
   4   6   0   18.64   12.05
   4   6   1  270.37   36.22
   4   6   2   87.72   21.09
   4   6   3   28.85   10.60
   4   6   4  174.49   28.34
   4   6   5  179.16   15.91
   4   6   5  169.03   28.34
   4   6   6  110.97   12.99
   4   6   6   96.18   22.34
   4   6   7   52.70   16.24
   4   6   7   42.66    7.90
   4   6   8   63.50    9.08
   4   6   9   14.51    3.42
   4   6  10   96.07    7.82
   4   6  11    5.47    2.96
   4   6  11    8.32    2.38
   4   6  12   31.40    4.88
   4   7  -2   45.58   19.43
   4   7  -1   11.38    8.49
   4   7   0   95.02   26.12
   4   7   1  127.95   27.71
   4   7   1  104.10   11.71
   4   7   2  347.59   42.39
   4   7   2  292.23   20.08
   4   7   3   56.14   16.46
   4   7   3   85.76   11.35
   4   7   4  456.94   26.23
   4   7   4  456.75   48.30
   4   7   5    0.77    4.44
   4   7   5    7.48    4.43
   4   7   6  272.97   20.59
   4   7   7   24.88    6.22
   4   7  10  112.35   11.11
   4   7  11   13.28    3.57
   4   7  12   13.10    2.77
   4   8   9   62.49    7.66
   4   8  10    5.05    2.46
   4   8  11   11.60    2.45
   5  -6  -4    0.08    1.49
   5  -6  -3   93.09    7.87
   5  -6  -2   -0.20    1.19
   5  -6  -2   -1.37    1.66
   5  -6  -1  116.93    8.67
   5  -6  -1  140.44    9.08
   5  -6   0   17.01    3.39
   5  -6   1   87.32    7.17
   5  -6   2   19.90    3.39
   5  -6   3   38.44    4.13
   5  -5  -6   36.37    5.72
   5  -5  -4   25.37    5.25
   5  -5  -3   99.19    9.40
   5  -5  -2   45.35    8.22
   5  -5  -2   53.38    8.11
   5  -5  -1   61.39    8.43
   5  -5  -1   86.70    8.94
   5  -5   0   58.26    8.24
   5  -5   0   59.48    7.55
   5  -5   1   11.33    3.47
   5  -5   1   21.96    4.84
   5  -5   2   59.82    6.73
   5  -5   2   93.18    8.95
   5  -5   3   13.85    3.63
   5  -5   4   58.03    6.56
   5  -5   5   13.41    3.14
   5  -5   6   24.81    3.13
   5  -4  -6  145.46   12.87
   5  -4  -5   53.83    8.24
   5  -4  -5   60.63    7.32
   5  -4  -4   98.03   11.64
   5  -4  -4   88.49    9.99
   5  -4  -3   73.86    9.82
   5  -4  -3   53.00    7.55
   5  -4  -2  205.94   16.60
   5  -4  -2  184.62   14.38
   5  -4  -1   12.54    4.47
   5  -4   0  204.78   16.38
   5  -4   0  212.81   14.95
   5  -4   1    8.38    3.22
   5  -4   1    4.28    2.34
   5  -4   2  124.53   11.77
   5  -4   2  163.57   12.91
   5  -4   3    1.68    2.17
   5  -4   3    3.34    2.38
   5  -4   4   73.19    8.40
   5  -4   5    4.52    2.75
   5  -4   6   48.05    6.11
   5  -4   7   11.55    2.76
   5  -4   8    5.74    1.49
   5  -3  -7   14.61    4.36
   5  -3  -6  254.24   17.99
   5  -3  -5    3.56    2.99
   5  -3  -4  145.16   13.77
   5  -3  -4  149.18   12.24
   5  -3  -3   13.02    6.45
   5  -3  -3    9.24    4.97
   5  -3  -2  274.18   19.05
   5  -3  -2  223.41   15.59
   5  -3  -1   21.27    6.30
   5  -3  -1   23.67    6.04
   5  -3   0   80.69    8.69
   5  -3   1   97.58   11.24
   5  -3   1   92.47    9.99
   5  -3   2  195.72   15.64
   5  -3   2  194.33   14.02
   5  -3   3   31.61    6.17
   5  -3   3   30.15    5.90
   5  -3   4   15.02    4.32
   5  -3   4   27.98    5.60
   5  -3   5   97.24   10.24
   5  -3   6    4.88    2.74
   5  -3   7   35.92    5.88
   5  -3   8   -0.61    1.27
   5  -3   9    6.65    1.76
   5  -2  -6  505.64   25.02
   5  -2  -5   16.09    4.62
   5  -2  -4  222.97   16.67
   5  -2  -3   56.82    7.83
   5  -2  -3   46.51    6.80
   5  -2  -2  104.84   11.24
   5  -2  -2   94.43   10.29
   5  -2  -1  160.39   13.87
   5  -2  -1  156.36   12.79
   5  -2   0  194.25   15.02
   5  -2   1  106.35   10.49
   5  -2   2   66.47   19.67
   5  -2   2   48.11    9.58
   5  -2   2   37.21    7.65
   5  -2   3  125.66   24.13
   5  -2   3  136.65   13.04
   5  -2   3  131.01   11.11
   5  -2   4   16.61    5.57
   5  -2   4   18.80    5.34
   5  -2   5   99.97   10.48
   5  -2   5  147.43   12.38
   5  -2   6   23.34    5.76
   5  -2   7   20.87    4.79
   5  -2   8   13.05    3.81
   5  -2   9   17.84    3.46
   5  -2  10    5.19    1.54
   5  -1  -5  296.06   18.66
   5  -1  -4   30.63    5.88
   5  -1  -3  310.21   19.45
   5  -1  -2    2.60    2.15
   5  -1   2   24.99    8.79
   5  -1   2   24.25    5.64
   5  -1   3   56.61   14.91
   5  -1   3   68.19    8.88
   5  -1   3   64.50    7.66
   5  -1   4  110.33   21.62
   5  -1   4  114.07   11.63
   5  -1   4  108.97   10.38
   5  -1   5   84.22   19.54
   5  -1   5   60.27    8.36
   5  -1   5   96.43   10.07
   5  -1   6  115.61   11.11
   5  -1   6  151.09   13.45
   5  -1   7   16.06    4.46
   5  -1   8   38.95    6.38
   5  -1   9    2.65    1.92
   5  -1  10   21.82    3.71
   5  -1  11   -1.11    0.90
   5   0  -3  256.98   35.41
   5   0  -2  170.23   28.32
   5   0  -1  167.00   27.64
   5   0   2  472.35   37.15
   5   0   3    6.26    5.78
   5   0   4  315.11   33.75
   5   0   5   41.50   14.42
   5   0   5   68.47   10.83
   5   0   5   59.02    8.68
   5   0   6  106.90   10.87
   5   0   6  134.15   12.15
   5   0   6  127.27   25.73
   5   0   7   24.93    5.71
   5   0   8   58.53    8.05
   5   0   9   41.53    6.33
   5   0   9   32.65    4.70
   5   0  10   21.74    3.94
   5   0  10   19.56    3.33
   5   0  11   12.75    2.47
   5   0  11    9.58    1.90
   5   0  12   85.57    3.90
   5   1  -5   42.66   13.51
   5   1  -4  322.98   38.14
   5   1  -3   91.21   19.92
   5   1  -2  740.08   55.73
   5   1  -1    3.66    4.20
   5   1   0  444.98   40.75
   5   1   1   96.48   18.58
   5   1   2  448.93   39.50
   5   1   3   20.98    8.25
   5   1   4  437.76   40.09
   5   1   4  430.37   38.17
   5   1   5   33.76   12.34
   5   1   5   41.95   14.41
   5   1   6   65.08   18.52
   5   1   6   61.46    8.62
   5   1   6   46.85    6.67
   5   1   7   63.83   19.30
   5   1   7   55.74    7.95
   5   1   7   41.83    5.72
   5   1   8   19.28    4.72
   5   1   8   14.43    3.68
   5   1   9   14.34    3.89
   5   1   9    9.30    3.42
   5   1  10    0.87    1.58
   5   1  10    1.48    1.50
   5   1  11   20.01    3.27
   5   1  11   26.88    4.29
   5   1  12   95.33    4.88
   5   1  12   -2.12    1.07
   5   2  -5   24.17   12.11
   5   2  -4  257.38   35.05
   5   2  -3  129.12   26.43
   5   2  -2  556.80   50.00
   5   2  -1  540.86   46.69
   5   2   0  316.36   33.98
   5   2   1  146.47   23.70
   5   2   1  186.54   23.81
   5   2   2  126.95   19.58
   5   2   2  132.11   19.20
   5   2   3  210.80   24.63
   5   2   3  283.54   29.52
   5   2   4  222.83   27.38
   5   2   4  250.28   26.11
   5   2   5  359.23   38.83
   5   2   6   68.96   18.55
   5   2   7  122.00   27.80
   5   2   7   92.94    9.76
   5   2   7   99.13   12.12
   5   2   7  123.46   10.04
   5   2   8   -0.96    2.11
   5   2   8   -2.22    2.17
   5   2   9   40.55    5.98
   5   2   9   58.86    7.27
   5   2  10    1.51    1.51
   5   2  10    6.10    2.57
   5   2  11   28.01    4.06
   5   2  11   20.18    3.79
   5   2  12   -1.32    1.39
   5   3  -5   98.89   23.13
   5   3  -4  411.38   48.55
   5   3  -3  202.38   32.62
   5   3  -2  226.08   33.53
   5   3  -1  341.25   38.49
   5   3   0  120.20   23.30
   5   3   1  278.83   31.25
   5   3   2    5.23    5.26
   5   3   2    9.18    6.05
   5   3   3  186.97   22.92
   5   3   3  263.55   29.60
   5   3   4   15.70    7.76
   5   3   4   12.85    5.59
   5   3   5  124.41   22.05
   5   3   6  137.63   24.42
   5   3   7  196.79   32.10
   5   3   7  166.29   11.31
   5   3   7  182.22   15.66
   5   3   8    1.80    2.12
   5   3   8    9.31    3.80
   5   3   9   41.20    5.46
   5   3   9   61.17    6.99
   5   3  10   53.80    7.41
   5   3  10   49.03    5.68
   5   3  10   56.79    6.77
   5   3  11   42.80    6.00
   5   3  11   46.73    5.49
   5   3  12    1.61    1.55
   5   3  13    3.65    1.18
   5   4  -5  154.52   30.27
   5   4  -4   21.04   11.50
   5   4  -3  682.34   62.23
   5   4  -2   29.69   13.40
   5   4  -1  657.00   55.97
   5   4   0    2.88    6.42
   5   4   1  267.13   31.46
   5   4   2  216.08   26.67
   5   4   3  279.60   28.95
   5   4   3  365.88   36.15
   5   4   4   80.76   17.81
   5   4   5  100.51   19.92
   5   4   6   69.55   18.24
   5   4   6  122.07   13.69
   5   4   7   17.17    9.77
   5   4   7   11.46    4.18
   5   4   8   93.51    7.62
   5   4   8   79.49   10.30
   5   4   9   78.42    7.78
   5   4   9    6.05    2.53
   5   4  10  100.84    8.68
   5   4  11    1.39    1.57
   5   4  11    1.48    1.52
   5   4  12   28.76    3.92
   5   4  12   27.07    4.08
   5   4  13    0.98    0.81
   5   5  -4   25.65   14.57
   5   5  -3  188.60   34.87
   5   5  -2  258.70   39.57
   5   5  -1  153.88   28.87
   5   5   0  293.11   37.71
   5   5   1  105.73   21.19
   5   5   2  325.56   34.74
   5   5   3   57.18   13.82
   5   5   4  227.01   30.76
   5   5   5   14.59    8.13
   5   5   5   29.73    6.79
   5   5   6  161.38   15.06
   5   5   6  132.69   24.78
   5   5   7   -0.09    4.23
   5   5   7    3.57    3.86
   5   5   8   26.37    6.01
   5   5   9    5.59    3.04
   5   5  10   30.11    5.17
   5   5  11    2.45    1.87
   5   5  11    1.23    1.52
   5   5  12    7.97    2.39
   5   5  12    5.22    1.73
   5   6  -3   55.35   22.37
   5   6  -2   83.95   24.73
   5   6  -1   30.36   13.79
   5   6   0  160.19   30.77
   5   6   1    6.05    6.70
   5   6   2  220.18   31.20
   5   6   3   16.83    8.03
   5   6   3   25.45    6.13
   5   6   4  156.03   15.14
   5   6   4  133.54   25.42
   5   6   5   51.24   15.35
   5   6   5   52.41    8.99
   5   6   6   71.35   10.76
   5   6   6   65.33   18.59
   5   6   7    3.26    2.56
   5   6   8    8.73    3.71
   5   6   9   41.02    6.57
   5   6   9   37.42    5.72
   5   6  10    1.85    2.09
   5   6  11    7.81    2.82
   5   6  11    8.07    2.16
   5   6  12    0.05    1.09
   5   6  12   -3.75    1.41
   5   7   0   26.18   14.50
   5   7   1   50.14   18.35
   5   7   1   45.15    8.37
   5   7   2  111.34   24.01
   5   7   2  110.71   12.63
   5   7   3   37.91   12.94
   5   7   3   42.89    8.89
   5   7   4   50.69   16.32
   5   7   4   40.26    7.94
   5   7   5   87.63   11.69
   5   7   6    1.34    2.01
   5   7   7   45.36    8.16
   5   7   8    1.17    1.75
   5   7   9   91.80    7.51
   5   7  10    3.06    1.70
   5   7  11   15.29    3.45
   5   7  11   13.68    2.25
   5   7  12    0.90    1.01
   5   8   2    0.27    1.53
   5   8   3   75.41   10.75
   5   8   4   -0.19    2.02
   5   8   5  100.35   12.52
   5   8   6    2.31    2.34
   5   8   8   31.40    4.25
   5   8  10   17.08    3.56
   5   8  11   18.81    3.15
   5   9   9    4.41    1.66
   6  -5  -3    3.53    1.68
   6  -5  -2  112.47    8.53
   6  -5  -1   21.23    3.84
   6  -5   0   81.11    6.99
   6  -5   0   71.29    5.92
   6  -5   1   26.66    3.57
   6  -5   2   32.66    3.98
   6  -4  -5   43.10    6.09
   6  -4  -4   13.39    3.73
   6  -4  -3   27.15    5.99
   6  -4  -2   32.32    6.11
   6  -4  -1   61.73    8.41
   6  -4   0   14.50    4.26
   6  -4   0   24.73    4.39
   6  -4   1   76.62    8.67
   6  -4   1   72.94    7.44
   6  -4   2   15.60    3.71
   6  -4   2   12.19    3.25
   6  -4   3   35.92    4.86
   6  -4   3   46.07    5.69
   6  -4   4    4.47    2.19
   6  -4   5   39.49    4.40
   6  -3  -6   23.52    5.12
   6  -3  -5  127.73   11.98
   6  -3  -3  155.50   14.17
   6  -3  -2    9.42    4.61
   6  -3  -1  150.05   14.03
   6  -3   0    7.37    3.84
   6  -3   1  206.26   15.95
   6  -3   1  220.07   13.81
   6  -3   2    7.59    3.61
   6  -3   2   10.07    3.53
   6  -3   3  128.63   11.30
   6  -3   3  173.07   12.33
   6  -3   4    2.61    1.89
   6  -3   4    5.30    2.35
   6  -3   5   56.00    6.80
   6  -3   6   17.71    3.62
   6  -3   7   17.10    2.93
   6  -2  -6    3.04    2.27
   6  -2  -1  103.56   11.72
   6  -2   0  115.66   12.64
   6  -2   1   99.41   11.45
   6  -2   2  109.94   11.74
   6  -2   2  105.45    9.83
   6  -2   3   39.00    6.93
   6  -2   3   44.83    6.43
   6  -2   4  108.05   10.84
   6  -2   4  138.80   11.50
   6  -2   5    7.32    2.98
   6  -2   5    2.57    1.87
   6  -2   6   73.82    8.22
   6  -2   7   -0.05    1.32
   6  -2   8   15.61    2.98
   6  -2   9   -2.23    1.17
   6  -1  -1  255.89   18.49
   6  -1   0  220.74   17.09
   6  -1   1  375.96   23.26
   6  -1   2   48.91    8.28
   6  -1   3   52.59    9.68
   6  -1   3   39.51    7.18
   6  -1   4   32.20    6.44
   6  -1   4   35.73    5.99
   6  -1   5   29.42    6.88
   6  -1   5   27.76    5.93
   6  -1   6   27.23    5.35
   6  -1   6   28.50    5.38
   6  -1   7    8.98    3.26
   6  -1   7    9.87    3.89
   6  -1   8    9.33    2.73
   6  -1   9    3.37    1.57
   6  -1  10   -2.30    1.06
   6   0  -2  145.66   14.92
   6   0  -1   62.39    8.84
   6   0   0  240.15   16.91
   6   0   1   28.22    6.41
   6   0   2  122.81   12.11
   6   0   3   81.34   10.33
   6   0   4   33.86    6.54
   6   0   5   86.32   10.32
   6   0   5   88.16    9.08
   6   0   6    0.57    1.69
   6   0   6    0.00    2.17
   6   0   7   49.64    6.94
   6   0   7   34.20    6.75
   6   0   8   -0.65    1.68
   6   0   9   36.80    4.90
   6   0  10   -0.67    1.16
   6   0  11   21.51    2.03
   6   1  -3   84.51   22.66
   6   1  -2   52.85    7.86
   6   1  -2   62.45   19.04
   6   1  -1  153.32   13.17
   6   1  -1  126.55   26.35
   6   1   0   31.92   14.45
   6   1   1  140.37   12.88
   6   1   1  111.18   23.23
   6   1   2    7.38    3.84
   6   1   3  277.05   18.04
   6   1   4    3.46    3.28
   6   1   5  191.10   15.28
   6   1   6   31.18    5.32
   6   1   7   20.93    4.52
   6   1   7   13.96    4.41
   6   1   8   25.23    4.83
   6   1   9   16.15    3.30
   6   1   9   18.58    3.54
   6   1  10   18.72    3.07
   6   1  10   13.35    2.66
   6   1  11   17.46    2.39
   6   2  -4   51.58   17.53
   6   2  -3  153.07   29.23
   6   2  -2   72.59   19.87
   6   2  -1  281.72   37.92
   6   2   0    2.44    3.06
   6   2   1  106.41   21.54
   6   2   2    4.39    3.33
   6   2   3  146.64   24.09
   6   2   4    4.51    2.48
   6   2   5  339.90   19.95
   6   2   5  288.89   21.70
   6   2   6   16.27    5.12
   6   2   7   90.93    8.75
   6   2   7   70.77    9.76
   6   2   7   74.93    7.64
   6   2   8    4.17    1.64
   6   2   8   10.12    3.92
   6   2   8    9.24    2.82
   6   2   9   11.82    3.07
   6   2   9    8.67    2.73
   6   2  10   28.44    3.92
   6   2  10   36.64    4.78
   6   2  11   53.96    4.29
   6   2  11   -0.87    1.09
   6   3  -4   16.10   12.28
   6   3  -3  231.76   36.34
   6   3  -2  129.14   28.31
   6   3  -1  274.90   37.87
   6   3   0  194.20   31.48
   6   3   1  197.93   29.05
   6   3   2  281.80   34.44
   6   3   3   94.26   17.99
   6   3   3  149.07   23.20
   6   3   4  218.40   30.56
   6   3   4  265.41   18.30
   6   3   4  282.58   21.54
   6   3   5   11.47    6.99
   6   3   5   10.83    4.10
   6   3   6  272.19   37.52
   6   3   6  345.77   22.69
   6   3   7   11.77    4.23
   6   3   8   90.68   10.38
   6   3   8   96.92    7.95
   6   3   8  112.60    9.25
   6   3   9   -2.91    1.94
   6   3   9    1.29    1.73
   6   3  10   54.21    5.18
   6   3  10   38.60    5.28
   6   3  11    5.28    2.05
   6   3  12    6.75    1.63
   6   4  -3  241.45   38.68
   6   4  -2  566.79   58.05
   6   4  -1  190.08   32.34
   6   4   0  272.37   37.27
   6   4   1   27.30   11.65
   6   4   2  324.36   36.25
   6   4   2  302.27   35.11
   6   4   3    9.32    5.93
   6   4   3    5.71    5.75
   6   4   4  245.17   19.75
   6   4   4  233.08   31.04
   6   4   5   12.68    7.32
   6   4   5   20.20    5.88
   6   4   6   13.26    8.21
   6   4   6   20.39    5.35
   6   4   7   16.18    5.09
   6   4   8   26.00    5.67
   6   4   9   39.35    5.92
   6   4  10   17.97    4.28
   6   4  11   14.66    2.99
   6   4  11   15.99    3.43
   6   4  12   19.56    2.78
   6   5  -2  349.88   48.06
   6   5  -1   37.87   15.33
   6   5   0  239.52   35.62
   6   5   1  100.64   22.18
   6   5   2  184.84   28.22
   6   5   2  206.26   17.28
   6   5   3   53.44   14.50
   6   5   3   71.45   10.95
   6   5   3   58.47   15.86
   6   5   4  134.20   14.18
   6   5   4  112.00   22.72
   6   5   5  192.50   17.84
   6   5   5  186.16   29.35
   6   5   6   52.07   15.76
   6   5   6   59.96    9.42
   6   5   7   52.54    8.84
   6   5   8    4.89    2.35
   6   5   9  121.28   11.03
   6   5   9  124.96    9.23
   6   5  10    1.28    1.70
   6   5  11   36.89    4.95
   6   5  11   36.86    4.37
   6   5  12    1.65    1.20
   6   5  12    1.32    0.99
   6   6  -1   13.51    9.54
   6   6   0   21.13   12.08
   6   6   1  252.14   36.40
   6   6   1  224.97   17.81
   6   6   2   18.32    9.90
   6   6   2   19.61    5.94
   6   6   3  236.02   31.02
   6   6   3  243.99   19.54
   6   6   3  204.88   31.95
   6   6   4    3.61    2.84
   6   6   4    2.28    3.54
   6   6   5  223.35   18.55
   6   6   5  187.38   30.73
   6   6   6    3.13    2.80
   6   6   7   41.64    7.65
   6   6   8    9.74    3.63
   6   6   9   23.28    4.70
   6   6   9   30.44    4.78
   6   6  10    8.68    2.34
   6   6  11   -0.75    1.59
   6   6  11    3.88    1.51
   6   6  12    3.87    1.29
   6   6  12    1.33    0.88
   6   7   1  140.81   13.79
   6   7   2    0.49    1.96
   6   7   3  120.33   13.49
   6   7   4    8.35    3.61
   6   7   5   52.84    9.30
   6   7   6   18.76    5.58
   6   7   7   21.88    5.80
   6   7   8   28.55    5.89
   6   7   9   11.45    3.19
   6   7   9   15.16    3.60
   6   7  10   11.98    2.62
   6   7  11   -0.81    1.40
   6   7  11   -2.04    1.07
   6   8   1   19.54    4.84
   6   8   2   33.70    7.03
   6   8   3   15.58    4.90
   6   8   4   70.47   10.47
   6   8   5   19.38    5.66
   6   8   6   20.68    5.55
   6   8   7    0.04    1.89
   6   8   8   50.96    7.03
   6   8   9    4.23    1.56
   6   8  10   19.07    3.60
   6   8  10   13.62    2.06
   6   8  11    0.64    0.73
   6   9   9    6.78    1.99
   7  -4  -2   13.22    2.72
   7  -4  -1  125.46    8.19
   7  -4   0   22.60    3.47
   7  -3  -4   50.98    6.04
   7  -3  -3   28.70    5.12
   7  -3  -2   67.38    8.22
   7  -3  -1    3.94    2.43
   7  -3   0   54.93    7.25
   7  -3   1    2.11    1.96
   7  -3   2   82.78    7.77
   7  -3   3    2.82    1.70
   7  -3   3   -2.41    1.74
   7  -3   4   14.29    2.47
   7  -2  -5    9.32    3.39
   7  -2  -4   54.35    7.36
   7  -2  -3    7.00    3.46
   7  -2  -2   97.39   10.83
   7  -2  -1   45.00    7.87
   7  -2   0   63.78    8.82
   7  -2   1   10.87    3.89
   7  -2   2   56.24    7.99
   7  -2   3   15.73    4.14
   7  -2   4   60.97    6.91
   7  -2   4   59.62    6.05
   7  -2   5   26.74    3.85
   7  -2   6   25.31    3.35
   7  -2   6   22.00    3.81
   7  -1  -4  109.55   11.27
   7  -1  -3   12.43    4.79
   7  -1  -2  127.61   12.80
   7  -1  -1   65.49    9.68
   7  -1   0   71.84    9.90
   7  -1   1  161.73   14.51
   7  -1   2   51.00    7.81
   7  -1   3  105.67   11.05
   7  -1   4    3.99    2.55
   7  -1   5  179.16   12.61
   7  -1   5  164.01   10.85
   7  -1   6    1.15    1.31
   7  -1   6   -0.89    1.49
   7  -1   7   43.77    4.66
   7  -1   7   37.12    4.96
   7   0  -3  270.88   18.46
   7   0  -2  153.95   14.81
   7   0  -1  259.34   18.60
   7   0   0  220.15   17.33
   7   0   1  347.89   21.40
   7   0   2   81.70   10.88
   7   0   3   86.87   10.64
   7   0   4   53.10    8.83
   7   0   5   42.48    6.61
   7   0   6   13.55    3.86
   7   0   6   10.46    4.27
   7   0   7    6.75    2.14
   7   0   7    5.10    2.57
   7   0   8    4.41    1.57
   7   0   9    4.73    1.11
   7   1  -2   67.85    9.36
   7   1  -1  104.00   11.87
   7   1   0   10.46    4.09
   7   1   1   96.15   11.26
   7   1   2   48.88    8.22
   7   1   3   73.36    9.67
   7   1   4  120.37   12.05
   7   1   5   20.46    5.17
   7   1   6   60.80    9.15
   7   1   7   -0.80    1.29
   7   1   8   24.92    3.34
   7   1   8   24.90    4.60
   7   1   9    0.21    1.18
   7   1  10   28.99    2.26
   7   2   0  229.37   17.01
   7   2   0  152.67   30.82
   7   2   1   12.66    4.45
   7   2   1    6.91    7.27
   7   2   2  111.43   11.68
   7   2   3   16.43    5.05
   7   2   4  146.67   13.43
   7   2   4  121.13   14.41
   7   2   5   32.01    7.65
   7   2   6   28.21    6.33
   7   2   7   20.38    5.79
   7   2   8    5.91    2.55
   7   2  10   49.61    3.35
   7   3  -1   47.40   16.15
   7   3   0   41.74   15.46
   7   3   0   59.68    9.80
   7   3   1  125.75   12.04
   7   3   1   86.92   20.80
   7   3   1  104.86   13.29
   7   3   2   19.30    5.69
   7   3   2    8.38    7.07
   7   3   2   18.69    6.58
   7   3   3   90.31   10.50
   7   3   3   81.22   18.84
   7   3   3   80.43   11.62
   7   3   4   51.95    9.75
   7   3   5   41.80    8.13
   7   3   6   58.96    9.76
   7   3   7   25.55    5.87
   7   3   7   16.29    3.49
   7   3   8   41.58    6.53
   7   3   8   40.40    5.00
   7   3   9   20.04    3.94
   7   3   9   20.42    3.54
   7   3  10    7.61    2.21
   7   3  11   15.89    2.10
   7   4   0   43.89   15.41
   7   4   1   30.97   13.96
   7   4   1   44.94    8.42
   7   4   2   39.37   13.53
   7   4   2   40.19    7.94
   7   4   3  112.60   22.96
   7   4   3  163.84   17.23
   7   4   4   35.18    7.47
   7   4   5  138.60   15.19
   7   4   6   -0.05    2.19
   7   4   7   45.75    8.01
   7   4   8    4.92    2.49
   7   4   8    5.23    2.16
   7   4   9   42.07    5.89
   7   4   9   53.36    5.69
   7   4  10    4.01    2.12
   7   4  11   18.09    2.59
   7   5   1  247.70   36.40
   7   5   1  268.89   19.56
   7   5   2    5.22    5.31
   7   5   2    2.95    2.66
   7   5   3  167.99   16.50
   7   5   3  146.13   25.76
   7   5   4   16.69    5.88
   7   5   5  105.30   13.13
   7   5   6    3.80    2.74
   7   5   7   40.25    7.40
   7   5   8    4.39    2.80
   7   5   9    1.50    1.15
   7   5   9    3.10    1.78
   7   5  10   11.43    2.71
   7   5  11   11.41    2.20
   7   6   1   74.07   10.48
   7   6   2   82.95   11.05
   7   6   3   99.22   12.44
   7   6   4   87.14   11.77
   7   6   5   28.85    6.45
   7   6   6   54.09    8.92
   7   6   7   13.15    4.19
   7   6   8   69.35    8.45
   7   6   9    0.63    1.09
   7   6   9    0.67    1.38
   7   6  10   30.54    3.83
   7   6  11    0.73    0.84
   7   6  11   -1.31    0.94
   7   7   1   22.66    5.45
   7   7   2   71.36   10.14
   7   7   3    6.52    3.48
   7   7   4  122.02   13.14
   7   7   5   10.97    4.76
   7   7   6   49.89    8.13
   7   7   7   21.95    5.51
   7   7   8   39.83    6.29
   7   7   9   12.70    3.13
   7   7   9   11.26    2.81
   7   7  10    7.85    1.91
   7   8   1    9.83    3.69
   7   8   2  104.22   11.73
   7   8   3   34.50    6.59
   7   8   4  112.34   12.38
   7   8   5   12.00    4.40
   7   8   6   33.79    6.76
   7   8   7   18.62    4.49
   7   8   8    9.58    3.15
   7   8   9   30.07    3.44
   7   8  10    2.42    1.36
   7   8  10    0.69    0.78
   7   9   8    1.28    0.99
   7   9   9    9.33    2.05
   8  -2  -2    6.75    2.31
   8  -2  -1   70.61    7.01
   8  -2  -1   50.06    5.92
   8  -2   0    2.35    1.71
   8  -2   1   50.95    5.85
   8  -2   2    0.35    1.15
   8  -2   3   15.93    3.56
   8  -2   4    4.11    1.64
   8  -1  -3   72.14    7.17
   8  -1  -2    5.32    2.74
   8  -1  -1   32.09    5.52
   8  -1   0   43.41    6.65
   8  -1   1   31.08    5.48
   8  -1   2   20.70    4.45
   8  -1   3    3.89    2.04
   8  -1   4   20.23    4.54
   8  -1   5    3.52    1.81
   8  -1   6   17.85    2.92
   8   0  -3   31.69    5.11
   8   0  -2   59.30    7.89
   8   0  -1   40.69    6.73
   8   0   0   58.14    8.38
   8   0   1   31.27    6.03
   8   0   2   75.93    9.06
   8   0   3    1.90    1.81
   8   0   4   86.76    8.59
   8   0   4   87.76   10.24
   8   0   5    1.67    1.68
   8   0   6   49.21    6.21
   8   0   7    0.93    0.95
   8   1  -2  123.52   11.36
   8   1  -1   78.74    9.89
   8   1  -1   83.27   10.74
   8   1   0  164.13   13.84
   8   1   0  136.52   14.79
   8   1   1   54.17    8.09
   8   1   2  120.83   11.63
   8   1   3   32.45    6.67
   8   1   3   28.80    7.16
   8   1   4  113.39   10.50
   8   1   4   93.81   11.34
   8   1   5   27.78    6.15
   8   1   6   14.85    4.17
   8   1   7    6.55    2.47
   8   1   8    7.95    1.79
   8   2  -1   60.98    8.13
   8   2   0  134.14   12.48
   8   2   0  118.08   13.61
   8   2   1   15.98    4.49
   8   2   1   11.04    4.14
   8   2   2   31.27    6.26
   8   2   2   29.81    6.74
   8   2   3   41.66    7.00
   8   2   3   33.79    7.31
   8   2   4   36.17    6.29
   8   2   4   28.55    6.89
   8   2   5   43.55    7.75
   8   2   6    5.41    2.72
   8   2   7   36.46    5.97
   8   2   8   -0.14    1.20
   8   3   0   34.22    6.87
   8   3   1  128.84   12.06
   8   3   1  118.89   13.76
   8   3   2    2.11    2.45
   8   3   2   -0.01    2.29
   8   3   3  134.89   14.48
   8   3   4    2.54    2.44
   8   3   5   47.94    7.99
   8   3   6    7.27    3.19
   8   3   7   35.57    5.88
   8   3   8   10.49    2.93
   8   4   1   44.79    8.25
   8   4   2   55.54    9.19
   8   4   3   30.75    7.21
   8   4   4   91.18   11.66
   8   4   5   40.26    8.26
   8   4   6   33.80    6.63
   8   4   7   16.29    4.28
   8   4   7    8.79    2.46
   8   4   8   42.13    5.80
   8   4   8   29.79    3.83
   8   4   9   15.24    2.54
   8   4   9    5.79    2.02
   8   4  10   21.63    2.23
   8   5   1    0.52    1.82
   8   5   2  177.06   15.94
   8   5   3    4.21    3.07
   8   5   4  165.87   16.65
   8   5   5    4.59    3.18
   8   5   6   59.13    8.74
   8   5   7    1.33    1.44
   8   5   8   10.66    3.17
   8   5   8    7.12    2.32
   8   5   9   13.73    2.80
   8   5   9   10.49    2.54
   8   5  10    8.27    1.69
   8   6   1   17.53    4.91
   8   6   2  114.97   12.16
   8   6   3   26.80    6.70
   8   6   4   71.23    9.85
   8   6   5   19.67    5.11
   8   6   6   19.21    4.88
   8   6   7   18.41    4.41
   8   6   8   11.69    3.10
   8   6   8    6.30    2.21
   8   6   9   18.07    3.11
   8   6   9   15.95    2.68
   8   6  10    1.59    0.94
   8   7   2   12.07    3.95
   8   7   3   30.72    6.22
   8   7   4    4.61    2.62
   8   7   5   37.35    6.65
   8   7   6    0.63    1.52
   8   7   7   25.73    4.93
   8   7   8    0.74    1.03
   8   7   9   22.05    3.20
   8   7   9   20.05    2.88
   8   7  10   -0.95    0.76
   8   8   2    2.64    2.01
   8   8   3   31.29    5.68
   8   8   4    3.35    2.58
   8   8   5   27.49    5.29
   8   8   6    8.67    3.26
   8   8   7   14.12    3.45
   8   8   8   24.71    3.83
   8   8   8   30.57    3.42
   8   8   9   12.34    1.86
   9   0  -1    5.39    2.32
   9   0   0   44.50    5.07
   9   0   0   35.10    4.50
   9   0   1    4.92    2.03
   9   0   1    5.77    2.46
   9   0   2    9.07    3.03
   9   0   3   19.92    3.93
   9   0   4    1.57    1.37
   9   1  -1   73.18    6.76
   9   1   0    7.20    2.50
   9   1   0    5.10    2.43
   9   1   1   61.14    6.93
   9   1   1   47.87    7.23
   9   1   2    2.49    1.94
   9   1   2    0.97    1.96
   9   1   3   76.19    8.88
   9   1   4    1.25    1.83
   9   1   5   61.81    6.37
   9   1   6    0.81    0.91
   9   2   0   43.22    6.50
   9   2   1   22.60    5.06
   9   2   2   20.79    5.12
   9   2   3   23.11    5.05
   9   2   4   40.97    6.61
   9   2   5   22.18    4.37
   9   2   6   16.94    3.52
   9   2   7   10.38    2.19
   9   3   1   30.65    5.96
   9   3   2   73.97    9.42
   9   3   3   22.62    5.47
   9   3   4   51.23    7.40
   9   3   5    0.58    1.30
   9   3   6   22.97    4.37
   9   3   7    3.01    1.58
   9   4   1    1.31    2.40
   9   4   2   56.73    8.12
   9   4   3    2.35    2.39
   9   4   4   42.98    6.94
   9   4   5    5.07    2.68
   9   4   6   14.58    3.58
   9   4   7    4.44    1.90
   9   4   8    5.23    1.61
   9   5   1   14.88    3.83
   9   5   2   48.07    7.19
   9   5   3   16.49    4.37
   9   5   4   23.57    5.74
   9   5   5   18.61    4.42
   9   5   6   24.66    5.14
   9   5   6   23.64    3.07
   9   5   7   12.50    3.01
   9   5   7   10.09    2.05
   9   5   8   19.45    3.10
   9   5   8   21.08    2.35
   9   6   2    1.23    1.35
   9   6   3  110.01   10.44
   9   6   4    0.32    1.75
   9   6   5   53.88    7.33
   9   6   6   -0.69    1.54
   9   6   7   24.03    4.21
   9   6   7   22.19    3.20
   9   6   8    4.08    1.42
   9   6   8    6.24    1.45
   9   7   2    7.67    2.76
   9   7   3   17.97    3.97
   9   7   4   24.21    4.77
   9   7   5   24.57    4.60
   9   7   6   15.89    3.56
   9   7   7    5.59    1.88
   9   7   8   26.65    3.24
   9   7   8   29.12    2.75
   9   8   3    3.58    1.92
   9   8   4   20.28    3.77
   9   8   5    0.80    0.95
   9   8   6   14.61    3.01
   9   8   7    0.57    0.84
   9   8   7    1.25    0.87
  10   3   2    6.48    1.99
  10   3   3   29.48    4.02
  10   3   4    1.65    1.13
  10   3   5   11.94    2.30
  10   4   2    1.83    1.39
  10   4   3   44.40    5.01
  10   4   4   -0.33    1.10
  10   4   5   20.12    3.16
  10   4   6    0.11    0.67
  10   5   2    0.68    1.10
  10   5   3   36.80    4.65
  10   5   4    5.12    2.04
  10   5   5   16.31    2.96
  10   5   6    4.59    1.53
  10   6   3   13.26    2.72
  10   6   4   23.73    3.45
  10   6   5    5.38    1.92
  10   6   6   10.02    2.09
  10   7   4   14.94    2.68
  10   7   5    0.46    0.73


TITL A20082006A0826 in P1
REM P1 (#1 in standard setting)
CELL 1.54184   8.403605   8.979554  11.166985  79.0278  81.3381  63.0895
ZERR   10.00   0.001312   0.001118   0.001028   0.0090   0.0100   0.0139
LATT -1
SFAC C H N O Mo
UNIT 10.00 10.00 10.00 10.00 10.00
TREF
HKLF 4
END
_computing_structure_solution     'SHELXT 2014/4 (Sheldrick, 2014)'
_computing_structure_solution     'SHELXT 2014/4 (Sheldrick, 2014)'
_computing_structure_solution     'SHELXT 2014/4 (Sheldrick, 2014)'
_computing_structure_solution     'SHELXT 2014/4 (Sheldrick, 2014)'
_computing_structure_solution     'SHELXT 2014/4 (Sheldrick, 2014)'
;
_shelx_hkl_checksum              35360
_olex2_submission_special_instructions 'No special instructions were received'
_oxdiff_exptl_absorpt_empirical_details
;
Empirical correction (ABSPACK) includes:
- Absorption correction using spherical harmonics
- Frame scaling
;
_oxdiff_exptl_absorpt_empirical_full_max 1.877
_oxdiff_exptl_absorpt_empirical_full_min 0.349
loop_
_space_group_symop_operation_xyz
'x, y, z'
'-x, -y, -z'
loop_
_atom_site_label
_atom_site_type_symbol
_atom_site_fract_x
_atom_site_fract_y
_atom_site_fract_z
_atom_site_U_iso_or_equiv
_atom_site_adp_type
_atom_site_occupancy
_atom_site_site_symmetry_order
_atom_site_calc_flag
_atom_site_refinement_flags_posn
_atom_site_refinement_flags_adp
_atom_site_refinement_flags_occupancy
_atom_site_disorder_assembly
_atom_site_disorder_group
Mo1 Mo 0.67774(12) 0.59886(11) 0.26846(9) 0.0518(5) Uani 1 1 d . . . . .
O2 O 0.6856(15) 0.4785(15) 0.0184(11) 0.079(3) Uani 1 1 d . . . . .
O4 O 0.6474(17) 0.2694(15) 0.3997(11) 0.084(3) Uani 1 1 d . . . . .
O3 O 1.0921(12) 0.3947(13) 0.2253(9) 0.068(2) Uani 1 1 d . . . . .
O1 O 0.7794(18) 0.6375(17) 0.5187(11) 0.089(3) Uani 1 1 d . . . . .
C2 C 0.6694(16) 0.5317(17) 0.1069(11) 0.053(3) Uani 1 1 d . . . . .
N2 N 0.5207(11) 0.9977(10) 0.2314(7) 0.064(3) Uani 1 1 d . . . . .
C5 C 0.6551(11) 0.8526(7) 0.1831(8) 0.055(3) Uani 1 1 d G . . . .
N3 N 0.7417(11) 0.9074(11) 0.0771(8) 0.072(3) Uani 1 1 d DG . . . .
C6 C 0.6608(15) 1.0865(11) 0.0599(9) 0.083(5) Uani 1 1 d G . . . .
H6 H 0.691850 1.155129 -0.002820 0.100 Uiso 1 1 calc R . . . .
C7 C 0.5242(13) 1.1423(7) 0.1552(10) 0.073(4) Uani 1 1 d G . . . .
H7 H 0.450072 1.253878 0.165904 0.088 Uiso 1 1 calc R . . . .
C1 C 0.7309(18) 0.6310(18) 0.4290(12) 0.061(3) Uani 1 1 d . . . . .
C4 C 0.6620(18) 0.3893(17) 0.3510(13) 0.059(3) Uani 1 1 d . . . . .
C14 C 0.2664(12) 0.6783(9) 0.2804(10) 0.072(4) Uani 1 1 d . . . . .
H14 H 0.320043 0.569040 0.260979 0.086 Uiso 1 1 calc R . . . .
N1 N 0.3716(8) 0.7563(9) 0.2937(8) 0.058(3) Uani 1 1 d G . . . .
C10 C 0.2915(10) 0.9196(9) 0.3228(8) 0.061(3) Uani 1 1 d G . . . .
C11 C 0.1062(10) 1.0051(8) 0.3385(10) 0.071(4) Uani 1 1 d G . . . .
H11 H 0.052622 1.114409 0.357962 0.085 Uiso 1 1 calc R . . . .
C12 C 0.0010(8) 0.9272(12) 0.3252(12) 0.090(5) Uani 1 1 d G . . . .
H12 H -0.122965 0.984369 0.335759 0.108 Uiso 1 1 calc R . . . .
C13 C 0.0811(11) 0.7638(12) 0.2962(13) 0.085(5) Uani 1 1 d G . . . .
H13 H 0.010742 0.711685 0.287268 0.102 Uiso 1 1 calc R . . . .
C9 C 0.4087(19) 0.9958(18) 0.3316(15) 0.070(4) Uani 1 1 d . . . . .
H9A H 0.335364 1.110970 0.347541 0.084 Uiso 1 1 calc R . . . .
H9B H 0.479697 0.935116 0.401171 0.084 Uiso 1 1 calc R . . . .
C3 C 0.9344(19) 0.4745(17) 0.2439(12) 0.060(3) Uani 1 1 d . . . . .
C8 C 0.884(2) 0.802(2) 0.0029(17) 0.084(4) Uani 1 1 d D . . . .
H8A H 0.963551 0.704904 0.053502 0.125 Uiso 1 1 calc GR . . . .
H8B H 0.948071 0.862443 -0.042066 0.125 Uiso 1 1 calc GR . . . .
H8C H 0.837074 0.765375 -0.053220 0.125 Uiso 1 1 calc GR . . . .
loop_
_atom_site_aniso_label
_atom_site_aniso_U_11
_atom_site_aniso_U_22
_atom_site_aniso_U_33
_atom_site_aniso_U_23
_atom_site_aniso_U_13
_atom_site_aniso_U_12
Mo1 0.0426(6) 0.0392(6) 0.0639(7) -0.0132(4) 0.0080(4) -0.0106(4)
O2 0.070(6) 0.078(7) 0.089(7) -0.030(6) 0.000(5) -0.029(6)
O4 0.089(8) 0.060(6) 0.094(7) -0.013(6) 0.023(6) -0.034(6)
O3 0.048(5) 0.060(6) 0.078(6) -0.017(5) 0.000(4) -0.008(4)
O1 0.085(8) 0.086(8) 0.081(7) -0.029(6) -0.007(6) -0.018(7)
C2 0.046(6) 0.058(7) 0.046(6) -0.016(5) 0.009(5) -0.015(5)
N2 0.059(6) 0.034(5) 0.093(8) -0.012(5) -0.015(6) -0.012(5)
C5 0.048(6) 0.062(7) 0.058(6) -0.014(6) 0.010(5) -0.030(6)
N3 0.070(8) 0.060(7) 0.087(8) -0.005(6) -0.002(6) -0.032(6)
C6 0.074(10) 0.053(8) 0.114(13) -0.004(8) -0.012(9) -0.022(7)
C7 0.074(10) 0.052(8) 0.090(10) -0.002(7) -0.011(8) -0.026(7)
C1 0.055(7) 0.054(7) 0.058(7) -0.004(5) -0.003(6) -0.012(6)
C4 0.058(7) 0.045(7) 0.069(7) -0.013(6) 0.013(6) -0.021(6)
C14 0.066(9) 0.058(8) 0.091(10) -0.018(7) 0.010(7) -0.029(7)
N1 0.051(6) 0.044(5) 0.062(6) -0.014(4) 0.023(5) -0.012(5)
C10 0.058(7) 0.042(6) 0.057(6) 0.003(5) -0.002(5) -0.004(5)
C11 0.054(7) 0.056(8) 0.079(9) -0.018(7) 0.023(6) -0.009(6)
C12 0.059(9) 0.058(9) 0.143(16) -0.020(9) 0.007(9) -0.019(7)
C13 0.066(9) 0.065(10) 0.117(13) -0.008(9) -0.003(9) -0.026(8)
C9 0.053(7) 0.051(7) 0.087(10) -0.019(7) -0.001(7) -0.003(6)
C3 0.058(8) 0.053(7) 0.064(7) -0.018(6) 0.011(6) -0.021(6)
C8 0.083(11) 0.067(9) 0.094(11) -0.021(8) 0.014(9) -0.030(9)
loop_
_atom_type_symbol
_atom_type_description
_atom_type_scat_dispersion_real
_atom_type_scat_dispersion_imag
_atom_type_scat_source
C C 0.0181 0.0091 'International Tables Vol C Tables 4.2.6.8 and 6.1.1.4'
H H 0.0000 0.0000 'International Tables Vol C Tables 4.2.6.8 and 6.1.1.4'
Mo Mo -0.0483 2.7339 'International Tables Vol C Tables 4.2.6.8 and 6.1.1.4'
N N 0.0311 0.0180 'International Tables Vol C Tables 4.2.6.8 and 6.1.1.4'
O O 0.0492 0.0322 'International Tables Vol C Tables 4.2.6.8 and 6.1.1.4'
loop_
_geom_angle_atom_site_label_1
_geom_angle_atom_site_label_2
_geom_angle_atom_site_label_3
_geom_angle
_geom_angle_site_symmetry_1
_geom_angle_site_symmetry_3
_geom_angle_publ_flag
C2 Mo1 C5 93.5(4) . . ?
C2 Mo1 N1 94.2(4) . . ?
C5 Mo1 N1 80.0(3) . . ?
C1 Mo1 C2 169.6(5) . . ?
C1 Mo1 C5 91.2(5) . . ?
C1 Mo1 N1 95.7(4) . . ?
C4 Mo1 C2 87.9(5) . . ?
C4 Mo1 C5 172.1(4) . . ?
C4 Mo1 C1 88.8(6) . . ?
C4 Mo1 N1 92.1(4) . . ?
C3 Mo1 C2 85.7(5) . . ?
C3 Mo1 C5 97.9(5) . . ?
C3 Mo1 C1 84.5(6) . . ?
C3 Mo1 C4 90.0(6) . . ?
C3 Mo1 N1 177.9(4) . . ?
O2 C2 Mo1 171.5(11) . . ?
C5 N2 C7 108.0 . . ?
C9 N2 C5 125.2(8) . . ?
C9 N2 C7 126.8(8) . . ?
N2 C5 Mo1 119.1(4) . . ?
N3 C5 Mo1 132.7(4) . . ?
N3 C5 N2 108.0 . . ?
C5 N3 C6 108.0 . . ?
C8 N3 C5 125.7(10) . . ?
C8 N3 C6 126.3(10) . . ?
N3 C6 H6 126.0 . . ?
C7 C6 N3 108.0 . . ?
C7 C6 H6 126.0 . . ?
N2 C7 H7 126.0 . . ?
C6 C7 N2 108.0 . . ?
C6 C7 H7 126.0 . . ?
O1 C1 Mo1 172.9(12) . . ?
O4 C4 Mo1 178.0(13) . . ?
N1 C14 H14 120.0 . . ?
N1 C14 C13 120.0 . . ?
C13 C14 H14 120.0 . . ?
C14 N1 Mo1 116.5(4) . . ?
C10 N1 Mo1 123.5(4) . . ?
C10 N1 C14 120.0 . . ?
N1 C10 C11 120.0 . . ?
N1 C10 C9 117.3(7) . . ?
C11 C10 C9 122.7(7) . . ?
C10 C11 H11 120.0 . . ?
C12 C11 C10 120.0 . . ?
C12 C11 H11 120.0 . . ?
C11 C12 H12 120.0 . . ?
C11 C12 C13 120.0 . . ?
C13 C12 H12 120.0 . . ?
C14 C13 H13 120.0 . . ?
C12 C13 C14 120.0 . . ?
C12 C13 H13 120.0 . . ?
N2 C9 C10 115.0(12) . . ?
N2 C9 H9A 108.5 . . ?
N2 C9 H9B 108.5 . . ?
C10 C9 H9A 108.5 . . ?
C10 C9 H9B 108.5 . . ?
H9A C9 H9B 107.5 . . ?
O3 C3 Mo1 177.4(12) . . ?
N3 C8 H8A 109.5 . . ?
N3 C8 H8B 109.5 . . ?
N3 C8 H8C 109.5 . . ?
H8A C8 H8B 109.5 . . ?
H8A C8 H8C 109.5 . . ?
H8B C8 H8C 109.5 . . ?
loop_
_geom_bond_atom_site_label_1
_geom_bond_atom_site_label_2
_geom_bond_distance
_geom_bond_site_symmetry_2
_geom_bond_publ_flag
Mo1 C2 2.028(12) . ?
Mo1 C5 2.229(6) . ?
Mo1 C1 2.014(14) . ?
Mo1 C4 1.984(13) . ?
Mo1 N1 2.310(6) . ?
Mo1 C3 1.932(14) . ?
O2 C2 1.142(16) . ?
O4 C4 1.160(18) . ?
O3 C3 1.194(17) . ?
O1 C1 1.157(18) . ?
N2 C5 1.4200 . ?
N2 C7 1.4200 . ?
N2 C9 1.352(17) . ?
C5 N3 1.4200 . ?
N3 C6 1.4200 . ?
N3 C8 1.412(14) . ?
C6 H6 0.9300 . ?
C6 C7 1.4200 . ?
C7 H7 0.9300 . ?
C14 H14 0.9300 . ?
C14 N1 1.3900 . ?
C14 C13 1.3900 . ?
N1 C10 1.3900 . ?
C10 C11 1.3900 . ?
C10 C9 1.453(17) . ?
C11 H11 0.9300 . ?
C11 C12 1.3900 . ?
C12 H12 0.9300 . ?
C12 C13 1.3900 . ?
C13 H13 0.9300 . ?
C9 H9A 0.9700 . ?
C9 H9B 0.9700 . ?
C8 H8A 0.9600 . ?
C8 H8B 0.9600 . ?
C8 H8C 0.9600 . ?
