#------------------------------------------------------------------------------
#$Date: 2020-10-03 00:23:57 +0300 (Sat, 03 Oct 2020) $
#$Revision: 256946 $
#$URL: file:///home/coder/svn-repositories/cod/cif/4/51/81/4518115.cif $
#------------------------------------------------------------------------------
#
# This file is available in the Crystallography Open Database (COD),
# http://www.crystallography.net/
#
# All data on this site have been placed in the public domain by the
# contributors.
#
data_4518115
loop_
_publ_author_name
'Wagener, Tobias'
'Heusler, Arne'
'Nairoukh, Zackaria'
'Bergander, Klaus'
'Daniliuc, Constantin G.'
'Glorius, Frank'
_publ_section_title
;
 Accessing (Multi)Fluorinated Piperidines Using Heterogeneous
 Hydrogenation
;
_journal_name_full               'ACS Catalysis'
_journal_page_first              12052
_journal_page_last               12057
_journal_paper_doi               10.1021/acscatal.0c03278
_journal_year                    2020
_chemical_absolute_configuration ad
_chemical_formula_sum            'C5 H11 Cl F N'
_chemical_formula_weight         139.60
_space_group_crystal_system      monoclinic
_space_group_IT_number           4
_space_group_name_Hall           'P 2yb'
_space_group_name_H-M_alt        'P 1 21 1'
_atom_sites_solution_hydrogens   mixed
_audit_creation_method           'APEX3 v2019.1-0'
_cell_angle_alpha                90
_cell_angle_beta                 90.746(2)
_cell_angle_gamma                90
_cell_formula_units_Z            2
_cell_length_a                   6.6025(2)
_cell_length_b                   7.3672(2)
_cell_length_c                   7.0360(2)
_cell_measurement_reflns_used    4796
_cell_measurement_temperature    100.(2)
_cell_measurement_theta_max      68.1680
_cell_measurement_theta_min      6.2909
_cell_volume                     342.216(17)
_computing_cell_refinement       'SAINT V8.40A (Bruker Nano, Inc., 2019)'
_computing_data_collection       'APEX3 v2019.1-0'
_computing_data_reduction        'SAINT V8.40A (Bruker Nano, Inc., 2019)'
_computing_molecular_graphics    'shelXle (C.B. Huebschle, rev 958)'
_computing_structure_refinement  'SHELXL-2018/3 (Sheldrick, 2018)'
_computing_structure_solution    'SHELXT 2014/5 (Sheldrick, 2014)'
_diffrn_ambient_temperature      100.(2)
_diffrn_detector_area_resol_mean 7.3910
_diffrn_measured_fraction_theta_full 0.987
_diffrn_measured_fraction_theta_max 0.987
_diffrn_measurement_device_type  'Bruker D8 Venture PHOTON III Diffractometer'
_diffrn_measurement_method       'phi / omega scans'
_diffrn_radiation_monochromator  'MX mirror'
_diffrn_radiation_type           CuK\a
_diffrn_radiation_wavelength     1.54178
_diffrn_reflns_av_R_equivalents  0.0446
_diffrn_reflns_av_unetI/netI     0.0429
_diffrn_reflns_limit_h_max       7
_diffrn_reflns_limit_h_min       -7
_diffrn_reflns_limit_k_max       8
_diffrn_reflns_limit_k_min       -8
_diffrn_reflns_limit_l_max       8
_diffrn_reflns_limit_l_min       -8
_diffrn_reflns_number            5303
_diffrn_reflns_theta_full        68.18
_diffrn_reflns_theta_max         68.18
_diffrn_reflns_theta_min         6.29
_diffrn_source                   'Cu Ims'
_diffrn_source_type              'micro focus tube'
_exptl_absorpt_coefficient_mu    4.306
_exptl_absorpt_correction_T_max  0.79
_exptl_absorpt_correction_T_min  0.63
_exptl_absorpt_correction_type   multi-scan
_exptl_absorpt_process_details
;
SADABS-2016/2 Bruker AXS area detector scaling and absorption correction.
Krause, L., Herbst-Irmer, R., Sheldrick G.M. & Stalke D.,
J. Appl. Cryst. 48 (2015) 3-10
;
_exptl_crystal_colour            colourless
_exptl_crystal_density_diffrn    1.355
_exptl_crystal_density_method    'not measured'
_exptl_crystal_description       plate
_exptl_crystal_F_000             148
_exptl_crystal_size_max          0.111
_exptl_crystal_size_mid          0.107
_exptl_crystal_size_min          0.057
_refine_diff_density_max         0.269
_refine_diff_density_min         -0.273
_refine_ls_abs_structure_details
;

Flack x determined using 510 quotients [(I+)-(I-)]/[(I+)+(I-)]
(Parsons, Flack and Wagner, Acta Cryst. B69 (2013) 249-259).
;
_refine_ls_abs_structure_Flack   0.078(14)
_refine_ls_extinction_method     none
_refine_ls_goodness_of_fit_ref   1.172
_refine_ls_hydrogen_treatment    mixed
_refine_ls_matrix_type           full
_refine_ls_number_parameters     81
_refine_ls_number_reflns         1204
_refine_ls_number_restraints     1
_refine_ls_restrained_S_all      1.171
_refine_ls_R_factor_all          0.0341
_refine_ls_R_factor_gt           0.0330
_refine_ls_shift/su_max          0.000
_refine_ls_shift/su_mean         0.000
_refine_ls_structure_factor_coef Fsqd
_refine_ls_weighting_details
'w=1/[\s^2^(Fo^2^)+(0.0278P)^2^+0.2383P] where P=(Fo^2^+2Fc^2^)/3'
_refine_ls_weighting_scheme      calc
_refine_ls_wR_factor_gt          0.0860
_refine_ls_wR_factor_ref         0.0866
_reflns_number_gt                1165
_reflns_number_total             1204
_reflns_threshold_expression     'I > 2\s(I)'
_cod_data_source_file            cs0c03278_si_002.cif
_cod_data_source_block           glo9887
_cod_depositor_comments
;
The following automatic conversions were performed:

data item '_exptl_absorpt_correction_type' value 'Multi-Scan' was
changed to 'multi-scan' in accordance with the
/home/data/users/saulius/crontab/automatic-downloads/rss-feeds/ACS/lib/dictionaries/cif_core.dic
dictionary named 'cif_core.dic' version 2.4.2 last updated on
2011-04-26.

Automatic conversion script
Id: cif_fix_values 7556 2019-12-06 15:28:31Z antanas 
;
_cod_database_code               4518115
_shelx_res_file
;

TITL glo9887.res in P2(1)
    glo9887.res
    created by SHELXL-2018/3 at 08:59:52 on 01-Sep-2020
CELL  1.54178   6.6025   7.3672   7.0360   90.000   90.746   90.000
ZERR    2.000   0.0002   0.0002   0.0002    0.000    0.002    0.000
LATT -1
SYMM -X, 1/2+Y, -Z
SFAC C  H  Cl F  N
UNIT 10  22  2  2  2
LIST 4
REM Old TITL glo9887 in P2(1)
REM SHELXT solution in P2(1)
REM R1 0.077,  Rweak 0.026,  Alpha 0.101,  Orientation as input
REM Flack x=  0.139 ( 0.013 ) from Parsons' quotients
REM Formula found by SHELXT:  C6 Cl F
SIZE 0.057 0.107 0.111
TEMP -173.150
ACTA
CONF

L.S. 30
BOND $H
FMAP 2
PLAN 10

OMIT     7   4   1
OMIT     7  -4   1
OMIT     3  -4   6
OMIT    -2  -1   8
OMIT     1   6   5

HTAB

HTAB N1 Cl1
EQIV $1 -x+1, y-1/2, -z+1
HTAB N1 Cl1_$1

WGHT    0.027800    0.238300
FVAR       2.31071
CL1   3    0.671324    0.540667    0.681723    11.00000    0.02134    0.01677 =
         0.02636   -0.00013   -0.00345   -0.00004
F1    4   -0.065651    0.377829    0.268876    11.00000    0.02811    0.02203 =
         0.03137   -0.00025    0.00004   -0.00718
N1    5    0.356214    0.462800    0.363992    11.00000    0.02336    0.01599 =
         0.02723   -0.00114   -0.00844   -0.00174
H01   2    0.458908    0.474603    0.451070    11.00000    0.03113
H02   2    0.329965    0.349214    0.353628    11.00000    0.01250
C1    1    0.173449    0.558859    0.432495    11.00000    0.03012    0.01897 =
         0.02421   -0.00216    0.00009    0.00068
AFIX  23
H1A   2    0.209232    0.685958    0.463912    11.00000   -1.20000
H1B   2    0.125552    0.499631    0.549945    11.00000   -1.20000
AFIX   0
C2    1    0.005843    0.557558    0.285551    11.00000    0.02104    0.01505 =
         0.02908   -0.00093   -0.00037   -0.00308
AFIX  13
H2    2   -0.106821    0.637470    0.329157    11.00000   -1.20000
AFIX   0
C3    1    0.074220    0.620143    0.091617    11.00000    0.02423    0.02200 =
         0.02244    0.00200   -0.00573   -0.00314
AFIX  23
H3A   2    0.100219    0.752445    0.095450    11.00000   -1.20000
H3B   2   -0.035567    0.597782   -0.002665    11.00000   -1.20000
AFIX   0
C4    1    0.264608    0.522898    0.028926    11.00000    0.02851    0.02689 =
         0.02404   -0.00143    0.00052   -0.00152
AFIX  23
H4A   2    0.312529    0.577274   -0.091047    11.00000   -1.20000
H4B   2    0.233058    0.393580    0.004317    11.00000   -1.20000
AFIX   0
C5    1    0.430942    0.536050    0.179260    11.00000    0.02043    0.02483 =
         0.03234   -0.00134   -0.00022   -0.00385
AFIX  23
H5A   2    0.550619    0.465891    0.138400    11.00000   -1.20000
H5B   2    0.472261    0.664348    0.195524    11.00000   -1.20000
AFIX   0
HKLF 4




REM  glo9887.res in P2(1)
REM wR2 = 0.086602, GooF = S = 1.17170, Restrained GooF = 1.17118 for all data
REM R1 = 0.033026 for 1165 Fo > 4sig(Fo) and 0.034113 for all 1204 data
REM 81 parameters refined using 1 restraints

END

WGHT      0.0284      0.2326

REM Instructions for potential hydrogen bonds
HTAB N1 Cl1
HTAB N1 Cl1_$1
EQIV $2 -x+1, y+1/2, -z+1
HTAB C1 Cl1_$2
EQIV $3 -x, y+1/2, -z+1
HTAB C1 F1_$3
EQIV $4 x-1, y, z
HTAB C2 Cl1_$4
EQIV $5 x-1, y, z-1
HTAB C3 Cl1_$5
EQIV $6 x, y, z-1
HTAB C4 Cl1_$6

REM Highest difference peak  0.269,  deepest hole -0.273,  1-sigma level  0.062
Q1    1   0.6958  0.4122  0.6662  11.00000  0.05    0.27
Q2    1   0.5846  0.5566  0.5054  11.00000  0.05    0.26
Q3    1  -0.2365  0.5392  0.0388  11.00000  0.05    0.24
Q4    1   0.7034  0.6791  0.6648  11.00000  0.05    0.23
Q5    1   0.4934  0.4574  0.7347  11.00000  0.05    0.23
Q6    1   0.5024  0.5620  0.8048  11.00000  0.05    0.23
Q7    1   0.5399  0.6573  0.7188  11.00000  0.05    0.23
Q8    1   0.6719  0.3980  0.8328  11.00000  0.05    0.21
Q9    1   0.5048  0.6252  0.7403  11.00000  0.05    0.21
Q10   1   0.1859  0.8784  0.0788  11.00000  0.05    0.20
;
_shelx_res_checksum              32658
_shelx_hkl_file
;
   1   0   0  205.98   15.20
   1   0   0  202.68   16.00
  -1   0   0  205.58   15.10
  -2   0   0   10.40    8.80
   2   0   0    8.10    8.20
   3   0   0 5226.68  312.77
  -3   0   0 5317.77  311.07
   3   0   0 5296.57  311.37
  -3   0   0 5012.20  312.97
  -3   0   0 4839.12  307.17
  -4   0   0  329.57   28.90
   4   0   0  263.67   26.20
   4   0   0  281.37   28.80
  -4   0   0  299.67   34.20
  -4   0   0  290.07   30.20
   4   0   0  292.87   26.70
   4   0   0  288.27   25.90
  -4   0   0  290.27   28.10
   5   0   0  354.56   38.00
   5   0   0  337.67   35.20
   5   0   0  345.07   28.90
  -5   0   0  330.27   32.40
  -5   0   0  347.17   30.00
   5   0   0  322.37   35.00
   6   0   0  362.36   37.70
   6   0   0  342.27   29.10
   6   0   0  332.87   33.20
   6   0   0  248.48   33.50
  -6   0   0  336.47   30.10
  -6   0   0  337.77   28.60
  -6   0   0  342.97   34.10
  -7   0   0  102.49   13.70
  -7   0   0  108.09   19.70
   7   0   0   92.79   12.10
  -7   0   0  109.89   14.60
   7   0   0  102.39   17.50
   7   0   0  102.59   18.40
   0  -1   0    0.30    2.50
   0  -1   0   -0.20    3.20
   0   1   0    0.80    3.30
   0   1   0   -0.20    3.40
   0   1   0    1.70    2.40
   1  -1   0  476.65   29.10
   1  -1   0  439.16   27.80
  -1  -1   0  424.36   26.50
  -1  -1   0  452.45   30.10
  -1   1   0  381.46   28.30
   1   1   0  376.86   26.30
   1   1   0  377.66   29.20
  -1   1   0  410.36   26.70
   2  -1   0 2223.68  148.69
   2  -1   0 2422.46  147.09
  -2  -1   0 2256.07  145.79
  -2  -1   0 2315.97  149.59
   2   1   0 2512.75  146.49
  -2   1   0 2713.83  148.69
  -3  -1   0  643.84   47.10
   3  -1   0  670.13   49.90
   3  -1   0  730.93   50.19
  -3  -1   0  737.13   52.69
  -3  -1   0  652.93   53.19
  -3   1   0  686.03   48.30
  -3   1   0  698.73   50.79
   4  -1   0 2384.46  145.39
   4  -1   0 2385.76  139.99
  -4  -1   0 2266.27  145.39
  -4  -1   0 2355.26  151.98
   4  -1   0 2274.87  140.89
  -4   1   0 2299.37  149.59
  -4   1   0 2174.08  139.79
   4   1   0 2166.08  142.79
  -4   1   0 2130.99  140.59
   4   1   0 2254.37  145.29
   4   1   0 2020.10  141.79
  -4   1   0 2250.87  147.59
   4   1   0 2350.66  138.79
  -5  -1   0  798.82   61.09
   5  -1   0  757.52   55.39
  -5  -1   0  730.03   73.79
   5  -1   0  779.92   63.99
   5  -1   0  739.83   59.09
   5   1   0  904.21   64.99
   5   1   0  844.02   55.49
  -5   1   0  863.01   57.29
  -5   1   0  866.61   70.79
  -5   1   0  862.01   54.39
   5   1   0  841.32   63.89
   5   1   0  851.51   61.29
   5   1   0  802.02   59.29
  -5   1   0  800.52   82.09
  -5   1   0  867.91   60.29
   6  -1   0   57.89   24.20
   6  -1   0   36.80    9.60
  -6  -1   0   23.50   13.70
   6  -1   0   31.60   16.60
  -6  -1   0   28.10   10.70
  -6  -1   0   33.40   12.80
   6   1   0   40.00   21.70
   6   1   0   32.00   15.70
   6   1   0   38.20   11.10
  -6   1   0   21.70   13.40
  -6   1   0   35.90   10.40
  -6   1   0   37.40   10.10
   6   1   0   37.20   15.50
   7  -1   0  476.85   41.20
   7  -1   0  411.16   36.90
  -7  -1   0  362.66   33.80
   7  -1   0  417.36   29.90
  -7  -1   0  407.06   28.30
  -7  -1   0  366.76   29.40
  -7   1   0  392.26   33.30
   7   1   0  352.36   27.30
  -7   1   0  358.86   29.20
   7   1   0  363.86   32.50
   7   1   0  344.47   36.20
  -7   1   0  392.66   27.70
   1  -2   0 1466.25   89.79
  -1  -2   0 1479.75   90.99
   1   2   0 1418.66   90.99
   1   2   0 1505.25   92.89
  -1   2   0 1384.46   88.89
  -1   2   0 1375.36   87.89
  -1   2   0 1399.56   90.89
  -2  -2   0  885.21   61.49
   2  -2   0  863.81   56.39
   2   2   0  908.61   60.79
  -2   2   0  815.92   58.59
  -3  -2   0 2608.54  164.98
   3  -2   0 2573.84  160.68
   3  -2   0 2685.03  158.58
  -3  -2   0 2451.95  155.78
  -3   2   0 2582.44  162.08
   3   2   0 2617.44  163.08
  -3   2   0 2370.16  156.98
   4  -2   0  128.49   20.70
  -4  -2   0  133.39   19.30
   4  -2   0  145.89   17.80
   4  -2   0  130.49   17.70
  -4  -2   0  138.39   27.90
   4  -2   0  130.59   19.20
  -4  -2   0  144.99   22.90
  -4  -2   0  181.78   23.70
   4   2   0  129.79   23.00
  -4   2   0  106.89   21.70
  -4   2   0  110.69   17.30
  -4   2   0   95.99   17.60
   4   2   0  114.99   21.00
   4   2   0  103.49   16.40
   4   2   0  122.19   21.30
  -4   2   0  104.09   21.10
   5  -2   0   56.29   11.60
   5  -2   0   73.29   14.40
  -5  -2   0   67.49   13.00
   5  -2   0   90.89   39.20
  -5  -2   0   62.89   11.60
  -5   2   0   19.30   14.70
  -5   2   0   47.10   12.60
   5   2   0   27.50   17.50
   5   2   0   44.20   17.00
   5   2   0   42.50   11.30
  -5   2   0   15.00   29.00
  -5   2   0   56.09   10.90
   5   2   0   49.20   16.70
  -6  -2   0  827.32   57.09
  -6  -2   0  832.72   59.29
   6  -2   0  887.81   70.39
   6  -2   0  899.11   59.89
  -6  -2   0  863.91   64.29
  -6   2   0  877.31   59.79
  -6   2   0  877.81   57.29
  -6   2   0  891.21   62.89
   6   2   0  893.51   63.99
   6   2   0  848.02   57.39
   6   2   0  849.22   62.29
  -7  -2   0   76.79   16.90
   7  -2   0   44.40   21.00
  -7  -2   0   81.09   18.40
   7  -2   0   39.20   15.50
  -7  -2   0   65.59   10.00
  -7   2   0   52.39    8.30
  -7   2   0   52.09   10.10
   7   2   0   48.70   13.90
   7   2   0   38.60   12.90
   7   2   0   23.40   12.90
   0  -3   0    1.40    6.80
   0   3   0    2.20    7.20
   0   3   0   -0.60    5.20
   0   3   0    1.10    9.30
  -1   3   0  141.19   14.80
   1   3   0  127.49   19.20
  -1   3   0  142.59   14.90
  -1   3   0  154.28   22.00
   2  -3   0 3099.99  206.98
  -2  -3   0 3301.67  214.18
  -2   3   0 3695.63  212.18
   2   3   0 3705.53  215.18
  -2   3   0 3384.86  208.28
   3  -3   0  606.84   46.60
  -3  -3   0  649.93   45.60
   3  -3   0  607.54   42.00
   3  -3   0  661.03   44.90
   3  -3   0  606.94   49.60
   3  -3   0  590.94   45.00
   3   3   0  733.23   54.99
   3   3   0  638.24   43.20
  -3   3   0  657.53   47.40
  -3   3   0  698.33   52.89
  -4  -3   0  600.44   45.50
   4  -3   0  607.94   43.60
   4  -3   0  581.64   44.40
   4  -3   0  584.14   39.50
  -4  -3   0  585.34   42.50
   4  -3   0  646.44   50.99
  -4  -3   0  557.04   58.59
  -4  -3   0  593.34   45.30
   4   3   0  663.73   56.59
  -4   3   0  624.44   46.00
  -4   3   0  597.14   41.40
  -4   3   0  606.74   53.79
   4   3   0  604.54   41.80
   4   3   0  588.34   43.40
  -4   3   0  589.94   43.30
   5  -3   0 1448.46   98.29
   5  -3   0 1438.86   97.49
  -5  -3   0 1449.76   99.09
  -5  -3   0 1530.35  102.19
   5  -3   0 1673.13  111.09
  -5  -3   0 1469.55   96.39
   5   3   0 1510.35   97.09
  -5   3   0 1544.75   99.09
   5   3   0 1566.64  100.89
   5   3   0 1627.74  115.29
  -5   3   0 1518.55  100.49
   5   3   0 1618.54  104.39
  -5   3   0 1577.64  101.89
  -5   3   0 1594.94   95.79
  -6  -3   0   29.00   11.80
   6  -3   0   35.70   20.30
  -6  -3   0   40.00   10.20
  -6  -3   0   49.80   16.10
   6   3   0   43.30   15.40
  -6   3   0   43.80    9.50
  -6   3   0   27.40   11.10
  -6   3   0   40.60   18.00
   6   3   0   35.40   11.70
  -6   3   0   40.40   10.30
   6   3   0   34.90    8.90
  -7  -3   0  241.78   18.00
  -7  -3   0  226.08   19.20
  -7  -3   0  258.37   22.90
   7   3   0  220.38   20.60
   7   3   0  206.78   20.80
   7   3   0  165.98   24.40
   0  -4   0 3968.80  230.78
   0  -4   0 3337.57  223.68
   0   4   0 3750.52  229.38
   0   4   0 3816.62  221.08
  -1  -4   0 2748.93  170.18
  -1  -4   0 2525.55  162.38
   1  -4   0 2612.24  162.88
   1   4   0 2725.93  170.18
  -1   4   0 2707.63  166.38
  -2  -4   0 1196.98   76.79
   2  -4   0 1282.77   78.79
   2  -4   0 1240.58   82.39
   2  -4   0 1211.98   79.19
  -2   4   0 1180.98   82.99
   2   4   0 1248.68   87.59
  -2   4   0 1196.98   84.79
  -2   4   0 1109.69   78.89
  -3  -4   0  919.91   62.49
  -3  -4   0  869.61   59.19
   3  -4   0  915.31   57.89
  -3  -4   0  878.51   73.79
   3  -4   0  932.11   61.29
   3  -4   0  909.61   62.19
  -3  -4   0  886.51   59.39
  -3  -4   0  879.01   61.59
   3  -4   0  942.01   67.89
   3   4   0  935.71   73.39
  -3   4   0  921.51   70.99
  -3   4   0  874.71   62.29
   3   4   0  901.31   68.09
  -3   4   0  919.61   58.79
   3   4   0  930.31   59.19
   3   4   0  876.61   62.09
  -3   4   0  841.12   60.89
   4  -4   0   42.20   15.40
  -4  -4   0   37.30   11.50
   4  -4   0   64.99   20.00
   4  -4   0   26.00   10.60
   4  -4   0   31.30    9.30
  -4  -4   0   34.20   13.10
  -4   4   0   17.80    9.40
   4   4   0   31.60   11.20
   4   4   0   16.60   18.40
  -4   4   0   13.20    9.20
   4   4   0    6.30    9.00
  -4   4   0   11.10   10.20
  -4   4   0    1.40   14.50
  -5  -4   0   12.60   14.10
   5  -4   0   30.40   18.50
  -5  -4   0    7.50   11.60
   5  -4   0   23.60   18.40
   5   4   0    7.80   24.10
  -5   4   0   14.50   15.10
   5   4   0   28.80   16.80
  -5   4   0   30.90   18.00
   6  -4   0  679.63   46.70
  -6  -4   0  793.22   48.20
   6  -4   0  847.72   59.79
  -6  -4   0  741.43   50.69
   6   4   0  734.43   51.79
   6   4   0  757.62   54.89
  -6   4   0  600.54   54.39
   6   4   0  673.03   46.50
  -7  -4   0   85.69   11.90
   7   4   0  135.69   15.10
   7   4   0   87.39   15.60
   0  -5   0   -2.50    8.40
   0  -5   0   -5.10    8.20
   0  -5   0    8.60    7.20
   0   5   0    0.20    5.10
   0   5   0    4.90   10.80
   0   5   0   -4.20   13.20
   1  -5   0  572.94   50.79
  -1  -5   0  625.04   44.90
   1  -5   0  634.44   46.70
   1  -5   0  629.34   47.80
  -1  -5   0  598.84   47.90
  -1  -5   0  603.84   55.39
  -1  -5   0  627.84   46.00
  -1  -5   0  636.44   45.70
   1  -5   0  629.04   43.50
  -1   5   0  689.23   51.69
   1   5   0  680.33   48.40
   1   5   0  741.33   58.49
   1   5   0  711.23   45.90
   1   5   0  723.33   56.89
  -1   5   0  667.73   46.50
  -1   5   0  729.03   54.59
  -2  -5   0  722.33   49.99
  -2  -5   0  675.53   64.69
  -2  -5   0  717.43   53.29
  -2  -5   0  728.93   52.49
   2  -5   0  703.13   53.29
  -2  -5   0  742.33   50.49
   2  -5   0  719.63   54.59
  -2   5   0  787.42   58.89
  -2   5   0  698.53   51.29
   2   5   0  809.42   50.49
  -2   5   0  731.83   61.69
   2   5   0  774.62   63.99
   2   5   0  767.82   52.19
   2   5   0  759.22   59.09
   3  -5   0  135.79   23.80
  -3  -5   0  128.09   17.80
   3  -5   0  131.09   22.10
   3  -5   0  120.89   15.70
   3  -5   0  142.79   18.30
  -3  -5   0  143.99   17.60
  -3  -5   0  134.39   20.00
   3   5   0  135.09   16.90
  -3   5   0   72.19   46.10
  -3   5   0  127.89   18.80
   3   5   0  126.89   26.90
   3   5   0  119.99   17.70
  -4  -5   0 1998.00  126.49
   4  -5   0 1877.71  122.79
   4  -5   0 1831.22  121.59
  -4  -5   0 1944.21  122.69
   4  -5   0 1879.61  117.89
  -4  -5   0 1910.11  120.19
   4  -5   0 2010.30  132.09
   4   5   0 2055.09  121.59
   4   5   0 1949.90  123.59
  -4   5   0 1894.01  123.69
   4   5   0 2183.78  145.39
  -5  -5   0  551.64   37.20
   5  -5   0  550.24   38.10
  -5  -5   0  522.05   39.20
   5  -5   0  511.85   44.90
   5   5   0  573.74   43.80
  -5   5   0  481.95   38.10
   5   5   0  482.85   39.60
   5   5   0  454.55   35.10
   5   5   0  464.05   57.19
  -6  -5   0   29.20    7.20
  -6  -5   0   25.60    7.00
   6   5   0    7.80    9.90
   6   5   0   19.10   11.10
   6   5   0   12.50   13.60
  -6   5   0   15.00    9.60
   0  -6   0 2665.83  164.98
   0  -6   0 2619.64  162.08
   0   6   0 2801.22  176.18
   0   6   0 2757.42  176.78
   0   6   0 2634.24  163.78
   0   6   0 2494.85  165.38
  -1  -6   0  222.98   23.50
   1  -6   0  203.98   19.50
  -1  -6   0  184.68   19.70
  -1  -6   0  193.18   19.80
   1  -6   0  220.78   22.60
  -1  -6   0  201.48   23.70
   1  -6   0  202.98   25.80
   1  -6   0  216.58   20.80
   1   6   0  127.39   27.80
   1   6   0  145.49   24.80
   1   6   0  137.29   19.00
  -1   6   0  153.78   19.80
  -1   6   0  149.88   25.20
   1   6   0  132.49   23.00
   2  -6   0  165.38   21.70
  -2  -6   0  160.58   19.80
  -2  -6   0  169.28   25.80
  -2  -6   0  149.09   16.50
   2  -6   0  156.08   18.20
  -2  -6   0  161.08   21.40
   2  -6   0  153.98   18.10
   2  -6   0  148.49   21.70
   2   6   0  146.09   19.50
   2   6   0  141.89   22.20
   2   6   0  111.19   28.50
   3  -6   0  541.75   46.50
  -3  -6   0  571.24   44.00
  -3  -6   0  593.64   47.80
   3  -6   0  622.04   45.20
  -3   6   0  635.94   49.99
   3   6   0  570.24   58.49
   3   6   0  708.53   60.19
  -4  -6   0   10.40    8.40
   4  -6   0    6.20    6.30
  -4  -6   0   -0.30   10.30
  -4  -6   0   -5.80   24.20
   4  -6   0    3.90   14.30
   4   6   0    3.90   29.40
   4   6   0    5.10   11.90
  -4   6   0   10.20    6.70
   4   6   0    0.50    7.00
  -5  -6   0   70.29   14.60
   5  -6   0   76.09    9.90
  -5  -6   0   70.49   11.60
  -5   6   0   54.79   13.00
   5   6   0   65.29   15.70
   0  -7   0    1.40    9.80
   0  -7   0    2.30    5.50
   0  -7   0    1.20   12.00
   0  -7   0    0.60   11.20
   0   7   0    8.00   12.00
   0   7   0    0.30    8.10
  -1  -7   0  653.23   47.00
   1  -7   0  630.94   48.30
   1  -7   0  655.23   43.20
  -1  -7   0  654.03   46.00
   1  -7   0  646.44   46.90
  -1  -7   0  640.04   49.20
  -1  -7   0  619.74   43.40
   1  -7   0  667.33   47.40
   1   7   0  540.75   57.39
  -1   7   0  609.64   45.30
   1   7   0  527.25   43.60
   1   7   0  588.14   44.70
  -1   7   0  610.44   47.00
  -2  -7   0  412.76   31.10
   2  -7   0  403.76   29.60
  -2  -7   0  401.16   31.90
   2  -7   0  332.57   37.40
   2  -7   0  386.06   33.80
   2  -7   0  405.26   33.30
  -2  -7   0  391.06   36.10
   2   7   0  374.06   33.30
   2   7   0  333.17   50.59
  -2   7   0  444.86   33.40
   2   7   0  443.26   31.00
   3  -7   0  107.39   11.70
  -3  -7   0  108.09   14.80
  -3  -7   0  118.49   21.30
   3  -7   0  102.89   15.30
  -3  -7   0   91.89   18.10
   3  -7   0  120.49   16.70
  -3  -7   0  114.09   15.20
   3   7   0  113.29   14.40
   3   7   0  108.39   18.00
  -3   7   0  124.89   14.40
  -4  -7   0 1152.98   77.99
   4  -7   0 1205.38   77.59
  -4  -7   0 1285.57   76.69
  -4   7   0 1268.17   78.19
   0  -8   0  699.53   50.29
   0  -8   0  746.13   48.20
   0  -8   0  669.63   48.20
   0  -8   0  627.44   44.20
   0   8   0  602.34   46.30
   0   8   0  779.92   55.49
   1  -8   0  189.48   16.80
  -1  -8   0  192.88   18.90
   1  -8   0  202.78   18.80
   1  -8   0  190.08   20.90
   1  -8   0  179.58   21.70
  -1  -8   0  170.48   22.60
  -1   8   0  187.98   18.40
  -1   8   0  176.58   19.70
   1   8   0  159.38   18.10
  -2  -8   0  193.18   18.10
   2  -8   0  152.78   18.30
  -2  -8   0  212.38   23.40
  -2  -8   0  204.08   18.10
   2  -8   0  199.58   18.60
  -2  -8   0  181.28   15.70
   2  -8   0  182.08   14.50
  -2   8   0  188.78   16.70
   2   8   0  179.48   16.00
   3  -8   0  225.98   18.00
  -3  -8   0  238.58   23.30
  -3  -8   0  227.98   18.40
  -3   8   0  174.68   16.60
  -7   0   1  677.23   46.50
  -7   0   1  685.13   44.60
   7   0  -1  723.63   47.10
  -7   0   1  606.54   48.60
  -6   0   1 1385.16   86.39
   6   0  -1 1342.47   97.39
  -6   0   1 1369.16   89.29
   6   0  -1 1363.16   88.69
   6   0  -1 1361.16   91.19
  -6   0   1 1335.97   91.79
   5   0  -1 1192.08   80.59
   5   0  -1 1294.67   84.09
   5   0  -1 1291.37   89.09
  -5   0   1 1237.08   85.19
  -5   0   1 1248.58   79.29
  -5   0   1 1203.28   81.39
  -4   0   1 1136.99   86.69
   4   0  -1 1091.99   81.99
  -4   0   1 1116.49   76.49
   4   0  -1 1145.09   75.69
  -4   0   1 1227.48   83.79
  -3   0   1  336.97   29.70
  -3   0   1  316.97   30.00
  -2   0   1 4449.65  275.67
   2   0  -1 4712.83  279.67
  -2   0   1 4580.14  275.47
   0   0   1  558.24   36.20
   0   0   1  599.04   36.70
   0   0  -1  500.55   34.70
   2   0   1 9999.00  594.04
  -3   0  -1   85.29   14.50
   3   0   1   85.49   18.20
  -4   0  -1   98.59   17.50
   4   0   1  104.19   22.10
   4   0   1   87.89   14.60
   4   0   1   90.79   18.10
  -4   0  -1  106.19   24.30
   4   0   1  115.99   21.50
  -4   0  -1   99.59   19.10
   4   0   1  108.49   21.70
   5   0   1  799.92   60.79
  -5   0  -1  785.22   57.39
  -5   0  -1  792.92   74.79
   5   0   1  837.02   61.49
   5   0   1  862.31   64.79
   5   0   1  804.82   55.49
  -5   0  -1  814.52   77.79
  -5   0  -1  968.30   59.09
  -5   0  -1  780.82   59.89
  -6   0  -1  594.24   48.50
   6   0   1  585.44   52.19
   6   0   1  615.24   51.19
  -6   0  -1  600.24   44.40
   6   0   1  587.54   41.90
  -6   0  -1  583.24   41.30
   6   0   1  575.34   47.30
  -7   0  -1  199.58   18.90
  -7   0  -1  215.08   24.80
  -7   0  -1  217.78   18.20
   7   0   1  203.68   23.60
   7   0   1  194.68   21.60
   7  -1  -1  106.09   15.00
   7  -1  -1   96.19   17.80
  -7  -1   1   92.29   18.10
  -7  -1   1  100.59   11.10
  -7  -1   1   72.29   14.50
   7  -1  -1   78.29   17.20
  -7   1   1   75.59   19.70
   7   1  -1   67.19   35.50
  -7   1   1   83.49   12.00
   7   1  -1   79.89   11.30
  -7   1   1   83.89   11.80
  -6  -1   1  223.38   31.70
   6  -1  -1  253.37   30.80
   6  -1  -1  300.47   34.90
  -6  -1   1  294.27   23.50
  -6  -1   1  283.27   30.80
   6   1  -1  268.57   32.00
  -6   1   1  258.87   29.10
  -6   1   1  282.67   24.90
   6   1  -1  288.77   25.00
   6   1  -1  284.07   34.00
  -5  -1   1  170.68   20.50
  -5  -1   1  186.28   42.60
  -5  -1   1  179.38   22.40
  -5  -1   1  178.08   24.50
   5  -1  -1  191.88   25.60
   5  -1  -1  192.08   27.20
   5  -1  -1  179.58   20.20
  -5   1   1  229.78   21.10
  -5   1   1  222.28   20.40
   5   1  -1  211.18   28.30
   5   1  -1  260.37   31.60
   5   1  -1  244.38   28.60
   5   1  -1  215.58   25.60
  -5   1   1  216.28   24.90
   5   1  -1  224.88   20.40
  -5   1   1  240.08   40.20
  -5   1   1  111.89   40.60
   4  -1  -1  210.08   23.90
  -4  -1   1  192.98   25.60
   4  -1  -1  227.28   26.40
  -4  -1   1  257.87   34.50
  -4  -1   1  229.08   22.80
  -4  -1   1  217.98   20.60
   4  -1  -1  211.38   25.30
   4  -1  -1  204.68   18.00
   4  -1  -1  219.58   22.20
  -4   1   1  212.78   20.60
  -4   1   1  210.48   25.40
  -4   1   1  228.18   27.60
  -4   1   1  200.38   21.10
   4   1  -1  224.58   20.60
   4   1  -1  238.88   26.60
   4   1  -1  185.18   26.60
  -4   1   1  215.68   27.50
  -3  -1   1  953.40   72.29
  -3  -1   1  928.61   67.59
  -3   1   1 1112.49   71.09
  -3   1   1 1133.49   72.69
  -3   1   1 1064.49   68.39
   2  -1  -1 7294.97  426.96
   2   1  -1 6873.21  424.66
   2   1  -1 7183.78  427.36
   1  -1  -1  569.94   40.20
  -1  -1   1  600.34   40.60
   1   1  -1  609.74   40.90
  -1   1   1  579.44   40.40
  -1   1   1  602.84   39.90
   0   1  -1 3184.68  192.38
   0   1   1 3145.49  191.08
   0   1   1 3274.77  192.68
   1   1   1 5524.35  329.27
  -2  -1  -1 2188.88  134.39
  -2  -1  -1 2226.38  138.69
   2  -1   1 2263.67  138.39
   2  -1   1 2204.38  138.29
   2   1   1 2023.90  135.59
   2   1   1 2313.47  135.29
   2   1   1 2219.88  139.89
  -2   1  -1 2212.58  136.99
   3  -1   1  911.11   63.59
  -3  -1  -1  887.81   64.79
   3  -1   1  752.02   59.69
  -3  -1  -1  873.21   58.89
  -3   1  -1  822.12   61.89
   3   1   1  903.61   60.29
  -3   1  -1  898.61   62.19
   3   1   1  887.61   65.09
  -4  -1  -1 1511.95  100.69
   4  -1   1 1693.03  110.89
   4  -1   1 1477.85   98.79
   4  -1   1 1579.44  105.99
   4  -1   1 1474.45  101.29
  -4  -1  -1 1540.25  105.29
  -4  -1  -1 1567.74  113.69
  -4   1  -1 1437.26   99.49
   4   1   1 1644.74  104.69
   4   1   1 1663.63  113.69
   4   1   1 1625.24  101.89
   4   1   1 1805.42  107.89
  -4   1  -1 1681.43  109.59
   4   1   1 1650.03  105.09
  -4   1  -1 1414.16   98.29
  -4   1  -1 1603.44  101.89
   5  -1   1 1348.57   88.89
   5  -1   1 1245.58   84.89
   5  -1   1 1209.78   84.49
   5  -1   1 1250.77   80.99
   5  -1   1 1299.77   90.69
  -5  -1  -1 1235.28   81.69
   5   1   1 1280.27   86.09
   5   1   1 1220.98   79.59
   5   1   1 1303.37   89.19
   5   1   1 1228.28   83.89
  -5   1  -1 1287.17   85.09
  -5   1  -1 1226.58   80.79
  -5   1  -1 1134.89  109.29
  -5   1  -1 1189.28   79.69
   6  -1   1 1350.56   97.29
  -6  -1  -1 1195.68   88.19
   6  -1   1 1519.45  105.59
   6  -1   1 1119.99   92.39
   6  -1   1 1370.56  107.59
  -6   1  -1 1269.17   84.59
  -6   1  -1 1478.25   96.49
  -6   1  -1 1205.38   87.89
  -7  -1  -1   87.29   18.30
  -7  -1  -1   79.69   12.50
  -7  -1  -1   91.49   14.90
   7   1   1  111.19   18.40
  -7   1  -1  119.89   19.00
   7   1   1  118.19   20.60
   7   1   1  114.99   20.30
  -7   1  -1  113.99   13.90
  -7   1  -1  120.19   12.70
   7   1   1   94.89   18.00
  -7  -2   1  644.84   49.10
   7  -2  -1  709.43   49.10
  -7  -2   1  733.13   47.80
   7  -2  -1  757.62   57.09
   7   2  -1  793.42   50.89
  -7   2   1  859.61   63.09
  -7   2   1  708.23   48.80
  -7   2   1  692.63   45.60
   6  -2  -1  644.24   55.09
  -6  -2   1  616.14   42.50
  -6  -2   1  633.54   45.10
   6  -2  -1  530.95   48.20
   6  -2  -1  558.74   42.70
   6  -2  -1  700.13   46.40
  -6  -2   1  626.44   49.90
  -6   2   1  610.84   46.60
  -6   2   1  607.64   41.60
   6   2  -1  539.85   46.70
   6   2  -1  609.14   46.90
  -6   2   1  666.13   45.50
   6   2  -1  631.34   44.80
   5  -2  -1  381.56   41.90
   5  -2  -1  364.66   28.50
  -5  -2   1  342.07   27.00
  -5  -2   1  339.87   30.00
  -5   2   1  232.48   51.49
   5   2  -1  285.37   38.80
   5   2  -1  302.57   27.80
  -5   2   1  339.97   33.60
   5   2  -1  279.07   28.50
   5   2  -1  274.57   33.00
  -5   2   1  325.37   27.90
  -5   2   1  310.37   26.20
   5   2  -1  306.17   38.10
  -4  -2   1 2318.37  157.48
  -4  -2   1 2246.18  144.09
   4  -2  -1 2235.58  140.49
  -4  -2   1 2471.65  146.49
   4  -2  -1 2166.28  143.69
   4  -2  -1 2464.85  151.68
  -4  -2   1 2212.78  141.59
   4  -2  -1 2239.58  144.39
   4   2  -1 2341.87  143.69
   4   2  -1 2375.96  146.19
  -4   2   1 2305.27  154.78
  -4   2   1 2412.56  141.69
   4   2  -1 2311.47  148.49
  -4   2   1 2463.65  153.18
  -4   2   1 2285.97  143.69
  -4   2   1 2437.66  145.89
   3  -2  -1 1193.18   81.89
  -3  -2   1 1243.08   78.09
  -3  -2   1 1305.77   86.59
   3  -2  -1 1181.98   77.09
  -3   2   1 1128.99   78.39
  -3   2   1 1195.28   83.09
  -2  -2   1 3215.08  199.08
  -2  -2   1 3722.13  205.78
   2   2  -1 3156.98  200.28
  -2   2   1 3222.68  200.68
  -2   2   1 3207.78  202.08
   1  -2  -1 6103.99  366.56
  -1   2   1 6567.24  367.66
  -1   2   1 6023.30  365.76
   1   2  -1 5852.81  369.16
   0  -2   1  945.41   56.09
   0  -2  -1  829.92   50.59
   0  -2  -1  881.11   52.09
   0   2   1  755.12   52.09
   0   2  -1  798.12   52.59
   0   2   1  704.13   53.89
   0   2  -1  804.62   55.69
  -1  -2  -1 4958.40  289.87
   1   2   1 4672.13  290.67
  -1   2  -1 4883.91  292.87
  -1   2  -1 4799.82  286.07
  -2  -2  -1 3115.49  181.48
   2  -2   1 3073.59  180.28
   2  -2   1 2627.64  177.98
  -2  -2  -1 3053.79  173.28
   2   2   1 2823.62  182.58
  -2   2  -1 2987.00  179.78
   2   2   1 2926.61  183.28
  -2   2  -1 2625.94  176.28
   3  -2   1  744.23   57.19
   3  -2   1  745.43   55.89
  -3  -2  -1  802.92   61.39
  -3  -2  -1  784.72   51.89
  -3   2  -1  788.92   58.29
   3   2   1  778.22   57.39
  -3   2  -1  785.72   53.89
   4  -2   1  659.33   57.39
   4  -2   1  662.73   57.29
  -4  -2  -1  649.34   53.49
   4  -2   1  646.74   55.09
  -4  -2  -1  706.83   64.69
   4  -2   1  647.74   52.79
   4  -2   1  621.04   49.10
  -4  -2  -1  664.53   51.79
   4  -2   1  800.72   65.19
  -4   2  -1  784.22   49.50
  -4   2  -1  728.43   50.59
   4   2   1  768.62   48.30
   4   2   1  775.52   52.49
   4   2   1  808.02   56.19
  -4   2  -1  801.02   61.29
   4   2   1  769.52   58.19
  -4   2  -1  829.52   54.49
  -5  -2  -1  630.14   48.40
   5  -2   1  733.03   57.69
   5  -2   1  770.02   63.49
   5  -2   1  739.33   50.09
  -5  -2  -1  647.44   45.50
   5  -2   1  717.93   45.80
  -5  -2  -1  704.63   61.39
   5  -2   1  679.13   53.39
  -5   2  -1  504.95   45.10
   5   2   1  502.45   56.19
  -5   2  -1  723.23   56.89
   5   2   1  529.75   49.90
  -5   2  -1  536.35   43.00
  -6  -2  -1  715.33   54.19
  -6  -2  -1  677.53   48.00
  -6  -2  -1  679.93   49.80
   6  -2   1  596.94   52.19
   6  -2   1  740.03   58.69
  -6   2  -1  712.93   47.40
   6   2   1  713.73   52.49
   6   2   1  691.03   51.89
   6   2   1  622.74   45.30
   6   2   1  712.73   53.79
  -6   2  -1  668.53   49.40
  -6   2  -1  737.53   53.39
   7  -2   1  231.18   24.40
  -7  -2  -1  235.28   31.70
   7   2   1  262.37   27.50
   7   2   1  316.27   26.70
  -7  -3   1  297.07   21.90
   7  -3  -1  237.68   27.90
  -7  -3   1  276.87   27.00
  -7  -3   1  269.57   20.00
   7   3  -1  282.77   19.70
   7   3  -1  243.08   22.90
   6  -3  -1   60.99   17.00
   6  -3  -1   40.60   10.00
  -6  -3   1   54.19   11.00
  -6  -3   1   45.70   15.60
  -6  -3   1   33.60   12.00
   6  -3  -1   54.49   13.40
  -6   3   1   83.09   15.30
   6   3  -1   87.89   20.10
   5  -3  -1 1060.09   77.49
  -5  -3   1  943.61   69.89
   5  -3  -1  995.50   65.99
  -5  -3   1  978.90   64.49
   5  -3  -1 1021.10   67.99
  -5  -3   1  965.70   67.59
  -5   3   1  889.11   66.79
   5   3  -1 1018.20   66.69
   5   3  -1 1037.40   84.19
   5   3  -1  954.50   67.99
  -5   3   1  989.40   63.09
  -5   3   1 1018.00   66.99
  -4  -3   1   12.70    9.00
   4  -3  -1   12.90   11.80
  -4  -3   1    6.10   10.70
   4  -3  -1    1.60    9.10
  -4  -3   1    2.70   10.50
   4  -3  -1   12.70    7.20
   4  -3  -1   16.30   13.30
   4   3  -1   17.00    9.80
  -4   3   1   17.00    8.80
   4   3  -1   15.90   17.40
  -4   3   1   15.20   12.90
  -4   3   1   10.90    9.30
   4   3  -1    5.90   11.40
  -4   3   1    7.10   18.40
  -4   3   1    0.40   16.40
  -3  -3   1 1126.09   72.59
  -3  -3   1 1061.89   74.29
   3  -3  -1 1014.20   70.99
  -3  -3   1 1108.99   84.59
  -3  -3   1 1071.79   74.99
  -3  -3   1 1041.30   72.49
   3  -3  -1 1096.29   77.99
  -3   3   1 1245.28   75.89
  -3   3   1 1296.27   72.19
   3   3  -1 1197.48   74.19
   3   3  -1 1367.46   87.69
  -2  -3   1 2810.92  173.98
  -2  -3   1 2785.72  183.28
   2  -3  -1 2655.83  174.88
  -2  -3   1 2720.93  175.28
   2  -3  -1 3241.68  181.28
   2   3  -1 2940.41  175.08
  -2   3   1 3027.00  179.98
  -2   3   1 2889.51  179.38
  -2   3   1 2869.21  178.38
   1  -3  -1  585.84   41.10
  -1  -3   1  596.34   45.30
   1  -3  -1  472.95   38.90
  -1  -3   1  524.65   38.30
   1   3  -1  603.94   38.30
  -1   3   1  586.74   42.20
  -1   3   1  591.44   40.70
  -1   3   1  607.04   42.90
   0  -3  -1 1798.72  112.59
   0  -3  -1 1866.71  108.89
   0  -3   1 1912.11  117.19
   0   3  -1 1744.33  113.79
   0   3   1 1752.32  114.39
   0   3  -1 1802.52  111.99
   0   3   1 1794.32  115.69
  -1   3  -1 1298.07   83.99
   1   3   1 1401.76   90.09
   2  -3   1  164.58   20.60
   2  -3   1  174.68   21.30
  -2  -3  -1  172.28   22.40
   2   3   1  177.08   20.70
  -2   3  -1  189.48   21.40
  -2   3  -1  165.28   20.30
   3  -3   1 2105.59  128.49
   3  -3   1 1951.90  126.49
  -3  -3  -1 2148.69  145.69
   3  -3   1 2007.30  133.89
  -3  -3  -1 2048.10  128.49
   3  -3   1 2316.37  135.89
  -3   3  -1 2140.29  131.09
  -3   3  -1 2187.48  137.59
  -3   3  -1 1999.80  129.29
   3   3   1 2151.18  138.19
   3   3   1 2058.19  129.69
  -3   3  -1 1958.50  126.49
   3   3   1 1917.11  125.89
   4  -3   1 1351.86   98.79
   4  -3   1 1378.16   98.89
  -4  -3  -1 1339.77   92.09
  -4  -3  -1 1235.88   89.09
  -4  -3  -1 1372.56   91.39
   4  -3   1 1377.36   89.19
  -4   3  -1 1416.36   90.49
   4   3   1 1585.84  104.39
  -4   3  -1 1521.75   94.49
   4   3   1 1502.95   92.59
   4   3   1 1409.76   87.59
  -4   3  -1 1416.06   93.29
   5  -3   1 1033.60   77.59
   5  -3   1  891.11   63.59
  -5  -3  -1 1067.29   70.79
  -5  -3  -1  981.50   64.89
  -5  -3  -1  971.30   67.99
   5   3   1  850.61   79.59
  -5   3  -1 1002.10   70.29
  -5   3  -1 1036.60   70.39
   5   3   1  998.80   68.39
  -5   3  -1  985.30   64.39
  -5   3  -1 1003.90   66.99
   5   3   1 1048.00   72.89
   5   3   1  936.31   63.19
  -6  -3  -1  400.06   31.10
   6  -3   1  460.45   42.30
  -6  -3  -1  435.76   35.80
  -6   3  -1  473.25   43.90
  -6   3  -1  436.46   30.90
  -6   3  -1  426.36   33.40
   6   3   1  442.46   37.20
   6   3   1  415.16   39.30
   6   3   1  404.16   42.30
  -7  -3  -1  435.86   33.60
  -7  -3  -1  489.45   31.60
  -7   3  -1  536.05   31.40
  -7   3  -1  452.85   34.40
   7   3   1  374.16   36.30
   7   3   1  481.15   35.30
  -7  -4   1  574.34   36.50
  -7  -4   1  467.65   32.60
   7   4  -1  495.55   38.50
   6  -4  -1  388.86   39.00
  -6  -4   1  431.46   29.50
   6  -4  -1  402.06   30.30
  -6  -4   1  411.86   32.50
  -6  -4   1  405.86   36.20
   6   4  -1  382.76   34.80
  -6   4   1  471.95   33.70
   6   4  -1  430.26   29.70
   6   4  -1  342.57   30.10
  -5  -4   1   31.50   13.90
   5  -4  -1   25.60   12.80
  -5  -4   1   18.20   11.40
   5  -4  -1   42.90   23.30
  -5  -4   1   29.90   13.00
   5   4  -1   46.80   16.40
   5   4  -1   45.60   12.00
  -5   4   1   66.69   13.60
  -5   4   1   58.19   14.60
   5   4  -1   35.10   25.70
  -4  -4   1 1362.26   81.79
  -4  -4   1 1357.86   87.49
   4  -4  -1 1397.96   84.99
   4  -4  -1 1355.16   80.49
   4  -4  -1 1310.17   85.19
  -4  -4   1 1416.56   85.29
  -4   4   1 1208.68   83.49
  -4   4   1 1184.88   84.09
   4   4  -1 1197.88  100.29
   4   4  -1 1165.58   82.99
   4   4  -1 1155.18   84.29
   3  -4  -1   24.30   10.50
  -3  -4   1   38.90   11.80
   3  -4  -1   22.00   10.30
   3  -4  -1   21.10    7.90
  -3  -4   1   11.00   18.30
   3  -4  -1   27.90   16.00
  -3  -4   1   15.20   11.20
  -3  -4   1   25.20    7.80
  -3  -4   1   27.90   14.60
   3   4  -1   37.00   18.30
  -3   4   1   35.20   19.90
   3   4  -1   48.20   18.10
  -3   4   1   54.19   21.90
   3   4  -1   42.40   10.40
   2  -4  -1  344.97   30.50
  -2  -4   1  385.16   31.70
  -2  -4   1  397.96   37.60
   2  -4  -1  364.96   33.10
  -2  -4   1  334.57   28.80
   2  -4  -1  353.86   28.40
  -2  -4   1  397.76   31.50
   2  -4  -1  383.26   27.10
  -2  -4   1  365.46   30.10
  -2   4   1  404.56   34.60
  -2   4   1  281.17   31.00
   2   4  -1  337.07   35.80
  -2   4   1  301.87   26.90
  -2   4   1  331.47   31.70
   2   4  -1  313.07   26.80
  -2   4   1  324.97   36.40
  -1  -4   1 1610.64  102.19
   1  -4  -1 1430.16   93.09
   1  -4  -1 1472.85   96.69
  -1  -4   1 1603.94   91.89
  -1  -4   1 1510.85   93.19
   1   4  -1 1283.47   88.39
  -1   4   1 1263.07   90.79
   1   4  -1 1584.14  100.19
   1   4  -1 1439.46   92.09
  -1   4   1 1487.45   98.19
   0  -4  -1  229.08   23.10
   0  -4  -1  242.08   23.50
   0  -4   1  232.68   23.40
   0  -4   1  224.48   20.40
   0  -4   1  263.77   28.10
   0   4  -1  216.58   20.20
   0   4   1  246.58   26.30
   0   4  -1  212.78   23.10
   1  -4   1 2407.36  147.49
   1  -4   1 2279.17  148.29
   1  -4   1 2361.76  145.49
  -1  -4  -1 2416.36  148.29
  -1  -4  -1 2500.05  154.08
   1  -4   1 2269.37  147.69
   1   4   1 2576.14  157.48
  -1   4  -1 2657.63  152.68
  -1   4  -1 2224.18  149.29
  -1   4  -1 2513.85  150.38
   2  -4   1  558.64   40.70
   2  -4   1  545.55   45.20
   2  -4   1  559.04   38.00
   2  -4   1  578.34   46.10
  -2  -4  -1  540.95   41.80
   2  -4   1  528.75   41.20
   2  -4   1  523.25   40.40
  -2  -4  -1  566.24   49.10
  -2   4  -1  581.24   41.00
   2   4   1  606.24   50.39
  -2   4  -1  622.94   47.50
   2   4   1  555.14   41.30
  -2   4  -1  605.44   47.50
   2   4   1  580.14   39.10
   2   4   1  578.34   49.80
   3  -4   1  597.74   48.00
   3  -4   1  578.84   48.20
   3  -4   1  633.74   42.80
   3  -4   1  614.54   39.30
  -3  -4  -1  604.04   44.20
   3  -4   1  581.24   41.70
  -3  -4  -1  600.34   54.49
  -3   4  -1  527.35   42.00
  -3   4  -1  546.05   40.70
   3   4   1  581.04   53.49
   3   4   1  542.75   42.60
   3   4   1  557.24   40.40
  -3   4  -1  599.54   52.79
   3   4   1  612.54   59.39
  -3   4  -1  545.85   44.40
   4  -4   1  283.67   30.90
   4  -4   1  260.17   24.10
  -4  -4  -1  248.18   26.00
  -4  -4  -1  237.58   29.40
   4   4   1  257.17   34.70
   4   4   1  238.38   26.80
  -4   4  -1  235.68   25.00
   4   4   1  216.68   21.80
  -4   4  -1  252.07   23.50
  -4   4  -1  327.67   33.50
  -5  -4  -1  173.98   19.50
  -5  -4  -1  178.38   26.30
   5  -4   1  179.18   28.00
  -5  -4  -1  176.18   23.70
   5  -4   1  157.18   18.50
  -5   4  -1  174.98   19.30
   5   4   1  177.08   23.60
  -5   4  -1  178.18   25.00
  -5   4  -1  159.28   22.70
   5   4   1  188.88   32.70
   5   4   1  153.68   15.90
   5   4   1  148.89   26.30
  -6  -4  -1  135.69   20.70
  -6  -4  -1  163.78   16.90
  -6   4  -1  124.89   23.70
   6   4   1  136.59   24.30
   6   4   1  125.69   21.90
   6   4   1  147.09   22.90
   7  -4   1   65.19    9.30
   7   4   1   71.79   10.30
   7   4   1   75.09   12.70
   6  -5  -1  193.88   18.10
  -6  -5   1  241.28   19.20
  -6  -5   1  227.98   17.50
   6   5  -1  242.38   23.70
   6   5  -1  224.08   17.10
  -6   5   1  212.28   18.70
   5  -5  -1  646.04   53.69
   5  -5  -1  704.63   48.10
  -5  -5   1  702.13   46.30
  -5  -5   1  687.83   48.80
  -5   5   1  667.73   48.50
   5   5  -1  652.93   46.50
   4  -5  -1   70.39   11.90
   4  -5  -1   39.70   11.50
  -4  -5   1   68.69   19.70
  -4  -5   1   64.99   12.10
   4  -5  -1   57.79   16.70
   4  -5  -1   36.00   18.80
  -4  -5   1   61.89   13.00
   4   5  -1   89.59   27.60
   4   5  -1   86.89   16.40
   4   5  -1   56.39   18.20
  -4   5   1   62.39   12.40
   3  -5  -1  493.45   44.50
  -3  -5   1  472.05   36.20
  -3  -5   1  503.25   41.60
  -3  -5   1  515.75   39.40
  -3  -5   1  482.45   37.60
   3  -5  -1  497.55   39.40
   3  -5  -1  500.35   40.60
   3  -5  -1  496.25   35.70
   3   5  -1  452.45   41.00
  -3   5   1  528.85   38.00
  -3   5   1  533.65   44.10
   3   5  -1  480.35   51.49
   3   5  -1  515.65   38.40
  -2  -5   1 3682.03  203.08
  -2  -5   1 3270.77  196.58
   2  -5  -1 2959.10  200.18
  -2  -5   1 3274.67  199.38
  -2  -5   1 2748.12  209.78
   2  -5  -1 3164.38  198.68
  -2   5   1 3285.97  205.48
  -2   5   1 3273.57  196.88
   2   5  -1 3393.46  211.48
   2   5  -1 3495.75  197.98
   2   5  -1 2800.72  196.18
  -2   5   1 3258.97  224.48
  -1  -5   1  686.93   50.79
   1  -5  -1  696.23   51.89
   1  -5  -1  699.63   50.09
  -1  -5   1  687.73   47.10
  -1  -5   1  698.13   49.30
  -1  -5   1  721.33   62.79
   1  -5  -1  650.53   47.20
  -1  -5   1  686.73   49.20
  -1   5   1  815.12   58.39
   1   5  -1  723.13   49.40
  -1   5   1  726.53   48.50
  -1   5   1  673.33   56.29
  -1   5   1  781.82   61.29
   1   5  -1  635.64   52.69
   1   5  -1  732.83   58.69
   0  -5  -1  660.23   44.70
   0  -5   1  639.84   42.90
   0  -5   1  630.84   43.50
   0  -5  -1  628.34   41.80
   0  -5   1  643.14   45.50
   0  -5   1  597.14   40.60
   0  -5  -1  626.74   43.00
   0   5  -1  518.85   47.50
   0   5   1  614.84   51.99
   0   5   1  549.45   50.29
   0   5   1  555.74   57.29
   0   5   1  528.85   41.30
   0   5  -1  514.25   47.60
   1  -5   1 2552.24  154.68
  -1  -5  -1 2330.57  152.38
   1  -5   1 2402.46  151.68
   1  -5   1 2299.07  163.88
   1  -5   1 2335.87  155.58
  -1  -5  -1 2391.06  154.18
  -1  -5  -1 2413.36  163.18
   1  -5   1 2467.35  154.68
  -1  -5  -1 2404.76  155.68
  -1   5  -1 2567.64  159.28
  -1   5  -1 2520.75  154.68
   1   5   1 2734.33  153.38
   1   5   1 2798.52  165.58
   1   5   1 2623.14  156.58
   1   5   1 2781.32  169.28
  -2  -5  -1  151.58   24.90
   2  -5   1  120.89   23.30
  -2  -5  -1  138.69   20.20
  -2  -5  -1  151.78   22.60
  -2  -5  -1  157.08   18.90
   2  -5   1  151.28   18.90
   2  -5   1  147.99   18.40
  -2  -5  -1  148.59   32.10
   2  -5   1  151.68   22.70
   2   5   1  168.68   21.40
  -2   5  -1  129.99   24.30
  -2   5  -1  173.28   30.90
  -2   5  -1  143.99   20.10
   2   5   1  175.68   17.00
   2   5   1  183.38   29.10
  -3  -5  -1  962.40   70.09
   3  -5   1 1179.98   72.99
   3  -5   1 1127.09   67.99
  -3  -5  -1 1066.49   72.79
  -3  -5  -1 1112.29   70.39
   3   5   1 1034.40   87.39
   3   5   1 1147.39   85.59
   3   5   1 1020.10   73.19
   3   5   1 1053.29   69.09
  -3   5  -1 1140.79   75.39
  -3   5  -1 1054.29   72.39
   4  -5   1 1029.10   65.59
  -4  -5  -1  968.40   69.19
  -4  -5  -1  891.21   63.39
   4   5   1 1078.69   87.79
   4   5   1  974.00   67.29
   4   5   1  953.20   63.89
   4   5   1 1036.60   73.29
  -4   5  -1  914.91   66.39
  -4   5  -1  938.71   67.19
  -5  -5  -1  284.87   28.10
   5  -5   1  243.48   21.90
  -5  -5  -1  260.07   24.10
  -5  -5  -1  275.47   24.20
   5   5   1  302.37   31.90
  -5   5  -1  271.47   25.40
   5   5   1  223.48   29.20
   5   5   1  266.67   24.70
  -6  -5  -1  475.45   29.60
  -6  -5  -1  390.76   31.80
   6   5   1  407.96   32.90
  -6   5  -1  453.45   31.90
   6   5   1  403.46   35.20
  -5  -6   1   88.99   14.40
   5  -6  -1   80.59   12.90
  -5  -6   1   89.69   12.10
   5   6  -1  132.79   24.20
  -5   6   1  106.29   14.10
   5   6  -1   95.99   11.90
   4  -6  -1  113.99   16.40
   4  -6  -1   97.39   18.00
  -4  -6   1  179.08   39.10
  -4  -6   1  104.09   15.60
  -4  -6   1   94.89   14.40
   4  -6  -1   94.89   12.60
  -3  -6   1  259.57   26.30
  -3  -6   1  315.47   31.80
   3  -6  -1  314.37   26.90
   3  -6  -1  324.77   31.20
  -3  -6   1  256.57   26.20
  -3  -6   1  307.87   25.60
   3   6  -1  235.88   39.10
  -3   6   1  308.67   25.70
   3   6  -1  249.08   26.30
  -2  -6   1  925.51   61.49
  -2  -6   1  958.00   67.19
   2  -6  -1  962.50   68.09
   2  -6  -1  944.41   65.09
   2  -6  -1  972.80   61.69
  -2  -6   1  975.00   63.99
  -2  -6   1  942.61   64.69
   2   6  -1  906.01   63.49
  -2   6   1  866.01   71.39
   2   6  -1 1023.10   87.09
  -2   6   1  866.01   62.69
  -1  -6   1  117.59   18.90
   1  -6  -1   95.29   14.80
  -1  -6   1   99.99   17.20
  -1  -6   1  109.79   22.30
   1  -6  -1  108.69   19.80
   1  -6  -1   86.39   15.80
  -1  -6   1   91.49   15.30
   1   6  -1   82.29   26.80
  -1   6   1   86.79   16.10
   1   6  -1   77.49   16.10
   1   6  -1   63.59   22.10
  -1   6   1   70.39   18.50
  -1   6   1   60.39   24.70
   0  -6   1  179.28   18.20
   0  -6   1  165.48   22.40
   0  -6  -1  162.48   22.80
   0  -6   1  167.38   19.10
   0  -6  -1  181.68   19.70
   0  -6   1  167.38   18.70
   0  -6  -1  154.28   17.30
   0   6   1  181.78   19.90
   0   6  -1  197.08   20.80
   0   6   1  204.58   30.50
   0   6  -1  150.88   27.90
   0   6   1  197.38   25.80
   0   6  -1  174.38   25.10
   0   6   1  203.98   30.80
  -1  -6  -1  830.42   58.59
  -1  -6  -1  844.02   57.19
   1  -6   1  884.21   59.39
   1  -6   1  848.32   60.79
  -1  -6  -1  863.51   58.79
   1  -6   1  831.92   55.99
   1  -6   1  728.13   69.89
  -1  -6  -1  868.31   62.59
   1  -6   1  892.01   59.99
   1   6   1  857.71   61.29
   1   6   1  895.31   57.59
  -1   6  -1  866.61   59.39
   1   6   1  879.31   73.89
  -2  -6  -1  861.11   61.89
   2  -6   1  832.62   61.59
  -2  -6  -1  824.62   58.79
  -2  -6  -1  815.52   59.49
  -2  -6  -1  837.32   57.39
   2  -6   1  862.41   60.29
   2  -6   1  849.32   55.39
   2  -6   1  828.32   59.59
   2   6   1  886.91   57.09
   2   6   1  959.10   70.09
  -2   6  -1  836.12   58.79
   2   6   1  882.21   61.29
   3  -6   1   61.59    9.90
  -3  -6  -1   56.39   15.80
   3  -6   1   64.49   15.70
  -3  -6  -1   56.19   11.50
  -3  -6  -1   18.90   14.70
  -3  -6  -1   77.09   17.80
   3  -6   1   71.29   16.20
   3   6   1   38.30   25.90
   3   6   1   60.89   11.90
  -3   6  -1   65.69   15.70
   3   6   1   72.69   17.40
  -4  -6  -1   -2.80    9.20
   4  -6   1    2.50    7.50
  -4  -6  -1    9.40   12.60
  -4  -6  -1   11.90   13.10
   4   6   1    2.60   11.50
   4   6   1    7.50   11.70
  -4   6  -1    9.70    9.90
  -5  -6  -1  480.65   30.60
  -5  -6  -1  476.05   35.10
   5  -6   1  357.76   28.00
  -5  -6  -1  362.96   35.00
   5   6   1  396.76   31.00
  -5   6  -1  471.95   31.80
   4  -7  -1   14.80    5.10
   4  -7  -1    7.50   11.80
  -4  -7   1   16.10   10.30
  -4  -7   1    9.60    8.10
  -4  -7   1   23.70    6.00
   4   7  -1   21.70    6.50
  -4   7   1   21.10    7.30
  -3  -7   1  409.16   30.20
  -3  -7   1  425.26   36.80
   3  -7  -1  432.76   33.20
   3  -7  -1  502.65   50.59
   3  -7  -1  436.16   32.90
  -3  -7   1  447.76   34.50
   3  -7  -1  448.86   30.40
  -3   7   1  375.96   32.50
   3   7  -1  434.26   32.10
   2  -7  -1 1832.32  113.19
   2  -7  -1 1684.43  113.09
   2  -7  -1 1873.61  110.09
  -2  -7   1 1775.92  112.99
  -2  -7   1 1749.53  109.69
  -2   7   1 1769.02  111.79
   2   7  -1 1738.43  111.99
  -1  -7   1   49.99   10.40
  -1  -7   1   70.09   12.40
   1  -7  -1   59.89   11.40
   1  -7  -1   67.99   17.60
  -1  -7   1   29.70   13.50
  -1  -7   1   75.79   13.80
   1  -7  -1   55.09   15.30
   1  -7  -1   65.69   16.40
   1   7  -1   -1.80   35.20
   1   7  -1   56.09   12.50
  -1   7   1   81.09   19.30
  -1   7   1   60.69   16.40
  -1   7   1   59.89   13.80
   0  -7   1  297.07   26.40
   0  -7  -1  280.57   25.90
   0  -7   1  278.47   31.60
   0  -7  -1  258.87   28.90
   0  -7  -1  285.47   25.40
   0  -7  -1  286.57   28.60
   0  -7   1  283.47   27.60
   0  -7   1  260.97   22.30
   0   7   1  227.28   41.00
   0   7  -1  291.97   26.60
   0   7   1  299.77   25.70
   0   7   1  293.57   32.40
   0   7   1  286.27   29.90
  -1  -7  -1 1146.69   75.19
   1  -7   1 1149.29   75.59
   1  -7   1 1097.89   76.29
  -1  -7  -1 1169.48   75.39
   1  -7   1 1160.58   70.79
  -1  -7  -1 1173.98   78.09
   1  -7   1 1138.79   74.39
  -1  -7  -1 1107.89   72.09
   1   7   1 1030.00   74.49
   1   7   1 1042.50   83.89
   1   7   1 1099.39   72.19
  -1   7  -1 1044.60   73.79
   2  -7   1   17.60    6.70
  -2  -7  -1   24.30   13.10
  -2  -7  -1   38.90   12.00
  -2  -7  -1   37.40    8.40
  -2  -7  -1   19.10   12.40
   2  -7   1   36.50   11.20
   2   7   1   30.10   14.10
   2   7   1   19.50    7.30
   2   7   1   17.60   32.10
  -2   7  -1   20.20    9.30
  -3  -7  -1  796.52   52.99
   3  -7   1  704.23   47.60
  -3  -7  -1  611.84   51.49
   3  -7   1  622.24   47.80
  -3  -7  -1  722.93   46.00
   3   7   1  680.83   50.49
  -3   7  -1  691.73   48.40
  -4  -7  -1  483.95   35.70
  -4  -7  -1  450.05   38.50
  -4  -7  -1  455.65   30.70
   4  -7   1  398.06   29.50
   4   7   1  342.97   32.80
  -4   7  -1  476.45   31.70
  -3  -8   1   38.70   18.50
   3  -8  -1   43.20    9.10
  -3  -8   1   31.00    6.90
  -3  -8   1   36.10    8.30
  -3   8   1   30.40    6.40
  -2  -8   1  189.68   19.10
   2  -8  -1  201.18   15.90
  -2  -8   1  204.78   18.20
   2  -8  -1  202.38   21.10
   2  -8  -1  204.78   18.00
   2  -8  -1  185.48   18.10
  -2  -8   1  158.68   14.90
  -2  -8   1  215.58   26.20
  -2   8   1  165.28   16.70
   2   8  -1  165.08   16.10
  -1  -8   1  231.38   23.10
  -1  -8   1  298.87   22.50
   1  -8  -1  183.28   22.60
  -1  -8   1  260.87   25.40
   1  -8  -1  271.87   33.40
   1  -8  -1  205.08   20.00
   1  -8  -1  271.37   22.40
   1   8  -1  211.58   21.60
  -1   8   1  231.78   23.30
   0  -8  -1  213.58   22.70
   0  -8  -1  211.08   22.10
   0  -8   1  158.38   27.90
   0  -8  -1  151.28   24.20
   0  -8  -1  214.18   19.10
   0  -8   1  198.28   19.20
   0  -8   1  252.27   19.80
   0  -8   1  225.18   20.70
   0   8  -1  257.97   21.60
   0   8   1  208.98   21.70
  -1  -8  -1  583.04   35.40
  -1  -8  -1  538.05   38.90
   1  -8   1  491.05   32.40
  -1  -8  -1  525.75   37.60
  -1  -8  -1  407.86   39.60
   1  -8   1  440.76   36.60
   1   8   1  474.95   35.90
  -1   8  -1  572.74   36.80
   1   8   1  501.75   33.10
  -2  -8  -1  312.27   25.10
  -2  -8  -1  335.57   23.40
  -2  -8  -1  336.07   25.50
   2  -8   1  300.67   25.40
  -2  -8  -1  333.97   29.80
  -2   8  -1  289.77   25.10
  -3  -8  -1   54.39   15.00
  -3  -8  -1   50.39    9.80
   3  -8   1   61.59    8.00
  -3   8  -1   56.09    8.90
   3   8   1   47.70   11.70
  -7   0   2  194.68   15.50
  -7   0   2  177.88   18.80
   7   0  -2  209.58   18.30
   7   0  -2  189.78   30.20
   6   0  -2  309.17   34.60
  -6   0   2  280.07   22.80
   6   0  -2  292.77   26.40
  -6   0   2  318.27   28.20
  -6   0   2  298.37   29.70
  -5   0   2 2401.56  152.48
   5   0  -2 2407.46  150.78
  -5   0   2 2481.85  174.08
   5   0  -2 2457.65  158.68
  -5   0   2 2337.27  147.39
  -5   0   2 2451.75  150.38
  -4   0   2   48.90   15.30
  -4   0   2   47.50    8.50
  -4   0   2   50.49   13.30
  -4   0   2   35.30   16.00
   4   0  -2   48.10   10.80
   4   0  -2   61.49   18.70
   4   0  -2   45.10   13.00
   4   0  -2   43.20   12.50
  -3   0   2  756.32   53.59
   3   0  -2  790.72   55.19
   3   0  -2  730.43   51.59
  -3   0   2  798.62   55.09
  -2   0   2  277.87   22.50
   1   0  -2 2296.67  135.59
   1   0  -2 1993.20  132.29
  -1   0   2 2230.48  131.29
   0   0  -2 3481.65  205.78
   0   0   2 3362.46  208.78
  -1   0  -2 2810.12  170.28
   1   0   2 2840.72  173.38
   1   0   2 2720.63  170.08
  -2   0  -2 9756.22  553.44
   2   0   2 8717.03  549.74
  -3   0  -2 5064.39  298.07
   3   0   2 5033.90  303.87
   3   0   2 4537.25  295.17
  -4   0  -2  866.71   73.09
   4   0   2  838.82   61.69
   4   0   2  853.31   62.49
   4   0   2  780.82   53.89
   4   0   2  937.01   72.69
   4   0   2  854.11   58.69
  -4   0  -2  815.52   64.39
   4   0   2  813.92   61.09
   5   0   2 1087.09   71.69
  -5   0  -2 1140.49   77.99
  -5   0  -2 1087.99   73.39
   5   0   2 1087.19   82.09
   5   0   2 1204.18   82.19
   5   0   2 1205.08   94.29
  -5   0  -2 1053.39   79.49
   5   0   2 1219.78   83.39
   5   0   2 1114.89   79.09
   6   0   2  153.18   23.10
  -6   0  -2  151.48   19.70
  -6   0  -2  144.29   17.20
   6   0   2  141.09   24.60
  -6   0  -2  155.58   23.80
   6   0   2  149.19   21.30
  -7   0  -2  607.64   50.49
   7   0   2  603.54   53.99
   7   0   2  696.43   47.70
  -7   0  -2  740.43   48.90
   7   0   2  538.15   43.30
   7  -1  -2  145.09   20.50
  -7  -1   2  152.28   15.50
  -7  -1   2  141.09   22.70
   7  -1  -2  137.29   17.00
   7   1  -2  105.99   22.80
   7   1  -2  189.68   17.70
  -7   1   2  181.08   15.70
   6  -1  -2    7.40    7.50
  -6  -1   2    1.20    9.20
  -6  -1   2   10.30    8.50
   6  -1  -2    5.80   15.90
  -6  -1   2   10.00   12.70
  -6   1   2   10.60    9.60
   6   1  -2   17.20   11.50
  -6   1   2   13.60    7.80
   6   1  -2   15.80   17.30
  -6   1   2   16.80   15.20
   5  -1  -2  157.68   32.30
  -5  -1   2  159.38   18.90
   5  -1  -2  181.98   23.00
  -5  -1   2  161.28   19.00
   5  -1  -2  169.58   17.60
  -5   1   2  160.98   25.20
   5   1  -2  165.88   21.30
  -5   1   2  170.78   18.20
   5   1  -2  171.48   20.70
   5   1  -2  190.28   26.70
  -5   1   2  191.38   20.90
  -4  -1   2 1226.38   77.49
   4  -1  -2 1104.69   77.39
  -4  -1   2 1218.18   75.19
   4  -1  -2 1211.08   77.99
  -4  -1   2 1274.27   79.99
  -4  -1   2 1216.68   87.89
   4  -1  -2 1228.68   83.49
  -4   1   2 1235.08   74.89
   4   1  -2 1119.39   79.39
  -4   1   2 1262.17   77.89
   4   1  -2 1000.10   76.29
  -4   1   2 1195.38   79.09
   4   1  -2 1240.58   83.09
  -4   1   2 1194.18   83.39
   4   1  -2 1168.28   77.29
   3  -1  -2 1277.97   87.69
  -3  -1   2 1280.87   89.79
  -3  -1   2 1239.08   85.29
  -3  -1   2 1196.38   83.89
   3  -1  -2 1185.58   83.69
  -3   1   2 1478.25   85.49
   3   1  -2 1510.75   89.09
   3   1  -2 1313.17   84.29
  -3   1   2 1439.06   86.19
  -2  -1   2  460.35   36.00
   2  -1  -2  379.46   33.60
  -2   1   2  474.95   29.40
   2   1  -2  505.45   38.80
  -2   1   2  473.15   30.70
  -1   1   2 8524.85  516.85
   1   1  -2 8976.00  520.85
   0  -1  -2 1861.31  111.49
   0   1   2 1942.91  117.89
   0   1   2 1874.71  115.59
   0   1  -2 1780.02  115.89
   1  -1   2 1822.12  111.49
   1   1   2 1729.83  107.79
   1   1   2 1706.53  109.49
  -1   1  -2 1660.13  108.69
  -1   1  -2 1601.04  107.29
  -2  -1  -2   34.20   12.30
  -2  -1  -2   47.10    9.40
   2  -1   2   50.79   16.90
  -3  -1  -2  175.38   20.20
   3  -1   2  167.28   24.60
   3  -1   2  153.08   19.10
  -3  -1  -2  170.88   25.40
  -3   1  -2  118.99   22.40
   3   1   2  168.08   20.80
   3   1   2  157.98   26.30
  -3   1  -2  138.29   20.50
  -4  -1  -2 1190.18   90.09
   4  -1   2 1158.08   76.49
   4  -1   2 1152.08   79.89
  -4  -1  -2 1137.49   81.29
   4  -1   2 1100.99   71.69
   4  -1   2 1130.39   78.29
   4  -1   2 1223.98   87.69
   4  -1   2 1183.88   80.79
  -4  -1  -2 1202.38   75.39
  -4   1  -2 1252.47   78.59
  -4   1  -2 1067.29   75.09
   4   1   2 1042.70   70.29
   4   1   2  944.81   77.29
   4   1   2 1139.09   78.69
   4   1   2 1089.39   79.79
   4   1   2 1108.39   74.89
  -4   1  -2 1153.08   84.29
   5  -1   2 1004.50  100.79
   5  -1   2 1115.79   83.39
   5  -1   2 1195.18   96.89
  -5  -1  -2 1071.79   78.69
   5  -1   2 1231.18   87.39
   5  -1   2 1149.39   83.49
   5   1   2 1364.26   85.89
   5   1   2 1371.46   84.89
   5   1   2 1334.17   88.99
  -5   1  -2 1271.17   78.49
   5   1   2 1213.28   75.79
  -5   1  -2 1240.18   80.09
  -6  -1  -2   41.10   10.50
   6  -1   2   10.70   18.50
   6  -1   2   50.59   15.60
   6  -1   2   37.70   17.80
   6  -1   2   52.79   13.90
  -6  -1  -2   42.70   15.10
  -6  -1  -2   25.40   11.90
   6   1   2    7.20   17.40
   6   1   2   44.00   23.90
  -6   1  -2   26.70   14.90
   6   1   2   19.10   10.80
   6   1   2   14.90   16.40
  -6   1  -2    9.50    7.20
  -6   1  -2   10.20    8.20
  -7  -1  -2  177.68   15.20
  -7  -1  -2  129.49   15.40
  -7  -1  -2  180.28   32.80
   7  -1   2  176.18   19.50
   7   1   2  146.89   19.90
  -7   1  -2  169.28   23.80
   7   1   2  143.59   17.10
   7   1   2  166.78   18.90
  -7   1  -2  131.99   17.70
  -7  -2   2  476.45   32.90
  -7  -2   2  464.75   39.10
  -7  -2   2  473.15   36.20
   7  -2  -2  536.55   36.60
  -7   2   2  571.44   35.80
   7   2  -2  536.75   35.90
   6  -2  -2  667.23   53.19
  -6  -2   2  615.84   45.40
   6  -2  -2  653.43   45.30
  -6  -2   2  586.64   47.60
  -6  -2   2  582.14   41.60
   6  -2  -2  607.54   43.20
  -6   2   2  619.34   42.80
   6   2  -2  514.45   45.70
  -6   2   2  565.14   38.80
   6   2  -2  611.14   43.30
   5  -2  -2 1011.30   72.79
  -5  -2   2 1000.90   65.39
   5  -2  -2 1000.80   65.49
  -5  -2   2  933.31   61.39
  -5  -2   2 1015.60   67.79
   5  -2  -2  933.01   58.99
   5   2  -2  797.02   62.69
  -5   2   2  924.01   63.39
   5   2  -2  931.61   73.09
  -5   2   2  906.21   59.39
   5   2  -2  847.92   78.79
   5   2  -2  914.61   64.39
  -4  -2   2  281.27   28.80
   4  -2  -2  274.17   29.10
  -4  -2   2  280.27   26.60
  -4  -2   2  295.07   34.70
   4  -2  -2  293.27   29.90
  -4  -2   2  257.97   22.90
   4  -2  -2  272.87   27.40
  -4   2   2  265.87   22.40
  -4   2   2  274.17   25.30
   4   2  -2  242.68   33.50
   4   2  -2  258.37   23.90
   4   2  -2  269.67   30.30
  -4   2   2  292.77   30.20
  -3  -2   2  924.51   62.69
  -3  -2   2 1105.79   73.99
  -3  -2   2 1001.80   61.79
  -3  -2   2 1035.90   64.39
   3  -2  -2 1080.59   68.99
  -3  -2   2 1050.79   66.09
  -3   2   2  971.70   65.19
   3   2  -2  839.22   62.89
  -3   2   2  972.00   66.49
  -3   2   2  913.71   63.29
  -3   2   2  916.71   62.79
   3   2  -2  876.21   64.19
   3   2  -2  948.21   67.19
   2  -2  -2  383.06   31.00
   2  -2  -2  422.56   33.90
  -2  -2   2  396.76   31.60
  -2  -2   2  398.86   36.10
   2   2  -2  436.36   34.60
   1  -2  -2 1630.84  106.09
  -1  -2   2 1808.92  103.29
  -1  -2   2 1736.23  107.09
  -1   2   2 1617.74  107.59
   1   2  -2 1499.85  103.39
   0  -2  -2 1081.39   59.89
   0  -2  -2  908.61   56.19
   0   2   2  778.82   58.99
   0   2   2  886.31   62.99
   1  -2   2 5531.15  328.47
  -1  -2  -2 5174.28  321.67
  -1  -2  -2 5467.25  319.67
  -1   2  -2 5514.75  324.67
   1   2   2 5185.28  325.57
   2  -2   2 1644.34  104.59
  -2  -2  -2 1605.24   95.39
  -2  -2  -2 1670.33  102.59
  -2   2  -2 1374.06   96.59
   2   2   2 1491.35  104.69
   2   2   2 1491.75  101.39
  -2   2  -2 1510.65  101.29
  -3  -2  -2 1590.04  110.79
  -3  -2  -2 1485.95  100.49
   3  -2   2 1697.13  110.79
   3   2   2 1641.34  104.79
   3   2   2 1646.94  113.89
   3   2   2 1663.63  107.59
  -3   2  -2 1498.55  101.49
   3   2   2 1533.65  101.39
   4  -2   2 1247.18   77.19
   4  -2   2 1220.98   79.79
   4  -2   2 1176.28   87.79
   4  -2   2 1212.98   79.09
   4  -2   2 1233.28   82.89
  -4  -2  -2 1070.59   79.09
  -4  -2  -2 1136.59   91.89
   4   2   2 1159.58   78.09
  -4   2  -2 1130.69   77.29
   4   2   2 1187.28   79.29
   4   2   2 1122.29   80.99
  -4   2  -2 1067.69   85.59
   4   2   2  981.80   69.29
  -4   2  -2 1028.90   73.99
   4   2   2 1113.59   82.69
   4   2   2 1132.49   76.19
  -4   2  -2 1050.99   72.39
   5  -2   2  877.21   66.69
   5  -2   2  856.01   76.59
   5  -2   2  926.01   64.59
   5  -2   2  805.12   63.19
  -5  -2  -2  767.32   59.29
   5  -2   2  879.61   69.69
  -5  -2  -2  911.31   63.49
  -5   2  -2  856.51   59.69
   5   2   2  868.71   68.59
   5   2   2  888.21   66.19
  -5   2  -2  866.31   57.69
   5   2   2  896.71   63.69
   5   2   2  913.21   63.69
  -5   2  -2  974.40   65.69
  -6  -2  -2  514.35   42.70
   6  -2   2  375.96   38.10
   6  -2   2  384.76   39.60
  -6  -2  -2  404.36   37.90
  -6  -2  -2  423.16   35.50
  -6   2  -2  507.45   35.20
   6   2   2  572.84   43.40
   6   2   2  481.65   44.50
  -6   2  -2  508.45   40.60
   6   2   2  459.25   40.50
   6   2   2  551.74   43.20
  -6   2  -2  499.35   37.10
   7  -2   2  345.97   28.80
  -7  -2  -2  360.46   24.40
   7  -2   2  320.67   27.00
  -7  -2  -2  381.36   30.90
  -7   2  -2  307.37   23.80
   7   2   2  337.67   30.60
   7   2   2  319.87   27.50
  -7   2  -2  320.57   27.20
   7   2   2  325.17   27.60
  -7  -3   2  209.88   18.90
  -7  -3   2  274.27   20.30
   7   3  -2  264.27   19.30
  -7   3   2  209.78   19.60
   6  -3  -2  245.88   28.50
  -6  -3   2  227.28   20.60
   6  -3  -2  250.57   24.10
   6  -3  -2  224.18   20.00
  -6  -3   2  231.08   26.80
  -6  -3   2  251.27   23.90
   6   3  -2  212.48   22.10
   6   3  -2  184.68   24.80
  -6   3   2  208.28   21.60
   5  -3  -2   72.59   17.60
  -5  -3   2   80.89   14.70
   5  -3  -2   58.59   10.50
  -5  -3   2   58.49   14.20
   5  -3  -2   96.39   19.10
   5   3  -2   81.99   17.50
  -5   3   2   74.09   15.90
   5   3  -2  116.19   30.40
  -4  -3   2  258.97   31.10
   4  -3  -2  305.37   31.70
  -4  -3   2  297.07   25.70
   4  -3  -2  288.27   28.50
   4  -3  -2  315.57   32.50
  -4  -3   2  309.67   30.70
  -4  -3   2  288.77   41.90
  -4  -3   2  314.37   27.10
   4  -3  -2  307.07   25.10
  -4   3   2  389.46   35.20
   4   3  -2  396.56   30.40
  -4   3   2  289.67   29.50
  -4   3   2  385.76   28.80
   3  -3  -2 3149.19  206.58
  -3  -3   2 3424.56  206.08
   3  -3  -2 3210.88  207.88
  -3  -3   2 3403.76  219.58
  -3  -3   2 3275.47  203.08
  -3  -3   2 3396.76  207.48
   3  -3  -2 3516.05  212.28
   3   3  -2 3475.65  210.28
  -3   3   2 3396.86  205.18
   3   3  -2 3373.86  206.08
  -3   3   2 3646.94  213.48
  -2  -3   2  278.57   23.10
  -2  -3   2  285.77   32.20
  -2  -3   2  278.07   26.70
   2  -3  -2  243.18   24.70
   2  -3  -2  251.27   27.10
  -2  -3   2  260.87   22.70
  -2  -3   2  284.17   23.20
  -2   3   2  299.37   33.00
   2   3  -2  274.97   26.50
  -1  -3   2 3048.40  185.08
  -1  -3   2 2761.02  176.78
  -1  -3   2 2828.12  175.98
   1   3  -2 2757.52  177.18
  -1   3   2 3196.78  184.68
   0  -3   2 1617.44  106.49
   0  -3  -2 1627.94  105.79
   0  -3   2 1780.62  114.99
   0  -3  -2 1666.33  106.99
   0   3  -2 1754.42  108.69
   0   3   2 1849.61  115.09
   0   3  -2 1877.01  111.49
   1  -3   2   22.30   15.40
  -1  -3  -2   16.20    7.50
   1  -3   2   22.60    9.50
  -1   3  -2   13.60    9.30
  -1   3  -2    4.40   10.50
   1   3   2   22.80   12.60
  -2  -3  -2 1862.81  118.49
   2  -3   2 1886.51  121.59
   2  -3   2 1776.82  110.59
   2   3   2 1834.82  120.09
  -2   3  -2 1761.12  118.39
  -2   3  -2 1755.22  113.29
   2   3   2 1701.43  113.09
   3  -3   2  225.78   31.60
   3  -3   2  251.97   31.60
   3   3   2  328.47   34.50
   3   3   2  319.07   32.20
   3   3   2  314.77   28.50
  -3   3  -2  302.27   26.60
   3   3   2  321.67   32.50
  -3   3  -2  293.67   34.80
  -3   3  -2  318.47   28.40
   4  -3   2   91.59   17.80
   4  -3   2  107.79   23.00
   4  -3   2  105.79   27.80
   4  -3   2  129.49   22.90
   4  -3   2  104.79   24.70
  -4  -3  -2  103.59   35.40
  -4  -3  -2  130.69   23.50
   4   3   2   57.99   35.00
   4   3   2   98.69   20.80
   4   3   2   87.09   19.30
  -4   3  -2  112.59   18.30
  -4   3  -2   89.49   16.80
   4   3   2  104.19   24.20
   4   3   2   81.29   21.10
  -4   3  -2   87.19   18.60
  -5  -3  -2 1885.41  120.39
   5  -3   2 1670.03  118.59
  -5  -3  -2 1703.13  115.69
  -5   3  -2 1905.51  117.89
   5   3   2 1937.21  126.39
   5   3   2 1916.21  120.39
   5   3   2 2007.10  124.29
  -5   3  -2 1862.31  120.89
  -5   3  -2 1883.81  115.69
  -6  -3  -2   12.60    9.80
  -6  -3  -2    3.20   12.60
  -6   3  -2    5.80   10.50
  -6   3  -2   19.80    8.30
   6   3   2    8.30   12.70
   6   3   2   15.20   17.80
   6   3   2   31.60   21.30
   7   3   2   60.29   12.20
  -7   3  -2   60.29    8.10
   7   3   2   64.79   12.20
   7   3   2   58.09   12.30
  -6  -4   2  438.36   30.00
   6  -4  -2  412.16   30.00
   6  -4  -2  434.96   38.00
  -6  -4   2  417.26   32.20
  -6   4   2  468.25   35.40
   6   4  -2  370.76   30.50
   6   4  -2  370.76   31.60
   5  -4  -2  281.97   33.70
   5  -4  -2  299.97   27.20
  -5  -4   2  293.27   26.30
  -5  -4   2  286.07   22.90
   5  -4  -2  263.47   22.00
   5   4  -2  297.87   41.70
   5   4  -2  330.07   27.70
  -4  -4   2  437.86   35.50
   4  -4  -2  407.26   36.40
  -4  -4   2  430.76   31.90
   4  -4  -2  398.06   33.00
   4  -4  -2  414.96   31.00
  -4  -4   2  419.86   37.30
   4  -4  -2  441.96   39.70
   4  -4  -2  433.76   35.20
   4   4  -2  400.46   33.10
   4   4  -2  373.06   48.30
  -3  -4   2  607.14   44.70
  -3  -4   2  685.03   47.70
  -3  -4   2  632.34   42.80
   3  -4  -2  574.24   52.49
   3  -4  -2  613.44   45.70
   3  -4  -2  626.04   47.30
   3  -4  -2  649.74   51.39
  -3  -4   2  560.64   62.59
  -3  -4   2  647.44   49.30
  -3   4   2  669.03   52.59
   3   4  -2  648.84   59.09
   3   4  -2  633.74   44.90
  -3   4   2  587.84   51.99
   2  -4  -2  232.58   22.00
  -2  -4   2  245.08   31.50
  -2  -4   2  258.47   27.00
  -2  -4   2  230.78   22.20
   2  -4  -2  264.47   27.70
  -2  -4   2  243.68   21.10
   2  -4  -2  239.38   24.30
  -2  -4   2  251.07   23.60
  -1  -4   2   68.89   15.60
  -1  -4   2   61.59   18.30
  -1  -4   2   55.69   12.10
  -1  -4   2   59.89   13.80
  -1  -4   2   66.79   10.70
   1   4  -2   68.59   13.90
   1   4  -2   90.49   17.20
   1   4  -2   78.49   17.40
  -1   4   2   85.69   11.90
  -1   4   2   98.59   25.90
   1   4  -2   90.69   22.10
  -1   4   2   76.19   17.60
  -1   4   2   72.99   19.30
   0  -4   2  436.96   35.60
   0  -4   2  441.06   37.30
   0   4  -2  478.45   39.60
   0   4   2  552.54   44.90
   0   4   2  486.55   34.30
   0   4   2  552.34   43.70
   0   4  -2  463.45   38.80
   0   4  -2  463.55   37.10
   0   4  -2  511.95   38.00
  -1  -4  -2 2292.27  141.09
   1  -4   2 2191.58  134.09
   1  -4   2 2187.98  136.29
   1  -4   2 2363.26  150.18
   1  -4   2 2366.26  137.29
   1  -4   2 2468.55  145.89
   1  -4   2 2231.28  136.99
  -1  -4  -2 2102.59  136.69
   1   4   2 2201.18  145.09
  -1   4  -2 2001.30  137.29
   1   4   2 2098.79  138.79
  -1   4  -2 2249.07  143.49
   1   4   2 2245.98  147.89
  -1   4  -2 2201.08  137.99
  -1   4  -2 2166.98  139.09
   2  -4   2   46.10   11.30
   2  -4   2   43.90   11.10
   2  -4   2   53.29   18.40
   2  -4   2   55.69   14.20
   2  -4   2   50.69   12.80
  -2  -4  -2   57.79   14.50
  -2   4  -2   81.09   17.10
   2   4   2   46.40    9.80
  -2   4  -2  105.19   26.00
   2   4   2   64.59   13.90
   2   4   2   65.99   19.00
   3  -4   2 1132.29   84.79
   3  -4   2 1158.08   81.39
   3  -4   2 1214.28   81.39
  -3  -4  -2 1147.19   82.79
  -3  -4  -2 1182.88   97.89
   3   4   2 1437.06   96.39
  -3   4  -2 1330.37   81.39
   3   4   2 1497.65   99.69
   3   4   2 1176.38   92.29
  -3   4  -2 1394.56   86.79
  -3   4  -2 1252.67   84.99
   3   4   2 1361.46   85.39
   3   4   2 1313.97   88.59
  -4  -4  -2 1123.59   71.79
   4  -4   2  957.40   70.69
   4  -4   2 1109.49   67.69
   4   4   2  998.00   71.19
   4   4   2 1007.00   74.89
  -4   4  -2  984.60   66.79
   4   4   2 1022.10   83.89
  -4   4  -2 1046.80   73.29
  -4   4  -2  979.80   71.79
   4   4   2 1014.70   73.19
  -5  -4  -2  244.88   27.30
  -5  -4  -2  243.38   25.00
  -5   4  -2  273.27   30.20
   5   4   2  247.88   25.50
   5   4   2  236.18   31.00
  -5   4  -2  267.77   21.80
   5   4   2  289.17   29.20
   5   4   2  198.18   49.60
   6  -4   2  314.67   29.00
  -6  -4  -2  297.67   24.80
  -6   4  -2  392.46   32.60
   6   4   2  333.47   31.90
   6   4   2  375.06   41.20
   6   4   2  387.16   34.90
   6  -5  -2  147.39   13.50
   6  -5  -2  145.09   17.80
  -6  -5   2  159.58   12.60
  -6  -5   2  184.98   15.20
  -6   5   2  150.78   15.50
   6   5  -2  153.58   15.50
   6   5  -2  131.99   12.90
  -5  -5   2   22.20    7.60
   5  -5  -2   17.40    6.20
   5  -5  -2   29.90   10.80
   5  -5  -2   20.00   17.40
  -5  -5   2   26.80    8.70
  -5   5   2   21.40    7.00
   5   5  -2   20.70    9.20
  -4  -5   2 1072.09   69.09
   4  -5  -2 1119.79   73.99
   4  -5  -2 1007.90   78.39
  -4  -5   2 1101.09   71.89
   4  -5  -2 1026.20   67.79
  -4  -5   2 1036.00   74.69
   4  -5  -2 1094.29   72.49
  -4  -5   2 1001.90   71.79
  -4   5   2 1106.59   72.19
   4   5  -2 1144.49   71.89
   4   5  -2 1097.89   91.09
  -3  -5   2 1214.08   77.19
   3  -5  -2 1180.58   77.19
  -3  -5   2 1322.77   81.39
   3  -5  -2 1177.08   86.29
   3  -5  -2 1256.07   81.29
  -3  -5   2 1185.18   79.29
  -3  -5   2 1302.97   84.39
   3  -5  -2 1228.48   82.59
   3   5  -2 1130.99   95.29
   3   5  -2 1216.18   79.79
  -3   5   2 1145.29   79.59
  -3   5   2 1194.68   88.99
   2  -5  -2  146.89   21.10
  -2  -5   2  186.78   20.50
   2  -5  -2  153.48   16.20
  -2  -5   2  179.28   17.60
  -2  -5   2  180.38   23.30
  -2  -5   2  181.68   19.50
   2  -5  -2  188.18   23.70
   2   5  -2  164.08   20.90
  -2   5   2  147.89   19.10
  -2   5   2  158.98   28.80
   2   5  -2  146.59   26.80
  -2   5   2  136.89   27.20
  -1  -5   2 3512.95  213.78
  -1  -5   2 3284.47  229.88
   1  -5  -2 3286.67  210.78
   1  -5  -2 3384.16  213.38
   1  -5  -2 3483.45  215.08
  -1  -5   2 3506.65  214.68
   1   5  -2 3544.55  224.48
  -1   5   2 3581.54  225.88
   1   5  -2 3737.43  214.98
  -1   5   2 3682.23  221.58
   0  -5  -2  620.04   47.80
   0  -5   2  736.43   47.60
   0  -5   2  664.53   47.90
   0  -5   2  682.03   44.00
   0  -5   2  709.33   47.40
   0  -5  -2  608.94   44.60
   0  -5  -2  630.74   47.20
   0   5  -2  604.24   50.29
   0   5   2  641.44   57.39
   0   5   2  681.63   45.20
   0   5   2  700.63   56.39
   0   5   2  624.34   55.69
   0   5  -2  665.73   47.50
   0   5  -2  642.84   52.69
   1  -5   2   12.40   10.60
  -1  -5  -2   18.20   10.10
  -1  -5  -2   10.50   14.50
   1  -5   2   26.10   19.40
  -1  -5  -2   17.90   16.20
  -1  -5  -2   31.20   16.10
   1  -5   2   20.30    8.40
   1  -5   2    4.00   10.90
  -1   5  -2   11.70   20.70
  -1   5  -2   15.20    7.70
  -1   5  -2   32.10   16.10
   1   5   2    9.30    7.50
   1   5   2   24.60   25.80
   1   5   2   43.30   31.00
   1   5   2   18.30   17.10
   2  -5   2 1016.60   62.99
  -2  -5  -2  979.40   64.39
   2  -5   2  829.72   72.89
   2  -5   2  985.80   62.49
   2   5   2  943.11   64.19
  -2   5  -2  800.22   61.69
  -2   5  -2  854.01   65.19
   2   5   2  950.70   58.59
   2   5   2  876.01   76.49
   3  -5   2  664.53   48.00
   3  -5   2  614.04   48.40
  -3  -5  -2  598.44   49.30
  -3  -5  -2  614.24   50.59
   3   5   2  757.32   54.89
  -3   5  -2  704.83   51.89
   3   5   2  815.62   67.29
  -3   5  -2  687.23   50.39
   3   5   2  749.33   51.49
   4  -5   2   51.09   13.80
  -4  -5  -2   55.79   17.90
  -4  -5  -2   42.30   10.20
   4  -5   2   61.99   14.40
   4   5   2   31.90   14.40
   4   5   2   34.40   27.30
  -4   5  -2   57.69   14.80
  -4   5  -2   55.99   14.90
   4   5   2   52.19   17.90
  -5  -5  -2  491.45   40.80
  -5   5  -2  497.85   42.60
  -5   5  -2  532.85   44.30
   5   5   2  551.04   43.20
   5   5   2  598.24   53.49
   5   5   2  515.35   39.90
   6  -5   2  109.69   12.30
   6   5   2  123.39   16.50
   6   5   2  138.59   19.20
  -5  -6   2  358.46   28.90
  -5  -6   2  315.07   25.20
  -5  -6   2  300.07   22.60
   5  -6  -2  375.16   25.20
   5   6  -2  308.87   23.90
  -5   6   2  317.37   25.30
   4  -6  -2  141.59   13.30
   4  -6  -2  143.89   19.10
  -4  -6   2  122.29   20.00
  -4  -6   2  145.19   16.00
   4  -6  -2  149.79   16.30
  -4  -6   2  149.79   16.80
  -4   6   2  168.58   16.30
   4   6  -2  159.58   18.70
  -3  -6   2  393.36   34.60
   3  -6  -2  467.35   35.80
  -3  -6   2  428.16   39.40
   3  -6  -2  460.75   38.90
  -3  -6   2  456.05   35.80
   3  -6  -2  444.76   32.20
  -3  -6   2  405.86   30.60
   3   6  -2  419.06   48.10
   3   6  -2  450.25   35.20
  -3   6   2  460.15   34.40
  -3   6   2  345.27   37.10
  -2  -6   2  136.79   22.40
  -2  -6   2  123.69   18.50
  -2  -6   2  135.79   17.30
   2  -6  -2  157.38   18.00
  -2  -6   2  131.69   14.30
   2  -6  -2  140.69   17.50
   2  -6  -2  146.59   21.00
   2   6  -2  104.29   24.20
  -2   6   2  118.09   17.30
  -2   6   2   95.29   19.80
   2   6  -2  115.09   16.50
  -1  -6   2  382.36   37.10
  -1  -6   2  411.56   32.60
   1  -6  -2  409.96   35.90
  -1  -6   2  389.06   31.80
  -1  -6   2  357.46   28.50
   1  -6  -2  393.46   31.20
   1  -6  -2  370.36   34.10
  -1   6   2  437.96   32.30
   1   6  -2  397.16   42.20
   1   6  -2  412.76   34.40
  -1   6   2  410.46   41.40
  -1   6   2  395.86   48.30
   0  -6  -2 1070.99   71.89
   0  -6   2 1021.90   71.29
   0  -6  -2 1058.09   73.49
   0  -6  -2 1015.70   68.59
   0  -6   2 1051.89   66.99
   0  -6   2 1041.70   73.09
   0  -6   2 1101.49   71.49
   0   6   2 1083.89   68.89
   0   6   2 1069.19   75.69
   0   6   2  916.01   83.59
   0   6  -2 1166.18   72.09
   0   6   2 1018.20   80.59
  -1  -6  -2  142.59   19.10
   1  -6   2  140.39   17.10
   1  -6   2  135.59   33.60
   1  -6   2  109.69   25.60
   1  -6   2  143.09   17.40
  -1  -6  -2  134.79   21.30
  -1  -6  -2  135.09   19.80
   1  -6   2  134.79   15.20
   1   6   2   76.89   26.60
  -1   6  -2  115.99   18.80
   1   6   2  137.09   19.30
   1   6   2  143.59   17.40
  -2  -6  -2  160.38   20.10
  -2  -6  -2  147.79   20.30
  -2  -6  -2  160.58   21.80
   2  -6   2  163.68   20.20
  -2  -6  -2  159.98   24.70
   2  -6   2  160.58   20.10
  -2   6  -2  162.08   20.80
   2   6   2  149.19   23.90
   2   6   2  137.29   33.40
   2   6   2  134.79   21.30
   3  -6   2  920.11   62.89
   3  -6   2  963.10   63.79
  -3  -6  -2  941.51   67.49
  -3  -6  -2  824.22   60.79
   3   6   2 1074.89   74.29
   3   6   2  936.91   67.19
  -3   6  -2  988.50   65.29
   3   6   2  925.81   82.39
   3   6   2  986.30   67.29
  -4  -6  -2  616.14   44.70
   4  -6   2  528.75   39.20
  -4  -6  -2  644.74   45.40
   4   6   2  581.74   45.50
   4   6   2  587.24   44.00
  -4   6  -2  555.54   41.60
  -5  -6  -2    7.10    7.00
  -5  -6  -2    4.90    4.90
  -5   6  -2   -3.30   10.20
   5   6   2   -1.20   10.90
   5   6   2    8.50    7.20
  -4  -7   2  714.83   39.60
  -4  -7   2  530.15   40.90
   4  -7  -2  554.74   40.80
   4  -7  -2  706.13   39.00
   4  -7  -2  517.25   40.70
  -4   7   2  673.93   41.50
   4   7  -2  600.44   41.00
   3  -7  -2  699.63   47.60
  -3  -7   2  614.94   44.10
   3  -7  -2  679.93   47.70
   3  -7  -2  801.32   52.99
  -3  -7   2  686.23   47.60
   3  -7  -2  688.93   44.80
  -3   7   2  672.83   46.70
   3   7  -2  691.83   48.00
  -2  -7   2   30.00    6.90
   2  -7  -2   32.10    7.10
   2  -7  -2   46.80   11.50
  -2  -7   2   41.80   11.30
  -2  -7   2   37.00   14.60
  -2  -7   2   37.00   12.60
   2  -7  -2   40.90   13.40
  -2   7   2   64.29   12.20
  -2   7   2   36.50   15.70
   2   7  -2   60.19   11.80
   1  -7  -2 2248.18  132.99
  -1  -7   2 2102.19  128.99
  -1  -7   2 2057.69  125.09
   1  -7  -2 2150.08  129.79
  -1  -7   2 1935.51  140.39
   1  -7  -2 1999.30  126.29
  -1  -7   2 2030.20  129.99
  -1   7   2 1879.51  136.69
   1   7  -2 2120.69  129.69
  -1   7   2 2004.90  131.89
   0  -7  -2  519.05   39.20
   0  -7   2  524.25   40.00
   0  -7  -2  540.95   39.80
   0  -7   2  346.37   63.19
   0  -7  -2  521.05   36.10
   0  -7   2  534.95   39.30
   0  -7  -2  544.55   42.40
   0   7  -2  471.95   37.90
   0   7   2  451.75   40.00
   0   7   2  496.15   35.60
   0   7   2  493.25   48.20
  -1  -7  -2   68.09   20.50
  -1  -7  -2   33.30   16.80
   1  -7   2   46.90   12.60
  -1  -7  -2   43.80   11.00
   1  -7   2   50.19   11.10
   1  -7   2   32.40    6.60
  -1  -7  -2   40.20   14.30
   1   7   2   20.90   30.00
  -1   7  -2   24.80    9.80
   1   7   2   22.90    6.90
   1   7   2   26.70   10.80
  -2  -7  -2  529.75   42.10
  -2  -7  -2  493.15   37.20
   2  -7   2  547.45   39.10
   2  -7   2  509.65   37.60
  -2  -7  -2  492.95   37.90
   2   7   2  540.85   41.50
  -2   7  -2  501.05   37.90
   3  -7   2  288.47   23.10
  -3  -7  -2  213.88   28.80
  -3  -7  -2  297.77   21.60
   3   7   2  284.17   24.30
  -3   7  -2  294.77   25.10
   3   7   2  247.38   26.50
  -4  -7  -2  111.19   11.10
  -4  -7  -2  117.19   17.90
   4   7   2   78.49   18.90
  -4   7  -2  150.78   23.10
   4   7   2   68.49   14.60
   2  -8  -2    1.90   10.30
   2  -8  -2   23.00    6.60
   2  -8  -2   18.80    4.60
  -2  -8   2   19.80    7.80
   2  -8  -2   21.00    7.50
  -2  -8   2   18.50    8.60
  -2  -8   2   10.20    5.50
  -2   8   2   19.00    7.10
  -2   8   2   10.10    4.60
   2   8  -2   10.70    7.00
  -1  -8   2   53.79   10.30
   1  -8  -2   61.79   11.40
   1  -8  -2   57.19    9.00
  -1  -8   2   42.80    8.60
   1  -8  -2   68.59   10.60
  -1  -8   2   34.40   12.20
  -1   8   2   69.29    8.20
  -1   8   2   69.79   11.90
   1   8  -2   87.59   11.10
   0  -8  -2  230.78   17.80
   0  -8   2  238.08   19.30
   0  -8  -2  224.78   22.70
   0  -8  -2  232.68   22.70
   0  -8  -2  193.18   19.00
   0   8  -2  196.48   19.90
   0   8   2  177.68   21.30
  -1  -8  -2  452.25   36.60
   1  -8   2  523.35   35.80
  -1  -8  -2  506.25   34.50
  -1  -8  -2  503.95   38.70
   1  -8   2  493.55   37.20
  -1   8  -2  557.44   37.40
   1   8   2  547.55   38.50
  -2  -8  -2   15.50   10.40
  -2  -8  -2   13.60    5.10
   2  -8   2   12.90    6.10
   2  -8   2   31.20    8.70
  -2  -8  -2   10.40   10.30
   2   8   2    7.20    7.40
  -2   8  -2    7.80    5.10
  -7   0   3  170.28   15.50
   7   0  -3  190.18   16.70
   6   0  -3  983.80   79.19
  -6   0   3 1034.40   67.19
   6   0  -3 1224.58   73.69
  -6   0   3 1161.68   72.79
   5   0  -3   54.89   12.30
  -5   0   3   61.39   12.70
   5   0  -3   60.59   23.40
  -5   0   3   52.59   12.60
   4   0  -3   16.50   12.40
  -4   0   3   21.60   11.10
  -4   0   3   11.70   14.90
  -4   0   3   13.30    7.50
   4   0  -3   24.10   18.00
   4   0  -3   -0.90   13.10
  -4   0   3  -10.40   17.60
  -3   0   3 6616.54  395.56
   3   0  -3 6243.28  393.26
  -3   0   3 6884.61  392.76
   2   0  -3   37.00   13.20
  -2   0   3   34.50    8.20
   1   0  -3  782.32   51.79
  -1   0   3  812.22   58.19
   0   0  -3 5307.67  323.97
   0   0   3 5531.45  330.27
  -1   0  -3  965.50   65.59
   1   0   3  946.71   69.59
   2   0   3 5412.56  327.37
   2   0   3 5097.99  319.17
  -2   0  -3 5290.97  320.67
   3   0   3 1947.81  126.49
  -3   0  -3 2080.99  129.29
   3   0   3 1672.63  122.79
   3   0   3 2185.18  138.99
   3   0   3 1895.31  122.49
   3   0   3 1931.41  124.39
   3   0   3 1975.20  124.59
   4   0   3  335.67   44.10
  -4   0  -3  324.67   38.40
   4   0   3  301.77   35.20
   4   0   3  313.97   33.00
   4   0   3  304.47   31.50
   4   0   3  327.97   31.10
  -4   0  -3  298.97   32.00
   4   0   3  347.47   35.50
   5   0   3 1054.99   77.29
   5   0   3 1049.70   75.09
   5   0   3 1080.69   75.09
  -5   0  -3  942.71   66.69
   5   0   3 1130.09   75.39
  -5   0  -3 1057.99   72.99
   5   0   3  909.51   75.39
   6   0   3  297.17   32.10
  -6   0  -3  303.67   27.10
  -6   0  -3  308.37   30.30
   6   0   3  301.27   35.60
   6   0   3  329.17   34.90
   6   0   3  305.77   30.30
   7   0   3   54.39   11.30
   7   0   3   59.39   11.80
  -7   0  -3   53.69   14.60
   7   0   3   71.49   16.10
  -7   0  -3   80.89    9.60
   7   0   3   47.80   11.70
   7  -1  -3  163.28   17.90
   7  -1  -3  148.19   21.20
   7   1  -3  124.09   26.20
  -7   1   3  160.18   15.10
   6  -1  -3   70.49   13.40
  -6  -1   3   75.19   15.60
  -6  -1   3   67.19   10.70
   6  -1  -3   53.89   18.20
  -6   1   3   56.49   13.60
   6   1  -3   47.30   32.00
   6   1  -3   55.39   13.40
   5  -1  -3  621.84   50.99
  -5  -1   3  539.75   39.00
   5  -1  -3  533.45   44.10
  -5  -1   3  522.45   45.50
  -5  -1   3  540.15   43.00
   5  -1  -3  522.65   43.60
  -5   1   3  515.45   37.50
   5   1  -3  637.34   43.20
  -5   1   3  660.43   42.90
   5   1  -3  627.34   51.19
  -4  -1   3   34.10   15.60
   4  -1  -3   55.09   14.60
   4  -1  -3   45.50   13.70
   4  -1  -3   58.69   13.30
  -4  -1   3   30.40   18.50
  -4  -1   3   47.00    9.50
  -4   1   3   20.20   10.80
   4   1  -3   31.20   12.60
  -4   1   3   41.40   10.90
   4   1  -3   30.50   13.30
   4   1  -3   14.00   17.80
  -3  -1   3  199.28   19.10
  -3  -1   3  192.78   24.80
  -3  -1   3  191.78   24.50
   3  -1  -3  205.18   22.50
  -3  -1   3  208.38   21.70
   3  -1  -3  212.48   24.90
  -3  -1   3  206.38   24.70
   3   1  -3  189.48   21.00
  -3   1   3  208.38   21.60
  -3   1   3  192.78   22.20
   3   1  -3  191.68   26.10
  -2  -1   3 2481.55  146.09
  -2  -1   3 2593.74  150.48
   2  -1  -3 2308.17  146.09
   2   1  -3 2292.47  146.59
  -2   1   3 2273.57  145.29
  -1  -1   3 1872.71  128.79
   1   1  -3 2148.89  130.79
   1   1  -3 2138.19  128.49
   0  -1   3 1354.16   92.09
   0   1   3 1311.37   89.59
   0   1   3 1293.87   86.89
   0   1  -3 1285.27   86.69
   1  -1   3 2846.92  170.08
   1   1   3 2475.05  164.08
   1   1   3 2439.46  165.48
  -1   1  -3 2666.43  164.48
   2  -1   3  605.84   55.99
  -2  -1  -3  602.64   50.89
  -2  -1  -3  575.74   48.50
   2   1   3  757.72   57.59
  -2   1  -3  753.92   53.29
   2   1   3  767.52   52.79
   3  -1   3  243.68   33.30
   3  -1   3  276.17   31.30
  -3  -1  -3  239.28   26.50
   3  -1   3  267.97   35.00
   3  -1   3  226.88   28.70
   3   1   3  245.08   26.10
  -3   1  -3  268.97   28.30
   3   1   3  289.77   36.90
  -3   1  -3  233.68   26.40
   3   1   3  241.98   27.00
   3   1   3  236.28   26.80
   3   1   3  247.78   27.20
   3   1   3  246.68   29.00
   3   1   3  229.08   28.50
   4  -1   3  984.20   80.89
  -4  -1  -3  807.42   71.19
   4  -1   3  982.70   71.09
   4   1   3  947.91   70.59
  -4   1  -3 1102.99   86.49
  -4   1  -3  813.32   62.99
  -4   1  -3  943.71   64.99
  -4   1  -3  901.61   65.09
   4   1   3  974.20   83.99
   4   1   3  971.80   73.69
   4   1   3  949.71   70.59
   5  -1   3   48.70   34.50
   5  -1   3   61.59   16.90
   5  -1   3   63.59   21.00
   5  -1   3   55.09   20.70
   5  -1   3   54.59   19.70
  -5  -1  -3   49.99   18.80
   5   1   3    9.00   26.10
  -5   1  -3   43.40   14.30
   5   1   3   65.29   17.60
   5   1   3   43.50   17.70
  -5   1  -3   52.39   10.40
  -5   1  -3   44.30   15.80
   5   1   3   81.49   21.20
   5   1   3   53.89   20.60
  -6  -1  -3  269.47   26.60
   6  -1   3  304.07   30.40
   6  -1   3  282.27   26.80
   6  -1   3  290.17   28.40
  -6  -1  -3  297.77   30.30
   6  -1   3  279.37   29.60
  -6   1  -3  268.27   27.40
  -6   1  -3  247.68   24.70
   6   1   3  251.77   27.30
   6   1   3  281.07   28.10
  -6   1  -3  322.57   34.70
   6   1   3  261.07   29.30
   7  -1   3 1116.79   73.49
  -7  -1  -3  954.00   68.09
  -7  -1  -3  920.91   63.99
   7   1   3 1082.99   72.19
  -7   1  -3 1107.29   72.49
  -7   1  -3 1045.90   64.79
   7  -2  -3  114.89   17.40
   7  -2  -3  109.49   10.70
  -7  -2   3  146.69   12.60
   7   2  -3  123.69   12.20
  -7   2   3  114.99   10.70
   6  -2  -3  683.33   48.40
  -6  -2   3  650.63   43.10
   6  -2  -3  661.33   54.29
  -6  -2   3  660.83   47.70
  -6   2   3  648.74   45.80
   6   2  -3  697.83   48.30
  -5  -2   3  293.57   23.80
   5  -2  -3  307.77   28.20
   5  -2  -3  304.27   30.60
  -5  -2   3  297.17   31.30
   5  -2  -3  332.47   36.60
  -5  -2   3  331.17   29.20
   5  -2  -3  326.37   24.40
  -5   2   3  318.87   25.80
   5   2  -3  292.47   34.60
   5   2  -3  358.16   28.70
   4  -2  -3  302.87   31.60
  -4  -2   3  319.17   25.10
   4  -2  -3  276.47   31.20
  -4  -2   3  309.17   32.40
   4  -2  -3  287.27   29.40
  -4  -2   3  316.87   28.10
   4   2  -3  305.97   27.00
  -4   2   3  327.37   26.60
   4   2  -3  302.17   32.80
   4   2  -3  285.77   30.10
  -4   2   3  238.28   40.40
  -3  -2   3 1653.33  108.19
  -3  -2   3 1747.53  108.09
   3  -2  -3 1855.21  114.99
  -3  -2   3 1709.93  105.29
  -3  -2   3 1721.43  118.19
   3  -2  -3 1775.52  109.49
   3   2  -3 1540.15  108.49
  -3   2   3 1897.91  116.49
   3   2  -3 1602.34  109.29
  -3   2   3 1813.42  112.99
  -3   2   3 1672.53  107.09
  -2  -2   3  490.75   34.90
  -2  -2   3  495.75   36.10
   2  -2  -3  520.65   40.00
   2  -2  -3  481.95   35.90
  -2  -2   3  466.55   37.30
  -2  -2   3  503.25   42.10
  -2  -2   3  470.55   43.10
   2   2  -3  427.66   35.90
  -2   2   3  538.05   41.90
  -2   2   3  445.86   39.20
   1  -2  -3   67.79   14.50
  -1  -2   3   55.89   14.70
  -1  -2   3   72.69   13.70
   1   2  -3   92.69   14.20
  -1   2   3   91.19   18.70
   0  -2   3 2594.54  149.69
   0   2   3 2398.66  153.18
   0   2  -3 2227.38  149.99
   0   2   3 2618.54  158.78
  -1  -2  -3  265.97   22.70
  -1  -2  -3  250.67   21.10
   1  -2   3  244.88   21.60
   1  -2   3  261.27   29.80
   1   2   3  277.67   28.50
  -1   2  -3  250.57   26.10
  -1   2  -3  196.88   22.80
   1   2   3  251.47   27.90
   2  -2   3 1744.73  114.09
  -2  -2  -3 1892.71  119.39
   2  -2   3 1966.10  126.79
   2  -2   3 1732.33  116.89
  -2  -2  -3 1789.02  114.89
  -2   2  -3 1897.31  121.79
   2   2   3 1818.72  125.19
   2   2   3 1885.21  121.79
  -2   2  -3 1689.53  113.39
   2   2   3 1766.82  114.49
  -3  -2  -3 3178.48  211.38
   3  -2   3 3120.29  201.38
   3  -2   3 3310.07  205.58
   3  -2   3 3385.26  203.28
   3  -2   3 3325.27  214.78
  -3   2  -3 3277.27  210.88
   3   2   3 3099.19  203.98
   3   2   3 3324.37  202.68
   3   2   3 3177.98  208.78
   3   2   3 3236.08  202.68
   3   2   3 3441.96  207.08
  -3   2  -3 3177.78  200.48
   3   2   3 3209.78  200.78
   3   2   3 3354.16  217.88
   3   2   3 3488.55  208.98
   4  -2   3  279.17   31.20
  -4  -2  -3  146.89   44.80
   4  -2   3  274.97   31.60
   4  -2   3  282.37   36.20
   4  -2   3  232.08   30.60
   4   2   3  257.47   28.80
   4   2   3  272.97   28.20
   4   2   3  253.87   25.60
  -4   2  -3  264.87   29.20
   4   2   3  250.77   30.80
   4   2   3  200.58   31.90
   4   2   3  302.97   41.00
   5  -2   3  278.57   33.50
   5  -2   3  269.07   47.20
   5  -2   3  302.67   32.10
   5  -2   3  311.77   31.60
   5  -2   3  314.17   32.10
   5   2   3  320.37   29.90
   5   2   3  318.77   31.20
   5   2   3  304.77   34.40
   5   2   3  284.37   31.50
  -5   2  -3  281.17   26.20
  -5   2  -3  282.47   30.20
   6  -2   3  772.72   54.29
  -6  -2  -3  710.83   52.69
   6  -2   3  586.24   53.59
   6  -2   3  648.34   50.69
  -6   2  -3  752.92   47.40
  -6   2  -3  746.73   53.29
   6   2   3  766.82   56.49
   6   2   3  688.83   54.19
  -7  -2  -3   52.09   10.20
   7  -2   3   27.30    8.90
  -7  -2  -3   37.70   10.80
   7  -2   3   34.00   15.10
   7   2   3   43.20    9.60
  -7   2  -3   29.10   10.70
   7   2   3   30.60    9.20
   7   2   3   17.50    9.10
   6  -3  -3   49.20    9.50
  -6  -3   3   28.10    9.60
   6  -3  -3   19.10   15.10
   6  -3  -3   28.20   10.90
   6   3  -3   35.40    8.90
   5  -3  -3 1069.29   75.69
   5  -3  -3 1153.88   76.69
  -5  -3   3 1165.88   75.39
   5  -3  -3 1154.88   71.29
   5  -3  -3 1155.58   83.29
  -5  -3   3 1036.00   71.09
  -5  -3   3 1076.59   76.69
   5   3  -3 1143.79   97.19
   5   3  -3 1176.28   75.59
  -5   3   3 1213.18   73.79
  -4  -3   3   10.70    8.60
   4  -3  -3    4.70   12.00
  -4  -3   3    9.50    8.00
   4  -3  -3   18.50   19.00
   4  -3  -3    8.80   14.00
   4   3  -3   23.10   12.40
   4   3  -3   19.90   22.00
  -4   3   3   14.80   10.70
  -4   3   3   16.50   14.90
  -3  -3   3   61.39   22.20
  -3  -3   3   88.89   13.40
   3  -3  -3   83.09   19.60
   3  -3  -3   88.19   15.70
  -3  -3   3   86.69   15.60
  -3  -3   3   69.39   16.30
  -3  -3   3   81.69   13.90
  -3   3   3   75.79   14.60
   3   3  -3   44.40   15.70
  -3   3   3   83.49   20.30
   3   3  -3   79.29   15.30
  -3   3   3   71.89   19.90
  -3   3   3   67.49   17.50
  -2  -3   3 2013.20  129.69
   2  -3  -3 1916.81  129.49
  -2  -3   3 2022.50  126.09
  -2  -3   3 2068.59  128.99
   2  -3  -3 2136.69  149.49
  -2  -3   3 2065.89  140.69
  -2  -3   3 2086.09  136.29
  -2  -3   3 2121.79  129.59
  -2   3   3 2125.79  132.89
   2   3  -3 2085.69  130.49
  -2   3   3 2339.07  137.69
   2   3  -3 2038.80  130.29
   1  -3  -3 1913.01  127.99
  -1  -3   3 1791.82  125.49
   1  -3  -3 1782.42  125.09
  -1  -3   3 1917.21  124.79
  -1  -3   3 2173.68  136.59
  -1   3   3 2359.66  138.99
  -1   3   3 2349.17  135.79
   0  -3   3  961.10   73.19
   0  -3   3 1021.20   70.59
   0   3   3 1195.78   81.49
   0   3   3 1161.38   78.49
   0   3  -3 1082.89   72.49
   0   3   3 1154.18   81.09
   0   3  -3 1163.98   78.49
   1  -3   3  458.35   40.60
  -1  -3  -3  393.16   36.70
  -1  -3  -3  433.06   33.00
   1  -3   3  465.75   32.60
   1  -3   3  495.65   46.50
  -1  -3  -3  426.56   31.80
   1   3   3  408.26   36.40
   1   3   3  436.06   40.90
   1   3   3  475.05   41.20
  -1   3  -3  494.65   40.20
   1   3   3  464.65   42.30
  -2  -3  -3  785.72   61.29
   2  -3   3  797.52   68.29
   2  -3   3  760.92   55.49
   2  -3   3  747.83   59.29
   2  -3   3  787.02   63.59
   2  -3   3  768.22   60.99
   2   3   3  883.51   62.89
   2   3   3  844.12   60.39
   2   3   3  873.01   66.89
  -2   3  -3  878.91   66.49
   2   3   3  895.71   69.69
  -2   3  -3  848.62   55.79
   2   3   3  859.11   57.89
   2   3   3  941.11   67.19
  -2   3  -3  855.91   58.69
   2   3   3  812.62   61.59
   3  -3   3  138.29   24.30
  -3  -3  -3  148.29   32.30
   3  -3   3  149.69   28.30
   3  -3   3  139.39   20.70
   3  -3   3  172.68   27.40
   3   3   3  118.79   20.80
   3   3   3  102.29   21.90
  -3   3  -3  110.39   22.00
   3   3   3  104.19   24.50
   3   3   3  123.99   24.80
  -3   3  -3   97.99   14.80
   3   3   3  115.59   19.20
   3   3   3  109.79   26.80
   4  -3   3  468.25   44.10
   4  -3   3  457.45   39.40
   4  -3   3  374.56   49.50
  -4  -3  -3  456.25   50.69
   4  -3   3  462.75   39.60
   4   3   3  438.86   41.00
   4   3   3  488.35   40.70
   4   3   3  519.25   44.30
  -4   3  -3  495.85   36.20
   4   3   3  463.25   49.30
   4   3   3  542.45   44.30
  -4   3  -3  517.05   40.90
  -5  -3  -3  151.88   22.20
   5  -3   3  112.79   60.89
   5  -3   3  129.69   22.40
   5  -3   3  143.99   19.70
   5  -3   3  150.18   21.30
  -5   3  -3  155.38   19.20
   5   3   3  148.59   25.20
   5   3   3  140.29   24.10
  -5   3  -3  143.79   21.60
   5   3   3  149.69   19.90
   6  -3   3  150.48   22.40
  -6  -3  -3  178.98   21.70
  -6  -3  -3  128.89   18.90
   6  -3   3  139.89   19.40
   6   3   3  101.59   21.20
  -6   3  -3  137.29   14.20
  -6   3  -3  148.39   20.00
   6   3   3  137.09   18.90
  -6  -4   3  285.87   24.00
   6  -4  -3  323.07   24.00
  -6  -4   3  360.96   25.60
   6  -4  -3  330.57   31.70
   6   4  -3  310.67   24.80
  -6   4   3  296.77   25.10
   5  -4  -3  338.67   31.00
  -5  -4   3  365.56   26.50
  -5  -4   3  338.67   32.70
   5  -4  -3  365.66   25.50
   5  -4  -3  362.76   29.70
  -5  -4   3  356.86   30.30
   5  -4  -3  297.97   34.30
   5   4  -3  341.47   45.90
   5   4  -3  353.06   28.70
  -4  -4   3  400.06   29.70
  -4  -4   3  384.56   34.20
   4  -4  -3  441.46   37.00
  -4  -4   3  454.55   34.80
   4  -4  -3  438.16   30.70
   4  -4  -3  391.56   39.00
   4   4  -3  360.46   45.60
   4   4  -3  363.76   34.60
  -4   4   3  360.06   37.70
  -3  -4   3  422.96   33.30
   3  -4  -3  449.95   38.50
  -3  -4   3  457.75   36.80
   3  -4  -3  447.36   41.80
  -3   4   3  537.45   45.80
  -3   4   3  464.35   43.60
   3   4  -3  523.85   37.40
   2  -4  -3 1115.09   79.39
   2  -4  -3 1132.19   76.29
  -2  -4   3 1207.08   76.99
  -2  -4   3 1202.08   75.99
  -2  -4   3 1203.18   72.09
  -2   4   3 1128.29   78.79
  -2   4   3 1239.98   98.09
   2   4  -3 1025.70   76.29
  -2   4   3 1142.89   83.59
   2   4  -3 1059.49   74.79
  -1  -4   3  426.86   28.20
  -1  -4   3  413.96   40.40
   1  -4  -3  421.16   33.00
  -1  -4   3  460.75   46.80
  -1  -4   3  460.15   35.40
  -1  -4   3  450.35   32.10
  -1  -4   3  449.86   31.20
   1   4  -3  324.37   30.90
  -1   4   3  301.37   37.10
  -1   4   3  356.16   38.50
   1   4  -3  328.17   34.40
  -1   4   3  338.87   29.30
  -1   4   3  368.36   38.20
   0  -4   3  688.33   63.19
   0  -4   3  741.03   57.29
   0  -4   3  920.01   52.99
   0  -4   3  830.22   54.59
   0  -4  -3  871.41   59.99
   0  -4   3  783.02   54.19
   0   4   3  823.52   60.99
   0   4  -3  785.62   56.89
   0   4  -3  723.13   58.99
   0   4  -3  770.22   56.69
   0   4   3  868.61   52.29
   0   4  -3  835.82   62.79
   0   4   3  821.02   63.99
  -1  -4  -3   57.19   23.40
   1  -4   3   39.30   12.00
   1  -4   3   45.30   13.10
   1  -4   3   45.50   22.10
   1  -4   3   24.50   30.00
   1  -4   3   50.59   11.20
   1   4   3   20.40   19.00
   1   4   3   21.90   16.50
   1   4   3   36.80   12.60
  -1   4  -3   31.10   19.00
  -1   4  -3   40.60   15.20
   1   4   3   28.70   18.00
  -1   4  -3   40.00   13.30
   1   4   3   24.40   17.80
   2  -4   3  870.21   60.19
   2  -4   3  972.80   69.49
   2  -4   3  851.01   66.59
   2  -4   3  885.31   74.99
   2  -4   3  880.01   59.39
   2   4   3  823.32   66.69
   2   4   3  874.41   67.59
   2   4   3  930.71   64.59
  -2   4  -3  958.40   64.69
  -2   4  -3  811.52   64.49
   2   4   3  919.21   69.39
   2   4   3  943.01   74.59
  -2   4  -3  931.21   74.59
   3  -4   3 2666.03  161.28
   3  -4   3 2437.96  173.28
   3  -4   3 2713.33  161.28
   3  -4   3 2457.05  155.28
   3   4   3 2574.94  161.68
   3   4   3 2573.64  160.38
   3   4   3 2684.13  166.98
   3   4   3 2488.35  162.08
   3   4   3 2359.56  172.68
  -3   4  -3 2467.65  160.38
   4  -4   3  396.46   34.40
  -4  -4  -3  367.16   38.10
   4   4   3  396.06   38.60
   4   4   3  364.66   37.80
   4   4   3  388.56   48.30
  -4   4  -3  377.56   35.20
  -4   4  -3  373.86   29.40
   4   4   3  386.16   33.40
  -5  -4  -3  298.67   32.40
   5  -4   3  304.77   29.30
   5   4   3  328.47   31.50
   5   4   3  350.26   31.60
   5   4   3  329.87   31.00
  -5   4  -3  337.47   30.80
  -6  -4  -3  585.64   43.80
   6  -4   3  505.55   41.80
  -6  -4  -3  553.14   40.00
  -6   4  -3  699.53   46.50
   6   4   3  602.24   44.70
   6   4   3  599.64   44.00
   6   4   3  649.34   44.60
   5  -5  -3  509.55   35.90
   5  -5  -3  449.66   31.00
   5  -5  -3  515.15   50.99
  -5  -5   3  483.75   32.00
  -5  -5   3  462.05   35.80
   5   5  -3  471.55   35.50
  -5   5   3  499.05   34.70
  -4  -5   3  157.88   17.80
  -4  -5   3  117.29   22.40
   4  -5  -3  129.69   24.80
   4  -5  -3  167.48   16.50
   4  -5  -3  155.08   17.70
  -4  -5   3  149.29   15.40
   4   5  -3   74.89   30.30
   4   5  -3  178.88   21.20
  -4   5   3  169.38   18.70
   3  -5  -3   92.29   17.90
   3  -5  -3   82.69   17.70
  -3  -5   3   85.29   13.30
  -3  -5   3   99.69   18.00
  -3  -5   3   78.39   17.70
  -3  -5   3   70.29   17.00
   3  -5  -3   62.89   22.90
   3  -5  -3   84.79   12.00
   3   5  -3   82.09   14.80
  -3   5   3   73.09   14.90
  -3   5   3   77.39   17.80
   3   5  -3   65.09   25.80
  -3   5   3   55.09   18.50
  -2  -5   3 2608.84  160.98
   2  -5  -3 2488.05  157.28
   2  -5  -3 2541.95  161.98
  -2  -5   3 2455.35  160.38
   2  -5  -3 2538.65  159.98
  -2  -5   3 2499.35  155.68
  -2  -5   3 2695.23  160.08
  -2   5   3 2391.46  168.68
  -2   5   3 2666.23  169.78
   2   5  -3 2736.53  160.88
  -2   5   3 2756.22  159.28
  -1  -5   3  251.77   30.10
  -1  -5   3  290.07   22.80
   1  -5  -3  280.87   23.70
   1  -5  -3  297.17   29.80
  -1  -5   3  300.67   26.60
  -1  -5   3  289.87   27.50
   1   5  -3  292.07   28.40
  -1   5   3  327.07   25.30
   1   5  -3  242.18   32.90
   1   5  -3  266.77   33.70
  -1   5   3  328.07   37.60
  -1   5   3  327.07   37.30
   0  -5  -3  140.69   27.40
   0  -5   3  143.89   18.30
   0  -5  -3  122.79   17.40
   0  -5  -3  154.68   22.60
   0  -5   3  146.09   15.30
   0  -5   3  152.78   18.80
   0  -5   3  168.88   34.30
   0   5   3  141.49   15.30
   0   5  -3  118.89   22.10
   0   5  -3  114.29   25.50
   0   5   3  130.89   28.90
   0   5   3  132.79   22.70
   0   5   3  123.59   24.30
   0   5  -3  122.59   17.30
   1  -5   3 1730.93  132.29
   1  -5   3 1761.22  113.79
  -1  -5  -3 1760.92  115.89
   1   5   3 2021.00  119.29
   1   5   3 1645.54  120.59
  -1   5  -3 1810.32  115.19
   1   5   3 2042.00  134.09
   1   5   3 1862.51  126.29
  -1   5  -3 1719.73  129.29
   2  -5   3  165.38   32.00
   2  -5   3  144.19   18.30
   2  -5   3  151.88   16.90
   2  -5   3  141.89   22.70
  -2  -5  -3  134.49   36.40
   2   5   3  122.59   27.20
   2   5   3  132.49   28.70
  -2   5  -3  129.69   21.50
   2   5   3  152.48   25.60
   2   5   3  125.89   22.80
  -2   5  -3  123.49   21.40
  -3  -5  -3  382.46   34.40
   3  -5   3  238.48   41.40
   3  -5   3  294.87   49.00
   3  -5   3  381.86   28.30
   3   5   3  352.66   42.10
   3   5   3  327.37   32.40
  -3   5  -3  325.37   31.80
   3   5   3  242.98   37.70
  -4  -5  -3  418.76   37.80
   4  -5   3  401.26   37.70
   4   5   3  500.75   37.50
   4   5   3  500.45   41.10
  -5  -5  -3  166.18   24.60
  -5   5  -3  263.37   23.20
   5   5   3  211.58   24.90
   5   5   3  244.18   26.80
   5   5   3  206.28   23.90
  -5  -6   3   76.89   16.40
   5  -6  -3   71.89    9.20
  -5   6   3   86.69   14.60
   5   6  -3   71.99    9.00
  -4  -6   3    5.20   15.90
  -4  -6   3   10.40    9.00
   4  -6  -3    8.50    9.80
  -4  -6   3   14.50    5.70
   4  -6  -3   14.40    6.40
   4  -6  -3   17.00    4.90
   4   6  -3   34.70    8.30
  -4   6   3   20.40    6.70
   3  -6  -3  597.24   42.60
  -3  -6   3  529.45   37.40
   3  -6  -3  585.24   39.20
  -3  -6   3  549.45   43.10
  -3  -6   3  576.94   42.00
   3   6  -3  621.24   43.30
  -3   6   3  620.74   40.20
  -3   6   3  453.15   43.40
   2  -6  -3  174.18   19.10
  -2  -6   3  182.08   20.80
  -2  -6   3  167.48   21.50
  -2  -6   3  145.39   24.00
   2  -6  -3  170.38   18.30
   2  -6  -3  178.38   22.70
  -2  -6   3  168.78   15.80
   2   6  -3  147.69   21.30
  -2   6   3  135.79   22.80
  -2   6   3  122.89   22.90
  -2   6   3  156.58   17.70
   0  -6   3  644.04   47.70
   0  -6  -3  632.14   47.70
   0  -6   3  621.14   41.60
   0  -6  -3  654.63   50.29
   0  -6  -3  613.24   44.50
   0  -6   3  535.95   64.19
   0  -6   3  650.63   46.30
   0   6   3  625.14   42.10
   0   6   3  677.33   52.09
   0   6   3  636.94   60.99
   0   6  -3  615.04   46.10
   1   6   3  107.49   41.80
   1   6   3   33.20   30.10
  -2  -6  -3  823.92   55.69
   2  -6   3  789.92   53.89
   2  -6   3  802.32   55.99
  -2  -6  -3  835.12   58.49
  -2  -6  -3  774.52   54.79
   2   6   3  726.93   73.09
  -2   6  -3  743.93   57.79
  -2   6  -3  759.22   55.89
   2   6   3  858.01   59.89
  -3  -6  -3  842.62   55.69
   3  -6   3  719.83   52.29
   3  -6   3  723.53   49.30
  -3   6  -3  684.03   53.89
  -3   6  -3  745.63   52.59
   3   6   3  705.33   53.09
   3   6   3  833.92   56.29
  -4  -6  -3   73.39   12.60
  -4  -6  -3   50.09   16.50
   4   6   3   91.79   13.80
  -4   6  -3   76.89   16.30
   4   6   3   63.39   16.90
   5   6   3  331.77   31.50
   5   6   3  306.87   24.70
   4  -7  -3  165.68   14.40
  -4  -7   3  143.49   15.20
  -4   7   3  168.18   12.30
   4   7  -3  152.88   14.70
   3  -7  -3  112.89   12.90
  -3  -7   3  126.49   13.50
   3  -7  -3  126.79   17.10
  -3  -7   3   98.19   14.00
   3  -7  -3  128.79   11.40
   3   7  -3  116.09   13.20
  -3   7   3   89.09   11.10
  -2  -7   3 1584.74  105.79
  -2  -7   3 1928.01  103.69
   2  -7  -3 1619.74  103.29
  -2  -7   3 1544.75  104.69
   2  -7  -3 1681.33  107.99
   2  -7  -3 1904.51  115.19
  -2   7   3 1601.24  107.09
   2   7  -3 1569.94  105.49
   1  -7  -3  231.08   25.30
  -1  -7   3  212.28   20.20
  -1  -7   3  208.58   23.50
   1  -7  -3  218.98   20.90
   1  -7  -3  212.58   20.70
  -1   7   3  196.68   17.80
  -1   7   3  234.08   23.70
   1   7  -3  234.78   23.30
   0  -7  -3   53.99   10.90
   0  -7  -3   52.79   19.20
   0  -7   3   56.09   12.60
   0  -7   3   36.80    9.00
   0  -7  -3   31.20   13.20
   0   7   3   46.90   15.70
   0   7  -3   36.90   11.80
  -1  -7  -3 1186.58   79.59
  -1  -7  -3 1156.78   74.59
   1  -7   3 1172.28   78.29
  -1  -7  -3 1229.58   81.39
  -1  -7  -3 1160.68   76.69
   1  -7   3 1118.39   75.59
   1   7   3 1187.18   79.79
  -1   7  -3 1217.78   77.69
  -2  -7  -3   81.59   14.50
  -2  -7  -3   95.89   16.00
   2  -7   3   37.40   15.10
   2  -7   3   75.09   11.80
   2   7   3  115.79   18.80
  -2   7  -3   67.29   16.40
  -3  -7  -3   73.19   17.40
  -3  -7  -3   54.09   13.70
   3   7   3   75.39   12.30
  -3   7  -3   70.39   15.40
   2  -8  -3   39.40    7.70
   2  -8  -3   46.20    8.00
  -2  -8   3   33.20    7.00
  -2  -8   3   30.00    9.00
   2  -8  -3   70.19   18.90
   1  -8  -3  102.09   12.60
   1  -8  -3   96.89   10.00
  -1  -8   3   62.89   11.70
   1  -8  -3   90.09   13.20
  -1   8   3   87.59   11.90
   1   8  -3  103.19   11.30
   0  -8   3  217.58   18.50
   0  -8   3  253.37   21.20
   0  -8  -3  237.58   19.30
   0  -8  -3  238.98   18.30
   0  -8  -3  240.08   21.80
   0   8   3  234.78   28.40
   0   8   3  253.67   21.10
   0   8  -3  243.88   19.70
  -1  -8  -3   10.40    9.70
   1  -8   3   16.00    8.30
  -1  -8  -3   -2.00    8.10
  -1  -8  -3    7.30    4.40
   1   8   3    7.50    9.40
  -1   8  -3    8.40    8.20
  -7   0   4  229.48   19.70
   7   0  -4  194.68   26.50
   7   0  -4  233.48   17.90
  -6   0   4  110.29   12.40
   6   0  -4   95.49   17.20
   6   0  -4  119.99   17.90
   5   0  -4  262.17   28.10
   5   0  -4  291.37   31.10
   5   0  -4  282.97   28.90
  -5   0   4  263.87   26.50
   4   0  -4 3237.58  210.28
  -4   0   4 3471.75  213.58
  -4   0   4 3580.84  208.78
   4   0  -4 3358.06  215.08
   4   0  -4 3504.15  217.98
  -3   0   4  216.08   23.40
   3   0  -4  226.38   23.60
  -3   0   4  191.18   37.00
  -3   0   4  238.88   23.40
   2   0  -4  489.45   37.50
  -2   0   4  503.55   42.90
  -2   0   4  454.95   45.60
  -2   0   4  530.05   40.70
  -2   0   4  477.75   45.20
  -2   0   4  501.15   42.00
   1   0  -4 2994.20  192.08
  -1   0   4 3138.29  198.18
   1   0  -4 3075.69  193.08
  -1   0   4 3153.88  195.78
  -1   0   4 3573.74  203.08
   0   0   4    2.70   12.90
   0   0  -4    8.90   14.60
  -1   0  -4    4.00   11.90
   1   0   4   21.20   14.40
   1   0   4    4.90   15.90
   1   0   4    9.80   10.00
   1   0   4   21.40   17.60
   2   0   4 2122.39  139.49
   2   0   4 2530.35  160.28
   2   0   4 2265.37  153.88
   2   0   4 2085.89  139.59
   2   0   4 2071.89  141.29
  -2   0  -4 2100.49  144.29
   2   0   4 2259.57  142.89
   3   0   4   69.89   16.70
  -3   0  -4   83.29   25.90
   3   0   4   74.49   14.60
   3   0   4   93.49   28.00
   3   0   4   67.19   19.00
   3   0   4   73.69   17.00
   3   0   4   71.59   28.30
   3   0   4   71.79   19.10
   4   0   4  539.95   46.30
   4   0   4  535.15   45.60
   4   0   4  537.65   46.20
   4   0   4  561.34   62.09
   4   0   4  509.95   48.10
   4   0   4  493.15   42.30
  -4   0  -4  452.25   42.50
   5   0   4  587.04   63.99
   5   0   4  677.83   55.29
   5   0   4  558.14   47.30
   5   0   4  558.64   50.39
   5   0   4  536.05   48.20
   5   0   4  573.34   48.60
  -5   0  -4  518.45   43.50
  -5   0  -4  557.44   44.80
   6   0   4   19.90   13.90
   6   0   4   35.50   13.10
  -6   0  -4   36.90   10.80
   6   0   4   38.70   14.90
   6   0   4   25.80   10.60
  -6   0  -4   18.80   13.80
  -7  -1   4    3.00    4.00
   7  -1  -4   -1.50    5.10
   7  -1  -4    0.30    9.40
  -6  -1   4  209.78   18.70
   6  -1  -4  187.88   23.30
   6   1  -4  162.08   23.20
   5  -1  -4   62.59   14.70
   5  -1  -4   62.09   23.90
  -5  -1   4   60.29   12.10
   5  -1  -4   70.59   19.30
   5   1  -4   46.70   13.30
  -5   1   4   41.10   10.30
   5   1  -4   58.29   22.40
  -4  -1   4  640.04   45.20
   4  -1  -4  612.04   46.60
   4  -1  -4  672.43   53.39
   4  -1  -4  587.84   50.19
  -4   1   4  669.53   50.19
   4   1  -4  585.24   51.49
   4   1  -4  601.54   45.80
   4   1  -4  581.54   47.10
  -4   1   4  596.84   43.20
   3  -1  -4  149.49   21.80
  -3  -1   4  158.58   19.30
  -3  -1   4  148.29   19.70
   3  -1  -4  165.88   24.40
  -3  -1   4  146.99   33.90
  -3   1   4  218.78   33.40
  -2  -1   4  834.32   56.59
  -2  -1   4  811.12   61.19
   2  -1  -4  780.92   57.79
  -2  -1   4  861.51   57.89
  -2  -1   4  811.62   63.19
  -2   1   4  842.72   66.09
   2   1  -4  805.02   58.19
  -2   1   4  993.70   69.89
  -2   1   4  859.41   60.49
  -2   1   4  892.51   63.69
  -1  -1   4 1926.41  127.89
  -1  -1   4 2254.97  131.99
  -1  -1   4 2148.29  135.69
   1  -1  -4 1703.03  121.29
  -1   1   4 1878.21  126.19
  -1   1   4 1984.00  125.69
   1   1  -4 1849.02  122.49
  -1   1   4 2135.89  130.49
  -1   1   4 1942.51  130.79
   0  -1   4 1087.19   82.39
   0  -1   4  991.20   68.79
   0  -1   4  980.60   75.09
   0   1  -4 1051.79   69.69
   0   1   4 1082.49   78.99
   0   1   4 1051.99   72.49
   0   1   4 1167.98   76.69
   0   1   4 1154.98   77.69
   1  -1   4 1404.86  102.49
   1  -1   4 1462.25   94.99
   1  -1   4 1316.77   88.49
   1  -1   4 1340.47   91.99
   1  -1   4 1408.86   94.59
   1  -1   4 1369.96   91.79
   1   1   4 1429.06  100.39
   1   1   4 1368.16   93.99
   1   1   4 1375.06   91.29
   1   1   4 1543.75   96.09
   1   1   4 1386.36   98.49
  -1   1  -4 1314.37   88.89
   1   1   4 1394.06   98.59
   2  -1   4  463.25   46.40
   2  -1   4  402.56   35.30
   2  -1   4  390.76   35.40
   2  -1   4  388.46   36.10
  -2  -1  -4  395.66   37.40
  -2  -1  -4  421.96   38.80
   2   1   4  403.66   43.20
   2   1   4  428.56   37.10
   2   1   4  380.46   32.50
   2   1   4  406.96   37.10
  -2   1  -4  355.56   33.60
   2   1   4  383.16   35.20
   2   1   4  390.16   39.50
  -2   1  -4  439.96   41.00
   2   1   4  395.46   34.50
   2   1   4  380.96   44.30
   3  -1   4 1217.28   81.09
   3  -1   4 1096.89   81.79
   3  -1   4 1323.97   97.69
  -3  -1  -4 1059.69   83.79
   3  -1   4 1258.07   84.39
  -3  -1  -4 1204.98   91.79
   3  -1   4 1156.58   87.19
   3   1   4 1072.29   75.99
   3   1   4 1208.58   97.89
  -3   1  -4 1086.49   76.99
   3   1   4 1153.68   80.29
   3   1   4 1117.29   82.09
   3   1   4 1116.69   86.39
   3   1   4 1186.28   83.59
  -3   1  -4 1243.08   96.89
   3   1   4 1074.99   84.99
   4  -1   4  211.98   29.40
   4  -1   4  175.28   37.00
   4  -1   4  208.08   24.40
   4  -1   4  213.98   26.10
   4  -1   4  199.58   29.20
   4  -1   4  207.58   28.80
   4   1   4  247.78   27.70
   4   1   4  250.77   27.40
  -4   1  -4  184.98   27.10
   4   1   4  244.48   40.00
   4   1   4  240.98   30.50
   4   1   4  249.28   28.50
   4   1   4  226.18   30.10
  -4   1  -4  198.18   28.30
   5  -1   4  103.29   18.60
  -5  -1  -4   95.99   26.70
   5  -1   4   64.29   35.70
   5  -1   4   91.99   19.80
   5  -1   4   69.99   19.90
   5  -1   4   99.89   18.80
   5  -1   4  108.19   20.10
   5   1   4   95.29   21.90
   5   1   4   91.99   17.50
  -5   1  -4  103.09   18.80
  -5   1  -4   88.99   20.00
   5   1   4  105.69   35.00
   5   1   4  111.09   23.00
  -6  -1  -4 1227.08   72.19
   6  -1   4  933.11   74.59
   6  -1   4 1227.28   78.09
   6  -1   4  931.71   77.09
  -6  -1  -4 1152.68   74.79
   6   1   4 1204.38   79.69
   6   1   4 1112.49   76.19
  -6   1  -4 1176.08   75.99
   6   1   4 1161.48   76.49
   6   1   4 1096.89   76.19
  -6   1  -4 1132.69   71.09
   6  -2  -4  107.09   20.80
   6  -2  -4  156.38   18.80
   6   2  -4  144.79   21.30
   5  -2  -4  319.07   29.40
   5  -2  -4  292.97   26.70
  -5  -2   4  305.97   26.20
   5  -2  -4  319.47   33.80
   5  -2  -4  280.87   20.80
   5   2  -4  206.58   29.40
  -5   2   4  218.98   22.50
   5   2  -4  229.98   26.70
   4  -2  -4 3000.20  190.08
   4  -2  -4 2755.02  181.68
  -4  -2   4 3105.69  181.48
   4  -2  -4 2945.11  182.98
   4   2  -4 3052.69  182.78
   4   2  -4 3056.99  188.78
   4   2  -4 2870.51  180.98
  -4   2   4 2880.41  186.98
  -4   2   4 2866.91  178.38
  -3  -2   4  259.67   30.10
  -3  -2   4  301.47   25.90
   3  -2  -4  289.17   30.70
  -3  -2   4  279.37   26.90
   3  -2  -4  268.87   26.70
   3   2  -4  240.28   26.10
  -3   2   4  228.98   33.70
  -3   2   4  259.07   27.80
   3   2  -4  225.78   28.70
   2  -2  -4  649.04   49.10
  -2  -2   4  661.93   54.49
  -2  -2   4  698.23   47.70
  -2  -2   4  696.43   57.99
  -2  -2   4  584.34   59.49
  -2  -2   4  691.93   48.10
  -2   2   4  727.83   57.59
  -2   2   4  653.53   55.39
   2   2  -4  674.43   53.89
  -2   2   4  758.52   56.19
  -2   2   4  713.43   52.39
   2   2  -4  669.83   49.30
  -1  -2   4 1841.32  119.09
  -1  -2   4 1850.61  113.99
  -1  -2   4 1828.02  111.69
  -1  -2   4 1861.11  118.19
   1  -2  -4 1621.44  110.69
  -1  -2   4 2007.80  113.89
  -1   2   4 1893.11  119.59
  -1   2   4 1596.14  119.09
   1   2  -4 1575.84  111.99
  -1   2   4 1715.43  114.49
   0  -2   4  262.77   33.30
   0  -2   4  287.07   32.70
   0  -2   4  256.67   26.30
   0  -2   4  264.37   30.80
   0  -2   4  248.18   29.60
   0  -2   4  243.68   24.00
   0   2   4  281.57   29.20
   0   2  -4  238.28   27.30
   0   2   4  280.47   34.00
   0   2   4  252.27   27.50
   0   2   4  278.87   32.90
   1  -2   4 1034.90   88.79
   1  -2   4 1075.59   80.59
   1  -2   4 1014.40   78.29
  -1  -2  -4 1017.70   79.39
  -1   2  -4 1221.58   85.79
   1   2   4 1179.68   85.09
   1   2   4 1163.08   77.29
   1   2   4 1115.59   79.79
  -1   2  -4 1305.37   79.89
   1   2   4 1230.08   87.29
   1   2   4 1254.17   83.49
   1   2   4 1118.29   76.69
   1   2   4 1233.98   86.29
  -2  -2  -4  839.82   62.79
   2  -2   4  970.30   62.49
  -2  -2  -4  863.11   64.49
   2  -2   4  992.80   64.19
   2  -2   4 1020.50   61.89
   2  -2   4  922.01   63.89
   2   2   4  761.22   59.29
   2   2   4  825.12   61.09
   2   2   4  857.51   65.59
   2   2   4  816.92   68.59
   2   2   4  808.62   68.39
   2   2   4  826.42   72.39
  -2   2  -4  792.82   59.19
   2   2   4  788.82   62.59
  -2   2  -4  827.22   69.19
   2   2   4  736.63   59.39
   3  -2   4   46.90   17.70
   3  -2   4   56.89   15.20
  -3  -2  -4   19.70   22.00
   3  -2   4   40.20   23.60
   3  -2   4   46.20   17.50
   3   2   4   48.70   17.20
   3   2   4   39.50   17.80
  -3   2  -4   46.10   14.20
   3   2   4   49.30   19.00
  -3   2  -4   49.90   15.70
   3   2   4   30.10   19.80
   3   2   4   44.30   27.10
   3   2   4   57.89   18.50
   3   2   4   39.90   15.90
   3   2   4   33.50   20.80
  -3   2  -4   80.89   30.10
   4  -2   4  901.11   70.19
   4  -2   4 1085.19   75.99
   4  -2   4 1004.90   72.49
   4  -2   4 1009.00   72.59
   4   2   4 1048.60   71.69
   4   2   4 1099.39   73.69
   4   2   4 1033.50   74.99
  -4   2  -4 1040.30   71.09
  -4   2  -4 1000.30   66.79
   4   2   4  916.11   74.39
   4   2   4 1094.19   75.29
   5  -2   4  328.77   64.49
   5  -2   4  422.46   35.70
   5  -2   4  424.46   36.70
   5  -2   4  446.76   40.60
  -5  -2  -4  401.76   42.30
   5  -2   4  431.76   38.30
   5   2   4  426.96   36.20
   5   2   4  422.96   37.30
   5   2   4  394.06   39.80
  -5   2  -4  398.36   36.50
  -5   2  -4  401.86   32.20
   5   2   4  413.26   37.70
  -6  -2  -4   96.49   22.00
   6  -2   4   83.29   13.80
   6  -2   4   93.59   14.40
   6  -2   4   64.19   12.90
   6  -2   4   74.39   13.50
  -6   2  -4   88.39   11.40
   6   2   4   73.79   14.20
   6   2   4   75.19   15.80
   6   2   4   56.49   14.60
   6  -3  -4  306.47   28.10
  -6  -3   4  254.77   21.60
   6  -3  -4  281.67   22.80
   6   3  -4  309.37   24.20
   5  -3  -4   58.09   17.90
   5  -3  -4   57.29   14.00
  -5  -3   4   50.59   11.50
   5  -3  -4   58.39   15.40
   5   3  -4   14.60   22.40
   4  -3  -4   46.10   18.70
  -4  -3   4   19.30   11.30
   4  -3  -4   28.30   14.60
  -4  -3   4   20.90    9.80
  -4   3   4   18.10   15.20
   4   3  -4    4.60   19.90
   4   3  -4   36.90   11.20
   3  -3  -4  473.85   39.00
  -3  -3   4  442.06   33.90
  -3  -3   4  541.05   38.50
   3  -3  -4  571.74   47.80
  -3  -3   4  525.25   39.90
  -3   3   4  472.65   46.10
  -3   3   4  507.95   41.50
   3   3  -4  508.45   41.20
  -3   3   4  388.96   43.30
  -2  -3   4  352.46   45.20
  -2  -3   4  366.66   31.60
  -2  -3   4  390.76   34.60
   2  -3  -4  332.07   32.10
   2  -3  -4  349.37   34.10
  -2   3   4  481.85   42.30
   2   3  -4  433.16   34.40
  -2   3   4  419.46   38.90
  -2   3   4  405.96   39.80
   2   3  -4  449.46   37.90
  -1  -3   4   56.69   11.30
  -1  -3   4   72.29   19.80
  -1  -3   4   52.39   11.50
   1  -3  -4   54.49   20.20
   1  -3  -4   61.49   15.00
   1   3  -4   72.79   17.30
  -1   3   4   60.99   13.50
  -1   3   4   65.29   20.20
  -1   3   4   76.09   19.40
   0  -3  -4 1628.64  120.79
   0  -3   4 1811.62  121.49
   0  -3   4 1855.11  122.09
   0  -3   4 1868.51  116.69
   0  -3   4 1895.11  124.79
   0  -3   4 2031.20  137.69
   0  -3   4 1986.60  119.49
   0  -3   4 2010.20  124.59
   0   3   4 1942.91  133.59
   0   3  -4 1963.90  120.99
   0   3   4 1900.01  126.19
   0   3   4 1936.11  130.29
   0   3  -4 1730.43  128.69
   0   3   4 1921.31  121.49
   0   3   4 1907.21  120.69
   1  -3   4 1008.20   75.19
   1  -3   4  974.60   70.89
   1  -3   4 1015.90   68.29
   1  -3   4 1061.29   71.69
   1  -3   4  997.30   83.29
   1   3   4 1003.90   70.89
  -1   3  -4 1036.00   80.09
   1   3   4  995.10   80.79
   1   3   4 1011.90   69.99
   1   3   4 1093.69   75.89
   1   3   4  937.31   76.59
   1   3   4 1025.30   73.99
  -1   3  -4 1051.49   70.99
   1   3   4 1102.09   80.39
   2  -3   4  359.26   34.30
   2  -3   4  385.76   33.60
   2  -3   4  365.66   46.40
   2  -3   4  395.86   38.80
   2  -3   4  382.76   34.70
   2   3   4  364.86   42.80
  -2   3  -4  357.66   44.00
   2   3   4  380.36   36.30
   2   3   4  393.96   32.90
   2   3   4  402.86   42.00
   2   3   4  347.67   37.50
   2   3   4  393.36   36.70
   2   3   4  360.86   44.80
  -2   3  -4  365.16   33.30
   2   3   4  367.66   35.00
   3  -3   4  236.68   34.70
   3  -3   4  205.88   28.70
   3  -3   4  238.58   29.10
   3  -3   4  228.68   25.30
   3   3   4  186.98   25.80
   3   3   4  187.18   31.80
   3   3   4  217.18   28.20
   3   3   4  150.08   28.10
   3   3   4  198.98   24.10
   3   3   4  169.68   32.70
   3   3   4  202.18   25.60
  -3   3  -4  188.38   19.10
  -3   3  -4  205.18   24.70
   4  -3   4 1619.14  111.89
   4   3   4 1608.24  110.29
   4   3   4 1549.94  120.69
   5  -3   4  458.65   41.10
   5  -3   4  543.45   41.60
   5  -3   4  544.85   40.10
  -5   3  -4  493.15   41.00
  -5   3  -4  481.65   36.80
   5   3   4  516.05   39.90
   5   3   4  491.35   43.80
   5   3   4  517.05   41.60
   6  -3   4  235.38   21.40
   6  -3   4  194.28   18.10
   6  -3   4  256.57   22.50
   6   3   4  270.27   24.00
  -6   3  -4  192.78   22.40
   6   3   4  204.78   21.30
   6  -4  -4    0.60    9.90
  -6  -4   4    0.00    3.70
   6  -4  -4    4.70    4.40
  -6   4   4    5.20    3.50
   6   4  -4    1.20    4.20
   5  -4  -4   80.79   17.90
   5  -4  -4   93.59    9.80
   5  -4  -4  129.79   25.70
   5  -4  -4  104.19   12.80
  -5  -4   4   97.59   12.60
   5   4  -4   83.79   13.20
  -5   4   4   86.69   12.10
  -4  -4   4 1503.45   92.99
   4  -4  -4 1274.77   98.09
   4  -4  -4 1509.75   95.59
   4  -4  -4 1513.35   90.39
   4   4  -4 1628.34  125.69
  -4   4   4 1313.97   98.59
   4   4  -4 1436.26   93.59
   3  -4  -4  156.58   21.00
  -3  -4   4  152.38   21.50
   3  -4  -4  134.29   22.90
  -3  -4   4  134.39   16.60
  -3  -4   4  123.99   15.60
  -3   4   4  100.79   22.80
  -3   4   4  121.29   23.70
   3   4  -4  131.79   21.20
  -2  -4   4  574.54   41.10
  -2  -4   4  570.14   43.20
   2  -4  -4  491.85   46.10
   2  -4  -4  560.54   43.50
  -2   4   4  523.15   44.70
  -2   4   4  517.65   47.60
   2   4  -4  551.94   41.60
  -2   4   4  582.14   39.50
   2   4  -4  533.05   46.70
  -2   4   4  546.25   50.79
  -1  -4   4  593.64   41.60
  -1  -4   4  563.34   50.39
   1  -4  -4  582.04   43.10
  -1  -4   4  582.54   43.70
  -1   4   4  571.54   48.80
   1   4  -4  579.24   44.30
   1   4  -4  542.05   44.10
  -1   4   4  563.64   50.79
  -1   4   4  512.65   47.60
  -1   4   4  571.84   39.10
   0  -4   4  162.58   20.80
   0  -4   4  179.28   33.50
   0  -4   4  197.78   21.30
   0  -4   4  177.28   34.70
   0  -4  -4  151.38   23.00
   0   4   4  143.99   25.40
   0   4   4  140.39   22.30
   0   4  -4   90.99   31.60
   0   4   4  139.99   25.80
   0   4   4  125.99   22.00
   0   4  -4  130.19   24.30
   0   4  -4  153.38   21.20
   0   4   4  143.09   26.50
   1  -4   4  631.44   49.80
   1  -4   4  629.14   60.59
   1  -4   4  649.54   45.30
   1  -4   4  669.13   73.59
   1   4   4  585.54   53.49
   1   4   4  523.05   46.80
   1   4   4  556.74   49.10
   1   4   4  588.74   45.50
   1   4   4  594.14   56.99
  -1   4  -4  620.44   49.70
   2  -4   4  461.25   41.70
   2  -4   4  454.85   46.10
   2  -4   4  392.76   40.30
   2  -4   4  479.35   53.09
   2  -4   4  496.25   43.80
   2   4   4  542.15   43.40
   2   4   4  517.05   48.00
   2   4   4  493.65   43.60
   2   4   4  514.95   53.99
   2   4   4  566.04   43.10
  -2   4  -4  518.85   41.80
   3  -4   4  173.78   29.00
   3  -4   4  214.98   34.90
   3  -4   4  186.28   24.80
   3  -4   4  196.98   26.30
   3   4   4  178.88   36.10
  -3   4  -4  189.88   23.60
   3   4   4  191.28   25.40
   3   4   4  150.68   26.30
   3   4   4  193.18   29.70
   3   4   4  179.18   26.70
   4  -4   4  743.73   57.29
   4  -4   4  781.22   56.79
   4   4   4  811.22   56.79
  -4   4  -4  785.72   57.59
   4   4   4  763.32   57.59
   4   4   4  834.02   58.79
   4   4   4  808.32   73.19
   5  -4   4  360.46   29.30
   5  -4   4  288.47   27.70
  -5   4  -4  343.07   29.90
   5   4   4  368.76   30.50
   5   4   4  345.47   30.70
   5   4   4  355.86   30.40
   5  -5  -4  208.08   19.70
   5  -5  -4  224.08   17.40
  -5   5   4  255.97   18.60
   5   5  -4  258.57   19.80
   4  -5  -4  140.99   25.70
   4  -5  -4  183.68   18.80
  -4  -5   4  169.28   17.30
   4  -5  -4  169.18   15.00
   4  -5  -4  175.38   17.80
   4   5  -4  179.18   18.60
  -4   5   4  179.18   16.20
   3  -5  -4  299.47   23.80
   3  -5  -4  296.17   27.90
   3  -5  -4  302.97   26.20
  -3  -5   4  294.17   26.20
  -3  -5   4  282.07   27.90
   3   5  -4  225.58   24.60
  -3   5   4  229.28   22.80
   2  -5  -4  924.71   64.39
   2  -5  -4  926.31   68.19
  -2  -5   4  907.61   63.09
   2   5  -4  868.21   71.19
   1  -5  -4  193.08   23.90
  -1  -5   4  179.78   20.50
  -1  -5   4  199.08   20.80
   1  -5  -4  163.78   20.60
  -1  -5   4  172.58   33.90
   1  -5  -4  190.18   25.80
  -1   5   4  177.88   26.10
   1   5  -4  206.08   25.20
  -1   5   4  212.88   18.70
   1   5  -4  189.68   28.30
   0  -5   4 1087.79   75.89
   0  -5   4 1101.29   72.89
   0  -5  -4 1011.50   70.39
   0  -5   4  975.10  100.59
   0  -5   4 1103.89   69.89
   0  -5  -4 1052.79   71.99
   0   5   4 1138.79   75.09
   0   5  -4 1040.40   73.19
   0   5   4 1120.49   83.79
   0   5   4  957.10   78.49
   0   5  -4 1076.29   73.59
   1  -5   4  752.62   52.39
  -1  -5  -4  773.32   56.59
   1  -5   4  749.92   72.19
   1  -5   4  782.92   55.69
  -1   5  -4  737.73   55.59
  -1   5  -4  820.82   58.79
   1   5   4  861.71   60.39
   1   5   4  708.43   62.69
   1   5   4  789.62   72.59
   1   5   4  820.82   65.99
   2  -5   4   48.20   30.50
  -2  -5  -4   62.69   21.50
   2  -5   4   45.50   15.40
  -2   5  -4   66.59   19.90
   2   5   4   67.99   29.30
   2   5   4   38.30   27.20
  -2   5  -4   34.30   13.00
   2   5   4   28.40   17.20
   2   5   4   69.39   17.60
   2   5   4   75.19   24.80
   3  -5   4  310.67   31.20
  -3   5  -4  341.17   31.30
   3   5   4  307.97   29.40
   3   5   4  329.27   44.00
   3   5   4  361.36   30.90
   4   5   4  708.83   47.10
   4   5   4  527.95   46.70
  -4   5  -4  651.33   46.90
   5   5   4  141.89   16.10
   5   5   4  158.28   17.80
  -5   5  -4  123.39   16.40
   4  -6  -4  352.96   28.20
   4  -6  -4  402.36   25.20
   4  -6  -4  348.17   26.40
  -4   6   4  375.06   24.60
   4   6  -4  326.97   26.30
  -3  -6   4   70.89   11.10
   3  -6  -4   64.59   11.50
   3  -6  -4   77.99   16.30
   3  -6  -4   89.49   15.60
  -3   6   4   51.09    9.10
  -3   6   4   42.00   20.00
   3   6  -4   70.29   15.50
   2  -6  -4  281.17   23.70
  -2  -6   4  264.17   23.00
   2  -6  -4  267.27   25.90
   2  -6  -4  317.97   28.30
  -2  -6   4  269.67   25.40
   2   6  -4  276.97   27.60
  -2   6   4  259.67   20.50
  -2   6   4  286.47   37.80
  -2   6   4  293.87   33.10
   1  -6  -4  670.03   45.00
  -1  -6   4  680.83   46.00
  -1  -6   4  671.73   47.70
  -1  -6   4  516.65   68.49
   1  -6  -4  628.04   49.60
   1  -6  -4  624.64   47.70
   1   6  -4  646.54   48.10
  -1   6   4  707.13   50.39
   0  -6   4  289.37   26.00
   0  -6   4  325.37   29.80
   0  -6  -4  313.97   27.30
   0   6  -4  315.27   27.50
   0   6   4  346.97   31.40
   1  -6   4   21.40   36.60
   1  -6   4   69.59   13.10
  -1  -6  -4   70.99   17.80
  -1  -6  -4   62.99   14.80
  -1   6  -4   37.60   15.00
   1   6   4   33.80   16.30
   1   6   4   36.10   23.20
  -2  -6  -4  868.01   64.39
   2  -6   4  898.81   62.39
   2   6   4 1047.60   65.99
  -2   6  -4  876.91   62.59
  -3  -6  -4  470.85   40.30
   3   6   4  448.66   40.60
  -3   6  -4  608.84   49.00
   3   6   4  634.74   47.60
   4   6   4  321.67   25.90
   4   6   4  385.06   28.40
   3  -7  -4   56.89   10.50
   3  -7  -4   76.39    8.80
   3   7  -4   61.29    9.20
   2  -7  -4  370.96   25.30
   2  -7  -4  348.87   26.20
  -2   7   4  363.76   28.20
   2   7  -4  353.06   27.30
   1  -7  -4   22.10    9.80
  -1  -7   4   25.30   11.70
  -1  -7   4   48.70    8.60
   1  -7  -4   33.40    8.30
   1   7  -4   33.00   10.20
  -1   7   4   14.80   14.50
   0  -7   4  812.02   53.69
   0  -7  -4  755.52   49.70
   0  -7  -4  757.62   57.49
   0  -7   4  682.33   49.20
   0   7   4  820.62   54.69
   0   7  -4  806.22   52.29
  -1  -7  -4  580.64   45.40
   1  -7   4  535.75   38.40
  -1   7  -4  475.15   37.10
   1   7   4  522.05   40.70
  -2  -7  -4   86.99   11.90
   2  -7   4   80.29   13.80
  -2  -7  -4   83.19   16.80
   3  -7   4  202.98   18.80
   3   7   4  263.07   20.60
   6   0  -5  127.49   18.50
   5   0  -5  454.25   37.80
   5   0  -5  410.26   34.10
   5   0  -5  457.85   40.10
  -4   0   5  162.38   28.10
   4   0  -5  232.18   29.60
   4   0  -5  244.68   27.40
  -3   0   5 2291.87  145.29
  -3   0   5 2109.89  148.79
   3   0  -5 2405.96  143.49
  -3   0   5 2248.77  146.39
  -2   0   5  309.27   31.40
   2   0  -5  292.17   30.60
  -2   0   5  324.87   29.50
  -2   0   5  311.37   34.60
  -2   0   5  322.27   37.10
  -1   0   5  872.71   68.99
   1   0  -5  771.62   57.89
  -1   0   5  857.21   60.99
  -1   0   5  920.91   66.19
  -1   0   5  854.11   64.49
  -1   0   5  846.02   66.79
   0   0   5 1054.29   75.29
   0   0   5 1039.00   70.49
   0   0   5 1009.20   72.59
   0   0  -5  930.61   67.09
   0   0   5  988.40   76.09
   0   0   5  967.40   70.19
   0   0   5 1063.19   81.19
   1   0   5    2.40   17.40
   1   0   5   22.00   13.70
   1   0   5    2.70   14.60
  -1   0  -5   -2.70   13.10
   1   0   5    2.70   12.00
   1   0   5   -0.10   17.40
   1   0   5   15.70   11.40
   2   0   5  732.83   58.29
   2   0   5  758.52   64.99
   2   0   5  818.32   60.39
   2   0   5  727.73   55.99
   2   0   5  694.93   71.79
  -2   0  -5  655.13   65.49
   2   0   5  712.23   56.19
   3   0   5  270.57   39.70
   3   0   5  288.57   34.20
   3   0   5  295.77   28.90
   3   0   5  290.67   31.50
   3   0   5  303.37   33.30
   3   0   5  286.97   48.80
  -3   0  -5  267.67   31.70
   4   0   5 1034.10   72.09
   4   0   5  880.11   72.99
   4   0   5 1069.69   76.99
   4   0   5  930.91   94.39
   4   0   5  981.40   75.09
  -4   0  -5  984.50   69.59
  -5   0  -5   59.29   17.20
   5   0   5   35.30   13.70
   5   0   5   25.50   16.60
   5   0   5   55.39   12.70
   5   0   5   46.00   18.20
   5   0   5   26.60   12.20
  -6   0  -5  150.38   17.10
   6   0   5  139.79   16.20
   6   0   5  100.49   16.20
   6  -1  -5  139.99   19.20
   6  -1  -5  190.78   20.40
   6   1  -5  194.08   19.80
   6   1  -5  187.08   18.10
   5  -1  -5   72.59   18.20
  -5  -1   5   68.49   11.70
   5  -1  -5   65.89   19.40
   5  -1  -5   61.99   20.40
   5   1  -5   63.09   18.30
   5   1  -5   82.29   14.40
   4  -1  -5  115.59   18.70
  -4  -1   5   87.39   21.90
   4  -1  -5  100.09   21.60
  -4   1   5  109.19   33.50
   4   1  -5   72.69   18.30
   4   1  -5   72.39   17.90
   4   1  -5   72.99   20.20
  -4   1   5   45.10   18.10
  -3  -1   5  194.68   25.70
   3  -1  -5  247.28   25.60
  -3  -1   5  196.48   30.20
   3  -1  -5  229.98   29.10
  -3  -1   5  193.68   22.20
   3   1  -5  252.27   26.20
  -3   1   5  270.07   29.40
   3   1  -5  176.28   42.40
  -3   1   5  253.37   29.00
  -3   1   5  210.88   27.50
  -2  -1   5  235.18   26.60
  -2  -1   5  222.58   31.00
  -2  -1   5  293.57   40.30
  -2  -1   5  237.58   27.80
  -2  -1   5  235.68   33.60
   2  -1  -5  230.88   25.20
  -2   1   5  290.37   31.50
  -2   1   5  245.88   25.30
  -2   1   5  251.97   30.00
  -2   1   5  234.48   38.70
   2   1  -5  226.38   26.20
  -1  -1   5  449.95   41.10
  -1  -1   5  514.85   40.90
  -1  -1   5  546.05   45.90
   1  -1  -5  464.55   38.80
  -1  -1   5  500.25   45.10
  -1   1   5  537.25   42.80
  -1   1   5  559.24   46.90
  -1   1   5  535.45   45.20
   1   1  -5  521.45   40.20
  -1   1   5  513.45   46.90
   0  -1   5  878.11   64.49
   0  -1   5  862.21   60.69
   0  -1   5  801.52   58.69
   0  -1   5  853.01   63.99
   0  -1   5  788.02   72.09
   0   1   5  788.92   66.79
   0   1   5  888.01   61.09
   0   1   5  825.02   63.29
   0   1   5  818.92   67.19
   0   1   5  837.42   64.89
   0   1  -5  788.42   57.09
   1  -1   5 2620.54  165.38
  -1  -1  -5 2443.86  173.08
   1  -1   5 2833.72  184.48
   1  -1   5 2825.32  172.58
   1  -1   5 2637.84  169.38
   1  -1   5 2681.43  165.88
   1   1   5 2581.04  165.48
   1   1   5 2622.84  174.08
   1   1   5 2495.05  163.98
   1   1   5 2707.13  171.58
   1   1   5 2581.24  167.88
  -1   1  -5 2478.95  162.08
   2  -1   5 1788.52  123.59
  -2  -1  -5 1706.03  129.49
   2  -1   5 1850.71  140.29
   2  -1   5 1795.12  120.69
   2  -1   5 1934.11  126.09
   2  -1   5 1817.62  120.69
   2  -1   5 1889.21  130.69
   2   1   5 1880.81  129.79
   2   1   5 1895.01  120.39
   2   1   5 1942.41  121.69
   2   1   5 1723.03  117.49
   2   1   5 1940.01  126.59
  -2   1  -5 1815.52  117.29
   2   1   5 1745.23  136.09
   2   1   5 1910.41  123.59
   3  -1   5   97.19   28.80
   3  -1   5  126.59   19.90
   3  -1   5  137.89   21.70
   3  -1   5  153.38   20.00
   3  -1   5  152.18   38.10
   3  -1   5  133.49   23.80
   3   1   5   69.39   33.90
   3   1   5  106.99   30.30
   3   1   5  105.49   18.10
   3   1   5   97.39   24.00
   3   1   5  103.49   21.60
  -3   1  -5  102.49   19.20
   3   1   5   86.69   22.50
   3   1   5  103.59   19.80
   4  -1   5  436.56   37.60
   4  -1   5  459.15   38.60
   4  -1   5  482.45   41.40
   4  -1   5  410.36   60.29
   4  -1   5  481.15   42.20
   4   1   5  407.66   38.90
  -4   1  -5  427.76   38.10
   4   1   5  410.56   40.30
   4   1   5  394.06   37.90
   4   1   5  428.56   57.19
   4   1   5  356.16   40.30
  -4   1  -5  351.66   36.10
   4   1   5  402.36   40.40
   5  -1   5  583.14   47.50
   5  -1   5  480.55   47.70
   5  -1   5  632.54   46.50
  -5  -1  -5  544.45   48.80
   5  -1   5  596.54   45.40
   5   1   5  618.74   47.10
  -5   1  -5  620.14   45.00
   5   1   5  599.44   47.90
   5   1   5  539.25   46.50
   5   1   5  593.74   45.40
   6  -1   5   14.80   10.80
   6  -1   5   13.30   10.10
   6  -1   5   21.90    7.60
   6   1   5   10.90    9.70
   6   1   5    9.40   10.50
   6   1   5   13.40   10.10
   6   1   5   26.60   10.10
  -6   1  -5   45.40   11.40
   6  -2  -5  229.68   21.50
   6   2  -5  151.28   18.20
  -5  -2   5  391.46   31.30
   5  -2  -5  450.45   29.30
   5  -2  -5  449.06   33.80
   5  -2  -5  407.56   39.20
   5   2  -5  475.95   33.50
   5   2  -5  390.16   37.70
   4  -2  -5   97.99   18.40
  -4  -2   5   81.69   15.60
   4  -2  -5   95.99   21.20
   4   2  -5   66.49   15.50
   4   2  -5   78.89   20.00
   4   2  -5   92.49   18.70
  -4   2   5   60.69   14.00
  -3  -2   5  845.02   81.49
   3  -2  -5 1043.20   75.19
   3  -2  -5 1125.39   70.59
  -3  -2   5  965.60   74.99
  -3  -2   5  956.20   69.99
  -3  -2   5 1042.80   66.19
  -3   2   5 1081.99   73.79
  -3   2   5 1029.60   75.29
   3   2  -5 1022.30   71.19
  -3   2   5  881.51   74.09
   3   2  -5 1026.90   69.49
   2  -2  -5 1172.38   85.89
  -2  -2   5 1039.70   86.09
  -2  -2   5 1064.69   77.29
  -2  -2   5 1024.10   72.29
  -2   2   5 1004.80   74.99
  -2   2   5  988.10   78.09
  -2   2   5 1066.49   77.39
  -2   2   5 1034.40   73.29
  -1  -2   5  153.68   26.20
  -1  -2   5  164.88   22.20
  -1  -2   5  149.59   22.90
  -1  -2   5  160.58   31.40
   1  -2  -5  157.08   21.80
  -1  -2   5  147.99   24.90
  -1   2   5  139.09   26.70
  -1   2   5  155.58   24.50
   1   2  -5  141.99   21.40
  -1   2   5  169.78   29.60
  -1   2   5  166.08   20.70
  -1   2   5  145.29   24.10
   0  -2   5  328.17   32.90
   0  -2   5  313.77   31.80
   0  -2  -5  289.37   31.20
   0  -2   5  316.07   29.60
   0  -2   5  308.97   32.80
   0  -2   5  325.97   44.10
   0   2   5  327.47   34.90
   0   2   5  376.66   36.10
   0   2   5  347.77   37.00
   0   2   5  326.77   38.20
   0   2  -5  348.97   30.90
   0   2   5  309.57   29.90
   0   2  -5  355.56   44.80
  -1  -2  -5  177.68   33.70
   1  -2   5  224.08   38.40
   1   2   5  156.38   31.20
   1   2   5  145.69   25.40
   1   2   5  160.28   25.30
   1   2   5  133.29   27.70
  -1   2  -5  152.58   40.00
   1   2   5  156.58   22.60
   1   2   5  143.09   20.10
  -1   2  -5  126.49   20.40
   2  -2   5  443.96   43.00
   2  -2   5  467.85   41.70
   2  -2   5  456.85   42.90
   2  -2   5  449.95   38.60
   2  -2   5  522.25   56.09
   2   2   5  476.05   42.80
   2   2   5  466.45   38.70
   2   2   5  456.75   37.40
   2   2   5  453.95   46.30
   2   2   5  478.65   40.80
   2   2   5  470.45   55.09
   2   2   5  461.15   43.30
   3  -2   5  912.41   68.29
   3  -2   5  925.01   69.29
   3  -2   5  896.71   71.29
   3  -2   5  922.51   72.19
   3  -2   5  806.62   74.79
   3   2   5  953.30   70.89
   3   2   5  968.00   68.59
   3   2   5  959.70   65.99
   3   2   5 1022.30  100.09
   3   2   5  998.10   74.09
   3   2   5  939.21   76.69
  -3   2  -5  990.40   66.39
   3   2   5  975.30   67.69
  -3   2  -5  942.81   63.29
   4  -2   5  218.28   45.90
   4  -2   5  302.27   33.80
   4  -2   5  308.27   32.80
   4  -2   5  304.67   30.10
   4  -2   5  256.87   32.40
  -4   2  -5  257.77   23.40
  -4   2  -5  280.87   28.90
   4   2   5  306.27   28.10
   4   2   5  286.07   28.80
   4   2   5  223.98   28.70
   4   2   5  226.18   51.99
   4   2   5  266.17   31.60
   4   2   5  303.27   32.20
   5  -2   5    8.10    9.10
   5  -2   5    5.80   11.50
   5  -2   5   -0.80   13.90
   5  -2   5    5.00   12.00
  -5   2  -5    7.20   11.50
   5   2   5    3.30   12.20
  -5   2  -5   14.30    8.30
   5   2   5    9.50    9.40
   5   2   5   13.30   14.50
   6  -2   5  400.86   32.90
   6  -2   5  295.87   26.10
   6   2   5  397.46   27.00
   6   2   5  306.57   27.30
   5  -3  -5   86.19   11.50
   5  -3  -5  146.79   32.00
  -5  -3   5  125.19   11.90
   5  -3  -5  145.99   19.80
   5   3  -5  139.09   17.80
   5   3  -5   93.89   17.80
   4  -3  -5   69.49   16.70
  -4  -3   5   60.39   13.20
   4   3  -5   28.90   13.00
   4   3  -5   18.10   19.20
  -4   3   5   41.10   15.70
   3  -3  -5  329.47   31.40
  -3  -3   5  272.77   47.30
  -3  -3   5  356.16   49.50
   3  -3  -5  322.67   35.10
  -3   3   5  386.36   38.80
   3   3  -5  379.96   32.10
  -3   3   5  350.86   45.80
  -3   3   5  364.76   50.39
  -2  -3   5   18.50   23.60
  -2  -3   5   27.90   20.90
  -2  -3   5   12.30   10.90
   2  -3  -5   14.80   13.30
   2  -3  -5   32.70   15.60
  -2  -3   5   19.30   11.20
   2   3  -5   26.70   18.20
  -2   3   5   18.20   12.90
  -2   3   5   25.80   13.20
  -2   3   5   66.79   28.80
   2   3  -5   16.00   12.60
  -1  -3   5 1192.88   77.39
  -1  -3   5 1106.79   77.69
  -1  -3   5 1202.98   83.09
  -1  -3   5 1070.19   80.69
  -1  -3   5 1178.88   95.89
   1  -3  -5 1059.39   79.29
  -1   3   5 1087.89   85.29
  -1   3   5 1170.98   78.99
   1   3  -5 1139.39   77.69
  -1   3   5 1127.39   77.19
  -1   3   5 1150.68   70.69
  -1   3   5 1175.78   84.09
   0  -3   5  269.37   42.30
   0  -3   5  284.87   30.80
   0  -3  -5  221.38   29.50
   0  -3   5  261.47   30.60
   0  -3   5  265.77   30.90
   0  -3   5  262.77   28.60
   0   3   5  300.67   36.70
   0   3   5  318.57   30.40
   0   3   5  309.77   30.70
   0   3   5  305.77   34.30
   0   3  -5  360.96   36.30
   1  -3   5  416.46   35.80
   1  -3   5  424.26   40.80
   1  -3   5  451.75   38.80
   1  -3   5  420.86   51.59
   1  -3   5  406.66   37.00
   1  -3   5  314.67   36.40
   1   3   5  340.57   38.00
   1   3   5  417.66   36.70
   1   3   5  391.56   34.40
   1   3   5  400.96   42.30
   1   3   5  370.06   40.40
  -1   3  -5  383.36   34.80
   1   3   5  349.07   44.90
   2  -3   5 2190.08  139.29
   2  -3   5 2347.97  145.59
   2  -3   5 2162.18  141.09
   2  -3   5 2132.89  136.79
   2  -3   5 2147.09  143.09
   2   3   5 2215.18  139.09
   2   3   5 2149.48  145.49
   2   3   5 2156.08  139.49
  -2   3  -5 2203.68  138.89
   2   3   5 2228.58  138.29
   2   3   5 2130.19  148.79
   2   3   5 2064.89  141.09
   3  -3   5   50.89   21.40
   3  -3   5   45.80   16.90
   3  -3   5   30.30   16.50
   3  -3   5   30.60   19.50
   3  -3   5    0.70   25.10
   3   3   5   20.20   19.10
  -3   3  -5   38.00   14.20
   3   3   5   43.50   23.70
   3   3   5   21.60   10.90
   3   3   5   11.00   15.50
   3   3   5   28.70   11.30
   3   3   5   14.20   15.80
   3   3   5   22.10   11.80
   4  -3   5  259.87   26.70
   4  -3   5  265.47   29.50
   4   3   5  209.08   27.20
   4   3   5  246.18   23.70
   4   3   5  190.98   24.00
   4   3   5  233.38   24.80
   5  -3   5  297.07   24.00
   5  -3   5  253.97   23.80
   5  -3   5  272.97   26.70
   5   3   5  230.98   23.60
   5   3   5  206.08   25.40
   5   3   5  334.27   29.70
   5   3   5  264.87   24.90
   5  -4  -5  170.38   12.20
  -5  -4   5  180.88   15.90
   5  -4  -5  139.99   13.70
  -5   4   5  124.59   15.50
   5   4  -5  136.99   16.10
   4  -4  -5   19.10    9.90
  -4  -4   5   17.70    6.50
   4  -4  -5   18.80    6.70
   4  -4  -5   14.00    6.60
  -4   4   5   19.80    6.80
  -4   4   5    5.50   13.10
   4   4  -5   23.00   11.40
   3  -4  -5  809.22   53.49
  -3  -4   5  699.13   52.09
  -3  -4   5  576.04   74.09
  -3  -4   5  708.63   48.80
   3  -4  -5  670.03   55.49
   3   4  -5  609.44   54.09
   3   4  -5  777.12   52.89
  -3   4   5  842.82   48.40
  -3   4   5  647.34   55.59
  -3   4   5  737.23   58.89
   2  -4  -5  853.61   58.19
  -2  -4   5  863.21   58.49
  -2  -4   5  864.31   79.29
   2  -4  -5  663.83   59.69
  -2  -4   5  806.22   53.59
  -2   4   5  765.62   64.29
   2   4  -5  794.42   57.89
   2   4  -5  776.62   58.09
  -2   4   5  791.12   51.39
  -1  -4   5   41.40   11.80
   1  -4  -5   72.79   16.50
  -1  -4   5   72.99   27.30
  -1  -4   5   78.99   18.50
  -1  -4   5   62.19   23.10
   1   4  -5   57.69   15.50
  -1   4   5   75.29   18.20
  -1   4   5   96.79   23.10
   1   4  -5   71.29   20.40
  -1   4   5   55.19   16.70
  -1   4   5   74.49   18.90
   0  -4  -5  324.57   33.30
   0  -4   5  309.17   35.40
   0  -4   5  364.36   34.10
   0  -4   5  271.47   45.90
   0  -4   5  314.37   34.50
   0   4   5  390.36   34.90
   0   4  -5  459.45   36.20
   0   4   5  450.35   35.70
   0   4   5  452.65   44.50
   0   4   5  413.66   39.90
   1  -4   5  284.77   29.30
   1  -4   5  267.47   38.90
   1  -4   5  286.27   27.40
   1  -4   5  284.47   27.80
   1  -4   5  283.77   32.30
   1   4   5  213.78   30.50
   1   4   5  207.98   26.40
   1   4   5  202.68   26.60
   1   4   5  195.88   29.30
   1   4   5  192.18   33.70
  -1   4  -5  229.08   26.40
   2  -4   5   83.29   20.90
   2  -4   5   88.19   19.10
   2  -4   5   59.09   18.80
   2  -4   5   74.59   22.50
   2  -4   5   47.40   17.20
   2  -4   5   45.90   29.40
  -2   4  -5   72.59   18.10
   2   4   5   81.79   20.10
   2   4   5   65.79   18.70
   2   4   5   80.79   19.00
   2   4   5   72.09   28.60
   2   4   5   57.39   18.60
   2   4   5   83.19   18.20
   3  -4   5  717.63   55.09
   3  -4   5  732.53   59.39
   3  -4   5  712.33   57.49
  -3   4  -5  758.12   55.39
   3   4   5  747.43   55.99
   3   4   5  743.03   61.09
   3   4   5  812.62   54.49
   3   4   5  793.72   55.29
   4  -4   5  141.39   19.70
   4  -4   5  127.19   17.10
   4   4   5  164.18   18.00
  -4   4  -5  170.08   18.50
   4   4   5  121.29   20.10
   4   4   5  161.08   18.60
   5  -4   5  102.79   11.20
   5  -4   5   72.59   12.50
   5  -4   5  109.39   15.80
   5   4   5   78.19   14.70
   5   4   5   81.39   14.00
   4  -5  -5  313.67   26.70
   4  -5  -5  280.67   19.50
   4  -5  -5  239.58   20.80
  -4   5   5  219.58   18.60
  -4   5   5  314.57   23.00
   4   5  -5  294.57   22.60
  -3  -5   5  150.38   21.50
   3  -5  -5  146.29   13.60
  -3  -5   5  127.99   19.70
   3  -5  -5  126.39   19.90
   3  -5  -5  152.08   16.80
  -3   5   5  133.39   23.00
  -3   5   5  123.09   12.00
  -3   5   5  155.48   20.00
  -2   5   5    9.20   17.10
   1  -5  -5  702.53   45.30
  -1  -5   5  627.34   44.00
   1  -5  -5  619.94   49.30
  -1  -5   5  762.52   49.30
   1   5  -5  648.44   49.80
  -1   5   5  596.24   55.09
  -1   5   5  672.03   48.60
   1   5  -5  631.54   54.99
   0  -5   5  630.24   74.99
   0  -5   5  812.32   56.49
   0   5   5  871.81   58.09
   0   5  -5  788.72   59.09
   0   5  -5  768.52   57.29
   0   5   5  775.02   66.39
   0   5   5  908.31   67.89
   1  -5   5  477.45   46.10
  -1  -5  -5  575.54   45.40
   1  -5   5  500.85   44.30
   1  -5   5  496.85   42.20
   1  -5   5  564.14   60.79
  -1   5  -5  583.44   44.10
   1   5   5  588.34   50.79
   1   5   5  577.54   51.39
   1   5   5  595.84   45.00
   2  -5   5  717.83   51.29
   2  -5   5  619.74   46.40
   2   5   5  634.74   47.00
   2   5   5  589.54   55.29
  -2   5  -5  597.54   47.20
   3  -5   5  291.67   29.50
   3   5   5  253.17   26.40
  -3   5  -5  316.57   27.90
   4  -5   5  146.39   18.40
   4   5   5  164.78   16.80
   4   5   5  133.99   20.60
  -4   5  -5  161.18   16.30
   3  -6  -5  776.52   54.19
   3  -6  -5  839.32   52.99
   3   6  -5  848.42   52.19
  -3   6   5  697.63   51.69
   2  -6  -5  110.99   11.00
   2  -6  -5  150.18   28.40
   2  -6  -5   78.49   15.00
  -2  -6   5   73.99   11.80
   2   6  -5  105.79   14.20
  -2   6   5   98.29   13.10
   0  -6  -5  275.17   23.00
   0  -6   5  308.57   26.30
   0  -6  -5  269.17   31.40
   0   6  -5  296.77   29.90
   0   6   5  323.17   29.20
   1   6   5  315.47   32.70
   3  -6   5  261.07   22.00
   3   6   5  179.68   28.40
   3   6   5  238.48   22.30
   1  -7  -5  416.16   29.20
  -1  -7   5  356.86   28.10
   0  -7  -5  412.06   26.60
   0  -7  -5  402.86   33.60
   0  -7   5  377.76   29.10
   0   7  -5  383.96   28.50
   1  -7   5  252.47   20.80
   5   0  -6   11.20   16.60
   4   0  -6   65.89   15.10
   4   0  -6   64.29   15.90
   3   0  -6  642.24   46.80
   3   0  -6  616.24   51.99
  -3   0   6  548.05   49.30
  -3   0   6  619.84   48.60
  -2   0   6  211.08   29.30
  -2   0   6  161.48   26.10
  -2   0   6  189.68   26.40
  -2   0   6  202.58   25.70
   2   0  -6  210.48   24.60
  -1   0   6 1125.69   86.79
  -1   0   6 1155.08   86.79
  -1   0   6 1269.47   84.59
  -1   0   6 1283.37   92.49
   1   0  -6 1233.98   81.49
   0   0  -6  180.78   23.60
   0   0   6  197.48   26.90
   0   0   6  199.58   26.20
   0   0   6  208.48   26.40
   0   0   6  217.98   30.00
   0   0   6  220.38   29.60
   0   0   6  204.48   38.10
   1   0   6  913.51   72.59
   1   0   6  951.10   75.99
   1   0   6  937.91   71.29
   1   0   6  872.61   83.39
  -1   0  -6  901.41   64.19
   1   0   6  916.91   66.29
   1   0   6  957.70   67.69
   2   0   6  475.25   52.29
   2   0   6  519.35   42.50
   2   0   6  452.05   60.69
   2   0   6  541.85   43.80
   2   0   6  515.05   45.30
  -2   0  -6  492.95   41.80
   2   0   6  544.55   49.30
   3   0   6  339.87   37.70
   3   0   6  337.87   34.40
   3   0   6  338.07   32.30
   3   0   6  389.06   55.59
   3   0   6  337.37   41.10
   3   0   6  361.06   32.40
  -4   0  -6   -4.70   21.30
   4   0   6    8.10   10.90
   4   0   6    3.10    9.10
   4   0   6    5.40   11.80
   4   0   6    3.70    9.00
   4   0   6   -2.30   11.40
   5   0   6  301.57   28.30
   5   0   6  290.07   26.60
   5   0   6  265.87   25.80
   5  -1  -6  643.74   41.70
   5  -1  -6  529.55   44.40
   5   1  -6  567.44   43.20
   4  -1  -6  116.59   18.90
   4  -1  -6  123.09   18.40
   4   1  -6  150.68   22.20
   4   1  -6  152.68   20.80
  -3  -1   6  126.29   17.70
  -3  -1   6  109.39   23.30
   3  -1  -6  142.59   20.70
   3  -1  -6  145.39   21.30
   3   1  -6  150.58   21.10
  -3   1   6  101.19   20.50
  -3   1   6  165.18   21.20
  -3   1   6  126.69   23.10
  -2  -1   6  862.91   60.69
   2  -1  -6  780.12   54.19
  -2  -1   6  803.42   55.29
  -2  -1   6  708.23   57.69
  -2  -1   6  743.83   60.89
  -2   1   6  681.83   59.99
   2   1  -6  727.63   55.49
  -2   1   6  624.24   56.69
  -2   1   6  765.52   56.09
  -2   1   6  680.43   55.99
  -1  -1   6  142.99   35.40
   1  -1  -6  142.19   23.50
  -1  -1   6  127.59   27.10
  -1  -1   6  113.29   20.60
  -1  -1   6  139.49   26.40
  -1  -1   6  134.09   22.30
  -1   1   6  179.78   24.70
   1   1  -6  189.98   26.20
  -1   1   6  173.68   26.40
  -1   1   6  187.58   24.60
  -1   1   6  195.08   27.10
   0  -1   6  201.58   28.70
   0  -1   6  226.28   27.70
   0  -1   6  218.28   26.60
   0  -1   6  198.28   26.50
   0  -1   6  218.28   33.10
   0  -1  -6  193.38   23.40
   0  -1   6  217.28   40.00
   0   1   6  211.28   26.00
   0   1   6  204.18   27.90
   0   1   6  213.48   24.30
   0   1   6  203.98   32.80
   0   1  -6  210.28   24.90
   1  -1   6 1933.41  124.69
   1  -1   6 1992.40  130.19
  -1  -1  -6 1750.42  121.19
   1  -1   6 1964.00  125.99
   1  -1   6 1994.60  135.59
   1  -1   6 1852.91  130.89
  -1   1  -6 1947.41  122.89
   1   1   6 1973.70  135.99
   1   1   6 1865.71  122.49
   1   1   6 1947.41  132.79
   1   1   6 1931.31  128.09
   1   1   6 1919.11  125.79
   2  -1   6  168.28   36.90
   2  -1   6  143.09   25.70
   2  -1   6  148.99   26.80
   2  -1   6  173.78   25.70
   2  -1   6  141.89   22.80
   2  -1   6  144.69   26.00
   2   1   6  148.29   26.60
   2   1   6  121.39   24.80
   2   1   6  155.38   23.30
   2   1   6  164.28   25.90
   2   1   6  157.48   24.00
  -2   1  -6  154.88   23.70
   2   1   6   72.49   35.20
   3  -1   6  534.55   39.90
   3  -1   6  475.25   38.70
   3  -1   6  441.96   64.09
   3  -1   6  436.46   43.10
   3  -1   6  416.76   42.00
   3  -1   6  469.95   48.00
   3   1   6  372.56   44.50
   3   1   6  455.45   39.60
  -3   1  -6  446.66   39.40
   3   1   6  425.86   41.20
   3   1   6  439.06   37.70
   3   1   6  411.46   42.10
   4  -1   6  625.04   51.89
   4  -1   6  779.12   57.69
   4  -1   6  776.62   53.49
   4  -1   6  731.83   54.99
   4   1   6  630.74   52.09
   4   1   6  688.53   54.89
   4   1   6  701.63   55.99
   4   1   6  743.53   52.19
  -4   1  -6  685.03   50.39
   5  -1   6   53.49   11.80
   5  -1   6   81.29   11.80
   5  -1   6   71.59   12.30
   5   1   6   57.49   12.00
   5   1   6   76.39   11.90
   5   1   6   84.39   12.70
  -5   1  -6   70.09   14.20
   5  -2  -6    7.40   10.40
   5  -2  -6    2.50    2.90
   5  -2  -6    6.60   10.50
   5   2  -6    5.80    8.40
   5   2  -6   10.90   10.70
   4  -2  -6  235.38   22.10
   4  -2  -6  227.68   23.90
  -4   2   6  167.28   22.10
   4   2  -6  151.08   20.70
   4   2  -6  186.78   24.80
   4   2  -6  164.98   32.20
  -3  -2   6  346.97   37.20
   3  -2  -6  383.86   34.50
   3  -2  -6  406.16   32.40
  -3  -2   6  375.66   32.50
  -3   2   6  354.16   35.90
  -3   2   6  307.67   33.20
   3   2  -6  370.36   32.10
  -3   2   6  301.37   35.10
  -2  -2   6   37.50   30.50
  -2  -2   6   44.30   18.10
  -2  -2   6   35.10   16.30
  -2  -2   6   89.19   37.60
   2  -2  -6   59.79   15.00
   2  -2  -6   64.49   16.10
  -2   2   6   57.39   16.10
  -2   2   6   69.19   33.50
  -2   2   6   53.99   16.70
   2   2  -6   34.30   13.30
  -1  -2   6  629.44   49.20
  -1  -2   6  685.03   56.29
  -1  -2   6  593.24   51.59
  -1  -2   6  599.34   57.79
  -1  -2   6  583.14   61.09
   1  -2  -6  683.83   49.40
   1   2  -6  731.73   51.39
  -1   2   6  695.73   58.99
  -1   2   6  699.43   52.69
  -1   2   6  600.64   52.79
  -1   2   6  722.63   56.69
   0  -2  -6  614.14   47.80
   0  -2   6  640.94   48.10
   0  -2   6  660.53   55.59
   0  -2   6  664.13   48.90
   0  -2   6  613.64   52.09
   0   2   6  667.53   58.19
   0   2   6  642.84   55.29
   0   2   6  603.84   51.99
   0   2   6  615.34   51.09
   0   2  -6  626.14   48.90
   1  -2   6  250.47   29.50
   1  -2   6  242.48   29.00
   1  -2   6  239.88   46.10
   1  -2   6  233.58   27.70
   1  -2   6  261.67   33.20
   1   2   6  276.07   34.10
   1   2   6  290.27   35.50
  -1   2  -6  275.07   29.80
   1   2   6  263.67   31.30
   1   2   6  262.87   29.20
   2  -2   6  104.89   39.30
   2  -2   6  138.79   18.30
   2  -2   6  142.19   20.50
   2  -2   6  138.19   25.30
   2  -2   6  138.69   24.70
   2  -2   6  147.29   23.50
   2   2   6  103.09   22.60
   2   2   6  145.69   34.40
   2   2   6  127.99   20.90
  -2   2  -6  117.39   19.80
   2   2   6   98.99   17.90
   2   2   6  102.69   27.00
   2   2   6   99.29   22.70
   3  -2   6  743.73   54.59
   3  -2   6  774.52   60.19
   3  -2   6  670.03   59.99
   3  -2   6  649.43   57.79
   3  -2   6  732.33   56.29
   3   2   6  787.72   57.29
   3   2   6  827.12   55.39
   3   2   6  749.13   54.89
   3   2   6  748.83   59.29
   3   2   6  707.13   61.89
   4  -2   6   73.49   13.20
   4  -2   6   99.69   15.90
   4  -2   6   80.99   18.30
   4  -2   6   81.59   18.90
   4   2   6   91.89   18.30
   4   2   6  108.29   14.40
  -4   2  -6   81.09   15.90
   4   2   6  105.69   24.40
   4   2   6   86.19   15.60
   4   2   6   78.19   18.00
   5  -2   6  197.88   20.20
   5  -2   6  204.48   19.50
   5  -2   6  171.08   19.60
   5   2   6  185.98   17.10
   5  -3  -6  312.77   26.40
   4  -3  -6  207.48   22.10
   4  -3  -6  252.67   23.60
  -4   3   6  163.48   19.80
   4   3  -6  185.08   23.30
   4   3  -6  200.98   21.40
   3  -3  -6  180.88   20.90
   3  -3  -6  157.78   20.40
  -3  -3   6  122.19   27.40
   3   3  -6  149.09   20.20
  -3   3   6  142.19   23.70
   3   3  -6  148.59   30.00
   3   3  -6  133.29   19.90
  -3   3   6  151.68   22.60
  -3   3   6  128.69   22.30
   2  -3  -6  214.68   25.70
   2  -3  -6  266.07   27.30
  -2  -3   6  230.38   27.80
  -2   3   6  288.47   29.70
  -2   3   6  175.08   29.10
   2   3  -6  221.98   25.90
   1  -3  -6  184.88   25.50
  -1  -3   6  128.59   22.40
  -1  -3   6  184.98   28.00
  -1  -3   6  152.58   25.00
   1  -3  -6  136.39   24.70
  -1   3   6  202.48   22.80
  -1   3   6  166.28   28.30
  -1   3   6  213.68   26.40
   1   3  -6  230.38   25.60
   0  -3   6  401.26   37.70
   0  -3  -6  499.25   39.60
   0  -3   6  542.05   39.30
   0  -3   6  485.35   45.00
   0  -3   6  459.85   53.59
   0  -3   6  453.05   41.40
   0  -3   6  515.95   40.10
   0  -3  -6  371.86   40.80
   0   3  -6  477.35   39.50
   0   3   6  423.16   39.10
   0   3   6  398.46   46.30
   0   3   6  442.16   44.20
   1  -3   6  870.81   65.69
   1  -3   6  933.41   85.19
   1  -3   6  915.61   70.29
   1  -3   6  947.81   70.29
   1  -3   6  909.71   67.49
  -1   3  -6 1001.90   66.79
   1   3   6  890.71   72.29
   1   3   6 1033.90   77.49
   1   3   6  996.50   67.29
   1   3   6  944.21   68.49
   1   3   6  891.61   64.09
   2  -3   6   18.80   17.30
   2  -3   6   21.60   14.10
   2  -3   6   15.70   13.60
   2  -3   6   26.70   11.20
   2   3   6   16.10   14.10
   2   3   6    6.20   13.20
   2   3   6   17.20   14.20
   2   3   6    9.80   11.00
   2   3   6   24.50   17.30
   2   3   6   21.10   13.90
  -2   3  -6   29.20   11.80
   3  -3   6  265.97   29.50
   3  -3   6  313.87   29.80
   3  -3   6  308.97   28.20
   3  -3   6  286.17   24.80
   3   3   6  237.28   25.40
  -3   3  -6  259.47   26.10
   3   3   6  203.38   29.10
   3   3   6  224.68   25.20
   3   3   6  204.18   27.40
   3   3   6  186.38   29.80
   3   3   6  213.48   22.70
   4  -3   6  423.26   39.20
   4  -3   6  526.85   43.20
   4   3   6  572.74   38.10
   4   3   6  544.45   40.80
   4   3   6  519.65   39.30
   4  -4  -6  238.38   18.60
   4  -4  -6  248.08   17.30
   4  -4  -6  224.98   21.20
  -3  -4   6  142.29   21.80
   3  -4  -6  118.49   22.80
   3   4  -6  162.78   18.40
  -3   4   6  190.98   30.70
  -2   4   6   22.10   21.10
  -1  -4   6  561.74   57.89
   1  -4  -6  544.45   42.40
  -1  -4   6  462.25   65.79
  -1   4   6  572.14   50.49
  -1   4   6  549.54   42.20
  -1   4   6  594.74   51.29
  -1   4   6  665.93   47.30
   0  -4   6  751.32   58.39
   0  -4   6  713.93   56.99
   0  -4  -6  850.71   55.19
   0  -4   6  767.42   73.29
   0   4   6  732.13   52.69
   0   4   6  706.63   59.89
   0   4   6  737.73   54.29
   0   4   6  755.22   62.59
   1  -4   6    3.10   14.20
   1  -4   6    6.50   10.00
   1  -4   6    4.70   18.20
   1   4   6    6.10   13.00
   1   4   6   -2.30   13.80
  -1   4  -6   -3.60   20.90
   1   4   6    7.60   10.10
   1   4   6   -6.90   11.90
   2  -4   6  141.19   20.40
   2  -4   6  209.48   20.70
   2  -4   6  166.18   22.10
   2  -4   6  112.59   22.00
   2   4   6  178.88   21.80
   2   4   6  160.18   19.80
   3  -4   6  255.67   25.40
   3   4   6  286.77   29.70
   3   4   6  374.86   29.70
   3   4   6  331.47   29.00
   4  -4   6   24.90    8.50
   4  -4   6   18.40    6.50
  -4   4  -6   21.80    9.50
   4   4   6   14.20    9.10
   4   4   6   16.70    7.60
   3  -5  -6   14.40    5.40
   3  -5  -6   15.40    7.50
  -3   5   6   25.80   11.90
   3   5  -6    8.80    7.60
   2  -5  -6  575.44   38.20
   2  -5  -6  555.04   35.30
   2   5  -6  465.15   39.90
  -2   5   6  486.85   35.50
  -1  -5   6    6.10   12.10
   1  -5  -6   16.90    9.50
   1  -5  -6   14.80    5.90
  -1   5   6    7.00   10.50
  -1   5   6    7.50    9.70
   1   5  -6    8.40   13.20
   0  -5   6  241.08   20.50
   0  -5  -6  204.68   24.10
   0   5  -6  189.88   24.20
   0   5   6  163.78   23.00
   0   5   6  158.68   19.40
   1  -5   6  373.86   35.30
   1   5   6  491.75   42.60
  -1   5  -6  501.75   37.20
   2   5   6   20.10   15.30
   3  -5   6  139.79   16.90
   3   5   6  122.09   27.10
   3   5   6  130.09   15.90
  -3   5  -6  165.68   17.80
   1  -6  -6  441.36   30.00
   1  -6  -6  400.16   26.20
  -1   6   6  346.07   31.30
  -1   6   6  396.66   27.60
   0  -6  -6  238.58   19.80
   4   0  -7  329.37   30.00
   4   0  -7  378.16   28.10
   3   0  -7    4.10   10.60
   3   0  -7    5.00    9.90
  -3   0   7    1.60    7.90
  -3   0   7    2.90   13.40
  -2   0   7  212.88   25.10
  -2   0   7  257.67   31.00
  -2   0   7  234.98   28.20
   2   0  -7  316.27   27.20
  -2   0   7  273.97   30.90
  -1   0   7 1259.17   90.89
  -1   0   7 1300.47   91.79
  -1   0   7 1368.66   88.29
  -1   0   7 1256.77   95.99
   0   0   7  133.19   21.90
   0   0   7  124.89   24.50
   0   0   7  137.89   22.20
   0   0  -7  210.38   36.80
   0   0   7  146.19   27.00
   1   0   7  224.78   29.00
   1   0   7  249.88   33.80
   1   0   7  215.18   24.30
   1   0   7  194.18   27.00
   1   0   7  208.28   25.80
  -1   0  -7  253.07   25.40
   2   0   7  492.85   44.60
   2   0   7  521.15   48.30
   2   0   7  485.15   41.00
  -2   0  -7  606.64   54.49
   2   0   7  482.35   42.20
   2   0   7  472.25   38.00
   3   0   7    2.00   13.20
   3   0   7    7.10    8.70
   3   0   7    1.50    8.20
   3   0   7    3.10   10.50
   3   0   7   -0.40    8.30
  -3   0  -7   -3.70   15.10
   4   0   7   19.00   14.00
   4   0   7   18.70    8.80
   4   0   7   18.20    9.60
   4  -1  -7  434.46   34.60
   4  -1  -7  464.65   31.90
   4   1  -7  375.46   31.00
  -3  -1   7  172.38   29.80
  -3  -1   7  155.78   19.20
   3  -1  -7  169.48   20.50
  -3   1   7  152.98   28.00
  -3   1   7  140.09   18.10
   3   1  -7  145.99   22.20
   2  -1  -7    0.30   10.00
  -2  -1   7    0.90   17.20
  -2  -1   7    6.50   13.70
  -2  -1   7    0.90   10.70
   2  -1  -7   -0.30   15.40
  -2  -1   7    6.20   14.00
  -2   1   7   24.70   16.90
  -2   1   7   -1.50   11.80
  -2   1   7   -0.40    8.80
   2   1  -7    9.10   10.80
   1  -1  -7   31.50   14.70
  -1  -1   7   26.60   13.60
  -1  -1   7   34.40   16.20
  -1  -1   7   19.60   13.80
  -1  -1   7   28.70   11.40
  -1   1   7   16.30   11.30
  -1   1   7   15.50   15.40
  -1   1   7   30.00   12.50
  -1   1   7    9.10   17.10
   0  -1  -7  442.46   36.10
   0  -1   7  338.27   32.70
   0  -1   7  373.06   39.80
   0  -1   7  342.17   36.90
   0  -1   7  356.66   35.10
   0   1   7  370.06   33.70
   0   1   7  312.07   32.90
   0   1   7  366.56   37.00
   0   1   7  354.36   41.30
  -1  -1  -7   14.60   14.20
   1  -1   7   15.20   17.60
   1  -1   7   17.30   14.10
   1  -1   7   29.40   14.00
   1  -1   7   17.00   11.90
   1  -1   7   16.70   11.10
  -1   1  -7   45.30   16.60
   1   1   7   31.40   15.20
   1   1   7   41.30   12.90
   1   1   7   31.40   15.00
   1   1   7    5.10   12.60
   1   1   7   34.90   13.50
   2  -1   7  188.08   22.30
   2  -1   7  127.09   23.40
   2  -1   7  169.98   27.10
   2  -1   7  157.38   21.20
   2  -1   7  195.98   23.40
   2   1   7  177.48   22.30
   2   1   7  185.38   26.60
  -2   1  -7  200.38   21.80
   2   1   7  155.98   21.40
   2   1   7  189.68   22.40
   2   1   7  168.18   25.50
   3  -1   7 1083.49   73.19
   3  -1   7 1106.29   73.09
   3  -1   7 1112.99   71.09
   3  -1   7  942.41   73.39
   3   1   7 1149.48   70.89
  -3   1  -7 1080.49   72.69
   3   1   7  948.11   75.89
   3   1   7  843.52   66.99
   4  -1   7    5.50    8.10
   4  -1   7    2.10    6.40
   4  -1   7   -2.30    5.20
   4  -1   7    3.20   10.50
   4   1   7    5.70    7.60
   4   1   7    3.20   13.20
  -4   1  -7    6.20   11.20
   4   1   7   11.40    8.60
   4   1   7    5.20    5.70
   4  -2  -7  215.08   20.80
   4  -2  -7  226.58   19.80
  -3  -2   7   24.00   13.80
   3  -2  -7   18.90   10.90
   3  -2  -7   25.90   12.90
   3   2  -7   19.70    9.90
   3   2  -7   29.70   12.50
  -3   2   7   18.50   17.40
  -3   2   7   28.00   16.90
  -2  -2   7  546.85   51.49
   2  -2  -7  739.33   48.00
   2   2  -7  726.13   48.20
  -2   2   7  640.74   50.89
  -2   2   7  599.24   52.29
  -1  -2   7  639.04   50.79
   1  -2  -7  604.54   52.99
  -1  -2   7  780.42   56.49
  -1  -2   7  815.92   60.29
   1   2  -7  796.32   52.79
  -1   2   7  689.43   56.19
  -1   2   7  778.12   53.69
  -1   2   7  613.64   57.89
   0  -2   7   48.70   15.80
   0  -2  -7   64.69   16.70
   0  -2   7   36.10   18.50
   0  -2   7   55.39   13.90
   0  -2   7   43.00   11.80
   0   2   7   62.19   13.20
   0   2  -7   63.09   17.00
   0   2   7   50.19   16.90
   0   2   7   45.10   16.40
   0   2   7   24.30   17.60
   1  -2   7  398.76   38.50
   1  -2   7  406.06   34.90
   1  -2   7  403.36   41.80
   1  -2   7  443.36   37.90
   1  -2   7  438.36   33.30
   1   2   7  371.86   35.50
   1   2   7  361.06   35.70
   1   2   7  411.46   42.90
   1   2   7  424.26   40.10
   2  -2   7  364.76   35.10
   2  -2   7  378.46   35.00
   2  -2   7  300.87   36.60
   2  -2   7  324.07   30.80
   2  -2   7  371.06   30.90
   2   2   7  355.66   31.60
  -2   2  -7  422.46   32.20
   2   2   7  367.36   35.10
   2   2   7  396.96   38.50
   2   2   7  423.76   43.40
   3  -2   7   58.99   16.00
   3  -2   7   82.39   11.70
   3  -2   7   82.09   13.30
   3  -2   7   57.79   13.30
   3   2   7   55.99   15.00
   3   2   7   61.09   13.60
   3   2   7  101.39   21.60
   3   2   7   60.49   13.40
   3   2   7   81.09   13.90
  -3   2  -7   77.69   14.50
   4  -2   7   37.10    9.50
   4  -2   7   29.00    8.70
   4  -2   7   41.20    9.40
   4  -2   7   16.20    8.60
  -4   2  -7   21.70   11.00
   4   2   7   38.90    8.60
   4   2   7   21.40    7.40
   4   2   7   21.80    7.80
   3  -3  -7  179.88   22.50
  -3   3   7  199.88   22.20
  -2  -3   7   12.50    9.30
   2  -3  -7    7.40    9.40
   2  -3  -7   -3.20   18.30
   2   3  -7    1.60    9.10
  -2   3   7   49.80   16.70
  -2   3   7   22.70    9.70
  -1  -3   7   60.79   17.40
  -1  -3   7   82.69   19.00
  -1   3   7   70.49   14.80
   1   3  -7   66.19   16.00
  -1   3   7   38.10   16.10
   0  -3   7   51.99   14.20
   0  -3   7   23.00   14.90
   0  -3   7   53.79   15.20
   0  -3   7   42.70   14.00
   0   3   7   82.49   19.40
   0   3   7   80.39   15.30
   0   3   7   41.30   15.90
   0   3  -7   86.79   17.10
   1  -3   7  144.69   22.20
   1  -3   7  140.29   21.60
   1  -3   7  174.38   25.30
   1   3   7  144.29   21.30
  -1   3  -7  208.08   22.20
   1   3   7  186.28   22.70
   1   3   7  184.98   25.00
   2  -3   7  430.56   31.10
   2  -3   7  342.47   32.50
   2  -3   7  481.15   38.90
   2  -3   7  424.76   36.10
   2   3   7  395.16   37.10
   2   3   7  430.26   31.80
   2   3   7  392.36   32.10
   2   3   7  365.96   34.30
  -2   3  -7  376.16   33.50
   3  -3   7  132.19   13.70
   3   3   7  162.38   17.60
   3   3   7  120.29   15.30
   3   3   7  176.58   17.00
   2  -4  -7  402.76   27.60
  -2  -4   7  278.57   30.70
  -2   4   7  404.16   32.10
  -1  -4   7  506.35   40.20
   1  -4  -7  523.95   34.50
  -1   4   7  403.76   38.90
   0  -4   7  130.69   20.90
   0  -4  -7  175.88   24.40
   0   4   7  164.98   21.30
   0   4  -7  181.98   20.00
   0   4   7  192.28   22.70
   1  -4   7  324.87   32.00
   1  -4   7  277.87   26.90
   1   4   7  330.67   32.70
   1   4   7  303.37   33.50
   1   4   7  336.37   29.00
   2  -4   7  221.58   18.40
   2  -4   7  160.28   22.40
   2  -4   7  178.88   18.60
   2   4   7  232.38   27.50
   2   0  -8   17.30   10.20
  -2   0   8   23.90   10.30
  -2   0   8   43.10    8.90
   2   0  -8   66.19   11.00
  -1   0   8   13.40   15.20
   1   0  -8    9.30   14.90
  -1   0   8   13.60    8.80
  -1   0   8   26.60   11.80
  -1   0   8    9.20    7.10
   0   0   8  374.36   28.30
   0   0  -8  353.06   27.70
   0   0   8  291.07   29.00
   0   0   8  275.17   30.00
   0   0   8  394.26   34.30
   1   0   8  136.09   19.80
   1   0   8  152.08   22.30
  -1   0  -8  170.28   19.80
   2   0   8   54.39    9.70
   2   0   8   76.39   13.80
  -2  -1   8  109.69   11.80
  -2  -1   8  111.39   14.40
  -2   1   8  103.89   15.70
  -1  -1   8  121.89   18.40
   1  -1  -8  112.69   14.70
  -1  -1   8   87.79   11.80
  -1  -1   8   69.79   14.40
  -1   1   8   88.19   14.90
   0  -1   8  113.79   15.60
   0  -1   8  133.39   16.20
   0   1   8  123.29   15.40
   0   1   8  155.48   16.00
   0   1   8  120.29   18.40
   0   1   8  111.59   17.90
   1  -1   8  156.08   22.70
   1  -1   8  191.48   17.60
   1  -1   8  196.98   20.00
   1  -1   8  141.89   18.10
   1   1   8  184.88   17.90
   1   1   8  142.89   20.70
  -1   1  -8  221.78   19.70
   1   1   8  154.08   19.30
   1   1   8  194.08   18.90
   2  -1   8  475.95   32.90
   2  -1   8  379.56   35.40
   2   1   8  458.15   33.30
   2   1   8  518.95   37.80
  -2   1  -8  426.36   33.60
   2  -2  -8  117.39   14.30
   2   2  -8   81.19   13.90
   1  -2  -8   23.10    9.40
  -1  -2   8   10.10   10.40
  -1  -2   8    7.10    7.10
  -1   2   8   14.20   12.50
  -1   2   8   14.00    8.60
   1   2  -8   11.50    8.60
   0  -2  -8  506.65   44.30
   0  -2   8  558.84   46.00
   0  -2   8  669.33   45.00
   0   2  -8  696.23   42.20
   0   2   8  616.34   47.20
   0   2   8  539.65   44.60
   1  -2   8   20.30    8.70
   1  -2   8   14.80    6.50
   1  -2   8   37.80   10.90
   1  -2   8   13.90    9.30
   1   2   8   27.90    9.00
   1   2   8   12.50    7.70
   1   2   8   25.80    8.80
  -1   2  -8   35.80    9.30
   1   2   8   22.50    8.50
   0   0   0    0.00    0.00

_computing_structure_solution     'SHELXT 2014/5 (Sheldrick, 2014)'
;
_shelx_hkl_checksum              2934
loop_
_space_group_symop_operation_xyz
'x, y, z'
'-x, y+1/2, -z'
loop_
_atom_site_type_symbol
_atom_site_label
_atom_site_fract_x
_atom_site_fract_y
_atom_site_fract_z
_atom_site_U_iso_or_equiv
_atom_site_adp_type
_atom_site_calc_flag
_atom_site_refinement_flags_adp
_atom_site_refinement_flags_occupancy
_atom_site_refinement_flags_posn
_atom_site_occupancy
_atom_site_disorder_assembly
_atom_site_disorder_group
Cl Cl1 0.67132(11) 0.54067(15) 0.68172(11) 0.0215(3) Uani d . . . 1 . .
F F1 -0.0657(4) 0.3778(3) 0.2689(4) 0.0272(6) Uani d . . . 1 . .
N N1 0.3562(5) 0.4628(5) 0.3640(5) 0.0223(7) Uani d . . . 1 . .
H H01 0.459(8) 0.475(7) 0.451(8) 0.031(13) Uiso d . . . 1 . .
H H02 0.330(6) 0.349(7) 0.354(6) 0.013(11) Uiso d . . . 1 . .
C C1 0.1734(6) 0.5589(7) 0.4325(5) 0.0244(9) Uani d . . . 1 . .
H H1A 0.209232 0.685958 0.463912 0.029 Uiso calc U . R 1 . .
H H1B 0.125552 0.499631 0.549945 0.029 Uiso calc U . R 1 . .
C C2 0.0058(5) 0.5576(7) 0.2856(6) 0.0217(8) Uani d . . . 1 . .
H H2 -0.106821 0.63747 0.329157 0.026 Uiso calc U . R 1 . .
C C3 0.0742(6) 0.6201(6) 0.0916(6) 0.0229(9) Uani d . . . 1 . .
H H3A 0.100219 0.752445 0.09545 0.028 Uiso calc U . R 1 . .
H H3B -0.035567 0.597782 -0.002665 0.028 Uiso calc U . R 1 . .
C C4 0.2646(6) 0.5229(8) 0.0289(5) 0.0265(9) Uani d . . . 1 . .
H H4A 0.312529 0.577274 -0.091047 0.032 Uiso calc U . R 1 . .
H H4B 0.233058 0.39358 0.004317 0.032 Uiso calc U . R 1 . .
C C5 0.4309(5) 0.5361(9) 0.1793(5) 0.0259(8) Uani d . . . 1 . .
H H5A 0.550619 0.465891 0.1384 0.031 Uiso calc U . R 1 . .
H H5B 0.472261 0.664348 0.195524 0.031 Uiso calc U . R 1 . .
loop_
_atom_site_aniso_label
_atom_site_aniso_U_11
_atom_site_aniso_U_22
_atom_site_aniso_U_33
_atom_site_aniso_U_12
_atom_site_aniso_U_13
_atom_site_aniso_U_23
Cl1 0.0213(4) 0.0168(4) 0.0264(4) 0.0000(5) -0.0034(3) -0.0001(5)
F1 0.0281(12) 0.0220(12) 0.0314(13) -0.0072(10) 0.0000(10) -0.0003(11)
N1 0.0234(18) 0.0160(16) 0.0272(18) -0.0017(14) -0.0084(14) -0.0011(15)
C1 0.0301(18) 0.019(2) 0.0242(18) 0.001(2) 0.0001(15) -0.002(2)
C2 0.0210(16) 0.015(2) 0.0291(18) -0.0031(19) -0.0004(14) -0.001(2)
C3 0.024(2) 0.0220(18) 0.022(2) -0.0031(16) -0.0057(16) 0.0020(17)
C4 0.0285(18) 0.027(2) 0.0240(18) -0.002(2) 0.0005(15) -0.001(2)
C5 0.0204(16) 0.0248(19) 0.0323(19) -0.004(3) -0.0002(14) -0.001(3)
loop_
_atom_type_symbol
_atom_type_description
_atom_type_scat_dispersion_real
_atom_type_scat_dispersion_imag
_atom_type_scat_source
C C 0.0181 0.0091 'International Tables Vol C Tables 4.2.6.8 and 6.1.1.4'
H H 0.0000 0.0000 'International Tables Vol C Tables 4.2.6.8 and 6.1.1.4'
Cl Cl 0.3639 0.7018 'International Tables Vol C Tables 4.2.6.8 and 6.1.1.4'
F F 0.0727 0.0534 'International Tables Vol C Tables 4.2.6.8 and 6.1.1.4'
N N 0.0311 0.0180 'International Tables Vol C Tables 4.2.6.8 and 6.1.1.4'
loop_
_geom_angle_atom_site_label_1
_geom_angle_atom_site_label_2
_geom_angle_atom_site_label_3
_geom_angle_site_symmetry_1
_geom_angle_site_symmetry_3
_geom_angle
_geom_angle_publ_flag
C1 N1 C5 . . 112.9(4) ?
C1 N1 H01 . . 110.(3) ?
C5 N1 H01 . . 107.(3) ?
C1 N1 H02 . . 109.(3) ?
C5 N1 H02 . . 110.(3) ?
H01 N1 H02 . . 107.(4) ?
N1 C1 C2 . . 111.6(3) ?
N1 C1 H1A . . 109.3 ?
C2 C1 H1A . . 109.3 ?
N1 C1 H1B . . 109.3 ?
C2 C1 H1B . . 109.3 ?
H1A C1 H1B . . 108.0 ?
F1 C2 C1 . . 107.8(4) ?
F1 C2 C3 . . 108.3(3) ?
C1 C2 C3 . . 113.1(3) ?
F1 C2 H2 . . 109.2 ?
C1 C2 H2 . . 109.2 ?
C3 C2 H2 . . 109.2 ?
C2 C3 C4 . . 112.1(4) ?
C2 C3 H3A . . 109.2 ?
C4 C3 H3A . . 109.2 ?
C2 C3 H3B . . 109.2 ?
C4 C3 H3B . . 109.2 ?
H3A C3 H3B . . 107.9 ?
C3 C4 C5 . . 111.2(4) ?
C3 C4 H4A . . 109.4 ?
C5 C4 H4A . . 109.4 ?
C3 C4 H4B . . 109.4 ?
C5 C4 H4B . . 109.4 ?
H4A C4 H4B . . 108.0 ?
N1 C5 C4 . . 109.8(3) ?
N1 C5 H5A . . 109.7 ?
C4 C5 H5A . . 109.7 ?
N1 C5 H5B . . 109.7 ?
C4 C5 H5B . . 109.7 ?
H5A C5 H5B . . 108.2 ?
loop_
_geom_bond_atom_site_label_1
_geom_bond_atom_site_label_2
_geom_bond_site_symmetry_2
_geom_bond_distance
_geom_bond_publ_flag
F1 C2 . 1.410(6) ?
N1 C1 . 1.485(6) ?
N1 C5 . 1.497(6) ?
N1 H01 . 0.91(6) ?
N1 H02 . 0.86(5) ?
C1 C2 . 1.505(5) ?
C1 H1A . 0.99 ?
C1 H1B . 0.99 ?
C2 C3 . 1.515(6) ?
C2 H2 . 1.0 ?
C3 C4 . 1.517(6) ?
C3 H3A . 0.99 ?
C3 H3B . 0.99 ?
C4 C5 . 1.518(5) ?
C4 H4A . 0.99 ?
C4 H4B . 0.99 ?
C5 H5A . 0.99 ?
C5 H5B . 0.99 ?
loop_
_geom_hbond_atom_site_label_D
_geom_hbond_atom_site_label_H
_geom_hbond_atom_site_label_A
_geom_hbond_site_symmetry_A
_geom_hbond_distance_DH
_geom_hbond_distance_HA
_geom_hbond_distance_DA
_geom_hbond_angle_DHA
_geom_hbond_publ_flag
N1 H01 Cl1 . 0.91(6) 2.19(6) 3.088(4) 170.(5) ?
N1 H02 Cl1 2_646 0.86(5) 2.29(5) 3.132(4) 168.(4) ?
loop_
_geom_torsion_atom_site_label_1
_geom_torsion_atom_site_label_2
_geom_torsion_atom_site_label_3
_geom_torsion_atom_site_label_4
_geom_torsion_site_symmetry_1
_geom_torsion_site_symmetry_2
_geom_torsion_site_symmetry_3
_geom_torsion_site_symmetry_4
_geom_torsion
_geom_torsion_publ_flag
C5 N1 C1 C2 . . . . 55.2(6) ?
N1 C1 C2 F1 . . . . 69.2(4) ?
N1 C1 C2 C3 . . . . -50.5(6) ?
F1 C2 C3 C4 . . . . -69.5(4) ?
C1 C2 C3 C4 . . . . 49.9(6) ?
C2 C3 C4 C5 . . . . -52.7(6) ?
C1 N1 C5 C4 . . . . -58.1(6) ?
C3 C4 C5 N1 . . . . 56.2(6) ?
