#------------------------------------------------------------------------------
#$Date: 2021-05-03 22:57:46 +0300 (Mon, 03 May 2021) $
#$Revision: 264802 $
#$URL: file:///home/coder/svn-repositories/cod/cif/4/51/86/4518685.cif $
#------------------------------------------------------------------------------
#
# This file is available in the Crystallography Open Database (COD),
# http://www.crystallography.net/
#
# All data on this site have been placed in the public domain by the
# contributors.
#
data_4518685
loop_
_publ_author_name
'Liu, Ming-li'
'Shi, Quan'
'Liu, Lei-fang'
'Li, Wen-bo'
_publ_section_title
;
 Lanthanide-Aromatic Iminodiacetate Frameworks with Helical Tubes:
 Structure, Properties, and Low-Temperature Heat Capacity
;
_journal_issue                   15
_journal_name_full               'ACS Omega'
_journal_page_first              10475
_journal_page_last               10485
_journal_paper_doi               10.1021/acsomega.1c01052
_journal_volume                  6
_journal_year                    2021
_chemical_absolute_configuration unk
_chemical_formula_sum            'C12 H14 Eu N O8'
_chemical_formula_weight         452.20
_space_group_crystal_system      monoclinic
_space_group_IT_number           4
_space_group_name_Hall           'P 2yb'
_space_group_name_H-M_alt        'P 1 21 1'
_atom_sites_solution_hydrogens   mixed
_audit_creation_method           SHELXL-2018/3
_cell_angle_alpha                90
_cell_angle_beta                 110.6490(10)
_cell_angle_gamma                90
_cell_formula_units_Z            2
_cell_length_a                   5.9823(8)
_cell_length_b                   22.145(3)
_cell_length_c                   6.1201(8)
_cell_measurement_reflns_used    2053
_cell_measurement_temperature    273(2)
_cell_measurement_theta_max      26.39
_cell_measurement_theta_min      3.56
_cell_volume                     758.69(18)
_computing_cell_refinement       'Bruker SMART'
_computing_data_collection       'Bruker SMART'
_computing_data_reduction        'Bruker SAINT'
_computing_molecular_graphics    'Bruker SHELXTL'
_computing_publication_material  'Bruker SHELXTL'
_computing_structure_refinement  'SHELXL-2018/3 (Sheldrick, 2018)'
_computing_structure_solution    'Bruker SHELXTL'
_diffrn_ambient_temperature      273(2)
_diffrn_measured_fraction_theta_full 1.000
_diffrn_measured_fraction_theta_max 1.000
_diffrn_measurement_device_type  'CCD area detector'
_diffrn_measurement_method       'phi and omega scans'
_diffrn_radiation_type           MoK\a
_diffrn_radiation_wavelength     0.71073
_diffrn_reflns_av_R_equivalents  0.0333
_diffrn_reflns_av_unetI/netI     0.0433
_diffrn_reflns_Laue_measured_fraction_full 1.000
_diffrn_reflns_Laue_measured_fraction_max 1.000
_diffrn_reflns_limit_h_max       7
_diffrn_reflns_limit_h_min       -6
_diffrn_reflns_limit_k_max       26
_diffrn_reflns_limit_k_min       -18
_diffrn_reflns_limit_l_max       7
_diffrn_reflns_limit_l_min       -7
_diffrn_reflns_number            4470
_diffrn_reflns_point_group_measured_fraction_full 0.764
_diffrn_reflns_point_group_measured_fraction_max 0.764
_diffrn_reflns_theta_full        25.018
_diffrn_reflns_theta_max         25.018
_diffrn_reflns_theta_min         1.839
_exptl_absorpt_coefficient_mu    4.172
_exptl_absorpt_correction_T_max  0.2864
_exptl_absorpt_correction_T_min  0.2672
_exptl_absorpt_correction_type   multi-scan
_exptl_absorpt_process_details   sadabs
_exptl_crystal_colour            colorless
_exptl_crystal_density_diffrn    1.979
_exptl_crystal_description       rectangle
_exptl_crystal_F_000             440
_exptl_crystal_size_max          0.430
_exptl_crystal_size_mid          0.420
_exptl_crystal_size_min          0.400
_refine_diff_density_max         1.764
_refine_diff_density_min         -1.372
_refine_diff_density_rms         0.242
_refine_ls_abs_structure_details
; 
 Refined as an inversion twin. 
;
_refine_ls_abs_structure_Flack   0.59(6)
_refine_ls_extinction_method     none
_refine_ls_goodness_of_fit_ref   1.024
_refine_ls_hydrogen_treatment    constr
_refine_ls_matrix_type           full
_refine_ls_number_parameters     189
_refine_ls_number_reflns         2043
_refine_ls_number_restraints     491
_refine_ls_restrained_S_all      0.930
_refine_ls_R_factor_all          0.0454
_refine_ls_R_factor_gt           0.0379
_refine_ls_shift/su_max          0.008
_refine_ls_shift/su_mean         0.000
_refine_ls_structure_factor_coef Fsqd
_refine_ls_weighting_details
'w=1/[\s^2^(Fo^2^)+(0.0364P)^2^+18.1177P] where P=(Fo^2^+2Fc^2^)/3'
_refine_ls_weighting_scheme      calc
_refine_ls_wR_factor_gt          0.0955
_refine_ls_wR_factor_ref         0.1075
_reflns_Friedel_coverage         0.485
_reflns_Friedel_fraction_full    0.513
_reflns_Friedel_fraction_max     0.513
_reflns_number_gt                1873
_reflns_number_total             2043
_reflns_threshold_expression     'I > 2\s(I)'
_cod_data_source_file            4cif.cif
_cod_data_source_block           m10eu_sq
_cod_original_cell_volume        758.71(17)
_cod_original_sg_symbol_H-M      'P 21'
_cod_database_code               4518685
_shelx_shelxl_version_number     2018/3
_shelx_space_group_comment
; 
The symmetry employed for this shelxl refinement is uniquely defined 
by the following loop, which should always be used as a source of 
symmetry information in preference to the above space-group names. 
They are only intended as comments. 
;
_shelx_estimated_absorpt_t_min   0.267
_shelx_estimated_absorpt_t_max   0.286
_shelx_res_file
; 
TITL m10eu in P2(1) 
    m10eu_sq.res 
    created by SHELXL-2018/3 at 17:41:28 on 18-Nov-2020 
CELL 0.71073   5.9823  22.1454   6.1201  90.000 110.649  90.000 
ZERR    2.00   0.0008   0.0027   0.0008   0.000   0.001   0.000 
LATT -1 
SYMM -X, 0.5+Y, -Z 
SFAC C  H  N  O  Eu 
UNIT 24 28 2 16 2 
OMIT  -1.00  52.00 
L.S. 36 0   11 
ACTA 
BOND $h 
FMAP 2 
PLAN 10 
CONF 
TWIN 
htab 
HTAB C8 O6_$6 
EQIV $6 x-1, y, z 
HTAB C8 O3 
HTAB O8 O4_$5 
HTAB O8 O3_$5 
EQIV $5 x, y, z-1 
HTAB O7 O2_$7 
EQIV $7 -x, y+1/2, -z 
size 0.43 0.42 0.40 
DFIX 1.50 0.01 c9 c10 c11 c12 
DFIX 1.47 0.01 n1 c9 n1 c11 
SIMU 0.02 0.04 3.8 
FREE Eu1  H7D 
FREE Eu1  C9 
FREE Eu1  C10 
TEMP 0.000 
ABIN 
WGHT    0.036400   18.117702 
BASF   0.59473 
FVAR       0.61652 
EU1   5    0.181924    0.538247    0.155743    11.00000    0.01269    0.01122 = 
         0.00939   -0.00037    0.00565   -0.00011 
N1    3    0.373952    0.430854    0.350370    11.00000    0.02799    0.01743 = 
         0.02437    0.00355    0.01957    0.00264 
O1    4    0.628418    0.135624    0.826256    11.00000    0.04002    0.02180 = 
         0.02905    0.00741    0.01387    0.00852 
O2    4    0.579887    0.101811    0.471918    11.00000    0.04595    0.02155 = 
         0.03606   -0.00336   -0.00357    0.01196 
O3    4    0.086960    0.504931    0.484737    11.00000    0.02377    0.02805 = 
         0.01916    0.00887    0.00600    0.01162 
O4    4    0.227905    0.471835    0.846741    11.00000    0.03300    0.02521 = 
         0.01848   -0.00056    0.01012    0.00827 
O5    4    0.598489    0.553018    0.229800    11.00000    0.02351    0.03930 = 
         0.02657    0.00590    0.01304    0.01049 
O6    4    0.893287    0.465766    0.213731    11.00000    0.02204    0.02223 = 
         0.03705   -0.00114    0.02154    0.00192 
O7    4   -0.196641    0.589770   -0.013543    11.00000    0.04024    0.03471 = 
         0.02777    0.00826    0.00855   -0.00028 
AFIX   3 
H7C   2   -0.303031    0.593730   -0.148263    11.00000   -1.20000 
H7D   2   -0.263321    0.576600    0.078787    11.00000   -1.20000 
AFIX   0 
O8    4    0.006058    0.589170   -0.220877    11.00000    0.05607    0.02096 = 
         0.01988    0.00532    0.00510   -0.00314 
AFIX   3 
H8D   2    0.004118    0.564280   -0.327257    11.00000   -1.20000 
H8E   2    0.099978    0.617680   -0.224057    11.00000   -1.20000 
AFIX   9 
C1    1    0.443497    0.203393    0.514462    11.00000    0.03002    0.02460 = 
         0.02642   -0.00019    0.01322   -0.00304 
C2    1    0.375314    0.242709    0.655217    11.00000    0.04286    0.02462 = 
         0.02473   -0.00007    0.01448    0.00312 
AFIX  43 
H2    2    0.387136    0.230622    0.804418    11.00000   -1.20000 
AFIX   5 
C3    1    0.290609    0.299209    0.577797    11.00000    0.03349    0.02524 = 
         0.03136    0.00289    0.01462    0.00516 
AFIX  43 
H3    2    0.241886    0.324388    0.674157    11.00000   -1.20000 
AFIX   5 
C4    1    0.276003    0.319528    0.360873    11.00000    0.02996    0.02070 = 
         0.02897    0.00082    0.00324   -0.00011 
C5    1    0.331624    0.277499    0.213737    11.00000    0.04753    0.02525 = 
         0.03280   -0.00332    0.01124   -0.00328 
AFIX  43 
H5    2    0.302340    0.287464    0.058474    11.00000   -1.20000 
AFIX   5 
C6    1    0.429025    0.221739    0.297402    11.00000    0.04158    0.02543 = 
         0.02607    0.00293    0.01727    0.00674 
AFIX  43 
H6    2    0.484608    0.196789    0.205406    11.00000   -1.20000 
AFIX   0 
C7    1    0.564312    0.143024    0.621269    11.00000    0.04580    0.01357 = 
         0.02195    0.00210    0.02314    0.00258 
C8    1    0.187434    0.384571    0.273044    11.00000    0.02743    0.01648 = 
         0.03214    0.00003    0.00537    0.00269 
AFIX  23 
H8A   2    0.122483    0.384320    0.103720    11.00000   -1.20000 
H8B   2    0.059083    0.395355    0.327870    11.00000   -1.20000 
AFIX   0 
C9    1    0.441186    0.446892    0.596264    11.00000    0.01689    0.02902 = 
         0.02947   -0.00697    0.00127    0.01322 
AFIX  23 
H9A   2    0.571954    0.475592    0.636011    11.00000   -1.20000 
H9B   2    0.498337    0.410981    0.690145    11.00000   -1.20000 
AFIX   0 
C10   1    0.238476    0.474029    0.658102    11.00000    0.03240    0.01467 = 
         0.01837   -0.00466   -0.00299   -0.00237 
C11   1    0.581815    0.416555    0.287449    11.00000    0.02044    0.01597 = 
         0.02824   -0.00502    0.00882    0.00633 
AFIX  23 
H11A  2    0.532613    0.390505    0.151285    11.00000   -1.20000 
H11B  2    0.697048    0.394569    0.414814    11.00000   -1.20000 
AFIX   0 
C12   1    0.699559    0.472074    0.235442    11.00000    0.01429    0.01409 = 
         0.02664   -0.00301    0.00917    0.00419 
HKLF 4 
  
  
  
  
REM  m10eu in P2(1) 
REM wR2 = 0.1075, GooF = S = 1.024, Restrained GooF = 0.930 for all data 
REM R1 = 0.0379 for 1873 Fo > 4sig(Fo) and 0.0454 for all 2043 data 
REM 189 parameters refined using 491 restraints 
  
END 
  
WGHT      0.0027     13.7428 
  
REM Instructions for potential hydrogen bonds 
HTAB O7 O2_$7 
HTAB O8 O3_$5 
HTAB O8 O4_$5 
HTAB C8 O3 
HTAB C8 O6_$6 
  
REM Highest difference peak  1.764,  deepest hole -1.372,  1-sigma level  0.242 
Q1    1   0.8032  0.4794  0.0025  11.00000  0.05    1.76 
Q2    1   0.5406  0.5116  0.1824  11.00000  0.05    1.57 
Q3    1   0.4624  0.4764  0.5294  11.00000  0.05    1.50 
Q4    1   0.5790  0.1412  0.4020  11.00000  0.05    1.46 
Q5    1   0.0410  0.4897  0.7767  11.00000  0.05    1.36 
Q6    1   0.1028  0.5694 -0.4937  11.00000  0.05    1.31 
Q7    1  -0.1023  0.6097  0.1976  11.00000  0.05    1.30 
Q8    1   0.4212  0.1590  0.7072  11.00000  0.05    1.29 
Q9    1   0.2320  0.6003 -0.3686  11.00000  0.05    1.27 
Q10   1   0.3507  0.4392  0.1566  11.00000  0.05    1.21 
;
_shelx_res_checksum              54498
_shelx_hkl_file
; 
  -1   0   0  14.829   3.902 
  -1   0   0  14.225   4.930 
   1   0   0  17.044   6.201 
  -2   0   0 1223.40   38.74 
  -2   0   0 1148.44   40.57 
   2   0   0 1258.33   47.04 
  -3   0   0 2156.23   65.89 
  -3   0   0 2048.60   68.54 
  -4   0   0  115.19   16.37 
  -4   0   0  116.05   19.28 
   4   0   0  118.53   25.89 
  -5   0   0 1544.71   61.38 
   5   0   0 1599.22   82.95 
   6   0   0  383.95   52.69 
   0  -1   0  -14.79    0.33 
   0   1   0  -15.14    0.77 
  -1  -1   0 5989.04  152.38 
   1  -1   0 5859.40  155.51 
  -1   1   0 6217.92  151.49 
   1   1   0 5822.37  157.36 
  -1   1   0 6246.46  153.96 
   2  -1   0 2361.57   75.76 
  -2  -1   0 2377.65   68.57 
  -2  -1   0 2327.87   70.23 
  -2   1   0 2415.23   70.81 
   2   1   0 2532.05   79.19 
  -2   1   0 2374.07   67.31 
  -3  -1   0  231.53   19.33 
   3  -1   0  197.76   25.04 
  -3   1   0  239.13   21.28 
   3   1   0  180.26   24.30 
  -3   1   0  266.71   19.87 
   4  -1   0 1965.49   84.04 
  -4  -1   0 2052.16   69.05 
  -4   1   0 2175.80   75.49 
   4   1   0 2069.88   88.28 
  -4   1   0 1904.95   67.35 
   5  -1   0  252.54   38.34 
  -5   1   0  246.00   25.42 
   5   1   0  273.38   40.48 
   6  -1   0  506.60   58.99 
   6   1   0  436.14   55.32 
   0  -2   0 9458.75  237.30 
   0   2   0 9999.00  237.60 
   0   2   0 9339.91  238.15 
   1  -2   0 1503.84   44.49 
  -1   2   0 1536.67   44.86 
  -1   2   0 1482.70   40.69 
   1   2   0 1484.55   48.24 
  -2  -2   0 1480.10   45.57 
   2  -2   0 1436.49   51.05 
  -2   2   0 1482.40   43.79 
  -2   2   0 1435.74   47.90 
   2   2   0 1316.11   53.29 
   3  -2   0 3652.77  114.64 
  -3  -2   0 3466.31  102.46 
  -3   2   0 3637.94  106.73 
  -3   2   0 3528.02  100.68 
   3   2   0 3631.87  119.41 
  -4  -2   0  61.387  13.760 
   4  -2   0  105.23   23.61 
  -4   2   0  100.24   18.68 
   4   2   0  84.944  23.717 
  -4   2   0  68.067  13.447 
   5  -2   0 1296.65   74.69 
  -5   2   0 1231.50   52.81 
  -5   2   0 1328.87   61.76 
   5   2   0 1481.15   79.34 
   6  -2   0  404.67   53.60 
  -6   2   0  503.89   39.12 
   6   2   0  357.25   51.74 
   0   3   0  1.0269  3.2912 
   0   3   0  -4.279   3.033 
   1  -3   0 3563.84   92.75 
  -1   3   0 3485.22   88.78 
   1   3   0 3413.38   97.91 
  -1   3   0 3441.83   94.23 
   2  -3   0 2301.67   71.53 
  -2   3   0 2202.09   63.48 
   2   3   0 2362.05   77.94 
  -2   3   0 2228.25   68.96 
  -3  -3   0  73.661  12.116 
   3  -3   0  26.587  11.724 
  -3   3   0  56.920  10.658 
  -3   3   0  63.976  13.806 
   3   3   0  63.274  17.304 
   4  -3   0 1971.62   82.16 
   4   3   0 2009.78   88.17 
  -4   3   0 1951.98   73.11 
  -4   3   0 1932.17   65.57 
   5  -3   0  226.97   35.99 
  -5   3   0  256.09   24.86 
  -5   3   0  309.95   32.86 
   5   3   0  229.79   39.31 
   6  -3   0  240.48   43.28 
   6   3   0  270.36   46.93 
  -6   3   0  238.31   27.80 
   0   4   0 4939.08  130.09 
   0   4   0 5067.54  128.86 
   1  -4   0 2643.71   71.59 
   1   4   0 2614.60   78.49 
  -1   4   0 2639.06   68.45 
  -1   4   0 2633.62   75.34 
   2  -4   0 2695.31   82.16 
  -2   4   0 2832.15   75.39 
   2   4   0 2735.24   90.10 
  -2   4   0 2704.41   81.86 
   3  -4   0 1961.23   72.21 
   3   4   0 2050.76   80.85 
  -3   4   0 1984.87   68.35 
  -3   4   0 2008.66   61.64 
   4  -4   0  17.261  15.050 
  -4   4   0  16.518   9.680 
   4   4   0   6.221  17.038 
  -4   4   0  -0.854  12.214 
   5  -4   0  765.08   53.49 
  -5   4   0  731.77   44.44 
   5   4   0  611.89   61.04 
  -5   4   0  831.77   38.97 
   6  -4   0  637.73   66.23 
  -6   4   0  558.78   49.87 
   6   4   0  650.94   70.88 
  -6   4   0  571.41   37.74 
   0   5   0  5.3720  7.5303 
   0   5   0  -6.106   6.380 
  -1   5   0 2163.61   60.33 
  -1   5   0 2081.00   63.84 
   1   5   0 2098.15   66.57 
   1   5   0 2111.98   60.78 
   2  -5   0 6663.08  177.27 
  -2   5   0 6416.65  178.08 
   2   5   0 6646.23  186.36 
  -2   5   0 6690.30  169.36 
   3  -5   0  935.43   44.29 
  -3   5   0  968.79   35.06 
   3   5   0  977.25   52.23 
  -3   5   0  981.38   42.77 
   4  -5   0 1055.92   55.74 
  -4   5   0 1043.46   50.15 
   4   5   0 1216.92   66.27 
  -4   5   0 1080.59   42.92 
   5  -5   0  417.76   44.69 
  -5   5   0  411.12   31.28 
   5   5   0  396.94   49.20 
  -5   5   0  378.64   37.21 
   6  -5   0  148.77   35.49 
   6   5   0  185.67   42.31 
  -6   5   0  201.40   26.03 
  -6   5   0  141.55   27.05 
   0   6   0 1203.24   40.85 
   0   6   0 1133.56   38.57 
  -1   6   0 1276.58   45.61 
   1   6   0 1276.89   47.43 
   1   6   0 1389.73   43.12 
  -1   6   0 1328.76   41.42 
   2  -6   0  555.96   26.29 
   2   6   0  509.29   32.56 
  -2   6   0  668.13   30.96 
  -2   6   0  609.51   22.11 
   3  -6   0 3397.27  104.63 
  -3   6   0 3350.17   93.29 
  -3   6   0 3229.00  102.55 
   3   6   0 3180.41  113.77 
   4  -6   0  73.286  17.974 
   4   6   0  97.155  25.838 
  -4   6   0  51.841  12.258 
  -4   6   0  52.655  16.889 
   5  -6   0 1086.40   63.18 
  -5   6   0 1199.77   48.59 
  -5   6   0 1018.45   55.01 
   6  -6   0  795.38   70.43 
  -6   6   0  688.27   40.64 
   6   6   0  599.25   69.13 
  -6   6   0  708.33   49.34 
   0   7   0  -4.720   7.560 
   0   7   0  -2.368   7.205 
  -1   7   0 2584.92   73.64 
  -1   7   0 2564.96   78.89 
   1   7   0 2585.05   75.97 
   1   7   0 2665.36   81.46 
   2  -7   0 4222.49  116.87 
   2   7   0 4143.65  116.12 
  -2   7   0 4126.60  110.03 
   2   7   0 4096.47  128.50 
  -2   7   0 4292.85  122.36 
   3  -7   0  279.69   26.15 
   3   7   0  232.48   29.97 
  -3   7   0  226.57   15.54 
  -3   7   0  200.83   23.26 
   4  -7   0 1337.55   62.28 
   4   7   0 1322.48   72.24 
  -4   7   0 1281.27   59.27 
  -4   7   0 1316.28   48.63 
   5  -7   0  865.34   55.73 
  -5   7   0  807.86   38.45 
   5   7   0  723.68   67.67 
  -5   7   0  794.95   47.39 
   6  -7   0  262.38   43.10 
  -6   7   0  223.15   34.69 
  -6   7   0  289.69   28.56 
   6   7   0  247.88   48.90 
   0   8   0 1047.57   40.55 
   0   8   0 1058.93   38.40 
  -1   8   0  27.694  10.346 
  -1   8   0  58.913   9.473 
   1   8   0  40.434  11.143 
   1   8   0  41.889   9.361 
   2  -8   0 1242.59   45.42 
  -2   8   0 1332.53   51.87 
   2   8   0 1386.74   47.25 
  -2   8   0 1343.07   40.57 
   2   8   0 1305.96   56.00 
   3  -8   0 1757.83   63.19 
  -3   8   0 1723.20   65.61 
   3   8   0 1641.07   74.43 
  -3   8   0 1638.38   53.01 
   4  -8   0  212.89   27.06 
  -4   8   0  170.33   27.39 
  -4   8   0  143.58   17.63 
   4   8   0  179.41   34.21 
   5  -8   0  947.13   57.84 
   5   8   0  849.54   75.22 
  -5   8   0  858.88   40.70 
  -5   8   0  886.36   52.51 
   6  -8   0  609.54   62.10 
  -6   8   0  704.45   50.28 
   6   8   0  728.14   77.68 
  -6   8   0  590.38   38.14 
   0   9   0  4.6723  8.5720 
   0   9   0  4.8546  8.1447 
  -1   9   0 3948.35  117.70 
   1   9   0 4055.15  115.23 
  -1   9   0 4129.80  111.37 
   1   9   0 3972.17  118.28 
   2  -9   0 1098.30   40.90 
   2   9   0 1197.73   53.37 
  -2   9   0 1128.91   47.96 
  -2   9   0 1165.60   36.40 
   2   9   0 1120.37   43.13 
   3  -9   0  227.18   22.64 
   3   9   0  179.82   19.55 
   3   9   0  218.01   30.53 
  -3   9   0  216.10   27.32 
  -3   9   0  199.80   15.97 
   4  -9   0 1409.21   63.50 
   4   9   0 1385.81   76.54 
  -4   9   0 1447.58   51.33 
  -4   9   0 1379.57   63.04 
   5  -9   0  509.47   49.37 
  -5   9   0  401.75   39.63 
  -5   9   0  429.98   28.47 
   5   9   0  455.72   56.01 
   6  -9   0  134.12   34.92 
  -6   9   0  106.25   27.97 
   6   9   0  57.715  31.544 
   0  10   0 2438.96   79.24 
   0  10   0 2477.32   76.18 
  -1  10   0  16.241   7.700 
  -1  10   0  29.357  11.680 
   1  10   0  0.1044  9.8331 
   1  10   0 -0.5247  8.8126 
   2 -10   0  610.14   27.68 
  -2  10   0  641.07   35.48 
   2  10   0  654.79   39.14 
  -2  10   0  610.35   23.40 
   2  10   0  622.83   31.14 
   3 -10   0 1451.86   56.99 
   3  10   0 1566.73   72.07 
  -3  10   0 1531.04   64.27 
   3  10   0 1497.23   56.30 
  -3  10   0 1536.07   49.40 
   4 -10   0  328.64   32.81 
   4  10   0  310.05   27.80 
   4  10   0  365.64   46.83 
  -4  10   0  264.06   22.28 
  -4  10   0  260.35   31.56 
   5 -10   0  954.36   58.18 
  -5  10   0  952.02   56.53 
  -5  10   0  966.84   43.54 
   5  10   0 1010.17   70.45 
   6  10   0  450.50   61.74 
  -6  10   0  365.11   42.24 
   0  11   0  3.6653  8.8273 
   0  11   0  -1.842   8.989 
  -1  11   0 2600.49   87.37 
   1  11   0 2646.42   87.86 
   1  11   0 2674.85   85.36 
  -1  11   0 2680.23   79.84 
   2 -11   0 1054.27   38.80 
   2  11   0 1027.72   51.87 
  -2  11   0  991.80   34.42 
  -2  11   0  991.43   47.85 
   2  11   0 1055.95   43.49 
   3 -11   0  166.25   20.17 
   3  11   0  173.05   31.49 
  -3  11   0  215.93   16.89 
  -3  11   0  251.00   29.25 
   3  11   0  193.89   21.72 
   4 -11   0 1875.63   75.65 
  -4  11   0 2011.26   64.25 
   4  11   0 1877.48   70.17 
   4  11   0 1922.69   91.99 
  -4  11   0 1870.49   78.30 
   5 -11   0  486.95   46.36 
   5  11   0  421.87   54.35 
  -5  11   0  434.82   28.49 
  -5  11   0  397.72   41.46 
   6  11   0  190.36   45.07 
  -6  11   0  365.76   43.09 
   0  12   0 3421.00  106.36 
   0  12   0 3357.28  101.92 
  -1  12   0  200.57   24.25 
   1  12   0  179.75   22.59 
   1  12   0  244.33   23.97 
  -1  12   0  223.06   19.51 
   2 -12   0 1308.46   45.75 
   2  12   0 1255.57   58.93 
   2  12   0 1266.25   51.79 
  -2  12   0 1284.80   57.16 
   3 -12   0 2134.10   72.17 
  -3  12   0 1957.70   80.18 
  -3  12   0 2077.20   63.44 
   3  12   0 2055.13   73.05 
   3  12   0 1985.94   87.83 
   4 -12   0  87.138  18.611 
  -4  12   0  85.196  21.253 
   4  12   0  79.191  17.063 
   4  12   0  78.473  27.573 
  -4  12   0  49.397  11.867 
   5  12   0  673.11   68.43 
  -5  12   0  561.65   49.98 
   0  13   0  -5.607  10.604 
   0  13   0   4.917  10.260 
  -1  13   0 2697.78   92.91 
   1  13   0 2713.68   91.64 
  -1  13   0 2715.58   83.32 
   1  13   0 2640.97   89.82 
   2 -13   0 1301.73   46.16 
   2  13   0 1241.13   52.91 
   2  13   0 1296.87   60.47 
  -2  13   0 1241.35   58.05 
   3 -13   0  463.21   29.34 
   3  13   0  528.83   49.97 
   3  13   0  507.36   33.48 
  -3  13   0  428.83   40.07 
  -3  13   0  492.26   24.12 
   4 -13   0 1904.94   80.52 
   4  13   0 2009.47   95.49 
   4  13   0 2003.77   74.58 
  -4  13   0 1970.84   65.00 
  -4  13   0 1881.56   81.93 
   5  13   0  210.69   42.49 
  -5  13   0  187.92   32.79 
   0  14   0 2374.39   81.26 
   0  14   0 2466.86   86.23 
  -1  14   0  641.58   32.39 
   1  14   0  593.68   38.13 
  -1  14   0  697.07   41.18 
   1  14   0  661.32   37.80 
   2 -14   0 1511.66   53.92 
   2  14   0 1605.14   70.71 
   2  14   0 1604.61   64.07 
  -2  14   0 1708.06   70.21 
   3 -14   0 1962.94   69.00 
  -3  14   0 1874.80   81.36 
   3  14   0 2001.98   75.05 
  -3  14   0 2063.13   62.70 
   3  14   0 1903.74   87.43 
   4  14   0   1.640  12.452 
   4  14   0  -9.579  20.073 
  -4  14   0   0.767  16.341 
  -4  14   0  1.8905  8.4116 
   5  14   0  608.58   66.52 
  -5  14   0  686.33   58.36 
   0  15   0  -7.000  11.637 
   0  15   0  -12.30   13.16 
   1  15   0 1074.89   53.75 
  -1  15   0 1048.15   44.89 
   1  15   0 1039.92   50.99 
  -1  15   0 1157.69   55.40 
   2 -15   0 1214.38   46.04 
  -2  15   0 1239.06   61.01 
   2  15   0 1226.28   56.41 
   2  15   0 1334.33   64.12 
   3  15   0  467.03   48.32 
   3  15   0  468.56   38.52 
  -3  15   0  458.31   43.62 
  -3  15   0  481.84   24.11 
   4  15   0 1288.72   77.30 
   4  15   0 1399.78   62.60 
  -4  15   0 1490.28   72.43 
  -5  15   0  137.58   30.30 
   5  15   0  187.32   40.83 
   0  16   0 2756.75   92.87 
   0  16   0 2714.86   97.63 
   1  16   0  359.50   36.25 
   1  16   0  372.28   36.29 
  -1  16   0  359.94   26.82 
  -1  16   0  347.66   35.41 
   2 -16   0  965.46   40.66 
   2  16   0 1041.25   51.13 
   2  16   0 1006.27   57.02 
  -2  16   0  928.26   54.47 
  -3  16   0 1324.56   68.87 
   3  16   0 1322.09   61.10 
  -3  16   0 1394.42   47.69 
   3  16   0 1346.87   73.08 
   4  16   0  -10.76   14.69 
  -4  16   0  14.317  20.832 
   4  16   0   7.488  24.212 
   5  16   0  684.44   71.38 
  -5  16   0  722.75   61.51 
   0  17   0  36.991  17.935 
   0  17   0  -7.958  13.502 
   1  17   0 1316.79   62.44 
  -1  17   0 1310.93   64.89 
   1  17   0 1364.66   64.63 
  -1  17   0 1426.42   55.62 
   2  17   0  851.18   55.77 
   2  17   0  945.64   51.47 
  -2  17   0  887.35   54.86 
  -3  17   0  222.20   19.66 
  -3  17   0  229.27   34.16 
   3  17   0  208.73   28.85 
   3  17   0  213.30   34.36 
   4  17   0  836.12   50.42 
   4  17   0  807.62   71.56 
  -4  17   0  945.65   59.82 
   5  17   0  177.55   41.23 
  -5  17   0  171.45   34.26 
   0  18   0 2736.28   96.58 
   0  18   0 2850.50  104.17 
  -1  18   0  182.57   29.63 
   1  18   0  166.20   27.66 
   1  18   0  135.84   27.32 
  -1  18   0  163.80   21.74 
   2  18   0  731.68   53.02 
  -2  18   0  813.50   52.32 
   2  18   0  707.96   45.30 
   3  18   0 1091.20   67.01 
  -3  18   0 1112.64   64.24 
   3  18   0 1182.97   59.35 
   4  18   0  12.296  26.769 
   4  18   0  12.900  17.439 
  -4  18   0  17.507  19.427 
   0  19   0  18.673  15.610 
   0  19   0  -10.57   16.11 
   1  19   0 1616.60   73.93 
  -1  19   0 1676.50   77.21 
   1  19   0 1736.89   76.36 
  -2  19   0  597.00   51.10 
   2  19   0  490.72   43.67 
   2  19   0  528.28   49.64 
   3  19   0  20.266  19.408 
   3  19   0  20.327  23.962 
  -3  19   0  -6.556  17.746 
   4  19   0  971.09   64.34 
  -4  19   0 1026.34   64.93 
   4  19   0  723.10   69.96 
   0  20   0 1674.07   69.84 
   0  20   0 1644.03   75.67 
  -1  20   0  221.02   33.62 
   1  20   0  225.66   31.85 
   1  20   0  166.13   28.96 
  -2  20   0  508.56   49.62 
   2  20   0  519.69   47.66 
   2  20   0  526.17   52.82 
  -3  20   0  827.65   58.27 
   3  20   0  906.96   55.04 
   3  20   0  721.12   65.20 
  -4  20   0  26.755  24.552 
   4  20   0  13.211  22.451 
   0  21   0  12.954  17.616 
  -1  21   0 1153.21   64.97 
   1  21   0 1156.04   62.56 
   1  21   0 1111.74   61.88 
   2  21   0  433.38   47.55 
   2  21   0  432.05   44.11 
  -2  21   0  427.11   47.15 
  -3  21   0  -19.97   20.30 
   3  21   0  28.507  22.924 
   3  21   0  10.518  18.505 
   4  21   0  758.06   71.48 
  -4  21   0  783.38   67.06 
   0  22   0  604.71   53.45 
   1  22   0  309.47   40.19 
  -1  22   0  328.56   42.23 
   1  22   0  360.96   64.35 
   2  22   0  353.19   41.42 
   2  22   0  376.40   46.35 
  -2  22   0  369.96   45.51 
   3  22   0  647.52   65.59 
   3  22   0  733.10   53.72 
  -3  22   0  743.37   65.12 
   0  23   0  11.250  21.458 
   1  23   0  736.73   60.56 
  -1  23   0  701.05   60.02 
  -2  23   0  535.02   54.50 
   2  23   0  542.28   51.06 
   2  23   0  620.57   58.66 
   3  23   0  28.764  24.936 
  -3  23   0  70.731  29.157 
   3  23   0  107.80   34.40 
   0  24   0  477.59   50.55 
  -1  24   0  311.73   43.74 
   1  24   0  300.41   41.48 
  -2  24   0  276.77   43.59 
   2  24   0  219.85   37.67 
   0  25   0  10.101  23.028 
  -1  25   0  535.59   55.85 
   1  25   0  565.26   55.94 
  -2  25   0  704.92   65.44 
   2  25   0  751.92   62.58 
   0  26   0  651.01   62.25 
   1  26   0  263.81   42.18 
  -1  26   0  283.37   42.45 
   6   0  -1 1442.64   83.01 
   5   0  -1  33.026  19.430 
   4   0  -1 1851.77   77.68 
   3   0  -1 2434.20   86.46 
  -3   0   1 2710.42   84.54 
  -2   0   1  73.081  12.465 
   2   0  -1  90.876  13.551 
  -1   0   1 8616.41  221.24 
   0   0  -1  170.24    7.81 
   0   0   1  173.59   12.02 
   1   0   1  0.0123  7.7265 
  -1   0  -1  7.9905  5.1452 
  -1   0  -1  5.7935  4.2837 
  -2   0  -1 4539.45  124.02 
   2   0   1 4463.22  134.95 
  -2   0  -1 4640.71  120.99 
   3   0   1  130.69   24.04 
  -3   0  -1  108.13   14.72 
  -3   0  -1  120.35   15.36 
   4   0   1 1215.52   67.64 
  -4   0  -1 1106.44   48.25 
  -5   0  -1 1714.22   69.31 
   5   0   1 1755.09   92.02 
  -6   0  -1  17.761  16.534 
   6   0   1   7.186  30.401 
   6  -1  -1  110.81   30.04 
   6   1  -1  103.45   30.92 
   5  -1  -1 1658.89   80.80 
   5   1  -1 1845.62   86.02 
   4  -1  -1  14.186  12.773 
  -4   1   1  40.598  15.420 
   4   1  -1  29.056  14.189 
   3  -1  -1  553.28   32.49 
   3   1  -1  599.98   34.07 
  -3   1   1  521.98   30.22 
   2  -1  -1 3504.01  103.27 
  -2   1   1 3540.02  101.86 
   2   1  -1 3538.67  103.91 
  -1   1   1  182.44   13.22 
  -1   1   1  183.75   15.91 
   1   1  -1  179.96   12.12 
   0  -1  -1 6252.24  160.26 
   0  -1  -1 6377.41  159.44 
   0  -1   1 6528.55  164.04 
   0   1  -1 6422.67  161.14 
   0   1   1 6520.20  167.25 
  -1  -1  -1  529.60   16.34 
  -1  -1  -1  494.54   20.49 
   1  -1   1  562.39   25.80 
  -1   1  -1  547.43   20.46 
   1   1   1  486.20   26.01 
  -1   1  -1  506.42   19.09 
   1   1   1  536.48   16.81 
   2  -1   1  147.80   20.25 
  -2  -1  -1  145.99   14.13 
  -2  -1  -1  146.49   12.18 
  -2   1  -1  149.28   12.98 
  -2   1  -1  150.21   13.89 
   2   1   1  165.42   21.17 
   3  -1   1 2862.15  101.55 
  -3  -1  -1 2864.18   87.25 
   3   1   1 2732.36  102.75 
  -3   1  -1 2822.09   86.43 
  -3   1  -1 2874.94   85.62 
   4  -1   1 1557.52   75.60 
  -4  -1  -1 1402.84   56.63 
  -4   1  -1 1421.18   56.39 
  -4   1  -1 1354.70   55.60 
   4   1   1 1479.33   78.52 
  -5  -1  -1  143.14   22.61 
   5  -1   1  84.855  29.282 
   5   1   1  76.453  29.089 
  -5   1  -1  94.077  18.260 
   6  -1   1  858.43   78.44 
  -6  -1  -1  848.53   49.74 
  -6   1  -1  859.20   49.67 
   6   1   1  791.62   78.54 
   6  -2  -1 1171.81   73.33 
   6   2  -1 1263.45   79.25 
   5  -2  -1  16.257  16.572 
   5   2  -1  -5.641  16.315 
  -5   2   1  13.205  15.913 
   4  -2  -1 1437.05   65.09 
  -4   2   1 1412.99   60.71 
   4   2  -1 1536.45   68.94 
   3  -2  -1 1882.88   68.94 
   3   2  -1 1875.83   70.90 
  -3   2   1 1869.71   66.13 
   2  -2  -1  -5.616   6.289 
  -2   2   1  10.883   8.677 
   2   2  -1  -4.963   6.583 
  -1   2   1 2018.42   59.97 
  -1   2   1 2072.45   63.36 
   1   2  -1 2088.62   60.09 
   0  -2   1 2369.13   63.33 
   0  -2  -1 2307.04   61.45 
   0   2   1 2389.23   60.87 
   0   2  -1 2334.94   63.66 
   0   2   1 2364.56   69.51 
   1  -2   1  357.04   19.35 
  -1  -2  -1  345.79   16.58 
  -1   2  -1  347.69   16.40 
   1   2   1  347.60   22.70 
  -1   2  -1  380.13   16.07 
   1   2   1  355.64   11.47 
  -2  -2  -1 5403.90  146.20 
   2  -2   1 5522.54  155.20 
  -2   2  -1 5432.95  144.41 
  -2   2  -1 5537.56  145.28 
   2   2   1 5261.08  158.04 
  -3  -2  -1  192.71   19.42 
   3  -2   1  208.60   27.32 
  -3   2  -1  187.22   18.71 
  -3   2  -1  177.85   17.66 
   3   2   1  208.53   29.57 
   4  -2   1 1101.37   65.90 
  -4  -2  -1 1269.17   52.51 
  -4   2  -1 1279.42   50.80 
  -4   2  -1 1270.56   52.36 
   4   2   1 1185.73   69.56 
   5  -2   1 1504.27   83.35 
  -5  -2  -1 1361.63   59.46 
  -5   2  -1 1378.21   58.63 
  -5   2  -1 1254.15   59.38 
   5   2   1 1437.79   82.74 
   6  -2   1  11.181  29.500 
   6   2   1  59.450  33.659 
  -6   2  -1  -7.126  13.790 
   6  -3  -1  131.93   31.15 
   6   3  -1  142.02   37.75 
   5  -3  -1 1484.85   73.66 
  -5   3   1 1372.06   65.88 
   5   3  -1 1484.11   77.37 
   4  -3  -1  184.78   26.21 
  -4   3   1  188.28   17.55 
  -4   3   1  185.91   25.55 
   4   3  -1  193.41   28.69 
   3  -3  -1  776.77   38.13 
   3   3  -1  781.37   41.16 
  -3   3   1  713.18   36.45 
  -3   3   1  753.21   27.90 
   2  -3  -1 3104.63   93.64 
  -2   3   1 3287.55   93.70 
  -2   3   1 3200.80   82.73 
   2   3  -1 3116.09   95.78 
   1   3  -1  61.719   9.155 
  -1   3   1  79.915  13.555 
  -1   3   1  76.808  11.020 
   0  -3  -1 2382.87   63.30 
   0  -3   1 2454.18   63.27 
   0   3  -1 2444.93   67.36 
   0   3   1 2330.32   72.38 
   0   3   1 2431.37   63.78 
  -1  -3  -1 1859.61   55.49 
   1  -3   1 1889.97   56.71 
  -1   3  -1 1935.62   56.56 
   1   3   1 1948.20   49.64 
  -1   3  -1 1864.29   54.25 
   1   3   1 1950.39   64.42 
  -2  -3  -1  12.129   6.726 
   2  -3   1  17.166  10.296 
   2   3   1  12.132  11.698 
  -2   3  -1  14.676   7.936 
  -2   3  -1  26.207   7.113 
  -3  -3  -1 3039.18   92.08 
   3  -3   1 2962.60  102.72 
  -3   3  -1 2869.72   88.10 
  -3   3  -1 2900.77   89.81 
   3   3   1 2991.22  107.64 
   4  -3   1  893.05   56.28 
  -4  -3  -1  713.75   39.06 
   4   3   1 1016.61   64.56 
  -4   3  -1  756.43   37.77 
  -4   3  -1  746.69   40.46 
  -5  -3  -1  111.95   20.44 
   5  -3   1  127.10   31.15 
  -5   3  -1  67.953  18.382 
   5   3   1  98.738  31.772 
  -5   3  -1  101.00   20.32 
   6  -3   1  723.63   73.45 
  -6   3  -1  738.30   45.86 
   6  -4  -1  657.42   61.86 
   6   4  -1  648.32   66.73 
  -6   4   1  701.60   56.89 
   5  -4  -1  81.965  23.275 
  -5   4   1  92.412  23.301 
   5   4  -1  127.83   29.51 
   4  -4  -1 1530.94   67.78 
   4   4  -1 1892.43   78.25 
  -4   4   1 1547.17   66.70 
  -4   4   1 1656.56   54.34 
   3  -4  -1 2900.05   95.90 
  -3   4   1 3006.75   82.70 
  -3   4   1 3049.40   95.32 
   3   4  -1 3003.00  101.33 
   2  -4  -1 1094.30   41.36 
  -2   4   1 1051.10   41.02 
   2   4  -1 1098.46   43.77 
  -2   4   1 1046.88   30.68 
  -1   4   1 2087.34   61.82 
  -1   4   1 2022.84   65.11 
   1   4  -1 2079.69   60.94 
   0  -4  -1 1727.55   47.83 
   0   4   1 1753.64   49.53 
   0   4  -1 1761.61   46.09 
   0   4  -1 1770.89   45.36 
   0   4   1 1802.25   59.06 
   0   4  -1 1719.29   53.00 
   1  -4   1 1881.02   54.89 
  -1  -4  -1 1794.91   55.31 
  -1   4  -1 1931.72   54.07 
  -1   4  -1 1889.77   57.69 
   1   4   1 1872.82   64.95 
   1   4   1 1931.52   50.87 
   2  -4   1 3470.19  106.78 
  -2  -4  -1 3588.08  102.14 
  -2   4  -1 3559.80   99.31 
   2   4   1 3621.40  115.47 
  -2   4  -1 3674.80  102.96 
  -3  -4  -1  167.01   18.97 
   3  -4   1  186.42   25.34 
  -3   4  -1  170.33   17.06 
  -3   4  -1  166.29   19.03 
   3   4   1  192.62   29.04 
   4  -4   1  759.65   53.03 
  -4  -4  -1  858.56   42.24 
  -4   4  -1  816.14   42.33 
  -4   4  -1  859.41   40.74 
   4   4   1  942.36   61.65 
  -5  -4  -1  950.52   49.96 
   5  -4   1 1064.12   69.71 
  -5   4  -1 1076.45   53.51 
  -5   4  -1 1053.02   48.99 
   5   4   1 1137.55   74.82 
   6  -4   1  -23.00   26.52 
   6   4   1  -14.61   27.71 
  -6   4  -1  28.890  17.789 
   6  -5  -1  132.82   31.06 
   6   5  -1  83.430  32.644 
  -6   5   1  105.23   26.75 
   5  -5  -1 1600.45   76.64 
  -5   5   1 1678.17   58.81 
  -5   5   1 1671.54   73.67 
   4  -5  -1 1280.22   59.62 
  -4   5   1 1280.58   57.92 
   4   5  -1 1333.20   66.19 
  -4   5   1 1297.21   45.49 
   3  -5  -1 2309.76   78.28 
  -3   5   1 2227.02   64.25 
  -3   5   1 2155.90   76.52 
   3   5  -1 2381.54   84.37 
  -2   5   1 3135.31   78.31 
   2   5  -1 2849.79   93.02 
  -2   5   1 3000.15   92.43 
  -2   5   1 3101.91   91.57 
   1   5  -1  54.854   9.234 
  -1   5   1  31.285   9.608 
  -1   5   1  21.731  10.237 
   1   5  -1  22.791   8.523 
   0   5   1 2488.26   75.61 
   0   5  -1 2475.58   60.68 
   0   5  -1 2359.29   70.26 
   0   5   1 2312.89   66.30 
   0   5  -1 2319.04   60.22 
  -1  -5  -1 3065.60   85.85 
   1  -5   1 3147.25   83.65 
   1   5   1 2943.83   81.86 
  -1   5  -1 3138.92   84.31 
   1   5   1 3183.87   98.27 
  -1   5  -1 3162.86   89.34 
  -2  -5  -1  437.69   23.06 
   2  -5   1  425.03   26.10 
  -2   5  -1  468.29   21.73 
  -2   5  -1  428.18   24.93 
   2   5   1  412.61   32.25 
   3  -5   1 1920.48   75.42 
  -3  -5  -1 1908.66   66.64 
  -3   5  -1 1940.74   63.39 
   3   5   1 1987.74   84.14 
  -3   5  -1 2006.07   67.88 
  -4  -5  -1  821.18   42.25 
   4  -5   1  876.97   53.43 
  -4   5  -1  818.94   43.25 
   4   5   1  855.04   60.44 
  -4   5  -1  791.55   38.44 
   5  -5   1  410.28   49.40 
  -5   5  -1  356.55   32.07 
   5   5   1  337.54   49.78 
  -5   5  -1  325.70   33.80 
   6  -5   1  648.08   69.36 
   6   5   1  643.14   73.64 
  -6   5  -1  698.00   42.61 
   6  -6  -1  603.85   57.52 
  -6   6   1  594.38   52.60 
   6   6  -1  610.06   66.63 
   5  -6  -1  34.186  17.001 
  -5   6   1  40.928  11.219 
   5   6  -1  27.496  21.242 
  -5   6   1  49.697  19.153 
   4  -6  -1 1676.23   69.38 
  -4   6   1 1614.95   53.57 
  -4   6   1 1623.90   67.60 
   4   6  -1 1698.06   77.70 
   3  -6  -1 2154.19   75.04 
  -3   6   1 2104.96   60.21 
  -3   6   1 2103.40   74.36 
   3   6  -1 2108.68   80.31 
  -2   6   1 1905.96   65.07 
  -2   6   1 1971.40   64.93 
  -2   6   1 1942.37   51.05 
   2   6  -1 1865.80   66.41 
  -1   6   1 4282.38  124.34 
   1   6  -1 4459.67  119.19 
  -1   6   1 4451.38  121.19 
   1   6  -1 4288.25  120.68 
   0   6   1 1707.70   52.95 
   0   6  -1 1784.44   45.67 
   0   6   1 1744.37   60.94 
   0   6  -1 1837.40   57.51 
   0   6  -1 1819.90   45.83 
  -1  -6  -1 2260.17   66.38 
   1  -6   1 2274.35   62.32 
   1   6   1 2322.45   78.14 
   1   6   1 2326.38   64.32 
  -1   6  -1 2237.64   70.31 
  -2  -6  -1 4675.81  127.35 
   2  -6   1 4303.92  128.66 
  -2   6  -1 4449.07  129.28 
   2   6   1 4598.38  120.63 
  -2   6  -1 4624.92  123.55 
   2   6   1 4720.52  143.08 
  -3  -6  -1  24.174  10.695 
   3  -6   1  56.597  17.421 
  -3   6  -1  51.649  14.832 
  -3   6  -1  39.018  10.761 
   3   6   1  63.600  22.008 
   4  -6   1 1114.36   62.48 
  -4   6  -1 1116.97   46.61 
  -4   6  -1 1119.40   52.48 
   4   6   1 1093.62   72.17 
   5  -6   1  738.59   64.45 
   5   6   1  860.24   78.01 
  -5   6  -1  808.48   47.78 
  -5   6  -1  801.69   41.64 
   6  -6   1   9.750  24.773 
  -6   6  -1   8.812  14.163 
   6   6   1  71.678  34.053 
   6  -7  -1  198.72   36.81 
   6   7  -1  241.71   45.29 
  -6   7   1  180.95   33.78 
   5  -7  -1 1910.00   83.26 
   5   7  -1 1814.52   92.25 
  -5   7   1 1876.61   80.06 
  -5   7   1 1840.05   62.92 
   4  -7  -1  784.64   45.25 
  -4   7   1  921.47   47.90 
   4   7  -1  847.63   55.48 
  -4   7   1  874.59   33.93 
   3  -7  -1 1580.68   59.64 
   3   7  -1 1589.52   66.69 
  -3   7   1 1487.43   60.08 
  -3   7   1 1502.74   45.61 
  -2   7   1 3189.69   98.40 
  -2   7   1 3297.75   82.41 
   2   7  -1 3168.44  100.33 
  -2   7   1 3120.10   97.70 
  -1   7   1  719.03   31.59 
   1   7  -1  753.27   31.77 
  -1   7   1  722.74   34.66 
   1   7  -1  734.08   30.26 
   0  -7   1 4722.92  115.32 
   0   7   1 4503.78  124.14 
   0   7   1 4652.98  132.70 
   0   7  -1 4668.09  115.69 
   0   7  -1 4428.13  128.01 
   1  -7   1 3623.43   92.52 
  -1   7  -1 3483.50  104.26 
   1   7   1 3640.57  111.56 
   1   7   1 3539.11   97.59 
   2  -7   1  67.373  12.725 
   2   7   1  53.346   8.879 
   2   7   1  84.780  18.958 
  -2   7  -1  90.952  15.462 
  -2   7  -1  76.256  10.168 
   3  -7   1 2295.59   82.15 
  -3   7  -1 2235.32   70.79 
  -3   7  -1 2158.15   77.34 
   3   7   1 2255.59   93.91 
   4  -7   1  712.28   50.03 
  -4   7  -1  654.44   34.78 
   4   7   1  685.97   63.32 
  -4   7  -1  740.21   42.62 
   5  -7   1  600.82   57.76 
   5   7   1  530.05   61.55 
  -5   7  -1  604.14   35.68 
  -5   7  -1  644.51   42.75 
   6   7   1  546.46   70.61 
  -6   7  -1  558.76   43.59 
   6  -8  -1  743.86   55.68 
  -6   8   1  719.19   59.19 
   6   8  -1  715.30   71.11 
   5  -8  -1  18.125  16.313 
   5   8  -1  -18.14   15.75 
  -5   8   1  3.0638  8.9931 
  -5   8   1  -7.315  15.942 
   4  -8  -1 1108.83   54.55 
  -4   8   1 1162.42   40.02 
  -4   8   1 1013.94   53.57 
   4   8  -1 1111.60   63.75 
   3  -8  -1 1954.73   69.10 
  -3   8   1 1968.40   54.71 
   3   8  -1 1828.78   76.22 
  -3   8   1 1762.68   69.50 
   2   8  -1  953.67   43.19 
  -2   8   1  982.44   27.50 
   2   8  -1  884.50   38.84 
  -2   8   1  961.90   42.12 
  -2   8   1  877.73   41.35 
  -1   8   1 4168.37  119.19 
   1   8  -1 4158.93  119.65 
   1   8  -1 4248.30  116.77 
  -1   8   1 4173.27  122.13 
   0   8   1  722.47   36.01 
   0   8   1  756.10   30.96 
   0   8  -1  751.89   22.79 
   0   8  -1  672.44   32.54 
   1  -8   1 3600.60   92.75 
   1  -8   1 3598.43   92.50 
   1   8   1 3719.84  101.10 
  -1   8  -1 3569.87  107.53 
   1   8   1 3622.04  114.21 
   2  -8   1 2536.07   79.87 
  -2   8  -1 2714.37   77.12 
   2   8   1 2658.51   76.71 
  -2   8  -1 2631.94   85.63 
   2   8   1 2640.60   95.33 
   3  -8   1  114.48   20.60 
  -3   8  -1  112.62   14.71 
  -3   8  -1  89.411  18.335 
   3   8   1  58.181  24.247 
   3   8   1  95.407  12.802 
   4  -8   1  417.02   41.52 
  -4   8  -1  457.82   37.76 
  -4   8  -1  346.15   28.43 
   4   8   1  458.33   52.46 
   5  -8   1  867.22   60.68 
   5   8   1  894.16   80.23 
  -5   8  -1  961.05   46.10 
  -5   8  -1  840.59   50.76 
   6  -9  -1  31.287  22.006 
  -6   9   1   4.844  20.875 
   6   9  -1  40.158  27.638 
   5  -9  -1 2360.24   95.06 
   5   9  -1 2229.96  106.18 
  -5   9   1 2374.14   93.90 
   4  -9  -1  506.31   35.82 
  -4   9   1  503.18   24.01 
  -4   9   1  510.13   42.33 
   4   9  -1  453.92   47.85 
   3  -9  -1  556.29   32.81 
  -3   9   1  599.07   22.39 
  -3   9   1  610.63   36.82 
   3   9  -1  618.64   41.27 
   2   9  -1 2972.52   93.87 
   2   9  -1 3147.76   99.31 
  -2   9   1 2982.98   96.67 
  -2   9   1 3054.98   78.90 
  -2   9   1 3038.67   96.61 
   1   9  -1  455.60   26.27 
  -1   9   1  459.74   28.33 
  -1   9   1  475.53   26.80 
   1   9  -1  443.85   24.05 
   0   9  -1 5873.51  164.02 
   0   9  -1 5925.27  149.54 
   0   9   1 5824.09  159.27 
   0   9   1 5901.65  167.46 
   1  -9   1 1638.22   42.77 
   1  -9   1 1548.92   42.81 
   1   9   1 1661.59   65.04 
  -1   9  -1 1594.04   59.02 
   1   9   1 1635.02   53.46 
   2  -9   1  50.137  10.702 
  -2   9  -1  43.360   9.068 
   2   9   1  39.560   9.759 
  -2   9  -1  49.579  14.209 
   2   9   1  32.404  16.793 
   3  -9   1 1397.60   58.30 
  -3   9  -1 1332.85   49.13 
   3   9   1 1438.06   72.56 
  -3   9  -1 1372.01   59.10 
   3   9   1 1409.47   49.02 
   4  -9   1  622.85   45.60 
  -4   9  -1  602.18   32.21 
   4   9   1  609.24   60.89 
  -4   9  -1  619.17   39.52 
  -5   9  -1  330.70   31.09 
   5   9   1  314.37   49.73 
  -5   9  -1  398.53   39.19 
   6 -10  -1  640.58   59.69 
  -6  10   1  730.61   53.36 
   6  10  -1  694.88   73.85 
   5 -10  -1   5.235  13.672 
  -5  10   1  -15.72   14.93 
   5  10  -1   0.558  18.112 
   4 -10  -1 1161.86   55.43 
  -4  10   1 1109.54   40.06 
  -4  10   1 1184.45   58.87 
   4  10  -1 1120.98   65.37 
   3 -10  -1 1339.80   55.81 
   3  10  -1 1401.76   65.67 
  -3  10   1 1414.70   42.79 
   3  10  -1 1496.41   57.57 
  -3  10   1 1463.73   61.45 
  -2  10   1  219.47   23.40 
  -2  10   1  210.97   10.13 
   2  10  -1  232.13   24.12 
   2  10  -1  231.39   22.49 
  -2  10   1  299.10   27.82 
  -1  10   1 4150.46  122.80 
   1  10  -1 4158.45  118.37 
  -1  10   1 4239.84  124.88 
   1  10  -1 4188.02  123.94 
   0  10  -1  876.24   28.88 
   0  10  -1  925.92   41.08 
   0  10   1  847.48   36.70 
   0  10   1  875.20   43.29 
   1 -10   1 1047.65   28.28 
   1  10   1 1012.11   40.24 
   1  10   1  986.94   50.01 
  -1  10  -1 1043.39   46.12 
   2 -10   1 1714.59   56.57 
   2  10   1 1822.50   59.07 
  -2  10  -1 1815.35   67.76 
  -2  10  -1 1812.62   56.44 
   2  10   1 1711.47   74.96 
   3 -10   1  89.419  18.276 
   3  10   1  97.870  14.766 
   3  10   1  128.08   29.45 
  -3  10  -1  108.62   15.12 
  -3  10  -1  70.035  19.487 
   4 -10   1  525.54   45.79 
   4  10   1  624.92   60.33 
  -4  10  -1  569.09   38.90 
  -4  10  -1  621.91   32.92 
   5  10   1  594.99   69.55 
  -5  10  -1  568.10   47.71 
  -5  10  -1  516.95   34.80 
   6 -11  -1  193.30   35.63 
   6  11  -1  104.52   36.28 
  -6  11   1  151.07   31.45 
   5 -11  -1 1348.46   67.45 
  -5  11   1 1297.09   67.14 
   5  11  -1 1331.12   81.19 
   4 -11  -1  189.08   26.15 
   4  11  -1  205.41   33.93 
  -4  11   1  241.86   18.09 
  -4  11   1  206.96   29.71 
   3 -11  -1  462.22   29.97 
   3  11  -1  428.87   40.53 
   3  11  -1  433.33   29.85 
  -3  11   1  453.60   38.13 
  -3  11   1  478.77   19.46 
   2  11  -1 2909.16   96.58 
  -2  11   1 2870.86   95.63 
  -2  11   1 2808.87   93.39 
   2  11  -1 2823.56   92.44 
   1  11  -1  372.40   23.69 
  -1  11   1  396.79   27.22 
  -1  11   1  424.23   27.80 
   1  11  -1  366.24   26.58 
   0  11  -1 3091.80   99.19 
   0  11   1 3050.69   94.19 
   0  11   1 3075.96  100.86 
   0  11  -1 3065.75   83.81 
  -1  11  -1 3195.10  102.70 
   1  11   1 3178.28   95.92 
   1  11   1 3167.37  108.54 
   2 -11   1  8.3222  7.6297 
   2  11   1  20.677  10.447 
   2  11   1  18.408  16.641 
  -2  11  -1  16.406   7.655 
  -2  11  -1  23.195  14.918 
   3 -11   1 1317.71   56.74 
   3  11   1 1453.98   74.72 
  -3  11  -1 1431.67   51.31 
  -3  11  -1 1458.67   63.90 
   3  11   1 1419.11   52.94 
  -4  11  -1  542.66   30.70 
   4  11   1  594.24   60.36 
  -4  11  -1  578.13   41.71 
  -5  11  -1  206.24   25.60 
   5  11   1  273.05   48.40 
  -5  11  -1  252.85   33.13 
   6 -12  -1  712.74   55.62 
   6  12  -1  730.70   75.99 
  -6  12   1  706.39   60.99 
   5 -12  -1  27.059  17.363 
   5  12  -1  18.576  15.608 
  -5  12   1  27.672  18.696 
   5  12  -1  26.340  24.912 
   4 -12  -1 1688.40   70.65 
   4  12  -1 1810.86   70.26 
   4  12  -1 1529.24   81.08 
  -4  12   1 1761.54   76.98 
   3 -12  -1  816.82   41.31 
  -3  12   1  838.68   29.34 
   3  12  -1  904.12   53.77 
   3  12  -1  905.15   45.29 
  -3  12   1  877.31   48.85 
   2  12  -1  37.414  14.536 
  -2  12   1  44.341  16.514 
   2  12  -1  47.041  14.529 
  -2  12   1  87.962  16.823 
   1  12  -1 3092.91  102.32 
   1  12  -1 3211.64   96.58 
  -1  12   1 3242.47  102.42 
  -1  12   1 3277.25  104.07 
   0  12  -1  978.81   46.61 
   0  12  -1  988.95   34.65 
   0  12   1 1030.23   48.72 
   0  12   1 1008.53   43.47 
   1 -12   1  562.42   16.92 
  -1  12  -1  518.71   34.43 
   1  12   1  523.76   30.28 
   1  12   1  536.03   38.18 
   2 -12   1 1575.26   52.68 
  -2  12  -1 1726.00   55.58 
   2  12   1 1769.66   77.88 
   2  12   1 1722.65   60.64 
  -2  12  -1 1790.54   69.58 
  -3  12  -1  117.37   26.11 
  -3  12  -1  128.49   16.19 
   3  12   1  168.44   20.33 
   3  12   1  168.11   33.33 
   4  12   1  646.54   62.32 
  -4  12  -1  648.58   33.95 
  -4  12  -1  719.41   46.12 
  -5  12  -1  707.07   39.93 
   5  12   1  533.35   64.22 
  -5  12  -1  671.62   47.70 
   6  13  -1  160.92   44.96 
  -6  13   1  58.275  25.187 
   5 -13  -1  858.48   53.15 
  -5  13   1  901.46   57.11 
   5  13  -1  854.26   49.02 
   5  13  -1  962.49   69.28 
   4 -13  -1  346.93   33.80 
   4  13  -1  300.34   31.46 
   4  13  -1  244.81   38.32 
  -4  13   1  282.59   34.65 
   3 -13  -1 1143.78   49.78 
  -3  13   1 1071.31   56.59 
   3  13  -1 1077.48   51.47 
   3  13  -1 1089.22   58.95 
  -3  13   1 1091.48   35.65 
   2  13  -1 2534.33   90.29 
  -2  13   1 2702.82   92.71 
   2  13  -1 2428.27   87.79 
  -2  13   1 2544.59   88.34 
   1  13  -1  -2.023   9.746 
  -1  13   1   7.493  12.047 
  -1  13   1   2.420  11.683 
   1  13  -1   0.936  10.816 
   0  13  -1 2063.77   75.76 
   0  13   1 1971.83   76.48 
   0  13   1 1955.49   70.95 
   0  13  -1 1932.74   59.72 
   1 -13   1 2807.71   78.40 
   1 -13   1 2817.10   72.70 
   1  13   1 2751.58   90.65 
  -1  13  -1 2901.50   97.75 
   1  13   1 2834.57  102.48 
  -2  13  -1  -1.543  14.332 
  -2  13  -1  1.3420  6.9799 
   2  13   1  -5.793  10.296 
   2  13   1  -34.27   13.65 
  -3  13  -1 1486.83   53.53 
   3  13   1 1491.40   78.37 
  -3  13  -1 1441.28   67.39 
   3  13   1 1503.21   57.43 
  -4  13  -1  514.75   31.67 
  -4  13  -1  620.38   44.08 
   4  13   1  654.06   63.03 
  -5  13  -1  93.369  24.654 
   5  13   1  155.31   39.01 
  -5  13  -1  93.919  18.599 
   5 -14  -1  -7.601  13.850 
   5  14  -1  -8.763  15.544 
  -5  14   1   1.607  18.171 
   5  14  -1  23.243  23.897 
   4 -14  -1 1355.70   60.85 
   4  14  -1 1239.31   71.57 
   4  14  -1 1332.33   60.96 
  -4  14   1 1321.57   65.86 
   3 -14  -1 1737.69   65.91 
  -3  14   1 1610.51   73.69 
   3  14  -1 1579.89   68.88 
   3  14  -1 1731.45   76.88 
  -2  14   1  412.65   38.18 
  -2  14   1  477.63   34.24 
   2  14  -1  458.03   39.24 
   2  14  -1  488.27   36.13 
   1  14  -1 1376.52   60.07 
  -1  14   1 1400.04   59.89 
   1  14  -1 1393.23   54.15 
  -1  14   1 1346.27   59.22 
   0  14  -1 1049.45   38.75 
   0  14   1 1071.09   54.27 
   0  14   1 1050.56   48.22 
   0  14  -1 1048.70   51.99 
   1  14   1  128.39   19.52 
  -1  14  -1  86.830  20.094 
   1  14   1  61.295  21.401 
   2  14   1 2082.09   74.97 
   2  14   1 2169.63   91.79 
  -2  14  -1 2098.60   82.74 
  -3  14  -1  95.123  14.106 
  -3  14  -1  72.576  22.476 
   3  14   1  90.805  17.734 
   3  14   1  37.167  24.772 
  -4  14  -1  603.62   51.09 
  -4  14  -1  635.27   34.58 
   4  14   1  578.05   61.30 
  -5  14  -1  511.05   44.17 
   5  14   1  521.08   64.63 
  -5  14  -1  539.13   50.79 
  -5  15   1  676.18   58.72 
   5  15  -1  683.21   47.27 
   5  15  -1  672.51   66.68 
   4 -15  -1  101.58   20.79 
   4  15  -1  100.38   22.86 
   4  15  -1  68.593  27.337 
  -4  15   1  140.04   26.89 
   3 -15  -1  562.91   35.70 
   3  15  -1  546.45   40.28 
   3  15  -1  519.40   48.04 
  -3  15   1  586.82   48.91 
   2  15  -1 1658.87   71.13 
   2  15  -1 1768.80   72.29 
  -2  15   1 1771.69   70.26 
  -2  15   1 1759.97   73.65 
   1  15  -1  70.983  17.446 
  -1  15   1  62.608  19.122 
   1  15  -1  74.574  19.507 
  -1  15   1  70.556  19.146 
   0  15  -1 1515.86   51.85 
   0  15   1 1414.90   65.87 
   0  15   1 1678.21   64.84 
   0  15  -1 1597.54   67.76 
   1  15   1 1815.94   71.02 
   1  15   1 1941.46   83.18 
  -1  15  -1 1907.02   77.10 
  -2  15  -1  47.728  21.765 
   2  15   1   9.759  13.272 
   2  15   1   9.551  22.450 
  -3  15  -1 1070.05   58.77 
   3  15   1 1072.77   50.70 
  -3  15  -1 1128.22   44.63 
   3  15   1 1160.34   69.50 
   4  15   1  340.72   50.86 
  -4  15  -1  474.93   47.33 
  -4  15  -1  442.51   29.41 
   5  15   1  58.982  32.194 
  -5  15  -1  65.852  25.707 
   5  16  -1  -42.59   19.88 
   5  16  -1  -14.61   16.43 
  -5  16   1  35.442  20.808 
   4  16  -1  891.98   62.49 
   4  16  -1 1010.60   54.35 
  -4  16   1  988.38   60.70 
   3 -16  -1  934.58   45.98 
   3  16  -1  870.62   50.02 
   3  16  -1  879.54   57.42 
  -3  16   1  804.41   52.78 
  -2  16   1  121.35   24.66 
  -2  16   1  64.394  19.526 
   2  16  -1  97.457  22.444 
   2  16  -1  73.344  19.766 
   1  16  -1 1343.46   57.42 
  -1  16   1 1348.55   61.79 
  -1  16   1 1381.96   62.33 
   1  16  -1 1445.57   64.90 
   0  16  -1 1008.33   54.55 
   0  16   1  998.73   50.58 
   0  16  -1 1040.33   40.41 
   0  16   1 1014.14   55.92 
   1  16   1   3.055  14.294 
   1  16   1  32.475  19.729 
  -1  16  -1  29.695  18.011 
   2  16   1 1570.01   80.93 
  -2  16  -1 1755.84   76.69 
   2  16   1 1599.25   66.45 
  -3  16  -1  162.51   29.24 
   3  16   1  253.72   39.52 
   3  16   1  209.45   25.90 
  -3  16  -1  239.25   21.78 
  -4  16  -1  641.11   35.06 
   4  16   1  490.18   61.00 
  -4  16  -1  552.21   51.76 
   5  17  -1  532.99   61.69 
   5  17  -1  565.16   49.28 
  -5  17   1  518.88   52.99 
  -4  17   1  126.27   28.91 
   4  17  -1  147.98   33.77 
   4  17  -1  126.46   25.31 
   3 -17  -1  815.51   43.49 
   3  17  -1  829.40   53.03 
   3  17  -1  825.47   49.19 
  -3  17   1  745.21   51.40 
   2  17  -1 1741.64   75.20 
  -2  17   1 1626.54   74.96 
   2  17  -1 1795.59   75.59 
  -2  17   1 1690.81   71.45 
   1  17  -1  32.164  18.889 
  -1  17   1  66.613  21.242 
   1  17  -1  14.945  15.150 
  -1  17   1  33.436  18.192 
   0  17   1  695.12   43.80 
   0  17   1  714.53   46.71 
   0  17  -1  690.84   46.44 
   1  17   1  951.59   58.37 
   1  17   1  986.32   51.30 
  -1  17  -1  913.77   54.31 
   2  17   1  -13.43   14.35 
   2  17   1  -6.760  20.837 
  -2  17  -1  17.622  17.136 
   3  17   1  996.87   67.87 
  -3  17  -1 1023.11   43.47 
  -3  17  -1 1071.33   62.32 
  -4  17  -1  406.88   34.84 
  -4  17  -1  455.14   48.33 
   4  17   1  400.26   54.59 
   5  18  -1  13.390  25.581 
  -5  18   1  19.333  24.116 
   5  18  -1  22.000  22.166 
   4  18  -1  982.25   68.24 
   4  18  -1  847.95   54.54 
  -4  18   1 1070.94   63.79 
   3  18  -1  761.80   53.05 
   3  18  -1  714.59   47.58 
  -3  18   1  686.81   50.69 
   2  18  -1  12.675  18.541 
  -2  18   1  40.738  19.637 
   2  18  -1  32.150  19.093 
  -2  18   1  74.008  20.255 
  -1  18   1 2448.61   92.47 
   1  18  -1 2421.05   86.94 
   1  18  -1 2508.30   96.75 
  -1  18   1 2389.98   93.14 
   0  18  -1  504.99   46.03 
   0  18   1  465.52   45.05 
   0  18   1  486.07   42.40 
   1  18   1  231.26   36.33 
   1  18   1  263.57   30.99 
  -1  18  -1  311.34   36.62 
   2  18   1 1409.06   76.88 
  -2  18  -1 1403.74   69.97 
   2  18   1 1463.20   63.58 
   3  18   1  165.16   37.90 
  -3  18  -1  157.71   30.87 
  -3  18  -1  122.58   18.44 
   4  18   1  360.75   52.48 
  -4  18  -1  498.52   50.74 
   4  19  -1  98.052  26.537 
   4  19  -1  48.530  27.634 
  -4  19   1  35.543  22.277 
   3  19  -1  450.07   46.67 
   3  19  -1  521.00   46.82 
  -3  19   1  478.41   48.59 
   2  19  -1 1669.90   76.61 
  -2  19   1 1708.28   72.77 
   2  19  -1 1694.43   75.28 
  -2  19   1 1689.53   78.33 
   1  19  -1  173.59   25.77 
  -1  19   1  166.88   28.26 
   1  19  -1  143.80   28.65 
  -1  19   1  197.29   29.58 
   0  19   1 1548.98   70.53 
   0  19  -1 1571.55   74.95 
   0  19   1 1591.02   75.04 
  -1  19  -1  587.33   51.24 
   1  19   1  629.90   48.71 
   1  19   1  653.39   44.34 
  -2  19  -1  88.826  24.354 
   2  19   1  33.883  19.563 
   2  19   1  43.494  24.065 
  -3  19  -1  799.43   56.11 
   3  19   1  837.07   65.15 
  -3  19  -1  801.82   38.88 
  -4  19  -1  250.39   39.79 
   4  19   1  253.20   46.61 
   4  20  -1  629.53   62.37 
   4  20  -1  906.18   58.91 
  -4  20   1  860.82   60.36 
   3  20  -1  431.57   48.27 
  -3  20   1  539.21   52.71 
   3  20  -1  492.31   47.91 
   2  20  -1  48.699  21.138 
   2  20  -1  42.475  20.293 
  -2  20   1  25.208  19.899 
  -1  20   1 2100.30   84.35 
   1  20  -1 2098.92   89.35 
  -1  20   1 1846.38   85.47 
   0  20  -1  571.14   51.80 
   0  20   1  671.88   45.34 
   0  20   1  600.67   47.21 
  -1  20  -1  531.13   49.40 
   1  20   1  507.92   51.07 
   1  20   1  644.06   50.24 
   2  20   1 1168.51   60.66 
  -2  20  -1 1218.16   67.38 
   2  20   1 1193.71   75.06 
  -3  20  -1  163.62   32.40 
  -3  20  -1  144.82   22.99 
   3  20   1  95.315  34.924 
   4  21  -1  132.67   35.51 
  -4  21   1  164.67   34.23 
   4  21  -1  107.65   28.28 
   3  21  -1  464.54   47.79 
   3  21  -1  516.45   54.01 
  -3  21   1  513.17   52.11 
  -2  21   1 1222.71   69.09 
   2  21  -1 1371.51   71.47 
   1  21  -1  -4.348  17.703 
  -1  21   1  17.879  16.944 
  -1  21   1  26.048  20.195 
   0  21   1  495.37   47.15 
   0  21  -1  475.55   46.96 
   0  21   1  427.84   43.61 
  -1  21  -1  878.23   58.33 
   1  21   1  802.14   56.97 
   1  21   1  817.25   50.48 
   2  21   1  50.696  22.083 
  -2  21  -1  -2.441  19.557 
   2  21   1  23.812  23.160 
  -3  21  -1  906.13   61.92 
   3  21   1  857.18   77.26 
  -3  22   1  469.03   51.65 
   3  22  -1  538.09   52.19 
   3  22  -1  558.30   55.53 
  -2  22   1  50.078  22.490 
   2  22  -1  42.892  22.744 
  -1  22   1 1431.04   73.91 
   1  22  -1 1376.40   74.22 
   0  22   1  547.44   49.86 
   0  22   1  576.42   51.49 
   0  22  -1  440.61   48.30 
  -1  22  -1  628.56   57.79 
   1  22   1  735.68   63.41 
   1  22   1  695.65   55.34 
   2  22   1  778.88   69.94 
   2  22   1  882.41   54.30 
  -2  22  -1  695.24   61.42 
   3  22   1  86.199  36.088 
  -3  22  -1  92.355  27.882 
   3  23  -1  561.04   54.89 
  -3  23   1  444.63   53.03 
   2  23  -1 1007.08   65.42 
  -2  23   1 1184.04   69.55 
   1  23  -1  16.491  22.115 
  -1  23   1  92.805  28.182 
   0  23   1  681.04   87.46 
   0  23   1  589.74   52.86 
   0  23  -1  534.01   53.67 
  -1  23  -1  845.44   60.40 
   1  23   1  892.82   58.11 
   1  23   1  807.04   60.29 
  -2  23  -1  175.54   35.25 
   2  23   1  137.26   37.41 
   2  23   1  135.91   29.86 
  -2  24   1  109.98   31.07 
   2  24  -1  153.48   33.19 
   1  24  -1  810.41   59.86 
  -1  24   1  925.50   61.21 
   0  24   1  374.93   45.78 
   0  24  -1  302.23   43.38 
  -1  24  -1  271.91   42.08 
   1  24   1  359.31   46.66 
   1  24   1  348.26   42.38 
  -2  24  -1  893.49   66.34 
   2  24   1 1039.85   72.46 
   2  24   1  994.46   62.12 
   2  25  -1  439.69   51.54 
  -2  25   1  550.78   58.96 
   1  25  -1  -8.940  21.089 
  -1  25   1  69.446  27.609 
   0  25   1  625.71   59.38 
   0  25  -1  712.63   63.05 
   1  25   1  809.67   63.99 
  -1  25  -1  733.88   67.32 
   0  26   1  237.28   38.52 
   0  26  -1  193.66   39.09 
   7   0  -2  681.82   69.64 
   6   0  -2  52.979  23.413 
   5   0  -2 1492.88   73.82 
   4   0  -2 1426.48   65.76 
   3   0  -2  97.104  16.808 
   2   0  -2 2441.22   78.41 
  -1   0   2 2488.71   78.41 
   0   0  -2 2699.21   74.92 
   0   0   2 2813.47   85.34 
  -1   0  -2 3360.73   86.32 
  -1   0  -2 3363.19   93.13 
   1   0   2 3248.37  102.23 
  -2   0  -2  208.45   18.47 
   2   0   2  196.61   24.65 
  -2   0  -2  202.68   12.07 
  -3   0  -2  271.90   18.89 
  -3   0  -2  287.21   25.93 
   3   0   2  234.48   33.20 
  -4   0  -2 1707.41   65.04 
   4   0   2 1504.44   83.19 
  -5   0  -2  20.181  14.418 
   5   0   2  47.716  28.555 
   7  -1  -2  139.75   37.64 
   7   1  -2  107.65   33.37 
   6  -1  -2 1602.94   86.09 
   6   1  -2 1654.63   87.06 
   5  -1  -2  373.34   41.20 
   5   1  -2  346.56   41.12 
   4  -1  -2  951.34   50.88 
   4   1  -2  995.82   52.26 
   3  -1  -2 6375.20  180.43 
   3   1  -2 6154.77  179.93 
   2   1  -2  35.957   9.967 
  -2   1   2  46.182  13.263 
  -1  -1   2 1545.34   54.47 
  -1   1   2 1627.81   57.13 
   0  -1  -2 3504.51   94.85 
   0  -1   2 3661.58  103.82 
   0   1  -2 3616.29   95.12 
   0   1   2 3647.44  106.91 
   0   1  -2 3462.49   95.15 
  -1  -1  -2  0.4977  2.3534 
   1  -1   2  -4.589   8.341 
  -1  -1  -2  5.0697  5.5580 
   1   1   2   2.901  10.278 
  -1   1  -2  6.9162  5.4371 
  -1   1  -2  -3.906   4.413 
   2  -1   2 2642.87   91.02 
  -2  -1  -2 2756.42   71.38 
  -2  -1  -2 2618.33   80.97 
  -2   1  -2 2692.23   80.98 
   2   1   2 2581.12   93.35 
  -2   1  -2 2604.42   74.14 
   3  -1   2  562.14   43.48 
  -3  -1  -2  484.27   29.88 
   3   1   2  552.37   50.13 
  -3   1  -2  497.87   25.47 
  -3   1  -2  572.24   30.90 
   4  -1   2  91.263  27.675 
  -4  -1  -2  90.805  17.973 
  -4   1  -2  70.138  16.549 
   4   1   2  92.768  29.255 
  -5  -1  -2  987.08   51.94 
   5  -1   2  991.99   72.98 
  -5   1  -2 1034.60   52.29 
   5   1   2 1045.19   74.21 
   7  -2  -2  623.99   65.78 
   7   2  -2  632.05   70.25 
   6  -2  -2  36.451  22.373 
   6   2  -2  62.667  25.295 
   5  -2  -2 1078.86   61.42 
   5   2  -2  952.34   59.39 
   4  -2  -2 2083.35   82.32 
  -4   2   2 2072.57   81.16 
   4   2  -2 2144.57   84.51 
   3  -2  -2  33.698  11.816 
   3   2  -2  49.409  13.771 
  -3   2   2  33.432  13.546 
   2   2  -2 3545.64  105.79 
  -2   2   2 3551.87  105.17 
  -2   2   2 3577.67  109.70 
  -1  -2   2 1473.42   50.74 
  -1   2   2 1462.15   55.24 
  -1   2   2 1470.06   47.89 
   0  -2  -2  617.63   22.31 
   0  -2   2  628.58   28.34 
   0   2  -2  609.44   23.57 
   0   2   2  620.54   32.84 
  -1  -2  -2 3142.01   89.89 
   1  -2   2 3117.91   96.17 
   1   2   2 3376.46  103.66 
  -1   2  -2 3154.64   87.28 
  -1   2  -2 3211.40   89.75 
  -2  -2  -2  723.75   33.05 
   2  -2   2  798.46   39.84 
  -2   2  -2  703.31   31.42 
  -2   2  -2  763.11   29.25 
   2   2   2  683.47   43.60 
   3  -2   2  562.08   44.08 
  -3  -2  -2  594.06   33.10 
   3   2   2  593.42   46.09 
  -3   2  -2  592.53   28.95 
  -3   2  -2  613.57   32.18 
  -4  -2  -2 1325.64   55.93 
   4  -2   2 1184.84   69.88 
  -4   2  -2 1235.89   53.62 
   4   2   2 1227.54   73.17 
   5  -2   2   5.447  24.871 
  -5  -2  -2   1.271  13.801 
  -5   2  -2   6.720  13.947 
   5   2   2  -13.01   21.90 
   7  -3  -2  25.165  25.430 
   7   3  -2   0.526  25.139 
   6  -3  -2 1236.89   73.26 
   6   3  -2 1120.65   71.99 
   5  -3  -2  638.94   45.42 
   5   3  -2  551.08   51.97 
  -5   3   2  588.46   49.03 
   4  -3  -2  817.05   45.35 
   4   3  -2  709.56   44.44 
  -4   3   2  697.57   43.15 
   3  -3  -2 3955.84  122.96 
  -3   3   2 4063.33  122.62 
   3   3  -2 3918.55  124.23 
   2   3  -2  528.65   28.63 
  -2   3   2  545.55   32.64 
  -2   3   2  591.12   29.65 
   1  -3  -2 1133.87   32.44 
  -1  -3   2 1240.79   43.10 
  -1   3   2 1154.62   40.19 
  -1   3   2 1161.79   47.91 
   0  -3   2 4795.17  129.30 
   0  -3  -2 4964.73  124.65 
   0   3   2 4524.95  138.17 
   0   3  -2 4737.43  127.36 
   1  -3   2  20.253   9.329 
  -1  -3  -2  21.206   6.661 
   1   3   2  10.752  12.480 
  -1   3  -2  28.575   7.758 
  -1   3  -2  19.136   6.853 
   2  -3   2 1993.99   71.36 
  -2  -3  -2 1882.66   64.33 
  -2   3  -2 1970.78   61.45 
  -2   3  -2 1978.74   63.60 
   2   3   2 2052.74   79.73 
  -3  -3  -2  734.43   37.46 
   3  -3   2  773.14   49.07 
  -3   3  -2  752.15   36.55 
  -3   3  -2  834.54   35.43 
   3   3   2  746.00   52.10 
   4  -3   2  62.414  25.781 
  -4  -3  -2  93.347  18.489 
   4   3   2  88.329  29.459 
  -4   3  -2  83.848  17.196 
  -5  -3  -2  889.63   50.15 
   5  -3   2  915.46   71.71 
  -5   3  -2  982.63   50.87 
   5   3   2  936.09   72.03 
   7  -4  -2  722.84   71.65 
   7   4  -2  826.44   81.66 
   6  -4  -2  25.281  20.180 
   6   4  -2  -3.647  19.099 
   5  -4  -2 1352.93   69.70 
  -5   4   2 1298.30   67.18 
   5   4  -2 1532.58   75.96 
   4  -4  -2 1780.01   73.11 
  -4   4   2 1685.00   71.35 
   4   4  -2 1767.66   75.44 
   3  -4  -2  -12.49    6.86 
   3   4  -2  -3.768   7.906 
  -3   4   2  12.331  11.323 
   2   4  -2 2820.64   88.33 
  -2   4   2 2912.19   94.25 
  -2   4   2 2830.44   88.19 
   1  -4  -2 3455.50   85.95 
  -1   4   2 3303.46   94.51 
  -1   4   2 3166.97  103.54 
   1   4  -2 3458.64   94.64 
   0  -4   2  269.34   16.83 
   0  -4  -2  288.06   14.31 
   0   4  -2  277.97   17.44 
   0   4   2  293.93   27.27 
   0   4   2  295.05   13.53 
  -1  -4  -2 2930.11   83.86 
   1  -4   2 2857.98   85.89 
   1   4   2 2861.61   98.09 
  -1   4  -2 2980.38   83.60 
  -1   4  -2 2877.01   84.28 
   2  -4   2  666.21   36.00 
  -2  -4  -2  723.20   32.70 
  -2   4  -2  713.72   31.31 
  -2   4  -2  722.88   31.25 
   2   4   2  743.46   45.62 
  -3  -4  -2  657.05   35.73 
   3  -4   2  639.94   44.59 
   3   4   2  773.45   54.89 
  -3   4  -2  689.05   34.51 
  -3   4  -2  739.99   34.28 
  -4  -4  -2 1204.81   52.93 
   4  -4   2  951.34   62.97 
  -4   4  -2 1047.27   48.73 
  -4   4  -2 1074.13   47.49 
   4   4   2 1117.43   72.36 
  -5  -4  -2  32.791  17.259 
   5  -4   2  47.813  29.582 
   5   4   2  50.245  30.892 
  -5   4  -2  54.308  17.446 
   6  -5  -2  837.53   58.13 
   6   5  -2  807.04   61.93 
  -6   5   2  813.23   56.81 
   5  -5  -2  876.70   54.02 
  -5   5   2  875.50   53.11 
   5   5  -2  791.25   55.27 
   4  -5  -2  573.90   38.43 
  -4   5   2  523.63   38.13 
   4   5  -2  592.29   41.60 
   3  -5  -2 3393.00  110.26 
   3   5  -2 3407.16  111.59 
  -3   5   2 3504.15  109.79 
  -2   5   2  83.777  16.765 
  -2   5   2  76.143  13.953 
   2   5  -2  87.324  13.500 
   1  -5  -2 1626.72   43.81 
  -1   5   2 1620.40   61.85 
  -1   5   2 1645.70   52.85 
   1   5  -2 1645.60   54.95 
   1   5  -2 1633.50   51.37 
   0  -5  -2 2932.90   79.71 
   0  -5   2 2954.22   80.57 
   0   5   2 2892.81   78.74 
   0   5  -2 2900.55   85.71 
   0   5   2 2846.25   95.57 
  -1  -5  -2  23.826   7.397 
   1  -5   2  30.416   8.992 
  -1   5  -2  30.584   9.929 
  -1   5  -2  27.421   7.322 
   1   5   2  33.603  15.710 
   2  -5   2 2580.84   81.62 
  -2  -5  -2 2502.65   78.33 
  -2   5  -2 2420.82   76.91 
   2   5   2 2294.75   92.72 
  -2   5  -2 2459.69   76.11 
   3  -5   2 1200.48   58.65 
  -3  -5  -2 1195.78   50.85 
  -3   5  -2 1128.10   46.74 
  -3   5  -2 1177.49   47.54 
   3   5   2 1076.52   66.81 
   4  -5   2  87.697  26.684 
  -4  -5  -2  95.819  18.872 
  -4   5  -2  90.981  17.216 
   4   5   2  135.46   33.66 
  -4   5  -2  174.37   22.01 
  -5  -5  -2  811.63   47.60 
   5  -5   2  708.89   69.50 
   5   5   2  938.72   72.43 
  -5   5  -2  781.60   44.75 
   6  -6  -2  57.852  22.665 
   6   6  -2  36.591  24.102 
  -6   6   2  78.601  24.302 
   5  -6  -2 1587.68   75.15 
  -5   6   2 1548.81   73.46 
   4  -6  -2 1557.29   69.20 
   4   6  -2 1685.11   74.55 
  -4   6   2 1695.11   71.16 
   3  -6  -2  90.804  17.560 
  -3   6   2  81.755  17.292 
   3   6  -2  103.37   18.71 
  -2   6   2 3977.22  118.75 
   2   6  -2 4038.61  118.98 
  -2   6   2 4143.77  126.44 
   1  -6  -2 2552.70   65.28 
  -1   6   2 2473.73   85.51 
  -1   6   2 2483.10   75.41 
   1   6  -2 2471.99   73.02 
   1   6  -2 2551.80   78.18 
   0  -6  -2  390.23   17.22 
   0  -6   2  397.41   16.85 
   0   6  -2  360.89   21.82 
   0   6   2  336.40   30.47 
   0   6   2  378.87   17.62 
   1  -6   2 2210.09   66.10 
  -1  -6  -2 2152.73   67.86 
   1   6   2 2309.86   59.21 
  -1   6  -2 2274.94   72.11 
   1   6   2 2234.26   84.34 
  -1   6  -2 2298.45   67.81 
  -2  -6  -2  908.80   39.00 
   2  -6   2  928.65   40.46 
  -2   6  -2  851.34   38.97 
   2   6   2 1089.24   56.62 
  -2   6  -2  825.60   35.92 
   2   6   2  937.04   25.48 
   3  -6   2 1016.32   54.32 
  -3  -6  -2 1184.73   50.22 
   3   6   2 1105.03   66.42 
  -3   6  -2 1176.81   49.32 
  -3   6  -2 1175.33   46.99 
   4  -6   2  768.72   57.22 
  -4  -6  -2 1040.37   50.17 
  -4   6  -2 1056.64   47.32 
  -4   6  -2 1079.33   49.07 
   4   6   2 1114.60   70.92 
  -5  -6  -2  16.932  14.413 
  -5   6  -2  -1.637  12.328 
   5   6   2  -6.631  28.567 
   6  -7  -2  685.88   52.52 
   6   7  -2  676.05   67.46 
  -6   7   2  750.99   54.35 
   5  -7  -2  541.46   48.37 
   5   7  -2  473.22   50.61 
  -5   7   2  632.60   45.43 
   4  -7  -2  277.03   30.73 
  -4   7   2  280.17   31.41 
   4   7  -2  250.45   32.86 
   3   7  -2 2004.41   76.45 
  -3   7   2 2021.96   74.46 
  -3   7   2 2025.17   78.04 
   2   7  -2  714.77   33.90 
  -2   7   2  697.44   34.93 
  -2   7   2  754.45   40.89 
   1   7  -2 2423.71   70.67 
   1   7  -2 2354.50   76.34 
  -1   7   2 2429.19   73.89 
  -1   7   2 2361.53   84.37 
   0  -7  -2 2986.07   81.63 
   0   7  -2 2905.69   76.92 
   0   7  -2 2966.13   90.40 
   0   7   2 2974.14  100.29 
   0   7   2 2966.99   83.34 
  -1  -7  -2  4.4762  6.9395 
   1  -7   2  4.5852  6.0561 
   1   7   2  3.2156  4.5851 
   1   7   2  -6.395  12.585 
  -1   7  -2  5.3628  8.3454 
  -1   7  -2  4.6496  5.9735 
  -2  -7  -2 2256.67   72.92 
   2  -7   2 2256.50   71.81 
  -2   7  -2 2213.72   73.96 
  -2   7  -2 2108.53   69.07 
   2   7   2 2231.23   90.49 
   2   7   2 2147.13   59.03 
  -3  -7  -2 1152.70   50.52 
   3  -7   2 1231.66   57.42 
  -3   7  -2 1087.78   46.36 
  -3   7  -2 1121.52   50.47 
   3   7   2 1276.12   71.59 
  -4  -7  -2  98.206  19.525 
   4  -7   2  60.279  23.810 
  -4   7  -2  93.234  19.071 
   4   7   2  103.38   31.58 
  -4   7  -2  81.181  17.139 
  -5   7  -2  869.83   47.04 
   5   7   2  839.09   79.65 
   6  -8  -2  10.680  18.031 
  -6   8   2  44.400  23.214 
   6   8  -2   9.126  26.635 
   5  -8  -2 1457.56   71.56 
   5   8  -2 1479.60   78.60 
  -5   8   2 1402.86   69.85 
   4  -8  -2  818.98   48.31 
  -4   8   2  882.13   49.75 
   4   8  -2  940.05   55.51 
   3   8  -2  82.249  17.440 
  -3   8   2  48.551  17.129 
  -3   8   2  106.53   19.43 
   2   8  -2 2863.62   92.74 
  -2   8   2 2864.87   92.32 
   2   8  -2 2954.61   91.90 
  -2   8   2 2899.33   99.45 
   1   8  -2 3739.65  105.03 
   1   8  -2 3931.18  114.26 
  -1   8   2 3746.02  110.31 
  -1   8   2 3900.30  122.03 
   0  -8  -2  554.25   22.80 
   0   8  -2  548.11   30.07 
   0   8  -2  596.18   17.46 
   0   8   2  537.50   36.96 
   0   8  -2  627.49   18.33 
   0   8   2  554.51   25.61 
  -1  -8  -2 1953.92   61.37 
   1  -8   2 1975.70   53.47 
  -1   8  -2 1938.94   67.60 
   1   8   2 1868.34   55.78 
   1   8   2 1879.36   78.68 
   2  -8   2  676.11   32.12 
  -2  -8  -2  699.87   33.87 
   2   8   2  682.21   48.83 
   2   8   2  716.82   25.18 
  -2   8  -2  737.12   36.82 
  -2   8  -2  644.14   30.77 
  -3  -8  -2 1097.83   48.07 
   3  -8   2  969.96   49.97 
   3   8   2  950.03   64.84 
  -3   8  -2 1056.02   44.13 
  -3   8  -2 1011.32   48.97 
  -4  -8  -2 1147.22   55.83 
   4   8   2 1220.05   76.98 
  -4   8  -2 1277.02   56.95 
  -4   8  -2 1242.20   53.44 
   5   8   2  -10.11   25.63 
  -5   8  -2  -9.518  12.751 
   6  -9  -2  851.06   60.04 
   6   9  -2  772.09   73.07 
  -6   9   2  878.02   61.07 
   5  -9  -2  426.90   42.91 
  -5   9   2  391.01   42.76 
   5   9  -2  414.99   48.11 
   4  -9  -2  86.824  19.245 
  -4   9   2  86.222  22.137 
   4   9  -2  74.353  21.428 
  -3   9   2 2220.05   81.89 
  -3   9   2 2322.45   85.61 
   3   9  -2 2165.13   82.86 
  -2   9   2  455.58   38.77 
  -2   9   2  362.46   26.94 
   2   9  -2  427.13   26.78 
   2   9  -2  444.29   28.70 
   1   9  -2 1930.99   59.00 
   1   9  -2 1946.63   68.00 
  -1   9   2 1896.19   64.82 
  -1   9   2 1867.08   73.68 
   0   9   2 2339.51   72.86 
   0   9  -2 2454.11   80.93 
   0   9   2 2476.85   90.20 
  -1  -9  -2  210.24   18.16 
   1   9   2  220.75   15.34 
  -1   9  -2  231.54   24.83 
   1   9   2  211.07   29.97 
  -2  -9  -2 1675.97   58.22 
   2  -9   2 1583.50   52.54 
  -2   9  -2 1553.32   61.24 
   2   9   2 1511.33   76.17 
   2   9   2 1594.12   48.36 
  -2   9  -2 1443.05   53.51 
   3  -9   2 1137.59   70.43 
  -3  -9  -2 1121.27   49.79 
  -3   9  -2 1055.43   45.33 
   3   9   2 1028.87   67.31 
  -3   9  -2 1090.87   52.76 
  -4   9  -2  12.691  12.611 
   4   9   2  10.172  24.114 
  -4   9  -2   4.097  11.542 
  -5   9  -2  975.67   50.42 
   5   9   2  996.78   88.71 
   6 -10  -2  88.774  25.215 
   6  10  -2  137.22   36.77 
  -6  10   2  89.494  27.317 
   5 -10  -2 1126.95   62.56 
  -5  10   2 1129.21   62.76 
   5  10  -2 1239.19   73.56 
   4 -10  -2  959.69   52.83 
  -4  10   2  979.59   54.44 
   4  10  -2 1020.05   59.18 
  -3  10   2  55.470  20.498 
   3  10  -2  109.28   19.97 
  -3  10   2  97.100  20.681 
  -2  10   2 2539.34   87.73 
   2  10  -2 2606.17   86.14 
   2  10  -2 2756.44   90.07 
  -2  10   2 2662.95   95.70 
   1  10  -2 2260.57   69.50 
   1  10  -2 2409.36   80.41 
  -1  10   2 2315.01   76.55 
  -1  10   2 2289.12   86.32 
   0  10  -2  834.50   40.68 
   0  10   2  780.99   46.52 
   0  10   2  862.23   35.21 
   1  10   2 1454.15   68.78 
   1  10   2 1482.11   48.28 
  -1  10  -2 1373.03   57.75 
   2 -10   2  493.20   30.64 
   2  10   2  434.14   46.26 
  -2  10  -2  466.65   26.02 
   2  10   2  478.09   23.43 
  -2  10  -2  520.13   34.59 
  -3  10  -2  635.33   33.78 
   3  10   2  496.33   54.18 
  -3  10  -2  573.47   39.60 
  -4  10  -2 1368.56   61.65 
   4  10   2 1367.45   84.43 
  -4  10  -2 1253.21   55.50 
   5  10   2  -17.52   28.21 
  -5  10  -2  -7.942  13.808 
   6 -11  -2  802.69   56.40 
  -6  11   2  748.74   63.82 
   6  11  -2  698.66   72.22 
   5 -11  -2  449.49   44.96 
  -5  11   2  441.50   45.27 
   5  11  -2  522.60   57.52 
   4 -11  -2  334.96   35.11 
   4  11  -2  314.42   39.82 
  -4  11   2  328.00   36.93 
   3  11  -2 1596.13   68.10 
  -3  11   2 1861.81   75.10 
   3  11  -2 1783.35   73.90 
  -3  11   2 1725.63   71.49 
  -2  11   2  354.39   36.04 
   2  11  -2  389.77   27.96 
   2  11  -2  391.78   33.31 
  -2  11   2  424.24   30.69 
  -1  11   2 1359.29   53.96 
   1  11  -2 1379.72   46.70 
  -1  11   2 1335.25   61.47 
   1  11  -2 1352.42   57.21 
   0  11   2 3437.40  116.46 
   0  11  -2 3180.74  104.83 
   0  11   2 3142.11   97.04 
  -1  11  -2  -9.668  10.860 
   1  11   2  -19.00   13.50 
   1  11   2  -9.907   8.283 
   2  11   2 1276.52   71.81 
  -2  11  -2 1304.07   58.56 
   2  11   2 1366.40   46.61 
  -2  11  -2 1340.64   49.86 
  -3  11  -2  892.97   42.04 
   3  11   2  976.46   65.50 
  -3  11  -2  971.41   51.85 
  -4  11  -2  -19.60   14.96 
   4  11   2  47.345  28.112 
  -4  11  -2  17.390  12.974 
  -5  11  -2  848.83   46.08 
   5  11   2  697.22   76.57 
   6 -12  -2  -2.501  16.289 
  -6  12   2  28.401  22.680 
   6  12  -2  15.581  25.094 
   5 -12  -2  622.20   46.02 
  -5  12   2  500.32   50.46 
   5  12  -2  526.93   56.61 
   4 -12  -2  700.00   43.51 
   4  12  -2  638.42   43.51 
   4  12  -2  743.00   52.47 
  -4  12   2  720.08   47.70 
   3  12  -2  30.052  16.767 
   3  12  -2  85.613  18.548 
  -3  12   2  66.606  19.529 
  -3  12   2  61.626  20.715 
   2  12  -2 2609.27   90.98 
  -2  12   2 2540.33   89.99 
  -2  12   2 2499.71   94.74 
   2  12  -2 2622.90   87.66 
  -1  12   2  908.87   50.24 
   1  12  -2  901.63   35.75 
  -1  12   2  862.91   42.24 
   1  12  -2  924.50   46.51 
   0  12  -2  617.59   37.60 
   0  12   2  617.95   43.89 
   0  12   2  563.40   31.53 
  -1  12  -2 2953.04  101.31 
   1  12   2 2922.64   89.76 
   1  12   2 3042.30  114.00 
  -2  12  -2  122.44   16.92 
  -2  12  -2  108.10   22.88 
   2  12   2  137.48   17.31 
   2  12   2  133.21   30.66 
  -3  12  -2  705.24   45.45 
   3  12   2  798.78   60.07 
  -3  12  -2  713.63   37.03 
  -4  12  -2 1105.84   50.87 
   4  12   2 1238.71   81.61 
  -4  12  -2 1121.03   60.34 
   6 -13  -2  737.33   55.21 
  -6  13   2  869.41   61.36 
   6  13  -2  748.05   74.02 
   5 -13  -2  446.12   44.90 
   5  13  -2  494.11   44.40 
  -5  13   2  489.77   48.53 
   5  13  -2  550.69   59.78 
   4 -13  -2  950.18   51.07 
   4  13  -2  822.43   56.99 
   4  13  -2  796.49   47.51 
  -4  13   2  694.06   48.91 
  -3  13   2 1568.48   71.64 
   3  13  -2 1646.51   72.13 
   3  13  -2 1658.41   70.02 
  -3  13   2 1597.27   70.60 
  -2  13   2  104.31   23.79 
  -2  13   2  71.301  20.964 
   2  13  -2  74.495  18.221 
   2  13  -2  53.104  15.728 
  -1  13   2  943.54   46.31 
  -1  13   2  928.83   53.00 
   1  13  -2 1020.46   38.97 
   1  13  -2 1077.20   51.10 
   0  13   2 2633.76   85.94 
   0  13   2 2684.70  101.90 
   0  13  -2 2513.84   92.70 
  -1  13  -2   4.902  14.563 
   1  13   2   3.747  19.464 
   1  13   2  -17.23   10.73 
   2  13   2 1247.14   73.09 
  -2  13  -2 1356.93   63.37 
  -2  13  -2 1258.41   48.74 
  -3  13  -2  753.33   46.46 
   3  13   2  783.92   60.85 
  -3  13  -2  790.71   38.28 
  -4  13  -2  97.017  18.666 
   4  13   2  96.628  34.033 
  -4  13  -2  121.34   26.26 
   6 -14  -2  79.794  26.911 
   6  14  -2  89.520  33.690 
  -6  14   2  122.64   30.51 
   6  14  -2  76.740  23.129 
   5 -14  -2  424.04   43.98 
   5  14  -2  474.51   44.28 
  -5  14   2  529.60   51.07 
   5  14  -2  536.30   57.33 
   4 -14  -2 1280.16   62.04 
   4  14  -2 1452.03   72.64 
   4  14  -2 1268.17   62.75 
  -4  14   2 1167.58   64.39 
   3  14  -2  220.87   29.73 
  -3  14   2  166.75   29.49 
   3  14  -2  165.00   26.08 
  -3  14   2  80.431  23.377 
   2  14  -2 1797.93   75.20 
   2  14  -2 1815.00   70.21 
  -2  14   2 1859.26   74.69 
  -2  14   2 1797.65   78.59 
  -1  14   2  381.48   34.08 
   1  14  -2  427.65   24.74 
   1  14  -2  483.65   40.15 
  -1  14   2  382.69   39.64 
   0  14   2  501.60   33.86 
   0  14   2  592.26   45.51 
   0  14  -2  562.27   39.47 
  -1  14  -2 2228.38   87.18 
   1  14   2 2407.82   78.88 
   1  14   2 2212.68   97.75 
   2  14   2  126.16   32.14 
  -2  14  -2  168.42   18.90 
  -2  14  -2  156.75   27.78 
   3  14   2  466.40   55.16 
  -3  14  -2  516.44   31.31 
  -3  14  -2  440.66   42.90 
  -4  14  -2  927.90   46.67 
   4  14   2  820.74   78.38 
  -4  14  -2  924.95   56.08 
   5 -15  -2  312.28   38.57 
   5  15  -2  324.42   39.24 
   5  15  -2  331.68   48.81 
  -5  15   2  305.48   40.92 
   4 -15  -2  228.16   29.21 
   4  15  -2  195.81   34.95 
  -4  15   2  175.03   30.29 
   4  15  -2  211.67   31.66 
   3  15  -2 2307.41   93.16 
   3  15  -2 2439.83   93.77 
  -3  15   2 2402.22   94.87 
  -3  15   2 2263.82   92.17 
   2  15  -2  11.671  14.548 
   2  15  -2  13.166  16.629 
  -2  15   2  31.009  19.567 
  -2  15   2  19.436  17.346 
  -1  15   2 1059.33   59.67 
   1  15  -2  966.52   53.27 
  -1  15   2 1007.01   51.72 
   1  15  -2  998.26   40.85 
   0  15   2 1781.60   69.73 
   0  15  -2 1809.35   76.66 
   0  15   2 1850.55   84.63 
  -1  15  -2  19.023  18.561 
   1  15   2  22.734  14.467 
   1  15   2  61.301  28.001 
  -2  15  -2 1502.83   56.01 
  -2  15  -2 1542.34   71.54 
   2  15   2 1483.39   83.66 
  -3  15  -2  653.10   36.07 
   3  15   2  588.68   63.55 
  -3  15  -2  656.64   47.84 
   4  15   2  -21.38   22.02 
  -4  15  -2  25.768  22.927 
  -4  15  -2  16.527  15.052 
   5 -16  -2  412.88   44.67 
   5  16  -2  306.89   47.16 
   5  16  -2  359.44   40.94 
  -5  16   2  436.61   47.99 
   4 -16  -2  775.85   49.06 
   4  16  -2  867.65   58.48 
   4  16  -2  741.41   49.66 
  -4  16   2  805.74   53.72 
  -3  16   2  -10.23   13.88 
   3  16  -2  24.453  16.128 
   3  16  -2  17.588  18.423 
  -3  16   2   6.123  14.472 
  -2  16   2 1416.42   66.09 
   2  16  -2 1304.98   65.56 
  -2  16   2 1382.66   69.14 
   2  16  -2 1372.61   60.43 
  -1  16   2  897.92   50.14 
  -1  16   2  870.14   55.79 
   1  16  -2  805.73   50.55 
   0  16  -2  457.85   42.96 
   0  16   2  482.36   35.08 
   0  16   2  461.71   48.89 
  -1  16  -2 1772.80   77.87 
   1  16   2 1612.47   84.51 
   1  16   2 1816.83   69.10 
   2  16   2  371.23   49.15 
  -2  16  -2  396.21   40.36 
  -2  16  -2  457.14   27.58 
  -3  16  -2  519.20   48.55 
   3  16   2  334.39   50.22 
  -3  16  -2  563.05   32.96 
   4  16   2  646.38   71.57 
  -4  16  -2  754.24   53.25 
  -4  16  -2  707.98   41.83 
   5  17  -2  174.70   38.60 
   5  17  -2  252.98   35.73 
  -5  17   2  270.79   40.46 
   4 -17  -2  169.55   27.87 
   4  17  -2  249.44   35.57 
   4  17  -2  282.44   40.83 
  -4  17   2  198.42   32.87 
  -3  17   2 1425.54   70.30 
   3  17  -2 1351.80   68.42 
  -3  17   2 1314.21   68.36 
   3  17  -2 1458.43   69.40 
   2  17  -2  91.858  23.305 
   2  17  -2  78.399  19.693 
  -2  17   2  59.334  23.356 
  -2  17   2  94.825  23.951 
  -1  17   2  909.87   51.71 
   1  17  -2  882.78   53.54 
  -1  17   2  791.56   55.34 
   0  17   2 1445.35   63.34 
   0  17  -2 1472.23   70.56 
   0  17   2 1386.87   76.20 
  -1  17  -2  36.680  20.014 
   1  17   2  -5.696  13.757 
   1  17   2  -18.66   20.71 
  -2  17  -2 1806.81   64.54 
  -2  17  -2 1690.97   78.97 
   2  17   2 1734.04   91.28 
   3  17   2  638.80   68.02 
  -3  17  -2  643.49   35.59 
  -3  17  -2  610.92   52.92 
  -4  17  -2  50.625  18.385 
  -4  17  -2  121.68   29.77 
   4  17   2  18.645  29.435 
   5  18  -2  531.26   51.73 
   5  18  -2  523.38   61.03 
  -5  18   2  457.70   52.80 
   4 -18  -2  886.78   53.95 
  -4  18   2  936.99   61.06 
   4  18  -2 1011.40   61.70 
   4  18  -2  905.50   61.04 
  -3  18   2  -15.53   16.39 
   3  18  -2  13.658  17.933 
  -3  18   2   9.707  18.392 
   3  18  -2  -8.259  15.316 
  -2  18   2 1665.03   76.81 
  -2  18   2 1765.33   79.72 
   2  18  -2 1703.96   76.19 
   2  18  -2 1842.93   80.70 
  -1  18   2  283.44   33.29 
  -1  18   2  319.76   39.45 
   1  18  -2  306.50   37.45 
   0  18   2  276.00   32.02 
   0  18  -2  215.01   32.34 
   0  18   2  204.36   35.84 
  -1  18  -2 1624.53   75.29 
   1  18   2 1440.62   80.44 
   1  18   2 1543.83   65.48 
   2  18   2  325.28   47.21 
  -2  18  -2  289.83   26.74 
  -2  18  -2  335.67   40.39 
  -3  18  -2  261.40   38.12 
  -3  18  -2  251.61   26.58 
   3  18   2  302.35   51.25 
  -4  19   2  224.52   37.82 
   4  19  -2  272.86   41.47 
   4  19  -2  307.13   41.53 
   3  19  -2 1078.67   64.58 
   3  19  -2  965.34   58.74 
  -3  19   2 1032.21   61.17 
  -3  19   2 1036.68   62.42 
   2  19  -2  133.75   28.52 
  -2  19   2  123.18   27.66 
  -2  19   2  211.73   31.59 
  -1  19   2 1526.34   69.64 
  -1  19   2 1450.94   75.66 
   1  19  -2 1505.39   74.82 
   0  19   2  806.39   50.16 
   0  19  -2  902.04   56.09 
   0  19   2  958.48   63.05 
   1  19   2  51.971  19.146 
  -1  19  -2  51.694  22.854 
   1  19   2  32.718  23.434 
   2  19   2  987.77   73.33 
  -2  19  -2  906.50   43.08 
  -2  19  -2  964.78   60.72 
  -3  19  -2  733.29   40.38 
  -3  19  -2  795.77   56.36 
   3  19   2  596.66   69.07 
   4  20  -2  628.83   56.95 
  -4  20   2  746.99   65.27 
   4  20  -2  654.80   60.91 
   3  20  -2  -15.16   16.20 
  -3  20   2  -15.63   15.81 
  -3  20   2  -3.320  18.610 
  -2  20   2  970.34   59.41 
   2  20  -2 1009.35   61.52 
  -2  20   2 1015.49   61.12 
  -1  20   2  683.14   47.51 
  -1  20   2  761.87   53.01 
   1  20  -2  733.22   52.68 
   0  20   2  173.44   27.70 
   0  20   2  118.04   28.61 
   0  20  -2  157.93   31.86 
   1  20   2 1534.59   69.29 
   1  20   2 1479.49   85.41 
  -1  20  -2 1523.68   76.83 
   2  20   2  318.36   51.12 
  -2  20  -2  231.25   25.33 
  -2  20  -2  162.86   34.18 
  -3  20  -2  323.79   43.09 
  -3  20  -2  318.33   30.47 
   3  20   2  285.01   49.39 
  -4  21   2  168.06   34.01 
   4  21  -2  255.88   39.96 
   4  21  -2  260.58   43.62 
   3  21  -2  712.65   60.35 
  -3  21   2  688.99   60.74 
  -2  21   2  85.062  26.501 
   2  21  -2  123.43   31.43 
  -2  21   2  91.784  27.213 
  -1  21   2  588.34   51.00 
  -1  21   2  504.95   50.81 
   1  21  -2  471.03   50.14 
   0  21   2 1340.48   68.18 
   0  21  -2 1416.65   76.40 
   0  21   2 1350.80   78.31 
   1  21   2  53.081  27.736 
  -1  21  -2  20.847  20.938 
   1  21   2  28.210  20.916 
  -2  21  -2  819.39   59.62 
   2  21   2  822.86   76.99 
  -3  22   2  19.275  21.819 
   3  22  -2  27.899  24.249 
   2  22  -2  615.30   57.40 
  -2  22   2  792.34   64.20 
  -2  22   2  650.43   58.03 
  -1  22   2  634.40   55.22 
   1  22  -2  578.78   56.28 
  -1  22   2  660.04   59.38 
   0  22   2  81.793  27.213 
   0  22   2  110.78   27.99 
   0  22  -2  48.843  27.361 
  -1  22  -2  893.24   62.62 
   1  22   2 1093.60   59.94 
   1  22   2  967.20   70.49 
   2  22   2  353.71   53.76 
  -2  22  -2  340.64   44.62 
  -3  23   2  848.16   62.80 
   3  23  -2  832.50   61.81 
   2  23  -2  131.21   32.96 
  -2  23   2  207.00   36.12 
   1  23  -2  514.90   54.14 
  -1  23   2  503.81   53.31 
  -1  23   2  616.41   54.85 
   0  23   2  780.40   68.92 
   0  23  -2  774.77   65.25 
   0  23   2  874.21   57.21 
  -1  23  -2  -3.902  21.571 
   1  23   2  20.578  24.546 
   2  23   2  449.21   60.19 
  -2  23  -2  389.37   47.99 
   2  24  -2  575.45   59.34 
  -2  24   2  471.26   52.66 
  -1  24   2  418.24   49.38 
   1  24  -2  612.14   59.13 
   0  24   2  87.738  27.422 
   0  24   2  60.534  30.522 
   0  24  -2  68.109  27.820 
   1  24   2  949.26   71.76 
  -1  24  -2  924.72   66.15 
  -1  25   2  638.80   59.31 
   1  25  -2  442.51   53.49 
   0  25   2  476.32   55.30 
   0  25  -2  696.45   64.78 
   0  25   2  657.66   57.96 
   7   0  -3  14.420  24.051 
   6   0  -3  520.55   54.80 
   5   0  -3  959.99   58.47 
   4   0  -3  56.213  17.052 
   3   0  -3 3093.76  103.62 
  -2   0   3 1440.74   60.25 
  -1   0   3  361.64   27.59 
   0   0  -3 3889.03  106.29 
   0   0   3 3699.43  119.67 
   0   0  -3 3942.23  103.98 
  -1   0  -3 1274.71   37.77 
   1   0   3 1255.14   58.19 
  -1   0  -3 1278.61   45.84 
   2   0   3  205.96   30.18 
  -2   0  -3  87.939  14.869 
   3   0   3 1103.84   64.04 
  -3   0  -3 1035.93   48.16 
  -4   0  -3  96.497  19.748 
   4   0   3  106.59   33.12 
   5   0   3  198.70   45.94 
  -5   0  -3  273.56   33.31 
   7  -1  -3  565.72   63.43 
   7   1  -3  610.71   65.86 
   6  -1  -3  882.89   61.84 
   6   1  -3 1030.23   65.86 
   5  -1  -3  286.37   37.84 
   5   1  -3  271.79   36.22 
   4  -1  -3 2012.27   83.44 
   4   1  -3 2113.02   83.93 
   3  -1  -3  362.36   28.33 
   3   1  -3  359.04   27.41 
  -2  -1   3 2010.11   75.04 
  -2   1   3 2135.86   78.05 
  -1  -1   3 5583.12  161.95 
   1  -1  -3 5628.73  146.32 
  -1   1   3 5665.33  165.30 
   0  -1   3  -12.30    9.46 
   0  -1  -3  -7.768   4.265 
   0   1  -3  -4.037   4.725 
   0   1  -3  -12.71    4.29 
   0   1   3  -11.73   10.85 
   1  -1   3 1684.15   67.02 
  -1  -1  -3 1692.23   44.02 
  -1  -1  -3 1583.10   55.08 
  -1   1  -3 1613.33   55.42 
  -1   1  -3 1675.68   49.61 
   1   1   3 1663.74   69.44 
   2  -1   3 1312.90   65.01 
  -2  -1  -3 1255.44   51.01 
   2   1   3 1344.45   67.03 
  -2   1  -3 1390.59   41.64 
  -2   1  -3 1345.56   51.54 
   3  -1   3   2.303  17.948 
  -3  -1  -3  33.390  12.876 
  -3   1  -3  20.435  12.171 
   3   1   3  27.393  21.261 
  -4  -1  -3 1088.32   53.56 
   4  -1   3 1064.37   70.54 
   4   1   3 1058.05   73.99 
  -4   1  -3 1194.06   54.68 
  -5  -1  -3  350.39   36.80 
   5  -1   3  201.32   47.16 
   5   1   3  263.61   50.83 
  -5   1  -3  273.64   34.84 
   7  -2  -3  108.97   33.25 
   7   2  -3  21.613  24.838 
   6  -2  -3  384.60   46.69 
   6   2  -3  398.82   48.73 
   5  -2  -3 1422.29   71.54 
   5   2  -3 1395.71   71.82 
   4  -2  -3  20.440  13.871 
   4   2  -3  15.394  13.840 
   3  -2  -3 2448.47   87.85 
  -3   2   3 2517.80   91.76 
   3   2  -3 2311.11   85.66 
  -2  -2   3 1313.92   54.65 
  -2   2   3 1304.44   58.24 
  -1  -2   3  5.3015  9.9116 
   1  -2  -3  14.227   5.059 
  -1   2   3   5.037  11.807 
   0  -2  -3 5183.95  135.63 
   0  -2   3 5004.80  146.85 
   0   2  -3 4939.96  135.57 
   0   2   3 5156.65  154.00 
   0   2  -3 5005.95  135.87 
   1  -2   3 1733.63   66.89 
  -1  -2  -3 1611.76   56.68 
  -1   2  -3 1700.65   53.27 
   1   2   3 1734.54   72.67 
  -1   2  -3 1848.27   58.35 
   2  -2   3  538.39   40.15 
  -2  -2  -3  561.07   29.62 
   2   2   3  442.81   44.56 
  -2   2  -3  420.55   22.03 
  -2   2  -3  454.78   27.30 
   3  -2   3 1114.01   61.82 
  -3  -2  -3 1065.91   48.96 
   3   2   3 1084.13   66.42 
  -3   2  -3 1064.31   48.55 
   4  -2   3  150.19   34.14 
  -4  -2  -3  159.20   24.24 
   4   2   3  116.11   37.22 
  -4   2  -3  80.953  21.300 
  -5  -2  -3  309.09   35.56 
   5  -2   3  198.69   46.49 
   5   2   3  350.93   56.66 
  -5   2  -3  278.32   32.56 
   7  -3  -3  818.36   74.32 
   7   3  -3  722.64   72.65 
   6  -3  -3  629.24   58.46 
   6   3  -3  667.64   63.33 
   5  -3  -3  126.98   25.99 
   5   3  -3  187.50   31.55 
   4  -3  -3 1918.08   81.19 
   4   3  -3 2038.42   82.12 
   3   3  -3  633.13   37.08 
  -3   3   3  648.13   41.84 
  -3   3   3  620.20   38.00 
   2   3  -3 1758.72   64.46 
  -2   3   3 1839.19   73.24 
  -1  -3   3 5687.44  161.98 
   1  -3  -3 5684.49  147.88 
  -1   3   3 5836.72  170.43 
   0  -3   3  25.674  10.948 
   0  -3  -3  16.526   6.392 
   0   3   3  35.496  15.466 
   0   3  -3  13.565   6.470 
   0   3  -3  17.802   7.522 
   1  -3   3 1385.30   56.52 
  -1  -3  -3 1347.60   48.44 
  -1   3  -3 1381.29   46.54 
  -1   3  -3 1356.12   48.28 
   1   3   3 1358.44   64.02 
  -2  -3  -3 1870.76   67.31 
   2  -3   3 2157.66   80.36 
  -2   3  -3 1891.43   66.54 
  -2   3  -3 1920.48   60.98 
   2   3   3 1846.44   86.28 
  -3  -3  -3   4.616  10.513 
   3  -3   3  -1.186  17.305 
  -3   3  -3  29.599  12.134 
   3   3   3  34.019  25.784 
  -4  -3  -3 1003.68   50.67 
   4  -3   3  892.56   64.47 
  -4   3  -3  982.02   49.64 
   4   3   3  828.58   75.49 
   7  -4  -3  80.313  29.414 
   7   4  -3  40.599  27.819 
   6  -4  -3  398.66   48.30 
   6   4  -3  454.60   52.37 
   5  -4  -3 1286.07   68.64 
   5   4  -3 1436.33   72.30 
   4  -4  -3   9.369  11.744 
   4   4  -3  17.781  15.187 
  -4   4   3  36.952  19.044 
   3   4  -3 2156.41   78.29 
  -3   4   3 2108.78   83.42 
  -3   4   3 1929.01   76.01 
   2  -4  -3 1883.07   50.22 
  -2   4   3 1871.87   66.27 
  -2   4   3 1848.12   74.98 
   2   4  -3 1799.12   64.99 
   1  -4  -3  148.97   10.02 
  -1  -4   3  152.92   18.91 
  -1   4   3  158.57   24.16 
   0  -4   3 3467.96  103.96 
   0  -4  -3 3489.37   96.57 
   0   4   3 3345.48  116.24 
   0   4  -3 3501.83  100.50 
   1  -4   3  889.52   41.85 
  -1  -4  -3  893.30   36.02 
  -1   4  -3  894.37   35.94 
   1   4   3  917.20   52.11 
  -1   4  -3  764.15   34.42 
  -2  -4  -3  265.69   24.15 
   2  -4   3  272.64   31.35 
   2   4   3  285.43   38.60 
  -2   4  -3  319.10   21.78 
  -2   4  -3  283.45   24.64 
  -3  -4  -3 1252.53   55.49 
   3  -4   3 1519.71   69.79 
  -3   4  -3 1315.62   54.95 
   3   4   3 1289.15   77.48 
   4  -4   3  236.60   39.48 
  -4  -4  -3  182.70   25.59 
   4   4   3  269.85   46.55 
  -4   4  -3  261.25   29.72 
   6  -5  -3  443.64   50.69 
   6   5  -3  362.92   48.09 
   5  -5  -3  273.60   36.71 
  -5   5   3  378.36   41.50 
   5   5  -3  290.54   37.41 
   4  -5  -3 1766.71   76.25 
  -4   5   3 1900.29   78.79 
   4   5  -3 1769.71   76.98 
  -3   5   3  364.82   37.10 
   3   5  -3  390.21   28.90 
  -3   5   3  365.33   33.24 
   2  -5  -3 1446.95   39.22 
   2   5  -3 1399.19   54.14 
  -2   5   3 1342.22   63.21 
  -2   5   3 1496.71   55.89 
   1  -5  -3 2760.68   75.27 
  -1  -5   3 2805.94   86.28 
  -1   5   3 2681.06   98.19 
  -1   5   3 2729.33   82.96 
   1   5  -3 2796.90   86.43 
   0  -5  -3  341.08   18.55 
   0  -5   3  320.38   22.54 
   0   5  -3  353.83   22.55 
   0   5   3  372.87   36.89 
   1  -5   3 1597.59   58.94 
  -1  -5  -3 1531.92   54.11 
  -1   5  -3 1578.00   55.19 
  -1   5  -3 1526.88   54.02 
   1   5   3 1618.59   73.31 
   2  -5   3 1747.54   69.84 
  -2  -5  -3 1729.42   63.45 
  -2   5  -3 1845.17   61.37 
  -2   5  -3 1722.29   62.50 
   2   5   3 1782.10   84.65 
   3  -5   3  -11.16   14.74 
  -3  -5  -3  -4.317   9.884 
  -3   5  -3  13.426  11.492 
   3   5   3  -13.71   20.92 
  -4  -5  -3  765.91   46.07 
  -4   5  -3  833.57   44.70 
   4   5   3  794.81   75.73 
   6  -6  -3  510.96   54.17 
  -6   6   3  390.94   46.95 
   6   6  -3  386.21   49.86 
   5  -6  -3 1274.19   67.99 
  -5   6   3 1383.22   69.66 
   5   6  -3 1234.64   69.37 
   4  -6  -3  40.082  16.389 
  -4   6   3  52.500  20.612 
   4   6  -3  79.467  19.534 
  -3   6   3 2267.80   83.08 
   3   6  -3 2130.75   81.00 
  -3   6   3 2356.29   91.34 
   2  -6  -3 1070.86   29.32 
   2   6  -3 1063.19   44.66 
  -2   6   3 1068.11   55.00 
  -2   6   3  982.14   45.32 
   1  -6  -3  112.83    9.78 
  -1  -6   3  99.289  14.903 
   1   6  -3  93.931  14.863 
  -1   6   3  68.598  12.039 
  -1   6   3  125.44   23.18 
   0  -6  -3 2428.60   71.41 
   0  -6   3 2424.93   74.69 
   0   6   3 2360.98   68.69 
   0   6   3 2408.65   93.19 
   0   6  -3 2464.96   78.52 
  -1  -6  -3  833.98   35.06 
   1  -6   3  767.72   37.36 
   1   6   3  749.15   52.29 
  -1   6  -3  798.51   34.47 
  -1   6  -3  824.75   37.27 
   2  -6   3  642.36   39.38 
  -2  -6  -3  665.44   34.77 
   2   6   3  628.64   56.97 
  -2   6  -3  639.70   33.24 
  -2   6  -3  674.27   34.72 
   3  -6   3 1523.01   70.45 
  -3  -6  -3 1572.84   64.00 
   3   6   3 1740.06   91.07 
  -3   6  -3 1584.98   62.13 
  -4  -6  -3  72.135  18.822 
   4   6   3  120.96   37.11 
  -4   6  -3  128.30   21.32 
   6  -7  -3  285.83   41.31 
   6   7  -3  354.18   50.12 
  -6   7   3  344.15   44.04 
   5  -7  -3  502.25   49.01 
  -5   7   3  521.51   48.75 
   5   7  -3  474.89   49.47 
   4  -7  -3 1165.32   59.83 
   4   7  -3 1025.43   56.74 
  -4   7   3 1199.29   60.31 
   3   7  -3  868.48   45.85 
  -3   7   3  943.94   48.11 
  -3   7   3  982.80   56.41 
   2  -7  -3 1252.35   32.91 
   2   7  -3 1229.25   49.37 
  -2   7   3 1238.44   51.27 
  -2   7   3 1248.45   61.28 
   1  -7  -3 2263.79   62.15 
  -1   7   3 2146.86   70.29 
  -1   7   3 2242.06   88.61 
   1   7  -3 2122.30   74.40 
   1   7  -3 2272.98   68.79 
   0  -7  -3  241.22   15.93 
   0  -7   3  247.13   18.09 
   0   7   3  195.51   30.08 
   0   7  -3  173.82   20.51 
   0   7   3  214.17   14.65 
  -1  -7  -3 1286.39   47.88 
   1  -7   3 1325.34   47.82 
   1   7   3 1195.11   66.29 
  -1   7  -3 1264.01   47.20 
  -1   7  -3 1273.24   51.35 
  -2  -7  -3 1788.50   67.07 
   2  -7   3 1936.66   70.54 
  -2   7  -3 1840.25   67.40 
   2   7   3 1997.68   92.47 
  -2   7  -3 1934.42   66.92 
  -3  -7  -3  43.801  15.258 
  -3   7  -3  24.152  13.119 
   3   7   3  -14.99   20.03 
  -3   7  -3  28.488  12.861 
  -4  -7  -3  637.41   41.83 
  -4   7  -3  694.83   41.48 
   4   7   3  715.17   72.69 
   6  -8  -3  469.65   51.99 
  -6   8   3  575.83   56.98 
   6   8  -3  477.28   56.34 
   5  -8  -3 1024.19   61.46 
  -5   8   3 1199.58   64.95 
   5   8  -3 1024.66   63.88 
   4  -8  -3  225.35   30.59 
   4   8  -3  206.24   30.46 
  -4   8   3  256.96   33.38 
  -3   8   3 2374.39   86.23 
  -3   8   3 2329.08   94.01 
   3   8  -3 2278.68   84.95 
  -2   8   3 1780.44   64.96 
   2   8  -3 1657.91   65.70 
  -2   8   3 1850.89   77.26 
   2   8  -3 1648.45   61.45 
   1  -8  -3  168.77   11.42 
   1   8  -3  195.31   15.23 
   1   8  -3  214.50   22.39 
  -1   8   3  203.32   19.70 
  -1   8   3  149.68   26.20 
   0  -8   3 2017.38   59.60 
   0  -8  -3 1929.23   60.41 
   0   8   3 1916.78   83.57 
   0   8   3 1921.55   59.09 
   0   8  -3 1956.28   69.92 
  -1  -8  -3  787.72   34.58 
   1  -8   3  728.31   31.81 
   1   8   3  776.37   54.60 
  -1   8  -3  778.87   39.75 
  -1   8  -3  722.94   33.52 
  -2  -8  -3 1047.28   46.97 
   2   8   3 1079.56   68.36 
  -2   8  -3 1041.98   44.54 
  -2   8  -3  984.91   47.48 
  -3  -8  -3  994.25   49.00 
  -3   8  -3 1068.93   48.75 
   3   8   3  958.94   70.00 
  -3   8  -3 1060.09   49.00 
  -4  -8  -3  267.08   32.47 
   4   8   3  297.68   50.52 
  -4   8  -3  264.26   29.07 
   6  -9  -3  522.28   54.12 
   6   9  -3  510.34   58.17 
  -6   9   3  459.25   51.79 
   5  -9  -3  392.28   43.53 
  -5   9   3  251.29   35.62 
   5   9  -3  422.75   47.02 
   4  -9  -3 1588.54   72.28 
   4   9  -3 1516.70   72.68 
  -4   9   3 1477.77   70.86 
  -3   9   3  651.60   40.88 
  -3   9   3  708.01   48.31 
   3   9  -3  630.68   39.01 
  -2   9   3  368.71   39.15 
   2   9  -3  506.41   28.78 
  -2   9   3  487.42   32.25 
   2   9  -3  474.38   31.88 
   1  -9  -3 1873.78   54.51 
  -1   9   3 2087.87   84.18 
   1   9  -3 1897.71   59.86 
  -1   9   3 1888.12   64.91 
   1   9  -3 1839.73   69.90 
   0  -9  -3  189.91   16.10 
   0   9   3  186.45   16.12 
   0   9  -3  175.62   10.86 
   0   9  -3  150.66   20.35 
   0   9   3  104.79   25.64 
  -1  -9  -3 1045.37   42.00 
  -1   9  -3  990.81   41.67 
  -1   9  -3 1010.35   48.20 
   1   9   3  989.60   62.63 
  -2  -9  -3 1825.99   67.57 
  -2   9  -3 1798.74   70.42 
   2   9   3 1808.82   91.51 
  -2   9  -3 1898.46   65.98 
  -3  -9  -3  29.150  12.716 
  -3   9  -3   6.781  13.415 
  -3   9  -3  10.086  11.019 
   3   9   3   2.839  19.864 
  -4  -9  -3  838.35   47.65 
  -4   9  -3  741.24   43.47 
   4   9   3  773.19   81.27 
   6 -10  -3  567.62   56.83 
  -6  10   3  587.52   58.35 
   6  10  -3  576.66   63.82 
   5 -10  -3 1221.30   67.53 
  -5  10   3 1380.80   71.75 
   5  10  -3 1233.40   71.69 
   4 -10  -3  34.552  16.965 
  -4  10   3  58.393  20.764 
   4  10  -3  47.112  19.738 
   3  10  -3 1861.52   73.58 
  -3  10   3 1775.76   73.63 
  -3  10   3 1821.36   82.17 
  -2  10   3 1818.66   81.02 
   2  10  -3 1899.08   66.50 
   2  10  -3 1837.06   72.52 
  -2  10   3 1927.88   70.91 
   1  10  -3  156.14   22.07 
  -1  10   3  128.53   26.51 
   1  10  -3  160.30   14.94 
  -1  10   3  146.51   19.07 
   0 -10  -3 1395.94   48.81 
   0  10  -3 1477.85   41.10 
   0  10   3 1493.67   50.69 
   0  10  -3 1506.37   61.66 
   0  10   3 1504.01   74.21 
  -1 -10  -3 1180.20   46.20 
  -1  10  -3 1175.29   54.61 
   1  10   3 1123.12   68.21 
  -1  10  -3 1243.30   47.51 
  -2 -10  -3  838.11   40.59 
  -2  10  -3  781.33   44.36 
   2  10   3  851.38   62.88 
  -2  10  -3  772.76   38.16 
  -3 -10  -3 1444.90   62.27 
  -3  10  -3 1505.10   64.74 
   3  10   3 1485.54   87.48 
  -3  10  -3 1482.94   60.87 
   4  10   3  77.112  36.354 
  -4  10  -3  185.38   25.14 
   6 -11  -3  481.80   53.96 
  -6  11   3  509.98   55.01 
   6  11  -3  453.44   57.60 
   5 -11  -3  216.27   33.18 
   5  11  -3  220.26   38.05 
  -5  11   3  254.41   36.99 
   4  11  -3 1407.70   69.52 
  -4  11   3 1362.27   67.53 
  -4  11   3 1350.96   71.25 
  -3  11   3  854.33   48.96 
   3  11  -3  865.01   46.58 
   3  11  -3  840.25   48.27 
  -3  11   3  908.22   56.35 
   2  11  -3  419.38   27.62 
   2  11  -3  318.49   31.79 
  -2  11   3  387.82   33.32 
  -2  11   3  469.96   44.99 
   1  11  -3 1882.88   74.14 
   1  11  -3 1899.50   59.03 
  -1  11   3 1907.98   84.37 
  -1  11   3 1864.43   67.31 
   0  11  -3  67.049  18.182 
   0  11   3  42.804  11.770 
   0  11   3  57.073  23.238 
  -1 -11  -3 1466.10   54.28 
  -1  11  -3 1488.21   64.47 
   1  11   3 1485.02   79.22 
  -2 -11  -3 1035.61   48.43 
   2  11   3 1174.11   75.20 
  -2  11  -3 1128.42   55.08 
  -2  11  -3 1135.67   47.78 
  -3  11  -3  19.517  12.105 
   3  11   3  -36.29   22.24 
  -3  11  -3  26.798  17.485 
  -4  11  -3  676.95   42.77 
   4  11   3  655.17   74.76 
   6 -12  -3  443.43   50.05 
  -6  12   3  336.18   46.10 
   6  12  -3  409.80   55.26 
   5 -12  -3 1446.77   74.46 
  -5  12   3 1455.41   75.77 
   5  12  -3 1344.96   78.83 
   4 -12  -3   0.914  14.475 
  -4  12   3  29.071  18.288 
  -4  12   3   1.460  15.643 
   4  12  -3  36.938  16.523 
   4  12  -3  11.756  16.209 
  -3  12   3 1339.70   65.53 
  -3  12   3 1509.83   76.50 
   3  12  -3 1501.64   67.56 
   3  12  -3 1586.67   66.05 
   2  12  -3 1930.20   76.85 
  -2  12   3 1831.13   83.88 
   2  12  -3 1879.09   66.87 
  -2  12   3 1824.07   72.33 
  -1  12   3  36.027  21.474 
   1  12  -3  78.840  11.311 
   1  12  -3  55.249  17.025 
  -1  12   3  36.606  14.260 
   0  12   3 3062.22  119.14 
   0  12   3 3041.63   92.31 
   0  12  -3 2881.79  103.07 
   1  12   3  212.77   38.35 
  -1  12  -3  200.07   28.61 
   2  12   3  339.51   46.89 
  -2  12  -3  340.31   33.98 
  -2  12  -3  442.49   33.36 
  -3  12  -3 1237.26   59.59 
  -3  12  -3 1017.58   49.88 
   3  12   3 1161.45   79.80 
   4  12   3  124.18   46.44 
  -4  12  -3  73.207  19.181 
   6 -13  -3  580.90   58.41 
   6  13  -3  515.46   63.26 
  -6  13   3  650.07   62.12 
   5 -13  -3  174.75   31.80 
   5  13  -3  119.89   24.91 
  -5  13   3  152.67   31.26 
   5  13  -3  214.47   39.35 
  -4  13   3 1539.50   73.56 
  -4  13   3 1462.01   77.59 
   4  13  -3 1639.13   74.14 
   4  13  -3 1609.67   77.22 
  -3  13   3  629.83   55.31 
   3  13  -3  645.85   42.08 
   3  13  -3  513.32   45.00 
  -3  13   3  742.52   47.69 
  -2  13   3  485.18   36.39 
  -2  13   3  545.15   51.18 
   2  13  -3  575.63   40.41 
   2  13  -3  561.66   33.06 
  -1  13   3 1221.91   53.84 
   1  13  -3 1228.36   59.82 
  -1  13   3 1347.76   70.70 
   0  13  -3  -2.894  14.945 
   0  13   3   3.783  10.982 
   0  13   3  31.218  22.540 
   1  13   3  854.27   61.99 
  -1  13  -3  791.55   47.77 
  -2  13  -3  937.63   52.57 
  -2  13  -3  987.02   44.13 
   2  13   3  775.51   71.16 
  -3  13  -3  32.531  13.844 
  -3  13  -3  27.885  16.514 
   3  13   3  15.903  25.994 
   4  13   3  767.25   82.92 
  -4  13  -3  769.63   44.89 
   5 -14  -3 1130.34   65.94 
   5  14  -3 1106.71   73.38 
  -5  14   3 1126.15   68.94 
   5  14  -3 1092.86   63.09 
   4  14  -3   9.866  15.253 
  -4  14   3  20.010  20.283 
   4  14  -3  20.638  17.087 
  -4  14   3  11.256  17.297 
   3  14  -3 1576.35   72.13 
  -3  14   3 1551.17   71.92 
   3  14  -3 1535.48   69.02 
  -3  14   3 1508.71   78.28 
   2  14  -3  924.99   45.20 
   2  14  -3 1048.25   55.49 
  -2  14   3  868.23   58.62 
  -2  14   3  952.23   50.26 
  -1  14   3  -8.427  19.051 
   1  14  -3  14.164  15.867 
  -1  14   3  11.004  14.790 
   0  14   3 1636.50   85.51 
   0  14   3 1658.24   63.55 
   0  14  -3 1740.07   75.80 
  -1  14  -3  420.39   40.16 
   1  14   3  465.45   52.35 
  -2  14  -3  345.80   37.46 
  -2  14  -3  285.90   26.86 
   2  14   3  302.09   46.60 
  -3  14  -3 1108.66   51.97 
   3  14   3 1090.68   79.67 
  -3  14  -3 1140.33   61.44 
   5 -15  -3  56.765  23.142 
   5  15  -3  51.520  28.418 
   5  15  -3  61.386  21.886 
  -5  15   3  23.598  22.029 
   4  15  -3 1762.16   84.68 
  -4  15   3 1835.59   87.81 
   4  15  -3 1707.39   80.53 
  -4  15   3 1869.45   84.26 
   3  15  -3  301.36   37.22 
   3  15  -3  329.22   36.16 
  -3  15   3  335.39   37.46 
  -3  15   3  303.13   39.62 
  -2  15   3  241.54   36.92 
   2  15  -3  328.70   29.46 
   2  15  -3  262.25   34.10 
  -2  15   3  241.03   29.60 
  -1  15   3 2015.85   94.96 
  -1  15   3 1961.55   77.39 
   1  15  -3 2121.86   85.91 
   0  15   3   7.755  13.044 
   0  15   3  -4.835  19.508 
   0  15  -3  -17.63   13.58 
  -1  15  -3 1027.08   58.36 
   1  15   3 1115.51   71.35 
  -2  15  -3  582.88   49.94 
   2  15   3  549.94   62.07 
  -2  15  -3  635.81   36.25 
  -3  15  -3  -9.110  10.591 
  -3  15  -3   3.717  18.873 
   3  15   3   6.312  26.768 
   5 -16  -3  858.95   58.48 
  -5  16   3  684.31   61.48 
   5  16  -3  703.80   67.74 
   5  16  -3  768.54   54.50 
  -4  16   3  24.444  20.562 
  -4  16   3  34.299  20.793 
   4  16  -3  73.380  25.311 
   4  16  -3  57.668  22.982 
  -3  16   3 1006.46   59.33 
  -3  16   3 1145.90   68.46 
   3  16  -3 1107.52   62.94 
   3  16  -3 1137.28   58.28 
   2  16  -3 1322.29   67.69 
  -2  16   3 1327.32   74.82 
  -2  16   3 1353.54   63.25 
   1  16  -3  67.406  21.817 
  -1  16   3  56.420  25.167 
  -1  16   3  101.03   21.33 
   0  16  -3 1448.55   71.43 
   0  16   3 1629.86   84.56 
   0  16   3 1478.56   62.44 
   1  16   3  491.34   55.29 
  -1  16  -3  508.07   45.79 
   2  16   3  303.12   48.33 
  -2  16  -3  264.99   35.84 
  -2  16  -3  245.83   25.54 
  -3  16  -3  737.69   51.02 
  -3  16  -3  589.08   39.18 
   3  16   3  790.19   77.91 
   5 -17  -3  43.476  22.168 
   5  17  -3  45.497  25.410 
   5  17  -3  25.800  20.412 
  -5  17   3  29.920  23.182 
   4  17  -3 1557.50   79.45 
   4  17  -3 1609.47   80.63 
  -4  17   3 1549.10   82.01 
  -4  17   3 1516.63   78.13 
  -3  17   3  384.39   46.69 
  -3  17   3  427.15   44.42 
   3  17  -3  422.05   41.08 
   3  17  -3  341.41   40.57 
  -2  17   3  737.21   46.69 
  -2  17   3  610.00   57.38 
   2  17  -3  820.86   52.81 
  -1  17   3 1507.13   79.18 
  -1  17   3 1367.74   64.06 
   1  17  -3 1295.42   68.35 
   0  17  -3  44.524  21.005 
   0  17   3  12.204  15.222 
   0  17   3  80.729  27.817 
  -1  17  -3  725.31   52.70 
   1  17   3  833.32   64.53 
   2  17   3  801.61   76.12 
  -2  17  -3  780.17   55.19 
  -2  17  -3  689.26   39.59 
  -3  17  -3  27.105  22.940 
  -3  17  -3  30.061  13.911 
   3  17   3  22.883  28.543 
   5 -18  -3  675.23   52.21 
   5  18  -3  701.82   61.03 
   5  18  -3  665.79   66.84 
  -5  18   3  599.67   59.19 
  -4  18   3   8.645  18.305 
   4  18  -3  -17.87   19.06 
  -4  18   3  -14.14   19.82 
   4  18  -3  -0.576  16.981 
  -3  18   3  869.68   63.01 
   3  18  -3  978.53   61.65 
  -3  18   3  980.49   58.70 
  -2  18   3  506.01   54.01 
   2  18  -3  396.60   44.53 
  -2  18   3  474.27   44.32 
  -1  18   3   8.178  18.741 
  -1  18   3  35.947  17.327 
   1  18  -3  14.203  18.735 
   0  18   3  892.16   49.67 
   0  18  -3 1098.02   61.74 
   0  18   3  906.02   68.82 
  -1  18  -3  394.07   43.74 
   1  18   3  459.04   55.89 
  -2  18  -3  233.36   26.42 
   2  18   3  180.78   40.45 
  -2  18  -3  182.50   33.53 
  -4  19   3  702.54   62.91 
   4  19  -3  691.44   60.66 
  -4  19   3  702.49   62.63 
   3  19  -3  198.40   34.43 
  -3  19   3  250.09   37.13 
  -3  19   3  218.71   37.32 
  -2  19   3  618.80   52.19 
   2  19  -3  629.29   56.04 
  -2  19   3  663.87   60.76 
  -1  19   3 1109.44   60.94 
  -1  19   3 1261.83   76.18 
   1  19  -3 1168.58   67.47 
   0  19   3  95.269  22.702 
   0  19   3  100.53   30.94 
   0  19  -3  93.876  27.392 
  -1  19  -3  675.72   57.03 
   1  19   3  590.11   64.31 
  -2  19  -3  646.06   38.63 
   2  19   3  639.71   72.32 
  -2  19  -3  626.58   56.33 
  -4  20   3  -16.43   21.42 
   4  20  -3  18.937  22.429 
  -4  20   3  38.681  22.343 
  -3  20   3  592.59   59.04 
  -3  20   3  517.37   50.95 
   3  20  -3  487.13   51.68 
   2  20  -3  698.25   61.78 
  -2  20   3  644.63   54.76 
  -2  20   3  638.09   60.97 
  -1  20   3  80.621  23.135 
  -1  20   3  44.020  24.531 
   1  20  -3  70.894  26.160 
   0  20  -3  847.52   58.46 
   0  20   3  841.97   65.42 
  -1  20  -3  205.02   36.41 
   1  20   3  227.74   45.70 
   2  20   3  176.75   42.10 
  -2  20  -3  156.17   22.14 
  -2  20  -3  307.66   40.72 
  -3  21   3  222.42   37.91 
   3  21  -3  190.91   37.23 
  -3  21   3  230.17   38.17 
   2  21  -3  570.77   55.27 
  -2  21   3  474.51   53.29 
  -2  21   3  508.90   50.06 
   1  21  -3 1252.35   73.17 
  -1  21   3 1228.96   66.90 
  -1  21   3 1181.83   77.46 
   0  21  -3  133.70   32.07 
   0  21   3  114.53   33.89 
  -1  21  -3  684.61   60.07 
   1  21   3  635.09   68.67 
  -3  22   3  348.38   45.68 
   3  22  -3  311.99   44.82 
  -3  22   3  354.77   44.66 
   2  22  -3  923.92   64.54 
  -2  22   3  733.02   68.41 
  -2  22   3  789.62   58.26 
  -1  22   3  52.882  28.013 
  -1  22   3  63.392  25.695 
   1  22  -3  59.083  26.041 
   0  22  -3  790.89   66.30 
   0  22   3  688.38   69.83 
   1  22   3  288.10   50.05 
  -1  22  -3  198.67   37.03 
   2  23  -3  185.70   39.85 
  -2  23   3  238.87   42.82 
  -2  23   3  201.93   35.64 
  -1  23   3  945.21   69.81 
   1  23  -3 1022.52   70.62 
  -1  23   3 1048.73   62.67 
   0  23  -3  123.25   32.58 
   0  23   3  102.30   36.51 
  -1  24   3   7.042  23.523 
   1  24  -3  81.544  28.489 
  -1  24   3  85.198  30.481 
   6   0  -4 1450.56   82.93 
   5   0  -4  26.706  16.477 
   4   0  -4  704.40   46.03 
  -3   0   4 1717.38   76.04 
  -2   0   4  96.729  23.561 
   1   0  -4 1036.31   37.43 
  -1   0   4  986.16   53.24 
   0   0   4  716.99   46.94 
   0   0  -4  637.82   27.35 
   0   0  -4  656.88   30.27 
   1   0   4  214.50   32.28 
  -1   0  -4  220.26   21.43 
   2   0   4 1660.21   83.10 
  -2   0  -4 1870.15   67.88 
   3   0   4  197.51   39.12 
  -3   0  -4  258.34   28.89 
  -4   0  -4  322.79   34.49 
   4   0   4  287.15   49.18 
   6  -1  -4  51.615  25.691 
   6   1  -4  18.873  20.762 
   5  -1  -4 1023.83   61.54 
   5   1  -4 1057.04   61.67 
   4  -1  -4  899.16   52.14 
   4   1  -4  875.91   52.60 
  -3   1   4  458.26   43.88 
   3   1  -4  445.32   33.47 
  -2  -1   4 1853.80   75.79 
  -2   1   4 1689.65   75.18 
  -1  -1   4 1098.66   54.50 
   1  -1  -4 1013.07   37.37 
   1   1  -4 1044.89   38.52 
  -1   1   4  982.03   55.46 
   0  -1  -4 1178.39   39.94 
   0  -1   4 1249.56   59.09 
   0  -1  -4 1201.40   44.63 
   0   1  -4 1183.49   44.75 
   0   1   4 1241.41   63.07 
   0   1  -4 1194.72   42.60 
   1  -1   4 2736.17  103.74 
  -1  -1  -4 2787.89   87.41 
   1   1   4 2813.45  107.33 
  -1   1  -4 2622.88   86.60 
   2  -1   4  20.999  20.471 
  -2  -1  -4  35.238  13.673 
  -2   1  -4  27.671  11.878 
   2   1   4  24.020  20.824 
   3  -1   4 1077.27   66.84 
  -3  -1  -4  984.70   49.26 
   3   1   4  866.24   67.03 
  -3   1  -4  921.06   47.49 
  -4  -1  -4  724.50   45.00 
   4  -1   4  685.34   70.74 
  -4   1  -4  686.16   44.61 
   4   1   4  605.54   69.98 
   6  -2  -4 1051.39   68.69 
   6   2  -4 1109.10   69.53 
   5  -2  -4  161.59   29.46 
   5   2  -4  168.73   30.00 
   4  -2  -4  848.56   51.73 
   4   2  -4 1015.68   54.80 
  -3   2   4 2399.31   98.12 
   3   2  -4 2651.79   93.91 
   2  -2  -4  7.5466  5.2070 
  -2  -2   4   8.963  14.114 
  -2   2   4  16.439  17.303 
  -1  -2   4 1645.64   68.67 
   1  -2  -4 1717.51   53.80 
  -1   2   4 1728.57   75.10 
   0  -2  -4  684.75   30.19 
   0  -2   4  616.65   41.28 
   0  -2  -4  598.20   24.06 
   0   2  -4  557.88   29.14 
   0   2  -4  581.17   28.29 
   0   2   4  608.05   44.31 
  -1  -2  -4  320.82   26.45 
   1  -2   4  384.72   38.91 
  -1   2  -4  287.25   19.86 
   1   2   4  306.54   38.67 
  -1   2  -4  307.33   25.84 
  -2  -2  -4 1860.50   67.32 
   2  -2   4 1771.89   80.20 
   2   2   4 1654.56   83.91 
  -2   2  -4 1614.44   64.37 
   3  -2   4  280.90   41.63 
  -3  -2  -4  244.42   28.45 
  -3   2  -4  221.83   26.50 
   3   2   4  251.08   44.08 
  -4  -2  -4  314.27   34.89 
   4   2   4  320.53   54.19 
  -4   2  -4  282.67   32.66 
   6  -3  -4  13.891  18.534 
   6   3  -4  -2.564  16.486 
   5  -3  -4 1798.37   86.63 
   5   3  -4 1933.03   87.89 
   4  -3  -4  554.10   42.10 
   4   3  -4  670.69   44.57 
  -3   3   4  187.73   30.97 
   3   3  -4  206.52   25.81 
   2  -3  -4 3053.18   85.95 
  -2  -3   4 3225.66  108.31 
  -2   3   4 3173.66  115.01 
  -1  -3   4  440.44   37.15 
   1  -3  -4  347.62   19.16 
  -1   3   4  336.85   37.66 
   1   3  -4  342.85   23.80 
   0  -3   4 1297.00   60.54 
   0  -3  -4 1362.36   49.35 
   0   3  -4 1442.58   50.94 
   0   3   4 1525.10   71.14 
   0   3  -4 1418.58   51.02 
   1  -3   4 1815.62   76.69 
  -1  -3  -4 1766.43   64.17 
  -1   3  -4 1760.23   64.70 
  -1   3  -4 1904.85   60.93 
   1   3   4 1951.05   88.55 
  -2  -3  -4  2.0206  9.4781 
   2  -3   4  -9.015  15.756 
  -2   3  -4  -8.430   9.104 
   2   3   4  -10.35   20.10 
   3  -3   4 1065.83   66.92 
  -3  -3  -4 1117.42   53.22 
  -3   3  -4 1069.29   52.01 
   3   3   4 1084.36   76.46 
  -4  -3  -4  641.68   43.29 
   4   3   4  596.67   72.70 
  -4   3  -4  655.65   43.58 
   6  -4  -4 1163.54   72.49 
   6   4  -4 1197.13   74.14 
   5  -4  -4  30.303  17.043 
   5   4  -4  -4.563  14.244 
   4  -4  -4  790.39   50.03 
   4   4  -4  797.19   48.74 
  -3   4   4 1879.08   85.32 
   3   4  -4 1948.59   75.91 
  -2  -4   4   0.250  14.179 
   2  -4  -4  -2.182   4.465 
  -2   4   4   0.492  16.289 
   1  -4  -4 2238.33   67.96 
  -1  -4   4 2346.59   83.65 
   1   4  -4 2272.98   76.55 
  -1   4   4 2341.96   93.66 
   0  -4  -4  637.46   30.70 
   0  -4   4  675.63   41.74 
   0   4  -4  724.11   32.52 
   0   4  -4  735.72   34.71 
   0   4   4  671.31   49.43 
   1  -4   4  189.43   27.64 
  -1  -4  -4  132.32   17.46 
  -1   4  -4  155.26   18.41 
   1   4   4  156.40   32.38 
  -1   4  -4  143.20   18.34 
   2  -4   4 1817.84   80.43 
  -2  -4  -4 1967.78   70.93 
  -2   4  -4 1735.34   68.11 
   2   4   4 2031.44   95.91 
  -3  -4  -4  322.42   32.19 
   3   4   4  338.39   52.14 
  -3   4  -4  328.88   31.69 
  -4  -4  -4  355.44   36.71 
   4   4   4  373.68   56.70 
  -4   4  -4  317.74   35.27 
   6  -5  -4  46.554  23.102 
   6   5  -4  59.532  24.999 
   5  -5  -4 1604.95   81.68 
   5   5  -4 1703.27   82.45 
   4  -5  -4  681.46   47.33 
   4   5  -4  676.20   45.07 
   3  -5  -4  402.32   15.75 
   3   5  -4  421.82   31.45 
  -3   5   4  418.37   44.18 
   2  -5  -4 2008.32   57.31 
  -2  -5   4 2013.99   76.16 
  -2   5   4 1901.45   85.72 
   2   5  -4 2010.80   73.11 
   1  -5  -4  236.49   15.78 
  -1  -5   4  291.84   28.67 
   1   5  -4  210.98   22.20 
  -1   5   4  246.46   34.38 
   0  -5  -4 1028.34   40.96 
   0  -5   4 1057.78   49.97 
   0   5  -4 1059.19   45.44 
   0   5  -4 1080.72   42.45 
   0   5   4 1097.93   63.61 
   1  -5   4 1034.69   51.30 
  -1  -5  -4  940.13   42.81 
   1   5   4 1024.26   64.64 
  -1   5  -4 1045.28   44.27 
  -1   5  -4  991.42   43.15 
  -2  -5  -4  30.149  12.415 
   2  -5   4  35.579  18.028 
   2   5   4  81.255  30.262 
  -2   5  -4  40.708  13.103 
  -3  -5  -4  944.03   49.11 
   3   5   4  968.23   72.24 
  -3   5  -4  957.63   49.01 
  -4  -5  -4  421.42   41.09 
   4   5   4  628.88   75.52 
  -4   5  -4  491.32   42.39 
   6  -6  -4  935.35   65.30 
   6   6  -4 1041.56   69.64 
   5  -6  -4   3.303  14.031 
   5   6  -4  24.663  16.951 
   4  -6  -4  953.34   56.51 
  -4   6   4  926.37   56.00 
  -4   6   4  857.86   59.39 
   4   6  -4 1023.78   55.00 
  -3   6   4 1628.70   68.80 
  -3   6   4 1434.91   75.09 
   3   6  -4 1547.46   65.83 
   2  -6  -4  78.297   8.740 
  -2   6   4  35.293  21.489 
   2   6  -4  75.754  15.351 
   1  -6  -4 2820.65   79.68 
  -1  -6   4 2814.03   92.69 
   1   6  -4 2695.87   90.37 
  -1   6   4 2673.79  107.90 
   0  -6   4  651.07   37.20 
   0  -6  -4  621.46   29.22 
   0   6   4  588.87   54.28 
   0   6  -4  652.04   34.88 
   0   6  -4  576.86   30.64 
   1  -6   4  67.733  19.505 
  -1  -6  -4  74.220  14.635 
  -1   6  -4  85.700  17.497 
  -1   6  -4  85.779  15.730 
   1   6   4  76.748  29.549 
  -2  -6  -4 1454.94   61.42 
   2   6   4 1807.85   90.72 
  -2   6  -4 1637.26   63.17 
  -3  -6  -4  147.32   24.26 
   3   6   4  112.60   38.84 
  -3   6  -4  152.93   22.99 
   6  -7  -4  46.157  23.278 
   6   7  -4  28.625  21.318 
   5  -7  -4 1506.05   78.38 
  -5   7   4 1554.79   79.38 
   5   7  -4 1641.73   81.23 
  -4   7   4 1131.99   60.86 
  -4   7   4 1093.67   65.18 
   4   7  -4  919.18   54.84 
   3   7  -4  960.77   47.77 
  -3   7   4  862.26   57.34 
  -3   7   4  784.29   47.37 
   2  -7  -4 1396.45   42.56 
  -2   7   4 1530.40   75.29 
   2   7  -4 1408.98   61.26 
  -2   7   4 1470.87   60.32 
   2   7  -4 1467.47   57.52 
  -1  -7   4  106.72   18.25 
   1  -7  -4  117.56   13.05 
  -1   7   4  130.30   28.83 
   1   7  -4  99.468  17.996 
   0  -7  -4 1125.12   43.41 
   0  -7   4 1154.59   49.42 
   0   7  -4 1126.84   49.63 
   0   7   4 1085.19   67.08 
  -1  -7  -4  645.47   33.84 
   1   7   4  618.26   60.06 
  -1   7  -4  690.61   35.37 
  -1   7  -4  660.48   36.95 
  -2  -7  -4  0.0842  9.8307 
   2   7   4  -0.287  20.565 
  -2   7  -4   6.808  10.397 
  -3  -7  -4  322.14   33.03 
   3   7   4  418.28   56.96 
  -3   7  -4  398.40   35.63 
   6  -8  -4 1048.64   70.94 
   6   8  -4 1022.53   70.03 
  -6   8   4 1188.72   74.89 
   5  -8  -4  88.074  24.067 
  -5   8   4  64.836  24.815 
   5   8  -4  50.494  20.119 
  -4   8   4 1269.56   65.68 
   4   8  -4 1251.40   63.46 
  -4   8   4 1354.28   72.95 
  -3   8   4  947.91   54.74 
  -3   8   4 1048.24   66.50 
   3   8  -4 1206.07   54.88 
   2  -8  -4  80.312   8.523 
  -2   8   4  88.776  19.403 
   2   8  -4  77.662  15.723 
   2   8  -4  85.437  19.621 
  -2   8   4  107.14   26.67 
   1  -8  -4 2302.13   68.39 
  -1   8   4 2282.68   76.20 
   1   8  -4 2359.38   74.94 
  -1   8   4 2259.31   99.40 
   1   8  -4 2291.02   82.52 
   0  -8  -4 1386.76   50.42 
   0  -8   4 1425.35   54.17 
   0   8   4 1396.13   77.64 
   0   8  -4 1410.12   58.96 
  -1  -8  -4  242.41   23.36 
   1   8   4  240.30   40.08 
  -1   8  -4  291.42   29.47 
  -1   8  -4  236.59   24.17 
  -2  -8  -4 1092.19   49.97 
   2   8   4 1059.78   73.22 
  -2   8  -4 1072.19   49.25 
  -3  -8  -4  324.78   33.32 
   3   8   4  340.37   53.41 
  -3   8  -4  313.71   31.84 
   6  -9  -4  94.834  29.441 
  -6   9   4  69.180  30.281 
   6   9  -4  80.964  27.598 
   5  -9  -4 1382.77   74.55 
   5   9  -4 1375.08   74.78 
  -5   9   4 1380.45   74.68 
  -4   9   4  704.37   49.35 
   4   9  -4  714.77   46.93 
  -4   9   4  771.38   55.89 
   3   9  -4  871.19   47.51 
  -3   9   4  998.10   53.90 
  -3   9   4  832.67   58.53 
   2   9  -4 1126.80   49.20 
   2   9  -4 1123.33   55.20 
  -2   9   4 1310.65   71.17 
  -2   9   4 1180.81   53.18 
   1  -9  -4  229.26   17.33 
   1   9  -4  203.52   25.75 
  -1   9   4  147.06   32.02 
  -1   9   4  233.03   23.43 
   1   9  -4  218.17   20.02 
   0  -9  -4  677.58   32.19 
   0   9  -4  760.20   42.66 
   0   9   4  620.52   59.95 
  -1  -9  -4 1720.40   62.33 
  -1   9  -4 1650.53   66.35 
  -1   9  -4 1621.49   62.59 
   1   9   4 1764.09   90.57 
  -2  -9  -4   8.302  11.574 
  -2   9  -4   9.906  10.978 
   2   9   4  -9.273  23.286 
  -2   9  -4   5.020  13.822 
  -3  -9  -4  457.74   39.54 
   3   9   4  412.41   59.58 
  -3   9  -4  540.68   41.94 
   6 -10  -4 1119.50   72.44 
  -6  10   4 1061.69   71.52 
   6  10  -4 1045.57   71.68 
   5 -10  -4  76.421  24.297 
  -5  10   4  115.53   29.30 
   5  10  -4  81.439  24.737 
  -4  10   4 1055.08   66.85 
  -4  10   4 1123.09   62.22 
   4  10  -4 1156.08   60.22 
  -3  10   4 1374.80   75.77 
   3  10  -4 1418.93   66.14 
  -3  10   4 1306.97   64.60 
   3  10  -4 1371.35   61.16 
   2  10  -4  39.648  12.264 
  -2  10   4  65.871  17.296 
   2  10  -4  41.639  16.759 
  -2  10   4  23.800  23.268 
   1 -10  -4 1786.33   56.31 
  -1  10   4 1807.31   88.54 
   1  10  -4 1827.51   73.40 
  -1  10   4 1814.85   65.11 
   1  10  -4 1787.96   60.27 
   0 -10  -4 2117.55   68.04 
   0  10  -4 2024.65   79.11 
   0  10   4 2012.64   98.36 
  -1 -10  -4  365.10   29.41 
   1  10   4  312.92   46.63 
  -1  10  -4  306.28   27.81 
  -1  10  -4  373.43   34.53 
  -2 -10  -4 1087.33   51.64 
  -2  10  -4 1048.88   53.13 
  -2  10  -4 1135.27   51.16 
   2  10   4 1123.97   80.25 
  -3 -10  -4  196.38   26.59 
  -3  10  -4  157.05   24.02 
   3  10   4  213.39   47.57 
   6 -11  -4  30.417  22.895 
  -6  11   4  35.517  25.922 
   6  11  -4   5.857  21.712 
   5 -11  -4 1072.35   65.28 
  -5  11   4  893.23   61.77 
   5  11  -4 1022.29   65.84 
  -4  11   4  551.87   55.02 
   4  11  -4  572.90   43.53 
  -4  11   4  591.66   51.48 
   3  11  -4  563.57   41.55 
  -3  11   4  603.08   56.64 
   3  11  -4  646.10   39.78 
  -3  11   4  657.98   43.43 
   2  11  -4 1431.72   67.51 
  -2  11   4 1531.89   65.40 
  -2  11   4 1483.57   81.34 
   2  11  -4 1642.20   60.25 
   1 -11  -4  393.61   20.43 
  -1  11   4  294.64   42.60 
  -1  11   4  342.86   29.92 
   1  11  -4  315.33   34.16 
   0 -11  -4 1361.60   49.55 
   0  11   4 1275.45   77.90 
   0  11  -4 1310.56   61.67 
  -1 -11  -4 1115.97   47.01 
   1  11   4 1009.15   70.62 
  -1  11  -4 1029.26   45.95 
  -1  11  -4  944.47   51.95 
  -2 -11  -4   7.144  11.318 
  -2  11  -4   2.333  11.063 
   2  11   4   5.125  28.959 
  -2  11  -4   5.745  15.587 
  -3 -11  -4  310.45   33.31 
  -3  11  -4  282.74   31.35 
   3  11   4  331.60   54.83 
   6 -12  -4 1018.12   69.62 
   6  12  -4  929.75   81.58 
  -6  12   4  922.93   77.39 
   5 -12  -4  36.529  21.982 
   5  12  -4  48.635  23.993 
  -5  12   4  48.229  24.162 
  -4  12   4  595.42   53.01 
  -4  12   4  589.34   59.32 
   4  12  -4  547.29   49.39 
   4  12  -4  644.27   46.02 
  -3  12   4 1639.71   84.88 
   3  12  -4 1607.19   68.33 
   3  12  -4 1575.97   73.69 
  -3  12   4 1663.26   72.99 
   2  12  -4  25.931  11.787 
   2  12  -4  19.677  16.387 
  -2  12   4  41.590  17.625 
  -2  12   4  -30.25   18.23 
   1  12  -4 1719.90   73.80 
  -1  12   4 1716.47   64.30 
  -1  12   4 1542.70   85.08 
   0 -12  -4  787.66   35.25 
   0  12  -4  750.79   45.84 
   0  12   4  782.65   69.40 
  -1 -12  -4  29.893  12.376 
  -1  12  -4  33.715  12.248 
   1  12   4   7.249  22.081 
  -1  12  -4  52.934  19.357 
  -2 -12  -4  963.60   47.65 
  -2  12  -4 1035.11   54.23 
   2  12   4  821.75   78.13 
  -2  12  -4  933.96   47.66 
   3  12   4  63.990  35.240 
  -3  12  -4  82.002  21.576 
   5 -13  -4  799.96   58.31 
  -5  13   4  829.30   59.86 
   5  13  -4  929.46   58.37 
   5  13  -4  866.01   60.38 
  -4  13   4  208.63   40.42 
   4  13  -4  135.30   26.71 
   4  13  -4  143.35   27.71 
  -4  13   4  160.90   30.64 
   3  13  -4  279.63   30.68 
  -3  13   4  186.95   35.88 
  -3  13   4  219.34   32.35 
   3  13  -4  224.63   31.81 
  -2  13   4 1627.28   86.56 
   2  13  -4 1748.94   75.98 
  -2  13   4 1561.36   68.96 
  -1  13   4  305.05   43.89 
  -1  13   4  312.87   29.33 
   1  13  -4  360.99   37.15 
   0  13  -4  678.64   44.83 
   0  13   4  683.41   65.40 
  -1  13  -4 1401.04   56.60 
  -1  13  -4 1315.91   63.78 
   1  13   4 1263.42   82.03 
  -2  13  -4  21.548  13.993 
   2  13   4  55.655  31.882 
  -2  13  -4  37.594  20.161 
   3  13   4  624.45   75.26 
  -3  13  -4  549.18   44.36 
   5 -14  -4  78.148  26.587 
   5  14  -4  73.648  23.742 
   5  14  -4  65.474  25.550 
  -5  14   4  34.463  23.033 
  -4  14   4  710.76   65.89 
   4  14  -4  635.97   48.30 
   4  14  -4  690.22   50.43 
  -4  14   4  673.48   58.20 
  -3  14   4 1256.50   63.36 
   3  14  -4 1255.15   65.89 
   3  14  -4 1144.01   56.88 
  -3  14   4 1218.95   73.91 
  -2  14   4  63.628  28.607 
   2  14  -4  29.699  17.659 
  -2  14   4  -6.185  13.987 
  -1  14   4 1536.76   62.19 
  -1  14   4 1510.79   84.38 
   1  14  -4 1507.25   72.41 
   0  14   4  753.36   69.56 
   0  14  -4  791.17   50.48 
   1  14   4  -29.70   19.93 
  -1  14  -4  63.353  19.727 
  -1  14  -4  32.971  13.399 
  -2  14  -4 1045.43   50.95 
   2  14   4  966.34   87.47 
  -2  14  -4  930.97   54.87 
   5 -15  -4  635.76   60.21 
   5  15  -4  639.14   62.40 
  -5  15   4  848.66   59.71 
   5  15  -4  568.31   54.28 
   4  15  -4  334.41   41.52 
   4  15  -4  350.74   41.32 
  -4  15   4  340.92   42.64 
  -4  15   4  318.22   45.30 
   3  15  -4  95.920  25.051 
  -3  15   4  87.174  28.883 
  -3  15   4  75.307  22.852 
  -2  15   4 2721.72  122.13 
  -2  15   4 2842.40  102.31 
   2  15  -4 2780.53  110.51 
  -1  15   4  162.12   23.60 
  -1  15   4  176.42   35.98 
   1  15  -4  197.05   30.67 
   0  15  -4  652.54   46.84 
   0  15   4  758.19   70.82 
  -1  15  -4 1198.57   54.70 
   1  15   4 1196.68   81.56 
  -1  15  -4 1382.93   67.99 
  -2  15  -4  64.584  17.897 
   2  15   4  128.35   37.68 
  -2  15  -4  64.475  22.594 
   5 -16  -4  63.148  24.446 
   5  16  -4  24.367  26.368 
   5  16  -4  88.469  26.859 
  -5  16   4  95.952  29.970 
   4  16  -4  681.09   58.63 
  -4  16   4  739.64   68.94 
  -4  16   4  675.44   58.85 
   3  16  -4 1345.32   72.46 
  -3  16   4 1421.39   83.70 
  -3  16   4 1369.32   70.58 
  -2  16   4  -6.251  15.425 
   2  16  -4   2.250  15.379 
  -2  16   4  -11.58   19.50 
  -1  16   4 1527.36   86.88 
  -1  16   4 1544.75   65.72 
   1  16  -4 1419.33   73.26 
   0  16  -4  426.79   45.27 
   0  16   4  487.61   59.31 
   1  16   4  73.755  31.833 
  -1  16  -4  21.250  18.680 
  -1  16  -4  -11.78    9.20 
  -2  16  -4  898.80   50.00 
  -2  16  -4 1010.70   61.14 
   2  16   4 1107.11   84.08 
  -4  17   4  485.38   51.08 
  -4  17   4  358.94   48.74 
   4  17  -4  361.91   44.72 
  -3  17   4  302.95   47.24 
  -3  17   4  310.84   38.76 
   3  17  -4  304.65   40.32 
  -2  17   4 1386.22   67.08 
  -2  17   4 1283.22   80.71 
   2  17  -4 1278.01   71.44 
  -1  17   4  428.80   54.16 
  -1  17   4  348.18   39.43 
   1  17  -4  429.73   45.89 
   0  17  -4  461.57   47.09 
   0  17   4  420.70   55.14 
   1  17   4 1349.02   89.96 
  -1  17  -4 1378.09   73.85 
  -1  17  -4 1384.70   60.71 
  -2  17  -4  -9.813  13.640 
   2  17   4  34.745  29.762 
  -2  17  -4  -8.355  21.022 
  -4  18   4  761.51   55.89 
  -4  18   4  639.63   64.10 
   4  18  -4  710.76   62.62 
   3  18  -4  700.80   62.49 
  -3  18   4  808.38   54.05 
  -3  18   4  662.73   67.99 
  -2  18   4  -4.462  25.178 
  -2  18   4  14.003  18.524 
   2  18  -4  -0.751  15.957 
  -1  18   4  979.00   71.56 
   1  18  -4  851.86   58.65 
   0  18  -4  549.79   53.58 
   0  18   4  419.23   57.28 
  -1  18  -4  75.638  17.903 
  -1  18  -4  110.84   28.25 
   1  18   4  117.93   35.98 
  -4  19   4  463.98   51.95 
  -4  19   4  441.22   55.30 
   4  19  -4  519.95   55.74 
   3  19  -4  167.49   34.81 
  -3  19   4  232.67   41.12 
  -3  19   4  152.48   32.86 
  -2  19   4 1250.80   81.68 
  -2  19   4 1171.01   65.78 
   2  19  -4 1423.19   78.38 
  -1  19   4  203.82   41.32 
   1  19  -4  227.32   38.17 
   0  19  -4  507.00   50.91 
   0  19   4  339.45   53.89 
  -1  19  -4  859.52   60.66 
   1  19   4  702.00   77.09 
  -3  20   4  662.16   58.80 
   3  20  -4  741.48   66.03 
  -3  20   4  580.25   64.97 
   2  20  -4   3.697  21.515 
  -2  20   4   3.290  18.251 
  -2  20   4  20.939  26.320 
   1  20  -4  636.36   60.31 
  -1  20   4  626.08   67.74 
   0  20   4  519.25   65.87 
   0  20  -4  546.72   56.08 
  -3  21   4  311.75   47.67 
   3  21  -4  212.74   40.58 
  -3  21   4  312.56   43.41 
  -2  21   4  919.85   71.38 
  -2  21   4  847.36   58.79 
   2  21  -4  935.71   66.36 
  -1  21   4  206.26   44.73 
   1  21  -4  169.49   35.15 
   0  21   4  304.82   53.74 
   0  21  -4  391.65   49.44 
   6   0  -5  46.208  22.251 
   5   0  -5  575.63   54.83 
   4   0  -5 1218.06   64.52 
  -3   0   5  -5.760  17.655 
   2   0  -5  894.52   36.46 
  -2   0   5  888.99   56.25 
   1   0  -5 1361.75   50.15 
  -1   0   5 1320.73   70.26 
   0   0  -5  175.47   20.77 
   0   0   5  148.20   30.44 
   1   0   5 1456.57   76.40 
  -1   0  -5 1469.15   58.94 
  -2   0  -5  122.50   21.05 
   2   0   5  136.74   33.01 
   3   0   5  52.199  30.667 
  -3   0  -5  27.774  15.848 
   6  -1  -5  950.68   66.97 
   6   1  -5 1092.43   69.92 
   5  -1  -5  959.06   61.86 
   5   1  -5  979.96   63.71 
   4  -1  -5  323.40   38.94 
   4   1  -5  402.78   41.68 
  -3  -1   5 1446.03   73.29 
  -3   1   5 1510.66   76.77 
   2  -1  -5  657.08   29.23 
  -2  -1   5  627.52   53.52 
  -2   1   5  664.85   57.68 
   1  -1  -5  332.03   21.65 
  -1  -1   5  286.21   36.43 
  -1   1   5  256.98   39.34 
   1   1  -5  293.83   25.89 
   1   1  -5  349.88   23.20 
   0  -1  -5 1369.29   52.84 
   0  -1   5 1407.88   70.34 
   0   1   5 1335.12   71.67 
   0   1  -5 1321.93   52.68 
   1  -1   5  122.43   29.48 
  -1  -1  -5  112.15   17.84 
   1   1   5  96.174  28.680 
  -1   1  -5  136.57   19.93 
  -2  -1  -5  214.73   26.08 
   2  -1   5  263.27   41.66 
   2   1   5  371.09   51.53 
  -2   1  -5  252.27   29.10 
  -3  -1  -5  558.01   45.69 
   3   1   5  682.75   70.81 
  -3   1  -5  579.48   45.95 
   6  -2  -5  175.59   35.59 
   6   2  -5  225.46   38.99 
   5  -2  -5 1220.41   70.52 
   5   2  -5 1151.62   67.91 
   4  -2  -5 1349.85   70.82 
   4   2  -5 1449.50   71.15 
  -3  -2   5  73.738  25.388 
  -3   2   5  80.394  26.371 
   2  -2  -5  689.87   30.35 
  -2  -2   5  688.70   49.71 
  -2   2   5  678.85   52.54 
   1  -2  -5 1306.93   49.03 
  -1  -2   5 1473.21   70.25 
  -1   2   5 1451.63   75.89 
   1   2  -5 1349.65   50.66 
   1   2  -5 1307.40   53.12 
   0  -2   5  129.07   25.51 
   0  -2  -5  110.03   16.12 
   0   2  -5  99.015  15.833 
   0   2   5  133.75   32.41 
  -1  -2  -5 1233.48   52.75 
   1  -2   5 1118.80   65.50 
   1   2   5 1238.62   72.52 
  -1   2  -5 1209.68   52.20 
   2  -2   5  243.68   39.30 
  -2  -2  -5  329.45   31.00 
   2   2   5  318.55   49.57 
  -2   2  -5  335.75   32.84 
  -3  -2  -5  114.77   23.74 
  -3   2  -5  78.512  19.435 
   3   2   5  135.23   37.32 
   6  -3  -5 1282.36   77.92 
   6   3  -5 1325.82   81.38 
   5  -3  -5  466.62   50.10 
   5   3  -5  582.09   54.30 
   4  -3  -5  29.210  16.317 
   4   3  -5  10.762  14.107 
  -4   3   5  -6.183  16.745 
   3  -3  -5 3058.69   86.25 
   3   3  -5 3039.71  110.09 
  -3   3   5 3074.19  121.76 
  -2  -3   5  245.22   33.86 
   2  -3  -5  264.95   19.67 
  -2   3   5  236.47   38.43 
  -1  -3   5  503.03   45.85 
   1  -3  -5  527.81   27.71 
   1   3  -5  524.68   31.85 
  -1   3   5  466.58   49.45 
   1   3  -5  570.96   29.30 
   0  -3  -5 1181.99   47.92 
   0  -3   5 1143.43   61.91 
   0   3  -5 1178.28   48.33 
   0   3   5 1123.97   70.57 
  -1  -3  -5  270.99   26.10 
   1  -3   5  218.77   34.21 
  -1   3  -5  254.97   26.26 
   1   3   5  219.83   38.83 
  -2  -3  -5  550.94   37.72 
   2   3   5  753.05   71.09 
  -2   3  -5  664.37   39.86 
  -3  -3  -5  537.55   43.97 
   3   3   5  579.55   68.31 
  -3   3  -5  560.59   46.08 
   6  -4  -5  66.871  26.966 
   6   4  -5  128.48   30.92 
   5  -4  -5  696.15   52.38 
   5   4  -5  713.13   52.28 
  -4   4   5 1453.72   79.38 
   4   4  -5 1496.32   72.73 
  -3   4   5  197.04   35.00 
   3   4  -5  184.13   27.13 
   2  -4  -5 2043.74   62.80 
  -2  -4   5 1920.70   83.25 
  -2   4   5 2087.05   94.81 
  -1  -4   5 1241.44   63.19 
   1  -4  -5 1238.32   47.01 
  -1   4   5 1412.32   77.05 
   1   4  -5 1269.16   49.79 
   1   4  -5 1326.13   54.40 
   0  -4   5  79.435  22.068 
   0  -4  -5  78.264  14.741 
   0   4  -5  48.865  13.990 
   0   4   5  87.638  27.951 
   0   4  -5  92.624  15.713 
  -1  -4  -5 1019.74   47.08 
   1  -4   5  966.86   57.60 
   1   4   5 1055.02   71.45 
  -1   4  -5 1037.25   48.04 
  -2  -4  -5  451.32   37.47 
   2   4   5  472.46   57.56 
  -2   4  -5  458.27   37.82 
  -3  -4  -5  242.67   31.58 
   3   4   5  238.85   48.41 
  -3   4  -5  220.34   29.15 
   6  -5  -5  669.21   65.76 
   6   5  -5  822.66   62.81 
   5  -5  -5  469.37   50.43 
   5   5  -5  511.57   51.23 
   4   5  -5  29.429  17.230 
  -4   5   5  28.882  21.995 
   3   5  -5 2223.22   86.17 
  -3   5   5 2118.15   98.40 
  -2  -5   5  621.03   43.71 
   2  -5  -5  629.03   26.94 
  -2   5   5  474.69   51.96 
   1  -5  -5  683.91   31.25 
  -1  -5   5  675.82   45.84 
   1   5  -5  694.26   34.22 
  -1   5   5  692.13   63.57 
   1   5  -5  636.66   37.70 
   0  -5  -5 1515.81   57.21 
   0  -5   5 1532.85   69.64 
   0   5  -5 1519.17   59.78 
   0   5  -5 1536.46   59.03 
   0   5   5 1599.65   83.92 
  -1  -5  -5  167.84   21.94 
  -1   5  -5  217.09   23.92 
   1   5   5  164.90   35.72 
  -2  -5  -5 1015.06   50.47 
   2   5   5  859.64   79.65 
  -2   5  -5  900.21   47.87 
   6  -6  -5  173.53   37.01 
   6   6  -5  188.48   37.38 
   5  -6  -5  500.58   53.75 
   5   6  -5  542.93   53.44 
   4   6  -5 1863.00   81.51 
  -4   6   5 1601.33   86.97 
  -3   6   5  104.60   29.92 
   3   6  -5  61.578  16.429 
  -2  -6   5 1526.09   69.14 
   2  -6  -5 1588.21   50.46 
  -2   6   5 1578.50   82.91 
   2   6  -5 1519.86   65.73 
   1  -6  -5 1034.72   39.47 
  -1  -6   5  880.16   49.85 
  -1   6   5  977.29   65.10 
   1   6  -5  948.12   47.48 
   0  -6  -5  44.036  12.377 
   0  -6   5  37.119  19.904 
   0   6   5   3.069  20.800 
   0   6  -5  42.062  15.613 
   0   6  -5  59.787  13.116 
  -1  -6  -5 1151.29   50.45 
  -1   6  -5 1061.23   49.91 
   1   6   5 1145.06   75.39 
  -2  -6  -5  477.35   39.25 
  -2   6  -5  402.53   36.00 
   2   6   5  425.86   57.58 
   6  -7  -5  659.24   65.63 
   6   7  -5  692.97   65.45 
   5  -7  -5  544.96   56.55 
   5   7  -5  507.88   52.72 
  -4   7   5  112.59   30.00 
   4   7  -5  107.80   23.36 
  -3   7   5 1722.80   88.84 
   3   7  -5 1727.16   73.31 
  -2   7   5  492.22   54.62 
   2   7  -5  650.39   40.15 
   2   7  -5  668.11   38.65 
   1  -7  -5  769.14   33.88 
  -1  -7   5  840.43   45.98 
  -1   7   5  837.87   63.12 
   1   7  -5  792.96   43.09 
   0  -7  -5 1208.03   48.30 
   0   7   5 1161.22   75.70 
   0   7  -5 1186.45   50.31 
   0   7  -5 1205.38   53.87 
  -1  -7  -5  165.58   21.62 
  -1   7  -5  123.53   20.54 
   1   7   5  96.834  33.854 
  -2  -7  -5  836.05   46.70 
   2   7   5  877.62   80.83 
  -2   7  -5  813.83   45.75 
   6  -8  -5  392.29   51.72 
   6   8  -5  274.14   43.32 
   5  -8  -5  456.75   51.48 
   5   8  -5  406.51   46.42 
  -4   8   5 1345.64   79.35 
   4   8  -5 1405.15   69.13 
   3   8  -5  74.371  18.134 
  -3   8   5  72.153  26.731 
  -2   8   5 1096.75   69.66 
   2   8  -5 1005.51   48.98 
   2   8  -5 1058.37   53.67 
   1  -8  -5 2080.29   66.81 
   1   8  -5 2107.53   80.60 
  -1   8   5 1970.21   98.32 
   0  -8  -5  29.734  11.808 
   0   8  -5  67.325  14.129 
   0   8   5  63.667  27.753 
   0   8  -5  43.061  15.902 
  -1  -8  -5 1021.10   47.73 
   1   8   5 1038.45   74.56 
  -1   8  -5  951.55   47.70 
  -2  -8  -5  269.01   30.14 
  -2   8  -5  299.94   31.39 
   2   8   5  410.91   58.14 
   6  -9  -5  606.62   63.85 
   6   9  -5  522.88   59.23 
   5  -9  -5  538.04   56.75 
   5   9  -5  610.41   56.78 
   4   9  -5  189.63   30.92 
  -4   9   5  147.23   35.09 
  -4   9   5  140.65   29.37 
   3   9  -5 1139.83   57.28 
  -3   9   5 1203.03   76.37 
   3   9  -5 1306.41   63.80 
  -2   9   5  627.55   62.91 
   2   9  -5  858.10   48.46 
   2   9  -5  861.36   43.69 
   1  -9  -5  623.08   29.25 
  -1   9   5  664.22   65.10 
   1   9  -5  560.95   40.71 
   0  -9  -5 2065.39   70.29 
   0   9   5 2040.26  103.98 
   0   9  -5 1967.47   72.52 
   0   9  -5 2004.23   78.96 
  -1  -9  -5  -8.040   9.941 
   1   9   5  38.125  28.269 
  -1   9  -5   1.448  10.579 
  -2  -9  -5  942.60   49.65 
   2   9   5 1063.03   93.90 
  -2   9  -5  861.76   48.81 
   5 -10  -5  572.50   59.38 
   5  10  -5  637.81   57.91 
  -5  10   5  581.70   59.89 
   4  10  -5 1236.36   64.49 
  -4  10   5 1326.84   69.95 
  -4  10   5 1037.45   71.71 
   3  10  -5  -10.75   10.22 
  -3  10   5  18.262  15.903 
   3  10  -5   1.890  13.157 
  -3  10   5  22.691  21.631 
   2  10  -5  784.34   48.88 
  -2  10   5 1013.82   69.11 
  -1  10   5 1957.66   98.42 
   1  10  -5 1698.40   75.35 
   0 -10  -5  56.622  13.578 
   0  10  -5  75.503  18.759 
   0  10  -5  79.576  15.704 
   0  10   5  27.163  26.095 
  -1 -10  -5 1051.32   49.89 
   1  10   5 1162.57   81.26 
  -1  10  -5 1189.30   53.34 
  -2 -10  -5  426.01   38.82 
   2  10   5  419.11   61.67 
  -2  10  -5  490.74   40.60 
   5 -11  -5  612.69   61.53 
  -5  11   5  704.55   63.20 
   5  11  -5  577.05   58.36 
   4  11  -5  320.37   37.66 
   4  11  -5  386.07   42.92 
  -4  11   5  313.99   46.86 
  -4  11   5  333.37   41.73 
   3  11  -5 1137.05   57.27 
   3  11  -5 1072.76   60.95 
  -3  11   5 1120.36   74.40 
  -3  11   5 1195.21   62.45 
   2  11  -5  542.79   47.05 
  -2  11   5  449.33   39.01 
  -2  11   5  337.24   48.64 
  -1  11   5  549.17   61.95 
   1  11  -5  540.91   40.21 
   0 -11  -5 1013.17   45.81 
   0  11  -5 1086.17   50.73 
   0  11   5 1303.54   81.68 
   0  11  -5 1175.42   59.48 
  -1 -11  -5  16.584  12.925 
   1  11   5  13.389  26.276 
  -1  11  -5   8.949  12.216 
  -2 -11  -5  523.22   42.07 
  -2  11  -5  530.34   42.15 
   2  11   5  447.11   63.35 
   5 -12  -5  293.82   44.55 
  -5  12   5  431.68   50.76 
   5  12  -5  330.60   41.40 
   5  12  -5  327.41   43.19 
  -4  12   5  713.34   70.56 
   4  12  -5  762.86   50.81 
   4  12  -5  868.79   55.55 
  -4  12   5  797.39   57.85 
  -3  12   5  -18.06   19.26 
  -3  12   5  20.998  19.371 
   3  12  -5  -6.720  16.912 
  -2  12   5  862.80   49.41 
  -2  12   5 1001.09   73.25 
   2  12  -5  933.88   54.81 
   1  12  -5  969.05   56.17 
  -1  12   5  910.66   70.05 
   0 -12  -5  78.856  15.585 
   0  12  -5  98.441  24.585 
   0  12  -5  84.009  18.187 
   0  12   5  129.73   37.81 
  -1 -12  -5  878.73   43.49 
  -1  12  -5  836.17   45.00 
   1  12   5  660.15   74.56 
  -2 -12  -5  289.32   31.55 
  -2  12  -5  298.66   32.88 
   2  12   5  298.71   55.41 
   5 -13  -5  447.32   54.24 
  -5  13   5  370.43   48.08 
   5  13  -5  387.41   46.68 
   5  13  -5  304.35   43.42 
  -5  13   5  337.07   50.99 
   4  13  -5  27.397  19.451 
  -4  13   5  76.211  25.560 
  -4  13   5  -13.61   22.07 
   4  13  -5  38.532  21.522 
   3  13  -5 1397.43   71.98 
  -3  13   5 1370.08   86.48 
  -3  13   5 1334.09   69.44 
   2  13  -5  216.61   33.05 
  -2  13   5  202.67   29.45 
  -2  13   5  221.37   42.93 
  -1  13   5  313.45   48.17 
   1  13  -5  346.33   38.26 
   0  13  -5  768.70   49.53 
   0  13   5  704.13   73.05 
  -1 -13  -5  106.98   19.97 
   1  13   5  137.68   40.88 
  -1  13  -5  96.162  25.250 
  -1  13  -5  91.567  18.926 
   5 -14  -5  172.10   36.83 
  -5  14   5  324.82   47.18 
  -5  14   5  221.93   44.45 
   5  14  -5  248.11   38.82 
   5  14  -5  218.44   37.42 
   4  14  -5  711.07   61.72 
  -4  14   5  596.69   66.78 
  -4  14   5  616.98   56.73 
  -3  14   5  17.484  24.617 
  -3  14   5  34.064  19.781 
   3  14  -5   9.791  18.407 
   2  14  -5 1103.48   63.41 
  -2  14   5  966.56   73.38 
  -2  14   5  937.37   53.99 
   1  14  -5  541.97   50.31 
  -1  14   5  617.97   68.41 
   0  14   5  29.573  27.059 
   0  14  -5  21.037  20.987 
  -1  14  -5  901.73   57.16 
   1  14   5  893.62   87.96 
  -1  14  -5 1046.68   52.32 
  -4  15   5  56.428  29.999 
  -4  15   5  171.14   34.82 
   4  15  -5  65.236  23.858 
   3  15  -5 1524.69   79.94 
  -3  15   5 1515.88   76.54 
  -3  15   5 1625.28   93.93 
   2  15  -5  78.625  24.512 
  -2  15   5  60.703  30.825 
   1  15  -5  299.67   38.57 
  -1  15   5  248.70   47.20 
   0  15   5  596.57   69.50 
   0  15  -5  647.15   54.97 
  -1  15  -5  108.55   21.66 
   1  15   5  70.933  35.471 
  -1  15  -5  100.73   27.78 
  -4  16   5  825.93   60.43 
   4  16  -5  863.71   61.35 
  -4  16   5  952.86   85.42 
  -3  16   5  25.980  28.568 
  -3  16   5  -20.70   16.46 
   3  16  -5  30.468  21.631 
   2  16  -5 1039.50   65.90 
  -2  16   5 1129.26   80.27 
   1  16  -5  230.96   36.46 
  -1  16   5  366.75   54.72 
   0  16  -5  59.339  23.209 
   0  16   5  -19.79   23.21 
  -3  17   5  914.80   59.85 
  -3  17   5  829.96   80.28 
   3  17  -5  823.37   60.90 
  -2  17   5  152.46   40.16 
   2  17  -5  162.41   34.20 
   1  17  -5  401.84   46.75 
  -1  17   5  370.44   55.67 
   0  17  -5  831.21   60.25 
   0  17   5  838.36   84.04 
  -3  18   5  -9.781  19.113 
   3  18  -5  -24.66   18.73 
  -3  18   5  -14.61   21.87 
  -2  18   5  516.64   64.47 
   2  18  -5  430.48   50.46 
  -1  18   5  612.90   71.27 
   1  18  -5  542.04   55.50 
  -2  19   5  126.19   43.46 
   2  19  -5  140.95   34.21 
   5   0  -6 1253.91   74.47 
   4   0  -6  21.387  18.252 
   3   0  -6 1083.07   42.66 
  -3   0   6  966.08   64.70 
   2   0  -6 1765.67   62.99 
  -2   0   6 1773.97   89.17 
   1   0  -6  2.6985  9.8312 
  -1   0   6  -8.419  19.839 
   0   0  -6 1276.11   55.59 
   0   0   6 1385.28   79.34 
  -1   0  -6  570.74   38.02 
   1   0   6  415.38   53.82 
   5  -1  -6  31.210  20.388 
   5   1  -6   5.055  15.994 
   4  -1  -6  744.81   53.70 
  -4   1   6  701.05   64.31 
   4   1  -6  658.10   49.73 
  -3  -1   6  526.61   53.40 
  -3   1   6  528.12   55.13 
  -2  -1   6  205.36   35.74 
   2  -1  -6  219.67   21.81 
   2   1  -6  237.91   22.45 
  -2   1   6  232.07   38.83 
   1  -1  -6 2028.82   73.15 
  -1  -1   6 2161.86   98.09 
   1   1  -6 2145.61   74.28 
  -1   1   6 2078.41  100.64 
   0  -1  -6  159.64   21.75 
   0  -1   6  184.65   36.60 
   0   1  -6  207.28   24.91 
   0   1   6  203.98   40.57 
   1  -1   6  521.68   57.82 
  -1  -1  -6  519.24   40.75 
   1   1   6  556.92   62.29 
  -1   1  -6  540.20   42.62 
   5  -2  -6  905.48   63.03 
   5   2  -6  968.98   63.87 
  -4   2   6  15.679  25.559 
   4   2  -6  16.938  15.026 
  -3  -2   6  991.07   62.58 
  -3   2   6  935.43   68.48 
   2  -2  -6 1398.57   53.70 
  -2  -2   6 1608.69   80.20 
   2   2  -6 1532.08   56.54 
  -2   2   6 1476.30   81.89 
  -1  -2   6   7.871  22.009 
   1  -2  -6  -6.346   8.665 
   1   2  -6   5.170  10.665 
  -1   2   6  -1.871  19.662 
   0  -2   6 1220.36   71.78 
   0  -2  -6 1132.76   51.10 
   0   2   6 1119.02   75.49 
   0   2  -6 1154.73   52.47 
  -1  -2  -6  655.80   41.86 
   1   2   6  704.64   70.23 
  -1   2  -6  768.24   44.34 
   5  -3  -6  35.266  22.065 
   5   3  -6  -5.666  18.044 
  -4   3   6 1192.91   75.82 
   4   3  -6 1251.08   67.63 
  -3  -3   6  356.11   44.54 
  -3   3   6  343.50   47.53 
  -2  -3   6  275.82   37.94 
   2  -3  -6  257.39   22.62 
  -2   3   6  215.73   40.40 
   2   3  -6  307.32   31.47 
   2   3  -6  292.15   25.08 
   1  -3  -6 1758.41   63.71 
  -1  -3   6 1717.13   84.27 
  -1   3   6 1579.31   91.10 
   1   3  -6 1825.73   66.19 
   0  -3  -6  251.89   26.26 
   0  -3   6  180.74   35.35 
   0   3   6  189.39   39.58 
   0   3  -6  223.85   25.68 
  -1  -3  -6  477.61   38.40 
   1   3   6  473.70   58.70 
  -1   3  -6  457.06   38.47 
   5  -4  -6  896.54   63.36 
   5   4  -6  917.96   63.76 
  -4   4   6  195.10   38.66 
   4   4  -6  250.22   35.17 
  -3   4   6 1437.94   82.80 
   3   4  -6 1390.00   69.45 
  -2  -4   6  892.97   56.35 
  -2   4   6  771.57   70.44 
   2   4  -6  919.95   48.64 
   2   4  -6  848.82   40.73 
   1  -4  -6  20.566  11.211 
  -1  -4   6  22.385  20.553 
  -1   4   6  14.188  22.769 
   1   4  -6  37.256  12.406 
   0  -4  -6  873.16   44.17 
   0   4  -6  904.78   45.41 
   0   4   6  908.94   79.35 
  -1  -4  -6  580.46   37.76 
  -1   4  -6  602.40   38.96 
   1   4   6  649.64   69.95 
   5  -5  -6  26.767  18.669 
   5   5  -6  61.141  23.123 
  -4   5   6 1154.87   76.51 
   4   5  -6 1197.02   65.96 
  -3   5   6  510.61   57.38 
   3   5  -6  510.92   39.91 
  -2  -5   6  486.88   47.69 
   2   5  -6  448.28   40.06 
  -2   5   6  336.79   48.56 
   1  -5  -6 1093.54   47.05 
  -1  -5   6 1349.27   78.18 
  -1   5   6 1108.08   77.19 
   1   5  -6 1089.75   49.30 
   0  -5  -6  191.67   23.30 
   0   5  -6  178.24   24.63 
   0   5   6  211.97   40.87 
  -1  -5  -6  223.54   26.74 
  -1   5  -6  294.69   31.01 
   1   5   6  233.08   48.44 
   5  -6  -6  743.71   69.24 
   5   6  -6  724.66   64.20 
   4   6  -6  190.93   31.99 
  -4   6   6  251.41   44.13 
   3   6  -6  691.05   46.25 
  -3   6   6  591.38   63.54 
  -2  -6   6  591.76   45.97 
  -2   6   6  510.75   58.87 
   2   6  -6  529.02   39.55 
   1  -6  -6  16.396  11.404 
   1   6  -6  19.908  17.476 
   1   6  -6   6.198  10.718 
  -1   6   6  34.288  26.158 
   0  -6  -6  819.62   42.38 
   0   6  -6  820.40   43.33 
   0   6   6  804.82   75.41 
  -1  -6  -6  576.20   39.28 
  -1   6  -6  617.86   40.27 
   1   6   6  706.66   74.31 
   5  -7  -6  39.025  25.123 
   5   7  -6  97.814  26.528 
  -4   7   6 1191.12   79.10 
   4   7  -6 1092.31   63.18 
   3   7  -6  454.73   43.07 
   3   7  -6  371.89   39.15 
  -3   7   6  294.59   48.12 
   2   7  -6  202.25   29.58 
  -2   7   6  158.83   37.65 
  -1   7   6  941.12   81.58 
   1   7  -6  846.00   42.80 
   1   7  -6  777.57   47.67 
   0  -7  -6  253.23   26.66 
   0   7  -6  319.95   30.63 
   0   7   6  309.39   50.11 
  -1  -7  -6  353.30   33.85 
  -1   7  -6  331.90   33.92 
   1   7   6  316.46   53.15 
   5  -8  -6  724.24   69.21 
   5   8  -6  735.74   55.58 
  -4   8   6  14.860  27.771 
   4   8  -6  112.19   25.58 
   3   8  -6  414.72   40.48 
  -3   8   6  374.21   52.95 
   3   8  -6  321.77   37.85 
   2   8  -6  925.69   52.98 
  -2   8   6  874.39   78.79 
  -1   8   6  28.743  30.534 
   1   8  -6  25.989  12.126 
   1   8  -6  20.418  16.537 
   0  -8  -6  577.04   35.40 
   0   8  -6  631.28   38.34 
   0   8   6  570.21   67.16 
  -1  -8  -6  409.20   36.01 
   1   8   6  492.42   66.61 
  -1   8  -6  445.19   39.30 
   5  -9  -6  106.56   33.21 
   5   9  -6  80.412  26.482 
  -5   9   6  98.484  34.423 
   4   9  -6 1269.51   68.77 
  -4   9   6 1349.04   87.00 
   4   9  -6 1290.38   70.93 
   3   9  -6  467.78   46.87 
  -3   9   6  335.69   52.73 
   2   9  -6  186.75   28.86 
  -2   9   6  269.02   47.42 
   1   9  -6 1033.97   48.90 
  -1   9   6 1021.34   78.50 
   1   9  -6  973.52   55.65 
   0  -9  -6  138.76   20.79 
   0   9   6  95.980  40.424 
   0   9  -6  116.37   20.37 
   4  10  -6  79.934  23.756 
  -4  10   6  41.531  28.117 
   4  10  -6  99.720  26.141 
   3  10  -6  343.62   40.94 
  -3  10   6  402.77   56.34 
   2  10  -6  902.22   55.39 
  -2  10   6  935.86   73.16 
  -1  10   6   9.713  25.474 
   1  10  -6   8.046  11.222 
   1  10  -6  -3.511  15.953 
   0  10  -6  859.96   46.74 
   0  10   6  845.55   82.65 
  -4  11   6  794.49   81.11 
   4  11  -6  845.49   57.58 
   3  11  -6  540.03   50.61 
  -3  11   6  593.78   68.25 
   2  11  -6  150.69   28.74 
  -2  11   6  121.16   37.64 
  -1  11   6 1081.92   81.59 
   1  11  -6  886.85   55.92 
   0  11  -6  53.078  16.070 
   0  11   6  74.283  35.070 
   4  12  -6  213.36   36.31 
  -4  12   6  225.76   45.15 
  -3  12   6  578.69   68.61 
   3  12  -6  723.15   52.55 
  -2  12   6  680.48   74.02 
   2  12  -6  794.13   53.91 
  -1  12   6  82.917  35.366 
   1  12  -6  -0.598  15.315 
   0  12  -6  632.54   39.55 
   0  12   6  495.51   66.74 
   3  13  -6  521.78   53.81 
  -3  13   6  495.20   65.14 
   2  13  -6  178.75   35.20 
  -2  13   6  126.66   38.60 
   1  13  -6  786.53   54.63 
  -1  13   6  844.15   82.82 
  -3  14   6  737.55   78.91 
   3  14  -6  673.17   61.84 
   2  14  -6 1011.23   63.56 
  -2  14   6  780.36   83.04 
   1  14  -6  10.905  20.150 
  -1  14   6  11.548  27.838 
   4   0  -7  158.60   33.11 
  -3   0   7 1274.19   79.80 
   2   0  -7  102.41   18.39 
  -2   0   7  95.303  33.711 
   1   0  -7  784.53   43.48 
  -1   0   7  719.31   69.98 
  -4   1   7  396.09   55.93 
   4   1  -7  506.86   55.95 
  -3  -1   7  48.979  28.021 
  -3   1   7  14.965  24.705 
  -2  -1   7  724.72   67.72 
  -2   1   7  710.97   70.91 
   2   1  -7  738.38   39.92 
  -1  -1   7  251.25   45.41 
   1  -1  -7  260.98   28.93 
   1   1  -7  255.18   28.42 
  -1   1   7  282.83   47.95 
   4   2  -7  346.11   44.20 
  -4   2   7  303.93   48.29 
  -3  -2   7  829.01   72.24 
  -3   2   7  853.72   76.66 
  -2  -2   7  67.027  30.646 
   2   2  -7  93.290  18.016 
  -2   2   7  151.93   39.35 
   1  -2  -7  588.32   37.55 
  -1   2   7  627.74   67.91 
   1   2  -7  652.84   39.50 
   4   3  -7  650.42   59.64 
  -4   3   7  666.67   69.55 
  -3  -3   7  115.14   33.29 
   3   3  -7  86.464  16.846 
  -3   3   7  122.28   38.34 
  -2  -3   7  765.46   68.03 
  -2   3   7  758.93   74.01 
   2   3  -7  784.38   42.35 
   1  -3  -7  210.51   25.76 
  -1   3   7  176.56   42.44 
   1   3  -7  204.25   26.33 
  -3  -4   7  921.72   66.14 
   3   4  -7  978.03   55.58 
  -3   4   7  921.28   72.16 
   3   4  -7  923.57   60.80 
   3   4  -7  919.42   45.26 
  -2   4   7  10.495  26.281 
   2   4  -7  27.669  14.075 
  -1   4   7  755.59   77.00 
   1   4  -7  677.81   40.91 
   3   5  -7  172.88   30.77 
   3   5  -7  94.875  17.789 
   3   5  -7  43.806  19.870 
  -3   5   7  81.608  32.037 
  -2   5   7  607.50   69.27 
   2   5  -7  709.43   39.21 
   3   6  -7  743.28   51.73 
  -3   6   7  826.55   80.13 
   2   6  -7   1.759  11.026 
  -2   6   7  -4.994  24.226 
   2   7  -7  901.19   46.24 
  -2   7   7 1015.03   91.71 
   0   0   0    0.00    0.00   0 
;
_shelx_hkl_checksum              5871
_shelx_fab_file
; 
    1    0    0     13.34     -0.41 
    2    0    0      3.84      0.11 
    3    0    0      3.28      0.15 
    4    0    0     -0.02      0.10 
    5    0    0     -0.78      0.14 
    6    0    0     -0.07      0.22 
    1    1    0     11.64      2.13 
    2    1    0      7.70      0.02 
    3    1    0      5.25      0.30 
    4    1    0      4.51      0.76 
    5    1    0      1.69     -0.17 
    6    1    0      1.50      0.24 
    0    2    0    -18.29     -5.82 
    1    2    0    -11.25     -0.95 
    2    2    0     -3.61      1.13 
    3    2    0     -2.68     -0.69 
    4    2    0     -0.65      0.88 
    5    2    0      0.05      0.87 
    6    2    0      0.15     -0.23 
    1    3    0     -6.21     -4.47 
    2    3    0     -5.03     -0.31 
    3    3    0     -2.85     -0.41 
    4    3    0     -2.15     -1.14 
    5    3    0     -1.60      0.63 
    6    3    0     -1.33      0.08 
    0    4    0      7.70      4.56 
    1    4    0      6.30      0.08 
    2    4    0      2.91     -1.74 
    3    4    0      1.60      0.43 
    4    4    0      1.91     -0.86 
    5    4    0      1.22     -0.62 
    6    4    0     -0.07      0.20 
    1    5    0      0.60      1.77 
    2    5    0      1.55     -1.11 
    3    5    0     -0.10     -0.98 
    4    5    0     -0.13     -0.36 
    5    5    0      1.29     -0.86 
    6    5    0      0.90     -0.24 
    0    6    0     -0.71      2.24 
    1    6    0     -1.92      2.77 
    2    6    0     -1.28      1.98 
    3    6    0     -0.83      0.29 
    4    6    0     -2.37     -0.02 
    5    6    0     -1.33     -0.35 
    6    6    0     -0.01     -0.26 
    1    7    0      0.76      2.22 
    2    7    0      0.43      3.09 
    3    7    0      1.70      2.83 
    4    7    0      0.67      1.95 
    5    7    0     -0.80      0.96 
    6    7    0     -0.15      0.53 
    0    8    0      0.08     -6.99 
    1    8    0     -0.01     -5.10 
    2    8    0     -0.61     -2.60 
    3    8    0      0.37     -0.79 
    4    8    0      1.60      0.56 
    5    8    0      0.32      0.42 
    6    8    0     -0.10      0.29 
    1    9    0      0.71     -2.89 
    2    9    0     -0.57     -3.63 
    3    9    0     -1.65     -3.52 
    4    9    0     -0.28     -1.88 
    5    9    0      0.30     -0.98 
    6    9    0     -0.37     -1.09 
    0   10    0     -1.17      5.75 
    1   10    0      0.34      5.00 
    2   10    0      1.47      3.41 
    3   10    0      0.17      0.99 
    4   10    0     -0.51     -0.05 
    5   10    0      0.26      0.70 
    6   10    0      0.34     -0.11 
    1   11    0     -0.98      0.47 
    2   11    0      0.28      2.19 
    3   11    0      1.04      2.46 
    4   11    0      0.53      0.68 
    5   11    0     -0.02      0.91 
    6   11    0      0.25      1.43 
    0   12    0     -0.24     -1.78 
    1   12    0     -0.73     -3.04 
    2   12    0     -1.05     -3.32 
    3   12    0     -0.72     -1.29 
    4   12    0      0.12     -0.96 
    5   12    0      0.30     -1.56 
    1   13    0     -0.78      1.40 
    2   13    0     -0.64     -0.11 
    3   13    0     -0.96     -0.64 
    4   13    0     -1.36     -0.01 
    5   13    0      0.00     -0.63 
    0   14    0      2.89     -0.22 
    1   14    0      1.52      1.05 
    2   14    0      0.47      1.98 
    3   14    0      0.76      1.65 
    4   14    0     -0.47      1.41 
    5   14    0     -0.98      1.15 
    1   15    0      2.03     -1.03 
    2   15    0      1.34     -1.08 
    3   15    0      1.37     -0.54 
    4   15    0      1.49      0.28 
    5   15    0     -0.06      0.14 
    0   16    0     -3.37     -0.09 
    1   16    0     -1.91     -0.04 
    2   16    0     -0.68     -0.52 
    3   16    0     -0.22     -1.57 
    4   16    0      0.79     -0.90 
    5   16    0      0.71     -0.19 
    1   17    0     -1.17      0.12 
    2   17    0     -1.47      1.06 
    3   17    0     -1.50      0.52 
    4   17    0     -0.58     -0.47 
    5   17    0      0.01      0.32 
    0   18    0      1.43      0.13 
    1   18    0      1.45     -0.23 
    2   18    0      1.17      0.11 
    3   18    0     -0.31      0.79 
    4   18    0     -0.53      0.00 
    1   19    0     -0.42     -0.41 
    2   19    0      0.80     -0.52 
    3   19    0      0.86      0.10 
    4   19    0     -0.34     -0.01 
    0   20    0      0.35      0.97 
    1   20    0     -0.58      0.30 
    2   20    0     -0.98     -0.53 
    3   20    0      0.23      0.16 
    4   20    0     -0.12      0.52 
    1   21    0      0.86      1.23 
    2   21    0      0.13      0.08 
    3   21    0      0.17     -0.49 
    4   21    0      0.42      0.54 
    0   22    0     -0.57     -1.66 
    1   22    0     -0.09     -0.26 
    2   22    0      0.17      0.74 
    3   22    0      0.27     -0.57 
    1   23    0     -0.35     -1.14 
    2   23    0     -0.74      0.11 
    3   23    0     -0.80      0.37 
    0   24    0      0.20      0.97 
    1   24    0      0.40      0.04 
    2   24    0      0.35     -0.35 
    1   25    0      0.14      0.25 
    2   25    0      0.84     -0.18 
    0   26    0     -0.34      0.10 
    1   26    0     -0.45      0.21 
   -6    0    1     -1.23     -0.23 
   -5    0    1     -2.75     -0.07 
   -4    0    1     -1.94     -0.16 
   -3    0    1     -1.23     -0.05 
   -2    0    1      1.20      0.11 
   -1    0    1      7.97      0.09 
    0    0    1      6.26     -0.17 
    1    0    1      0.42      0.06 
    2    0    1      2.96      0.23 
    3    0    1      2.60      0.12 
    4    0    1      0.07      0.20 
    5    0    1      1.24      0.05 
    6    0    1      0.42     -0.04 
   -6    1    1      0.63      0.27 
   -5    1    1     -0.08      0.00 
   -4    1    1     -1.54      0.20 
   -3    1    1     -1.91      0.96 
   -2    1    1     -3.84     -0.47 
   -1    1    1     -1.15     -0.44 
    0    1    1      6.05      1.94 
    1    1    1      4.35      0.94 
    2    1    1      1.63      0.52 
    3    1    1      4.02      1.34 
    4    1    1      2.41      0.01 
    5    1    1      1.24     -0.45 
    6    1    1      1.66     -0.07 
   -6    2    1      0.88     -0.01 
   -5    2    1      2.20      0.22 
   -4    2    1      2.01     -0.88 
   -3    2    1      0.86      0.28 
   -2    2    1     -1.61      1.32 
   -1    2    1     -5.61     -2.41 
    0    2    1     -4.25     -1.62 
    1    2    1     -0.38      1.42 
    2    2    1     -2.28     -0.16 
    3    2    1     -2.73      1.23 
    4    2    1     -0.99      2.52 
    5    2    1     -1.28      0.80 
    6    2    1     -0.48      0.67 
   -6    3    1     -0.31     -0.42 
   -5    3    1     -0.34      0.00 
   -4    3    1      0.82     -0.48 
   -3    3    1      2.08     -2.33 
   -2    3    1      1.47      0.24 
   -1    3    1     -1.01      0.56 
    0    3    1     -3.25     -3.98 
    1    3    1     -2.15     -2.36 
    2    3    1     -0.32     -1.35 
    3    3    1     -1.38     -2.98 
    4    3    1     -1.82     -0.19 
    5    3    1     -1.50      0.78 
    6    3    1     -1.23      0.19 
   -6    4    1     -0.39      0.52 
   -5    4    1     -0.90      0.14 
   -4    4    1     -1.91      1.13 
   -3    4    1     -0.31     -0.20 
   -2    4    1      2.38     -1.81 
   -1    4    1      1.43      1.22 
    0    4    1      0.16      0.51 
    1    4    1      0.02     -2.26 
    2    4    1      0.91     -0.46 
    3    4    1      2.79     -1.83 
    4    4    1      2.56     -2.97 
    5    4    1      1.34     -1.10 
    6    4    1      0.71     -1.10 
   -6    5    1     -0.17      0.29 
   -5    5    1      0.46      0.42 
   -4    5    1      0.10      1.14 
   -3    5    1     -1.81      2.65 
   -2    5    1      0.63      1.70 
   -1    5    1      3.12      1.16 
    0    5    1      0.98      2.76 
    1    5    1     -0.04      1.28 
    2    5    1     -1.18      0.73 
    3    5    1     -1.24      1.73 
    4    5    1      0.96     -0.09 
    5    5    1      1.10     -0.44 
    6    5    1      0.54     -0.29 
   -6    6    1      0.10     -0.86 
   -5    6    1     -0.31     -0.92 
   -4    6    1      0.97     -0.93 
   -3    6    1     -0.04     -0.03 
   -2    6    1     -2.55      1.32 
   -1    6    1      0.30      2.19 
    0    6    1      2.10      2.87 
    1    6    1      0.92      2.79 
    2    6    1      0.31      1.48 
    3    6    1     -2.19      1.62 
    4    6    1     -2.37      1.59 
    5    6    1     -0.85      0.82 
    6    6    1     -0.99      0.97 
   -6    7    1      0.53      0.12 
   -5    7    1     -0.06     -0.39 
   -4    7    1     -0.61     -1.63 
   -3    7    1      0.86     -2.34 
   -2    7    1     -0.75     -3.34 
   -1    7    1     -3.22     -3.14 
    0    7    1     -1.31     -0.79 
    1    7    1      0.21      0.66 
    2    7    1      1.51      0.82 
    3    7    1      1.47      0.64 
    4    7    1     -0.46      0.64 
    5    7    1      0.08      0.42 
    6    7    1      0.26      0.45 
   -6    8    1      0.18      0.68 
   -5    8    1      0.96      1.50 
   -4    8    1      0.26      1.17 
   -3    8    1      0.05      0.15 
   -2    8    1      1.78     -0.66 
   -1    8    1      0.90     -3.77 
    0    8    1     -1.30     -5.05 
    1    8    1     -1.64     -3.48 
    2    8    1     -0.77     -2.33 
    3    8    1      0.92     -1.22 
    4    8    1      0.34     -0.75 
    5    8    1     -0.22     -0.56 
   -6    9    1     -0.57     -0.57 
   -5    9    1      0.01     -0.44 
   -4    9    1      0.84      1.38 
   -3    9    1      0.19      1.90 
   -2    9    1     -0.13      2.76 
   -1    9    1      1.77      3.30 
    0    9    1      2.51      0.59 
    1    9    1      0.90     -1.29 
    2    9    1     -0.44     -1.88 
    3    9    1      0.12     -1.59 
    4    9    1      0.48     -0.95 
    5    9    1     -0.85     -1.18 
   -6   10    1     -0.73     -0.27 
   -5   10    1     -1.15     -1.48 
   -4   10    1     -0.56     -1.67 
   -3   10    1      0.15     -0.04 
   -2   10    1     -0.71      0.41 
   -1   10    1     -1.85      2.10 
    0   10    1     -0.25      4.06 
    1   10    1      1.23      3.74 
    2   10    1      0.51      2.34 
    3   10    1      0.32      1.08 
    4   10    1      1.33      1.34 
    5   10    1      1.21      0.68 
   -6   11    1      0.33      0.82 
   -5   11    1     -0.86      1.17 
   -4   11    1     -1.24     -0.58 
   -3   11    1     -0.65     -1.20 
   -2   11    1      0.12     -0.57 
   -1   11    1     -0.71     -1.54 
    0   11    1     -2.09     -1.38 
    1   11    1     -1.32      0.56 
    2   11    1     -0.90      1.61 
    3   11    1     -1.28      0.74 
    4   11    1     -0.72      0.75 
    5   11    1      0.36      1.76 
   -6   12    1      1.26      0.11 
   -5   12    1      1.18      1.01 
   -4   12    1     -0.19      1.39 
   -3   12    1     -0.37     -0.21 
   -2   12    1      0.04     -0.34 
   -1   12    1      0.50      0.27 
    0   12    1      0.13     -1.46 
    1   12    1     -0.23     -2.63 
    2   12    1     -0.21     -1.43 
    3   12    1     -0.89     -1.02 
    4   12    1     -1.26     -1.88 
    5   12    1     -1.55     -0.90 
   -6   13    1     -0.01     -0.81 
   -5   13    1      1.86     -0.94 
   -4   13    1      1.76     -0.11 
   -3   13    1      0.69     -0.04 
   -2   13    1      1.03     -1.10 
   -1   13    1      1.00     -0.29 
    0   13    1      0.44      0.99 
    1   13    1      0.56     -0.02 
    2   13    1      1.25     -0.55 
    3   13    1      0.96      0.24 
    4   13    1      0.78     -0.26 
    5   13    1      0.59     -1.12 
   -5   14    1     -1.09     -0.48 
   -4   14    1      0.81     -0.11 
   -3   14    1      0.48      0.35 
   -2   14    1      0.22     -0.05 
   -1   14    1      1.58     -0.73 
    0   14    1      1.35     -0.05 
    1   14    1      0.10      0.64 
    2   14    1      0.43      0.34 
    3   14    1      0.82      0.67 
    4   14    1      0.43      1.08 
    5   14    1      1.30      0.80 
   -5   15    1     -1.96      0.14 
   -4   15    1     -1.92      0.37 
   -3   15    1     -0.89      1.33 
   -2   15    1     -1.86      1.13 
   -1   15    1     -1.66      0.65 
    0   15    1      0.22      0.54 
    1   15    1      0.19      0.38 
    2   15    1     -0.49     -0.06 
    3   15    1     -0.09     -0.08 
    4   15    1     -0.54     -0.11 
    5   15    1     -0.66     -0.17 
   -5   16    1      0.77      0.12 
   -4   16    1     -0.53     -1.04 
   -3   16    1     -0.57     -0.24 
   -2   16    1     -0.53      0.68 
   -1   16    1     -1.97     -0.27 
    0   16    1     -2.17     -0.23 
    1   16    1     -1.11      0.46 
    2   16    1     -0.93      0.04 
    3   16    1     -0.59     -0.08 
    4   16    1     -0.35      0.34 
   -5   17    1      1.23      0.23 
   -4   17    1      1.49     -0.39 
   -3   17    1      1.22     -1.77 
   -2   17    1      1.26     -0.38 
   -1   17    1      1.36      0.11 
    0   17    1      0.60     -1.20 
    1   17    1     -0.12     -0.82 
    2   17    1     -0.34     -0.31 
    3   17    1     -0.08     -0.74 
    4   17    1      0.23      0.14 
   -5   18    1     -0.27      0.14 
   -4   18    1     -0.01      1.05 
   -3   18    1      0.74      0.02 
   -2   18    1      0.95     -0.93 
   -1   18    1      0.64      0.66 
    0   18    1      1.42      0.91 
    1   18    1      1.83      0.11 
    2   18    1      0.94      0.31 
    3   18    1      0.47     -0.35 
    4   18    1      0.91     -0.90 
   -4   19    1     -0.74      0.43 
   -3   19    1     -0.97      1.18 
   -2   19    1      0.20      0.13 
   -1   19    1     -0.10     -0.61 
    0   19    1     -1.20      0.25 
    1   19    1     -0.20      0.62 
    2   19    1      0.44      0.99 
    3   19    1     -0.39      1.06 
    4   19    1     -0.09      0.08 
   -4   20    1     -0.14     -0.38 
   -3   20    1     -0.90      0.00 
   -2   20    1     -0.98      0.57 
   -1   20    1      0.59      0.14 
    0   20    1     -0.08     -0.79 
    1   20    1     -1.16     -1.12 
    2   20    1     -0.29     -0.58 
    3   20    1     -0.31      0.38 
   -4   21    1      0.05     -0.46 
   -3   21    1     -0.10     -0.46 
   -2   21    1     -1.25     -0.59 
   -1   21    1     -0.97      0.24 
    0   21    1      0.50      0.82 
    1   21    1      0.11     -0.20 
    2   21    1     -0.05     -1.09 
    3   21    1      0.61     -0.62 
   -3   22    1      0.80      0.23 
   -2   22    1      0.39     -0.07 
   -1   22    1     -0.68     -0.92 
    0   22    1     -0.63      0.12 
    1   22    1     -0.13      1.07 
    2   22    1     -0.33      0.22 
    3   22    1     -0.03     -0.27 
   -3   23    1      1.18      0.39 
   -2   23    1      1.30      1.07 
   -1   23    1      1.07      0.43 
    0   23    1      0.55     -0.63 
    1   23    1      0.19      0.20 
    2   23    1     -0.08      0.63 
   -2   24    1      0.33     -0.05 
   -1   24    1      0.28      0.82 
    0   24    1      0.56      0.30 
    1   24    1      0.61     -0.11 
    2   24    1      0.30      0.39 
   -2   25    1     -0.75     -1.02 
   -1   25    1     -0.54     -0.67 
    0   25    1     -0.64     -0.29 
    1   25    1     -0.14     -0.48 
    0   26    1     -0.30     -0.26 
   -7    0    2     -0.93     -0.07 
   -6    0    2     -2.13      0.00 
   -5    0    2     -2.15     -0.09 
   -4    0    2     -2.70     -0.17 
   -3    0    2     -4.56     -0.10 
   -2    0    2     -3.41     -0.21 
   -1    0    2     -4.35     -0.33 
    0    0    2     -5.43      0.03 
    1    0    2      0.72      0.14 
    2    0    2      3.02     -0.01 
    3    0    2      0.06      0.10 
    4    0    2      1.48      0.19 
    5    0    2      2.15      0.12 
   -7    1    2      0.40     -0.40 
   -6    1    2      0.09     -0.36 
   -5    1    2     -0.86     -0.29 
   -4    1    2     -0.21      0.39 
   -3    1    2     -1.16     -0.33 
   -2    1    2     -2.07     -1.39 
   -1    1    2     -1.08     -0.38 
    0    1    2     -4.65     -0.42 
    1    1    2     -6.12     -0.46 
    2    1    2     -0.84      1.14 
    3    1    2      0.16      0.57 
    4    1    2     -0.98     -0.39 
    5    1    2      1.00      0.23 
   -7    2    2      0.76      0.04 
   -6    2    2      1.97      0.06 
   -5    2    2      2.21     -0.38 
   -4    2    2      2.40      0.16 
   -3    2    2      3.26      2.06 
   -2    2    2      2.99      0.21 
   -1    2    2      4.32     -1.22 
    0    2    2      4.65     -0.01 
    1    2    2     -0.26     -1.71 
    2    2    2     -2.34     -1.31 
    3    2    2     -0.45      1.35 
    4    2    2     -1.22      0.14 
    5    2    2     -1.69     -0.46 
   -7    3    2     -0.71      0.70 
   -6    3    2     -0.40      0.63 
   -5    3    2      0.56      0.80 
   -4    3    2      1.04     -0.54 
   -3    3    2      1.00      1.00 
   -2    3    2      0.24      3.51 
   -1    3    2      0.79      1.19 
    0    3    2      3.68      0.86 
    1    3    2      4.23      1.07 
    2    3    2      1.49     -2.35 
    3    3    2      0.19     -1.33 
    4    3    2      0.31      0.72 
    5    3    2     -0.54     -0.62 
   -7    4    2     -0.42      0.16 
   -6    4    2     -1.37     -0.05 
   -5    4    2     -1.99      0.34 
   -4    4    2     -1.71     -0.14 
   -3    4    2     -0.60     -2.24 
   -2    4    2     -1.78     -0.13 
   -1    4    2     -4.11      1.82 
    0    4    2     -3.13      0.59 
    1    4    2     -0.70      2.24 
    2    4    2      0.72      1.56 
    3    4    2      0.93     -1.58 
    4    4    2      0.63     -0.25 
    5    4    2      0.88      0.42 
   -6    5    2      0.49     -0.46 
   -5    5    2     -0.11     -0.89 
   -4    5    2     -1.44     -0.17 
   -3    5    2     -0.62     -1.38 
   -2    5    2      1.87     -3.33 
   -1    5    2      0.27     -1.75 
    0    5    2     -1.93     -1.02 
    1    5    2     -1.70     -0.61 
    2    5    2     -1.55      1.92 
    3    5    2     -0.32      1.10 
    4    5    2      0.15     -0.44 
    5    5    2     -0.17      0.63 
   -6    6    2      0.49     -0.18 
   -5    6    2      0.99     -0.31 
   -4    6    2      0.71     -0.15 
   -3    6    2     -1.32      0.71 
   -2    6    2      0.14     -0.30 
   -1    6    2      2.99     -1.41 
    0    6    2      1.90     -1.20 
    1    6    2      1.18     -1.54 
    2    6    2      0.51     -0.68 
    3    6    2     -0.41      0.94 
    4    6    2      0.36      0.24 
    5    6    2     -0.20     -0.24 
   -6    7    2     -0.20      0.36 
   -5    7    2     -0.23      0.66 
   -4    7    2      0.81      0.63 
   -3    7    2      0.17      1.18 
   -2    7    2     -2.50      1.57 
   -1    7    2     -1.57      1.22 
    0    7    2      0.06      0.58 
    1    7    2     -0.20     -0.24 
    2    7    2      0.24     -0.79 
    3    7    2     -0.35     -0.38 
    4    7    2     -0.10      0.31 
    5    7    2      0.68     -0.18 
   -6    8    2      0.30      0.67 
   -5    8    2      0.15      1.04 
   -4    8    2      0.06      0.86 
   -3    8    2      1.54      0.90 
   -2    8    2      1.08      1.11 
   -1    8    2     -1.07      0.90 
    0    8    2     -0.92      1.02 
    1    8    2     -0.53      0.41 
    2    8    2     -0.61     -0.32 
    3    8    2     -0.82     -0.67 
    4    8    2     -1.36     -0.46 
    5    8    2     -0.39      0.25 
   -6    9    2      0.04     -0.58 
   -5    9    2      0.44     -0.34 
   -4    9    2     -0.05     -0.03 
   -3    9    2     -0.05     -0.48 
   -2    9    2      1.50     -0.01 
   -1    9    2      1.80      0.21 
    0    9    2      0.92      0.23 
    1    9    2      1.16      0.63 
    2    9    2      1.66      0.33 
    3    9    2      1.46      0.05 
    4    9    2      0.24     -0.64 
    5    9    2     -0.55     -0.39 
   -6   10    2     -0.66     -1.17 
   -5   10    2     -0.28     -2.10 
   -4   10    2     -0.06     -1.57 
   -3   10    2     -0.88     -1.35 
   -2   10    2     -1.26     -1.77 
   -1   10    2     -0.53     -0.87 
    0   10    2     -0.33     -0.36 
    1   10    2     -0.79      0.01 
    2   10    2      0.01      0.53 
    3   10    2      1.38      1.01 
    4   10    2      1.71      0.82 
    5   10    2      1.04     -0.24 
   -6   11    2     -0.31      0.72 
   -5   11    2     -0.61      0.03 
   -4   11    2      0.23     -0.90 
   -3   11    2      0.36     -0.16 
   -2   11    2     -0.21     -0.39 
   -1   11    2     -0.60     -1.11 
    0   11    2     -0.67     -0.54 
    1   11    2     -1.45     -0.45 
    2   11    2     -2.53     -0.70 
    3   11    2     -2.02     -0.33 
    4   11    2     -0.91      0.69 
    5   11    2     -0.04      0.47 
   -6   12    2      0.61      1.32 
   -5   12    2     -0.59      2.27 
   -4   12    2     -0.53      1.57 
   -3   12    2      0.56      0.96 
   -2   12    2      0.64      1.62 
   -1   12    2      0.88      0.89 
    0   12    2      1.40      0.20 
    1   12    2      1.51      0.56 
    2   12    2      0.40      0.06 
    3   12    2     -0.79     -0.91 
    4   12    2     -1.27     -0.81 
   -6   13    2      0.68     -0.44 
   -5   13    2      0.70      0.28 
   -4   13    2     -1.04      0.89 
   -3   13    2     -0.71      0.28 
   -2   13    2     -0.16      0.23 
   -1   13    2     -0.66      0.57 
    0   13    2     -0.03     -0.14 
    1   13    2      1.18      0.02 
    2   13    2      1.74      0.82 
    3   13    2      1.52      0.63 
    4   13    2      1.29      0.13 
   -6   14    2     -0.40     -1.06 
   -5   14    2      1.26     -1.18 
   -4   14    2      0.89     -0.81 
   -3   14    2     -0.73     -0.81 
   -2   14    2     -0.07     -0.74 
   -1   14    2     -0.26     -0.23 
    0   14    2     -1.25     -0.49 
    1   14    2     -0.89     -1.15 
    2   14    2     -0.17     -0.73 
    3   14    2      0.10     -0.20 
    4   14    2      0.62      0.23 
   -5   15    2     -0.57     -0.47 
   -4   15    2      1.27      0.14 
   -3   15    2      0.66     -0.06 
   -2   15    2     -0.19     -0.52 
   -1   15    2      0.62      0.46 
    0   15    2      0.19      1.20 
    1   15    2     -0.44      0.58 
    2   15    2     -0.33      0.10 
    3   15    2     -0.41     -0.33 
    4   15    2     -0.50     -1.03 
   -5   16    2     -0.91     -0.17 
   -4   16    2     -0.59      0.01 
   -3   16    2      0.66      1.17 
   -2   16    2      0.07     -0.08 
   -1   16    2     -0.24     -1.01 
    0   16    2     -0.05      0.17 
    1   16    2     -0.37      0.73 
    2   16    2     -0.37      0.84 
    3   16    2     -0.36      1.36 
    4   16    2     -0.33      0.44 
   -5   17    2      0.29      0.41 
   -4   17    2     -0.52     -1.04 
   -3   17    2     -0.31     -0.08 
   -2   17    2      0.26      1.26 
   -1   17    2      0.35     -0.52 
    0   17    2      0.21     -1.61 
    1   17    2     -0.27     -1.32 
    2   17    2     -0.28     -1.43 
    3   17    2     -0.40     -0.44 
    4   17    2     -0.86      0.84 
   -5   18    2      0.08      0.69 
   -4   18    2      0.06      0.22 
   -3   18    2     -0.07     -1.40 
   -2   18    2     -0.37      0.24 
   -1   18    2      0.03      1.86 
    0   18    2      1.03      1.05 
    1   18    2      0.89      0.40 
    2   18    2      0.65     -0.42 
    3   18    2      1.14     -1.31 
   -4   19    2     -0.32      1.01 
   -3   19    2      0.13      0.06 
   -2   19    2      0.29     -1.55 
   -1   19    2     -0.77     -0.43 
    0   19    2     -0.43      1.14 
    1   19    2      0.42      1.77 
    2   19    2     -0.05      1.82 
    3   19    2      0.51      1.00 
   -4   20    2      0.15     -0.08 
   -3   20    2     -0.45      0.98 
   -2   20    2      0.49      0.17 
   -1   20    2      0.50     -1.61 
    0   20    2     -0.67     -1.96 
    1   20    2     -0.35     -0.97 
    2   20    2     -0.46     -0.04 
    3   20    2     -1.19      0.22 
   -4   21    2      0.38     -0.51 
   -3   21    2     -0.24     -0.22 
   -2   21    2     -0.77      0.88 
   -1   21    2      0.18      1.07 
    0   21    2      0.13     -0.49 
    1   21    2     -0.15     -1.45 
    2   21    2      0.32     -0.93 
   -3   22    2      0.30     -0.31 
   -2   22    2     -0.28     -0.61 
   -1   22    2     -0.57      0.55 
    0   22    2     -0.25      1.41 
    1   22    2     -0.27      0.38 
    2   22    2      0.04      0.15 
   -3   23    2      0.28      0.63 
   -2   23    2      0.51      0.16 
   -1   23    2      0.49     -0.62 
    0   23    2      0.29      0.24 
    1   23    2      0.06      0.54 
    2   23    2      0.14     -0.22 
   -2   24    2      0.01      0.72 
   -1   24    2      0.06      0.38 
    0   24    2      0.41      0.04 
    1   24    2      0.13      0.58 
   -1   25    2     -0.37     -0.25 
    0   25    2     -0.36     -0.30 
   -7    0    3     -0.52      0.10 
   -6    0    3     -0.41      0.02 
   -5    0    3      1.14      0.07 
   -4    0    3      0.46      0.07 
   -3    0    3     -0.71     -0.02 
   -2    0    3     -0.57      0.04 
   -1    0    3     -2.41     -0.01 
    0    0    3     -0.52      0.03 
    1    0    3      2.12     -0.14 
    2    0    3     -0.48     -0.08 
    3    0    3     -0.16     -0.12 
    4    0    3      1.00     -0.15 
    5    0    3     -0.51     -0.01 
   -7    1    3      0.15      0.01 
   -6    1    3     -1.06     -0.06 
   -5    1    3     -0.95     -0.10 
   -4    1    3      0.44     -0.13 
   -3    1    3     -0.35     -1.08 
   -2    1    3     -0.54     -0.67 
   -1    1    3     -1.40     -0.29 
    0    1    3     -3.85     -1.00 
    1    1    3     -1.32      0.05 
    2    1    3      0.21      0.53 
    3    1    3     -1.35     -0.06 
    4    1    3      0.17      0.41 
    5    1    3      0.77      0.59 
   -7    2    3      0.62     -0.29 
   -6    2    3      0.57     -0.16 
   -5    2    3     -0.91     -0.40 
   -4    2    3     -0.73      0.29 
   -3    2    3      0.54     -0.11 
   -2    2    3      0.77     -1.79 
   -1    2    3      1.61     -0.74 
    0    2    3      0.39     -1.28 
    1    2    3     -1.24     -2.46 
    2    2    3      0.50     -0.57 
    3    2    3      0.32     -0.54 
    4    2    3     -0.62     -1.03 
    5    2    3      0.25      0.09 
   -7    3    3     -0.22     -0.18 
   -6    3    3      0.86      0.12 
   -5    3    3      1.14      0.26 
   -4    3    3     -0.16      0.38 
   -3    3    3     -0.48      2.33 
   -2    3    3      0.46      1.69 
   -1    3    3      1.18      0.48 
    0    3    3      1.62      1.82 
    1    3    3      0.70     -0.06 
    2    3    3      0.20     -1.08 
    3    3    3      0.87      0.32 
    4    3    3      0.38     -0.78 
   -7    4    3     -0.65      0.41 
   -6    4    3     -0.69      0.05 
   -5    4    3      0.45      0.52 
   -4    4    3      1.23      0.04 
   -3    4    3     -0.08      0.45 
   -2    4    3     -1.17      2.85 
   -1    4    3     -0.31      2.14 
    0    4    3     -0.11      2.05 
    1    4    3     -0.61      3.02 
    2    4    3     -0.77      0.93 
    3    4    3     -0.75      0.82 
    4    4    3     -0.25      1.40 
   -6    5    3     -0.59      0.02 
   -5    5    3     -1.06     -0.56 
   -4    5    3     -0.13     -0.60 
   -3    5    3      1.26     -2.16 
   -2    5    3     -0.10     -2.11 
   -1    5    3     -0.97     -0.30 
    0    5    3      0.55     -0.55 
    1    5    3      0.26      0.26 
    2    5    3     -0.37      0.75 
    3    5    3     -0.32     -0.34 
    4    5    3     -0.86      0.34 
   -6    6    3      0.52      0.02 
   -5    6    3     -0.07     -0.48 
   -4    6    3     -1.12     -0.76 
   -3    6    3     -0.26     -0.91 
   -2    6    3      1.38     -2.81 
   -1    6    3     -0.22     -3.28 
    0    6    3     -0.43     -2.10 
    1    6    3      1.32     -1.64 
    2    6    3      0.99     -0.72 
    3    6    3      1.04     -0.55 
    4    6    3      0.69     -1.03 
   -6    7    3      0.43     -0.29 
   -5    7    3      0.63      0.39 
   -4    7    3      0.30      0.41 
   -3    7    3     -1.16      0.97 
   -2    7    3     -0.21      1.49 
   -1    7    3      1.02     -0.06 
    0    7    3     -0.92     -1.11 
    1    7    3     -1.08     -0.54 
    2    7    3     -0.15     -0.10 
    3    7    3     -0.09      0.44 
    4    7    3      0.63      0.55 
   -6    8    3     -0.33      0.22 
   -5    8    3     -0.16      0.48 
   -4    8    3      0.49      1.00 
   -3    8    3      0.33      1.09 
   -2    8    3     -1.04      1.91 
   -1    8    3      0.24      2.87 
    0    8    3      1.26      1.62 
    1    8    3     -0.30      0.23 
    2    8    3     -0.74      0.11 
    3    8    3     -0.77     -0.01 
    4    8    3     -0.54      0.61 
   -6    9    3     -0.44      0.47 
   -5    9    3     -0.52      0.37 
   -4    9    3     -0.59      0.22 
   -3    9    3      0.25      0.16 
   -2    9    3     -0.14     -0.23 
   -1    9    3     -1.28      0.23 
    0    9    3      0.23      1.31 
    1    9    3      1.46      0.74 
    2    9    3      0.86     -0.11 
    3    9    3      0.55     -0.67 
    4    9    3      0.33     -1.05 
   -6   10    3      0.43     -0.50 
   -5   10    3      0.35     -0.51 
   -4   10    3     -0.20     -0.52 
   -3   10    3     -0.35     -0.80 
   -2   10    3      0.23     -0.82 
   -1   10    3     -0.86     -1.28 
    0   10    3     -2.13     -1.14 
    1   10    3     -1.02     -0.06 
    2   10    3     -0.05      0.34 
    3   10    3     -0.05      0.30 
    4   10    3      0.27     -0.42 
   -6   11    3      0.46     -0.44 
   -5   11    3      1.03     -0.93 
   -4   11    3      1.11     -0.74 
   -3   11    3      0.55     -0.60 
   -2   11    3      1.05     -0.60 
   -1   11    3      1.44     -0.03 
    0   11    3     -0.11     -0.34 
    1   11    3     -1.32     -0.72 
    2   11    3     -0.96     -0.10 
    3   11    3     -1.06      0.55 
    4   11    3     -1.21      0.61 
   -6   12    3     -0.62      0.35 
   -5   12    3     -0.46      0.36 
   -4   12    3      0.65      0.07 
   -3   12    3      0.54      0.31 
   -2   12    3      0.48      0.07 
   -1   12    3      2.05      0.13 
    0   12    3      2.45      1.00 
    1   12    3      1.23      0.60 
    2   12    3      0.88     -0.11 
    3   12    3      0.86      0.03 
    4   12    3     -0.14      0.17 
   -6   13    3     -0.31      0.31 
   -5   13    3     -1.49      0.65 
   -4   13    3     -1.38      0.68 
   -3   13    3     -0.51      0.66 
   -2   13    3     -1.55      0.48 
   -1   13    3     -1.23     -0.39 
    0   13    3      0.71     -0.31 
    1   13    3      0.75      0.42 
    2   13    3      0.30      0.14 
    3   13    3      1.08      0.13 
    4   13    3      1.16      0.36 
   -5   14    3      0.25     -0.01 
   -4   14    3     -1.25     -0.25 
   -3   14    3     -0.77     -0.02 
   -2   14    3     -0.61      0.39 
   -1   14    3     -2.44     -0.14 
    0   14    3     -1.84     -0.92 
    1   14    3     -0.48     -0.69 
    2   14    3     -1.03     -0.64 
    3   14    3     -1.00     -0.68 
   -5   15    3      1.12      0.07 
   -4   15    3      0.87     -0.26 
   -3   15    3     -0.15     -0.89 
   -2   15    3      0.98      0.00 
   -1   15    3      0.65      0.69 
    0   15    3     -0.94      0.17 
    1   15    3     -0.12      0.19 
    2   15    3      0.43      0.27 
    3   15    3     -0.22     -0.80 
   -5   16    3      0.31     -0.25 
   -4   16    3      1.26      0.74 
   -3   16    3      0.72     -0.02 
   -2   16    3      0.28     -0.82 
   -1   16    3      1.36      0.33 
    0   16    3      0.72      0.48 
    1   16    3     -0.21      0.19 
    2   16    3      0.30      1.17 
    3   16    3      0.45      0.97 
   -5   17    3     -0.12     -0.32 
   -4   17    3      0.22      0.14 
   -3   17    3      0.71      1.32 
   -2   17    3      0.15      0.04 
   -1   17    3     -0.03     -0.64 
    0   17    3      0.39     -0.02 
    1   17    3     -0.10     -0.80 
    2   17    3     -0.64     -0.69 
    3   17    3     -0.98      0.74 
   -5   18    3     -0.87      0.12 
   -4   18    3     -0.71     -0.85 
   -3   18    3     -0.34      0.04 
   -2   18    3      0.03      1.17 
   -1   18    3      0.12      0.23 
    0   18    3      0.07      0.22 
    1   18    3      0.34      0.21 
    2   18    3      0.70     -0.90 
   -4   19    3     -1.06     -0.49 
   -3   19    3     -0.78     -1.46 
   -2   19    3     -0.79     -0.57 
   -1   19    3     -0.27      0.33 
    0   19    3      0.18      0.35 
    1   19    3     -0.14      0.87 
    2   19    3      0.46      0.60 
   -4   20    3      0.25      0.46 
   -3   20    3     -0.07     -0.17 
   -2   20    3     -0.16     -1.12 
   -1   20    3     -0.68     -1.03 
    0   20    3     -0.16     -0.57 
    1   20    3     -0.26     -0.15 
    2   20    3     -1.09      0.03 
   -3   21    3      0.65      1.06 
   -2   21    3      0.62      0.84 
   -1   21    3      0.18     -0.04 
    0   21    3     -0.16     -0.59 
    1   21    3      0.33     -0.24 
   -3   22    3      0.27      0.29 
   -2   22    3      0.30      0.65 
   -1   22    3      0.36      1.00 
    0   22    3      0.00      0.25 
    1   22    3      0.30     -0.05 
   -2   23    3     -0.21     -0.49 
   -1   23    3      0.09     -0.03 
    0   23    3     -0.04      0.23 
   -1   24    3     -0.18     -0.18 
   -6    0    4      0.10     -0.06 
   -5    0    4     -0.33      0.00 
   -4    0    4     -1.16      0.03 
   -3    0    4     -0.21      0.05 
   -2    0    4     -0.21      0.12 
   -1    0    4     -0.51      0.09 
    0    0    4      0.50      0.12 
    1    0    4     -0.87      0.02 
    2    0    4     -1.12      0.05 
    3    0    4      0.91     -0.03 
    4    0    4     -0.21     -0.04 
   -6    1    4      0.12      0.41 
   -5    1    4      1.24      0.24 
   -4    1    4      0.62     -0.24 
   -3    1    4     -0.02     -0.09 
   -2    1    4      0.54      0.38 
   -1    1    4     -0.01     -0.41 
    0    1    4      0.23     -0.36 
    1    1    4      0.77      0.25 
    2    1    4     -1.19     -0.40 
    3    1    4     -0.76     -0.08 
    4    1    4      0.59      0.28 
   -6    2    4     -0.29      0.50 
   -5    2    4     -0.03      0.81 
   -4    2    4      0.98      0.47 
   -3    2    4      0.59     -0.66 
   -2    2    4      0.10     -0.09 
   -1    2    4      0.23      0.28 
    0    2    4      0.12     -1.22 
    1    2    4      1.04     -0.54 
    2    2    4      1.05     -0.18 
    3    2    4     -0.54     -1.16 
    4    2    4      0.02     -0.16 
   -6    3    4      0.20     -0.59 
   -5    3    4     -1.00     -0.46 
   -4    3    4     -1.11      0.44 
   -3    3    4     -0.14      0.16 
   -2    3    4      0.03     -0.81 
   -1    3    4     -0.70      0.54 
    0    3    4     -0.80      0.59 
    1    3    4     -0.17     -0.60 
    2    3    4      0.88      0.69 
    3    3    4      0.84      0.20 
    4    3    4      0.03     -0.69 
   -6    4    4      0.60     -0.65 
   -5    4    4      0.61     -0.85 
   -4    4    4     -0.50     -0.63 
   -3    4    4     -1.10      0.55 
   -2    4    4      0.05      0.25 
   -1    4    4      0.39     -0.22 
    0    4    4     -1.06      1.15 
    1    4    4     -1.34      0.58 
    2    4    4     -0.78      0.17 
    3    4    4     -0.14      1.40 
    4    4    4      0.25      0.44 
   -6    5    4     -0.42      0.49 
   -5    5    4      0.61      0.56 
   -4    5    4      1.17      0.12 
   -3    5    4      0.23      0.04 
   -2    5    4     -0.62      0.67 
   -1    5    4      0.96      0.15 
    0    5    4      1.19     -0.12 
    1    5    4     -0.43      0.42 
    2    5    4     -0.63     -0.62 
    3    5    4     -0.75     -0.53 
    4    5    4     -0.45      0.23 
   -6    6    4     -0.78      0.48 
   -5    6    4     -0.64      0.47 
   -4    6    4      0.12      0.52 
   -3    6    4      0.99      0.08 
   -2    6    4      0.01     -0.33 
   -1    6    4     -0.76     -0.17 
    0    6    4      1.11     -0.37 
    1    6    4      1.25     -0.19 
    2    6    4      0.28      0.02 
    3    6    4      0.20     -0.80 
   -6    7    4      0.45     -0.42 
   -5    7    4     -0.15     -0.61 
   -4    7    4     -0.38     -0.58 
   -3    7    4     -0.05     -0.31 
   -2    7    4      0.79     -0.26 
   -1    7    4     -0.38     -0.60 
    0    7    4     -0.97     -0.46 
    1    7    4      0.62     -0.20 
    2    7    4      0.62      0.41 
    3    7    4      0.29      0.88 
   -6    8    4      0.69     -0.19 
   -5    8    4      0.31     -0.45 
   -4    8    4      0.13     -0.49 
   -3    8    4     -0.22     -0.46 
   -2    8    4      0.03      0.01 
   -1    8    4      0.81      0.42 
    0    8    4     -0.39      0.08 
    1    8    4     -0.72     -0.11 
    2    8    4      0.48     -0.23 
    3    8    4      0.48      0.27 
   -6    9    4     -0.58      0.44 
   -5    9    4     -0.34      0.58 
   -4    9    4     -0.46      0.26 
   -3    9    4     -0.27      0.31 
   -2    9    4     -0.59     -0.04 
   -1    9    4     -0.10      0.14 
    0    9    4      0.54      0.55 
    1    9    4     -0.68      0.28 
    2    9    4     -0.70     -0.28 
    3    9    4      0.43     -0.85 
   -6   10    4     -0.41      0.01 
   -5   10    4     -0.36      0.75 
   -4   10    4     -0.47      0.59 
   -3   10    4     -0.48      0.29 
   -2   10    4     -0.51      0.35 
   -1   10    4     -0.86     -0.44 
    0   10    4      0.00     -0.54 
    1   10    4      0.21      0.05 
    2   10    4     -1.27      0.16 
    3   10    4     -1.12     -0.28 
   -6   11    4      0.80     -0.27 
   -5   11    4      0.71     -0.35 
   -4   11    4      0.44      0.36 
   -3   11    4      0.35      0.01 
   -2   11    4      0.34      0.21 
   -1   11    4     -0.35      0.49 
    0   11    4     -0.48     -0.36 
    1   11    4      0.90     -0.40 
    2   11    4      0.64      0.19 
    3   11    4     -0.94      0.28 
   -6   12    4      0.17     -0.01 
   -5   12    4      0.83     -0.69 
   -4   12    4      0.85     -0.53 
   -3   12    4      0.54     -0.07 
   -2   12    4      1.09     -0.21 
   -1   12    4      0.99      0.56 
    0   12    4     -0.38      0.82 
    1   12    4     -0.04      0.16 
    2   12    4      1.63      0.29 
    3   12    4      1.12      0.46 
   -5   13    4     -0.65      0.02 
   -4   13    4      0.27     -0.34 
   -3   13    4     -0.05     -0.31 
   -2   13    4     -0.15     -0.44 
   -1   13    4      1.14     -0.32 
    0   13    4      0.69      0.37 
    1   13    4     -1.06      0.19 
    2   13    4     -0.45      0.02 
    3   13    4      0.84      0.46 
   -5   14    4     -1.02      0.09 
   -4   14    4     -0.88      0.28 
   -3   14    4     -0.19      0.34 
   -2   14    4     -1.09     -0.28 
   -1   14    4     -0.86     -0.84 
    0   14    4      0.76     -0.38 
    1   14    4      0.11     -0.27 
    2   14    4     -1.28     -0.76 
   -5   15    4      0.13      0.08 
   -4   15    4     -0.73     -0.41 
   -3   15    4     -0.34      0.30 
   -2   15    4     -0.08      0.75 
   -1   15    4     -1.14     -0.37 
    0   15    4     -0.66     -0.56 
    1   15    4      0.73      0.18 
    2   15    4      0.34     -0.36 
   -5   16    4      0.54      0.40 
   -4   16    4      0.39     -0.20 
   -3   16    4     -0.01     -0.97 
   -2   16    4      0.40      0.43 
   -1   16    4      0.36      0.93 
    0   16    4     -0.42     -0.20 
    1   16    4     -0.19      0.28 
    2   16    4      0.49      0.80 
   -4   17    4      0.51      1.09 
   -3   17    4      0.44     -0.07 
   -2   17    4      0.35     -0.89 
   -1   17    4      0.32      0.54 
    0   17    4      0.33      0.51 
    1   17    4     -0.07     -0.22 
    2   17    4     -0.41      0.58 
   -4   18    4      0.22      0.53 
   -3   18    4     -0.07      1.40 
   -2   18    4      0.27      0.06 
   -1   18    4      0.12     -0.55 
    0   18    4     -0.26      0.19 
    1   18    4      0.24     -0.27 
   -4   19    4     -0.06     -1.12 
   -3   19    4     -0.21     -0.04 
   -2   19    4     -0.40      0.73 
   -1   19    4      0.38      0.06 
    0   19    4     -0.09     -0.16 
    1   19    4     -0.35     -0.13 
   -3   20    4      0.10     -1.34 
   -2   20    4     -0.37     -0.66 
   -1   20    4     -0.16      0.00 
    0   20    4      0.51      0.25 
   -3   21    4     -0.07     -0.08 
   -2   21    4      0.10     -0.48 
   -1   21    4     -0.39     -0.65 
    0   21    4      0.10     -0.10 
   -6    0    5     -0.86     -0.17 
   -5    0    5     -2.16     -0.25 
   -4    0    5     -0.31     -0.03 
   -3    0    5      1.51      0.02 
   -2    0    5      0.00      0.00 
   -1    0    5     -0.40      0.11 
    0    0    5     -0.37      0.19 
    1    0    5     -0.48      0.12 
    2    0    5      0.83      0.16 
    3    0    5      0.69      0.25 
   -6    1    5      0.13      0.01 
   -5    1    5     -0.89     -0.54 
   -4    1    5     -2.60     -0.82 
   -3    1    5     -0.79      0.22 
   -2    1    5      0.54      0.28 
   -1    1    5     -0.14     -0.14 
    0    1    5     -0.15      0.26 
    1    1    5     -0.80     -0.05 
    2    1    5     -0.78     -0.26 
    3    1    5      0.38      0.40 
   -6    2    5      0.44      0.73 
   -5    2    5      1.63      1.12 
   -4    2    5      0.58     -0.31 
   -3    2    5     -1.07     -0.83 
   -2    2    5     -0.11      0.44 
   -1    2    5      0.61      0.03 
    0    2    5      0.49     -0.17 
    1    2    5      0.32      0.31 
    2    2    5     -0.42     -0.69 
    3    2    5     -0.39     -0.69 
   -6    3    5     -0.15      0.23 
   -5    3    5      0.10      1.01 
   -4    3    5      1.49      1.65 
   -3    3    5      0.97     -0.27 
   -2    3    5     -0.34     -0.60 
   -1    3    5     -0.05      0.28 
    0    3    5      0.54     -0.40 
    1    3    5      0.55      0.11 
    2    3    5      0.39      0.49 
    3    3    5      0.15     -0.69 
   -6    4    5      0.22     -0.64 
   -5    4    5     -0.74     -1.22 
   -4    4    5     -0.89      0.07 
   -3    4    5      0.29      0.89 
   -2    4    5      0.28     -0.53 
   -1    4    5     -0.77     -0.28 
    0    4    5     -0.54      0.14 
    1    4    5      0.07     -0.42 
    2    4    5     -0.17      0.49 
    3    4    5     -0.06      0.63 
   -6    5    5      0.31     -0.40 
   -5    5    5      0.45     -0.65 
   -4    5    5     -0.48     -1.41 
   -3    5    5     -0.90     -0.11 
   -2    5    5      0.10      0.54 
   -1    5    5      0.15     -0.22 
    0    5    5     -0.82      0.30 
    1    5    5     -0.37      0.29 
    2    5    5     -0.03     -0.25 
   -6    6    5     -0.42      0.20 
   -5    6    5      0.30      0.85 
   -4    6    5      0.61      0.45 
   -3    6    5     -0.04     -0.42 
   -2    6    5     -0.29      0.27 
   -1    6    5      0.68      0.28 
    0    6    5      0.49     -0.29 
    1    6    5     -0.34      0.26 
    2    6    5      0.18      0.25 
   -6    7    5     -0.50      0.29 
   -5    7    5     -0.25      0.23 
   -4    7    5      0.33      0.98 
   -3    7    5      0.44      0.54 
   -2    7    5     -0.14     -0.11 
   -1    7    5     -0.11      0.18 
    0    7    5      0.86     -0.33 
    1    7    5      0.61     -0.90 
    2    7    5     -0.03     -0.15 
   -6    8    5      0.20      0.00 
   -5    8    5     -0.32     -0.73 
   -4    8    5      0.08     -0.53 
   -3    8    5      0.42      0.21 
   -2    8    5      0.14      0.07 
   -1    8    5     -0.64      0.20 
    0    8    5     -0.58      0.67 
    1    8    5      0.49     -0.12 
    2    8    5      0.51     -0.73 
   -6    9    5      0.44      0.07 
   -5    9    5     -0.15     -0.37 
   -4    9    5     -0.54     -1.16 
   -3    9    5      0.06     -0.73 
   -2    9    5      0.52     -0.32 
   -1    9    5      0.19     -0.26 
    0    9    5     -0.97      0.57 
    1    9    5     -1.18      1.18 
    2    9    5     -0.04      0.35 
   -5   10    5      0.22      0.99 
   -4   10    5     -0.39      0.16 
   -3   10    5     -0.74     -0.53 
   -2   10    5     -0.04     -0.40 
   -1   10    5      0.98     -0.78 
    0   10    5      0.92     -0.89 
    1   10    5     -0.69     -0.01 
    2   10    5     -1.23      0.47 
   -5   11    5      0.07      0.69 
   -4   11    5      0.30      1.60 
   -3   11    5     -0.23      0.80 
   -2   11    5     -0.98      0.44 
   -1   11    5     -0.43      0.20 
    0   11    5      1.29     -0.59 
    1   11    5      1.57     -0.81 
    2   11    5     -0.04     -0.39 
   -5   12    5      0.18     -1.08 
   -4   12    5      0.10     -0.01 
   -3   12    5      0.54      0.83 
   -2   12    5      0.01      0.70 
   -1   12    5     -1.47      0.81 
    0   12    5     -1.15      0.63 
    1   12    5      0.88      0.33 
    2   12    5      1.30      0.20 
   -5   13    5      0.30     -0.49 
   -4   13    5      0.24     -1.45 
   -3   13    5      0.15     -0.98 
   -2   13    5      1.13     -0.28 
   -1   13    5      0.54      0.09 
    0   13    5     -1.38      0.08 
    1   13    5     -1.26      0.11 
   -5   14    5     -0.41      0.75 
   -4   14    5      0.24      0.45 
   -3   14    5     -0.17     -0.55 
   -2   14    5      0.07     -0.85 
   -1   14    5      1.44     -0.23 
    0   14    5      0.83     -0.09 
    1   14    5     -0.78     -0.75 
   -4   15    5     -0.31      0.70 
   -3   15    5     -0.08      1.17 
   -2   15    5     -0.86      0.14 
   -1   15    5     -0.29     -0.28 
    0   15    5      0.85      0.59 
    1   15    5      0.39      0.29 
   -4   16    5     -0.13     -1.03 
   -3   16    5      0.20     -0.06 
   -2   16    5     -0.12      0.67 
   -1   16    5     -0.68     -0.34 
    0   16    5     -0.06     -0.16 
   -3   17    5      0.07     -1.13 
   -2   17    5      0.40     -0.17 
   -1   17    5     -0.08      0.09 
    0   17    5      0.04     -0.80 
   -3   18    5     -0.55      0.38 
   -2   18    5     -0.04     -0.26 
   -1   18    5     -0.27      0.40 
   -2   19    5     -0.03      0.30 
   -5    0    6      0.78     -0.03 
   -4    0    6      1.92     -0.04 
   -3    0    6      0.46     -0.16 
   -2    0    6     -0.38     -0.07 
   -1    0    6      0.37     -0.09 
    0    0    6     -0.30     -0.09 
    1    0    6      0.12      0.01 
   -5    1    6     -1.05     -0.39 
   -4    1    6      0.05     -0.02 
   -3    1    6      1.21      0.31 
   -2    1    6      0.02     -0.14 
   -1    1    6     -0.06      0.06 
    0    1    6      0.15     -0.05 
    1    1    6     -0.43     -0.36 
   -5    2    6     -0.68     -0.17 
   -4    2    6     -1.45     -0.69 
   -3    2    6     -0.45      0.15 
   -2    2    6      0.34      0.46 
   -1    2    6     -0.28      0.09 
    0    2    6     -0.03      0.63 
    1    2    6     -0.07      0.05 
   -5    3    6      0.37      0.62 
   -4    3    6     -0.15      0.06 
   -3    3    6     -0.73     -0.64 
   -2    3    6     -0.11      0.19 
   -1    3    6      0.35      0.01 
    0    3    6     -0.08      0.02 
    1    3    6     -0.17      0.68 
   -5    4    6      0.52      0.24 
   -4    4    6      0.60      0.62 
   -3    4    6      0.31     -0.17 
   -2    4    6     -0.24     -0.66 
   -1    4    6      0.12     -0.13 
    0    4    6      0.59     -0.58 
    1    4    6      0.02     -0.18 
   -5    5    6      0.09     -0.14 
   -4    5    6      0.28      0.00 
   -3    5    6      0.35      0.40 
   -2    5    6      0.17     -0.21 
   -1    5    6     -0.50     -0.27 
    0    5    6      0.02      0.07 
    1    5    6      0.70     -0.26 
   -5    6    6     -0.39     -0.24 
   -4    6    6     -0.32     -0.05 
   -3    6    6     -0.20      0.24 
   -2    6    6      0.16      0.58 
   -1    6    6     -0.02      0.07 
    0    6    6     -0.77      0.09 
    1    6    6     -0.07      0.37 
   -5    7    6      0.16     -0.26 
   -4    7    6     -0.26     -0.10 
   -3    7    6     -0.39     -0.03 
   -2    7    6     -0.23      0.25 
   -1    7    6      0.41      0.40 
    0    7    6      0.11     -0.29 
    1    7    6     -0.61     -0.38 
   -5    8    6      0.25      0.24 
   -4    8    6      0.61     -0.11 
   -3    8    6      0.23     -0.20 
   -2    8    6     -0.21     -0.27 
   -1    8    6     -0.13      0.18 
    0    8    6      0.52      0.28 
    1    8    6      0.31     -0.48 
   -5    9    6     -0.54     -0.03 
   -4    9    6      0.05      0.08 
   -3    9    6      0.58     -0.05 
   -2    9    6      0.33     -0.26 
   -1    9    6     -0.34     -0.22 
    0    9    6     -0.45      0.49 
   -4   10    6     -0.65     -0.33 
   -3   10    6     -0.29     -0.04 
   -2   10    6      0.41     -0.07 
   -1   10    6      0.47     -0.39 
    0   10    6     -0.29     -0.31 
   -4   11    6      0.16      0.16 
   -3   11    6     -0.50     -0.06 
   -2   11    6     -0.41      0.15 
   -1   11    6      0.52      0.01 
    0   11    6      0.89     -0.36 
   -4   12    6      0.13      0.65 
   -3   12    6      0.21      0.37 
   -2   12    6     -0.65      0.23 
   -1   12    6     -0.80      0.30 
    0   12    6      0.31      0.26 
   -3   13    6      0.22      0.02 
   -2   13    6      0.38      0.03 
   -1   13    6     -0.76     -0.09 
   -3   14    6     -0.01     -0.53 
   -2   14    6      0.73     -0.15 
   -1   14    6      0.82      0.05 
   -4    0    7      0.02     -0.06 
   -3    0    7     -0.79     -0.04 
   -2    0    7      0.39      0.05 
   -1    0    7      0.52     -0.06 
   -4    1    7      1.01      0.14 
   -3    1    7      0.16     -0.16 
   -2    1    7     -0.50     -0.24 
   -1    1    7      0.64      0.07 
   -4    2    7      0.13      0.06 
   -3    2    7      0.76      0.43 
   -2    2    7     -0.16     -0.10 
   -1    2    7     -0.49      0.07 
   -4    3    7     -0.81     -0.34 
   -3    3    7     -0.16      0.19 
   -2    3    7      0.41      0.51 
   -1    3    7     -0.22     -0.08 
   -3    4    7     -0.66     -0.68 
   -2    4    7     -0.16     -0.07 
   -1    4    7      0.37     -0.04 
   -3    5    7      0.11     -0.24 
   -2    5    7     -0.26     -0.63 
   -3    6    7      0.58      0.80 
   -2    6    7      0.29      0.35 
   -2    7    7      0.13      0.58 
    7    0    0     -1.09     -0.18 
    7    1    0      1.12      0.61 
    7    2    0      0.80      0.36 
    7    3    0     -0.61     -0.35 
    7    4    0     -0.32     -0.27 
    7    5    0      0.25     -0.09 
    7    6    0     -0.09     -0.06 
    7    7    0     -0.05      0.37 
    7    8    0      0.21      0.40 
    6   12    0     -0.47     -0.24 
    6   13    0      0.13     -1.06 
    6   14    0      0.38      0.54 
    6   15    0     -0.14      0.29 
    6   16    0     -0.14     -0.62 
    5   18    0      0.10     -0.17 
    5   19    0      0.15     -0.51 
    5   20    0     -0.42     -0.06 
    5   21    0     -0.22      0.36 
    4   22    0      0.55     -0.49 
    4   23    0     -0.03     -0.44 
    3   24    0     -0.59      0.36 
    4   24    0     -0.49      0.22 
    3   25    0      0.68     -0.12 
    2   26    0     -0.14     -0.03 
    3   26    0      0.44     -0.02 
    1   27    0     -0.44      0.30 
    2   27    0     -0.56      0.24 
   -7    0    1     -0.68     -0.15 
   -7    1    1     -0.25      0.10 
   -7    2    1      0.48     -0.10 
   -7    3    1      0.15      0.31 
   -7    4    1     -0.25      0.43 
   -7    5    1      0.06     -0.44 
   -7    6    1      0.14     -0.64 
   -7    7    1     -0.03      0.27 
   -7    8    1     -0.07      0.60 
    6    8    1      0.82     -0.27 
   -7    9    1     -0.26     -0.17 
    6    9    1     -0.83     -0.69 
   -7   10    1     -0.01     -0.40 
    6   10    1      0.05     -0.36 
   -7   11    1      0.47      0.31 
    6   11    1      0.92      0.81 
    6   12    1     -1.02      0.28 
    6   13    1     -0.68     -0.62 
   -6   14    1     -1.30     -0.17 
   -6   15    1     -0.25      0.65 
   -6   16    1      0.90      0.06 
    5   16    1     -0.89     -0.39 
   -6   17    1      0.42     -0.43 
    5   17    1     -0.12      0.70 
   -6   18    1     -0.52      0.22 
    5   18    1      0.54      0.00 
   -5   19    1     -0.57      0.02 
    5   19    1      0.54     -0.20 
   -5   20    1     -0.17     -0.34 
    4   20    1     -0.95      0.43 
   -5   21    1      0.35     -0.24 
    4   21    1      0.16     -0.24 
   -5   22    1      0.34      0.40 
   -4   22    1      0.76      0.11 
    4   22    1      0.21      0.00 
   -4   23    1      0.37      0.39 
    3   23    1     -0.20      0.09 
    4   23    1     -0.25      0.17 
   -4   24    1     -0.94     -0.40 
   -3   24    1     -0.37     -0.44 
    3   24    1      0.35      0.29 
   -3   25    1     -1.32     -0.72 
    2   25    1     -0.21     -0.23 
    3   25    1     -0.32      0.00 
   -3   26    1     -0.07      0.42 
   -2   26    1     -0.55     -0.10 
   -1   26    1     -0.14     -0.25 
    1   26    1     -0.10     -0.51 
    2   26    1      0.17     -0.58 
   -2   27    1      0.25      0.58 
   -1   27    1      0.11      0.47 
    0   27    1      0.03      0.66 
    1   27    1     -0.15      0.52 
    2   27    1      0.44      0.23 
    6    0    2      0.32      0.18 
    6    1    2      1.20      0.07 
    6    2    2     -0.38      0.29 
    6    3    2     -0.86     -0.39 
    6    4    2      0.52     -0.50 
   -7    5    2      0.80     -0.53 
    6    5    2      0.40      0.48 
   -7    6    2      0.11     -0.39 
    6    6    2     -0.49      0.36 
   -7    7    2     -0.47      0.23 
    6    7    2     -0.02     -0.43 
   -7    8    2      0.15      0.54 
    6    8    2      0.10     -0.09 
   -7    9    2     -0.04     -0.15 
    6    9    2     -0.23      0.31 
   -7   10    2     -0.34     -0.59 
   -7   11    2      0.34      0.27 
   -7   12    2      0.38      0.55 
    5   12    2     -1.40     -0.17 
    5   13    2      0.39      0.03 
    5   14    2      0.96      0.71 
   -6   15    2     -0.70     -0.03 
    5   15    2     -0.10     -0.47 
   -6   16    2      0.23      0.60 
    5   16    2      0.03     -0.66 
   -6   17    2      0.42      0.23 
   -6   18    2     -0.11     -0.18 
    4   18    2      0.32     -0.64 
   -5   19    2     -0.04     -0.13 
    4   19    2      1.36      0.29 
   -5   20    2      0.31     -0.45 
    4   20    2     -0.22      0.38 
   -5   21    2     -0.07     -0.14 
    3   21    2     -0.24     -0.89 
    4   21    2     -0.63     -1.02 
   -5   22    2     -0.12      0.21 
   -4   22    2     -0.07      0.07 
    3   22    2      0.26      0.61 
   -4   23    2      0.11      0.34 
    3   23    2      0.08      0.31 
   -4   24    2      0.06     -0.24 
   -3   24    2      0.26      0.03 
    2   24    2      0.22      0.09 
   -3   25    2     -0.03     -0.89 
   -2   25    2      0.24     -0.66 
    1   25    2     -0.37      0.19 
    2   25    2     -0.79      0.59 
   -3   26    2     -0.57     -0.16 
   -2   26    2      0.10     -0.52 
   -1   26    2      0.49     -0.60 
    0   26    2      0.28     -0.92 
    1   26    2      0.41     -0.88 
   -2   27    2     -0.67      0.45 
   -1   27    2     -0.22      0.55 
    0   27    2      0.16      0.27 
    1   27    2      0.60     -0.29 
    5    3    3     -0.14     -1.10 
    5    4    3      0.14      0.15 
   -7    5    3      0.13      0.42 
    5    5    3     -0.36      0.79 
   -7    6    3      0.61     -0.48 
    5    6    3     -0.27     -0.63 
   -7    7    3      0.09     -0.54 
    5    7    3      0.21     -0.16 
   -7    8    3     -0.57      0.46 
    5    8    3     -0.05      0.93 
   -7    9    3     -0.25      0.45 
    5    9    3      0.32     -0.14 
   -7   10    3      0.49     -0.27 
    5   10    3      0.48     -0.63 
   -7   11    3      0.26     -0.31 
    5   11    3     -0.61      0.06 
   -7   12    3     -0.25     -0.02 
    5   12    3     -0.47     -0.09 
   -6   14    3      0.42      0.11 
    4   14    3     -0.10      0.27 
   -6   15    3      0.07     -0.28 
    4   15    3     -0.18     -0.86 
   -6   16    3      0.16     -0.34 
    4   16    3      0.54     -0.52 
   -6   17    3      0.05      0.35 
    4   17    3     -0.76      0.45 
   -6   18    3     -0.56      0.15 
    3   18    3      0.19     -0.55 
   -5   19    3     -0.58     -0.04 
    3   19    3      1.51     -0.01 
   -5   20    3      1.00      0.24 
    3   20    3     -0.30     -0.14 
   -5   21    3      0.54      0.36 
   -4   21    3      1.13      0.84 
    2   21    3     -0.34     -0.10 
    3   21    3     -1.04     -0.53 
   -4   22    3     -0.19     -0.07 
    2   22    3      0.63      0.63 
   -4   23    3     -0.70     -0.72 
   -3   23    3     -0.64     -0.47 
    1   23    3     -0.05     -0.52 
    2   23    3      0.42     -0.29 
   -4   24    3      0.23      0.04 
   -3   24    3     -0.26     -0.25 
   -2   24    3     -0.56     -0.17 
    0   24    3     -0.10      0.31 
    1   24    3     -0.30      0.06 
    2   24    3      0.07     -0.55 
   -3   25    3      0.65      0.14 
   -2   25    3      0.13     -0.05 
   -1   25    3     -0.24     -0.07 
    0   25    3     -0.15      0.34 
    1   25    3     -0.46      0.72 
   -2   26    3      0.67      0.02 
   -1   26    3      0.48     -0.46 
    0   26    3      0.36     -0.50 
   -7    0    4     -0.85      0.02 
   -7    1    4     -0.09      0.40 
   -7    2    4      0.67      0.46 
   -7    3    4      0.41     -0.68 
   -7    4    4     -0.23     -0.68 
   -7    5    4     -0.78      0.67 
   -7    6    4     -0.15      0.53 
    4    6    4     -0.40     -0.73 
   -7    7    4      0.99     -0.41 
    4    7    4      0.10      0.41 
   -7    8    4      0.20     -0.23 
    4    8    4      0.32      0.84 
   -7    9    4     -0.96      0.05 
    4    9    4      0.59     -0.44 
   -7   10    4     -0.03      0.12 
    4   10    4     -0.11     -0.61 
   -7   11    4      0.67      0.24 
    4   11    4     -0.80     -0.03 
    4   12    4      0.01      0.12 
   -6   13    4     -0.70     -0.12 
    4   13    4      0.39      0.32 
   -6   14    4     -0.11      0.09 
    3   14    4     -0.70     -0.28 
   -6   15    4      0.17      0.29 
    3   15    4     -0.26     -0.82 
   -6   16    4      0.17     -0.09 
    3   16    4      0.42     -0.14 
   -6   17    4      0.33      0.03 
   -5   17    4      0.46      0.26 
    3   17    4     -0.25      0.61 
   -5   18    4      0.09     -0.28 
    2   18    4      0.12     -0.36 
    3   18    4     -0.42      0.36 
   -5   19    4     -0.65     -0.74 
    2   19    4      0.51     -0.48 
   -5   20    4     -0.28     -0.12 
   -4   20    4     -0.47     -0.98 
    1   20    4     -0.28      0.16 
    2   20    4     -0.20     -0.12 
   -4   21    4     -0.08      0.71 
    1   21    4      0.24      0.42 
    2   21    4     -0.40      0.15 
   -4   22    4      0.37      1.06 
   -3   22    4      0.11      0.99 
   -2   22    4      0.10      0.75 
   -1   22    4     -0.13      0.22 
    0   22    4     -0.25     -0.41 
    1   22    4      0.17      0.07 
   -3   23    4      0.18      0.26 
   -2   23    4      0.32      0.38 
   -1   23    4      0.13      0.59 
    0   23    4     -0.10      0.04 
    1   23    4      0.07     -0.30 
   -3   24    4     -0.39     -0.67 
   -2   24    4      0.00     -0.39 
   -1   24    4      0.27     -0.08 
    0   24    4      0.01      0.11 
   -1   25    4     -0.14     -0.16 
   -7    0    5     -0.52     -0.08 
   -7    1    5     -0.44     -0.11 
   -7    2    5      0.28      0.53 
   -7    3    5      0.39      0.41 
   -7    4    5      0.18     -0.66 
   -7    5    5     -0.23     -0.61 
    3    5    5     -0.51      0.36 
   -7    6    5     -0.53      0.41 
    3    6    5      0.17     -0.21 
   -7    7    5      0.05      0.59 
    3    7    5      0.28      0.08 
   -7    8    5      0.53      0.00 
    3    8    5      0.09     -0.10 
    3    9    5      0.23     -0.10 
   -6   10    5     -0.05      0.16 
    3   10    5     -0.34      0.06 
   -6   11    5     -0.09     -0.33 
    3   11    5     -0.48     -0.19 
   -6   12    5      0.13     -0.29 
    3   12    5      0.31      0.10 
   -6   13    5     -0.22      0.32 
    2   13    5      0.24      0.45 
   -6   14    5     -0.20      0.18 
    2   14    5     -0.73     -0.59 
   -5   15    5     -0.32     -0.15 
    2   15    5     -0.34     -0.53 
   -5   16    5      0.17     -0.39 
    1   16    5      0.36      0.90 
    2   16    5      0.14      0.42 
   -5   17    5     -0.11      0.58 
   -4   17    5     -0.25     -0.12 
    1   17    5      0.39     -0.16 
    2   17    5      0.30      0.45 
   -5   18    5      0.18      0.36 
   -4   18    5     -0.26      1.15 
    0   18    5     -0.56     -0.05 
    1   18    5      0.02     -0.60 
   -4   19    5      0.77      0.15 
   -3   19    5      0.05      0.85 
   -1   19    5      0.16      0.31 
    0   19    5     -0.61      0.48 
    1   19    5     -0.59     -0.15 
   -4   20    5      0.42     -0.79 
   -3   20    5      0.72     -0.23 
   -2   20    5      0.39     -0.03 
   -1   20    5      0.78     -0.09 
    0   20    5      0.63      0.31 
   -3   21    5     -0.28     -0.57 
   -2   21    5     -0.18     -0.35 
   -1   21    5      0.04     -0.47 
    0   21    5      0.56     -0.09 
   -3   22    5     -0.46     -0.03 
   -2   22    5     -0.60      0.01 
   -1   22    5     -0.72     -0.15 
   -6    0    6     -0.17     -0.01 
    2    0    6      0.43     -0.03 
   -6    1    6     -0.40     -0.15 
    2    1    6      0.26      0.09 
   -6    2    6      0.03      0.05 
    2    2    6     -0.11     -0.44 
   -6    3    6      0.22      0.26 
    2    3    6     -0.17     -0.10 
   -6    4    6      0.13      0.20 
    2    4    6     -0.45      0.31 
   -6    5    6     -0.08     -0.18 
    2    5    6      0.12      0.07 
   -6    6    6      0.04     -0.46 
    2    6    6      0.57      0.23 
   -6    7    6      0.09      0.08 
    2    7    6     -0.15     -0.02 
   -6    8    6     -0.37      0.33 
    2    8    6     -0.19     -0.54 
   -6    9    6     -0.16     -0.07 
    1    9    6      0.16      0.60 
    2    9    6      0.26      0.03 
   -6   10    6      0.39      0.12 
   -5   10    6     -0.05     -0.21 
    1   10    6     -0.66      0.31 
    2   10    6     -0.19      0.34 
   -6   11    6      0.16      0.11 
   -5   11    6      0.37      0.58 
    1   11    6      0.08     -0.38 
   -5   12    6     -0.12      0.07 
    1   12    6      0.80      0.14 
   -5   13    6      0.17     -0.67 
   -4   13    6     -0.18     -0.44 
    0   13    6     -1.01     -0.14 
    1   13    6      0.00      0.14 
   -5   14    6      0.13      0.08 
   -4   14    6      0.35     -0.40 
    0   14    6     -0.35     -0.36 
    1   14    6     -0.53     -0.54 
   -5   15    6     -0.39      0.26 
   -4   15    6      0.02      0.52 
   -3   15    6     -0.10      0.16 
   -2   15    6     -0.26     -0.16 
   -1   15    6      0.67      0.39 
    0   15    6      0.62      0.60 
   -4   16    6     -0.26     -0.01 
   -3   16    6     -0.10      0.45 
   -2   16    6     -0.55     -0.05 
   -1   16    6     -0.48     -0.32 
    0   16    6      0.18      0.43 
   -4   17    6      0.09     -0.34 
   -3   17    6      0.20     -0.17 
   -2   17    6      0.15      0.18 
   -1   17    6     -0.22     -0.52 
    0   17    6     -0.04     -0.61 
   -3   18    6      0.02     -0.30 
   -2   18    6      0.19      0.15 
   -1   18    6      0.08      0.31 
   -2   19    6     -0.13     -0.16 
   -5    0    7      0.51     -0.01 
    0    0    7     -0.61     -0.05 
    1    0    7      0.03      0.11 
   -5    1    7      0.22     -0.03 
    0    1    7      0.33     -0.32 
    1    1    7     -0.39     -0.34 
   -5    2    7     -0.33     -0.18 
    0    2    7      0.39      0.42 
    1    2    7      0.10     -0.28 
   -5    3    7     -0.44      0.04 
    0    3    7     -0.41      0.44 
    1    3    7      0.11      0.57 
   -5    4    7      0.05      0.10 
   -4    4    7     -0.42     -0.25 
    0    4    7      0.00     -0.41 
   -5    5    7      0.65      0.19 
   -4    5    7      0.63      0.34 
   -1    5    7     -0.12     -0.22 
    0    5    7      0.39     -0.40 
   -5    6    7      0.00      0.11 
   -4    6    7      0.55      0.62 
   -1    6    7     -0.18      0.07 
    0    6    7     -0.15      0.14 
   -5    7    7     -0.60     -0.52 
   -4    7    7     -0.59     -0.36 
   -3    7    7     -0.10      0.28 
   -1    7    7      0.12      0.49 
    0    7    7     -0.26      0.34 
   -5    8    7      0.13     -0.12 
   -4    8    7     -0.38     -0.85 
   -3    8    7     -0.49     -0.83 
   -2    8    7     -0.21     -0.46 
   -1    8    7      0.05     -0.16 
    0    8    7      0.03      0.01 
   -5    9    7      0.32      0.64 
   -4    9    7      0.49      0.51 
   -3    9    7      0.13     -0.24 
   -2    9    7     -0.07     -0.39 
   -1    9    7      0.01     -0.40 
    0    9    7      0.15     -0.31 
   -4   10    7      0.10      0.72 
   -3   10    7      0.33      0.73 
   -2   10    7      0.14      0.32 
   -1   10    7     -0.04      0.22 
    0   10    7      0.03      0.06 
   -4   11    7     -0.22     -0.57 
   -3   11    7     -0.16      0.10 
   -2   11    7      0.10      0.16 
   -1   11    7      0.04      0.09 
   -4   12    7      0.00     -0.30 
   -3   12    7     -0.18     -0.43 
   -2   12    7     -0.21     -0.10 
   -1   12    7      0.09     -0.15 
   -3   13    7      0.12      0.08 
   -2   13    7     -0.17      0.02 
    0    0    0      0.00      0.00 
# SQUEEZE RESULTS (Version = 260918) 
# Note: Data are Listed for all Voids in the P1 Unit Cell 
# i.e. Centre of Gravity, Solvent Accessible Volume, 
# Recovered number of Electrons in the Void and 
# Details about the Squeezed Material 
loop_ 
  _platon_squeeze_void_nr 
  _platon_squeeze_void_average_x 
  _platon_squeeze_void_average_y 
  _platon_squeeze_void_average_z 
  _platon_squeeze_void_volume 
  _platon_squeeze_void_count_electrons 
  _platon_squeeze_void_content 
   1  0.174  0.783  0.087        37         9 ' ' 
   2  0.825  0.283 -0.087        37        10 ' ' 
_platon_squeeze_void_probe_radius                  1.20 
_platon_squeeze_details 
) 
TITL m10eu in P2(1) 
CELL    5.9823   22.1450    6.1201     90.00    110.65     90.00 
SPGR P21 
# Solvent Accessible Volume =        74 
# Electrons Found in S.A.V. =        19 
# Note: Atoms in Void are Labelled as Cxxx and Qxxx for all Others 
Q101 0.949 0.221 0.113 !       2.86 eA-3 
Q102 0.227 0.759 0.310 !       2.35 eA-3 
Q103 0.851 0.208 0.768 !       2.21 eA-3 
Q104 0.070 0.837 0.969 !       2.19 eA-3 
Q105 0.664 0.353 0.758 !       2.12 eA-3 
Q106 0.664 0.294 0.779 !       1.90 eA-3 
Q107 0.797 0.474 0.004 !       1.84 eA-3 
Q108 0.471 0.476 0.532 !       1.69 eA-3 
Q109 1.021 0.234 0.811 !       1.66 eA-3 
Q110 0.547 0.518 0.176 !       1.60 eA-3 
Q111 0.587 0.140 0.406 !       1.53 eA-3 
Q112 0.987 0.303 0.630 !       1.50 eA-3 
Q113 0.102 0.104 0.810 !       1.45 eA-3 
Q114 0.981 0.314 0.643 !       1.44 eA-3 
Q115 0.782 0.101 0.370 !       1.43 eA-3 
Q116 0.812 0.039 0.837 !       1.41 eA-3 
Q117 0.572 0.658 0.293 !       1.38 eA-3 
Q118 0.102 0.571 0.492 !       1.37 eA-3 
Q119 0.946 0.985 0.221 !       1.31 eA-3 
Q120 0.642 0.938 0.847 !       1.28 eA-3 
C121 0.913 0.360 0.776 !       1.20 eA-3 
Q122 0.742 0.107 0.120 !       1.19 eA-3 
Q123 0.067 0.772 0.370 !       1.13 eA-3 
Q124 0.044 0.795 0.885 !       1.08 eA-3 
Q125 0.716 0.593 0.251 !       1.03 eA-3 
Q126 0.527 0.375 0.468 !       1.02 eA-3 
Q127 0.833 0.888 0.925 !       1.00 eA-3 
Q128 0.515 0.931 0.561 !       0.99 eA-3 
Q129 0.570 0.039 0.462 !       0.94 eA-3 
Q130 0.343 0.770 0.628 !       0.89 eA-3 
Q131 0.057 0.369 0.710 !       0.87 eA-3 
Q132 0.882 0.714 0.842 !       0.83 eA-3 
Q133 0.652 0.485 0.065 !       0.82 eA-3 
Q134 0.541 0.628 0.868 !       0.82 eA-3 
Q135 0.843 0.298 0.932 !       0.80 eA-3 
Q136 0.814 0.602 0.646 !       0.79 eA-3 
Q137 0.802 0.340 0.875 !       0.79 eA-3 
Q138 0.468 0.920 0.370 !       0.76 eA-3 
Q139 0.561 0.931 0.413 !       0.74 eA-3 
Q140 0.528 0.970 0.875 !       0.73 eA-3 
Q141 0.909 0.446 0.690 !       0.73 eA-3 
Q142 0.988 0.284 0.478 !       0.73 eA-3 
Q143 0.592 0.601 0.909 !       0.72 eA-3 
Q144 0.568 0.142 0.029 !       0.72 eA-3 
Q145 0.542 0.100 0.507 !       0.71 eA-3 
Q146 0.153 0.306 0.705 !       0.68 eA-3 
Q147 0.818 0.297 0.400 !       0.68 eA-3 
Q148 0.766 0.788 0.174 !       0.66 eA-3 
Q149 0.848 0.945 0.962 !       0.65 eA-3 
Q150 0.572 0.337 0.305 !       0.65 eA-3 
Q151 0.906 0.132 0.460 !       0.64 eA-3 
Q152 0.630 0.437 0.623 !       0.64 eA-3 
Q153 0.897 0.933 0.194 !       0.64 eA-3 
Q154 0.933 0.633 0.801 !       0.63 eA-3 
Q155 0.606 0.576 0.938 !       0.63 eA-3 
Q156 0.653 0.991 0.851 !       0.62 eA-3 
Q157 0.806 0.552 0.129 !       0.62 eA-3 
Q158 0.733 0.553 0.906 !       0.61 eA-3 
Q159 0.963 0.146 0.862 !       0.61 eA-3 
Q160 0.396 0.479 0.058 !       0.61 eA-3 
Q161 0.726 0.531 0.935 !       0.60 eA-3 
Q162 0.869 0.506 0.856 !       0.60 eA-3 
Q163 0.710 0.994 0.587 !       0.60 eA-3 
Q164 0.035 0.475 0.397 !       0.60 eA-3 
Q165 0.852 0.514 0.601 !       0.59 eA-3 
Q166 0.195 0.912 0.907 !       0.58 eA-3 
Q167 0.606 0.671 0.748 !       0.58 eA-3 
Q168 0.920 0.021 0.350 !       0.57 eA-3 
Q169 0.726 0.424 0.714 !       0.57 eA-3 
Q170 0.507 0.601 0.250 !       0.57 eA-3 
Q171 0.711 0.405 0.759 !       0.56 eA-3 
Q172 0.512 0.695 0.036 !       0.56 eA-3 
Q173 0.681 0.261 0.222 !       0.55 eA-3 
Q174 0.658 0.062 0.377 !       0.54 eA-3 
Q175 0.531 0.562 0.179 !       0.54 eA-3 
Q176 0.749 0.804 0.961 !       0.54 eA-3 
Q177 0.828 0.704 0.528 !       0.53 eA-3 
Q178 0.666 0.380 0.940 !       0.52 eA-3 
Q179 0.709 0.695 0.766 !       0.52 eA-3 
Q180 0.981 0.173 0.343 !       0.52 eA-3 
Q181 0.601 0.403 0.793 !       0.51 eA-3 
Q182 0.652 0.880 0.909 !       0.51 eA-3 
Q183 0.593 0.800 0.937 !       0.51 eA-3 
Q184 0.737 0.533 0.489 !       0.50 eA-3 
Q185 0.837 0.130 0.815 !       0.50 eA-3 
) 
;
_shelx_fab_checksum              26146
loop_
_space_group_symop_operation_xyz
'x, y, z'
'-x, y+1/2, -z'
loop_
_atom_site_label
_atom_site_type_symbol
_atom_site_fract_x
_atom_site_fract_y
_atom_site_fract_z
_atom_site_U_iso_or_equiv
_atom_site_adp_type
_atom_site_occupancy
_atom_site_site_symmetry_order
_atom_site_calc_flag
_atom_site_refinement_flags_posn
_atom_site_refinement_flags_adp
_atom_site_refinement_flags_occupancy
_atom_site_disorder_assembly
_atom_site_disorder_group
Eu1 Eu 0.18192(10) 0.53825(8) 0.15574(10) 0.0106(2) Uani 1 1 d . U . . .
N1 N 0.374(3) 0.4309(10) 0.350(3) 0.020(3) Uani 1 1 d D U . . .
O1 O 0.628(2) 0.1356(6) 0.826(2) 0.030(3) Uani 1 1 d . U . . .
O2 O 0.580(3) 0.1018(7) 0.472(3) 0.039(4) Uani 1 1 d . U . . .
O3 O 0.087(2) 0.5049(6) 0.485(2) 0.024(3) Uani 1 1 d . U . . .
O4 O 0.228(2) 0.4718(6) 0.847(2) 0.025(3) Uani 1 1 d . U . . .
O5 O 0.598(2) 0.5530(6) 0.230(2) 0.029(3) Uani 1 1 d . U . . .
O6 O 0.893(2) 0.4658(6) 0.214(2) 0.024(3) Uani 1 1 d . U . . .
O7 O -0.197(3) 0.5898(7) -0.014(2) 0.035(3) Uani 1 1 d . U . . .
H7C H -0.303031 0.593730 -0.148263 0.042 Uiso 1 1 d R U . . .
H7D H -0.263321 0.576600 0.078787 0.042 Uiso 1 1 d R U . . .
O8 O 0.006(3) 0.5892(7) -0.221(2) 0.035(3) Uani 1 1 d . U . . .
H8D H 0.004118 0.564280 -0.327257 0.041 Uiso 1 1 d R U . . .
H8E H 0.099978 0.617680 -0.224057 0.041 Uiso 1 1 d R U . . .
C1 C 0.443(2) 0.2034(6) 0.514(2) 0.026(3) Uani 1 1 d G U . . .
C2 C 0.375(2) 0.2427(6) 0.655(2) 0.030(4) Uani 1 1 d G U . . .
H2 H 0.387136 0.230622 0.804418 0.036 Uiso 1 1 calc R U . . .
C3 C 0.291(2) 0.2992(6) 0.578(2) 0.029(3) Uani 1 1 d G U . . .
H3 H 0.241886 0.324388 0.674157 0.035 Uiso 1 1 calc R U . . .
C4 C 0.276(2) 0.3195(6) 0.361(2) 0.028(4) Uani 1 1 d G U . . .
C5 C 0.332(2) 0.2775(6) 0.214(2) 0.036(4) Uani 1 1 d G U . . .
H5 H 0.302340 0.287464 0.058474 0.043 Uiso 1 1 calc R U . . .
C6 C 0.429(2) 0.2217(6) 0.297(2) 0.030(4) Uani 1 1 d G U . . .
H6 H 0.484608 0.196789 0.205406 0.036 Uiso 1 1 calc R U . . .
C7 C 0.564(4) 0.1430(12) 0.621(4) 0.024(4) Uani 1 1 d . U . . .
C8 C 0.187(3) 0.3846(9) 0.273(4) 0.027(3) Uani 1 1 d . U . . .
H8A H 0.122483 0.384320 0.103720 0.032 Uiso 1 1 calc R U . . .
H8B H 0.059083 0.395355 0.327870 0.032 Uiso 1 1 calc R U . . .
C9 C 0.441(3) 0.4469(11) 0.596(3) 0.027(4) Uani 1 1 d D U . . .
H9A H 0.571954 0.475592 0.636011 0.032 Uiso 1 1 calc R U . . .
H9B H 0.498337 0.410981 0.690145 0.032 Uiso 1 1 calc R U . . .
C10 C 0.238(3) 0.4740(9) 0.658(3) 0.025(4) Uani 1 1 d D U . . .
C11 C 0.582(3) 0.4166(7) 0.287(3) 0.021(3) Uani 1 1 d D U . . .
H11A H 0.532613 0.390505 0.151285 0.026 Uiso 1 1 calc R U . . .
H11B H 0.697048 0.394569 0.414814 0.026 Uiso 1 1 calc R U . . .
C12 C 0.700(3) 0.4721(7) 0.235(3) 0.018(3) Uani 1 1 d D U . . .
loop_
_atom_site_aniso_label
_atom_site_aniso_U_11
_atom_site_aniso_U_22
_atom_site_aniso_U_33
_atom_site_aniso_U_23
_atom_site_aniso_U_13
_atom_site_aniso_U_12
Eu1 0.0127(3) 0.0112(4) 0.0094(3) -0.0004(7) 0.0057(2) -0.0001(6)
N1 0.028(6) 0.017(6) 0.024(6) 0.004(5) 0.020(5) 0.003(5)
O1 0.040(7) 0.022(7) 0.029(6) 0.007(6) 0.014(5) 0.009(5)
O2 0.046(7) 0.022(7) 0.036(7) -0.003(6) -0.004(6) 0.012(6)
O3 0.024(6) 0.028(6) 0.019(5) 0.009(5) 0.006(4) 0.012(5)
O4 0.033(6) 0.025(7) 0.018(6) -0.001(5) 0.010(5) 0.008(5)
O5 0.024(5) 0.039(8) 0.027(5) 0.006(5) 0.013(4) 0.010(5)
O6 0.022(6) 0.022(7) 0.037(6) -0.001(6) 0.022(5) 0.002(5)
O7 0.040(8) 0.035(9) 0.028(7) 0.008(7) 0.009(6) 0.000(7)
O8 0.056(9) 0.021(8) 0.020(6) 0.005(6) 0.005(6) -0.003(7)
C1 0.030(7) 0.025(7) 0.026(7) 0.000(6) 0.013(6) -0.003(6)
C2 0.043(7) 0.025(7) 0.025(7) 0.000(6) 0.014(6) 0.003(7)
C3 0.033(7) 0.025(7) 0.031(7) 0.003(6) 0.015(6) 0.005(6)
C4 0.030(7) 0.021(7) 0.029(7) 0.001(6) 0.003(6) 0.000(6)
C5 0.048(8) 0.025(8) 0.033(7) -0.003(7) 0.011(7) -0.003(7)
C6 0.042(7) 0.025(7) 0.026(7) 0.003(6) 0.017(6) 0.007(6)
C7 0.046(9) 0.014(8) 0.022(7) 0.002(7) 0.023(7) 0.003(8)
C8 0.027(6) 0.016(7) 0.032(6) 0.000(6) 0.005(6) 0.003(6)
C9 0.017(6) 0.029(7) 0.029(6) -0.007(6) 0.001(6) 0.013(6)
C10 0.032(7) 0.015(7) 0.018(7) -0.005(6) -0.003(6) -0.002(6)
C11 0.020(6) 0.016(6) 0.028(6) -0.005(6) 0.009(5) 0.006(6)
C12 0.014(6) 0.014(7) 0.027(7) -0.003(6) 0.009(6) 0.004(6)
loop_
_atom_type_symbol
_atom_type_description
_atom_type_scat_dispersion_real
_atom_type_scat_dispersion_imag
_atom_type_scat_source
C C 0.0033 0.0016 'International Tables Vol C Tables 4.2.6.8 and 6.1.1.4'
H H 0.0000 0.0000 'International Tables Vol C Tables 4.2.6.8 and 6.1.1.4'
N N 0.0061 0.0033 'International Tables Vol C Tables 4.2.6.8 and 6.1.1.4'
O O 0.0106 0.0060 'International Tables Vol C Tables 4.2.6.8 and 6.1.1.4'
Eu Eu -0.1578 3.6682 'International Tables Vol C Tables 4.2.6.8 and 6.1.1.4'
loop_
_geom_angle_atom_site_label_1
_geom_angle_atom_site_label_2
_geom_angle_atom_site_label_3
_geom_angle
_geom_angle_site_symmetry_1
_geom_angle_site_symmetry_3
_geom_angle_publ_flag
O5 Eu1 O3 115.0(4) . . ?
O5 Eu1 O7 140.5(5) . . ?
O3 Eu1 O7 92.4(5) . . ?
O5 Eu1 O1 55.2(5) . 2_656 ?
O3 Eu1 O1 118.9(5) . 2_656 ?
O7 Eu1 O1 87.3(5) . 2_656 ?
O5 Eu1 O8 100.9(5) . . ?
O3 Eu1 O8 141.6(5) . . ?
O7 Eu1 O8 49.6(5) . . ?
O1 Eu1 O8 70.8(5) 2_656 . ?
O5 Eu1 O6 142.6(4) . 1_455 ?
O3 Eu1 O6 45.1(4) . 1_455 ?
O7 Eu1 O6 76.8(5) . 1_455 ?
O1 Eu1 O6 155.7(4) 2_656 1_455 ?
O8 Eu1 O6 110.1(5) . 1_455 ?
O5 Eu1 O4 80.7(4) . 1_554 ?
O3 Eu1 O4 125.5(5) . 1_554 ?
O7 Eu1 O4 106.9(4) . 1_554 ?
O1 Eu1 O4 112.7(5) 2_656 1_554 ?
O8 Eu1 O4 71.5(5) . 1_554 ?
O6 Eu1 O4 89.7(4) 1_455 1_554 ?
O5 Eu1 O2 63.4(5) . 2_656 ?
O3 Eu1 O2 69.7(5) . 2_656 ?
O7 Eu1 O2 105.0(5) . 2_656 ?
O1 Eu1 O2 51.8(5) 2_656 2_656 ?
O8 Eu1 O2 119.4(5) . 2_656 ?
O6 Eu1 O2 114.5(5) 1_455 2_656 ?
O4 Eu1 O2 143.5(5) 1_554 2_656 ?
O5 Eu1 N1 77.7(5) . . ?
O3 Eu1 N1 63.4(4) . . ?
O7 Eu1 N1 141.8(5) . . ?
O1 Eu1 N1 129.7(5) 2_656 . ?
O8 Eu1 N1 142.1(5) . . ?
O6 Eu1 N1 65.1(5) 1_455 . ?
O4 Eu1 N1 71.0(4) 1_554 . ?
O2 Eu1 N1 94.1(4) 2_656 . ?
O5 Eu1 C7 56.9(6) . 2_656 ?
O3 Eu1 C7 95.3(6) . 2_656 ?
O7 Eu1 C7 94.7(6) . 2_656 ?
O1 Eu1 C7 24.4(5) 2_656 2_656 ?
O8 Eu1 C7 93.2(6) . 2_656 ?
O6 Eu1 C7 137.9(5) 1_455 2_656 ?
O4 Eu1 C7 131.6(6) 1_554 2_656 ?
O2 Eu1 C7 27.5(5) 2_656 2_656 ?
N1 Eu1 C7 115.5(5) . 2_656 ?
O5 Eu1 H7D 153.6 . . ?
O3 Eu1 H7D 74.3 . . ?
O7 Eu1 H7D 18.3 . . ?
O1 Eu1 H7D 98.4 2_656 . ?
O8 Eu1 H7D 67.5 . . ?
O6 Eu1 H7D 61.9 1_455 . ?
O4 Eu1 H7D 115.1 1_554 . ?
O2 Eu1 H7D 100.6 2_656 . ?
N1 Eu1 H7D 126.5 . . ?
C7 Eu1 H7D 98.9 2_656 . ?
O5 Eu1 H8E 86.4 . . ?
O3 Eu1 H8E 149.6 . . ?
O7 Eu1 H8E 59.2 . . ?
O1 Eu1 H8E 54.8 2_656 . ?
O8 Eu1 H8E 16.8 . . ?
O6 Eu1 H8E 126.6 1_455 . ?
O4 Eu1 H8E 77.0 1_554 . ?
O2 Eu1 H8E 105.3 2_656 . ?
N1 Eu1 H8E 146.0 . . ?
C7 Eu1 H8E 78.1 2_656 . ?
H7D Eu1 H8E 77.5 . . ?
C9 N1 C11 112.0(14) . . ?
C9 N1 C8 113.9(17) . . ?
C11 N1 C8 112.7(16) . . ?
C9 N1 Eu1 99.1(13) . . ?
C11 N1 Eu1 109.9(12) . . ?
C8 N1 Eu1 108.3(11) . . ?
C7 O1 Eu1 98.2(15) . 2_646 ?
C7 O2 Eu1 85.4(13) . 2_646 ?
C10 O3 Eu1 122.5(11) . . ?
C10 O4 Eu1 141.1(14) . 1_556 ?
C12 O5 Eu1 100.3(7) . . ?
C12 O6 Eu1 132.8(11) . 1_655 ?
Eu1 O7 H7C 137.1 . . ?
Eu1 O7 H7D 98.1 . . ?
H7C O7 H7D 108.3 . . ?
Eu1 O8 H8D 107.9 . . ?
Eu1 O8 H8E 107.2 . . ?
H8D O8 H8E 107.1 . . ?
C6 C1 C2 119.2 . . ?
C6 C1 C7 121.9(11) . . ?
C2 C1 C7 118.4(11) . . ?
C3 C2 C1 120.9 . . ?
C3 C2 H2 119.5 . . ?
C1 C2 H2 119.5 . . ?
C2 C3 C4 121.5 . . ?
C2 C3 H3 119.2 . . ?
C4 C3 H3 119.2 . . ?
C3 C4 C5 116.8 . . ?
C3 C4 C8 122.1(11) . . ?
C5 C4 C8 121.0(11) . . ?
C6 C5 C4 121.0 . . ?
C6 C5 H5 119.5 . . ?
C4 C5 H5 119.5 . . ?
C1 C6 C5 120.0 . . ?
C1 C6 H6 120.0 . . ?
C5 C6 H6 120.0 . . ?
O1 C7 O2 124(2) . . ?
O1 C7 C1 120(2) . . ?
O2 C7 C1 116.2(17) . . ?
O1 C7 Eu1 57.4(13) . 2_646 ?
O2 C7 Eu1 67.1(12) . 2_646 ?
C1 C7 Eu1 175.1(15) . 2_646 ?
N1 C8 C4 114.0(15) . . ?
N1 C8 H8A 108.8 . . ?
C4 C8 H8A 108.8 . . ?
N1 C8 H8B 108.8 . . ?
C4 C8 H8B 108.8 . . ?
H8A C8 H8B 107.7 . . ?
N1 C9 C10 113.6(14) . . ?
N1 C9 H9A 108.8 . . ?
C10 C9 H9A 108.8 . . ?
N1 C9 H9B 108.8 . . ?
C10 C9 H9B 108.8 . . ?
H9A C9 H9B 107.7 . . ?
O4 C10 O3 123.4(15) . . ?
O4 C10 C9 123.5(16) . . ?
O3 C10 C9 112.9(16) . . ?
N1 C11 C12 112.6(15) . . ?
N1 C11 H11A 109.1 . . ?
C12 C11 H11A 109.1 . . ?
N1 C11 H11B 109.1 . . ?
C12 C11 H11B 109.1 . . ?
H11A C11 H11B 107.8 . . ?
O6 C12 C11 117.6(15) . . ?
O6 C12 O5 114.6(12) . . ?
C11 C12 O5 127.5(12) . . ?
loop_
_geom_bond_atom_site_label_1
_geom_bond_atom_site_label_2
_geom_bond_distance
_geom_bond_site_symmetry_2
_geom_bond_publ_flag
Eu1 O5 2.393(12) . ?
Eu1 O3 2.393(13) . ?
Eu1 O7 2.419(14) . ?
Eu1 O1 2.421(14) 2_656 ?
Eu1 O8 2.446(13) . ?
Eu1 O6 2.473(13) 1_455 ?
Eu1 O4 2.486(13) 1_554 ?
Eu1 O2 2.630(15) 2_656 ?
Eu1 N1 2.73(2) . ?
Eu1 C7 2.84(3) 2_656 ?
Eu1 H7D 2.6745 . ?
Eu1 H8E 2.8167 . ?
N1 C9 1.458(12) . ?
N1 C11 1.460(12) . ?
N1 C8 1.47(3) . ?
O1 C7 1.19(2) . ?
O2 C7 1.32(3) . ?
O3 C10 1.32(2) . ?
O4 C10 1.18(2) . ?
O5 C12 1.89(2) . ?
O6 C12 1.22(2) . ?
O7 H7C 0.8500 . ?
O7 H7D 0.8500 . ?
O8 H8D 0.8500 . ?
O8 H8E 0.8499 . ?
C1 C6 1.362(8) . ?
C1 C2 1.384(8) . ?
C1 C7 1.55(3) . ?
C2 C3 1.370(8) . ?
C2 H2 0.9300 . ?
C3 C4 1.375(8) . ?
C3 H3 0.9300 . ?
C4 C5 1.414(9) . ?
C4 C8 1.56(2) . ?
C5 C6 1.384(8) . ?
C5 H5 0.9300 . ?
C6 H6 0.9300 . ?
C8 H8A 0.9700 . ?
C8 H8B 0.9700 . ?
C9 C10 1.516(12) . ?
C9 H9A 0.9700 . ?
C9 H9B 0.9700 . ?
C11 C12 1.506(12) . ?
C11 H11A 0.9700 . ?
C11 H11B 0.9700 . ?
loop_
_geom_hbond_atom_site_label_D
_geom_hbond_atom_site_label_H
_geom_hbond_atom_site_label_A
_geom_hbond_distance_DH
_geom_hbond_distance_HA
_geom_hbond_distance_DA
_geom_hbond_angle_DHA
_geom_hbond_site_symmetry_A
_geom_hbond_publ_flag
C8 H8B O6 0.97 1.85 2.45(2) 117.5 1_455 yes
C8 H8B O3 0.97 2.59 3.11(2) 113.8 . yes
O8 H8D O4 0.85 2.47 2.88(2) 110.4 1_554 yes
O8 H8D O3 0.85 1.92 2.75(2) 164.7 1_554 yes
O7 H7C O2 0.85 2.09 2.94(2) 176.7 2 yes
loop_
_geom_torsion_atom_site_label_1
_geom_torsion_atom_site_label_2
_geom_torsion_atom_site_label_3
_geom_torsion_atom_site_label_4
_geom_torsion
_geom_torsion_site_symmetry_1
_geom_torsion_site_symmetry_2
_geom_torsion_site_symmetry_3
_geom_torsion_site_symmetry_4
_geom_torsion_publ_flag
C6 C1 C2 C3 1.0 . . . . ?
C7 C1 C2 C3 173.2(15) . . . . ?
C1 C2 C3 C4 -1.7 . . . . ?
C2 C3 C4 C5 5.6 . . . . ?
C2 C3 C4 C8 -178.0(14) . . . . ?
C3 C4 C5 C6 -9.1 . . . . ?
C8 C4 C5 C6 174.5(14) . . . . ?
C2 C1 C6 C5 -4.4 . . . . ?
C7 C1 C6 C5 -176.4(15) . . . . ?
C4 C5 C6 C1 8.7 . . . . ?
Eu1 O1 C7 O2 7(3) 2_646 . . . ?
Eu1 O1 C7 C1 -175.5(17) 2_646 . . . ?
Eu1 O2 C7 O1 -7(2) 2_646 . . . ?
Eu1 O2 C7 C1 176.0(18) 2_646 . . . ?
C6 C1 C7 O1 160.7(17) . . . . ?
C2 C1 C7 O1 -11(3) . . . . ?
C6 C1 C7 O2 -22(3) . . . . ?
C2 C1 C7 O2 166.1(16) . . . . ?
C9 N1 C8 C4 -74(2) . . . . ?
C11 N1 C8 C4 55(2) . . . . ?
Eu1 N1 C8 C4 176.9(11) . . . . ?
C3 C4 C8 N1 84.0(18) . . . . ?
C5 C4 C8 N1 -99.8(16) . . . . ?
C11 N1 C9 C10 168.4(18) . . . . ?
C8 N1 C9 C10 -62(3) . . . . ?
Eu1 N1 C9 C10 52(2) . . . . ?
Eu1 O4 C10 O3 -48(3) 1_556 . . . ?
Eu1 O4 C10 C9 126.0(19) 1_556 . . . ?
Eu1 O3 C10 O4 157.6(16) . . . . ?
Eu1 O3 C10 C9 -17(2) . . . . ?
N1 C9 C10 O4 154(2) . . . . ?
N1 C9 C10 O3 -31(3) . . . . ?
C9 N1 C11 C12 -83(2) . . . . ?
C8 N1 C11 C12 147.0(17) . . . . ?
Eu1 N1 C11 C12 26.1(17) . . . . ?
Eu1 O6 C12 C11 -175.3(11) 1_655 . . . ?
Eu1 O6 C12 O5 -1(2) 1_655 . . . ?
N1 C11 C12 O6 169.8(15) . . . . ?
N1 C11 C12 O5 -3(2) . . . . ?
Eu1 O5 C12 O6 162.9(13) . . . . ?
Eu1 O5 C12 C11 -23.9(17) . . . . ?
