#------------------------------------------------------------------------------
#$Date: 2021-07-25 01:20:33 +0300 (Sun, 25 Jul 2021) $
#$Revision: 267735 $
#$URL: file:///home/coder/svn-repositories/cod/cif/4/51/89/4518919.cif $
#------------------------------------------------------------------------------
#
# This file is available in the Crystallography Open Database (COD),
# http://www.crystallography.net/
#
# All data on this site have been placed in the public domain by the
# contributors.
#
data_4518919
loop_
_publ_author_name
'Doma\'nski, Mateusz A.'
'Kraszewski, Karol'
'Paluch, Piotr'
'Gu\'nka, Piotr A.'
_publ_section_title
;
 Arsenic(III)-oxide Intercalates with Potassium Chloride: Water-Induced
 Varieties and New Synthesis Methods
;
_journal_name_full               'Crystal Growth &amp; Design'
_journal_paper_doi               10.1021/acs.cgd.1c00555
_journal_year                    2021
_chemical_formula_moiety         'As4 O6, 2(K), 2(Cl), 1(O)'
_chemical_formula_sum            'As4 Cl2 K2 O7'
_chemical_formula_weight         560.78
_space_group_crystal_system      hexagonal
_space_group_IT_number           191
_space_group_name_Hall           '-P 6 2'
_space_group_name_H-M_alt        'P 6/m m m'
_atom_sites_solution_primary     iterative
_audit_creation_date             2021-01-27
_audit_creation_method
;
Olex2 1.3-dev
(compiled 2020.12.01 svn.r5f60950 for OlexSys, GUI svn.r6226)
;
_cell_angle_alpha                90
_cell_angle_beta                 90
_cell_angle_gamma                120
_cell_formula_units_Z            1
_cell_length_a                   5.24015(14)
_cell_length_b                   5.24015(14)
_cell_length_c                   12.2944(4)
_cell_measurement_reflns_used    3325
_cell_measurement_temperature    293(2)
_cell_measurement_theta_max      32.3190
_cell_measurement_theta_min      4.4690
_cell_volume                     292.365(15)
_computing_cell_refinement       'CrysAlisPro 1.171.38.43 (Rigaku OD, 2015)'
_computing_data_collection       'CrysAlisPro 1.171.38.43 (Rigaku OD, 2015)'
_computing_data_reduction        'CrysAlisPro 1.171.38.43 (Rigaku OD, 2015)'
_computing_molecular_graphics    'Olex2 1.3-dev (Dolomanov et al., 2009)'
_computing_publication_material  'Olex2 1.3-dev (Dolomanov et al., 2009)'
_computing_structure_refinement  'SHELXL 2018/3 (Sheldrick, 2015)'
_computing_structure_solution    'olex2.solve 1.3-dev (Bourhis et al., 2015)'
_diffrn_ambient_temperature      293(2)
_diffrn_detector                 'CCD plate'
_diffrn_detector_area_resol_mean 10.3347
_diffrn_detector_type            Atlas
_diffrn_measured_fraction_theta_full 0.994
_diffrn_measured_fraction_theta_max 0.985
_diffrn_measurement_details
;
List of Runs (angles in degrees, time in seconds):

  # Type    Start    End  Width  t~exp~   \w     \q     \k     \f   Frames
--------------------------------------------------------------------------
  1  \w    -45.00  35.00   1.00    4.50    --  -19.50  38.00 -60.00   80
  2  \w    -13.00  25.00   1.00    4.50    --   19.81  77.00 150.00   38
  3  \w    -95.00   7.00   1.00    4.50    --  -19.50 -38.00 120.00  102
  4  \w    -98.00 -40.00   1.00    4.50    --  -19.50 -77.00 -60.00   58
  5  \w   -108.00 -32.00   1.00    4.50    --  -19.50 179.00  30.00   76
  6  \w    -95.00   7.00   1.00    4.50    --  -19.50 -38.00 -30.00  102
  7  \w    -93.00  10.00   1.00    4.50    --  -19.50 -57.00-120.00  103
  8  \w     45.00  87.00   1.00    4.50    --   19.97-166.00 -45.00   42
  9  \w     -4.00  62.00   1.00    4.50    --   19.97 -99.00  30.00   66
;
_diffrn_measurement_device       'four-circle diffractometer'
_diffrn_measurement_device_type  'Xcalibur, Atlas, Gemini ultra'
_diffrn_measurement_method       '\w scans'
_diffrn_orient_matrix_type
'CrysAlisPro convention (1999,Acta A55,543-557)'
_diffrn_orient_matrix_UB_11      -0.1541029000
_diffrn_orient_matrix_UB_12      -0.0659466000
_diffrn_orient_matrix_UB_13      0.0083702000
_diffrn_orient_matrix_UB_21      0.0114746000
_diffrn_orient_matrix_UB_22      0.1404462000
_diffrn_orient_matrix_UB_23      -0.0037406000
_diffrn_orient_matrix_UB_31      -0.0233666000
_diffrn_orient_matrix_UB_32      -0.0188574000
_diffrn_orient_matrix_UB_33      -0.0569657000
_diffrn_radiation_monochromator  graphite
_diffrn_radiation_probe          x-ray
_diffrn_radiation_type           'Mo K\a'
_diffrn_radiation_wavelength     0.71073
_diffrn_reflns_av_R_equivalents  0.0445
_diffrn_reflns_av_unetI/netI     0.0148
_diffrn_reflns_Laue_measured_fraction_full 0.994
_diffrn_reflns_Laue_measured_fraction_max 0.985
_diffrn_reflns_limit_h_max       7
_diffrn_reflns_limit_h_min       -7
_diffrn_reflns_limit_k_max       7
_diffrn_reflns_limit_k_min       -7
_diffrn_reflns_limit_l_max       18
_diffrn_reflns_limit_l_min       -17
_diffrn_reflns_number            6016
_diffrn_reflns_point_group_measured_fraction_full 0.994
_diffrn_reflns_point_group_measured_fraction_max 0.985
_diffrn_reflns_theta_full        26.000
_diffrn_reflns_theta_max         32.709
_diffrn_reflns_theta_min         3.314
_diffrn_source                   'fine-focus sealed X-ray tube'
_diffrn_source_type              'Enhance (Mo) X-ray Source'
_exptl_absorpt_coefficient_mu    12.506
_exptl_absorpt_correction_T_max  0.586
_exptl_absorpt_correction_T_min  0.157
_exptl_absorpt_correction_type   analytical
_exptl_absorpt_process_details
;
CrysAlisPro 1.171.38.43 (Rigaku Oxford Diffraction, 2015)
Analytical numeric absorption correction using a multifaceted crystal
			model based on expressions derived by R.C. Clark & J.S. Reid.
(Clark, R. C. & Reid, J. S. (1995). Acta Cryst. A51, 887-897)
Empirical absorption correction using spherical harmonics,
 implemented in SCALE3 ABSPACK scaling algorithm.
;
_exptl_crystal_colour            colourless
_exptl_crystal_colour_primary    colourless
_exptl_crystal_density_diffrn    3.185
_exptl_crystal_description       plate
_exptl_crystal_F_000             260
_exptl_crystal_size_max          0.218
_exptl_crystal_size_mid          0.181
_exptl_crystal_size_min          0.039
_refine_diff_density_max         0.499
_refine_diff_density_min         -0.777
_refine_diff_density_rms         0.099
_refine_ls_extinction_coef       0.119(4)
_refine_ls_extinction_expression Fc^*^=kFc[1+0.001xFc^2^\l^3^/sin(2\q)]^-1/4^
_refine_ls_extinction_method     'SHELXL-2018/3 (Sheldrick 2018)'
_refine_ls_goodness_of_fit_ref   1.130
_refine_ls_hydrogen_treatment    undef
_refine_ls_matrix_type           full
_refine_ls_number_parameters     17
_refine_ls_number_reflns         267
_refine_ls_number_restraints     0
_refine_ls_restrained_S_all      1.130
_refine_ls_R_factor_all          0.0166
_refine_ls_R_factor_gt           0.0153
_refine_ls_shift/su_max          0.000
_refine_ls_shift/su_mean         0.000
_refine_ls_structure_factor_coef Fsqd
_refine_ls_weighting_details
'w=1/[\s^2^(Fo^2^)+(0.0170P)^2^+0.1336P] where P=(Fo^2^+2Fc^2^)/3'
_refine_ls_weighting_scheme      calc
_refine_ls_wR_factor_gt          0.0335
_refine_ls_wR_factor_ref         0.0339
_reflns_Friedel_coverage         0.000
_reflns_number_gt                260
_reflns_number_total             267
_reflns_threshold_expression     'I > 2\s(I)'
_cod_data_source_file            cg1c00555_si_002.cif
_cod_data_source_block           pg48intercalateY_KCl
_cod_original_cell_volume        292.365(18)
_cod_database_code               4518919
_shelx_shelxl_version_number     2018/3
_chemical_oxdiff_formula         'K1 As2 O3 Cl1'
_shelx_space_group_comment
;
The symmetry employed for this shelxl refinement is uniquely defined
by the following loop, which should always be used as a source of
symmetry information in preference to the above space-group names.
They are only intended as comments.
;
_shelx_estimated_absorpt_t_max   0.641
_shelx_estimated_absorpt_t_min   0.171
_reflns_odcompleteness_completeness 99.57
_reflns_odcompleteness_iscentric 1
_reflns_odcompleteness_theta     30.44
_olex2_refinement_description
;
1. Uiso/Uaniso restraints and constraints
Uanis(K2) = Uanis(O2)
2. Others
 Fixed Sof: K2(0.04167) O2(0.04167)
;
_shelx_res_file
;
TITL
    pg48.res
    created by SHELXL-2018/3 at 14:45:46 on 27-Jan-2021
CELL 0.71073 5.240153 5.240153 12.294398 90 90 120
ZERR 1 0.00014 0.00014 0.000399 0 0 0
LATT 1
SYMM -Y+X,+X,+Z
SYMM -Y,+X-Y,+Z
SYMM -X,-Y,+Z
SYMM +Y-X,-X,+Z
SYMM +Y,-X+Y,+Z
SYMM -Y+X,-Y,-Z
SYMM -X,-X+Y,-Z
SYMM +Y,+X,-Z
SYMM -Y,-X,-Z
SYMM +Y-X,+Y,-Z
SYMM +X,+X-Y,-Z
SFAC As Cl K O
UNIT 4 2 2 7
EADP K2 O2

L.S. 10
PLAN  2
SIZE 0.039 0.181 0.218
CONF
CONN 3 $As
CONN 0 $K
LIST 4
more -3
fmap 2
acta 52
BOND $H
REM <olex2.extras>
REM <HklSrc "%./pg48.hkl">
REM </olex2.extras>

WGHT    0.017000    0.133600
EXTI    0.119043
FVAR       9.69909
AS1   1    0.333333    0.666667    0.210262    10.16667    0.00876    0.00876 =
         0.01562    0.00000    0.00000    0.00438
K1    3    0.000000    0.000000    0.000000    10.04167    0.02684    0.02684 =
         0.02851    0.00000    0.00000    0.01342
CL1   2    0.000000    0.000000    0.324243    10.08333    0.02692    0.02692 =
         0.03695    0.00000    0.00000    0.01346
O1    4    0.500000    0.500000    0.132256    10.25000    0.01483    0.01483 =
         0.01988    0.00000    0.00000    0.01147
PART 1
K2    3    0.500000    0.000000    0.500000    10.04167    0.08547    0.06012 =
         0.03327    0.00000    0.00000    0.03006

PART 2
O2    4    0.500000    0.000000    0.500000    10.04167    0.08547    0.06012 =
         0.03327    0.00000    0.00000    0.03006
HKLF 4




REM
REM wR2 = 0.0339, GooF = S = 1.130, Restrained GooF = 1.130 for all data
REM R1 = 0.0153 for 260 Fo > 4sig(Fo) and 0.0166 for all 267 data
REM 17 parameters refined using 0 restraints

END

WGHT      0.0170      0.1335

REM Highest difference peak  0.499,  deepest hole -0.777,  1-sigma level  0.099
Q1    1   0.5093 -0.1762  0.5000  10.50000  0.05    0.30
Q2    1   0.0000  0.0000  0.2120  10.08333  0.05    0.29
;
_shelx_res_checksum              26155
_shelx_hkl_file
;
   0   0  -2 366351. 7974.60   1
   0   0   3 437711. 11126.5   9
   0   0   3 448454. 10129.2   3
   0   0  -3 451496. 11034.5   5
   0   0  -3 441933. 9876.15   1
   0   0   3 444472. 10048.9   7
   0   0   3 444028. 11032.9   8
   0   0   3 460061. 9998.88   1
   0   0  -4 190936. 5338.09   1
   0   0   4 197880. 5607.55   3
   0   0   4 200513. 6481.77   8
   0   0   4 196236. 5533.27   7
   0   0  -4 196075. 6455.71   5
   0   0   4 196968. 5444.15   1
   0   0   4 187788. 6454.54   9
   0   0  -5 256683. 8136.26   5
   0   0   5 260177. 6926.72   1
   0   0   5 255631. 6978.29   7
   0   0   5 258748. 7103.29   3
   0   0  -5 253142. 6821.47   1
   0   0   5 256109. 8259.46   9
   0   0   5 265181. 8243.84   8
   0   0   5 253843. 7923.69   2
   0   0   6 173794. 5320.76   1
   0   0  -6 176561. 6615.13   5
   0   0   6 168479. 6466.79   8
   0   0   6 165429. 5457.43   3
   0   0   6 175558. 6630.98   9
   0   0   6 163739. 6231.84   2
   0   0   6 165958. 5343.36   7
   0   0   7 358948. 9418.93   7
   0   0  -7 369042. 11049.5   5
   0   0   7 363627. 8928.12   6
   0   0   7 362960. 10740.3   2
   0   0   7 352840. 9286.43   1
   0   0   7 371656. 9665.17   3
   0   0   8 4321.40 859.875   7
   0   0   8 3609.69 1080.80   2
   0   0   8 4380.17 794.131   1
   0   0  -8 3081.14 1058.55   9
   0   0   8 3828.32 838.061   3
   0   0  -8 2536.59 987.920   5
   0   0   8 4863.49 764.223   6
   0   0   9 394077. 10361.3   7
   0   0   9 386100. 10154.3   1
   0   0  -9 404193. 12302.0   5
   0   0   9 391127. 10555.2   3
   0   0   9 394205. 11875.5   2
   0   0   9 391691. 9699.82   6
   0   0  10 288934. 8341.44   1
   0   0  10 293357. 8675.65   3
   0   0  10 301836. 10101.9   2
   0   0 -10 297948. 10418.7   5
   0   0  10 294291. 8541.15   7
   0   0  10 290990. 7871.70   6
   0   0  11 158673. 5763.13   7
   0   0  11 156928. 5513.68   1
   0   0 -11 164250. 7368.56   5
   0   0  11 158412. 7035.21   2
   0   0  11 158751. 5088.59   6
   0   0  11 152303. 5792.85   3
   0   0  12 171807. 6103.28   7
   0   0  12 150791. 7194.36   2
   0   0  12 175329. 6283.01   3
   0   0 -12 170586. 7791.07   5
   0   0  12 173297. 5333.00   6
   0   0 -13 2691.35 1182.70   5
   0   0  13 4675.18 1308.44   2
   0   0  13 5058.58 991.346   7
   0   0  13 4591.87 933.052   3
   0   0  14 180693. 8261.74   2
   0   0  14 187847. 6657.30   3
   0   0 -14 189856. 8739.21   5
   0   0  15 74781.8 5219.35   2
   0   0 -15 86984.9 5847.41   5
   0   0  16 8601.88 1768.94   2
   0   0  17 71698.6 5242.91   2
   0   0  18 4581.64 1246.69   2
   1  -1   0 95043.8 3168.18   1
  -1   1   0 97598.7 2813.48   7
  -1   1   0 98868.3 2668.78   4
  -1   0   0 93876.3 3115.81   3
   0   1   0 89267.2 3220.31   7
   0   1   0 94144.8 2524.88   2
   0  -1   0 93613.1 2708.41   3
   0   1   0 90942.6 2664.88   4
   1   0   0 97310.5 2948.46   6
  -1   1  -1 17776.2 928.490   1
  -1   1  -1 18039.5 990.996   7
   0   1  -1 19532.1 1057.78   7
   1  -1  -1 20408.7 1479.59   1
  -1   0   1 19298.7 1484.30   3
  -1   1   1 18037.3 1093.06   7
   1   0  -1 19312.1 1105.13   6
   1   0  -1 17359.0 818.772   5
   0   1   1 18804.7 1125.23   6
   1   0   1 18557.3 1203.39   6
   0  -1   1 21617.8 1417.36   7
   0   1  -1 16294.5 934.392   4
   1  -1   1 19166.6 1105.08   1
   0   1  -1 18798.6 1166.06   2
   0  -1   1 19022.1 1063.64   3
   0   1   1 17306.6 1536.45   7
  -1   1   1 19887.9 919.796   4
   0  -1  -1 17236.4 945.580   3
   1   0   1 20808.1 1238.07   3
  -1   0  -1 20031.2 982.073   3
   1  -1   1 17503.5 871.523   9
  -1   1  -1 17402.2 722.587   5
   1  -1   2 149340. 4085.42   9
  -1   0   2 172315. 5677.56   3
   1  -1  -2 150165. 3819.92   6
   0  -1   2 154471. 4015.30   7
   1   0  -2 151091. 3987.73   6
   1   0  -2 149232. 3709.16   7
   1  -1   2 149776. 3745.34   5
   0   1  -2 162517. 3440.12   7
   1   0  -2 142823. 3875.97   8
   1  -1  -2 151742. 5051.22   1
   0   1  -2 150578. 4013.57   5
   0   1   2 157040. 4035.03   6
   0  -1  -2 141562. 3768.79   6
   1  -1   2 156769. 3776.81   1
  -1   1  -2 159349. 3870.25   5
   1   0   2 165298. 3884.42   3
   0   1   2 155648. 5698.99   7
   0  -1  -2 146136. 3609.99   9
  -1   1   2 153736. 4349.90   7
   1   0  -2 151678. 4026.71   5
   0  -1  -2 151096. 3887.76   8
  -1   0  -2 157031. 3351.56   3
   0   1  -2 151012. 3853.20   4
   0  -1  -2 153153. 4081.20   1
  -1   1  -2 145640. 3611.03   3
  -1   1   2 155392. 3671.90   4
   0  -1   2 157257. 4254.11   3
   0   1  -2 156599. 4819.13   2
   1   0   2 154907. 4547.18   6
  -1   0   3 526335. 10636.9   7
   1  -1   3 495942. 11178.0   5
  -1   1  -3 503000. 11315.0   5
   1   0  -3 528610. 11322.9   2
   0   1  -3 577006. 11426.6   5
  -1   1   3 512070. 11681.3   7
   1  -1  -3 504855. 10614.4   2
   0  -1  -3 522027. 11190.8   1
  -1   0  -3 494347. 11557.6   6
   0   1  -3 519284. 12617.3   2
  -1   0   3 491097. 13385.6   3
   1  -1   3 524952. 10507.6   3
   1   0  -3 492642. 11493.6   5
   1  -1  -3 449180. 12372.3   1
   0  -1  -3 507545. 11477.1   8
   1   0  -3 493953. 11499.5   8
   1   0   3 488685. 11305.9   5
   0  -1   3 472936. 11906.9   9
   0   1   3 518575. 10844.6   6
   0   1   3 580822. 10964.1   9
   1   0  -3 522347. 10521.6   7
   0  -1   3 571452. 11122.8   4
   1   0  -3 528465. 10848.9   6
   0  -1   3 511140. 11466.5   3
   1  -1   3 482040. 11610.2   9
  -1   0   3 513095. 11139.2   6
   1  -1   3 540256. 11078.5   7
   1  -1  -3 507492. 10112.6   6
   0   1   3 492404. 13186.8   7
   0  -1  -3 491125. 11002.0   9
   0  -1  -3 522751. 10609.9   6
   1   0   3 480764. 11753.8   6
  -1   1  -3 527922. 10399.3   3
   1  -1   3 503810. 10283.9   1
   1  -1  -4 26551.8 1657.30   7
   1  -1   4 22424.0 1608.24   5
   1  -1   4 25529.5 1125.01   3
   1  -1  -4 22502.2 2037.94   1
   1   0  -4 22789.9 1098.24   7
   0  -1  -4 27299.0 1880.14   8
   0   1  -4 30536.5 2344.29   2
   0  -1  -4 24304.8 1623.84   9
   0   1  -4 25132.5 1635.70   5
   0  -1  -4 23649.7 1102.41   6
   1  -1  -4 28039.5 1917.57   5
   0   1  -4 25574.0 1595.89   3
  -1   0   4 27565.9 2400.58   3
   1   0  -4 25994.7 1611.96   2
  -1   1   4 26550.3 1790.49   7
  -1   0   4 23925.2 1673.86   8
   1  -1  -4 25456.4 1388.77   2
  -1   0   4 23592.4 1166.38   7
   0   1   4 27289.2 2302.89   7
   1   0  -4 24760.3 1269.97   6
  -1   1  -4 24556.3 1706.23   5
   1   0  -4 25950.1 1839.21   5
   1  -1   4 24281.8 1854.33   9
   1   0  -4 25144.2 1864.44   8
   0   1   4 26726.6 1597.99   1
   0  -1  -4 25836.3 1513.71   1
   1   0   4 25246.7 1578.89   9
   1   0   4 25779.1 1785.90   5
  -1   1   4 25669.3 1682.96   9
   1   0   4 26015.6 1819.27   6
   0   1   4 26500.4 1771.30   8
   0  -1   4 26343.2 2037.18   9
  -1   1  -4 24002.1 1084.71   3
  -1   0  -4 24633.3 933.033   1
   0  -1   4 22080.3 1350.44   4
   0  -1   4 25426.8 1658.67   3
  -1   0  -4 24387.4 1617.67   6
  -1   0   4 25635.0 1440.57   6
   0   1   4 27812.9 1306.37   6
   0   1   4 25314.4 1483.10   9
   1  -1  -5 126320. 4362.53   7
   1   0   5 120723. 4615.06   6
   0   1   5 121035. 3470.58   6
   1   0   5 121559. 4877.94   8
  -1   1   5 116330. 3890.48   2
  -1   0   5 123068. 3813.77   6
  -1   0  -5 121570. 3053.30   1
   0  -1  -5 115674. 3968.35   1
  -1   0   5 111156. 5138.54   3
   1   0  -5 111810. 4851.33   8
  -1   1  -5 122120. 3358.52   3
   1   0  -5 113756. 4804.62   5
   0  -1   5 129249. 4940.77   8
   1  -1  -5 121324. 4138.33   2
   0  -1  -5 124125. 5011.44   8
   0  -1  -5 125433. 4701.30   9
   0   1  -5 119644. 4482.87   5
   1   0   5 128912. 4504.26   9
   1   0  -5 125254. 5357.93   3
   1   0   5 120736. 4827.15   5
   1   0  -5 118049. 4384.29   2
   1  -1   5 116564. 3303.12   3
   0   1   5 119260. 5161.27   7
   0  -1   5 115613. 5208.83   9
  -1   0   5 118636. 3425.46   7
   0   1  -5 118711. 4222.55   3
   1  -1  -5 124341. 5277.99   1
   1  -1   5 127422. 4826.80   5
   0  -1   5 118768. 3979.27   4
   0   1   5 117460. 4305.13   9
   1  -1  -5 116694. 4933.58   5
  -1   1   5 120739. 4686.44   9
   1   0  -5 115351. 3318.25   7
  -1   0   5 131848. 5100.17   1
  -1   1  -5 125258. 4853.68   5
  -1   1   5 122847. 5250.88   1
   0   1   5 112955. 4640.45   8
   0   1   5 122605. 4262.89   1
   1  -1   5 122442. 5177.39   9
   0  -1   5 118180. 4390.84   3
   0  -1  -5 119656. 3255.28   6
  -1   0   5 123154. 4803.29   8
  -1   1   5 127197. 4708.74   7
  -1   1  -6 49503.5 2085.42   3
  -1   0  -6 47621.6 1824.81   1
   0   1  -6 54745.2 3084.90   5
   0   1   6 50447.5 2708.87   1
   1  -1   6 48150.9 1968.08   3
  -1   1   6 46985.5 2894.64   7
   1  -1  -6 45176.2 2607.46   7
  -1   0   6 44717.6 2926.56   2
   0  -1   6 53417.0 3379.74   8
  -1   0   6 49559.7 3148.20   1
  -1   1   6 52486.7 3300.85   9
   1  -1   6 51133.8 3268.83   5
   0   1   6 45905.0 3081.48   8
   0  -1  -6 47405.5 3111.09   9
  -1   1   6 50063.4 2631.50   2
   1  -1  -6 54055.5 3410.73   1
  -1   0   6 46219.5 3221.40   3
  -1   1  -6 53543.9 3375.32   5
   1   0  -6 51706.3 3415.96   5
  -1   0   6 47493.0 3155.75   8
   0  -1  -6 49458.9 2517.97   1
  -1   0   6 53868.7 3142.95   9
  -1   0   6 47145.5 2257.37   6
   1   0   6 50235.3 3344.95   8
   1   0  -6 49293.9 2039.85   7
  -1   1   6 54265.0 3286.52   1
   0  -1   6 46192.1 2774.23   3
   1   0   6 46321.4 1549.18   3
   0   1  -6 51962.4 2802.14   3
   0  -1  -6 54359.6 3486.71   8
   0   1   6 51851.8 2977.07   9
   1  -1  -6 50323.3 3439.69   5
   1   0  -6 46130.0 2807.37   2
   1  -1   6 51933.4 3558.71   9
   0   1   6 46853.4 1961.26   6
   1   0   6 51428.2 3035.94   6
   0  -1   6 47797.7 3523.36   9
   0  -1  -6 48274.3 1862.86   6
   0   1   6 48024.8 3163.59   7
   1   0   6 52698.8 2979.04   9
  -1   0   6 49570.6 2061.30   7
   1  -1   6 49352.9 1736.23   1
  -1   0   7 181928. 6858.03   1
  -1   1  -7 171999. 5031.54   3
  -1   0   7 164331. 6619.41   2
   0   1   7 171932. 6128.79   2
  -1   1   7 178761. 6945.84   9
  -1   0   7 171815. 4975.52   7
  -1   1  -7 168613. 6745.98   5
   1  -1  -7 175153. 6099.98   7
   1  -1  -7 176508. 6768.35   1
   0   1   7 172930. 6030.39   1
   1  -1  -7 184173. 7493.46   5
   0  -1  -7 173931. 5761.70   1
   1   0  -7 163247. 7010.44   5
   0  -1   7 174516. 6418.00   3
   0   1  -7 169665. 6593.29   5
  -1   1   7 167936. 6467.34   1
   0  -1   7 171891. 5548.47   1
   0  -1   7 169934. 4060.14   7
  -1   0  -7 183811. 7185.25   5
   0   1  -7 172208. 6071.05   3
   1   0   7 177511. 6162.83   6
   0   1   7 175366. 6660.95   7
   0   1   7 177007. 6777.29   9
   0   1   7 172802. 4731.07   6
   1  -1   7 180952. 4915.16   3
  -1   0  -7 178098. 4637.36   1
   1   0  -7 180481. 5081.00   7
  -1   0   7 170454. 6726.03   3
   1   0  -7 174281. 7055.48   8
  -1   0   7 174533. 5225.38   6
   0  -1  -7 172707. 7060.27   8
   1   0   7 161602. 4193.15   3
  -1   1   7 179096. 6638.38   3
  -1   0  -7 165184. 6569.18   9
   1  -1   7 164257. 4284.66   1
  -1   1   7 170983. 6090.50   2
  -1   1   7 180160. 6642.10   7
   0  -1   8 1248.03 726.000   3
  -1   0   8 2990.46 1038.66   3
  -1   1   8 514.792 590.477   7
   1  -1  -8 2106.29 1004.12   8
  -1   0  -8 2183.43 933.875   9
  -1   0   8 3090.87 1218.48   2
   1  -1  -8 2989.50 810.883   7
   0  -1   8 3424.83 1314.20   2
   1   0  -8-51.1301 948.937   5
  -1   1  -8 2236.85 984.556   5
   0  -1  -8 2309.63 703.251   1
   1   0   8 1705.24 649.833   6
   0  -1   8 3213.88 736.551   1
  -1   1   8 3150.95 1039.82   2
  -1   1  -8 1482.33 1075.70   9
   0   1   8 3665.36 973.106   7
  -1   0   8 1348.19 485.435   7
  -1   1  -8 1782.32 478.324   3
   1  -1  -8 562.337 1143.07   5
   0  -1   8 1959.43 344.520   7
  -1   0  -8 2259.82 432.485   1
   1  -1   8 1516.43 524.245   3
   0   1   8 2599.71 752.690   1
   1   0   8 2000.83 392.938   3
   0   1   8 1859.33 463.079   6
   0  -1  -8 4085.18 1276.28   8
   1  -1  -8 1610.78 844.901   1
   0   1   8 1953.24 699.129   2
   1  -1   8 1578.56 327.829   1
   1   0  -8 2558.19 1217.63   8
   0   1  -8-625.462 969.100   5
  -1   0  -8 3810.60 1342.90   5
  -1   0   8 1802.75 568.013   6
   0  -1  -8 1668.01 900.002   9
  -1   1   8 1333.80 763.620   3
   0  -1  -9 6896.95 1186.58   1
  -1   1   9 7521.28 1344.76   3
  -1   1   9 6457.90 1284.95   2
   1  -1  -9 6689.65 1542.76   8
   0  -1   9 9142.53 1305.22   1
   0   1   9 5801.25 1047.81   3
   0   1   9 10269.7 894.049   6
   1  -1   9 9385.10 1773.70   2
   0   1   9 7226.91 1138.18   1
   0  -1   9 8282.99 705.211   7
   0   1   9 8185.58 1422.83   7
   1   0   9 8388.76 1219.77   6
  -1   0  -9 6562.95 1446.70   9
   0  -1   9 9612.32 1780.00   2
   0   1  -9 8425.25 1649.79   5
   0  -1  -9 9125.92 1609.52   9
  -1   1  -9 9626.56 1634.51   5
   1   0  -9 5874.34 1485.62   8
   0   1   9 5779.03 1159.96   2
   1   0  -9 7708.62 1496.72   5
   1  -1   9 7880.81 691.727   1
   1   0   9 7264.87 715.191   3
   0  -1   9 5068.93 1102.00   3
  -1   0   9 8103.83 1103.14   7
  -1   0   9 6631.22 1320.60   3
   1  -1  -9 7971.68 1378.00   1
   1  -1  -9 7789.27 1631.69   5
   0  -1  -9 7494.40 1470.58   8
   1  -1   9 6948.31 1229.85   6
  -1   1   9 7500.28 1316.17   7
  -1   0   9 9898.91 1837.13   2
  -1   0   9 7196.65 900.834   6
   1  -1   9 7484.57 981.602   3
   1   0   9 6904.97 1271.57   7
  -1   1  -9 9089.46 1771.17   9
   1  -1  10 31061.8 2070.20   3
   0   1  10 33468.4 2439.98   1
   0  -1  10 32162.5 2616.31   3
  -1   0 -10 33016.6 3364.80   9
   1  -1 -10 38528.1 3454.62   5
  -1   1  10 36760.8 2966.93   3
  -1   0  10 34064.7 1937.43   6
   1  -1  10 39253.7 3524.78   2
   1   0 -10 36288.2 3280.30   5
   0  -1  10 36208.9 3329.97   2
   0   1  10 34630.8 1655.86   6
  -1   1 -10 32050.2 3046.29   5
   1  -1  10 34540.2 1549.38   1
   1   0  10 32752.2 2364.26   6
   0   1  10 32830.7 2716.26   2
   1  -1  10 28809.7 2245.21   7
  -1   1 -10 31166.7 3101.23   9
   1   0  10 32632.3 1636.67   3
   0  -1 -10 31380.9 2950.42   9
  -1   1  10 33049.8 2645.44   7
   0  -1 -10 36007.8 2687.01   1
  -1   0  10 31528.9 2855.77   3
   1  -1  10 36028.2 2783.69   6
  -1   1  10 31526.0 2817.10   2
  -1   0  10 33013.4 3260.89   2
   0  -1  10 32425.6 2487.48   1
   1   0  10 33584.1 2772.50   7
   0   1 -10 34881.3 3402.46   5
   0  -1  10 36194.9 1589.42   7
   0   1  10 35921.1 2885.18   7
   0   1  10 33714.1 2440.58   3
   1  -1 -10 33169.0 3263.08   8
   1  -1 -10 36661.5 2889.97   1
  -1   0  10 30810.7 2066.77   7
   0  -1  11 16408.2 1049.69   7
   1  -1  11 14513.0 1573.57   7
   0  -1  11 18408.3 2528.76   2
  -1   1  11 16573.0 1989.07   3
   0   1 -11 17013.6 2508.30   5
   1   0  11 19703.7 1255.04   3
   0   1  11 18273.0 1076.19   6
  -1   0  11 19757.9 1397.30   6
   1  -1 -11 21466.3 2652.89   5
   1   0  11 17357.2 1714.64   6
  -1   1 -11 17373.9 2337.07   5
   1  -1  11 17623.5 1060.60   1
   0  -1  11 17257.3 1968.50   3
  -1   1  11 17093.3 1929.31   7
   1   0 -11 16067.3 2373.74   5
   0  -1 -11 19901.8 1947.01   1
  -1   0  11 17048.2 1518.08   7
   0   1  11 23932.6 2424.30   7
   1  -1  11 17000.3 1503.36   3
  -1   1 -11 18221.7 2510.05   9
  -1   0  11 17592.3 2396.79   2
   1   0  11 18586.0 2307.26   2
   1  -1  11 19532.8 2559.43   2
   1  -1 -11 17876.5 2488.43   8
  -1   0  11 18874.7 2207.12   3
  -1   1  11 16850.4 2136.03   2
   1   0  11 20938.3 2234.63   7
   0  -1 -11 18847.0 2249.98   9
   0   1  11 17634.6 2045.20   2
   0   1  11 18045.8 1769.54   3
   1  -1  11 17184.6 1929.17   6
  -1   0 -11 16987.6 2388.54   9
  -1   0  12 114841. 3939.23   6
   0  -1  12 112311. 5289.05   3
  -1   1  12 121274. 5432.09   7
   1   0  12 114268. 6335.05   2
   1   0  12 119289. 3665.13   3
  -1   1 -12 126985. 6529.15   5
   1  -1 -12 123557. 6654.84   8
   1   0  12 123861. 4905.36   6
   1  -1  12 112078. 5279.92   6
   0   1  12 112777. 5655.50   2
  -1   1  12 121706. 5752.14   3
  -1   1 -12 115920. 6517.81   9
  -1   0 -12 115711. 6586.94   9
   1  -1  12 112236. 4301.07   3
   1  -1  12 113141. 6498.09   2
  -1   0  12 112930. 6282.12   2
   0  -1 -12 130719. 5284.57   1
  -1   1  12 114678. 5893.79   2
  -1   0  12 113325. 5694.26   3
   0   1 -12 125797. 6798.50   5
   0   1  12 107400. 4722.86   3
   1   0  12 114847. 5586.87   7
   0   1  12 116849. 5655.18   7
  -1   0  12 122123. 4430.08   7
   1   0 -12 107618. 6283.54   5
   1  -1  12 122411. 4860.86   7
   0  -1  12 113046. 6361.13   2
  -1   0 -13 8573.92 1919.59   9
   1  -1  13 7466.61 1694.51   2
  -1   1  13 9031.76 1620.74   2
   1   0 -13 9302.02 1935.99   5
   0   1 -13 8275.72 1863.81   5
   0  -1  13 6307.03 1568.28   2
   1   0  13 7745.96 1639.12   2
  -1   0  13 6972.65 1395.52   3
   0  -1  13 8553.50 1361.87   3
   1   0  13 8513.58 1131.58   6
  -1   1  13 10925.8 1569.82   7
   1  -1  13 7388.64 1312.27   6
   1   0  13 8521.46 1461.99   7
  -1   1 -13 7051.28 1626.85   5
   1  -1  13 10058.5 1297.20   7
  -1   1  13 9592.13 1553.34   3
  -1   0  13 8833.16 1808.76   2
   0   1  13 8581.36 1506.47   7
   0   1  13 10008.6 1343.62   3
   0   1  13 7204.88 1457.01   2
   1   0  14 50871.4 4237.42   2
  -1   1  14 48248.9 3506.94   3
   1  -1  14 48544.3 3266.10   6
   0   1  14 48887.9 3606.70   7
   1  -1  14 47187.1 4269.45   2
   0   1  14 48521.4 3792.14   2
   0  -1  14 39112.0 3870.03   2
   0   1 -14 45634.8 4206.79   5
   1   0 -14 46017.1 4219.62   5
  -1   1  14 48655.8 3305.80   7
  -1   1  14 51539.3 3961.96   2
  -1   1 -14 50103.8 4273.32   5
  -1   0 -14 41259.1 3994.27   9
   1   0  14 52649.7 3622.95   7
  -1   0  14 46163.8 3521.72   3
  -1   0  14 42462.8 3890.15   2
   0  -1  14 48578.9 3311.42   3
   1   0 -15 2372.99 1127.73   5
   0   1  15 1691.92 911.268   2
   1  -1  15 1487.37 899.127   2
  -1   0  15 2260.58 834.370   3
  -1   0  15 2631.07 1076.18   2
   1   0  15 3280.97 1323.68   2
  -1   1 -15 1616.30 948.062   5
  -1   1  15 2657.19 1047.21   2
  -1   1  15 3335.64 1045.57   3
   0  -1  15 3173.27 1222.44   2
   0   1 -15 4805.15 1495.33   5
   0   1  15 3846.49 1060.93   7
   1   0 -16 10852.1 2159.32   5
  -1   1 -16 16903.2 2668.12   5
   1  -1  16 9736.03 2089.91   2
   0  -1  16 14469.8 2494.47   2
   1   0  16 12026.2 2194.80   2
   0   1  16 11526.4 1918.56   2
   0   1 -16 11875.4 2381.23   5
   1   0 -17 13504.9 2445.32   5
   1  -1  17 13527.1 2431.57   2
   0   1 -17 14959.6 2523.21   5
   1   0  17 14194.4 2378.05   2
   0  -1  17 12812.6 2399.41   2
   1   0  18 973.518 831.720   2
   2  -1   0 613388. 15393.7   6
   1   1   0 719812. 15543.7   6
  -1   2   0 720327. 15188.5   7
   1  -2   0 721808. 15313.3   1
   1  -2   0 720971. 13478.1   9
  -1  -1   0 722905. 15022.3   3
  -2   1   1 61992.2 3032.29   6
   1  -2  -1 65535.8 2858.01   1
  -1   2   1 60520.8 2852.98   7
   1  -2  -1 62789.8 2239.11   2
   2  -1   1 65420.7 2954.34   1
   1  -2   1 60528.1 2239.51   9
  -1   2  -1 56127.6 2329.37   7
  -1  -1  -1 56366.1 2276.87   3
   1   1   1 61160.1 2827.47   6
   1  -2   1 66039.8 2739.57   7
   2  -1  -1 61859.2 2686.35   6
   2  -1  -1 68563.9 3775.52   1
   2  -1   1 65667.9 3236.75   6
  -2   1   1 60677.6 2572.45   7
   1   1   1 64390.1 2628.63   3
  -2   1   1 58538.7 1589.34   5
  -1  -1   1 57089.8 2629.31   3
   2  -1  -1 57273.3 2003.63   4
   1   1  -1 56820.9 2144.18   4
   1  -2   1 63312.7 2610.41   1
  -2   1  -1 55878.7 3089.54   1
  -1   2  -1 53404.8 2420.46   4
  -1   2   1 57039.3 2438.76   4
   2  -1  -1 59096.1 1777.64   5
   1   1  -1 52768.0 2642.89   6
   2  -1  -2 520791. 11714.5   6
   1   1  -2 587279. 12133.5   2
  -2   1   2 538848. 12021.1   7
  -1   2   2 517009. 12826.3   7
   1   1  -2 540590. 12305.4   6
  -1   2   2 575576. 11935.4   4
  -1   2  -2 581769. 11837.4   3
   2  -1  -2 503184. 14647.5   1
   1  -2   2 537113. 11885.6   7
   1   1   2 462934. 10896.1   8
  -1   2  -2 593775. 12125.6   4
   1  -2   2 549774. 11896.3   3
   2  -1  -2 562095. 11937.3   7
  -1  -1   2 524936. 12555.7   3
   1  -2  -2 543675. 12507.8   1
  -2   1   2 523484. 11206.9   5
   2  -1   2 492192. 13214.8   6
   2  -1   2 516250. 10816.6   5
   1  -2   2 446119. 12096.5   9
   1   1   2 514910. 12404.3   6
  -1   2  -2 512661. 12411.2   9
  -1  -1   2 478570. 10944.2   8
   1   1   2 523132. 11721.5   3
  -1   2  -2 555142. 11426.2   7
  -1  -1  -2 561696. 11335.2   3
  -1  -1  -2 533457. 12108.6   6
  -2   1   2 464683. 12283.8   6
   2  -1  -2 592067. 10716.2   4
   2  -1   3 45141.8 3009.46   6
   1   1  -3 36842.2 2157.79   6
   2  -1  -3 38327.2 1218.22   4
   1  -2   3 37762.2 1990.33   3
   2  -1  -3 41967.9 2512.02   5
  -1   2  -3 36249.5 1836.30   3
   2  -1  -3 36609.2 1755.75   6
   1   1  -3 36586.7 1552.17   4
   1   1  -3 41254.9 2186.09   2
  -2   1   3 41324.3 2278.66   6
   2  -1   3 41257.8 2051.07   5
  -1   2   3 37442.1 2613.54   7
  -1   2  -3 36655.2 1847.17   5
  -2   1   3 41937.0 2195.45   5
  -1   2   3 35976.1 1970.88   4
  -1  -1   3 43588.3 2662.83   3
  -1   2   3 38233.8 1304.01   9
   1  -2   3 38123.9 2661.39   9
  -1  -1   3 42764.2 2460.70   6
  -2   1  -3 39763.8 1802.50   5
  -1  -1  -3 39874.6 2098.75   6
  -1  -1  -3 36375.8 1574.71   3
   1  -2  -3 36142.7 2300.69   1
  -1   2  -3 37377.6 1623.23   7
   1   1   3 40375.6 2331.35   6
  -1   2  -3 42467.8 2870.48   9
   1   1  -3 37831.9 1976.33   5
   2  -1  -3 39802.6 1991.72   7
   1   1   3 38116.9 2034.94   8
   1   1   3 40386.6 1875.77   3
  -2   1  -3 42380.6 1894.12   1
   1  -2   3 41158.9 1945.48   7
  -2   1   3 37847.9 2078.53   7
  -1  -1   3 37580.4 2068.29   8
   2  -1  -3 45066.5 3437.11   1
   1  -2  -4 287243. 6568.01   6
   1   1  -4 288224. 6631.36   4
  -1   2  -4 297403. 9655.55   9
   2  -1  -4 295166. 9973.10   1
  -1  -1   4 304605. 8552.50   8
   1  -2  -4 287996. 8394.16   1
  -1  -1  -4 306361. 7518.84   9
  -2   1  -4 291739. 6276.93   1
  -1  -1   4 301855. 9004.91   3
   1   1  -4 297526. 6208.32   7
   2  -1  -4 294046. 8978.60   5
  -1   2  -4 282843. 6590.59   7
   2  -1  -4 280270. 7398.33   7
  -2   1   4 293767. 8546.20   5
   1  -2   4 294542. 7625.05   3
  -2   1   4 284031. 7708.89   6
  -1   2  -4 290123. 7525.18   5
   1  -2   4 271018. 9266.57   9
  -1  -1  -4 296427. 7681.02   6
   1   1   4 287442. 7029.70   3
   1   1   4 295087. 8183.78   6
   1   1   4 276834. 8276.96   8
  -1   2  -4 290804. 7331.52   3
   1   1  -4 289263. 7723.82   5
   1  -2   4 297209. 7152.85   7
   1   1  -4 295134. 8166.77   2
  -2   1   4 301096. 7843.86   7
  -1   2   4 293570. 9249.11   7
  -1  -1   4 285520. 8387.28   6
  -1   2   4 296319. 7032.46   9
  -1   2   4 294908. 7696.92   4
  -2   1  -4 288316. 6055.56   3
  -2   1   4 305799. 10111.3   3
   2  -1   4 295639. 9623.12   6
  -2   1  -4 288792. 7811.32   5
   2  -1   4 296293. 8422.33   5
  -1  -1   4 293376. 6791.95   4
   2  -1  -4 296147. 6890.52   6
   1  -2  -5 573464. 14210.5   1
   1  -2  -5 565976. 11484.7   6
   2  -1  -5 579012. 13055.2   2
  -1   2   5 562511. 15384.3   7
   1  -2  -5 594920. 13537.2   8
  -1   2  -5 596881. 13457.7   5
  -2   1   5 575510. 16222.0   3
  -1   2   5 545378. 13105.2   9
  -1  -1  -5 586630. 12533.9   1
   2  -1  -5 588102. 13014.9   7
   1   1  -5 572509. 11129.0   7
   2  -1   5 524145. 14229.7   5
  -2   1  -5 552914. 14054.3   5
  -1  -1   5 585324. 15239.6   3
  -1  -1   5 590919. 12199.0   4
  -2   1   5 570494. 13431.2   7
  -1   2   5 575719. 14680.6   1
  -1  -1   5 580818. 14741.6   8
  -2   1   5 566357. 11192.6   4
   1   1   5 551537. 12221.3   3
   2  -1   5 585703. 15995.5   6
   1   1  -5 567414. 13590.7   5
   1  -2   5 555493. 12289.8   7
  -1  -1  -5 586958. 13145.1   6
   1   1   5 528700. 13610.8   6
  -2   1   5 583445. 15177.2   5
   2  -1  -5 536043. 15556.9   1
  -1   2  -5 548173. 15374.6   9
   1  -2   5 495355. 14960.3   9
   1   1   5 569815. 14695.2   8
   2  -1  -5 537692. 14639.0   5
  -2   1   5 566676. 12950.2   6
   1  -2   5 564381. 13142.5   3
   2  -1  -5 581108. 11991.6   6
   1  -2   5 600985. 13884.7   4
  -1  -1   5 568862. 14214.3   6
  -1   2  -5 579063. 12812.5   3
   1   1  -6 10486.7 1380.34   5
  -1   2  -6 14208.4 2064.11   9
   1   1   6 13702.0 1005.42   3
  -1  -1   6 14046.3 2026.50   3
  -1  -1   6 12576.2 1529.91   6
   2  -1  -6 9944.64 1714.58   1
  -1  -1  -6 13990.4 1285.86   6
  -1   2  -6 12208.6 1165.74   3
   2  -1   6 12374.7 1777.47   6
   1  -2  -6 11352.4 1440.30   8
  -2   1  -6 13980.2 1761.30   5
  -2   1   6 12674.3 1958.35   3
   2  -1  -6 10841.2 1107.64   7
  -2   1   6 11015.8 1327.29   7
  -1  -1   6 13768.4 1674.88   8
   2  -1   6 11531.2 1582.55   5
   1  -2   6 13179.8 1012.32   7
   1   1   6 9562.86 1411.24   8
   1  -2   6 11167.7 1279.65   3
  -2   1   6 11580.9 668.328   4
   1  -2  -6 11040.9 1503.83   1
   2  -1  -6 11881.1 800.631   6
  -1   2   6 11381.2 1893.84   7
  -2   1   6 13404.8 1181.22   6
  -1  -1  -6 11473.3 1046.54   1
  -1  -1   6 9470.81 884.397   4
   2  -1  -6 13018.5 1263.54   2
  -1   2  -6 12705.9 1444.19   5
  -2   1   6 12050.2 1699.39   5
  -1   2   6 13608.4 1534.34   9
   2  -1  -6 11268.8 1408.86   8
   2  -1  -6 13098.2 1799.88   5
   1   1   6 11313.1 1379.02   6
   1  -2  -6 11018.4 565.320   6
   2  -1   7 418853. 12577.1   6
   1  -2   7 410282. 10734.3   3
  -2   1  -7 426318. 12201.7   5
   1  -2   7 405679. 9384.43   7
   1   1   7 410917. 9435.76   3
  -1  -1  -7 428340. 10458.1   6
   2  -1  -7 409152. 12392.0   5
  -1  -1   7 419907. 13121.6   3
   1   1   7 419400. 13033.4   7
   1   1  -7 424799. 11772.1   5
   1  -2  -7 397476. 11526.2   8
  -2   1   7 450122. 9593.84   6
  -1   2  -7 426702. 10439.1   3
  -1  -1  -7 413303. 9915.34   1
  -1  -1   7 414086. 9763.87   4
  -1   2   7 412793. 11491.0   9
  -1   2  -7 415097. 11505.7   5
   2  -1  -7 395336. 11661.1   8
  -1   2  -7 405514. 12892.7   9
  -1  -1   7 403155. 12425.8   2
  -1  -1  -7 404352. 11214.6   9
   2  -1  -7 423203. 10493.6   7
  -1   2   7 404887. 12873.4   7
  -1  -1   7 417863. 11884.6   6
   1   1   7 398887. 11188.5   6
  -1   2   7 400603. 9807.69   2
  -2   1  -7 419473. 12066.0   9
   1  -2  -7 397446. 11776.2   1
  -2   1   7 413796. 8864.34   4
  -2   1   7 425373. 13057.6   3
  -2   1   7 406732. 11076.6   7
   1  -2   7 380310. 12956.7   2
  -2   1  -8 145439. 6247.27   5
  -1   2  -8 144426. 6083.78   5
   2  -1  -8 126270. 6023.76   8
  -1   2   8 131788. 4850.87   2
  -1  -1  -8 129205. 5758.07   9
  -1   2  -8 145464. 5106.43   3
   1  -2   8 137942. 6867.47   2
   2  -1  -8 140697. 6491.34   5
   1   1   8 132783. 6544.70   7
  -1   2   8 139137. 6537.17   7
  -1  -1  -8 128412. 4580.94   1
  -2   1   8 138315. 5609.63   7
   1  -2  -8 142088. 6174.48   1
   1  -2  -8 140770. 6169.68   8
   1   1   8 138931. 5676.29   6
  -2   1   8 132045. 6530.63   3
  -1  -1  -8 144049. 5004.10   6
   2  -1   8 142091. 6373.18   6
  -2   1  -8 149802. 6582.84   9
  -2   1   8 139447. 3745.74   6
   1  -2   8 136032. 5304.71   3
  -1   2   8 129751. 5632.84   9
   1   1   8 145791. 4272.58   3
  -1  -1   8 141058. 5937.81   6
   1  -2   8 139578. 4147.95   7
  -1  -1   8 138041. 6794.16   2
  -1  -1   8 134733. 4596.56   4
   1   1  -8 139241. 6175.55   5
  -1  -1   8 128522. 6498.13   3
  -1   2   9 375037. 10415.9   2
   1   1   9 363774. 8859.12   3
  -1  -1   9 356370. 11924.0   3
  -2   1   9 355571. 10917.2   7
  -1   2   9 359397. 11735.9   7
  -1  -1  -9 375814. 11786.3   9
  -1  -1   9 351635. 12813.0   2
   1  -2   9 369140. 12679.8   2
   1   1   9 364965. 12111.4   7
  -1  -1   9 359564. 9648.70   4
  -1  -1  -9 376847. 9621.72   1
   1   1  -9 356762. 11882.1   5
   2  -1  -9 364908. 11981.1   5
   2  -1  -9 363349. 12076.9   8
  -2   1   9 379965. 12181.2   3
  -1   2  -9 378830. 11910.5   5
   1   1   9 378383. 10555.9   6
   1  -2   9 369387. 10630.8   3
  -2   1  -9 373190. 11630.7   5
   1  -2  -9 353694. 11874.0   8
  -2   1  -9 366976. 12383.0   9
   1  -2  -9 341523. 11363.8   1
   1  -2   9 378475. 8712.83   7
   2  -1   9 369262. 11503.1   6
   1   1  10 238434. 6519.79   3
  -1   2 -10 255960. 9789.55   5
   1   1  10 259514. 7873.43   6
  -1  -1  10 245472. 7646.90   4
   1  -2  10 246388. 6106.72   7
   1  -2  10 237943. 9823.24   2
   1  -2 -10 248450. 9302.63   1
  -2   1  10 235918. 9252.38   3
   2  -1 -10 243366. 9454.44   5
  -1   2  10 235165. 7945.79   2
   1  -2 -10 250992. 9888.80   8
  -1  -1 -10 235094. 9462.33   9
   1  -2  10 241744. 8259.91   3
  -2   1 -10 243318. 9107.19   5
  -1  -1  10 225467. 9037.28   3
  -1   2  10 239459. 9051.38   7
  -1  -1 -10 244968. 7338.80   1
  -2   1  10 234121. 8373.60   7
   1  -2  10 237365. 6971.18   1
  -2   1 -10 250004. 10236.8   9
   1   1  10 241171. 9378.71   7
   2  -1  10 231199. 8665.22   6
   1   1 -10 232635. 9613.22   5
   1  -2  10 246311. 6215.23   7
  -1  -1  10 238851. 10339.1   2
   2  -1 -10 224965. 9599.33   8
   1   1  10 236343. 6581.98   3
   2  -1  11 28662.7 2731.40   6
   1   1  11 27247.9 2113.39   6
   1  -2  11 28322.4 2426.89   3
  -1  -1 -11 27306.5 3228.09   9
  -1   2  11 26143.0 2768.79   7
  -1   2  11 32952.9 3056.48   3
  -2   1 -11 28801.1 3504.37   9
   1   1  11 27928.2 1636.11   3
   1  -2  11 28373.0 3228.74   2
   1  -2 -11 29246.9 3304.25   8
   2  -1 -11 30294.5 3105.02   5
  -1   2  11 27422.8 2425.78   2
  -1  -1  11 33628.4 3582.64   2
  -1  -1  11 27669.9 2871.30   3
  -2   1  11 32666.9 2687.33   7
   1  -2 -11 26888.7 2793.35   1
  -2   1 -11 31296.1 3051.53   5
  -1   2 -11 33155.7 3469.69   5
   1   1  11 29958.6 2978.13   7
  -1  -1 -11 30694.9 2274.69   1
  -2   1  11 31024.2 3046.42   3
   1  -2  11 30562.6 1426.85   7
   1   1 -11 27392.5 3288.53   5
   2  -1 -11 30229.6 3411.40   8
  -1   2  12 131918. 6519.91   3
  -2   1 -12 125754. 6511.02   5
  -1  -1 -12 130581. 4821.85   1
  -1  -1  12 122488. 6312.83   3
  -2   1  12 119961. 6354.29   3
   1   1 -12 116570. 7082.92   5
  -1   2  12 124503. 5568.85   2
  -1  -1 -12 120201. 6865.06   9
  -2   1  12 126715. 5564.99   7
  -2   1 -12 127358. 7490.60   9
   1   1  12 128846. 4894.96   6
  -1   2 -12 130658. 7143.98   5
  -1   2  12 124753. 6262.94   7
   2  -1 -12 121575. 6761.93   5
  -1  -1  12 130516. 7253.67   2
   1   1  12 118828. 6380.02   7
   2  -1  12 123390. 5958.32   6
   1  -2 -12 125013. 7041.52   8
   1  -2  12 116971. 5260.05   3
   1   1  12 121915. 6391.99   2
   1  -2 -12 124813. 6331.03   1
   2  -1 -12 128488. 7254.15   8
   1  -2  12 117071. 6910.28   2
  -1   2 -13 37.3858 992.200   5
   1  -2  13 337.394 826.109   2
   1  -2 -13 80.8022 826.592   8
   2  -1  13 1408.87 732.366   7
  -1   2  13-758.407 662.883   3
  -1  -1  13 798.528 665.588   3
   1   1  13 890.568 705.098   7
  -2   1  13 439.327 483.528   7
   1   1  13 360.394 528.594   2
  -1  -1  13 597.765 1023.25   2
  -2   1 -13 91.3597 996.616   9
  -1   2  13 1714.88 790.311   2
   2  -1  13 122.097 499.997   6
  -1   2  13 1637.90 863.758   7
   1  -2  13 635.512 536.304   3
   2  -1 -13 796.600 684.624   5
   2  -1  13-1079.59 1381.84   2
   1   1 -13-862.490 1170.12   5
  -2   1  13 390.911 781.999   3
  -1  -1 -13 902.807 1067.76   9
   1  -2 -13-322.173 638.830   1
   2  -1 -13-192.846 730.160   8
  -2   1  14 91676.0 5610.64   3
  -1   2 -14 94811.9 6292.85   5
  -1  -1  14 91949.5 5449.27   3
  -1   2  14 90414.4 5355.32   7
   1   1 -14 82949.7 6143.04   5
   1  -2 -14 99940.3 5478.90   1
  -1  -1 -14 89648.9 6061.46   9
   2  -1 -14 101370. 6354.66   5
   2  -1  14 96860.9 6515.50   2
  -1   2  14 93184.7 5327.01   3
   2  -1  14 95534.9 5295.25   7
   1   1  14 91978.2 5592.46   7
   1   1  14 97418.2 5702.28   2
  -2   1 -14 83856.3 6309.85   9
   2  -1  14 99676.1 5218.97   6
   1  -2  14 83892.4 5124.75   6
   1  -2  14 96313.6 6456.90   2
   2  -1  15 52297.3 4811.90   2
   1   1 -15 53797.4 4914.44   5
  -2   1  15 47331.4 3978.76   3
  -1  -1 -15 46711.0 4416.72   9
  -1   2 -15 47139.9 4475.93   5
  -1  -1  15 56251.9 4133.19   3
   1  -2  15 44720.6 4470.04   2
  -2   1 -15 53573.5 4988.93   9
  -1   2  15 51331.9 3981.89   7
   1   1  15 52320.4 4167.38   7
   1   1  15 44717.0 3872.94   2
   1   1  16 30511.8 3216.98   2
  -2   1  16 33336.3 3339.15   3
   2  -1  16 35617.4 4033.75   2
   1   1 -16 30002.1 3746.77   5
   1  -2  16 30029.1 3708.16   2
  -2   1 -16 30363.8 3827.15   9
  -1   2 -16 33737.9 3797.79   5
   1  -2  17 51860.4 4933.33   2
  -1   2 -17 63640.3 5334.24   5
   2  -1  17 53340.0 5002.52   2
   0   2   0 78466.8 2818.01   2
  -2   2   0 70350.2 2823.32   4
  -2   0   0 70612.3 3300.84   3
   0  -2   0 66153.5 2812.57   3
  -2   2   0 72934.9 2283.60   9
   0   2   0 66174.4 2802.40   4
   2  -2   0 75300.9 3802.76   1
   2  -2   0 67921.9 2729.59   4
  -2   2   0 66907.9 2931.72   7
  -2   2   0 75313.9 3254.75   1
   2   0   0 70930.8 3230.79   6
   0   2   0 72455.2 3521.04   7
  -2   2   1 607.200 312.498   4
  -2   0  -1 791.284 444.776   3
  -2   2  -1 655.722 435.272   7
   2  -2  -1 267.960 252.849   4
   0   2   1 693.037 296.987   2
   0   2   1 365.020 792.724   7
   2   0  -1 533.175 454.090   6
   2   0   1 68.8341 466.768   3
  -2   2  -1 764.490 345.993   1
   0   2  -1 237.700 476.894   7
   0   2   1 231.070 439.327   4
   2   0   1 876.966 568.447   6
   2   0  -1 1008.11 756.007   3
   2  -2   1 320.540 564.686   1
   0   2  -1 250.311 363.633   4
   0  -2  -1 1091.18 435.166   6
   2  -2  -1 602.252 771.759   1
  -2   2   1 825.971 489.512   7
  -2   0   1 1347.44 711.581   3
   0  -2   1 54.4533 401.190   3
   0   2  -1 345.892 309.716   2
   0  -2  -1 463.914 374.328   3
  -2   2  -1 2601.41 464.567   9
   2   0   2 194063. 6802.84   3
   0   2   2 222666. 6142.55   3
   2  -2   2 217136. 6786.45   1
   0   2  -2 226604. 6890.29   2
   0  -2  -2 219133. 6054.88   6
   0  -2   2 232479. 6107.54   4
   2  -2  -2 206108. 7600.16   1
   2   0  -2 216996. 5559.97   5
  -2   2   2 216148. 6523.44   7
  -2   2  -2 204037. 5892.10   7
   0  -2   2 222276. 6371.65   3
  -2   0  -2 216710. 5672.47   3
   0   2  -2 209439. 6003.94   4
  -2   0   2 230437. 6781.94   6
   2  -2  -2 210511. 6424.40   6
   2  -2   2 216838. 6281.68   7
  -2   2  -2 219900. 5727.92   1
   2  -2  -2 220345. 5648.72   4
  -2   0   2 210206. 7703.24   3
   0  -2   2 210077. 6130.89   2
   2   0   2 225226. 6972.94   6
  -2   2  -2 220175. 5177.23   5
  -2   2   2 215875. 5737.84   4
   0   2   2 203509. 7858.33   7
   2   0  -2 217964. 6308.18   6
  -2   2  -2 224725. 5949.26   9
   2   0  -2 224751. 5908.99   7
   0   2  -2 216067. 5814.11   7
   2  -2   3 60441.0 2803.48   7
  -2   0  -3 60838.6 2085.98   3
  -2   0   3 64998.8 4209.32   3
   0  -2  -3 57481.1 2504.44   6
   0   2  -3 57819.7 2584.61   4
   2   0  -3 61826.3 2510.69   8
  -2   2  -3 61715.6 2876.85   9
   2  -2  -3 68478.0 4037.64   1
   0   2   3 61260.4 4292.47   7
   2   0  -3 59222.4 2424.59   7
  -2   2   3 60168.6 2623.78   5
  -2   2  -3 64596.3 2393.83   5
   0   2   3 63292.2 2774.92   3
   2   0   3 64770.2 3417.35   6
   2  -2   3 58101.9 2530.84   9
  -2   2   3 62029.0 3152.77   7
   0  -2   3 64031.6 3012.33   3
   2   0  -3 56705.3 1554.60   4
   0  -2  -3 59762.9 2081.77   9
   0  -2   3 60615.3 2637.26   4
   0  -2   3 62846.8 3130.46   2
  -2   2  -3 56335.8 2513.51   7
   2   0  -3 64361.7 2665.88   5
   2   0  -3 57958.4 2711.52   6
   0   2  -3 60636.7 2146.72   7
   2   0   3 63433.1 2968.77   3
   2  -2  -3 59880.7 2374.98   4
   0   2   3 62584.3 3071.40   6
  -2   0   3 67703.3 3189.09   6
   0  -2  -3 61191.7 2434.05   8
   0   2  -3 69070.0 3626.14   2
   2  -2  -3 64181.7 2689.08   6
   0  -2  -3 55891.6 2723.93   1
  -2   2  -3 59698.5 2363.62   3
  -2   2   3 61935.2 2477.25   4
   2  -2   3 64237.4 3069.65   1
   2  -2  -4 96016.2 5097.31   1
   0  -2  -4 95078.1 3130.77   9
   2   0   4 99200.6 4531.63   6
   0  -2  -4 95169.8 3303.34   6
   2  -2  -4 89268.2 3053.41   6
   0  -2   4 89353.7 4104.99   9
   0   2   4 97539.4 3719.76   3
  -2   2  -4 96758.2 4164.13   9
   0  -2   4 87621.6 3927.71   3
   0   2  -4 93128.5 3680.52   5
   0   2  -4 89492.9 3390.52   4
   2   0   4 101686. 3315.61   3
   2   0  -4 96514.6 3832.29   5
   0   2  -4 101255. 4894.40   2
  -2   2  -4 100455. 3563.98   5
   0  -2  -4 97884.0 3664.01   8
   2  -2   4 100156. 3858.49   1
   2   0  -4 92185.3 3122.04   7
   0   2   4 102668. 5621.25   7
   0  -2   4 93907.9 3558.99   4
   2   0  -4 100067. 3777.59   8
  -2   0  -4 90779.9 2436.44   3
   2   0  -4 92471.4 3515.61   6
   0   2  -4 90338.1 2508.16   7
  -2   0   4 94096.0 3450.48   5
   0  -2  -4 88466.1 3634.43   1
  -2   0   4 105077. 5836.91   3
   0   2   4 92992.8 3883.04   6
  -2   2   4 96295.9 3878.00   5
  -2   2  -4 94198.7 3038.57   3
   2   0   4 93269.1 3518.58   5
  -2   2   4 96830.0 4296.00   7
   2  -2   4 100209. 3827.49   7
  -2   0   4 101865. 4119.72   6
  -2   2   4 93781.3 3223.79   4
   2  -2   4 94369.4 3720.88   9
   0   2   5 312702. 10874.3   7
   2  -2  -5 326445. 7055.68   6
   0   2   5 302125. 8614.96   6
   0  -2   5 301131. 9094.66   3
   0  -2  -5 320032. 7830.01   6
   0  -2  -5 319936. 8201.59   9
  -2   0   5 320558. 11252.9   3
  -2   2  -5 325351. 9736.52   9
   2  -2  -5 329279. 10866.1   1
   0   2   5 332629. 8629.45   3
   2   0  -5 321551. 9231.57   5
   2  -2   5 325412. 8342.67   5
  -2   2  -5 332152. 7525.54   3
  -2   0   5 316506. 8576.77   5
   0   2  -5 330565. 8873.03   5
   0  -2   5 308120. 10123.1   2
   2   0   5 305076. 8685.35   5
   0  -2   5 321024. 8489.85   4
   2  -2  -5 321650. 7632.39   2
  -2   2   5 322399. 7909.16   4
   2   0  -5 309797. 7589.68   7
   2  -2   5 333837. 8773.64   7
  -2   2   5 324565. 9679.12   7
   0  -2  -5 330429. 8762.09   1
  -2   2   5 322058. 9336.24   5
  -2   2  -5 322013. 8778.08   5
   2   0  -5 316591. 8165.34   6
   0  -2  -5 323230. 8992.00   8
   2   0   5 317622. 9887.92   6
  -2   0   5 331703. 9055.70   6
   2  -2   5 321308. 8031.38   1
   2  -2   6 143699. 5045.18   7
   0  -2  -6 132487. 4087.58   6
   2   0  -6 139496. 5734.13   5
  -2   0   6 138120. 5149.44   6
   2  -2  -6 132652. 4300.12   2
   2  -2  -6 130132. 2978.45   6
  -2   0   6 128091. 6577.30   3
  -2   2   6 132674. 5805.48   7
   2   0  -6 124746. 4345.07   6
   0   2   6 127707. 6330.26   7
  -2   2   6 137437. 5092.85   9
   0   2   6 125930. 4759.72   6
   0  -2  -6 134093. 4976.23   9
  -2   2  -6 128545. 3846.08   3
   2   0   6 136117. 5967.01   6
   0  -2  -6 137748. 5602.02   8
   0  -2   6 136324. 5499.13   3
  -2   0  -6 135597. 3514.38   1
   2  -2   6 136018. 3792.29   1
   0  -2  -6 131356. 4894.00   1
   0   2   6 137498. 4891.89   3
  -2   2   6 130491. 4320.25   4
   2  -2  -6 145009. 6760.03   1
  -2   0  -6 134367. 5167.64   9
   0  -2   6 130542. 4782.16   4
   0  -2   6 135572. 6551.01   2
   2   0  -6 130943. 3990.82   7
   0   2  -6 136538. 5208.21   5
  -2   2  -6 137976. 6124.03   9
  -2   2  -6 141930. 5477.38   5
   0  -2  -7 210996. 5661.81   6
   2   0  -7 212207. 5676.63   7
   2   0  -7 206694. 7967.85   5
   2   0   7 221948. 8366.84   6
   0  -2  -7 208199. 6868.49   1
   0  -2   7 201935. 7562.80   3
   2  -2   7 216097. 6915.66   7
  -2   2  -7 212782. 7759.97   5
   2  -2  -7 207851. 6367.58   2
   0  -2  -7 219292. 8043.30   8
   0   2  -7 211188. 7317.50   5
  -2   2   7 208664. 8008.76   7
  -2   2  -7 208004. 5509.88   3
  -2   2   7 214779. 6221.57   4
   2  -2  -7 212705. 8797.44   1
  -2   0   7 220110. 7046.25   6
   0   2   7 199737. 8329.51   7
  -2   2  -7 204472. 8494.65   9
   0  -2   7 200856. 8969.21   2
   2   0  -7 202347. 8001.41   8
   0   2   7 221690. 6645.70   9
   2  -2  -7 213193. 7360.76   8
   0   2   7 228059. 6680.75   6
  -2   0  -7 209748. 7324.99   9
  -2   0  -7 205577. 4925.50   1
  -2   0   7 193289. 8425.73   3
  -2   2   7 212854. 7426.74   9
   0  -2  -8 95867.7 3289.33   6
   2   0   8 98295.1 5232.14   6
  -2   0   8 102399. 4486.79   6
   2  -2   8 105589. 4558.49   7
  -2   0   8 94624.9 5536.19   3
  -2   2  -8 99015.8 3349.94   3
   2  -2  -8 93793.0 4235.02   2
   2   0  -8 99521.1 5548.07   5
  -2   2   8 99384.9 5437.11   7
   0  -2  -8 92489.2 4954.83   9
   0   2  -8 93272.5 4778.49   5
  -2   0   8 96551.9 3734.72   7
  -2   2  -8 107413. 6163.06   9
   2  -2  -8 104318. 5849.26   1
  -2   0  -8 90815.2 2669.74   1
   0  -2   8 91143.5 5903.22   2
   0  -2  -8 93035.0 5348.77   8
   0  -2   8 93490.8 5037.73   3
   0  -2  -8 90251.5 4306.16   1
   2   0  -8 93630.0 3340.48   7
  -2   2   8 92216.5 3866.46   4
   0   2   8 92511.2 5337.34   7
   0   2   8 96160.0 4124.86   2
   2  -2  -8 98635.6 4981.60   8
  -2   2  -8 101428. 5251.31   5
   2   0  -8 104331. 5742.55   8
   0   2   8 100139. 3821.73   6
  -2   0  -8 92339.7 4823.63   9
   0   2   9 11996.4 1106.98   6
  -2   0  -9 13095.1 1893.76   9
  -2   0   9 13023.9 1459.24   6
  -2   2  -9 11317.2 1033.94   3
   2  -2   9 13100.8 2071.98   6
  -2   2  -9 9350.51 1954.47   9
   2   0   9 12006.2 1720.76   6
   0  -2   9 11356.0 2127.91   2
   0  -2  -9 9360.98 1565.50   9
   0  -2  -9 10957.4 1860.93   8
   0   2   9 11097.9 1362.88   2
  -2   2   9 10828.6 1322.86   4
  -2   2  -9 12171.8 1806.97   5
   2  -2  -9 11844.5 1966.65   1
   2  -2   9 13240.3 1629.50   7
   2   0  -9 11286.0 1094.61   7
  -2   2   9 9596.31 1748.99   7
   0   2   9 12866.2 2013.43   7
   2   0  -9 12365.9 2007.40   5
   2   0  -9 15357.0 2217.12   8
  -2   0   9 12828.2 1282.31   7
   0  -2   9 12502.0 1946.31   3
   2  -2  -9 13391.6 1957.98   8
  -2   0   9 11575.9 728.903   4
   0  -2  -9 11622.9 1556.36   1
   0   2  -9 11856.3 1827.19   5
   0  -2  -9 12942.6 1052.47   6
  -2   0   9 12726.4 1993.23   3
  -2   2  10 23673.7 2813.02   3
  -2   2 -10 26826.0 1747.42   3
   2  -2 -10 27146.0 2927.23   1
  -2   0  10 24254.5 1817.82   7
  -2   0  10 27481.0 2048.54   6
   0   2  10 27942.9 1564.46   6
  -2   2 -10 29784.3 3308.47   9
  -2   2 -10 27158.3 2741.99   5
   0  -2 -10 24696.1 2577.83   9
  -2   0 -10 28752.1 3085.21   9
   0   2  10 31090.6 3053.01   7
  -2   2  10 26999.4 2807.35   7
   2   0 -10 25574.1 2860.56   8
  -2   0  10 26504.2 2881.64   3
   0  -2  10 28591.1 2855.76   3
   0  -2 -10 26599.9 2895.90   8
   0   2 -10 24356.6 2743.55   5
   2   0 -10 29288.1 1837.73   7
   2  -2  10 27637.2 2863.89   6
   0   2  10 23831.1 2117.99   2
   0  -2 -10 24043.8 2373.28   1
   2  -2 -10 24135.8 2780.64   8
  -2   0  10 27734.4 1403.16   4
   0  -2  10 22917.5 2933.76   2
   2   0  10 30567.2 2717.03   6
   2   0 -10 26178.6 2970.76   5
   0  -2 -11 3117.55 1001.22   9
  -2   2 -11 6670.77 1768.81   9
   2  -2  11 3243.09 1094.87   6
   2   0  11 3462.46 1060.03   6
   0  -2  11 1723.05 1122.58   2
   0  -2 -11 4296.75 1012.89   1
   0   2  11 4262.32 905.236   2
  -2   2 -11 3667.86 1263.37   5
   2  -2 -11 3392.21 1216.13   1
  -2   0  11 4021.26 1269.09   3
  -2   0 -11 1784.58 1124.57   9
   0   2 -11 1490.47 848.664   5
  -2   2  11 2058.02 1070.14   3
   0  -2  11 4253.52 1204.55   3
   2   0 -11 5556.69 1611.84   5
   0   2  11 3932.59 1261.94   7
  -2   2  11 5954.13 1470.55   7
  -2   0  11 4832.81 740.002   7
   2  -2 -11 2849.93 1200.15   8
   2  -2  11 4740.23 1518.06   2
   2   0  12 75638.3 4331.57   6
   2   0 -12 71391.7 5284.10   5
  -2   0  12 71570.3 4909.40   3
   2  -2  12 75810.4 4889.55   6
   0  -2  12 69350.6 5286.56   2
  -2   2 -12 80878.1 5680.98   9
   0  -2 -12 77708.0 4898.96   9
   0   2  12 69326.6 4847.56   7
   0  -2  12 71352.5 4605.23   3
   2  -2 -12 80417.3 5846.91   8
   0  -2 -12 77000.9 4636.88   1
   0   2  12 84444.2 4525.05   3
   2  -2  12 72827.8 5493.86   2
   0   2 -12 75041.8 5583.08   5
   2   0  12 77044.3 5305.72   7
   2  -2 -12 79601.6 5160.24   1
  -2   2  12 73197.0 4656.89   7
  -2   0 -12 71683.9 5628.89   9
  -2   2 -12 70722.3 4888.54   5
  -2   2  12 77535.8 5256.24   3
   0   2  12 72024.9 4031.51   2
  -2   2 -13 2018.33 1051.85   5
   2   0  13 278.556 463.309   6
   0   2  13 88.1934 406.658   2
  -2   0  13 1582.14 956.120   3
   0   2  13 770.476 765.098   7
   2   0  13 1068.23 844.908   7
  -2   2 -13 187.167 882.765   9
   0  -2 -13 1015.16 475.591   1
  -2   2  13 1498.63 849.525   3
   2   0 -13 179.473 964.472   5
   2  -2  13 1281.39 1207.39   2
   2  -2  13-424.880 631.281   6
   0   2 -13 466.474 1021.11   5
  -2   0 -13-253.656 1130.17   9
   0  -2  13 1188.04 745.538   3
   2  -2 -13 794.575 1315.30   8
   0  -2  13-60.3915 974.462   2
  -2   2  13 1193.43 867.605   7
  -2   2  14 14350.8 2263.35   3
   0   2  14 14887.7 2243.87   7
   2  -2 -14 14110.5 2682.34   8
   2  -2  14 14798.9 2158.95   6
   0  -2  14 10253.3 2118.09   2
  -2   2 -14 12935.0 2149.66   5
   0   2 -14 10950.2 2339.76   5
   2  -2  14 14179.7 2540.71   2
   2   0 -14 15245.9 2557.89   5
  -2   0 -14 14547.7 2666.55   9
  -2   0  14 10664.2 1904.88   3
   2   0  14 9905.26 1928.03   7
   0  -2  14 13265.1 1901.78   3
   2   0  14 9779.99 2031.86   2
  -2   2  14 11514.5 1821.58   7
  -2   0  15 940.411 732.664   3
  -2   2  15 1868.63 869.482   3
  -2   0 -15 916.338 1372.30   9
   2  -2  15-558.762 969.157   2
   2   0  15 574.202 696.806   7
   0   2 -15 310.920 871.943   5
   0  -2  15 116.888 867.487   2
   2  -2 -15-794.063 1097.60   8
   2   0  15-1216.85 1106.83   2
   0   2  15 101.608 629.994   7
  -2   2 -15 489.165 867.416   5
   2   0 -15 1133.80 1137.20   5
   2   0  16 31862.4 3704.12   2
   2  -2  16 35633.8 4186.88   2
  -2   0 -16 32333.9 3986.63   9
  -2   0  16 29703.4 3234.95   3
  -2   2 -16 34188.1 3687.71   5
   2   0 -16 37777.9 4109.59   5
   0   2 -16 33015.7 3976.22   5
   0   2  16 35850.7 3537.10   7
   0  -2  16 27583.5 3567.80   2
  -2   2 -17 7295.66 1867.91   5
   2   0  17 7543.72 1833.30   2
  -2   0 -17 7948.41 2077.45   9
   1  -3   0 70525.2 2628.82   2
   1   2   0 71075.7 3852.74   6
   1  -3   0 71750.1 2861.76   9
  -3   1   0 75183.1 4577.98   3
   2   1   0 71597.4 3741.37   6
   1   2   0 71870.1 4894.42   7
   1  -3   0 75891.7 3584.68   1
   1  -3   0 80563.5 4359.12   7
  -2  -1   0 70842.3 3354.78   3
   1   2   0 69725.8 3151.16   4
  -1   3   0 69283.7 3480.70   7
  -2   3   0 83033.6 3056.17   9
  -1  -2   0 71829.9 3269.04   3
   3  -2   0 91344.8 5421.16   1
   2  -3   0 77518.8 3882.59   1
  -3   2   0 67946.8 3358.19   7
  -2   3   0 67196.4 3210.85   4
   2   1   0 79004.4 4049.33   3
   3  -1   0 71527.2 2011.03   5
  -1   3   0 69039.3 3276.53   4
   3  -2   0 71420.4 3023.89   4
   3  -1   0 75322.8 3786.24   6
   3  -2   0 74514.8 3977.60   6
  -2   3   0 68157.3 3328.90   7
  -2   3  -1 9784.11 1200.86   4
  -3   2  -1 15548.3 1642.81   1
   1   2   1 13174.3 2257.66   7
   1   2   1 13172.5 1567.60   6
   2  -3   1 11384.7 1449.54   1
   2   1   1 12822.3 1571.64   3
  -3   2   1 14794.2 1530.29   7
   3  -2  -1 12434.6 1486.24   6
  -2  -1  -1 11810.8 1210.19   3
  -1   3  -1 12404.9 1418.60   4
  -2   3  -1 11713.6 1286.37   7
   1  -3   1 11851.1 1228.40   2
   3  -1   1 11193.2 1546.88   6
   3  -1  -1 11698.1 1378.41   6
  -2   3  -1 13866.2 1563.43   9
   2   1  -1 11295.9 1464.86   6
  -3   1  -1 14580.8 2043.12   1
   1   2  -1 13608.0 1677.70   6
   2  -3  -1 12192.5 1587.89   1
   1  -3  -1 10568.8 1359.53   1
   1  -3   1 11903.5 1411.91   9
   3  -2   1 12350.9 1815.57   1
  -1  -2  -1 9580.45 1123.60   3
   2  -3   1 13062.4 1458.73   7
   3  -1  -1 13831.5 1008.51   5
  -1   3  -1 11726.9 1241.93   7
  -1  -2   1 10816.8 1294.40   3
  -3   1  -1 11240.8 1614.42   3
   1   2  -1 11241.0 1170.29   2
   3  -2   1 11141.8 1657.71   6
  -3   2   1 12115.2 666.206   5
   1  -3   1 12708.8 1651.53   7
   1   2  -1 10083.2 1754.82   7
   3  -2  -1 10228.5 1004.01   4
   1   2  -1 11558.2 1167.39   4
  -3   1   1 13723.1 2294.58   3
  -2   3   1 10359.7 1235.45   4
   1   2   1 11951.5 1341.56   3
   3  -2  -1 15530.9 2486.09   1
   2   1   1 10233.2 1447.70   6
  -1   3   1 12308.0 1576.94   7
  -2   3   1 12236.6 1475.65   7
  -1   3   1 11972.5 1360.82   4
  -2  -1   1 9740.50 1309.70   3
  -2   3  -2 118791. 5068.77   9
   3  -2   2 104472. 5529.65   6
  -2   3  -2 101893. 4250.93   4
   1   2  -2 116505. 4381.84   2
  -2   3   2 112646. 4845.34   7
   1   2   2 108385. 6317.53   7
  -2  -1  -2 107131. 3807.49   3
   1  -3   2 102456. 4512.12   2
   1  -3  -2 108416. 4279.46   6
   2   1   2 113782. 4976.27   6
   2   1  -2 101962. 4489.25   6
   1   2   2 110583. 4933.91   6
   2   1   2 114272. 4768.50   3
   1  -3   2 93157.5 4675.83   9
   2  -3   2 102541. 3339.90   9
   2   1  -2 105887. 3476.15   4
   2   1   2 106988. 3553.07   8
   3  -1   2 104204. 5098.63   6
   3  -1  -2 121220. 4248.09   5
   1   2   2 111618. 4400.22   3
   1  -3   2 119747. 5229.30   7
  -3   2   2 116154. 3659.52   5
  -1  -2   2 99820.5 4423.27   3
  -2  -1   2 113677. 4974.28   3
  -3   1  -2 110064. 4593.24   3
  -1  -2   2 116604. 3814.04   8
   1   2  -2 103784. 3807.38   4
  -3   2  -2 114717. 4403.23   1
  -1   3  -2 104642. 4226.60   4
  -1   3  -2 107579. 3880.29   7
   3  -1   2 104069. 3365.36   5
  -3   2  -2 109214. 3932.69   9
   1  -3  -2 110450. 4632.14   1
  -3   1   2 101098. 6132.57   3
   1  -3   2 109769. 4389.28   3
   3  -2  -2 121468. 6812.88   1
   3  -2   2 118335. 5103.01   1
   2  -3  -2 116124. 5209.96   1
   2  -3   2 113407. 4574.71   7
   3  -2  -2 104451. 4318.09   6
  -3   2   2 105960. 4447.69   7
  -2   3  -2 102822. 3964.52   7
   3  -1  -2 108019. 4321.28   6
   1   2  -2 95608.5 4774.84   7
  -1   3   2 105844. 4277.28   4
  -3   1  -2 100363. 5234.87   1
   2  -3   2 113518. 4694.75   1
  -2   3   2 104852. 4139.46   4
  -1  -2  -2 116417. 3753.90   8
   3  -2  -2 102019. 3429.52   4
  -1  -2  -2 102252. 3870.77   3
  -3   1   2 120217. 5266.94   6
  -1   3   2 101992. 4982.69   7
   2   1  -3 293104. 6832.36   4
  -3   1   3 283834. 9108.50   6
   3  -2  -3 277892. 7799.49   6
  -3   1   3 247084. 10454.0   3
   1  -3   3 277205. 8241.29   3
   1   2   3 287951. 8991.47   6
   2   1  -3 283063. 8489.22   6
  -1  -2  -3 287904. 7530.83   3
  -3   2   3 286951. 8254.95   5
   2   1   3 297334. 8594.59   3
  -2   3   3 281836. 7993.26   4
  -2  -1   3 278556. 9361.57   3
  -3   1  -3 271690. 8934.13   1
   2  -3   3 282540. 7479.55   9
  -3   1  -3 277285. 7711.97   3
   1   2   3 287889. 8184.23   3
  -1  -2   3 282407. 8741.90   3
   2   1  -3 281360. 7712.97   5
  -3   2  -3 294378. 7925.19   9
   3  -2  -3 297056. 11251.4   1
  -2   3  -3 282233. 9309.07   9
  -1  -2   3 275414. 7864.12   8
   2  -3   3 286108. 8492.76   1
  -1   3  -3 280313. 8075.19   4
   1  -3   3 295416. 9107.56   7
  -1  -2  -3 288940. 7811.72   8
   3  -1   3 262243. 7470.50   5
  -3   2  -3 290998. 6891.74   5
   1   2   3 268815. 10793.4   7
   1   2  -3 266073. 8179.22   7
   3  -2   3 291452. 8326.83   1
   1  -3  -3 279172. 8557.47   1
   3  -1  -3 277424. 7876.14   6
  -1   3   3 282001. 9752.05   7
  -1   3   3 266429. 8116.24   4
   3  -2  -3 297511. 6865.90   4
   2  -3   3 294367. 8422.36   7
  -2   3   3 283195. 9133.98   7
  -1   3  -3 282099. 7267.98   7
   1   2  -3 289758. 7513.14   4
  -2   3  -3 278047. 7575.38   7
  -3   2   3 287398. 8532.57   7
   2   1   3 292106. 9169.79   6
  -3   2  -3 290617. 7542.40   1
   3  -2   3 271400. 10272.2   6
   2   1   3 278562. 7856.96   8
   3  -1  -3 283225. 8486.08   5
  -2   3  -3 291882. 7452.92   5
  -2  -1  -3 277980. 7142.15   3
   3  -1   3 289402. 9722.08   6
   1  -3  -3 290106. 7780.98   6
   2  -3  -3 284070. 9344.80   1
   3  -1  -3 288011. 6130.05   4
   1  -3   3 264937. 9193.55   9
   1  -3   4 22962.4 2056.26   7
   3  -2  -4 16645.6 1051.78   4
  -1   3  -4 18755.7 1658.96   5
   1  -3  -4 18717.8 1874.71   1
   2  -3  -4 15464.6 677.427   2
   3  -1  -4 16376.1 1448.97   6
   2   1   4 19816.1 2117.60   6
   2   1  -4 17195.9 1223.59   7
   1  -3   4 18152.5 2126.30   9
  -1   3  -4 16297.9 1197.24   7
   1   2   4 18086.7 1917.21   6
   2   1  -4 16658.0 1690.63   6
   2   1  -4 13396.8 1396.82   5
   3  -2   4 22437.0 2883.90   6
  -2   3  -4 15428.7 1308.75   7
   3  -1   4 21985.7 2514.62   6
  -2  -1  -4 16137.5 1514.11   9
   1   2   4 19362.9 2674.41   7
  -1   3   4 17627.0 1798.82   4
  -2  -1  -4 16296.1 1157.34   3
  -1  -2   4 18764.6 2013.63   3
   1   2   4 19318.2 1663.61   3
  -3   2  -4 20028.1 1597.46   5
   1   2  -4 17916.0 1697.76   5
   1  -3   4 16184.8 2177.88   2
  -3   1   4 18322.4 1337.49   5
  -3   1  -4 20295.0 1784.25   1
   1   2  -4 15229.4 1270.72   4
  -1   3  -4 14750.4 1514.33   4
  -2   3   4 18669.6 1034.15   9
  -3   2  -4 17245.6 1612.59   9
  -2  -1   4 19633.6 2356.46   3
  -2   3   4 17052.6 1567.81   4
   3  -2  -4 17047.3 1368.00   6
  -1  -2   4 18185.1 1703.94   8
  -1   3   4 17348.2 2345.17   7
   2  -3   4 22051.6 1916.01   1
   2   1   4 18079.3 1663.74   8
   1   2  -4 20583.9 1500.19   7
   1  -3  -4 15119.2 1276.47   6
  -2   3   4 19785.8 2172.36   7
   2  -3  -4 18824.8 2148.24   1
   2  -3   4 19610.2 1730.01   7
  -3   2  -4 17587.3 1175.04   1
  -3   2   4 20603.3 1940.12   7
  -3   1  -4 15315.6 1543.07   9
  -3   1  -4 19293.3 1303.05   3
  -3   1   4 19241.2 2741.23   3
   3  -2  -4 18269.4 2619.10   1
   2   1  -4 15949.5 1036.46   4
   1  -3   4 16441.9 1692.03   3
  -3   2   4 17485.4 1832.87   5
   3  -1  -4 22125.3 2051.73   5
   2   1   4 19821.5 1773.16   3
   2  -3   4 14383.5 1460.80   9
  -2   3  -4 18352.9 1460.21   5
  -2   3  -4 18245.6 2223.67   9
   3  -1   4 16042.5 1529.80   5
  -3   1   4 20264.4 2052.16   6
   3  -2   5 96512.7 6221.30   6
   2   1  -5 93167.7 4155.58   5
  -3   1   5 101494. 4827.97   6
   1   2   5 93839.6 4658.99   6
   3  -2  -5 91555.1 3326.46   6
   1   2  -5 92666.8 2950.97   7
   2   1   5 100185. 4134.02   3
   2   1   5 90759.3 4818.93   6
   1  -3   5 104745. 6052.69   2
   3  -1  -5 88936.1 3622.13   6
   1  -3  -5 91058.6 3338.93   6
  -3   2   5 100084. 4785.40   5
   1  -3   5 92718.9 4382.63   3
  -2   3  -5 96833.7 3931.67   5
   2  -3  -5 88605.4 4927.85   1
  -3   1  -5 96540.6 2683.28   3
   2   1  -5 93886.2 4214.75   6
  -3   2  -5 110080. 4563.68   5
  -3   1  -5 103501. 3639.53   1
  -2  -1  -5 90412.0 3022.16   3
  -2   3  -5 101505. 5393.61   9
   3  -1  -5 98495.1 4802.52   5
   3  -2   5 92000.9 3373.67   5
  -3   1   5 98168.8 3871.27   5
  -3   2  -5 98814.9 4388.44   9
   1   2  -5 92403.1 4180.72   5
  -1  -2   5 90652.9 4880.38   3
   3  -2  -5 98160.2 6005.89   1
   1  -3  -5 92560.5 3957.16   8
   3  -1   5 92541.5 4251.58   5
  -2  -1   5 109906. 5999.88   3
   2  -3   5 96933.7 4242.88   1
   2   1  -5 92314.3 3077.48   7
  -2  -1  -5 89036.1 3936.70   9
  -3   2  -5 91876.3 2765.87   1
  -1  -2   5 99243.6 3780.92   4
   2  -3   5 95563.5 4125.24   7
   2   1   5 100576. 4558.86   8
  -3   2   5 91240.6 4538.99   7
   2   1  -5 92720.4 2820.07   4
   3  -1   5 98082.9 5630.91   6
   1   2   5 98633.1 4059.81   3
  -3   1  -5 93504.0 4227.48   9
   1   2   5 93832.6 5868.81   7
   1  -3   5 106732. 4281.93   7
  -1   3   5 91956.8 4331.36   4
  -3   1   5 88289.2 5746.42   3
  -3   2  -5 96859.5 2959.51   3
  -2   3   5 90490.5 4003.54   4
   1  -3  -5 89227.4 4495.83   1
  -1   3   5 95412.6 5781.08   7
  -3   1   5 90124.7 4162.25   7
  -2   3  -5 86694.6 3400.06   7
   3  -1  -5 87556.3 3928.81   8
   1   2  -5 89442.0 3474.37   4
  -1   3  -5 89030.6 3002.18   7
  -2   3   5 106303. 3662.76   9
  -2   3   5 97481.2 5319.82   7
  -1   3  -5 91817.4 4032.20   5
  -1  -2   5 104123. 4620.91   8
  -3   1   6 33811.9 2675.13   6
   3  -1   6 30659.7 3229.30   6
   1  -3  -6 27593.3 1571.27   6
   3  -2  -6 26562.0 1556.72   6
   1  -3   6 30141.1 3331.67   2
   2  -3  -6 26112.5 2684.45   1
   1   2   6 30060.2 2570.41   6
  -2   3   6 25804.6 2089.98   4
   1   2   6 36512.9 3536.83   7
   2   1   6 31552.5 2015.47   3
   2   1   6 28259.8 2449.11   8
  -2  -1   6 36140.2 3650.45   3
  -3   2  -6 29593.3 2417.11   5
  -3   2   6 26988.4 1467.99   4
   3  -2  -6 28025.8 2318.30   8
   3  -1  -6 28238.6 1841.65   6
  -1  -2   6 26380.5 2711.64   3
   1  -3   6 27942.6 1849.39   7
   3  -2   6 25394.3 1907.59   5
  -2  -1  -6 27354.5 2177.37   9
  -1   3  -6 29159.9 2253.37   5
   1   2  -6 27671.7 2308.96   5
   1   2   6 28357.0 2081.52   3
   2   1  -6 28944.2 2384.49   5
  -2   3  -6 31704.8 2296.01   5
   1  -3   6 27102.5 2364.31   3
  -1  -2   6 28837.6 1950.20   4
  -3   2  -6 25777.9 2320.36   9
  -3   1   6 30528.9 2365.27   7
   2  -3  -6 27694.5 1373.09   6
   3  -1   6 30884.8 2482.45   5
   3  -1  -6 30350.7 2698.90   5
  -3   1  -6 28173.9 1327.69   1
  -2   3  -6 30200.2 2992.25   9
  -2   3   6 27434.5 2965.22   7
   2   1   6 28630.7 2803.84   6
   3  -2  -6 31985.4 3370.68   1
  -1   3   6 29578.5 2471.63   4
   3  -1  -6 29480.7 2329.91   8
  -3   2  -6 25579.2 1250.47   3
   1  -3  -6 30050.4 2289.18   8
  -3   1  -6 28344.0 2385.33   9
  -1   3   6 30232.6 3432.14   7
  -3   1   6 28797.8 3304.67   3
   2   1  -6 27003.0 1373.13   7
  -3   2   6 27014.9 2510.87   7
  -1  -2  -6 26897.8 1989.75   1
  -1  -2   6 30813.9 2531.59   8
   1  -3  -6 28508.8 2522.31   1
   2  -3   6 29928.5 2193.48   7
  -1  -2  -6 27306.8 2002.54   9
   3  -2   6 31899.4 3403.36   6
   2  -3   6 29247.7 2220.60   1
  -2   3   6 31324.4 2060.16   9
   3  -2   7 115259. 6509.40   6
   3  -1   7 120785. 6684.51   6
  -3   2   7 112760. 6581.90   3
   1  -3  -7 109522. 3485.08   6
  -3   2  -7 114451. 5596.73   9
   2   1   7 115469. 5839.12   6
  -3   1   7 112020. 6492.63   3
   1  -3   7 109635. 6519.94   2
   2  -3  -7 115192. 5195.85   8
   2  -3  -7 114119. 2877.31   6
   1   2   7 117826. 5553.29   6
   3  -1  -7 108653. 3981.47   6
  -1  -2   7 119414. 6311.53   3
   2   1   7 106927. 3827.25   3
   1  -3   7 113051. 5270.29   3
   3  -2  -7 106616. 5043.62   8
  -1  -2  -7 115267. 4595.09   1
  -2  -1  -7 115262. 4060.67   1
   2  -3   7 119809. 4827.56   1
  -3   1   7 122606. 5071.71   6
   1   2  -7 109858. 5151.81   5
   2   1  -7 111039. 5287.77   5
  -2   3  -7 116460. 5065.36   5
  -2   3  -7 119878. 6253.92   9
  -2   3   7 121097. 4725.91   9
  -3   1  -7 110933. 5266.35   9
   3  -1  -7 117753. 5819.85   5
   2  -3  -7 113168. 6037.52   1
   1   2   7 114243. 4648.11   3
  -1   3  -7 108841. 4981.29   5
  -1  -2  -7 113904. 4798.63   9
   1  -3  -7 118446. 5250.82   8
  -2  -1  -7 114060. 5000.08   9
   3  -1  -7 110915. 5217.65   8
   1  -3   7 121976. 3754.11   7
  -1  -2   7 120926. 4510.02   4
  -1   3   7 126628. 7027.01   7
   3  -2  -7 121925. 6754.33   1
   2   1  -7 113226. 3239.02   7
   2  -3   7 123240. 4848.32   7
  -3   2   7 116218. 3509.38   4
   1   2   7 117557. 6611.40   7
  -3   2   7 113142. 5573.98   7
  -3   2  -7 124822. 5469.76   5
  -3   1   7 112592. 5059.10   7
  -2   3   7 110877. 6330.50   7
   3  -2  -7 114706. 3423.32   6
   2  -3  -7 113931. 3012.65   6
  -2  -1   7 112359. 6764.97   3
  -2   3   7 108194. 4808.64   4
   1  -3  -7 116226. 5549.10   1
  -3   2  -7 114739. 3001.77   3
  -3   2   8 3113.58 483.027   4
   1  -3   8 2624.18 1304.02   2
   3  -1  -8 2262.08 903.865   5
  -3   1   8 2003.49 745.546   7
   2  -3   8 2806.43 730.638   1
   2  -3  -8 3174.67 1180.10   1
  -1  -2  -8 1536.55 666.561   1
   3  -2  -8 2068.17 1116.86   1
  -1   3  -8 2182.36 890.291   5
   3  -2   8 1532.97 1018.22   6
   1  -3  -8 3183.12 452.081   6
  -1  -2  -8 5644.67 1078.00   9
   2   1   8 3886.65 1205.63   6
  -2  -1  -8 3294.79 1029.62   9
   1   2   8 2629.48 1003.81   6
   3  -2  -8 2570.41 356.145   6
   3  -1  -8 2517.14 525.170   6
  -2   3  -8 3890.74 1419.81   9
   2   1  -8 3936.14 1202.77   5
  -3   1   8 2363.46 554.306   6
   2  -3   8 1143.07 948.047   2
   1   2  -8 2960.64 1023.74   5
  -1   3   8 2740.34 634.341   9
  -3   2   8 3237.74 1284.90   3
   3  -2  -8 2540.19 1144.76   8
   1  -3  -8 1766.72 788.455   8
  -2   3   8 3009.47 749.350   9
   2  -3  -8 4022.83 1135.62   8
  -3   1   8 2439.70 1141.51   3
   1   2   8 2438.25 1217.77   7
  -2   3  -8 2792.63 881.315   5
   3  -1   8 2069.56 1136.25   6
   3  -1  -8 2424.55 971.979   8
  -2  -1  -8 2372.40 563.359   1
   1  -3  -8 3445.42 1109.39   1
  -3   2  -8 3906.32 1097.47   5
  -2  -1   8 2194.16 1248.38   3
  -1  -2   8 2389.96 1130.94   3
  -3   2  -8 1433.17 925.509   9
   1  -3   8 6220.00 1327.37   3
   1   2   8 2425.09 682.916   3
   2   1  -8 2307.85 325.154   7
  -1   3   8 2269.75 1435.25   7
   2  -3   8 1963.44 654.632   7
  -2   3   8 2950.54 957.714   4
  -3   2   8 2971.69 1206.75   7
   2   1   8 2442.05 448.659   3
  -2   3   8 5972.03 1876.12   7
  -3   1  -8 2934.21 1089.19   9
   1  -3   8 2113.83 317.760   7
   1  -3  -9 8419.04 562.938   6
  -2   3  -9 11329.9 1819.61   5
   3  -2  -9 6890.59 1627.74   1
  -2   3   9 9695.51 1882.13   7
   1   2  -9 9342.25 1680.70   5
   1   2   9 8376.87 1933.12   7
   3  -2   9 11591.6 2075.10   6
   3  -1  -9 9656.14 1722.36   8
  -3   1   9 5299.66 1438.83   3
   3  -1   9 6253.53 1493.04   6
   2   1  -9 8457.28 1727.70   5
   3  -2  -9 8457.55 1623.06   8
  -1  -2  -9 9487.62 1547.39   9
   2   1   9 11695.3 1788.50   6
  -3   2   9 9442.75 1914.09   3
   1  -3  -9 8305.19 1635.37   8
   2  -3  -9 9718.75 1754.17   8
  -1  -2  -9 9587.54 1343.08   1
   1  -3   9 11767.7 2177.48   2
   2  -3  -9 7156.49 1697.29   1
  -2  -1   9 5898.28 1554.39   3
  -2   3   9 8993.44 1550.61   4
  -2  -1  -9 8792.44 1590.49   9
  -2   3  -9 10415.6 1908.29   9
  -2  -1  -9 8870.14 1015.49   1
  -3   2  -9 9345.98 1832.01   9
   3  -1  -9 9484.90 1776.67   5
  -3   1  -9 8537.69 1701.93   9
   2  -3   9 8288.62 1880.79   2
  -1   3  -9 8633.73 1592.65   5
   1   2   9 7349.21 1330.36   6
  -1   3   9 7997.64 1832.30   7
  -1  -2   9 8555.39 1983.01   3
   1  -3  -9 10070.4 1762.63   1
  -3   2   9 8216.21 815.630   4
   2  -3   9 7526.43 1023.41   1
  -3   2  -9 9625.16 1641.27   5
   1  -3   9 7724.71 1511.34   3
  -3   2   9 5805.04 1499.71   7
  -3   1   9 8770.46 1462.95   7
  -2  -1 -10 23522.6 1695.65   1
  -3   2  10 24681.4 3083.47   3
   3  -1  10 24798.2 2813.06   6
   1   2 -10 22970.2 2734.26   5
   3  -2  10 25236.8 2953.43   6
  -1  -2 -10 22248.1 2103.73   1
   2   1  10 25284.9 2591.03   6
   1   2  10 22269.2 2069.88   6
   1  -3 -10 22375.8 2652.58   1
  -3   2  10 22541.9 1451.02   4
   2  -3  10 25013.6 3218.04   2
   3  -1 -10 26203.4 2910.04   5
   1  -3  10 23082.0 3107.02   2
   2  -3 -10 22900.4 2981.56   1
   2  -3  10 22834.8 1548.63   1
   1  -3  10 23190.7 2656.55   3
   3  -1 -10 25317.2 2992.35   8
  -1  -2 -10 23135.2 2618.79   9
  -2  -1 -10 26086.4 2797.30   9
   3  -2 -10 25296.7 2910.35   8
  -1  -2  10 21082.1 2855.99   3
  -3   2 -10 27062.5 2731.12   5
  -3   2  10 21826.1 2718.23   7
  -2  -1  10 24692.5 3068.97   3
  -3   1  10 22130.7 2873.53   3
  -1   3 -10 21360.3 2548.67   5
  -2   3 -10 22990.2 2691.79   5
   1  -3 -10 24082.5 2846.62   8
   2   1  10 22732.8 3011.12   7
  -2   3  10 27023.8 3097.70   7
   1   2  10 25321.6 3061.33   7
   2   1 -10 22907.2 2824.51   5
  -2   3  10 24796.2 2542.94   4
  -3   1 -10 21560.9 2828.94   9
   2  -3 -10 25876.2 2889.56   8
  -3   1  10 28470.3 2710.35   7
  -3   2 -10 24459.8 3078.91   9
  -1   3  10 24996.6 3025.96   7
  -1  -2 -11 13667.1 1710.48   1
  -1   3 -11 14235.2 2242.97   5
  -2   3 -11 12883.2 2216.97   5
  -3   1 -11 9050.67 1990.33   9
   3  -2  11 11028.8 1974.35   6
   3  -1  11 8636.16 1692.46   6
   2   1  11 13797.3 1873.89   6
   1   2  11 11281.9 1461.67   6
   1  -3  11 11134.8 2297.27   2
   1  -3 -11 9845.95 2010.52   8
  -3   2 -11 10869.3 1815.97   5
   2  -3  11 7575.09 1828.45   2
   2   1 -11 8863.04 2037.25   5
   3  -2 -11 10395.7 2107.18   8
  -1   3  11 11534.7 2110.33   7
  -1  -2 -11 9173.06 1922.36   9
  -2  -1 -11 11838.5 2091.84   9
   1  -3  11 9209.71 1644.51   3
   1  -3 -11 13626.3 2168.00   1
   3  -1 -11 12794.5 2328.33   8
   2  -3 -11 11614.4 2090.41   8
   3  -1 -11 9814.38 1937.50   5
  -3   2 -11 9996.10 2186.06   9
  -2  -1  11 10558.4 2140.79   3
  -1  -2  11 13732.1 2314.75   3
  -3   1  11 11043.3 2087.71   3
   2   1  11 11904.6 2320.63   7
   2  -3 -11 13425.8 2435.70   1
   1   2  11 12630.0 2179.97   7
  -3   2  11 13955.5 2367.76   3
  -2   3  11 11763.7 2153.94   7
   1   2 -11 12954.1 2229.06   5
  -2   3  11 9814.24 1703.04   4
  -3   2  11 9496.11 1722.37   7
  -3   1  11 12555.7 1753.38   7
   3  -2  12 81807.8 5454.72   6
   2  -3 -12 98084.0 6507.76   8
   1  -3  12 83714.1 6063.11   2
  -3   2  12 84891.8 5948.70   3
   1   2 -12 91027.3 6248.21   5
   3  -1 -12 87666.7 6297.35   8
  -1  -2 -12 80902.3 5759.15   9
   2   1  12 83389.3 4664.49   6
  -2  -1 -12 84956.6 6014.14   9
   2  -3  12 88424.3 6258.89   2
   1  -3  12 84588.7 5075.96   3
  -1  -2 -12 87204.6 4598.93   1
  -2  -1  12 84960.1 5784.11   3
   3  -1  12 90703.9 5506.76   6
  -3   1  12 87320.8 5918.91   3
   1   2  12 88976.9 5967.27   7
  -1  -2  12 82877.7 5600.78   3
   2   1 -12 96928.5 6753.61   5
   1  -3 -12 86192.7 5658.57   1
   2   1  12 90971.6 6182.58   7
  -3   1 -12 90126.7 6506.35   9
   3  -1 -12 90589.8 5825.23   5
  -3   2 -12 86801.6 6614.27   9
  -1   3  12 86577.5 5701.80   7
  -2   3 -12 89351.3 6011.02   5
  -2   3  12 80627.9 5441.77   7
   3  -2 -12 81786.6 6113.97   8
  -2   3  12 81867.5 5234.16   4
  -1   3 -12 87001.2 5982.26   5
   1   2  12 84889.4 4918.81   2
  -3   1  12 91999.1 4677.03   7
  -3   2  12 79602.6 5078.77   7
  -3   2 -12 83169.4 5184.89   5
   1  -3 -12 83490.6 5988.62   8
   2  -3 -12 82828.3 5889.86   1
   1  -3 -13 5648.23 1756.04   8
  -3   2 -13 7824.13 2183.16   9
  -1  -2 -13 4024.73 1264.44   9
  -3   1  13 3741.58 1259.03   3
   3  -2  13 7311.47 1684.30   6
   3  -1  13 5661.58 1382.56   6
   2  -3 -13 7481.84 1909.79   1
   1  -3  13 3172.36 1207.88   2
  -3   2  13 6160.24 1741.17   3
   1   2  13 5333.24 1211.03   2
  -2   3  13 6615.08 1605.51   3
   1   2  13 4633.50 1575.61   7
  -2  -1 -13 4908.76 1640.51   9
   3  -1 -13 3981.56 1339.39   5
  -2   3 -13 7305.22 1797.40   5
  -3   2  13 6224.37 1525.99   7
   3  -2 -13 5706.02 1881.54   8
   1  -3  13 4932.87 1232.48   3
   3  -1 -13 6636.42 1938.31   8
   2  -3 -13 3913.69 1577.15   8
  -2   3  13 5457.08 1517.57   7
   2   1  13 3029.21 1243.34   7
   1   2 -13 3525.55 1520.63   5
  -3   1 -13 7439.19 2095.81   9
   2  -3  13 3471.64 1377.28   2
  -2  -1  13 4520.94 1355.46   3
   1  -3 -13 4385.95 1349.76   1
  -1  -2  13 5843.16 1475.34   3
  -1   3 -13 6352.53 1894.80   5
  -1   3  13 6047.95 1584.32   7
  -2   3  13 6801.76 1615.99   4
   2   1 -13 6466.99 1971.33   5
   3  -2  14 35106.5 3523.70   6
   1  -3  14 34679.1 3998.45   2
   3  -1  14 35042.8 3354.45   6
  -2  -1 -14 40772.2 4514.49   9
  -1   3 -14 37078.0 4236.75   5
   2  -3  14 43843.8 4507.11   2
  -3   2  14 35979.6 3897.67   3
   2  -3 -14 29758.9 3981.02   8
   3  -2  14 36011.5 4375.27   2
  -2  -1  14 33047.6 3512.18   3
   3  -1 -14 34251.1 3860.31   8
   2   1 -14 35821.5 4174.29   5
   3  -1 -14 31940.8 3662.47   5
  -1  -2  14 31222.7 3372.28   3
  -3   2 -14 40314.1 4534.76   9
  -3   1 -14 38946.4 4712.43   9
  -2   3 -14 28990.5 3452.38   5
   3  -2 -14 36086.5 4379.25   8
  -2   3  14 39504.0 4109.04   3
   2  -3 -14 33005.2 3632.76   1
   2   1  14 32787.2 3727.03   7
  -3   1  14 36488.4 3794.25   3
   1   2  14 32713.7 3644.56   7
  -2   3  14 31266.9 3386.07   7
  -1   3  14 32598.8 3563.62   7
   1   2 -14 39609.7 4556.68   5
   1  -3 -14 32110.2 3691.92   8
   1  -3 -14 31241.2 3440.99   1
  -1  -2 -14 33594.4 3674.86   9
   2  -3  14 31614.3 3483.59   6
  -3   2  15 2586.11 1156.60   3
  -2  -1  15 1583.60 1102.49   3
   2  -3  15 1769.00 1059.55   6
   1   2  15 2472.26 1388.97   7
   2  -3 -15 4532.85 1737.28   8
   3  -2  15 2123.32 889.325   6
   1  -3  15 779.999 1025.18   2
   2  -3 -15 3995.95 1330.35   1
  -3   1 -15 4223.11 1758.90   9
   2  -3  15 2533.76 1493.79   2
   3  -2 -15 2977.33 1411.92   8
  -2   3  15 5850.61 1630.84   3
  -1  -2 -15 2928.23 1272.07   9
  -3   2 -15 5419.73 1800.11   9
  -2  -1 -15 2221.81 1240.89   9
   3  -2  15 1260.15 1321.30   2
   2   1 -15 1536.73 1052.14   5
   2   1  15 2088.98 988.509   2
  -1   3 -15 1368.45 980.985   5
   1   2 -15 198.064 1139.24   5
  -2   3 -15 3196.07 1247.13   5
   3  -1 -15 2115.56 1169.44   5
  -1  -2  15 4218.40 1335.17   3
   2   1  15 1041.93 935.248   7
  -1   3  15 3274.37 1259.74   7
  -3   1  15 2522.07 1028.25   3
  -2   3  15 3502.10 1290.01   7
   2  -3 -16 6898.48 1779.40   8
   1  -3  16 10260.8 2249.08   2
   3  -1  16 8249.45 2098.57   2
   2  -3  16 11644.8 2464.95   2
  -3   1  16 11933.9 2252.70   3
  -2  -1  16 12346.0 2171.34   3
   3  -2  16 6948.63 2056.30   2
  -1  -2 -16 9487.70 1965.65   9
   1   2  16 14302.2 2448.72   7
  -1   3  16 12171.3 2228.55   7
  -3   2 -16 11230.2 2504.83   9
  -3   1 -16 13666.3 2856.24   9
   3  -2 -16 9488.11 2306.30   8
   2   1 -16 9667.36 2192.14   5
  -3   2  16 6953.97 1684.60   3
  -2  -1 -16 12390.5 2492.60   9
  -1   3 -16 10377.8 2257.43   5
  -2   3 -16 12619.9 2339.24   5
   2   1  16 9796.40 2090.79   7
   1   2 -16 9758.66 2294.70   5
  -3   1  17 13932.0 2357.04   3
   0   3   0 598125. 14590.2   2
   3  -3   0 517481. 16675.5   1
  -3   0   0 579096. 15242.5   3
   3   0   0 586488. 15369.9   6
  -3   3   0 669362. 13415.4   9
   0  -3   0 638227. 14866.7   3
   0   3   0 646551. 14843.8   4
   0   3   0 563888. 15570.8   7
  -3   3   0 610058. 14944.2   7
   3   0   1 39426.5 3616.06   3
   0   3   1 39123.1 2247.22   2
   3   0  -1 35827.7 2636.48   6
   0   3  -1 33158.2 2474.79   7
   0   3  -1 40336.3 2720.44   2
   3  -3   1 34346.1 3263.81   1
  -3   0   1 30976.1 2735.95   3
  -3   0  -1 35270.2 2403.50   3
   3  -3  -1 45782.0 3898.46   1
  -3   3  -1 35551.0 1944.57   9
   3   0  -1 32221.9 1707.64   5
  -3   3   1 28379.5 2313.40   7
   3  -3  -1 37907.2 3054.76   6
   0  -3   1 29167.5 2298.84   3
   0  -3  -1 28756.4 2165.01   3
   3   0   1 38286.3 2888.06   6
   0   3   1 39916.8 3299.41   7
   0   3   1 31881.3 2359.34   4
   0   3  -1 32483.5 2294.46   4
  -3   3  -1 32844.0 2304.93   7
   3   0   2 363549. 12053.3   3
   0   3   2 387882. 9344.90   2
   3   0   2 371667. 11511.2   6
   3   0  -2 393698. 10808.5   6
   3  -3   2 357202. 12352.5   1
  -3   0   2 362967. 12007.1   3
   0   3  -2 397665. 11508.3   2
   0   3   2 362031. 12343.8   7
  -3   0  -2 388943. 9980.17   3
   0   3   2 382331. 10577.1   4
   3  -3  -2 366356. 12829.2   1
   0   3  -2 390188. 10194.2   7
  -3   3  -2 400961. 8763.96   5
   3   0  -2 388586. 9330.23   5
   0   3  -2 408251. 10394.3   4
  -3   3  -2 378944. 10262.0   7
   3  -3  -2 370857. 11027.7   6
   0  -3   2 389759. 10744.8   3
  -3   3   2 390553. 10124.0   4
  -3   3   2 396926. 11065.9   7
  -3   3  -2 429824. 10109.5   9
   3  -3  -3 60720.7 3296.11   6
   0   3   3 61268.9 2363.79   2
   0   3  -3 56512.5 2686.02   7
   3   0   3 62615.4 3993.24   6
   3  -3   3 66212.6 4387.48   1
   3   0  -3 57209.0 3269.80   6
  -3   0   3 60048.2 4451.85   3
  -3   3  -3 60989.9 2778.19   1
  -3   3   3 56221.1 2892.11   4
  -3   0  -3 58582.4 2661.93   3
  -3   3  -3 60445.1 3216.85   9
   3  -3  -3 60473.8 4586.81   1
  -3   3  -3 62437.3 2484.25   5
   3   0  -3 60981.3 2859.63   5
   0  -3   3 54414.9 3334.47   3
   0  -3  -3 61200.1 3329.71   1
   0  -3  -3 57084.9 2200.90   9
   3   0   3 67254.4 3819.26   3
  -3   3   3 64302.1 2857.53   5
   0   3   3 60215.9 3450.71   4
   0   3   3 58662.3 4627.94   7
  -3   3   3 55538.5 3524.41   7
   0   3  -3 60937.4 3157.24   4
  -3   3  -3 54188.8 2976.17   7
   0  -3  -3 56825.0 2544.84   8
   3   0  -3 56855.2 2608.87   8
   3  -3  -4 200778. 6266.65   6
   3  -3   4 194365. 7363.39   1
   3   0  -4 197666. 6639.56   6
  -3   0   4 206780. 9247.87   3
   0  -3  -4 186785. 6617.00   1
   0  -3  -4 189638. 5203.25   9
   3   0  -4 192856. 6107.10   8
  -3   0  -4 191265. 5212.66   3
   3  -3  -4 209680. 9128.10   1
   0   3  -4 198043. 6638.46   5
   3   0  -4 187928. 4168.28   4
   0  -3  -4 197079. 6011.01   8
   0  -3   4 195809. 7116.78   3
   3   0  -4 200407. 6453.48   5
  -3   3  -4 199680. 5830.11   5
  -3   3  -4 199520. 6968.05   9
  -3   0  -4 196990. 6519.07   9
   0   3  -4 187895. 6320.06   4
  -3   3   4 209889. 6513.13   5
   3   0   4 194101. 7921.87   6
   0   3   4 195677. 4910.43   2
   0   3   4 195707. 9292.78   7
   0   3  -4 194240. 5360.81   7
  -3   3   4 190998. 7385.91   7
  -3   3   4 201553. 6185.50   4
   3  -3  -5 377246. 9695.71   6
   3   0   5 391076. 12655.8   6
   3   0  -5 404460. 10825.2   6
  -3   0   5 416550. 14759.9   3
   3  -3   5 383063. 10946.3   1
  -3   3  -5 397546. 11836.8   9
   3  -3  -5 378134. 13613.3   1
   0   3  -5 423875. 11185.4   5
   0  -3   5 398024. 11703.1   3
   3   0  -5 402091. 11077.6   5
   0   3   5 395562. 14090.2   7
   0  -3  -5 385060. 10582.1   8
   0  -3  -5 403077. 11118.6   1
  -3   0  -5 401290. 10943.1   9
   0  -3  -5 400062. 9587.01   9
  -3   0  -5 397174. 8660.09   3
   0   3  -5 402180. 8817.40   7
  -3   3   5 384695. 12118.6   7
  -3   3   5 400045. 10302.1   4
   0   3  -5 402963. 10631.6   4
  -3   3  -5 385590. 10323.3   5
   0  -3   5 372602. 11749.2   2
   3  -3  -6 8610.13 901.216   2
   3  -3   6 7897.96 1071.79   1
   3  -3  -6 7090.73 792.391   6
   0  -3   6 8678.66 1824.81   2
   3   0   6 7375.17 1709.86   6
   3   0  -6 7460.97 1184.59   6
  -3   3  -6 8042.07 927.757   3
  -3   0  -6 6993.92 494.879   3
   0   3  -6 9677.91 1496.65   5
   3  -3  -6 6988.57 1839.59   1
   0  -3  -6 9495.70 1199.89   9
  -3   3  -6 7758.73 1621.47   9
   0  -3   6 9542.17 1668.05   3
   3   0  -6 9672.19 1559.36   5
   3   0  -6 6010.37 1201.68   8
   0  -3  -6 5749.87 1202.54   8
  -3   0   6 8466.62 2112.86   3
  -3   0  -6 6015.53 1152.49   9
   0   3  -6 6981.86 520.642   7
   0   3   6 9599.18 2030.71   7
   0  -3  -6 7914.13 1326.41   1
  -3   3   6 6944.25 1472.24   7
  -3   3  -6 7498.59 1311.25   5
  -3   3   6 9259.97 1208.78   4
   0  -3   7 307901. 11426.9   2
   3   0   7 322519. 11732.7   6
   3  -3  -7 308275. 8092.25   2
  -3   0   7 299432. 11984.8   3
   3   0  -7 291161. 8860.48   6
   3  -3  -7 313936. 9860.43   8
   3  -3   7 288054. 7804.00   1
  -3   3  -7 308194. 7913.81   3
   3   0  -7 292597. 10230.4   5
   0  -3   7 293253. 10455.9   3
   0   3  -7 328271. 10038.2   5
   0  -3  -7 312614. 10171.2   8
   3  -3  -7 312779. 12226.2   1
  -3   3   7 309481. 9213.03   9
  -3   3  -7 313440. 11246.7   9
   3  -3  -7 311074. 6947.53   6
  -3   0  -7 293470. 9589.29   9
   0  -3  -7 292213. 9461.54   1
   0   3   7 313152. 11895.5   7
  -3   3   7 296094. 11016.5   7
  -3   3   7 318236. 8836.79   4
   3  -3   7 310558. 12046.8   6
   3   0  -7 310258. 10311.0   8
  -3   3  -7 307731. 9912.13   5
   0  -3   8 87954.5 6053.24   2
  -3   3   8 88478.5 4097.32   4
   0  -3  -8 86749.5 4674.48   1
   3   0   8 96060.2 5968.69   6
   0  -3  -8 87233.3 4637.56   9
   3  -3  -8 94912.0 3925.08   2
  -3   0   8 93419.9 6151.77   3
   0   3   8 95488.8 3411.06   2
  -3   3  -8 93978.3 3489.83   3
   0   3   8 99407.1 6108.72   7
   0  -3   8 73712.9 4947.75   3
   0   3  -8 88005.7 4865.63   5
   3  -3  -8 89259.6 6231.72   1
   3   0  -8 87144.3 5371.74   5
  -3   0  -8 83801.4 4741.12   9
  -3   0  -8 90984.8 2906.05   1
   3   0  -8 84317.6 5189.79   8
   0  -3  -8 92243.0 5290.57   8
  -3   3  -8 101877. 5482.21   5
   3  -3  -8 89864.3 4931.38   8
   3   0  -8 93979.9 3671.08   7
  -3   3   8 86675.3 5636.86   7
   3  -3   8 90072.9 2685.76   1
  -3   3  -8 91656.1 5943.29   9
   3  -3   8 86168.4 5860.96   6
   0  -3  -9 265839. 10192.5   8
   0  -3   9 237191. 11378.3   2
   3   0  -9 266477. 10796.3   5
   3   0   9 269415. 10538.6   6
   0   3   9 273120. 7171.19   2
  -3   0   9 243330. 10806.1   3
   0  -3  -9 253218. 9246.83   9
   0  -3   9 257697. 10407.6   3
   0   3  -9 277966. 9878.28   5
  -3   3  -9 293265. 11657.8   9
   0  -3  -9 273256. 9393.43   1
  -3   0  -9 267048. 9769.07   9
   3  -3  -9 269482. 11305.7   1
   3   0  -9 265138. 10296.8   8
   3  -3  -9 280133. 9937.02   8
   0   3   9 249557. 10608.2   7
  -3   3  -9 248218. 9544.57   5
  -3   3   9 255375. 8209.68   4
  -3   3   9 258602. 10989.3   7
  -3   0  -9 258309. 5909.57   1
   3  -3   9 258198. 10865.2   6
   0  -3  10 167950. 9269.94   2
   0  -3 -10 171300. 7483.24   1
   0  -3 -10 185108. 8247.17   8
   3   0  10 185783. 8331.90   6
  -3   0  10 168368. 8656.63   3
   0  -3  10 177919. 8579.16   3
   0   3 -10 181160. 8078.69   5
   0  -3 -10 190751. 7662.02   9
   3   0 -10 183365. 8883.07   5
  -3   3 -10 197171. 9381.92   9
   3  -3 -10 196715. 8544.34   8
   3   0 -10 178158. 8235.03   8
  -3   0 -10 184855. 8317.45   9
   0   3  10 167079. 8456.29   7
  -3   3  10 174161. 8730.41   7
  -3   3  10 182775. 6724.30   4
   3  -3 -10 174950. 8901.75   1
  -3   3 -10 182918. 7898.98   5
   3  -3  10 178660. 8723.02   6
   3   0  11 27146.4 2949.84   6
   0  -3 -11 26595.5 2814.70   1
   3  -3  11 21999.6 2947.14   6
   0  -3  11 22499.9 3312.28   2
  -3   0  11 22160.4 2994.27   3
  -3   3 -11 23774.4 2736.06   5
   0  -3 -11 26136.1 2679.79   9
   0  -3  11 23337.1 2953.83   3
   0   3 -11 24450.5 2914.01   5
  -3   3  11 26676.8 3475.76   3
  -3   3 -11 22386.7 3107.99   9
   3   0 -11 21101.5 2692.99   8
   3  -3 -11 20373.3 2836.41   8
  -3   3  11 24278.8 2295.92   4
   3  -3 -11 21352.4 3005.13   1
   0  -3 -11 22501.4 2688.41   8
   0   3  11 21535.5 2869.64   7
  -3   3  11 20226.1 2809.43   7
  -3   0 -11 29612.8 3345.98   9
   3   0 -11 24227.8 3117.77   5
   3  -3  12 83623.4 5938.80   6
  -3   3  12 102655. 7021.53   3
  -3   3 -12 102180. 5934.79   5
   3   0  12 98477.4 5717.90   6
   3  -3  12 100233. 7084.93   2
   0   3 -12 100197. 6401.09   5
   3   0 -12 99774.1 6519.91   5
   0  -3  12 82733.8 5637.30   3
   0  -3 -12 100373. 5506.02   9
  -3   0  12 92689.4 6257.96   3
   0  -3 -12 102257. 5836.21   1
   0   3  12 89970.7 6156.48   7
   3  -3 -12 89201.9 6408.53   8
   0  -3  12 81191.5 6359.88   2
   3  -3 -12 96998.3 6439.95   1
  -3   0 -12 96660.3 6581.29   9
  -3   3  12 92956.8 6007.92   7
  -3   3 -12 95145.5 6548.32   9
   3  -3 -13 420.195 855.551   1
  -3   0 -13 113.978 897.856   9
   3  -3  13-295.367 912.284   6
   0  -3  13 7.91285 992.737   2
   0  -3 -13-1125.45 771.127   1
   3   0  13-100.901 712.607   6
   3  -3  13 740.966 1158.00   2
  -3   3  13-666.810 1074.69   3
  -3   3 -13-1580.73 1237.10   9
   0   3 -13 195.726 1037.29   5
   3  -3 -13-1096.21 1133.06   8
   3   0 -13 203.163 919.830   5
  -3   3 -13-56.4399 619.290   5
  -3   0  13 1023.93 985.602   3
   0  -3  13 724.992 784.942   3
   0   3  13 609.659 927.811   7
  -3   3  13 328.751 727.526   7
  -3   3 -14 77008.8 6170.40   9
   3  -3  14 66134.8 5922.81   2
  -3   0  14 68714.8 5440.12   3
   0  -3  14 74098.7 5146.62   3
  -3   3  14 72179.9 5899.18   3
   3  -3 -14 84487.4 6870.76   8
   0   3 -14 71687.0 6219.09   5
   3   0  14 70587.0 5850.16   7
   0  -3  14 73788.8 6115.97   2
   3   0 -14 75143.5 5894.46   5
  -3   3  14 79795.0 5423.13   7
  -3   0 -14 76839.2 6656.11   9
   3  -3  14 79082.2 5714.39   6
   0   3  14 76167.3 5673.34   7
  -3   3 -14 84673.4 5585.61   5
   3  -3  15 43150.1 4182.09   6
  -3   3  15 43142.9 4534.15   3
  -3   0  15 32510.8 3742.09   3
   3  -3 -15 41106.9 4898.99   8
  -3   3 -15 37383.6 3812.60   5
   3  -3  15 30509.0 4064.02   2
  -3   0 -15 42892.8 5115.63   9
   3   0 -15 35515.8 4103.59   5
   3   0  15 39455.3 4336.51   7
   0   3 -15 36212.3 4522.79   5
   0  -3  15 37417.8 4402.15   2
   0   3  15 33922.8 3765.45   7
  -3   0  16 19959.7 2865.64   3
   3   0  16 22148.3 3369.12   2
  -3   3  16 26216.1 3476.37   3
  -3   3 -16 26286.4 3232.51   5
   3   0 -16 21230.6 3215.48   5
   0   3  16 25870.6 3337.76   7
   4  -2   0 774438. 19921.0   6
   2  -4   0 754651. 17690.3   2
   2   2   0 825438. 20301.3   6
  -2  -2   0 847975. 19058.5   3
   2  -4   0 840719. 20048.9   1
  -2   4   0 919127. 19438.5   4
  -2   4   0 839982. 19283.9   7
   4  -2   1 59096.8 4094.48   6
   2  -4   1 57127.1 1913.39   9
  -4   2  -1 62922.6 5022.60   3
  -4   2   1 62875.8 5384.17   3
   2  -4  -1 62831.4 2428.31   2
   2  -4   1 60961.4 3550.88   2
   2   2   1 58431.3 4048.55   6
   2  -4   1 62430.3 3837.52   1
   2   2  -1 54051.0 3740.70   6
  -2  -2   1 54508.7 3390.62   3
  -2  -2  -1 61418.2 3275.09   3
   2   2  -1 55626.2 2970.45   4
   4  -2  -1 60093.9 3732.04   6
   2  -4  -1 61731.5 3930.78   1
  -2   4   1 58439.7 3705.09   7
  -2   4  -1 55836.0 3211.72   7
  -2   4   1 60935.5 3462.79   4
  -2   4  -1 53956.5 3274.23   4
   4  -2  -1 59095.2 2755.56   4
   4  -2   2 296697. 10708.7   6
   2   2  -2 305675. 8254.63   4
  -4   2  -2 279794. 10743.6   3
  -4   2   2 271385. 12191.2   3
   2   2  -2 311532. 10045.4   6
   2  -4   2 286707. 9592.02   1
  -2  -2   2 288996. 9489.45   3
   2   2   2 308128. 10339.8   6
  -2  -2  -2 300353. 8518.58   3
  -2   4  -2 285703. 8516.23   7
  -2   4   2 299444. 9144.24   4
   2  -4  -2 319542. 10172.1   1
   4  -2  -2 298442. 7529.32   4
  -2   4   2 283501. 9793.62   7
  -2   4  -2 303394. 9238.59   4
   2  -4   2 295730. 7272.02   9
   4  -2  -2 301027. 9258.46   6
   4  -2   3 175298. 8261.22   6
  -4   2   3 195042. 9795.73   3
  -4   2  -3 175218. 7370.11   3
   4  -2  -3 183335. 6513.85   6
   2   2   3 185636. 7708.63   6
   2  -4   3 188249. 8479.09   2
   2   2  -3 186277. 7315.28   6
  -2  -2   3 182914. 7377.92   3
  -2   4   3 180721. 7689.01   7
  -4   2  -3 189048. 6396.48   9
  -2  -2  -3 180686. 5925.89   3
   2  -4   3 180845. 5762.52   9
   2  -4   3 194176. 7381.65   1
   2   2  -3 188146. 5785.59   4
  -2   4   3 171270. 6541.94   4
   4  -2  -3 183439. 5003.97   4
  -2   4  -3 179012. 6006.66   7
   2  -4  -3 194364. 7637.20   1
  -2   4  -3 179870. 6706.27   4
   4  -2   4 81292.5 5685.46   6
  -4   2   4 80771.0 6183.83   3
  -4   2  -4 86993.2 4274.05   3
   4  -2  -4 79839.4 3825.98   6
   2   2   4 86338.7 5128.35   6
   2  -4   4 84401.2 5761.95   2
   2   2  -4 83778.2 3430.47   4
  -2  -2   4 84190.2 4986.70   3
  -2   4  -4 84907.9 3913.42   5
  -4   2   4 86618.0 3000.36   5
   2   2  -4 83377.4 4073.19   5
  -2   4  -4 78167.9 3555.78   7
  -2  -2  -4 78142.4 3485.93   3
   2  -4   4 82324.7 4034.57   9
  -4   2  -4 80098.3 4033.70   9
   2  -4   4 91135.4 4779.90   1
   4  -2  -4 81025.8 2628.70   4
  -2   4   4 85791.6 5300.40   7
  -2   4   4 75921.4 4141.66   4
  -4   2   4 83404.1 4534.78   7
   2  -4  -4 84708.1 4913.00   1
  -4   2  -4 93520.0 3947.80   1
  -4   2  -5 207856. 7353.74   9
   4  -2   5 215072. 9963.72   6
  -4   2   5 219642. 10305.4   3
   4  -2  -5 201734. 6576.41   6
  -4   2  -5 207241. 5951.03   1
   2   2   5 197492. 8498.26   6
   2  -4   5 202134. 9415.51   2
  -2   4   5 209724. 7516.85   4
  -2  -2   5 212126. 8859.12   3
   4  -2   5 196105. 5203.58   5
  -4   2   5 200398. 6138.81   5
  -2   4  -5 213388. 7061.85   5
   2   2  -5 203025. 7232.83   5
  -2   4  -5 205191. 6269.61   7
   2  -4  -5 195237. 8235.03   1
  -4   2  -5 199078. 6420.78   3
  -2  -2  -5 216839. 6939.08   9
  -2   4   5 214207. 9231.55   7
   2   2  -5 212738. 6077.25   4
  -4   2   5 202456. 7829.40   7
   2  -4   5 222753. 8135.40   1
   2  -4  -6 27614.5 2899.18   1
  -4   2   6 29358.0 3627.46   3
  -4   2  -6 29731.9 1678.28   3
   4  -2  -6 23453.6 1882.99   6
   2   2   6 28369.9 3094.99   6
   2  -4  -6 27756.4 1799.06   6
   4  -2   6 27109.2 3530.25   6
   4  -2   6 27077.7 1764.98   5
   2  -4   6 26121.2 3261.35   2
  -2   4  -6 27138.2 2343.74   5
   2   2  -6 24240.9 2340.99   5
  -2   4   6 25036.4 3155.48   7
   2   2  -6 27673.3 1486.06   7
  -4   2  -6 26944.9 1320.99   3
  -2  -2  -6 29672.5 2337.53   9
   2  -4   6 29686.8 2786.66   1
   2   2  -6 29043.5 2042.59   7
  -4   2  -6 28358.1 1447.33   1
  -2   4   6 27561.7 2599.86   4
  -2  -2   6 27327.6 3159.21   3
  -4   2  -6 29420.7 2616.87   9
  -4   2   6 27641.1 2755.46   7
  -2   4  -6 28263.2 1873.96   7
   2   2  -6 26692.9 1736.51   4
   4  -2   7 202407. 9842.71   6
   2  -4  -7 197213. 8624.94   1
  -2   4   7 191014. 9621.49   7
  -4   2   7 200573. 9734.16   3
   2   2  -7 200550. 5148.04   7
   4  -2  -7 200353. 6103.80   6
   2  -4   7 176922. 8893.12   2
   2   2   7 208296. 8976.71   6
  -4   2  -7 177518. 4119.51   3
  -2  -2   7 204780. 9567.81   3
   2   2  -7 192884. 7556.76   5
  -2   4  -7 194762. 7298.27   5
  -4   2  -7 207468. 7932.30   9
  -2  -2  -7 197236. 6648.07   1
   4  -2  -7 192898. 7395.16   8
   2  -4  -7 195351. 7403.08   8
   2   2   7 204284. 9998.98   7
  -2   4   7 180964. 7478.68   4
  -4   2   7 193074. 8089.55   7
  -2  -2  -7 184845. 6913.83   9
   2  -4   7 198443. 7949.46   1
  -2  -2  -8 14159.8 1577.96   1
   4  -2  -8 13039.6 1261.80   6
   2  -4  -8 15280.0 2034.09   8
   4  -2   8 13785.1 2414.60   6
   2   2   8 16597.6 2474.11   6
   2  -4   8 14450.2 2558.97   2
  -2   4   8 11996.1 2460.70   7
   4  -2  -8 14904.8 2027.75   8
  -2   4  -8 13437.5 1879.51   5
  -2  -2  -8 13710.0 1792.58   9
  -2  -2   8 9003.49 2277.99   3
  -4   2  -8 14184.4 2117.14   9
   2  -4  -8 10375.9 1965.40   1
   2   2   8 11454.4 2292.75   7
   2  -4   8 14810.5 2046.54   1
   2   2  -8 10763.8 1786.03   5
  -2   4   8 14369.1 2076.80   4
  -4   2   8 15426.8 2705.22   3
  -4   2   8 16511.6 2383.62   7
   2  -4   9 217309. 8292.73   1
   4  -2   9 235749. 10490.5   6
  -2  -2  -9 228087. 8664.48   9
  -4   2   9 220458. 10483.5   3
   2  -4   9 208939. 10128.0   2
   2   2   9 228141. 9408.02   6
   4  -2  -9 232788. 6339.55   6
  -2  -2   9 219797. 10764.9   3
   2  -4  -9 231534. 10095.9   1
   2   2  -9 229800. 9295.39   5
  -2   4  -9 214391. 8691.12   5
  -4   2  -9 228837. 9512.95   9
   4  -2  -9 219889. 9071.62   8
   2  -4  -9 226524. 9059.68   8
   2   2   9 232978. 10896.6   7
  -2  -2  -9 236198. 7639.58   1
  -2   4   9 219008. 9085.36   4
  -2   4   9 242655. 10956.6   7
  -4   2   9 231697. 9703.34   7
   4  -2  10 137311. 7760.69   6
  -4   2  10 152553. 8517.10   3
   2  -4  10 141464. 8227.35   2
   2   2  10 155551. 7276.81   6
   2  -4 -10 151476. 8152.93   1
  -2  -2  10 143932. 8501.23   3
   4  -2 -10 145747. 7545.32   8
  -2  -2 -10 149920. 7161.46   9
   2   2 -10 147303. 7561.74   5
  -2   4 -10 148392. 7308.12   5
  -4   2 -10 155274. 8074.38   9
   2   2  10 136961. 8287.96   7
  -2   4  10 144107. 7325.65   4
  -2   4  10 136394. 7987.23   7
  -2  -2 -10 146811. 5801.50   1
  -4   2  10 162828. 8079.98   7
   2  -4 -10 151459. 7593.29   8
   2  -4  10 158098. 6299.60   1
   4  -2  11 70005.8 5400.18   6
  -2   4 -11 68786.6 5083.99   5
   2  -4  11 69530.4 5701.69   2
  -4   2  11 73762.8 5866.33   3
   2   2  11 69657.2 4545.22   6
  -2  -2 -11 73932.9 5191.13   9
   2  -4 -11 75741.0 5850.07   1
  -2   4  11 65729.3 5012.68   4
  -2   4  11 67032.5 5472.89   7
   2   2 -11 67769.9 5248.78   5
  -4   2 -11 81298.1 6064.27   9
   4  -2 -11 75133.2 5622.93   8
  -2  -2  11 64063.0 5501.48   3
   2  -4 -11 68769.0 5265.73   8
   2   2  11 72998.4 5928.84   7
  -4   2  11 72612.8 5108.70   7
   4  -2  12 107077. 6789.10   6
   2  -4  12 105945. 7233.10   2
  -4   2  12 119162. 7557.77   3
  -2  -2  12 114848. 7354.76   3
   2  -4 -12 106551. 7181.77   1
   4  -2 -12 115147. 7474.54   8
  -4   2 -12 119845. 7882.48   9
  -2  -2 -12 111731. 6895.48   9
   2   2 -12 107885. 7139.64   5
  -2   4 -12 112525. 6990.09   5
   2   2  12 116924. 7570.38   7
  -2   4  12 114745. 7045.69   4
  -2   4  12 112131. 7112.44   7
  -4   2  12 113291. 6232.12   7
   2  -4 -12 109097. 7125.35   8
  -2  -2 -13 1534.17 942.791   9
  -4   2  13-672.514 1162.43   3
   4  -2  13 453.811 701.486   6
   2  -4  13 1388.07 1265.99   2
  -4   2 -13 915.446 1010.60   9
   2   2 -13 176.600 1114.46   5
   4  -2 -13 362.135 1011.89   8
  -2   4 -13-827.799 1042.65   5
   2  -4 -13 1947.92 1352.20   8
  -2  -2  13 976.115 1039.01   3
   2  -4 -13 1979.32 1449.34   1
   2   2  13 931.326 1160.10   7
  -2   4  13 1878.88 1108.18   7
  -2   4  13-295.323 1023.25   4
   4  -2  14 95658.0 6385.18   6
   2  -4  14 94063.3 7005.61   2
  -4   2 -14 117361. 8681.24   9
  -4   2  14 104201. 7160.56   3
   2   2 -14 102852. 7789.42   5
  -2  -2  14 85738.7 6275.80   3
   4  -2 -14 95327.0 7493.22   8
  -2  -2 -14 115835. 7844.16   9
   2  -4 -14 109859. 7478.59   1
  -2   4 -14 94671.5 7112.13   5
   2   2  14 108875. 7344.30   7
  -2   4  14 91025.8 6385.91   4
   2  -4 -14 98334.6 7526.49   8
  -2   4  14 102307. 6788.22   7
   4  -2  15 51525.5 4575.59   6
  -4   2  15 48284.6 4837.26   3
  -2  -2  15 40330.3 4253.22   3
   2   2 -15 49541.7 5381.92   5
  -2   4 -15 52652.8 5211.73   5
  -2  -2 -15 46498.2 4882.40   9
   2  -4 -15 47505.3 5035.35   8
   2  -4 -15 56179.7 5188.54   1
   4  -2 -15 61489.9 5849.71   8
  -2   4  15 50931.6 4712.26   7
   2   2  15 54210.0 5170.37   7
  -2  -2  16 6453.78 1834.25   3
   2   2  16 6561.39 1992.29   7
  -2  -2 -16 7791.05 2082.58   9
  -2   4  16 8182.65 1932.04   7
   4  -3   0 54221.3 3962.59   6
   4  -1   0 55859.1 3782.83   6
  -4   1   0 54193.5 3975.59   3
   3   1   0 56007.9 3809.89   6
   1  -4   0 64397.0 3324.78   9
  -1   4   0 54740.6 3357.38   4
  -3  -1   0 58442.1 3492.71   3
   4  -1   0 60973.4 2050.25   5
  -1  -3   0 47152.5 3112.40   3
   1  -4   0 54839.8 3572.33   1
   4  -3   0 63637.1 5472.20   1
   1   3   0 56530.8 4375.94   7
   1   3   0 54921.5 3228.17   4
  -1   4   0 56949.6 3524.09   7
  -3   4   0 66272.7 3451.99   9
  -3   4   0 54793.7 3388.54   7
  -4   3   0 43951.6 3116.63   7
  -3   4   0 58382.7 3450.91   4
   3  -4   0 53507.6 4123.56   1
  -3   4   1 7021.93 1280.90   4
  -3   4  -1 5752.62 1115.29   4
   3  -4   1 9074.26 1657.72   1
  -4   3   1 8881.24 1524.41   7
   4  -3  -1 10265.8 2409.40   1
   4  -3   1 7143.93 1568.25   6
   4  -3  -1 10473.5 1641.48   6
   4  -1   1 7577.57 1523.98   6
   4  -1  -1 5830.89 1245.28   6
   4  -3   1 8010.98 1914.40   1
   3   1   1 7728.71 1482.60   6
   3   1  -1 7184.17 1375.25   6
  -3   4  -1 10243.4 1605.17   9
   4  -1   1 8225.94 562.808   5
  -1  -3  -1 5771.36 1046.32   3
   1  -4  -1 8604.63 833.243   9
   4  -1  -1 8794.50 870.322   5
   1  -4   1 6523.65 1370.20   1
   1   3  -1 7979.34 1647.85   7
  -3   4  -1 6796.44 1224.90   7
  -1  -3  -1 8826.82 722.683   8
   3  -4  -1 9099.82 1901.44   1
  -1  -3   1 8335.92 720.607   8
  -4   1   1 6666.87 1600.51   3
  -3  -1   1 10340.7 1584.52   3
  -3  -1  -1 9329.10 1318.09   3
  -3   4   1 9213.39 910.947   9
  -4   3  -1 7359.90 1046.89   9
   4  -1   1 7106.99 556.229   5
  -1  -3   1 6952.28 1256.12   3
   1   3   1 9969.59 1978.91   7
   1  -4   1 8509.83 1385.51   9
   1  -4  -1 8319.11 1344.05   1
  -1   4   1 7408.67 1405.20   7
  -1   4  -1 7099.52 1250.17   7
   1   3   1 6321.61 1205.30   4
  -3   4   1 5382.65 1229.27   7
   1   3  -1 7354.61 1184.17   4
  -4   1  -1 9333.87 1562.92   3
  -1   4   1 6479.44 1293.97   4
  -4   3  -1 6925.42 1155.59   7
  -1   4  -1 8848.91 1445.05   4
   4  -3   2 69772.7 5089.00   6
   4  -3  -2 71208.5 4073.67   6
   3  -4  -2 83188.8 5233.17   1
   4  -1   2 72206.1 4706.19   6
   4  -1  -2 70765.9 3991.78   6
  -4   3  -2 77008.3 3525.02   9
   3   1   2 72832.6 4616.11   6
  -4   1   2 71914.5 5469.31   3
  -4   1  -2 77131.0 3973.84   3
   3   1  -2 71680.1 4222.10   6
   3  -4   2 81759.5 5022.51   1
   1   3   2 80586.4 4918.60   6
   4  -3   2 87620.5 5277.45   1
  -3  -1   2 68965.4 4327.78   3
  -1   4   2 76051.0 4755.94   7
  -3  -1  -2 70647.9 3480.92   3
   3   1  -2 70941.0 3352.85   5
  -1  -3   2 70938.4 4045.56   3
  -4   3   2 79825.3 2899.35   5
  -3   4  -2 80652.1 4646.85   9
   1  -4   2 71834.9 4360.46   9
   4  -1  -2 76516.8 3357.30   5
   4  -1   2 74386.6 2624.48   5
  -1  -3   2 80449.7 3071.65   8
   3   1  -2 75884.5 2915.18   8
  -1  -3  -2 82354.2 3040.50   8
   3   1   2 73807.7 2906.39   8
  -1  -3  -2 70372.4 3642.85   3
   1  -4  -2 75263.0 4253.91   1
   1   3   2 73858.3 5846.24   7
   1   3  -2 75443.8 4333.64   7
   1   3   2 71483.2 3956.89   4
  -1   4  -2 72758.8 3590.18   7
  -1   4   2 69992.4 3941.99   4
   1   3  -2 67964.3 3544.97   4
  -3   4   2 71653.1 4274.69   7
  -3   4  -2 71229.4 3715.33   7
  -4   3   2 73915.5 4244.24   7
  -1   4  -2 64852.5 3714.66   4
  -3   4   2 68201.0 3725.25   4
   4  -3  -2 87590.6 6586.51   1
   1  -4   3 179356. 6742.83   2
   4  -3   3 181231. 9006.92   6
   1   3  -3 195696. 6822.33   7
   4  -1   3 183081. 8187.55   6
   3  -4  -3 195575. 8590.01   1
   4  -1  -3 186361. 6779.93   6
   3   1   3 190064. 8011.57   6
  -4   1   3 192858. 9815.40   3
   3   1  -3 188085. 7208.93   6
  -4   1  -3 186415. 6245.25   3
   1   3   3 193970. 8086.70   6
  -3  -1   3 192434. 8113.97   3
  -3  -1  -3 187932. 5945.33   3
  -3   4  -3 189435. 5814.60   5
   4  -3  -3 180338. 6640.10   6
   3   1  -3 184749. 6199.90   5
  -1  -3   3 180158. 7161.95   3
  -3   4  -3 197961. 7879.42   9
  -4   3   3 205649. 6420.30   5
   1  -4   3 175370. 7566.88   9
   4  -1  -3 190410. 6674.82   5
   4  -1   3 181170. 5640.62   5
   1  -4   3 188377. 7184.54   3
  -1  -3  -3 173204. 6165.19   3
  -4   3  -3 179127. 4285.50   5
   3   1  -3 173849. 5696.08   8
   4  -3   3 192269. 7625.37   1
  -1   4  -3 185749. 6769.32   4
  -1  -3   3 186048. 5933.76   8
   3   1   3 177221. 5756.03   8
   4  -3  -3 195891. 9937.97   1
   1   3   3 187995. 9764.75   7
   3   1  -3 186718. 5293.82   4
  -1   4   3 184085. 8198.67   7
  -1   4   3 176586. 6861.78   4
   1  -4  -3 182025. 7170.10   1
  -1   4  -3 179303. 5952.91   7
  -3   4   3 185553. 7595.10   7
   1   3  -3 182215. 6268.50   4
  -3   4  -3 179620. 6374.98   7
  -4   3   3 179994. 7264.74   7
   3  -4   3 182381. 7979.88   1
  -3   4   3 193769. 6823.42   4
  -4   3  -3 194250. 6474.84   9
  -1  -3  -3 207365. 6069.93   8
   4  -1  -3 190456. 4765.16   4
   4  -1  -4 15125.4 1827.03   5
  -1   4  -4 10464.9 1531.46   4
   4  -3  -4 13723.4 1519.05   6
   1  -4  -4 16099.6 1979.48   1
  -4   1  -4 14869.1 1344.95   3
   4  -3   4 10229.2 2321.97   6
   4  -1   4 11854.4 2088.10   6
  -4   3  -4 13896.2 1151.61   5
   1  -4   4 13778.3 1877.57   2
   4  -1  -4 14811.0 1691.49   6
   3   1   4 15854.7 2322.91   6
   3   1  -4 12260.3 1765.69   6
   1   3   4 14310.6 2195.76   6
   1   3  -4 12173.8 1644.26   5
   4  -3   4 12753.4 1630.77   1
  -3   4  -4 13128.1 1403.19   5
   3  -4   4 16150.7 2251.02   1
  -3  -1  -4 11960.9 1184.60   3
  -4   3   4 16019.6 1801.60   5
   4  -3  -4 18139.6 2943.86   1
   4  -1   4 12850.5 1402.03   5
  -1  -3   4 16024.3 1612.68   8
  -1  -3  -4 11751.9 1260.12   9
   1  -4   4 12784.7 1784.16   3
   3   1  -4 12253.8 1469.52   5
  -4   1  -4 11627.5 1567.16   9
   3   1   4 17715.1 1654.05   8
  -4   1   4 12924.0 2623.76   3
   1  -4   4 18718.4 2240.65   7
   4  -3  -4 12768.3 1194.78   4
   1   3  -4 14176.9 1455.02   7
  -3  -1   4 13815.8 2108.62   3
   3   1  -4 14361.1 1081.01   4
  -4   3  -4 12654.5 1567.12   9
   4  -1  -4 11811.5 575.321   4
  -1   4  -4 12140.5 1238.61   7
   1   3  -4 12512.2 1457.32   4
  -1  -3   4 17277.6 2106.85   3
   3  -4  -4 13263.9 2137.12   1
   1   3   4 13471.1 2646.87   7
  -1   4   4 13390.1 2347.90   7
  -1  -3  -4 14866.2 1526.28   8
  -3   4  -4 15718.1 2170.75   9
  -3   4   4 12039.5 2065.02   7
  -1   4   4 14352.4 1881.48   4
  -4   3   4 12796.7 1912.01   7
  -3   4  -4 10445.0 1354.35   7
  -3   4   4 13434.2 1678.76   4
   4  -3   5 79686.1 6358.40   6
   1  -4   5 68040.5 4542.32   2
   4  -3  -5 65319.8 3247.16   6
   4  -1   5 67600.3 5088.05   6
   3  -4  -5 60906.8 1927.96   2
   3   1   5 74519.1 4114.41   3
   3   1   5 66691.6 4746.97   6
  -3   4  -5 61216.5 3309.04   7
   4  -1  -5 69562.1 3696.46   6
  -4   1   5 65798.9 5418.20   3
   3  -4  -5 68244.5 4988.71   1
   3   1  -5 68100.3 4040.85   6
   1   3   5 70281.3 4738.59   6
  -3  -1   5 70116.5 5254.99   3
  -4   1  -5 67168.5 2617.86   3
  -1   4  -5 69042.3 3853.64   5
   1   3  -5 63424.4 3807.16   5
  -1  -3   5 66041.2 4420.20   3
  -3   4  -5 64957.1 3360.69   5
   3   1  -5 63451.4 3671.03   5
  -4   1  -5 73112.8 4083.10   1
  -3   4  -5 66254.1 4616.45   9
  -3  -1  -5 66238.9 2821.41   3
  -4   3   5 71047.1 4035.79   5
   4  -1   5 70063.9 3620.15   5
  -4   3  -5 68150.8 3941.67   9
   1  -4   5 74862.3 4431.91   3
   4  -1  -5 72534.5 4229.29   5
  -1  -3  -5 64322.0 3705.85   1
  -4   3  -5 67093.1 2775.61   1
  -4   1  -5 63875.8 3768.34   9
  -3  -1  -5 63885.1 3610.69   9
  -1  -3  -5 66956.6 3190.00   9
  -1   4   5 65863.5 5221.38   7
  -1  -3   5 70387.9 3781.32   8
   4  -1  -5 65633.4 3524.73   8
   1  -4  -5 65558.2 3453.98   8
   4  -3  -5 72373.9 5701.43   1
   1   3   5 52880.7 4915.58   7
   1   3  -5 65658.1 2787.26   7
  -1   4   5 62358.0 4060.86   4
   1  -4  -5 64139.8 4118.87   1
  -3   4   5 69833.8 4816.15   7
  -3   4   5 67083.9 3848.17   4
  -1   4  -5 63602.0 2836.12   7
   1  -4   5 72713.9 4075.32   7
  -4   3   5 71709.4 4540.45   7
   3   1  -5 67615.4 2338.70   4
   3  -4   5 78160.3 4892.44   1
   3   1   5 65283.5 3640.52   8
  -1   4  -5 63327.9 3804.40   4
   1   3  -5 65463.7 3424.46   4
  -4   3  -5 81910.1 3616.53   5
   3  -4  -6 15040.1 2562.38   1
   4  -3  -6 17004.9 1457.30   6
   4  -1  -6 17713.8 1793.06   6
  -4   3  -6 17099.6 1324.74   3
   1  -4  -6 17214.9 1825.94   8
   1   3  -6 18126.0 1731.70   4
   4  -1  -6 18993.0 2214.89   5
   4  -3   6 18559.5 3032.12   6
  -1  -3  -6 16165.1 1874.35   1
  -4   1   6 11493.2 2334.35   3
   4  -1   6 17551.5 2688.10   6
   1  -4  -6 15607.5 2049.57   1
   3   1   6 18429.3 2512.28   6
  -1   4  -6 16369.6 1216.12   7
  -4   1  -6 16962.8 897.346   3
   1   3   6 18400.4 2437.36   6
   3   1  -6 15094.2 1864.36   6
   3  -4   6 17358.8 2120.15   1
  -1   4  -6 15681.8 1890.36   5
   1   3  -6 18389.2 2093.97   5
   3   1  -6 17785.2 2000.59   5
  -3   4  -6 17466.3 1835.73   5
   4  -1   6 17632.6 1892.95   5
  -1   4   6 16690.8 2806.81   7
  -3  -1  -6 14446.5 1151.53   3
  -3   4  -6 17011.9 2466.38   9
  -4   3  -6 21683.7 1994.98   5
  -4   3  -6 14788.6 1957.18   9
  -3  -1  -6 15172.7 1798.12   9
  -4   1  -6 13131.3 1733.34   9
   4  -1  -6 14601.2 1773.67   8
  -3  -1   6 20704.4 3069.06   3
  -1  -3  -6 15361.8 1555.53   9
   4  -3  -6 15872.4 2765.94   1
   1   3  -6 16855.0 1047.54   7
  -1  -3   6 19630.3 2502.96   3
   1   3   6 13707.9 2441.36   7
  -3   4   6 18934.1 2073.85   4
   1  -4   6 17059.8 2191.29   3
  -1   4   6 14424.0 2040.77   4
  -3   4   6 19999.1 2732.32   7
  -4   3   6 16755.3 2356.36   7
   1  -4   6 17584.2 2520.61   2
   3  -4  -6 18342.0 1612.15   6
   3  -4  -7 82801.1 3219.53   6
   4  -3   7 80655.2 6114.04   6
   1  -4   7 83783.3 5975.84   2
   4  -1   7 78438.3 5995.75   6
   4  -3  -7 78003.7 3218.64   6
   3   1   7 80124.6 5573.76   6
  -4   1   7 74858.6 5858.39   3
   4  -1  -7 78688.8 3930.38   6
  -4   1  -7 81679.0 4686.10   9
   1   3   7 87547.4 5516.86   6
  -4   3   7 85981.8 5474.61   7
  -3  -1   7 95774.0 6916.07   3
   3  -4  -7 80926.1 5762.17   1
  -4   3  -7 85499.7 4370.78   5
  -1  -3   7 75799.3 5307.52   3
  -1   4  -7 80506.9 4585.28   5
   1   3  -7 83866.2 4745.39   5
   3   1  -7 82921.3 4700.79   5
  -3   4  -7 77619.0 4248.36   5
  -3   4  -7 87766.6 5604.33   9
  -1   4   7 76692.0 4942.32   4
   1  -4   7 80260.3 5045.53   3
  -4   3  -7 82162.3 5006.45   9
  -1  -3  -7 80426.2 4021.48   9
  -3  -1  -7 78026.6 4406.03   9
   4  -1  -7 92603.0 5216.32   5
   4  -1  -7 84047.1 4633.54   8
   1  -4  -7 85495.7 4545.99   8
  -1  -3  -7 75763.6 4225.84   1
   4  -3  -7 88824.1 6415.58   1
  -1   4   7 81716.0 6205.27   7
  -3   4   7 82496.8 5826.43   7
  -3   4   7 83326.1 4537.80   4
   1  -4  -7 82679.1 5006.13   1
   1   3   7 85889.3 6250.08   7
   3  -4   7 87740.0 4528.16   1
  -4   3   8 1860.17 1373.44   3
  -1  -3  -8 1576.01 611.496   1
   4  -3   8 1253.35 897.275   6
  -4   1   8 636.807 899.460   3
   4  -1   8 404.894 1170.09   6
   3   1   8 1266.19 1133.51   6
   4  -3  -8 1894.45 430.597   6
   1  -4   8 1524.79 1472.98   2
   4  -1  -8 1559.95 597.831   6
   1   3   8 2001.45 1052.90   6
   3  -4  -8 2016.58 1321.08   1
   3  -4   8 2706.08 824.789   1
   1  -4  -8 666.072 637.507   1
  -3   4  -8 892.965 1014.10   9
   1  -4  -8 648.954 709.221   8
  -3  -1  -8 473.830 589.238   9
   1   3  -8 1290.62 663.068   5
  -1   4  -8 1974.75 798.523   5
  -4   3  -8 1318.56 1038.24   9
   3   1  -8 2926.80 1087.69   5
  -4   1  -8 1533.26 933.464   9
  -3   4  -8 1060.62 565.494   5
   4  -1  -8 1861.07 922.893   5
   4  -3  -8 2952.73 1391.32   1
   4  -1  -8 1758.21 912.656   8
   4  -3  -8 985.224 858.827   8
   3  -4  -8 1561.73 970.640   8
  -4   3  -8 1952.38 776.949   5
  -3  -1   8 674.876 1146.51   3
  -1  -3  -8 2252.01 837.221   9
  -1  -3   8 2097.40 1103.66   3
   1   3   8 2245.11 1275.28   7
  -1   4   8 3529.31 1531.14   7
   1  -4   8 1221.94 661.260   3
  -1   4   8 1711.19 1070.64   4
  -3   4   8 706.284 1176.80   7
  -4   3   8 1652.41 1066.80   7
  -3   4   8 1304.09 734.460   4
  -3  -1  -8 1296.49 434.841   1
  -4   1  -9 8833.79 1754.34   9
  -3  -1  -9 7274.57 985.462   1
   3  -4  -9 12063.9 2526.79   1
  -1  -3  -9 5700.00 1220.36   1
   4  -3  -9 8297.80 1977.98   1
   4  -3   9 9052.24 2031.09   6
   4  -1   9 8026.36 2026.56   6
   3   1   9 9785.05 1991.01   6
   1  -4   9 5029.58 1686.80   2
   1   3   9 7553.51 1531.42   6
   4  -1  -9 7970.10 1157.82   6
   4  -3  -9 9601.62 1728.10   8
   3  -4   9 6487.27 1745.80   2
  -3   4  -9 7571.08 1881.13   9
  -4   3   9 8737.04 2150.34   3
  -4   3  -9 7727.20 1800.14   9
  -3  -1  -9 6663.30 1412.86   9
   1   3  -9 8329.13 1693.79   5
  -1   4  -9 5981.33 1308.53   5
   3   1  -9 7710.10 1705.01   5
  -3   4  -9 9610.59 1724.47   5
   4  -1  -9 10503.2 1872.82   8
   1  -4  -9 8461.81 1720.37   8
   4  -1  -9 9101.55 1691.87   5
   3  -4  -9 10201.2 1780.33   8
  -4   3  -9 8839.16 1516.36   5
  -3  -1   9 7536.29 2063.97   3
  -1  -3   9 5806.33 1867.11   3
  -4   1   9 8141.97 1992.89   3
   1   3   9 10586.8 2120.60   7
  -1  -3  -9 8594.20 1563.49   9
   1  -4   9 9188.17 1867.57   3
  -1   4   9 10878.4 2334.25   7
  -1   4   9 7037.94 1786.69   4
  -3   4   9 9425.02 2370.56   7
  -4   3   9 9311.76 2091.99   7
  -3   4   9 9978.54 1702.19   4
   1  -4  -9 8086.96 1684.54   1
  -4   1  10 15483.5 2650.91   3
  -1  -3 -10 20338.5 2239.95   1
   4  -3  10 17762.4 2863.54   6
   4  -1  10 19617.6 2888.76   6
   1  -4  10 15789.1 2794.59   2
   3   1  10 17997.2 2641.21   6
  -1  -3 -10 14521.8 2082.00   9
   1   3  10 16706.1 2046.64   6
  -1   4 -10 22615.1 2761.75   5
  -3   4 -10 19339.7 2879.65   9
   3  -4  10 14555.9 2609.26   2
  -4   3 -10 15645.4 2675.45   9
  -4   3  10 18302.5 3065.13   3
  -4   1 -10 19415.3 2707.71   9
  -3  -1 -10 14010.4 2149.11   9
   1   3 -10 18949.2 2569.37   5
   3   1 -10 17207.1 2496.97   5
  -3   4 -10 15677.1 2281.19   5
   1  -4 -10 15142.5 2356.74   8
   4  -1 -10 18602.7 2714.05   8
   4  -3 -10 17154.5 2812.16   1
   4  -1 -10 19158.2 2582.11   5
   3  -4 -10 20350.9 3224.20   1
  -4   3 -10 15182.5 2015.15   5
   4  -3 -10 21207.2 2757.80   8
   1   3  10 17938.2 2863.81   7
   3  -4 -10 19263.3 2647.75   8
  -3  -1  10 16880.4 2887.45   3
   1  -4 -10 17552.9 2488.26   1
  -3   4  10 21381.8 2490.59   4
  -1  -3  10 14743.6 2700.48   3
   1  -4  10 17262.8 2717.10   3
  -1   4  10 16940.7 2814.22   7
  -1   4  10 17052.1 2660.27   4
  -3   4  10 18689.5 3047.53   7
  -4   3  10 16667.3 2698.85   7
   4  -3  11 9487.34 2088.45   6
   4  -1  11 8362.97 1936.87   6
   1  -4  11 6709.23 1989.70   2
  -1   4 -11 7832.60 1748.22   5
   3   1  11 9008.22 1802.60   6
   3  -4  11 7885.78 1996.69   2
  -1  -3 -11 11005.4 1692.03   1
  -4   3 -11 8400.44 2157.34   9
  -1  -3 -11 9862.41 1892.42   9
  -4   1 -11 7382.45 1930.07   9
  -4   3  11 9126.64 2227.83   3
  -3  -1 -11 8476.18 2002.56   9
  -1  -3  11 8365.59 2007.08   3
   1   3 -11 11907.6 2274.40   5
   3   1 -11 10006.9 2131.17   5
   4  -1 -11 7051.56 1734.79   8
   1  -4 -11 10880.3 2248.71   8
  -4   1  11 7938.07 2004.85   3
  -3   4 -11 7226.18 1835.11   5
   4  -3 -11 8457.56 1969.18   8
   3  -4 -11 5374.19 1478.11   8
   4  -1 -11 9594.41 1942.18   5
  -4   3 -11 8468.81 1670.54   5
  -3  -1  11 7422.58 2097.14   3
   1   3  11 8377.68 2073.34   7
   1  -4  11 9479.97 1995.97   3
   1  -4 -11 11033.6 2078.60   1
  -1   4  11 10842.0 2306.09   7
  -3   4  11 9612.81 2189.00   7
  -1   4  11 10058.0 2180.33   4
   3  -4 -11 11035.5 2403.03   1
  -4   3  11 12315.5 2348.83   7
  -3   4  11 8016.95 1707.74   4
   4  -3  12 60339.1 5190.09   6
   1  -4  12 62100.1 5621.10   2
  -1  -3 -12 66265.8 4422.69   1
   4  -1  12 67266.4 5213.46   6
  -4   3  12 58488.6 5496.68   3
   3   1  12 68951.2 4828.47   6
  -4   1  12 66182.5 5602.38   3
   3  -4  12 60570.9 5536.14   2
   1  -4  12 57084.8 4704.09   3
   3  -4 -12 65878.9 5511.08   8
   1  -4 -12 71328.0 5500.58   1
  -3  -1  12 67932.6 5627.86   3
  -1  -3  12 56434.1 5114.47   3
  -1  -3 -12 60818.4 4865.80   9
  -4   3 -12 74050.2 6420.42   9
   1   3 -12 65266.7 5410.64   5
  -1   4 -12 59660.6 5078.06   5
  -4   1 -12 71291.8 5856.30   9
  -3  -1 -12 61364.6 5196.83   9
   3   1 -12 63676.2 5706.82   5
  -3   4 -12 65990.0 5207.98   5
   3  -4 -12 71289.5 6042.75   1
   4  -1 -12 61988.5 4921.40   5
   4  -1 -12 65315.2 5556.57   8
   1  -4 -12 64946.4 5496.82   8
   4  -3 -12 60225.7 5351.69   8
   3   1  12 61380.1 5782.71   7
  -1   4  12 62848.2 5689.10   4
   1   3  12 62229.2 5475.34   7
  -1   4  12 62344.3 5344.96   7
  -3   4  12 65844.9 5443.82   7
  -4   3  12 64814.5 5145.87   7
   3  -4  12 55036.8 5107.17   6
   1  -4 -13 5720.28 1785.31   8
   3   1  13 2283.62 1300.26   7
   3  -4  13 2352.49 1106.79   6
   4  -3  13 5098.69 1629.18   6
   4  -1  13 3535.50 1178.83   6
   1  -4  13 6682.40 2100.72   2
   1  -4 -13 4777.62 1500.20   1
   3  -4 -13 3050.77 1165.01   1
   3  -4  13 2605.53 1498.17   2
  -1  -3 -13 4705.66 1473.24   9
  -3  -1 -13 5629.52 1800.44   9
  -4   3 -13 1706.04 963.656   9
   4  -3 -13 2697.86 1449.98   8
   3  -4 -13 3987.32 1669.10   8
  -4   3  13 5390.69 1671.83   3
   4  -1 -13 3135.86 1436.35   8
   3   1 -13-255.579 1404.69   5
  -3   4 -13 5896.33 1581.31   5
  -4   1  13 6517.45 1891.35   3
   4  -1 -13 3040.52 1243.16   5
  -3  -1  13 6385.80 1830.01   3
  -4   1 -13 2697.35 1353.85   9
   1   3 -13 4057.50 1424.92   5
  -1  -3  13 2954.86 1140.23   3
   1   3  13 2859.15 1174.40   7
   1  -4  13 3439.68 1213.25   3
  -1   4  13 5363.42 1579.12   7
  -1   4  13 2538.81 1423.29   4
  -3   4  13 3267.37 1345.94   7
  -4   3  13 3670.54 1332.77   7
  -1   4 -13 6961.08 1822.37   5
   4  -3  14 26709.5 3424.49   6
   4  -1  14 29216.9 3365.49   6
  -4   1 -14 27782.5 4098.20   9
   1   3 -14 25764.8 3792.33   5
   3  -4 -14 32771.2 4408.67   8
   3  -4  14 25521.9 3472.64   6
  -3  -1  14 28173.3 3593.23   3
   1  -4  14 21542.9 3414.88   2
   3  -4  14 29095.4 3916.65   2
   1  -4 -14 30197.0 3699.61   1
  -4   3 -14 28021.0 3947.93   9
  -3   4  14 29148.4 3932.52   3
  -3  -1 -14 29225.2 4032.83   9
  -4   3  14 28315.7 3763.81   3
  -1   4 -14 26874.9 3713.14   5
   4  -1 -14 25069.1 3433.55   8
   1  -4 -14 25534.8 3411.64   8
   4  -3 -14 25264.1 3865.43   8
   3   1 -14 26621.3 3724.05   5
  -3   4 -14 24090.4 3197.19   5
  -4   1  14 24755.0 3405.47   3
   4  -1 -14 30214.0 3600.96   5
  -1  -3  14 23615.3 3167.34   3
   3   1  14 26834.9 3750.21   7
   1   3  14 25862.6 3538.74   7
  -1   4  14 26421.3 3469.02   7
  -1   4  14 29839.1 3876.49   4
   3  -4 -14 28877.5 3768.87   1
  -3   4  14 22063.9 3035.54   7
   3  -4  15 388.544 682.282   6
   4  -3  15 2530.54 1184.22   6
  -3  -1 -15 1384.02 1063.40   9
  -4   3  15 5403.44 1820.05   3
  -1   4  15 588.978 839.502   4
   3   1 -15 2654.56 1399.81   5
  -3   4 -15 2714.97 1268.68   5
   3  -4 -15 1529.18 1149.77   1
  -3  -1  15 737.550 735.430   3
  -3   4  15 3632.34 1626.67   3
  -1  -3  15 1579.51 812.965   3
   3   1  15 2674.74 1199.16   7
   1   3  15 2812.86 1301.09   7
  -1   4  15 3971.35 1598.18   7
   4  -1 -15 1341.12 964.914   5
  -3   4  15 1147.78 837.765   7
  -4   1  15 4659.94 1660.58   3
  -4   4   0 1015.79 379.800   9
   4  -4   0 1025.34 828.820   6
   4  -4   0 1151.90 1426.26   1
   4   0   0 1079.44 855.578   6
   4   0   0 749.648 391.849   5
   0   4   0 944.821 555.042   2
  -4   0   0 1565.38 754.100   3
   0   4   0 1013.71 901.457   7
   0  -4   0 576.634 478.129   3
   0   4   0 1020.36 677.093   4
  -4   4   0 3678.36 1028.63   7
   4  -4   1 983.243 950.536   6
   4  -4  -1 648.049 1013.45   6
   4  -4   1-111.786 1385.39   1
   4   0   1 104.150 641.630   6
   4   0  -1-181.050 695.153   6
   4  -4  -1 847.447 1405.47   1
   0   4   1-287.139 704.185   2
   4   0  -1 400.874 390.403   5
  -4   4  -1 651.227 286.033   5
  -4   4   1-243.855 410.455   9
  -4   0   1 1248.29 1009.02   3
  -4   0  -1 322.724 559.896   3
  -4   4  -1 622.669 448.866   9
   0   4   1-179.556 924.415   7
   0   4  -1 1243.60 728.661   7
   0  -4   1 25.9524 626.036   3
   0   4   1 1362.96 811.688   4
  -4   4   1 1144.74 872.388   7
  -4   4  -1-78.5021 666.643   7
   0   4  -1 361.706 644.799   4
   4  -4  -2 87573.3 5022.21   6
   4   0   2 87387.9 5300.57   6
   4   0  -2 86883.3 4739.09   6
   0   4   2 83786.6 4182.81   2
  -4   0   2 79967.8 5213.65   3
  -4   0  -2 82027.3 4049.21   3
   4  -4   2 89400.7 6488.27   1
   4  -4  -2 97504.8 6790.96   1
  -4   4  -2 89962.4 4231.07   9
  -4   4  -2 84557.5 3000.52   5
   4   0  -2 79498.4 3499.53   5
   0  -4   2 78898.6 4522.95   3
  -4   4   2 84971.6 3140.98   9
  -4   4   2 88962.1 3509.22   5
   0   4   2 69089.3 4210.20   4
   0   4  -2 73288.5 4122.16   4
   0   4   2 77398.8 5380.75   7
   0   4  -2 80678.0 4184.52   7
  -4   4   2 76738.2 4665.23   7
  -4   4  -2 73452.5 4136.66   7
   4  -4   2 92471.3 6553.53   6
   4  -4  -3 55513.2 3697.23   6
   4   0   3 55406.5 4322.96   6
   4   0  -3 46881.7 3441.81   6
   0   4   3 53530.4 2980.14   2
  -4   0   3 50094.5 4339.30   3
  -4   0  -3 48803.2 2827.14   3
   4  -4   3 52238.8 4553.89   1
   4  -4  -3 59100.3 5260.09   1
   0   4   3 47277.1 4414.73   7
   4   0  -3 55040.1 2998.16   5
  -4   4  -3 54588.2 2483.83   5
   0  -4   3 46012.7 3440.49   3
  -4   4  -3 50710.7 3376.81   9
   0  -4  -3 49587.5 2167.70   9
  -4   4   3 54765.7 2940.06   5
   0  -4  -3 51141.7 2611.17   8
   0   4   3 52029.2 3693.13   4
   0   4  -3 51982.3 2999.87   7
  -4   4   3 49317.8 3765.93   7
   0   4  -3 45991.1 3179.13   4
  -4   4  -3 50411.8 3314.90   7
   0  -4  -3 44855.8 3345.95   1
   4  -4   3 52328.1 5316.40   6
   4  -4  -4 46086.6 3136.69   6
   4   0   4 49012.5 4196.17   6
   4   0  -4 43304.2 3199.34   6
  -4   0   4 44606.6 4322.56   3
   4  -4   4 49257.8 4103.92   1
  -4   0  -4 46341.8 2478.21   3
   4  -4  -4 44149.2 4602.52   1
   4   0  -4 46385.6 2998.62   5
  -4   4  -4 48744.2 2600.88   5
   0   4   4 39584.6 4311.19   7
   0  -4   4 43599.4 3496.57   3
  -4   4  -4 48600.7 3534.89   9
   0  -4  -4 45865.0 2145.91   9
   0  -4  -4 45915.3 3364.74   1
   0  -4  -4 52059.6 2880.23   8
   4   0  -4 44759.7 1625.59   4
   0   4   4 41437.5 3423.82   4
   0   4  -4 44742.2 2529.83   7
  -4   4   4 46427.4 3833.75   7
   0   4  -4 43745.8 3069.08   4
  -4   4   4 44504.8 3142.05   4
   4  -4   4 45751.6 5109.14   6
   4  -4  -5 141618. 5438.34   6
   4   0   5 142850. 7619.59   6
   4   0  -5 124991. 5807.92   6
  -4   0   5 138781. 8378.35   3
   4  -4   5 135415. 6442.94   1
  -4   0  -5 128135. 4213.34   3
   0   4  -5 127674. 5847.59   5
   4  -4  -5 128467. 8177.45   1
   4   0  -5 136584. 5836.67   5
   0  -4   5 135638. 6598.50   3
  -4   4  -5 132901. 5132.24   5
  -4   4  -5 131874. 6592.38   9
   0  -4  -5 133849. 4397.08   9
  -4   0  -5 121359. 5621.23   9
   4   0  -5 135900. 5604.75   8
   0  -4  -5 141489. 5605.54   8
   0  -4  -5 120893. 5848.83   1
   0   4   5 131597. 6555.41   4
   0   4   5 128110. 8339.72   7
   0   4  -5 120877. 4303.96   7
  -4   4   5 146326. 7283.69   7
   0   4  -5 126107. 5591.06   4
  -4   4   5 129282. 5612.83   4
   4  -4   5 117966. 8203.55   6
   4  -4  -6 38350.4 2416.85   6
   4   0   6 37615.6 4061.35   6
   4   0  -6 35526.6 2906.80   6
   4   0  -6 37794.1 3114.75   5
  -4   0   6 38133.3 4478.86   3
   4  -4   6 35720.1 4345.09   6
   4  -4   6 37297.4 2998.40   1
   0   4  -6 34956.4 2993.60   5
  -4   0  -6 39727.4 1779.93   3
   4  -4  -6 44115.6 4695.68   1
   0  -4   6 38448.1 3522.65   3
  -4   4  -6 36800.2 3620.54   9
  -4   4  -6 37441.1 2744.87   5
   0  -4  -6 39301.1 2366.59   9
  -4   0  -6 33348.9 2836.38   9
   4   0  -6 40406.3 3121.21   8
   0  -4  -6 41213.5 3096.27   8
   0  -4  -6 36732.5 3104.89   1
   0   4   6 33736.7 3360.06   4
   0   4   6 35882.8 4226.93   7
   0   4  -6 34033.6 1751.51   7
  -4   4   6 34724.2 3623.97   7
  -4   4   6 34317.7 2756.17   4
   0   4  -6 36762.4 2878.55   4
   4  -4  -7 114637. 4099.07   6
   4   0   7 117682. 7421.53   6
   4   0  -7 109288. 5374.30   6
  -4   0   7 103463. 7493.77   3
   0   4  -7 115613. 5835.82   5
   0  -4   7 111277. 6465.03   3
   4  -4   7 125507. 5220.63   1
   4  -4  -7 118172. 8009.91   1
  -4   4  -7 115958. 6910.38   9
   4   0  -7 115713. 6111.15   5
  -4   4  -7 122873. 5765.54   5
  -4   0  -7 105853. 5513.94   9
   4   0  -7 112466. 5879.82   8
   0  -4  -7 113647. 5839.44   8
   0   4   7 110154. 6462.05   4
   0   4   7 115276. 7596.50   7
   0  -4  -7 108052. 5707.75   1
  -4   4   7 103779. 6720.78   7
  -4   4   7 117070. 5362.73   4
   4  -4   7 113375. 7666.36   6
   4   0   8 38189.2 4285.50   6
   4   0  -8 30884.7 2738.27   6
  -4   0   8 35990.8 4247.91   3
   4  -4   8 30050.2 3814.36   6
   0   4  -8 34529.0 3244.19   5
  -4   4   8 33778.6 2765.69   4
   0  -4   8 29807.1 3487.84   3
   0  -4  -8 36063.4 2779.48   9
  -4   4  -8 35311.4 3933.72   9
   4   0  -8 32434.7 3370.94   5
  -4   4  -8 33615.9 3045.79   5
   4  -4  -8 32320.7 4157.52   1
  -4   0  -8 33946.0 3115.18   9
   4   0  -8 38124.0 3543.48   8
   0  -4  -8 34589.6 3294.57   8
   4  -4  -8 35137.1 3201.93   8
   0   4   8 36806.3 3786.29   4
   0   4   8 29619.7 3844.48   7
   0  -4  -8 29188.4 2949.67   1
  -4   4   8 30865.7 3708.47   7
  -4   4   9 5470.48 1209.48   4
   4  -4  -9 6589.39 2127.12   1
   4  -4   9 7243.04 2107.29   6
   4   0   9 4527.95 1363.81   6
  -4   0  -9 5389.45 1460.17   9
   0  -4  -9 4701.00 1305.13   1
   0  -4  -9 5653.10 1184.74   9
  -4   4  -9 8021.33 1928.03   9
   0   4  -9 7106.59 1534.86   5
   4   0  -9 5365.82 1475.89   5
   4   0  -9 5781.26 1398.93   8
  -4   4  -9 6278.96 1411.63   5
   4  -4  -9 4525.89 1420.46   8
  -4   0   9 10459.6 2409.71   3
  -4   4   9 7971.86 2085.84   7
   0  -4   9 4669.75 1586.48   3
   0   4   9 5925.09 1923.67   7
   0  -4  -9 4384.89 1449.96   8
  -4   0 -10 18674.5 2644.33   9
   4  -4  10 13858.7 2607.80   6
   4   0  10 20178.7 2992.90   6
   4  -4 -10 22715.3 3506.82   1
   0  -4 -10 17668.8 2422.95   1
  -4   4 -10 17219.3 2834.08   9
   0   4 -10 15663.0 2374.43   5
   4   0 -10 19168.7 2562.43   8
   0  -4 -10 17976.0 2508.80   8
   4   0 -10 16775.3 2643.02   5
  -4   4 -10 17253.8 2249.34   5
   4  -4 -10 18320.3 2621.40   8
  -4   0  10 22879.2 3420.66   3
   0  -4  10 19781.1 3172.48   3
   0   4  10 18436.1 2964.18   7
  -4   4  10 14038.2 2730.36   7
   4  -4  11 530.397 1089.54   6
   4   0  11 1281.40 983.770   6
   0  -4 -11 993.118 886.174   1
  -4   4 -11 616.298 893.618   9
  -4   0 -11-502.238 758.695   9
   4   0 -11 273.144 697.696   8
   0  -4 -11-1005.04 807.744   8
   0   4 -11 493.671 637.923   5
   4   0 -11 194.818 893.133   5
  -4   4 -11 865.567 680.780   5
   4  -4 -11-624.288 1053.05   8
  -4   0  11 558.599 884.788   3
   4  -4 -11-390.805 869.097   1
   0  -4  11-291.554 1202.67   3
   0   4  11-959.466 1236.60   7
  -4   4  11-64.4273 1293.58   7
   4  -4  12 29741.0 3828.09   6
   0  -4 -12 37586.1 3790.30   1
   4   0  12 32929.9 3706.33   6
  -4   0  12 39701.7 4411.78   3
   0  -4  12 34730.3 4029.36   3
  -4   4 -12 33250.3 3985.86   9
   0   4 -12 35374.7 3993.07   5
  -4   0 -12 35209.8 4064.17   9
   4   0 -12 30789.4 3666.80   5
  -4   4 -12 35537.4 3418.50   5
  -4   4  12 34525.2 4396.94   3
   4  -4 -12 34790.4 4106.59   8
   4  -4 -12 38724.8 4461.03   1
   0   4  12 38803.6 4343.98   7
  -4   4  12 34943.7 4066.26   7
   4  -4 -13 227.049 727.258   1
   4  -4  13 130.780 933.468   6
   4   0  13 873.302 675.348   6
   4   0 -13 1727.33 1042.91   5
   4  -4  13 660.790 1089.07   2
  -4   4 -13-1438.16 949.872   9
  -4   4  13-1304.55 1223.40   3
  -4   0 -13 1524.69 1018.29   9
   0   4 -13 231.445 933.161   5
   4  -4 -13 1204.20 1025.18   8
  -4   0  13 2347.51 1296.33   3
   0  -4  13 43.8584 989.889   3
   0   4  13-619.982 772.231   7
  -4   4  13 1625.93 1178.70   7
   0  -4 -13 1734.30 969.506   1
   4  -4 -14 8249.12 2098.11   1
   4  -4  14 11936.6 2437.29   6
  -4   4 -14 9270.59 2206.98   9
  -4   0 -14 8436.88 2285.28   9
  -4   4  14 14262.9 2867.10   3
   4   0 -14 9967.80 2243.49   5
   4   0  14 8335.14 2263.45   7
  -4   0  14 10579.7 2308.29   3
   0  -4  14 10190.7 2125.14   3
   0   4  14 6001.49 1748.72   7
  -4   4  14 10236.2 2182.78   7
   4  -4  15-108.045 605.313   6
  -4   4  15 1826.87 1296.74   3
   4   0  15 2056.34 1029.97   7
   5  -3   0 34000.3 3266.78   6
   5  -2   0 29782.6 3021.91   6
  -5   2   0 36522.6 3869.08   3
   3   2   0 38969.5 3557.82   6
   2   3   0 35942.6 3560.32   6
  -3  -2   0 32954.5 2796.17   3
  -2  -3   0 34948.5 2860.74   3
   2  -5   0 39693.7 3561.40   1
   2   3   0 33840.0 2713.74   4
  -2   5   0 34497.7 2966.85   7
  -3   5   0 37107.9 3088.57   7
  -2   5   0 32547.9 2888.76   4
   2   3   0 32549.6 3993.53   7
   3  -5   0 35628.4 3561.08   1
  -3   5   0 34540.0 2920.91   4
  -2   5  -1 6521.50 1447.83   4
  -3   5   1 7808.15 1498.68   4
  -3   5  -1 2796.09 974.038   4
   2  -5   1 8532.40 1663.16   1
  -5   3   1 4203.98 1704.71   3
   2  -5  -1 6521.49 1535.01   1
   5  -3   1 9069.02 1793.42   6
   5  -3  -1 5582.29 1340.18   6
   5  -2   1 6151.05 1639.44   6
   5  -2  -1 4774.10 1289.21   6
   3   2   1 6653.80 1567.86   6
   3   2  -1 5049.81 1377.96   6
   3  -5   1 8715.29 1849.07   1
   2   3   1 7314.07 1644.50   6
   2   3  -1 6991.88 1662.90   6
   3  -5  -1 6912.37 913.150   2
   3  -5   1 7101.36 1432.99   2
   3  -5  -1 4836.43 1357.89   1
  -5   3  -1 5759.36 1106.92   9
  -5   2   1 4125.10 1433.26   3
  -5   2  -1 6184.87 1466.91   3
  -3  -2   1 4041.92 1073.57   3
  -3  -2  -1 5108.30 981.732   3
  -2  -3   1 5939.08 1238.16   3
   2   3   1 7545.75 2325.79   7
   2   3  -1 6625.73 1796.56   7
  -2  -3  -1 5911.10 1253.40   3
   3   2  -1 5846.70 1066.70   4
   2   3   1 5078.72 1171.86   4
  -2   5   1 4579.24 1125.03   7
  -2   5  -1 6867.53 1279.63   7
  -3   5   1 6304.13 1384.54   7
   2   3  -1 5926.28 1153.61   4
  -3   5  -1 6436.73 1258.90   7
  -2   5   1 5737.53 1339.94   4
   2  -5   2 58735.7 3437.18   2
  -5   3  -2 58115.3 5121.27   3
   5  -3   2 62507.6 4970.91   6
  -5   3   2 55694.0 5612.56   3
   3  -5  -2 58019.8 2169.31   2
   5  -3  -2 58422.7 3950.24   6
   5  -2   2 61591.9 4799.20   6
   5  -2  -2 56497.7 3881.20   6
  -5   2   2 67917.6 6207.38   3
  -5   2  -2 61813.4 4255.28   3
   3   2   2 60134.9 4598.09   6
   3   2  -2 59912.8 4366.13   6
   2   3   2 61796.2 4741.46   6
   3  -5   2 60589.8 4696.76   2
  -3  -2   2 57679.4 4126.93   3
  -2  -3   2 56643.8 4005.97   3
  -3  -2  -2 55473.3 3394.36   3
  -2  -3  -2 55293.3 3505.82   3
  -5   3  -2 59385.0 3515.47   9
   2  -5   2 61594.7 4465.88   1
   2   3   2 70381.3 6356.62   7
   2   3  -2 57646.1 4683.83   7
   2   3   2 57075.6 3838.57   4
   3   2  -2 53695.9 3050.82   4
   2  -5  -2 59827.5 4382.23   1
   2   3  -2 55849.0 3355.19   4
  -2   5   2 57496.1 4266.43   7
  -3   5   2 58025.6 4229.66   7
  -2   5  -2 53698.5 3408.70   7
  -3   5  -2 52840.2 3495.20   7
  -2   5   2 57360.6 3866.10   4
   3  -5   2 58276.0 4596.70   1
  -3   5   2 55816.0 3795.54   4
  -2   5  -2 50643.5 3649.90   4
  -3   5  -2 52646.3 3759.62   4
   3  -5  -2 62464.8 4789.45   1
   2  -5   3 117266. 5616.11   2
   5  -3   3 103508. 6913.80   6
  -5   3  -3 112060. 6676.32   3
  -5   3   3 107742. 7849.30   3
   5  -2   3 114089. 6908.62   6
   5  -3  -3 114058. 5516.85   6
   5  -2  -3 110961. 5490.33   6
  -5   2   3 113495. 7982.15   3
  -5   2  -3 116409. 5542.55   3
   3   2   3 120876. 6799.82   6
   2   3   3 131992. 7194.49   6
   3   2  -3 118076. 6284.67   6
   3  -5   3 129170. 7753.54   2
  -2   5  -3 106913. 4860.97   7
  -3  -2   3 116440. 6310.98   3
  -3   5  -3 131230. 5197.52   5
   3   2  -3 115509. 5155.88   5
  -2  -3   3 105784. 5883.23   3
  -3  -2  -3 116105. 4961.13   3
  -2  -3  -3 108789. 5011.08   3
  -5   3  -3 118721. 5294.89   9
  -2   5   3 117824. 6644.48   7
   2  -5   3 127394. 6676.46   1
   2   3   3 110449. 8020.58   7
   2   3  -3 117841. 6282.23   7
   3   2  -3 118566. 4578.76   4
   2   3  -3 119952. 5072.79   4
  -3   5   3 108656. 6275.24   7
  -5   2  -3 119720. 5437.08   9
  -2   5   3 108931. 5643.82   4
   2  -5  -3 108065. 6162.83   1
  -3   5  -3 112204. 5139.49   7
   3  -5   3 128114. 6920.22   1
  -3   5   3 112902. 5668.14   4
  -2   5  -3 106783. 5531.60   4
   3  -5  -3 124351. 6999.34   1
  -2   5  -4 9533.84 1636.04   4
   5  -3   4 11988.7 2605.82   6
   3  -5   4 9217.46 1886.38   1
   5  -2   4 10125.5 2211.24   6
   5  -3  -4 7850.92 1341.53   6
   5  -2  -4 9550.72 1538.50   6
   2  -5   4 9757.29 1771.81   2
   2  -5  -4 8243.80 1825.51   1
   3   2   4 9613.56 2050.66   6
   2   3   4 9373.46 2035.16   6
   3   2  -4 11623.2 1972.05   6
   3  -5   4 8678.54 1879.32   2
  -2   5  -4 12705.9 1733.10   5
  -5   3  -4 11851.7 1932.48   3
  -5   3   4 10235.6 2495.17   3
   2   3  -4 9569.52 1548.92   5
   3   2  -4 9854.81 1531.21   5
  -5   2   4 7965.06 2328.74   3
   3  -5  -4 8424.17 1914.33   1
  -5   2  -4 8135.42 1237.03   3
  -3  -2   4 10677.9 2046.56   3
  -2   5  -4 12712.8 1508.84   7
  -2  -3   4 7605.42 1570.37   3
   2   3   4 14131.0 2848.85   7
   2   3  -4 10837.2 1694.74   7
  -3  -2  -4 10652.0 1347.52   3
  -5   3  -4 13381.3 1746.75   9
  -2   5   4 9590.41 2074.41   7
  -5   2  -4 9956.00 1516.78   9
  -2  -3  -4 9119.18 1350.19   3
  -3   5   4 8946.79 1909.40   7
   2  -5   4 10652.4 1930.98   1
  -3   5  -4 7693.29 1278.11   5
  -3   5  -4 10527.2 1445.86   7
   3   2  -4 8136.38 1064.95   4
  -2   5   4 7693.72 1624.19   4
  -5   3   4 10101.3 1830.45   7
   2   3  -4 8239.36 1206.90   4
  -3   5   4 9760.48 1644.59   4
   5  -3   5 56379.1 5487.79   6
   3  -5  -5 64370.6 5074.16   1
   2  -5   5 57081.9 4648.84   2
   5  -2   5 58178.6 5269.74   6
  -5   3  -5 62619.9 4051.26   3
  -5   3   5 64684.4 6039.02   3
   5  -3  -5 55434.6 3411.18   6
  -5   2   5 59305.7 5587.64   3
   5  -2  -5 49625.9 3379.61   6
   3   2   5 58440.9 4912.85   6
  -5   2  -5 59236.2 3039.02   3
   2   3   5 51598.6 4656.80   6
   3  -5   5 58605.8 5189.42   2
  -3  -2   5 57456.1 4848.36   3
  -2  -3   5 59767.4 4662.47   3
  -2   5  -5 59466.6 3778.11   5
   2   3  -5 56537.8 3836.14   5
  -3   5  -5 59037.8 3564.97   5
   3   2  -5 57101.0 3764.12   5
  -3  -2  -5 56856.8 3092.83   3
  -5   3  -5 60367.7 3977.02   9
  -5   2  -5 53929.8 3768.16   9
  -2  -3  -5 55427.1 3352.87   9
   2  -5   5 55072.8 4482.12   1
   2   3   5 53249.1 5357.13   7
   2   3  -5 63881.5 3562.58   7
  -2   5   5 56983.0 5007.97   7
  -2   5   5 52455.5 4002.82   4
  -3   5   5 56192.3 4785.34   7
   3  -5   5 75597.6 5348.51   1
  -2   5  -5 57771.2 3173.07   7
  -3   5   5 51458.0 3857.98   4
   3   2  -5 56792.1 2773.49   4
  -3   5  -5 54799.0 3337.88   7
   2   3  -5 58987.4 3271.36   4
  -5   3   5 59649.9 4524.84   7
   2  -5  -5 52708.2 4301.39   1
  -3  -2  -5 59013.2 3681.48   9
   2   3  -6 10439.0 1330.76   4
  -5   3  -6 14397.1 1657.33   3
   5  -3  -6 15240.3 1701.49   6
   3  -5   6 14183.3 2311.67   1
   5  -3   6 10700.9 2762.22   6
   5  -2   6 7636.87 2144.45   6
  -3  -2  -6 13065.3 1764.78   9
   5  -2  -6 13772.9 1727.31   6
   3   2   6 12288.6 2407.95   6
   2  -5   6 13573.5 2687.07   2
   2   3   6 14714.1 2531.70   6
  -5   2   6 10796.4 2542.57   3
   3  -5   6 12342.9 2399.72   2
   2  -5  -6 11343.8 2117.31   1
  -2   5   6 13304.3 2710.32   7
  -5   3   6 13752.4 2815.59   3
  -5   3  -6 11956.3 1909.73   9
  -5   2  -6 12058.4 1842.56   9
  -2   5  -6 12030.4 1763.31   5
   2   3  -6 11369.4 1829.91   5
  -2  -3  -6 12531.5 1610.73   9
  -3   5  -6 12347.3 1707.02   5
   3   2  -6 8721.98 1522.08   5
   5  -2  -6 13177.4 1809.46   8
   2  -5  -6 13379.7 1830.37   8
   2   3  -6 14095.5 1364.56   7
  -3  -2   6 17099.8 2730.21   3
   3  -5  -6 15141.2 2585.61   1
  -2  -3   6 13687.7 2391.00   3
  -2   5  -6 12280.1 1334.19   7
   2   3   6 10057.4 2445.55   7
   3   2  -6 14698.3 1261.04   4
   2  -5   6 13174.0 2303.03   1
  -3   5   6 12977.4 2557.43   7
  -2   5   6 12365.4 2062.89   4
  -5   3   6 14803.2 2462.60   7
  -3   5  -6 11972.9 1487.75   7
  -3   5   6 13670.6 2033.43   4
   5  -3   7 59011.1 5816.40   6
   5  -2   7 69360.0 6267.57   6
   2  -5   7 60380.0 5574.04   2
  -5   3   7 55073.6 5408.66   3
   5  -3  -7 57699.8 3200.26   6
  -5   2   7 56372.9 5441.42   3
  -5   3  -7 62363.5 4490.48   9
   3  -5  -7 59686.7 5164.88   1
   5  -2  -7 54092.3 3361.55   6
   3   2   7 55054.3 5164.05   6
   3  -5   7 55093.5 5100.85   2
   2   3   7 61719.4 5342.80   6
  -3  -2   7 66073.1 5834.86   3
  -2  -3   7 60933.1 5257.29   3
  -2   5  -7 63594.2 4236.96   5
   2   3  -7 57744.8 4229.23   5
   3   2  -7 54987.8 4058.12   5
  -3   5  -7 61008.9 4008.95   5
  -5   2  -7 51976.6 4045.91   9
  -2  -3  -7 57068.2 3685.35   9
  -3  -2  -7 55151.8 3836.69   9
  -2  -3  -7 61323.2 3907.09   1
   2  -5   7 61732.5 4899.42   1
   5  -2  -7 54436.7 3920.91   8
   2  -5  -7 57838.2 4048.07   8
   5  -3  -7 55493.7 3987.37   8
   2   3   7 57366.9 5567.54   7
  -2   5   7 66724.6 6000.40   7
  -2   5   7 54651.8 4370.13   4
  -3   5   7 56395.6 5414.41   7
   3  -5   7 61953.4 4627.49   1
  -3   5   7 62010.6 4488.83   4
  -5   3   7 59024.4 4836.49   7
  -2   5  -7 59343.5 2915.93   7
   2   3  -7 61742.4 3293.80   4
   2  -5  -7 60334.5 4837.84   1
   3  -5  -8 1882.71 743.633   1
   5  -3   8 2651.59 1518.20   6
   3  -5   8 3027.24 1094.22   1
   5  -2   8 735.868 947.673   6
   3   2   8 4866.08 1703.23   6
   5  -2  -8 2224.99 673.671   6
   2  -5   8 3743.33 1683.16   2
   2   3   8 2473.14 1164.82   6
  -3  -2  -8 2527.60 874.630   9
   3  -5   8-250.620 1282.80   2
  -5   3   8 2382.50 1542.73   3
  -5   3  -8 2072.18 1117.00   9
  -5   2  -8 1966.28 1027.72   9
  -2  -3  -8 3469.20 1042.14   9
   2   3  -8 2147.26 1055.24   5
  -2   5  -8 1248.24 667.626   5
   3   2  -8 3218.28 1115.93   5
  -3   5  -8 2522.61 1001.16   5
  -5   2   8 1665.67 1065.08   3
   2  -5  -8 4161.15 1392.17   1
   5  -2  -8 2006.10 1078.66   8
   2  -5  -8 2606.52 1026.21   8
   5  -3  -8 2033.46 933.091   8
   3  -5  -8 1565.76 916.683   8
  -3  -2   8 1897.84 1830.94   3
  -2  -3   8 3551.56 1565.72   3
  -3  -2  -8 2758.85 906.020   1
   2   3   8 2237.98 908.814   7
   2  -5   8 3390.06 1318.16   1
  -2   5   8 2748.31 1778.10   7
  -3   5   8 883.305 1407.75   7
  -2   5   8 395.072 926.786   4
  -2  -3  -8 3639.38 1039.95   1
  -5   3   8 1688.51 1065.84   7
  -3   5   8 2338.06 1145.97   4
  -2  -3  -9 6928.48 1375.22   1
   3  -5  -9 6200.75 1875.39   1
  -3  -2  -9 8338.22 1705.54   9
   5  -3   9 6724.66 1919.97   6
   5  -2   9 6826.28 2105.56   6
   3   2   9 6126.91 1714.00   6
   2  -5   9 5906.36 1878.50   2
   2   3   9 10157.7 2076.25   6
   3  -5   9 4468.18 1685.27   2
  -5   3  -9 8699.08 1997.28   9
  -2  -3  -9 9096.58 1653.88   9
  -5   2  -9 7715.74 1740.87   9
  -5   3   9 7825.13 2166.51   3
   2   3  -9 4045.23 1208.35   5
  -2   5  -9 9526.24 1845.45   5
   3   2  -9 8740.91 1875.98   5
  -5   2   9 11269.3 2543.03   3
  -3   5  -9 7586.48 1618.16   5
   5  -2  -9 7359.93 1714.32   8
   2  -5  -9 8243.61 1815.21   8
   5  -3  -9 8465.81 1726.71   8
   3  -5  -9 7042.82 1600.77   8
   2  -5  -9 7864.80 1885.88   1
  -3  -2   9 7379.23 2367.91   3
  -2  -3   9 6736.99 2255.34   3
   3   2   9 8640.96 2168.86   7
   2   3   9 7037.44 1833.03   7
   2  -5   9 9174.97 1941.93   1
  -2   5   9 5893.31 1850.62   7
  -3   5   9 6858.65 2055.78   7
  -2   5   9 6412.67 1694.26   4
  -3  -2  -9 8212.01 1251.64   1
  -5   3   9 5134.77 1725.62   7
  -3   5   9 4540.97 1480.39   4
  -2  -3 -10 14851.6 1987.14   1
   5  -3  10 12132.9 2600.39   6
   5  -2  10 14229.4 2768.42   6
   3  -5 -10 12840.6 2647.12   1
   3   2  10 11044.4 2209.57   6
   2  -5  10 10195.6 2368.15   2
   2   3  10 12077.3 2082.12   6
   3  -5  10 10327.2 2325.21   2
  -2   5 -10 12664.6 2229.85   5
  -5   3 -10 12715.9 2432.24   9
  -5   2 -10 13404.3 2484.31   9
  -3  -2 -10 12408.7 2091.53   9
  -5   3  10 14375.8 2895.79   3
  -2  -3 -10 10226.2 1803.46   9
   2   3 -10 14890.5 2513.47   5
  -5   2  10 11275.1 2579.96   3
   3   2 -10 14738.5 2432.44   5
  -3   5 -10 14976.7 2270.91   5
   5  -2 -10 11373.1 2168.18   8
   2  -5 -10 11353.4 2143.17   8
   5  -3 -10 12155.4 2218.58   8
   3  -5 -10 10487.9 2064.71   8
  -3  -2  10 11342.3 2725.61   3
  -2  -3  10 10607.7 2536.04   3
   3   2  10 12665.1 2856.63   7
   2   3  10 16128.7 2978.27   7
   2  -5 -10 13597.8 2562.68   1
  -2   5  10 12356.0 2659.85   7
  -3   5  10 8006.03 2190.69   7
  -2   5  10 13967.0 2591.05   4
  -3   5  10 12284.9 2278.88   4
  -5   3  10 11006.4 2317.83   7
   2  -5 -11 5702.46 1933.67   1
  -2   5 -11 5447.87 1628.52   5
   5  -3  11 4183.30 1627.91   6
   5  -2  11 5160.89 1793.00   6
   2  -5  11 5026.02 1835.23   2
   3   2  11 4647.22 1433.06   6
   3  -5  11 4538.33 1733.03   2
   3  -5 -11 2938.96 1357.91   1
  -5   3 -11 3910.21 1379.50   9
  -2  -3 -11 6057.38 1546.02   9
  -5   2 -11 3481.78 1510.71   9
  -3  -2 -11 5073.68 1410.40   9
  -5   3  11 5364.55 1964.38   3
   2   3 -11 6222.99 1782.21   5
   3   2 -11 7030.30 1794.03   5
  -3   5 -11 6906.25 1802.26   5
  -5   2  11 2324.32 954.596   3
   5  -2 -11 3558.79 1459.39   8
   2  -5 -11 3484.57 1499.88   8
   5  -3 -11 4253.99 1511.82   8
   3  -5 -11 4746.03 1593.53   8
  -3  -2  11 5076.16 1834.37   3
  -2  -3  11 4234.19 1735.43   3
   3   2  11 4071.12 1569.03   7
   2   3  11 2532.20 1328.82   7
  -2   5  11 6712.77 2183.67   7
  -3   5  11 5396.37 2012.80   7
  -2   5  11 4984.77 1867.71   4
  -3   5  11 2940.51 1225.67   4
  -5   3  11 2436.49 1508.28   7
   2  -5  12 46307.8 4967.50   2
   5  -3  12 48893.9 4915.06   6
   5  -2  12 47001.8 4796.95   6
  -5   3  12 45845.4 5042.03   3
   3  -5  12 42641.9 4735.17   2
  -5   2  12 50558.2 5184.68   3
   2  -5 -12 52438.9 5226.20   1
  -3  -2  12 48892.2 5098.36   3
  -2  -3  12 43112.6 4805.30   3
   3  -5 -12 45097.1 5122.43   1
   2   3 -12 43036.3 4588.90   5
  -2   5 -12 47897.3 4707.20   5
  -5   3 -12 49859.2 5249.02   9
  -2  -3 -12 45530.4 4349.46   9
  -5   2 -12 51841.6 5205.37   9
   3   2 -12 43325.6 4715.74   5
  -3   5 -12 44881.3 4468.36   5
   5  -2 -12 51753.4 5119.62   8
   2  -5 -12 52721.8 5106.79   8
   5  -3 -12 47516.0 4803.66   8
   3  -5 -12 47827.7 4857.08   8
   3   2  12 53959.0 5614.73   7
   2   3  12 54584.7 5479.03   7
  -2   5  12 40833.7 4601.78   4
  -2   5  12 49230.3 5070.66   7
  -3   5  12 46925.3 4603.04   4
  -3   5  12 46985.9 4950.73   7
  -5   3  12 57956.5 4952.58   7
  -3  -2 -12 47607.9 4621.60   9
   5  -3  13 594.468 1027.49   6
   5  -2  13 3461.41 1411.53   6
   2  -5  13 2695.76 1354.88   2
   3  -5  13 4100.10 1858.07   2
  -3   5 -13 3549.58 1586.36   5
   2  -5 -13 817.280 895.426   1
  -5   3 -13 3554.86 1757.24   9
  -5   2 -13 1458.06 1028.93   9
  -3  -2 -13 2316.01 1190.03   9
  -5   3  13 3797.43 1590.27   3
   2   3 -13 2627.06 1430.61   5
  -2   5 -13 3873.29 1547.43   5
   3   2 -13 2154.76 1272.13   5
  -5   2  13 2071.01 1392.09   3
   5  -2 -13 2941.12 1501.59   8
   2  -5 -13 1767.49 1355.78   8
   5  -3 -13 2225.86 1223.01   8
   3  -5 -13 4753.14 1979.46   8
  -3  -2  13 1632.85 1082.95   3
  -2  -3  13 2690.81 1304.44   3
   3   2  13 1312.88 932.181   7
   2   3  13 3724.73 1602.51   7
   3  -5 -13 1688.61 1080.82   1
  -2   5  13 7606.32 2199.22   7
  -3   5  13 3191.13 1420.63   7
  -2   5  13-348.754 1237.63   4
   3  -5 -14 22730.2 3791.05   1
   5  -3  14 18905.1 3120.85   6
   5  -2  14 21989.7 3251.77   6
  -3  -2 -14 16405.4 3007.74   9
   2  -5 -14 17702.1 3210.15   1
   5  -2 -14 26963.0 3945.67   8
  -3   5 -14 14334.2 2837.81   5
   5  -4   0 354035. 12793.7   6
   5  -1   0 360164. 12354.8   6
   4  -5   0 350033. 14157.4   1
   4   1   0 334376. 12134.1   6
  -5   1   0 329760. 11871.4   3
  -4  -1   0 359231. 11398.5   3
  -5   4   0 371755. 10039.8   9
  -4   5   0 366142. 9417.78   9
  -1  -4   0 350864. 11270.0   3
   1  -5   0 373687. 12251.5   1
   5  -4   0 353325. 15304.3   1
   1   4   0 327150. 12557.2   7
  -1   5   0 330321. 11367.5   7
   1   4   0 343510. 11025.7   4
  -1   5   0 339537. 11236.1   4
  -4   5   0 344231. 11422.7   7
  -5   4   0 352795. 11633.9   7
   5  -4  -1 19487.3 2608.32   6
   5  -1  -1 18932.9 2512.37   6
   5  -4   1 12972.2 2369.07   6
   5  -1   1 13492.8 2271.07   6
   4   1   1 16789.7 2433.82   6
  -4  -1  -1 16350.3 1977.73   3
   4   1  -1 16261.7 2333.58   6
   4   1  -1 16229.5 1657.03   5
  -5   4  -1 15970.7 1693.30   9
   5  -4  -1 24451.5 4165.14   1
  -5   4   1 16625.0 1653.19   9
  -4   5  -1 16405.7 1888.95   9
   1  -5  -1 18580.7 2494.43   1
   5  -4   1 17607.3 3043.48   1
  -5   1   1 14029.0 2316.10   3
  -5   1  -1 14262.6 1970.97   3
  -4  -1   1 14463.0 2153.46   3
   4  -5   1 23736.3 3410.35   1
   1  -5   1 19373.3 2525.61   1
   1   4   1 16151.8 2729.50   7
   1   4  -1 17449.0 2433.83   7
  -1  -4   1 16322.5 2133.17   3
  -1   5   1 16675.7 2381.18   7
  -1   5  -1 14154.0 1956.91   7
   4  -5  -1 18546.0 3079.09   1
  -1  -4  -1 14133.7 1905.87   3
   1   4   1 15540.3 2057.34   4
  -4   5   1 17714.2 2296.08   7
  -4   5  -1 13451.4 1906.27   7
   1   4  -1 14213.6 1889.46   4
  -5   4   1 14040.8 2092.60   7
  -1   5   1 17163.4 2197.58   4
  -1   5  -1 11906.8 1944.73   4
   5  -4   2 225587. 10643.8   6
   5  -4  -2 220075. 8774.32   6
   5  -1   2 216745. 9632.14   6
   4  -5   2 225591. 11063.1   1
   5  -1  -2 212539. 8636.16   6
   4   1   2 224976. 9735.36   6
   4  -5  -2 226940. 10912.0   1
   4   1  -2 202347. 8697.93   6
  -5   1   2 218154. 10159.7   3
  -5   1  -2 215789. 7947.07   3
  -4  -1   2 212121. 8970.53   3
  -4  -1  -2 216868. 7595.76   3
  -4   5  -2 228320. 6776.85   5
  -5   4  -2 227245. 7705.08   9
   4   1  -2 206144. 7084.55   5
  -4   5  -2 228406. 8705.35   9
  -1  -4   2 210025. 8527.64   3
   5  -1  -2 228388. 7217.71   5
   1  -5   2 213297. 9015.53   1
  -1  -4  -2 213340. 8000.12   3
   5  -4  -2 229724. 12409.2   1
   1  -5  -2 229298. 9054.93   1
   5  -4   2 223434. 10218.0   1
   4   1  -2 220719. 6720.31   4
   1   4   2 201928. 10409.5   7
   1   4  -2 215364. 8485.33   7
   1   4   2 213479. 8422.49   4
  -1   5   2 222250. 9506.41   7
  -1   5  -2 214361. 7690.36   7
  -1   5   2 208568. 8404.70   4
   1   4  -2 221334. 8038.79   4
  -4   5   2 207840. 8837.76   7
  -4   5  -2 204719. 7975.39   7
  -5   4   2 217648. 8893.96   7
  -1   5  -2 194076. 7968.63   4
  -4   5   2 232518. 8598.87   4
   5  -4  -3 45063.4 3466.23   6
   4  -5   3 49007.3 4967.08   1
   5  -1   3 43269.5 4225.03   6
   5  -1  -3 40036.3 3335.71   6
   4   1   3 45707.9 4196.44   6
  -5   1   3 44369.5 4625.45   3
   4   1  -3 46444.5 3775.65   6
   4  -5  -3 47979.0 4811.93   1
  -5   1  -3 45290.8 2969.69   3
   5  -4   3 32791.7 4082.56   6
   5  -4  -3 51840.6 5554.82   1
  -4  -1   3 40816.5 3818.20   3
  -4  -1  -3 40814.5 2744.18   3
  -4   5  -3 44796.8 2641.21   5
   4   1  -3 43576.5 2938.97   5
  -1  -4   3 37384.8 3362.65   3
  -4   5  -3 45257.1 3729.09   9
   5  -1  -3 51652.7 3164.84   5
  -5   4  -3 39648.9 3021.53   9
   1  -5  -3 35308.8 3317.19   1
   5  -4   3 44852.3 3939.83   1
   1   4   3 46723.5 5066.55   7
   1   4   3 39915.5 3433.92   4
   4   1  -3 40763.0 2271.28   4
   1   4  -3 41822.8 3128.56   7
  -1   5   3 40102.3 4004.80   7
  -1   5   3 36504.6 3309.42   4
  -1   5  -3 40625.0 2814.18   7
  -4   5   3 41535.1 3818.63   7
   1   4  -3 37805.4 3005.15   4
  -5   4   3 50076.9 4032.90   7
  -4   5  -3 33880.0 2893.03   7
  -1   5  -3 43679.4 3378.34   4
  -4   5   3 42163.2 3424.86   4
   4  -5  -3 44408.2 3805.43   6
   5  -4   4 96954.1 7516.04   6
   5  -4  -4 99551.3 5057.93   6
   4  -5   4 116459. 7386.14   1
   5  -1   4 113987. 7129.93   6
   5  -1  -4 97184.2 5295.47   6
   4   1   4 105361. 6722.15   6
  -5   1   4 92194.3 7270.17   3
   4   1  -4 96807.7 5654.44   6
   4  -5  -4 118281. 7751.03   1
  -5   1  -4 106596. 4385.43   3
  -4  -1   4 102561. 6620.13   3
  -4  -1  -4 105653. 4388.93   3
  -4   5  -4 101860. 4422.94   5
   4   1  -4 101135. 4905.46   5
  -1  -4   4 102536. 5963.48   3
  -4   5  -4 104374. 5970.04   9
  -5   4  -4 103034. 5357.24   9
   5  -1  -4 116451. 5282.12   5
  -1  -4  -4 107097. 4306.45   9
  -5   1  -4 104513. 5390.46   9
   5  -1  -4 97365.8 4524.09   8
   1  -5  -4 106028. 4673.71   8
   5  -4  -4 109233. 8011.27   1
   1   4   4 102713. 7882.87   7
   1   4   4 94756.0 5668.03   4
   1  -5  -4 93522.8 5610.72   1
   1   4  -4 111313. 4761.33   7
   5  -4   4 112233. 5910.92   1
  -1   5   4 96413.5 6667.15   7
  -1   5   4 92713.0 5567.56   4
   4   1  -4 103712. 3553.79   4
  -1   5  -4 105015. 4502.28   7
  -4   5   4 100328. 6296.24   7
  -5   4   4 105788. 6167.56   7
   1   4  -4 96321.0 4899.01   4
  -4   5  -4 97789.3 5049.35   7
  -1   5  -4 97540.2 5292.14   4
  -4   5   4 93460.9 5321.72   4
   4  -5  -4 104874. 5612.17   6
   5  -4   5 222728. 12267.1   6
   5  -4  -5 209598. 7563.23   6
   5  -1   5 202682. 10410.1   6
   4  -5   5 234046. 10146.9   1
   4   1   5 215772. 10369.6   6
   5  -1  -5 211892. 8244.21   6
  -5   1   5 193977. 11102.1   3
   4   1  -5 207370. 8703.88   6
  -4  -1   5 218919. 10575.3   3
   4  -5  -5 236004. 11328.7   1
  -5   1  -5 220836. 6363.57   3
  -1   5  -5 210120. 8278.55   5
   1   4  -5 211262. 8398.71   5
   4   1  -5 218954. 8125.43   5
  -4   5  -5 225808. 7476.02   5
  -1  -4   5 211983. 9363.60   3
  -4  -1  -5 223064. 6724.12   3
  -4   5  -5 232770. 9595.27   9
  -5   4  -5 222475. 8727.08   9
   5  -1  -5 224982. 8256.84   5
  -1  -4  -5 217734. 6947.61   9
  -5   1  -5 209567. 8300.14   9
   1  -5   5 222742. 9356.31   3
  -4  -1  -5 215910. 8192.38   9
  -1  -4  -5 199170. 8240.18   1
   5  -1  -5 214698. 7663.77   8
   1  -5  -5 225446. 7720.02   8
   5  -4  -5 219715. 11622.1   1
   1   4   5 210363. 9172.75   4
   1   4   5 227218. 11706.2   7
   1   4  -5 217217. 6723.77   7
  -1   5   5 198824. 10481.4   7
   1  -5  -5 200670. 8802.95   1
  -1   5   5 230181. 9344.34   4
  -1   5  -5 222160. 6864.22   7
  -4   5   5 217838. 10000.0   7
   5  -4   5 234209. 8269.69   1
  -5   4   5 223063. 9747.83   7
   1   4  -5 213449. 7844.89   4
  -4   5   5 219535. 8645.72   4
  -1   5  -5 212350. 8464.23   4
   4  -5  -5 227321. 8212.42   6
  -4   5   6 2830.68 1152.12   4
   1   4  -6 1612.31 720.524   4
   1  -5  -6 2809.24 1112.52   1
   4  -5  -6 4638.63 987.177   6
   5  -4   6 3161.53 1996.23   6
   5  -4  -6 3444.17 877.271   6
   5  -1   6 4824.01 1727.20   6
   4  -5  -6 4083.87 1648.17   1
   4   1   6 5267.97 1888.67   6
   5  -1  -6 1611.56 749.082   6
   4   1  -6 2252.17 1026.98   6
  -4   5  -6 1488.41 1021.08   9
  -5   4  -6 3942.67 1309.16   9
  -1   5  -6 2495.10 907.333   5
  -5   1  -6 1567.36 852.250   9
  -4  -1  -6 2930.40 1004.42   9
   4   1  -6 1034.00 793.052   5
  -4   5  -6 3956.98 1046.80   5
  -5   1   6 1208.52 1272.84   3
   5  -1  -6 3889.50 1147.04   5
   5  -1  -6 3829.01 1059.25   8
   1  -5  -6 1785.83 683.957   8
  -4  -1   6 1717.05 1229.24   3
   4  -5   6 1725.48 946.101   1
  -1  -4   6 852.263 765.140   3
   1   4   6 3295.84 1819.97   7
  -1   5   6 4143.11 1736.23   7
   1   4   6 5192.58 1624.27   4
  -1  -4  -6 3183.12 1076.95   1
   1  -5   6 1768.30 1035.09   3
  -4   5   6 3581.05 1668.36   7
  -1   5   6 2950.77 1198.49   4
  -5   4   6 3120.75 1396.87   7
  -1  -4  -6 1965.00 633.931   9
   5  -4  -6 4146.51 1814.12   1
   1   4  -6 3266.90 1077.05   5
   5  -4   7 180199. 10562.3   6
   5  -1   7 189495. 10550.7   6
   4   1   7 172258. 9741.09   6
  -5   1   7 164224. 9902.88   3
   5  -1  -7 181704. 7303.33   6
   4   1  -7 173392. 7883.25   6
  -4  -1   7 177354. 10621.8   3
   4  -5  -7 164390. 9775.58   1
  -1   5  -7 170298. 7754.95   5
   1   4  -7 173155. 7907.11   5
  -1  -4   7 174127. 9110.53   3
   4   1  -7 179074. 7887.10   5
  -4   5  -7 181614. 8835.15   9
  -4   5  -7 175512. 7140.73   5
  -5   4  -7 181770. 8551.48   9
  -1  -4  -7 183719. 6644.39   9
  -5   1  -7 184731. 8060.17   9
   1  -5   7 182585. 8955.95   3
   5  -1  -7 183689. 7762.94   5
   5  -1  -7 176004. 7592.67   8
   1  -5  -7 183900. 7626.66   8
  -1  -4  -7 168740. 7544.16   1
   5  -4  -7 189913. 10601.5   1
   1   4   7 157917. 9635.23   7
  -1   5   7 166915. 10221.2   7
  -1   5   7 170213. 8577.53   4
  -4   5   7 169006. 9498.10   7
  -5   4   7 178748. 9372.76   7
   1  -5  -7 166959. 8190.94   1
  -4   5   7 177870. 7870.98   4
   1   4  -7 182515. 7051.27   4
  -4  -1  -7 178929. 7680.99   9
   1  -5   7 167483. 8784.85   2
   5  -4   8 48398.8 5284.50   6
   5  -1   8 64190.3 6082.80   6
   4   1   8 49952.0 5203.51   6
  -5   1   8 41217.5 4771.07   3
   5  -1  -8 52244.1 3558.99   6
  -4  -1   8 48844.4 5473.89   3
   4  -5  -8 46251.7 5186.55   1
  -1   5  -8 46128.6 3959.63   5
   1   4  -8 46049.2 4091.55   5
  -1  -4   8 45459.8 4706.26   3
  -4   5  -8 55772.6 4738.89   9
   4   1  -8 50726.9 4156.30   5
  -4   5  -8 50862.7 3789.52   5
  -5   4  -8 48803.0 4486.82   9
  -1  -4  -8 49959.6 3367.69   9
  -5   1  -8 46221.3 3945.38   9
  -4  -1  -8 47642.2 3890.23   9
   1  -5   8 51598.4 4721.71   3
   5  -1  -8 47780.6 3852.74   5
   5  -1  -8 48833.9 3966.52   8
   1  -5  -8 47774.9 3908.62   8
   5  -4  -8 40005.0 3659.23   8
   4  -5  -8 49131.9 4063.06   8
  -1  -4  -8 50881.4 3953.08   1
   1   4   8 39775.4 4644.20   7
  -1   5   8 42748.8 4320.85   4
  -1   5   8 48320.1 5282.22   7
   5  -4  -8 48583.6 5188.26   1
  -4   5   8 41891.1 4779.45   7
  -5   4   8 45910.9 4741.27   7
  -4   5   8 41422.1 3696.57   4
   1  -5  -8 39856.2 3924.97   1
   1  -5   8 43550.7 4608.05   2
   5  -4   9 133241. 8768.93   6
  -5   4   9 137143. 9124.62   3
   5  -1   9 132758. 8678.16   6
   4   1   9 146875. 8825.19   6
  -5   1   9 119468. 8378.10   3
   5  -1  -9 142037. 6165.93   6
   4  -5   9 135376. 8724.62   2
  -4  -1   9 138451. 9224.44   3
  -1  -4   9 142025. 8885.92   3
   4  -5  -9 124698. 8824.36   1
   1   4  -9 136635. 7506.99   5
  -1   5  -9 138068. 7405.69   5
  -4   5  -9 137199. 7829.90   9
   4   1  -9 123902. 7209.01   5
  -5   4  -9 134262. 8098.42   9
  -4   5  -9 134850. 6859.62   5
  -5   1  -9 134125. 7290.03   9
  -4  -1  -9 127462. 6930.37   9
   1  -5   9 144303. 8473.46   3
   5  -1  -9 141361. 7064.54   5
   5  -1  -9 125666. 7086.92   8
   1  -5  -9 132922. 7190.98   8
   5  -4  -9 134097. 7206.27   8
   4  -5  -9 129866. 7129.20   8
   1   4   9 141674. 8894.63   7
  -1   5   9 125441. 7845.00   4
  -1   5   9 133424. 8773.00   7
  -1  -4  -9 138367. 6916.92   1
   5  -4  -9 141606. 9025.09   1
  -4   5   9 128748. 8943.51   7
  -5   4   9 135924. 8694.23   7
  -4   5   9 141231. 7145.24   4
   1  -5  -9 127112. 7503.25   1
   1  -5   9 132632. 8790.25   2
   5  -4  10 116030. 8061.72   6
   1  -5 -10 108472. 6944.32   1
  -5   4  10 105664. 8124.72   3
   5  -1  10 105646. 7503.04   6
   4   1  10 109343. 7322.09   6
  -5   1  10 111585. 7908.74   3
   4  -5  10 92809.4 7239.15   2
  -4  -1  10 103862. 7839.90   3
  -1  -4  10 93249.6 7557.85   3
   1   4 -10 109217. 6905.09   5
  -1   5 -10 107694. 6742.34   5
   4  -5 -10 100025. 7990.45   1
  -5   4 -10 106713. 7542.07   9
   4   1 -10 107496. 6959.83   5
  -4   5 -10 105743. 6372.33   5
  -5   1 -10 102295. 6687.99   9
  -4  -1 -10 114115. 6772.80   9
   1  -5  10 106634. 7535.46   3
   5  -1 -10 107026. 6234.04   5
   5  -1 -10 95574.4 6455.26   8
   1  -5 -10 94286.6 6318.33   8
   5  -4 -10 108809. 6750.63   8
   4  -5 -10 106668. 6715.64   8
   1   4  10 108957. 7778.35   7
  -1   5  10 110507. 7535.88   4
  -1   5  10 110073. 7760.53   7
  -4   5  10 111114. 8248.99   7
   5  -4 -10 100993. 7533.90   1
  -5   4  10 104337. 7832.60   7
  -1  -4 -10 106010. 6133.18   1
   1  -5  10 103895. 7989.94   2
   4  -5  10 108439. 7974.23   6
   4  -5 -11 8800.42 2467.87   1
   4  -5  11 18526.2 3260.23   6
   5  -4  11 13199.4 2682.78   6
   1  -5  11 17968.5 3498.56   2
   5  -1  11 17129.9 2914.43   6
   4   1  11 18247.1 2871.67   6
  -1  -4 -11 12436.3 2085.30   1
   4  -5  11 15036.7 3053.08   2
  -5   4 -11 12765.7 2721.80   9
  -5   4  11 14461.7 2962.24   3
  -5   1 -11 13356.8 2586.39   9
  -4  -1 -11 14206.4 2432.05   9
   1   4 -11 16942.9 2810.54   5
  -1   5 -11 14032.3 2486.31   5
   4   1 -11 11948.0 2478.23   5
  -4   5 -11 14240.5 2380.58   5
   5  -1 -11 14992.8 2596.16   8
   1  -5 -11 15936.1 2736.12   8
   5  -4 -11 17849.3 2834.95   8
   4  -5 -11 14887.0 2644.70   8
  -5   1  11 16139.9 2942.74   3
   5  -1 -11 15684.6 2324.86   5
  -4  -1  11 13057.5 2781.60   3
   1  -5 -11 15977.4 2725.39   1
  -1  -4  11 11649.7 2674.00   3
   1   4  11 17794.8 3207.31   7
  -1   5  11 18175.6 3245.00   7
   1  -5  11 15619.1 2909.98   3
  -1   5  11 13853.8 2747.61   4
  -4   5  11 12365.0 2610.94   7
  -5   4  11 16060.8 3048.60   7
   5  -4  12 45267.8 4975.95   6
  -5   4  12 59423.1 5984.93   3
   5  -1  12 57027.4 5220.10   6
   1  -5 -12 65892.3 5650.79   1
   4   1  12 65547.1 5325.54   6
   4  -5  12 57898.2 5728.15   2
  -5   1  12 64536.1 5979.85   3
  -4  -1  12 55623.1 5618.53   3
  -1  -4  12 49822.9 5273.97   3
   1   4 -12 57895.5 5370.77   5
  -1   5 -12 61860.0 5480.23   5
  -5   4 -12 60401.6 5923.18   9
  -5   1 -12 68412.0 5878.45   9
  -4  -1 -12 57603.2 5210.89   9
   4   1 -12 53185.6 5409.05   5
   1  -5  12 51359.5 4975.35   3
   4  -5 -12 56099.3 5847.11   1
   5  -1 -12 64076.9 5419.00   8
   1  -5 -12 55442.6 5090.39   8
   5  -4 -12 56085.6 5311.17   8
   4  -5 -12 64080.3 5722.35   8
   1   4  12 55151.4 5569.91   7
  -1   5  12 54691.9 5676.37   4
  -1   5  12 58867.7 5618.27   7
  -4   5  12 50448.6 5257.88   7
  -5   4  12 53817.7 5210.11   7
   1  -5  12 55879.5 5811.41   2
   4  -5  12 52596.4 5482.79   6
   1  -5 -13 557.920 908.546   1
   4  -5  13-123.275 854.097   6
   5  -4  13 480.647 762.621   6
   5  -1  13-760.035 1189.19   6
  -4  -1 -13 526.936 955.648   9
   4  -5 -13-743.164 1356.08   1
   5  -1 -13 68.6525 715.697   8
   1  -5 -13-504.685 993.682   8
   4   1 -13 936.002 1216.88   5
  -1  -4  13-193.027 850.894   3
   4   1  13 1044.92 1173.07   7
   1  -5  13 595.049 800.242   3
  -1   5  13 1967.21 1428.20   4
  -4   5  13-753.000 838.433   7
  -5   4  13 2120.78 1120.16   7
   5  -5   0 29675.8 3672.41   6
   5   0   0 26229.5 3150.68   6
  -5   0   0 28745.7 2911.93   3
   5   0   0 28898.8 1974.88   5
  -5   5   0 28868.9 2358.54   9
   5  -5   0 32969.6 4886.19   1
   0   5   0 25415.3 2941.41   7
   0   5   0 23780.2 2657.02   4
  -5   5   0 26502.7 2847.77   7
   5  -5   1 4343.23 1551.87   6
   5  -5  -1 6000.36 1625.60   6
   5   0   1 5652.39 1703.99   6
   5   0  -1 5301.45 1522.66   6
   0  -5  -1 4750.52 1252.18   1
   5  -5   1 4971.80 1870.27   1
  -5   5  -1 6754.61 1277.58   9
   5   0   1 3296.48 645.219   5
   5   0  -1 4423.17 835.535   5
   5  -5  -1 4506.95 1944.53   1
  -5   0   1 5341.52 1378.05   3
  -5   0  -1 6405.99 1338.83   3
   0   5   1 2118.11 1053.84   7
   0   5  -1 4089.55 1149.51   7
  -5   5   1 3831.07 1342.75   7
   0   5   1 3620.13 1269.99   4
  -5   5  -1 4338.18 1216.01   7
   0   5  -1 4819.16 1245.22   4
   5  -5   2 45658.7 5015.88   6
   5  -5  -2 40608.1 3775.84   6
   5   0   2 43857.1 4289.70   6
   5   0  -2 43263.6 3869.76   6
  -5   0   2 40810.7 3942.07   3
  -5   0  -2 42683.2 3160.27   3
   5  -5   2 50090.1 5507.78   1
   5  -5  -2 51835.8 6009.14   1
   5   0  -2 46316.2 2862.82   5
  -5   5  -2 52651.3 3710.36   9
   0  -5   2 40793.5 3669.15   3
   0  -5  -2 48850.0 3987.04   1
   0   5   2 43615.6 4372.81   7
   0   5  -2 43982.9 3369.70   7
   0   5   2 40004.3 3570.18   4
   0   5  -2 38633.1 3325.41   4
  -5   5   2 40039.5 3779.66   7
  -5   5  -2 42238.9 3500.62   7
   5  -5   3 69180.1 6652.12   6
   5  -5  -3 84772.8 5235.49   6
   5   0   3 81751.0 6067.47   6
   5   0  -3 69296.6 4866.42   6
  -5   0   3 83076.3 6022.73   3
  -5   0  -3 81205.6 4135.10   3
   5  -5   3 84651.2 6677.99   1
   5  -5  -3 82151.3 7476.54   1
   5   0  -3 83327.6 4216.39   5
  -5   5  -3 88464.8 5228.98   9
   0  -5   3 73435.3 5116.06   3
   0  -5  -3 74722.0 5089.01   1
   0   5   3 73574.5 6046.34   7
   0   5  -3 79210.7 4262.78   7
   0   5   3 72001.2 4946.77   4
  -5   5   3 72638.0 5343.56   7
   0   5  -3 76551.2 4717.90   4
   0   5  -4 8032.95 1527.22   4
   5  -5   4 11068.0 2888.31   6
   5  -5  -4 4374.32 1100.54   6
   5   0   4 7323.50 1879.77   6
   5   0  -4 6455.09 1525.27   6
  -5   5  -4 9067.58 1856.65   9
   5   0  -4 9996.49 1535.26   5
  -5   0   4 6907.69 1877.94   3
   5  -5   4 11092.0 2324.19   1
  -5   0  -4 7896.72 1117.19   3
   5  -5  -4 11326.7 2930.42   1
   0   5   4 6592.81 2058.03   7
   0  -5   4 8545.49 1755.08   3
   0   5  -4 7546.36 1185.05   7
   0   5   4 9141.20 1927.57   4
   0  -5  -4 7019.38 1518.98   1
  -5   5   4 7770.04 1826.75   7
   5  -5  -5 45630.2 3319.59   6
   5   0   5 48291.9 5008.97   6
   5   0  -5 41682.6 3616.16   6
  -5   0   5 41151.7 4798.57   3
   0   5  -5 46934.9 3775.74   5
   5  -5   5 50147.7 4421.02   1
   5   0  -5 45282.7 3440.32   5
  -5   5  -5 48293.9 4303.83   9
   5  -5  -5 49503.9 5780.91   1
   0  -5   5 45450.3 4197.37   3
  -5   0  -5 41565.7 3520.29   9
   0  -5  -5 39670.3 3641.36   1
   0   5   5 45168.3 5230.83   7
   0   5   5 38555.4 3844.43   4
  -5   5   5 49748.8 4699.66   7
   0   5  -5 42012.1 3448.49   4
   5  -5   5 51002.9 6016.71   6
   0   5  -6 7323.71 1495.62   4
   0  -5  -6 7597.72 1681.70   1
   5  -5   6 7793.01 2404.48   6
   5   0   6 7986.47 2212.28   6
   5   0  -6 6427.65 1500.40   6
  -5   5  -6 11286.7 2219.54   9
   0   5  -6 9457.55 1726.90   5
  -5   0  -6 9160.10 1790.54   9
   5   0  -6 10923.0 1803.08   5
  -5   0   6 6491.62 2277.82   3
   0   5   6 6087.51 2169.88   7
   0  -5   6 8845.55 2068.63   3
   0   5   6 9408.98 2023.39   4
  -5   5   6 7787.26 2138.39   7
   5  -5  -6 9320.21 2544.91   1
   5  -5   7 48932.9 5644.91   6
   5   0   7 39300.2 4878.32   6
   5   0  -7 43867.6 3701.95   6
  -5   0   7 44274.3 5378.88   3
   0   5  -7 42586.4 3822.08   5
  -5   5  -7 51156.2 4969.49   9
   0  -5   7 38325.2 4197.80   3
   5   0  -7 47151.3 3994.93   5
  -5   0  -7 36685.7 3514.46   9
   5  -5  -7 50156.5 5669.64   1
   0   5   7 47872.3 4536.43   4
   0   5   7 42586.1 5124.92   7
   0  -5  -7 44170.5 3974.89   1
  -5   5   7 51948.8 5245.30   7
   0  -5  -8 3427.78 1199.43   1
   5  -5   8 3543.42 1872.02   6
   5  -5  -8 3399.77 1775.62   1
   5   0   8 6432.54 2303.26   6
   5   0  -8 168.388 695.846   6
  -5   5  -8 2011.92 1330.61   9
  -5   0  -8 4310.29 1329.50   9
   0   5  -8 2455.28 1128.46   5
   5   0  -8 1643.80 904.935   5
  -5   0   8 3284.99 1903.81   3
   0   5   8 2865.06 1492.75   7
   0  -5   8 1089.86 939.477   3
   0   5   8 2546.16 1297.84   4
  -5   5   8 716.548 1142.17   7
   5  -5   9 6581.31 2230.86   6
   5   0   9 6910.87 2220.93   6
   0  -5  -9 7000.22 1727.85   1
   5  -5  -9 6084.78 2030.33   1
  -5   5  -9 7744.47 2104.55   9
  -5   0  -9 6193.31 1621.08   9
   0   5  -9 7034.05 1690.98   5
   5   0  -9 6642.40 1701.00   5
   5  -5  -9 6216.70 1655.17   8
  -5   0   9 5336.27 1753.00   3
   0   5   9 6937.37 2186.07   7
   0  -5   9 5354.81 1777.97   3
   0   5   9 5895.15 2145.42   4
  -5   5   9 4671.24 1858.82   7
   5  -5  10 4610.59 1797.60   6
   5   0  10 10495.6 2446.55   6
   0  -5 -10 10008.0 2115.43   1
  -5   5 -10 11308.2 2472.46   9
  -5   0 -10 10379.5 2241.11   9
   0   5 -10 8052.69 1937.07   5
   5   0 -10 7458.02 1722.84   5
   5  -5 -10 11845.6 2293.29   8
  -5   0  10 6806.70 2132.60   3
   5  -5 -10 11690.0 2862.31   1
   0   5  10 8275.07 2158.21   7
   0  -5  10 7448.62 2115.04   3
   0   5  10 6596.19 2244.38   4
  -5   5  10 10094.4 2564.75   7
   5  -5  11 1910.93 1155.43   6
   5  -5 -11 4173.40 1657.67   1
   5   0  11 6876.03 1882.87   6
   0  -5 -11 5023.23 1598.07   1
  -5   5 -11 5391.76 1839.82   9
  -5   0 -11 5299.95 1657.57   9
   0   5 -11 4736.59 1683.53   5
   5  -5 -11 6239.66 1918.88   8
  -5   0  11 4618.89 1755.83   3
   0   5  11 6816.58 1947.58   7
   0  -5  11 2508.14 1330.67   3
   0   5  11 7812.09 2406.52   4
  -5   5  11 2560.39 1319.51   7
   0  -5 -12 36090.6 4064.43   1
   5   0  12 34952.6 4175.15   6
  -5   5 -12 37213.3 4426.32   9
   0  -5  12 31803.0 4180.82   3
  -5   5  12 29012.2 4050.88   7
   6  -3   0 256744. 10723.9   6
  -6   3   0 236709. 12216.7   3
   3   3   0 266714. 11453.1   6
  -3  -3   0 262986. 9766.58   3
   3   3   0 242547. 13486.0   7
   3   3   0 256415. 9077.21   4
  -3   6   0 239114. 9566.28   7
   3  -6   0 263981. 11497.2   1
  -3   6   0 251349. 9841.88   4
  -3   6   1 9953.90 1939.41   4
  -3   6  -1 12248.9 2030.05   4
   6  -3   1 13186.8 2484.99   6
   6  -3  -1 8532.60 1835.85   6
   3  -6   1 12808.5 2461.27   1
   3   3   1 14581.4 2646.92   6
   3   3  -1 8749.55 2063.58   6
   3  -6  -1 12441.5 2321.70   1
  -6   3   1 15343.7 3292.63   3
  -6   3  -1 13774.3 1908.42   9
  -6   3  -1 13751.2 2685.12   3
  -3  -3   1 13855.3 2123.13   3
   3   3   1 14354.5 3552.71   7
   3   3  -1 14513.6 2905.43   7
  -3  -3  -1 8496.11 1573.35   3
   3   3   1 12409.8 1890.93   4
  -3   6   1 11492.0 2120.53   7
   3   3  -1 11541.9 1709.96   4
  -3   6  -1 13954.0 1993.91   7
   3  -6   2 169630. 6689.27   2
   6  -3   2 174608. 9276.96   6
   6  -3  -2 166351. 7749.56   6
  -6   3   2 167762. 11066.1   3
  -6   3  -2 150888. 8198.02   3
   3   3   2 174982. 9316.73   6
   3   3  -2 164709. 8756.55   6
  -3  -3   2 160505. 7848.10   3
  -3  -3  -2 159416. 6943.78   3
  -6   3  -2 173394. 7280.23   9
   3   3   2 166638. 11232.1   7
   3   3  -2 166197. 9592.99   7
   3   3   2 160836. 7303.99   4
   3   3  -2 167422. 6626.81   4
  -3   6   2 162386. 8143.17   7
  -3   6  -2 151976. 6870.25   7
   3  -6   2 171734. 9169.07   1
  -3   6   2 148025. 7439.54   4
   3  -6  -2 186353. 9361.23   1
  -3   6  -2 167127. 7752.88   4
   3  -6   3 30383.8 2934.76   2
   6  -3   3 31601.5 4014.08   6
   6  -3  -3 27216.9 2887.18   6
  -6   3  -3 33352.6 3345.50   3
   3   3   3 29876.1 3788.59   6
  -3   6  -3 36770.4 3012.43   5
   3   3  -3 30868.4 2925.92   5
  -3  -3   3 34135.2 3573.04   3
  -3  -3  -3 31188.9 2763.49   3
  -6   3  -3 31986.2 2983.34   9
  -6   3   3 35067.5 4922.78   3
   3   3  -3 31242.3 3728.33   7
   3   3  -3 28946.3 2487.22   4
  -3   6   3 31352.9 3585.06   7
   3  -6   3 33417.7 3910.20   1
  -3   6  -3 27541.8 2643.99   7
  -3   6   3 22590.3 2816.84   4
   3   3   3 29128.2 4608.53   7
   3  -6  -3 30338.6 3700.56   1
   6  -3   4 77889.6 6579.11   6
   3  -6   4 79479.6 5414.64   2
   6  -3  -4 72647.6 4656.94   6
  -6   3   4 86559.1 7480.88   3
  -6   3  -4 78870.1 4743.71   3
   3   3   4 81248.4 6481.38   6
  -3   6  -4 73491.0 4482.56   5
  -3  -3   4 71995.4 5549.01   3
   3   3  -4 71281.1 4618.71   5
  -3  -3  -4 74737.5 4296.41   3
  -6   3  -4 76739.0 4858.93   9
   3   3   4 73816.2 7207.49   7
   3   3  -4 77509.5 5444.42   7
  -3   6   4 68653.8 5699.32   7
   3  -6   4 88296.5 6534.58   1
   3   3  -4 79706.0 4093.82   4
  -3   6  -4 77198.4 4396.06   7
  -3   6   4 78013.2 5320.09   4
   3  -6  -4 79948.0 6115.83   1
   3  -6  -5 168556. 9303.72   1
   6  -3   5 155482. 9920.17   6
   3  -6   5 177871. 9134.46   2
  -6   3   5 155616. 10220.9   3
   6  -3  -5 170510. 7227.89   6
   3   3   5 148840. 9269.07   6
  -3  -3   5 161768. 8876.54   3
  -3   6  -5 162961. 7194.03   5
   3   3  -5 166527. 7641.75   5
  -6   3  -5 176023. 7922.45   9
  -3  -3  -5 167298. 7066.74   9
   3   3   5 156445. 10490.3   7
   3  -6   5 178579. 9747.90   1
  -3   6   5 160300. 9294.04   7
  -3   6   5 184564. 8640.93   4
  -3   6  -5 167923. 6706.56   7
   3  -6   6 666.095 1188.60   1
   6  -3   6 1806.70 1531.93   6
   6  -3  -6 1913.40 837.526   6
   3  -6   6 2803.76 1400.15   2
   3   3   6 628.228 1265.01   6
  -6   3  -6 1117.33 1072.06   9
  -3  -3  -6 1418.00 888.491   9
  -3   6  -6 1380.22 870.202   5
   3   3  -6-10.5985 680.856   5
  -6   3   6 4015.40 1919.22   3
   3  -6  -6 2666.31 1602.30   1
  -3  -3   6 1507.08 1180.86   3
   3   3   6 868.325 1085.60   7
  -3   6   6 393.889 1139.01   7
  -3   6  -6 401.210 415.857   7
  -3   6   6 2574.46 1179.79   4
   6  -3   7 149772. 10541.3   6
   3  -6  -7 132608. 8484.15   1
   3  -6   7 128189. 8728.86   2
  -6   3   7 137648. 9411.40   3
   3   3   7 141834. 9283.24   6
  -3  -3   7 132637. 8796.04   3
  -3   6  -7 147223. 7132.89   5
   3   3  -7 138400. 7291.85   5
  -3  -3  -7 136125. 6543.66   1
  -6   3  -7 137670. 7426.16   9
  -3  -3  -7 136334. 6585.56   9
   6  -3  -7 140005. 7047.60   8
   3  -6  -7 134396. 6950.76   8
   3   3   7 132565. 9507.68   7
   3  -6   7 148324. 8578.40   1
  -3   6   7 127535. 9003.77   7
  -3   6   7 130373. 7656.18   4
   6  -3   8 44883.9 5433.34   6
   3  -6   8 38084.8 4693.94   2
  -6   3   8 40368.2 4920.04   3
   3  -6  -8 40287.4 4640.87   1
   3   3   8 43132.5 4871.18   6
  -3  -3   8 36246.1 4860.76   3
   3   3  -8 41824.1 4028.86   5
  -3   6  -8 40196.7 3712.92   5
  -6   3  -8 37379.1 3958.78   9
  -3  -3  -8 35323.0 3310.43   9
  -3  -3  -8 40773.4 3399.63   1
   6  -3  -8 35813.6 3601.80   8
   3  -6  -8 41217.0 3815.78   8
  -3   6   8 34305.7 3936.30   4
   3   3   8 40036.9 5043.28   7
  -3   6   8 34655.8 4791.39   7
   6  -3   9 90969.0 7719.06   6
   3  -6   9 93701.2 7378.49   2
  -6   3   9 110192. 8283.34   3
   3  -6  -9 111234. 7968.00   1
   3   3   9 107396. 7503.44   6
  -3  -3   9 114946. 8959.29   3
   3   3  -9 110221. 6924.92   5
  -3   6  -9 109919. 6587.40   5
  -6   3  -9 100445. 6840.29   9
  -3  -3  -9 103304. 6095.63   9
   6  -3  -9 98186.2 6372.08   8
   3  -6  -9 101721. 6483.54   8
   3   3   9 90839.1 7813.80   7
  -3   6   9 115611. 8979.47   7
  -3   6   9 100753. 6996.73   4
   6  -3  10 72545.3 6703.29   6
   3  -6  10 73753.4 6547.91   2
  -6   3  10 76523.9 6856.25   3
   3   3  10 74319.1 5957.31   6
   3  -6 -10 83644.9 7043.53   1
  -3  -3  10 84720.2 7645.33   3
   3   3 -10 80918.4 6137.44   5
  -3   6 -10 85508.3 5968.85   5
  -6   3 -10 84099.8 6452.18   9
  -3  -3 -10 84074.4 5650.56   9
   6  -3 -10 81826.6 6029.26   8
   3  -6 -10 85074.2 6196.99   8
   3   3  10 76000.4 6969.32   7
  -3   6  10 81442.3 7322.88   7
  -3   6  10 79570.2 6347.87   4
   3  -6 -11 11018.4 2702.17   1
   6  -3  11 9847.49 2582.06   6
   3  -6  11 6068.76 2036.31   2
  -3  -3 -11 7771.35 1836.30   9
   3   3 -11 7610.35 1938.63   5
  -3   6 -11 13097.1 2341.78   5
   6  -3 -11 6918.80 2041.82   8
   3  -6 -11 8215.73 2063.58   8
  -3   6  11 10616.1 2543.82   4
  -3   6 -12 54995.8 5204.42   5
  -2   6   0 1623.84 809.857   4
  -4   6   0 2962.16 1044.43   4
  -6   4   0 2911.83 1969.59   3
   2  -6   0 663.368 1073.22   1
   6  -4   0 918.766 753.609   6
   6  -2   0 2669.27 1122.63   6
   4   2   0 3667.89 1558.59   6
  -6   4   0 3485.01 1017.63   9
  -6   2   0 3058.49 1261.16   3
   4  -6   0 2973.94 1609.40   1
   4   2   0 1650.14 696.615   4
  -4  -2   0 1548.30 752.237   3
   2   4   0 1775.63 1355.41   7
  -2  -4   0 740.696 734.368   3
  -2   6   0 1043.06 741.444   7
   2   4   0 1812.39 963.190   4
  -4   6   0 2457.98 1100.09   7
  -2   6  -1 315.914 765.422   4
  -4   6   1 2353.89 1051.97   4
  -6   4  -1 1823.89 1765.43   3
  -6   4   1-240.065 1633.48   3
   2  -6   1-742.908 960.603   1
   2  -6  -1 1255.03 1020.80   1
   6  -4   1 1679.81 1136.09   6
   6  -4  -1-872.448 800.745   6
   6  -2   1 176.774 835.927   6
   6  -2  -1-29.4032 707.811   6
   4   2   1-1253.57 1250.44   6
   4   2  -1 357.605 947.688   6
   4  -6   1-5.22577 615.947   2
  -6   4  -1-15.4183 462.483   9
  -6   4   1 858.102 572.348   9
   4  -6   1 219.896 1064.09   1
  -6   2   1 508.650 992.220   3
  -6   2  -1 331.035 691.982   3
   4  -6  -1 3232.93 1702.79   1
  -4  -2   1-775.765 865.634   3
  -4  -2  -1-26.1968 509.262   3
   2   4   1 2798.45 1650.72   7
   2   4  -1 149.853 731.621   7
  -2  -4   1 729.598 963.476   3
  -2  -4  -1-525.366 693.507   3
   4   2  -1 1106.50 636.369   4
  -2   6   1-196.638 691.619   7
  -2   6  -1 123.241 620.222   7
   2   4   1 1036.65 886.112   4
  -4   6   1-84.3573 599.943   7
   2   4  -1-122.931 641.805   4
  -4   6  -1-186.398 688.471   7
  -2   6   1 143.083 672.027   4
   4  -6   2 38000.9 4599.70   1
  -6   4  -2 29512.0 4123.93   3
   6  -4   2 36845.1 4230.10   6
  -6   4   2 39534.9 5317.94   3
   6  -4  -2 42042.8 3764.61   6
   4  -6  -2 46814.9 4968.79   1
   6  -2   2 46374.5 4634.91   6
   6  -2  -2 35328.4 3489.68   6
  -6   2   2 36174.4 4425.87   3
  -6   2  -2 39571.7 3439.63   3
   4   2   2 36608.1 4102.93   6
   4   2  -2 31970.1 3587.84   6
   4  -6   2 43902.4 4182.36   2
  -4  -2   2 37629.1 3731.50   3
  -4   6  -2 40793.3 2911.68   5
   4   2  -2 36525.9 2934.54   5
  -4  -2  -2 36562.4 3003.63   3
  -2  -4   2 43169.6 3875.33   3
  -2  -4  -2 35225.9 3175.24   3
  -6   4  -2 41220.4 3257.58   9
   2  -6   2 41601.2 4190.09   1
   2   4   2 40447.8 5203.48   7
   2   4  -2 48862.0 4270.90   7
   2   4   2 37776.7 3493.64   4
   4   2  -2 40996.1 2802.46   4
   2  -6  -2 40902.4 4101.96   1
  -2   6   2 39031.0 3915.69   7
   2   4  -2 38684.0 3255.18   4
  -2   6  -2 43350.6 3328.40   7
  -4   6   2 38747.9 3839.29   7
  -4   6  -2 38300.1 3343.24   7
  -2   6   2 35180.7 3445.44   4
  -2   6  -2 36489.9 3446.57   4
  -4   6   2 38624.3 3632.72   4
   4  -6   3 37742.8 4639.28   1
  -6   4  -3 34109.4 4142.77   3
   6  -4  -3 30518.0 3064.36   6
   6  -2  -3 29290.2 3074.40   6
  -6   2  -3 30527.6 2755.25   3
   4   2  -3 28932.8 3430.27   6
   2  -6  -3 25337.9 3184.47   1
   6  -4   3 31548.7 4097.84   6
   6  -2   3 27368.5 3636.36   6
   4   2   3 27308.6 3603.29   6
  -4  -2   3 31261.3 3531.43   3
  -4   6  -3 28718.7 2440.11   5
   4   2  -3 25411.4 2511.66   5
   4  -6   3 31590.9 3993.12   2
  -4  -2  -3 23813.1 2322.52   3
  -2  -4   3 28033.0 3291.69   3
  -6   4  -3 27511.2 2803.24   9
  -6   2  -3 26080.5 2772.98   9
  -2  -4  -3 29064.3 2776.87   3
  -6   4   3 26328.7 4390.58   3
  -6   2   3 31215.9 4387.37   3
   2  -6   3 32579.7 3759.24   1
   2   4  -3 31824.8 3138.14   7
   2   4   3 28298.2 3113.40   4
   4   2  -3 25694.0 2101.54   4
  -2   6  -3 24370.0 2412.25   7
  -4   6   3 25091.5 3275.86   7
   2   4  -3 25886.7 2600.43   4
   4  -6  -3 33815.2 4217.46   1
  -2   6   3 30331.3 3285.77   4
  -4   6  -3 22250.0 2494.36   7
   2   4   3 33812.9 5053.29   7
  -4   6   3 26602.7 3059.89   4
  -2   6  -3 29293.0 3132.21   4
  -2   6   3 29260.4 3496.67   7
   2  -6   4 26837.8 3521.38   1
  -6   4  -4 35803.9 3890.62   3
   6  -4  -4 28470.1 2860.00   6
   6  -2  -4 27388.1 2913.69   6
   6  -4   4 24186.3 3855.76   6
   6  -2   4 24525.7 3612.64   6
   2  -6  -4 22437.6 3087.51   1
  -4  -2   4 27403.1 3478.54   3
   4   2   4 24176.8 3492.22   6
   4   2  -4 24831.0 3100.52   6
  -2   6  -4 28030.2 2860.65   5
   2   4  -4 24970.9 2816.82   5
  -4   6  -4 25874.0 2383.54   5
   4   2  -4 26764.7 2685.28   5
   4  -6   4 24399.5 3605.50   2
  -4  -2  -4 25803.1 2300.63   3
  -6   4  -4 26209.4 2753.95   9
  -2  -4  -4 22070.8 2153.89   9
  -6   4   4 26898.2 4398.70   3
  -6   2  -4 20355.6 2552.43   9
  -6   2   4 29155.2 4523.03   3
  -2   6   4 26680.9 3186.90   4
  -2   6  -4 25794.7 2365.67   7
   2   4  -4 29779.6 2675.88   4
  -4   6  -4 29241.9 2780.27   7
  -2  -4   4 25447.1 3187.81   3
  -4   6   4 28398.7 3168.99   4
   2   4   4 26713.5 4285.02   7
   4  -6  -4 26973.2 3795.22   1
  -2   6  -4 23228.7 2820.96   4
  -2   6   4 30600.1 3827.69   7
   2   4   4 23017.1 2945.25   4
  -4   6   4 25106.8 3364.90   7
   4  -6   4 36919.9 4595.69   1
   6  -4   5 70510.7 6750.74   6
  -6   4   5 71007.9 7012.20   3
   6  -2   5 65583.1 6238.12   6
   6  -4  -5 69722.9 4295.75   6
   6  -2  -5 63204.6 4366.06   6
  -6   2   5 60463.1 6241.84   3
   4  -6  -5 63398.0 5993.92   1
   4   2   5 68376.5 6036.31   6
   4  -6   5 69799.7 6072.98   2
   4   2  -5 62557.0 5081.69   6
  -4  -2   5 64585.3 5663.56   3
  -2   6  -5 67922.9 4596.29   5
   2   4  -5 61940.0 4598.59   5
  -4   6  -5 66716.6 4103.85   5
   4   2  -5 64720.5 4390.13   5
  -2  -4   5 61106.9 5247.19   3
  -4  -2  -5 68371.2 3713.11   3
  -6   4  -5 70344.9 4779.95   9
  -6   2  -5 65339.2 4675.16   9
  -2  -4  -5 67239.9 3917.02   9
  -4  -2  -5 68702.4 4524.75   9
   2  -6   5 70209.8 5804.55   1
   6  -2  -5 67218.7 4227.70   8
   2  -6  -5 69432.2 4270.61   8
   2   4   5 69544.4 6775.98   7
   2   4   5 66089.1 5223.53   4
  -2   6   5 63443.0 5826.05   7
  -2   6   5 71136.9 5314.10   4
  -4   6   5 64160.8 5743.40   7
  -4   6  -5 62170.4 4109.99   7
   2   4  -5 66096.0 4019.06   4
  -6   4   5 64900.0 5465.29   7
   2  -6  -5 64112.0 5316.28   1
  -4   6   5 65744.7 4954.46   4
   2  -6   5 60332.1 4471.34   2
   4  -6   5 69559.0 6063.44   1
  -4   6   6 17040.3 2630.95   4
   4  -6  -6 13962.3 2917.90   1
   2  -6   6 14393.3 2530.65   2
   6  -4   6 7195.42 2346.22   6
   6  -2   6 18961.9 3395.16   6
   6  -2  -6 14670.0 2033.66   6
   4   2   6 15161.4 2988.25   6
   4  -6   6 12321.1 2641.31   2
   2  -6  -6 15101.5 2630.06   1
  -6   4   6 20033.6 3818.83   3
   4  -6   6 19391.2 2993.81   1
  -6   4  -6 15549.1 2371.99   9
  -2   6  -6 14276.4 2149.00   5
   2   4  -6 12255.0 2088.80   5
  -2  -4  -6 13832.3 1801.82   9
  -6   2  -6 14797.3 2301.91   9
  -4  -2  -6 14286.3 2074.23   9
   4   2  -6 13912.0 2114.25   5
  -4   6  -6 14713.6 1961.40   5
  -6   2   6 12801.6 2929.10   3
   6  -2  -6 14881.9 2058.64   8
   2  -6  -6 13678.6 2003.91   8
   2   4   6 13161.8 2508.97   4
  -4  -2   6 15599.4 3001.90   3
  -2  -4   6 12241.2 2466.96   3
  -2  -4  -6 17649.6 2416.77   1
   2   4   6 19458.2 3594.50   7
   2   4  -6 15661.2 1870.62   4
  -2   6   6 13694.1 2903.34   7
  -4   6   6 13651.2 2722.86   7
  -2   6   6 11208.6 2223.20   4
   2  -6   6 16251.9 2907.58   1
  -6   4   6 16907.8 2853.78   7
   6  -4   7 72088.7 7175.87   6
  -6   4   7 68324.2 6753.32   3
   6  -2   7 66195.9 6744.12   6
  -6   2   7 65009.6 6452.70   3
   6  -2  -7 70448.8 4424.74   6
   4   2   7 63775.5 6206.43   6
   4  -6   7 76210.0 6413.16   2
   4  -6  -7 73094.9 6581.24   1
  -4  -2   7 67046.0 6334.10   3
  -2   6  -7 67422.4 4903.64   5
   2   4  -7 65904.5 5031.28   5
  -2  -4   7 75577.7 6328.78   3
   4   2  -7 69957.4 4972.17   5
  -4   6  -7 72046.8 4603.22   5
  -6   4  -7 70337.4 5297.32   9
  -2  -4  -7 71336.1 4307.06   9
  -6   2  -7 69420.6 5193.75   9
  -4  -2  -7 56290.1 4349.14   9
  -2  -4  -7 67294.9 4773.00   1
   2  -6   7 74519.3 6191.78   1
   6  -2  -7 65430.0 4598.61   8
   2  -6  -7 66158.1 4603.90   8
   2   4   7 69152.3 6601.59   7
  -2   6   7 63166.3 6408.24   7
  -2   6   7 64157.6 5438.06   4
  -4   6   7 69602.2 6454.12   7
  -6   4   7 68615.9 6012.56   7
  -4   6   7 65979.7 5187.02   4
   2  -6  -7 74800.5 5923.91   1
   2  -6   7 68492.0 5645.18   2
  -4   6   8 18555.5 2829.43   4
  -2  -4  -8 15381.4 2249.46   1
   4  -6  -8 17109.1 3259.54   1
   6  -4   8 11460.4 2868.03   6
   2  -6   8 18483.4 3129.31   2
   6  -2   8 16285.0 3428.66   6
   4   2   8 18227.2 3335.15   6
   4  -6   8 12258.5 2704.79   2
   2  -6  -8 12093.4 2505.45   1
  -6   4  -8 17607.9 2793.56   9
  -6   4   8 16978.0 3381.97   3
  -6   2  -8 17614.4 2673.24   9
  -4  -2  -8 15028.0 2303.16   9
  -2   6  -8 16366.7 2500.51   5
   2   4  -8 18809.8 2724.38   5
   4   2  -8 18156.3 2666.45   5
  -4   6  -8 18879.4 2431.79   5
  -6   2   8 19238.7 3523.78   3
   6  -2  -8 16825.8 2471.95   8
   2  -6  -8 14843.5 2270.98   8
   6  -4  -8 17527.4 2572.92   8
   4  -6  -8 18852.0 2675.27   8
  -4  -2   8 23478.4 4015.50   3
  -2  -4   8 15977.3 3064.33   3
   2   4   8 16852.8 3268.32   7
  -2   6   8 23227.0 4080.23   7
  -4   6   8 15799.4 3373.20   7
   2  -6   8 18529.1 3094.94   1
  -2   6   8 19717.7 3055.57   4
  -6   4   8 20013.4 3435.48   7
  -4   6   9 3580.87 1486.78   4
  -2  -4  -9 3562.52 1046.67   1
   6  -4   9 1280.69 734.587   6
   2  -6   9 5441.57 2031.55   2
   6  -2   9 2774.88 1559.69   6
   4   2   9 7062.74 2207.20   6
   4  -6  -9 4449.53 1941.92   1
   4  -6   9 2891.24 1381.25   2
  -6   4  -9 5617.57 1749.06   9
  -6   2  -9 3295.63 1314.76   9
  -6   4   9 1816.52 1190.26   3
  -4  -2  -9 6808.49 1750.42   9
   2   4  -9 4920.65 1429.09   5
  -2   6  -9 3239.35 1127.83   5
   4   2  -9 3719.07 1273.63   5
  -6   2   9 4884.67 1993.21   3
   6  -2  -9 5502.41 1534.96   8
   2  -6  -9 5014.27 1571.46   8
   6  -4  -9 3920.56 1450.13   8
   4  -6  -9 3911.33 1391.37   8
   4   2   9 393.025 1156.43   7
   2  -6  -9 4301.30 1708.55   1
  -4  -2   9 3419.39 1580.94   3
  -2  -4   9 2733.00 1564.80   3
   2   4   9-10.2119 1842.17   7
  -2   6   9 9043.05 2647.45   7
  -4   6   9 2533.86 1497.97   7
  -2   6   9 2931.79 1183.08   4
  -6   4   9 4249.10 1878.59   7
   6  -4  10 13748.9 2991.73   6
   2  -6  10 11445.7 2866.90   2
   6  -2  10 10617.8 2664.81   6
   4   2  10 15963.6 2854.84   6
   4  -6  10 8858.53 2490.66   2
   4  -6 -10 16462.9 3288.80   1
  -6   4 -10 15425.8 2899.29   9
  -6   2 -10 16252.7 2733.60   9
  -4  -2 -10 12279.5 2242.36   9
  -6   4  10 15624.1 3275.62   3
   2   4 -10 16900.8 2843.55   5
  -2   6 -10 11505.9 2258.59   5
   4   2 -10 13375.7 2479.31   5
  -6   2  10 6516.48 1940.29   3
   6  -2 -10 11483.0 2291.18   8
   2  -6 -10 10700.6 2252.47   8
   6  -4 -10 14951.9 2602.24   8
   4  -6 -10 19287.4 2957.24   8
  -4  -2  10 10595.6 2696.01   3
   2  -6 -10 13933.2 2770.07   1
  -2  -4  10 14610.8 3324.43   3
   4   2  10 15353.9 3282.92   7
   2   4  10 18586.4 3450.73   7
  -2   6  10 16874.3 3356.74   7
  -4   6  10 12394.5 3176.98   7
  -2   6  10 21023.9 3433.57   4
  -6   4  10 13571.2 2752.95   7
   2  -6  11 1250.05 1345.78   2
   4   2  11-325.973 974.642   6
   4  -6  11 2564.66 1451.35   2
  -4  -2 -11 1260.60 1241.46   9
  -2   6 -11 2477.21 1074.73   5
   4   2 -11 706.853 967.051   5
   6  -2 -11 1881.43 1156.28   8
   2  -6 -11 232.457 794.236   8
   2  -6 -11-322.495 1287.58   1
  -2   6  11-9.72486 821.723   4
  -6   4  11-1286.23 1257.71   7
   6  -2 -12 18003.8 3153.06   8
   6  -5   0 34439.5 3892.70   6
   6  -5   0 28736.9 4385.44   1
   5   1   0 30510.0 3700.53   6
   5  -6   0 24674.2 4180.02   1
   5  -6   0 28662.3 4101.70   6
  -6   1   0 30216.8 3259.11   3
   6  -1   0 24094.8 3257.53   6
  -5  -1   0 24882.4 2807.24   3
   5   1   0 29213.8 2348.02   5
  -1  -5   0 24609.3 2902.80   3
   1  -6   0 27876.3 3397.77   1
  -1   6   0 22946.2 2814.66   7
   1   5   0 25603.5 2924.85   4
  -1   6   0 24348.9 2977.81   4
  -5   6   0 27851.8 3149.18   7
   1   5   0 24497.0 3227.87   7
  -1   6  -1 2432.01 1065.80   4
   6  -5  -1 1772.76 1233.08   1
   5  -6   1 7053.63 2378.47   1
   5  -6  -1 7409.23 2362.39   1
   5  -6   1 5504.72 2167.63   6
   5  -6  -1 5582.88 1872.90   6
   6  -5   1 4845.20 1839.78   6
   6  -5  -1 4557.51 1591.41   6
   6  -1   1 4063.22 1602.06   6
   6  -1  -1 5819.13 1723.84   6
   5   1   1 2215.86 756.514   6
   6  -5   1 9570.47 2556.16   1
   5   1  -1 2375.85 1075.28   6
  -6   5  -1 3657.96 936.552   9
   5   1  -1 3784.21 914.333   5
  -6   1   1 3577.04 1363.63   3
  -6   1  -1 3902.37 1137.28   3
  -5  -1   1 4608.01 1429.96   3
  -5  -1  -1 4262.56 1151.34   3
   1   5   1 4296.60 1581.15   7
   1   5  -1 3605.41 1201.11   7
   1  -6   1 3620.79 1227.66   1
  -1   6   1 2913.05 1128.40   7
  -1   6  -1 3895.63 1222.34   7
  -1  -5   1 3999.29 1346.99   3
   1   5   1 2190.39 1106.84   4
  -5   6   1 1961.49 1129.07   7
  -5   6  -1 2762.94 1096.89   7
   1   5  -1 3382.43 1211.69   4
  -6   5   1 5512.73 1628.92   7
  -1   6   1 3327.69 1255.93   4
   1  -6  -1 958.979 729.331   1
   6  -5  -2 33664.7 3482.29   6
   6  -5  -2 37977.0 5539.79   1
   6  -1   2 31847.9 3918.35   6
   5  -6   2 30224.8 4873.42   1
   6  -1  -2 31774.7 3491.22   6
   5   1   2 31819.2 3993.22   6
   5   1  -2 27286.0 3366.16   6
   5  -6   2 30185.0 4791.88   6
  -6   1   2 31761.4 3885.74   3
   6  -5   2 27592.6 4014.97   6
  -6   1  -2 33327.3 2944.79   3
   5  -6  -2 30032.6 4509.30   1
  -5  -1   2 33556.4 3579.29   3
  -5  -1  -2 30245.7 2729.51   3
   5   1  -2 31806.4 2613.91   5
  -6   5  -2 36649.9 3196.42   9
  -1  -5   2 32129.1 3495.22   3
   1  -6  -2 29076.7 3452.32   1
   6  -5   2 33139.1 4047.17   1
   1   5  -2 33460.9 3229.22   7
  -1   6   2 32405.9 3745.14   7
   1   5   2 26306.8 3033.03   4
  -1   6  -2 31896.9 2948.93   7
  -1   6   2 29437.3 3321.85   4
   1   5  -2 28717.8 3021.24   4
  -5   6   2 26393.5 3336.02   7
  -5   6  -2 31487.6 3205.42   7
  -6   5   2 26209.7 3294.00   7
  -1   6  -2 24429.1 2938.16   4
   1  -6   2 28924.4 3539.16   1
   1   5   2 26608.3 3781.28   7
   5  -6  -2 29853.3 3603.91   6
   5  -6  -3 63378.3 4944.93   6
   6  -5   3 61741.8 6218.43   6
   6  -5  -3 65550.4 4677.90   6
   6  -1   3 63556.3 5758.83   6
   6  -1  -3 60595.5 4732.23   6
   5   1   3 66286.6 5857.92   6
   5   1  -3 62667.7 5015.55   6
  -6   1   3 65315.4 5821.34   3
   5  -6   3 75292.5 6935.51   1
  -5  -1   3 68560.2 5462.71   3
   5  -6  -3 64530.7 6560.97   1
  -5  -1  -3 65892.0 3881.33   3
   5   1  -3 67255.2 4044.99   5
  -6   5  -3 73517.6 4744.76   9
  -1  -5   3 56589.8 4798.24   3
  -1  -5  -3 60091.2 4815.91   1
   1  -6   3 66161.5 5446.54   1
   6  -5  -3 68079.3 7069.93   1
   1  -6  -3 56138.0 4852.36   1
   1   5   3 56562.0 5910.71   7
   1   5  -3 69138.4 4339.48   7
   1   5   3 60159.3 4812.15   4
  -1   6   3 54756.2 5175.82   7
   6  -5   3 68175.0 5384.14   1
  -1   6  -3 56376.5 3764.72   7
  -1   6   3 52720.7 4569.11   4
  -5   6   3 59036.3 5176.70   7
   1   5  -3 54703.3 4194.66   4
  -6   5   3 64014.7 5297.56   7
  -5   6  -3 57826.8 4331.43   7
  -1   6  -3 60833.9 4634.79   4
   5  -6   3 67198.5 7319.02   6
   1   5  -4 5546.89 1393.46   4
  -1   6  -4 5877.52 1437.68   4
   1  -6  -4 4845.84 1663.13   1
   5  -6   4 4951.48 1681.64   1
   5  -6   4 3555.41 2334.47   6
   5  -6  -4 5481.09 1414.46   6
   6  -5   4 3503.40 1984.72   6
   6  -5  -4 5647.22 2422.09   1
   6  -5  -4 5588.50 1335.01   6
   6  -1   4 2389.99 1416.37   6
   5   1   4 6311.65 2026.05   6
   6  -1  -4 2607.56 754.677   6
   5   1  -4 3892.85 1309.59   6
  -1   6  -4 6045.46 1589.51   5
   5  -6  -4 10128.6 2810.13   1
  -6   5  -4 5668.85 1431.83   9
   1   5  -4 7355.97 1793.63   5
  -6   1  -4 5821.43 1492.41   9
   5   1  -4 4349.66 1096.28   5
  -6   1   4 8210.69 2249.57   3
  -5  -1   4 3488.53 1573.31   3
   1  -6   4 3919.93 1490.77   1
  -1  -5  -4 5931.66 1526.44   1
   1   5   4 5148.42 1899.54   7
  -1  -5   4 5591.69 1574.28   3
  -1   6   4 2585.96 1230.40   7
   1   5   4 4397.05 1475.62   4
  -5   6   4 5685.94 1920.40   7
  -1   6   4 2904.26 1415.29   4
  -6   5   4 3963.59 1453.66   7
   1  -6  -5 26298.5 3309.22   1
   6  -1  -5 23737.0 2843.61   6
   5   1  -5 31372.5 3511.82   6
   5  -6   5 30649.4 4997.65   6
   6  -5   5 33138.7 5063.16   6
   6  -1   5 30374.1 4304.72   6
   5   1   5 28334.7 4107.72   6
  -1   6  -5 29512.8 3181.02   5
   1   5  -5 27146.3 3092.43   5
   5   1  -5 30045.3 2934.59   5
   5  -6  -5 36581.1 5027.11   1
  -1  -5   5 30896.2 3742.43   3
  -6   5  -5 34302.9 3559.74   9
   6  -5  -5 29936.9 4594.79   1
  -6   1  -5 24828.5 2953.34   9
   1  -6   5 30876.1 3906.24   1
  -5  -1  -5 29008.5 3102.37   9
  -1  -5  -5 33903.4 3528.00   1
  -6   1   5 25860.5 4138.38   3
  -5  -1   5 25625.0 3739.54   3
  -1   6   5 33154.2 3750.48   4
  -6   5   5 29857.1 3834.07   7
   1   5  -5 26225.3 2759.00   4
   1   5   5 31236.9 4890.43   7
  -1   6  -5 27450.4 3094.31   4
  -1   6   5 30236.5 4201.64   7
   1   5   5 25016.5 3260.86   4
  -5   6   5 26172.6 3677.33   7
   1   5  -6 2921.58 1010.79   4
  -5   6   6 6249.37 1641.49   4
   5  -6   6 5715.72 2345.45   6
   6  -5   6 5974.39 2447.22   6
   1  -6  -6 3083.44 1140.92   1
   6  -1   6 8658.06 2439.37   6
   5   1   6 6558.54 2133.89   6
   6  -1  -6 3484.18 1160.83   6
   5   1  -6 7543.66 1859.23   6
   1  -6   6 6740.02 2084.99   1
   5  -6  -6 3813.20 1639.07   1
  -6   5  -6 7245.28 1792.08   9
  -1   6  -6 3139.19 1239.28   5
   1   5  -6 5923.52 1570.98   5
  -6   1  -6 4049.87 1359.69   9
  -5  -1  -6 4098.63 1192.16   9
   5   1  -6 5435.30 1405.59   5
  -6   1   6 7586.53 2513.34   3
   6  -5  -6 8460.41 2346.99   1
  -5  -1   6 4991.94 1925.11   3
   1   5   6 3431.41 1684.94   7
  -1  -5   6 3279.24 1277.02   3
  -1   6   6 1578.68 1242.53   7
   1   5   6 3795.68 1518.03   4
  -5   6   6 5948.86 2021.51   7
  -1   6   6 3224.32 1223.86   4
  -6   5   6 6459.62 1939.91   7
  -1  -5  -6 3819.28 1332.02   1
   6  -1  -7 32518.4 3261.38   6
   5   1  -7 28360.3 3380.71   6
   5  -6   7 29325.4 4601.86   6
   6  -5   7 29428.2 4703.98   6
   6  -1   7 33578.0 4793.10   6
   5   1   7 26793.4 4205.18   6
  -1   6  -7 28791.9 3285.87   5
   1   5  -7 30071.8 3407.31   5
   5   1  -7 36510.9 3566.68   5
   5  -6   7 29920.5 4259.27   2
   1  -6   7 35281.8 4400.78   1
  -6   1  -7 36684.6 3712.26   9
  -5  -1  -7 32146.8 3399.46   9
  -6   5  -7 31439.0 3826.87   9
  -6   1   7 25200.1 4234.34   3
  -1  -5  -7 32603.5 3484.65   1
   5  -6  -7 38343.6 5200.26   1
  -5  -1   7 30396.3 4584.95   3
  -1   6   7 40826.0 4496.16   4
   1  -6  -7 28372.4 3555.77   1
   1   5   7 31451.8 4659.66   7
  -1  -5   7 33118.1 4163.48   3
  -5   6   7 37730.9 3875.24   4
  -1   6   7 38570.2 5261.85   7
   1   5  -7 32396.0 3074.38   4
   6  -5  -7 33599.5 4715.28   1
   1   5   7 26419.8 3548.85   4
  -5   6   7 34303.5 4658.22   7
  -6   5   7 32794.3 4358.01   7
  -6   5   8 641.710 962.835   3
  -1  -5  -8 358.958 729.038   1
   5  -6   8 2189.71 1251.56   6
   6  -5   8 1636.27 1428.72   6
   6  -1   8 989.654 1401.20   6
   5   1   8 2138.29 1724.67   6
   1  -6  -8 1841.47 1120.04   1
   5  -6   8-1101.03 1620.62   2
   1  -6   8 1186.37 1116.41   1
  -6   5  -8-1054.73 1182.55   9
  -6   1  -8 704.715 984.132   9
  -5  -1  -8 94.4969 926.110   9
  -1   6  -8-225.180 835.808   5
   1   5  -8 1536.86 956.465   5
   6  -5  -8 1901.83 1219.49   8
   5  -6  -8 1774.59 1194.23   8
  -6   1   8 2796.75 1758.87   3
  -5  -1   8 1132.58 1646.05   3
   5  -6  -8 828.230 1135.52   1
  -1  -5   8 659.437 1111.72   3
   1   5   8 1372.56 1476.50   7
  -1   6   8 295.901 1042.13   7
   1   5   8 522.240 1118.31   4
  -5   6   8-759.365 1222.17   7
  -1   6   8 2807.89 1682.20   4
  -6   5   8 1449.56 1576.16   7
   6  -5  -8 2151.29 1628.28   1
  -1  -5  -9 4758.53 1459.69   1
   5  -6   9 2112.15 1439.17   6
   6  -5   9 5591.16 2296.79   6
   6  -1   9 7089.11 2291.37   6
   5   1   9 4225.20 1949.93   6
   5  -6   9 9909.90 2619.79   2
   1  -6  -9 7339.14 1990.25   1
   1  -6   9 6082.73 2058.53   1
  -6   5   9 4535.11 1904.06   3
  -6   5  -9 5921.95 1630.42   9
  -6   1  -9 5515.70 1492.74   9
  -5  -1  -9 6730.54 1634.52   9
  -1   6  -9 6159.43 1712.51   5
   1   5  -9 3541.56 1347.29   5
   6  -5  -9 6608.65 1750.06   8
   5  -6  -9 6676.21 1793.65   8
  -6   1   9 8095.24 2492.40   3
  -5  -1   9 5766.91 2133.82   3
  -1  -5   9 4322.66 1919.15   3
   1   5   9 5105.70 1879.84   7
   6  -5  -9 4589.78 1832.16   1
  -1   6   9 7853.05 2552.79   7
   1   5   9 4562.53 1925.82   4
   5  -6  -9 7133.50 2394.17   1
  -1   6   9 7551.51 2215.87   4
  -5   6   9 1485.01 1521.89   7
  -6   5   9 6794.94 2191.57   7
  -1  -5 -10 4775.08 1474.58   1
   5   1  10 10611.1 2594.71   6
   5  -6  10 10559.5 2749.12   2
  -6   5 -10 6201.23 2237.54   9
   1  -6 -10 7260.37 1943.27   1
  -6   5  10 7434.06 2390.07   7
   6  -6   0 280580. 12917.9   6
   6   0   0 269038. 12203.0   6
  -6   0   0 271978. 10710.7   3
   6  -6   0 307049. 17466.6   1
   0  -6   0 278539. 11968.9   1
   0   6   0 274573. 11300.8   7
   0   6   0 258435. 10928.1   4
  -6   6   0 253988. 11087.7   7
   6  -6  -1 21942.9 4881.62   1
   6  -6   1 29227.3 4960.46   1
   6  -6   1 22235.9 3701.97   6
   6  -6  -1 18379.2 2964.55   6
  -6   0  -1 19220.8 2429.78   3
   6   0   1 19356.0 3277.09   6
   6   0  -1 22633.1 3252.06   6
  -6   0   1 17079.5 2610.84   3
   0  -6   1 22698.9 3250.01   1
   0  -6  -1 23665.4 3290.63   1
   0   6   1 18014.1 2902.77   7
   0   6  -1 20548.6 2685.67   7
  -6   6   1 18906.9 2837.41   7
  -6   6  -1 22374.1 2978.53   7
   0   6   1 21163.0 2952.67   4
   0   6  -1 16106.2 2459.35   4
   6  -6   2 119562. 8941.08   6
   6  -6  -2 119026. 7197.78   6
   6   0   2 104147. 7648.78   6
   6   0  -2 102582. 6879.68   6
  -6   0   2 110120. 7018.87   3
   6  -6  -2 119419. 10445.9   1
   6  -6   2 120692. 9323.30   1
   0  -6  -2 119228. 7327.70   1
   0   6   2 116990. 7786.69   7
   0   6  -2 112001. 5999.37   7
   0   6   2 98693.5 6543.79   4
   0   6  -2 102199. 6306.54   4
  -6   6   2 108493. 7096.92   7
   6  -6   3 50137.0 6028.96   6
   6  -6  -3 56237.5 4640.84   6
   6   0   3 61031.5 5929.21   6
   6   0  -3 55008.4 4866.29   6
  -6   0   3 54609.7 5165.79   3
   6  -6  -3 75216.1 7950.14   1
   6  -6   3 61669.5 6088.43   1
   0  -6  -3 64956.9 5334.67   1
   0   6   3 56968.9 5690.54   7
   0   6   3 49472.2 4725.15   4
  -6   6   3 62855.9 5480.94   7
   0   6  -3 54425.1 4479.06   4
   0  -6  -4 23800.8 3154.51   1
   6  -6  -4 21798.3 4377.58   1
   6  -6   4 30858.2 5094.66   6
   6   0   4 31503.3 4476.38   6
   6   0  -4 19529.5 2820.95   6
  -6   0  -4 23713.3 2952.81   9
   0   6  -4 20804.4 2785.70   5
  -6   0   4 28652.8 3970.94   3
   0   6  -4 20783.2 2772.47   4
   0   6   4 18890.6 3550.43   7
   0   6   4 22725.3 3285.30   4
  -6   6   4 25608.5 3607.20   7
   6  -6   5 93192.6 9041.79   6
   6   0   5 81361.3 7320.78   6
   6   0  -5 73212.1 5491.03   6
  -6   0   5 79088.7 7025.21   3
   0   6  -5 79782.9 5576.14   5
  -6   0  -5 76923.4 5423.19   9
   0  -6   5 84246.4 6447.89   3
   6  -6  -5 91762.0 8412.92   1
   0  -6  -5 78074.7 5887.73   1
   0   6   5 75690.4 7235.55   7
   0   6   5 82792.6 6282.95   4
  -6   6   5 79862.4 6676.39   7
   0   6  -5 76870.4 5304.66   4
   0   6  -6 4392.66 1369.67   4
   0  -6  -6 4301.92 1506.49   1
   6  -6   6 2363.18 1472.15   6
   6   0   6 6524.31 2471.77   6
   6   0  -6 2837.21 1220.07   6
   6  -6  -6 5871.66 2081.62   1
   0   6  -6 2056.23 1190.34   5
  -6   0  -6 4374.86 1463.85   9
  -6   0   6 5838.61 2411.22   3
   0   6   6 7141.46 2695.55   7
   0  -6   6 4319.75 1865.91   3
   0   6   6 4264.03 1695.57   4
  -6   6   6 3722.08 1670.59   7
   6   0   7 54682.8 6350.01   6
   6   0  -7 59667.5 4878.85   6
  -6   0   7 63219.6 6884.69   3
   0  -6   7 58220.1 5727.11   3
   0   6   7 70736.8 7249.24   7
   0  -6  -7 64286.6 5381.92   1
  -6   6   7 66820.3 6482.37   7
   0  -6  -8 5642.20 1762.01   1
   6   0  -8 9169.95 2017.33   6
  -3   7   0 18092.7 2676.50   4
  -4   7   0 15326.8 2569.47   4
   7  -4   0 19325.0 3051.59   6
   7  -3   0 20518.4 3076.81   6
   3  -7   0 14987.8 2864.90   1
   4   3   0 17623.3 3079.45   6
   4  -7   0 20683.5 3595.29   1
  -7   4   0 19689.3 3655.20   3
  -7   4   0 19161.5 2402.10   9
  -7   3   0 17535.8 3088.26   3
   4   3   0 24476.2 4630.58   7
   4   3   0 19385.6 2348.12   4
  -4  -3   0 17887.3 2528.56   3
   3   4   0 18807.5 3478.04   7
  -3  -4   0 17600.8 2556.43   3
  -3   7   0 20539.5 2747.72   7
   3   4   0 18606.1 2432.52   4
  -4   7   0 17689.6 2539.62   7
  -3   7   1 3122.96 1242.30   4
  -3   7  -1 2504.14 1170.04   4
  -4   7   1 4006.93 1377.47   4
   7  -4   1 1875.26 1324.12   6
   7  -4  -1 2929.43 1135.64   6
   7  -3   1 1877.42 1152.21   6
   7  -3  -1 2058.82 1105.46   6
   3  -7   1 4381.19 1766.33   1
   4   3   1 1600.33 1300.07   6
   4   3  -1 1782.59 1180.21   6
   4   3  -1 4056.10 1289.76   5
   3  -7  -1 3344.28 1445.88   1
   4  -7   1 2175.95 1739.68   1
  -7   4   1 1757.01 1525.27   3
  -7   4  -1 1197.26 881.759   9
  -7   3  -1 3156.96 1193.54   9
  -7   4   1 2329.81 958.334   9
  -7   4  -1 4209.71 1681.10   3
   4  -7  -1 2034.48 1317.30   1
  -7   3   1 804.931 863.428   3
  -7   3  -1 2229.19 1225.29   3
   4   3   1 4286.31 2790.01   7
  -4  -3   1 3080.45 1307.38   3
   4   3  -1 1837.99 1186.89   7
   3   4   1 3618.23 1762.51   7
   3   4  -1 1326.48 1003.47   7
  -4  -3  -1 2497.31 889.455   3
  -3  -4   1 2725.82 1273.12   3
  -3  -4  -1 3166.69 1166.67   3
   4   3   1 2328.46 1041.11   4
  -3   7   1 4343.81 1472.75   7
   3   4   1 1597.55 856.186   4
  -3   7  -1 2604.77 1000.54   7
   4   3  -1 3075.94 1037.55   4
  -4   7   1 2073.18 1087.94   7
  -4   7  -1 1085.59 874.819   7
   3   4  -1 2947.57 1001.02   4
  -3   7   2 25658.6 3319.09   4
  -4   7   2 24926.5 3263.20   4
  -3   7  -2 21828.3 3030.26   4
   7  -4  -2 27698.0 3271.83   6
   7  -4   2 26495.5 3887.71   6
   3  -7   2 28172.4 4076.97   1
   7  -3   2 27472.0 3849.16   6
   7  -3  -2 21666.6 3002.41   6
   4   3   2 23535.9 3653.23   6
   4   3  -2 25306.8 3671.81   6
  -4   7  -2 24711.3 2571.66   5
   4   3  -2 22233.3 2613.14   5
   3  -7  -2 26985.9 3791.55   1
  -4  -3  -2 23566.1 2681.58   3
  -3  -4  -2 23686.7 2776.81   3
  -7   4  -2 24569.6 2772.20   9
   4  -7   2 29346.2 4475.55   1
  -7   3  -2 27363.8 3049.31   9
  -7   4   2 31185.6 5085.59   3
  -7   4  -2 28871.6 3803.31   3
  -7   3   2 25256.1 4259.61   3
   4  -7  -2 27432.9 4187.25   1
   4   3   2 22422.9 2767.63   4
   3   4   2 23258.7 2932.52   4
   3   4  -2 24176.7 2684.13   4
  -3   7  -2 22116.0 2655.52   7
  -4   7  -2 24312.8 2850.93   7
  -4  -3   2 23201.9 3066.15   3
   4   3   2 19389.5 4262.34   7
   4   3  -2 31151.1 4499.49   7
   3   4   2 29131.8 4847.72   7
   3   4  -2 28424.2 3676.68   7
  -3  -4   2 22148.3 3011.48   3
  -3   7   2 20640.7 3088.30   7
  -4   7   2 24732.0 3277.73   7
   4  -7  -3 41521.3 5114.76   1
   7  -4   3 42767.0 5047.53   6
   7  -3   3 41547.6 4826.72   6
   7  -4  -3 36796.3 3707.50   6
  -7   4   3 45948.3 6100.61   3
   7  -3  -3 38424.3 3845.64   6
   4   3   3 47105.7 5239.77   6
  -3   7  -3 44046.5 3750.05   5
   3   4  -3 39296.5 3727.03   5
  -4   7  -3 45345.8 3550.88   5
   4   3  -3 39892.8 3556.58   5
  -4  -3   3 42649.0 4351.98   3
  -3  -4   3 40696.9 4278.30   3
  -4  -3  -3 44801.5 3569.51   3
  -7   4  -3 43677.3 3837.59   9
  -7   3  -3 40261.9 3745.55   9
  -3  -4  -3 38579.0 3483.14   3
  -7   3   3 43702.8 5861.75   3
   4   3   3 42061.7 3875.35   4
   3   4   3 36224.4 3681.63   4
  -3   7   3 35102.0 4103.54   7
  -4   7   3 38010.7 4315.38   7
   3  -7   3 46803.3 5242.48   1
  -3   7  -3 40403.0 3485.99   7
  -4   7  -3 44560.5 3746.78   7
  -3   7   3 36770.9 4009.13   4
   4   3   3 30934.8 5148.11   7
   3   4   3 45243.9 6219.53   7
  -4   7   3 44126.4 4338.49   4
   3  -7  -3 45004.9 4961.77   1
   4  -7   3 46475.5 5593.64   1
  -3   7   4 5352.00 1677.67   4
  -4   7   4 2828.91 1331.72   4
   3  -7   4 6492.49 2264.42   1
   7  -4   4 3678.80 1671.48   6
   7  -3   4 5976.83 2191.67   6
   7  -4  -4 3811.68 1190.15   6
   7  -3  -4 2016.23 1160.12   6
   4   3   4 4922.41 2184.33   6
   3  -7  -4 4095.29 1595.45   1
   4  -7   4 5244.12 2116.46   1
  -3   7  -4 4299.36 1232.72   5
   3   4  -4 2970.27 1204.40   5
  -7   4  -4 4628.36 1463.42   9
  -4   7  -4 4696.69 1209.90   5
   4   3  -4 5217.75 1357.39   5
  -7   3  -4 3653.18 1288.35   9
  -3  -4  -4 5867.93 1313.91   9
  -4  -3  -4 3986.14 1254.54   9
  -7   4   4 3455.61 1831.39   3
  -7   3   4 4005.79 1869.82   3
   4  -7  -4 2754.85 1438.41   1
  -4  -3   4 3670.81 1490.97   3
   4   3   4 4112.30 2159.56   7
  -3  -4   4 3226.56 1371.98   3
   3   4   4 2338.33 1236.79   7
   3   4   4 5071.06 1581.23   4
  -3   7   4 6000.58 1902.05   7
  -4   7   4 5714.38 2027.75   7
  -4   7  -4 2453.09 911.909   7
   7  -3  -5 25921.6 2989.25   6
   3  -7   5 31105.4 4400.24   1
   7  -4   5 24960.2 4257.28   6
   7  -3   5 21826.5 3904.07   6
   4   3   5 30663.8 4460.99   6
  -3   7  -5 27592.4 3085.41   5
   3   4  -5 23251.1 2972.44   5
   4   3  -5 27147.0 3097.53   5
   4  -7   5 30269.9 4550.89   1
  -7   4  -5 28877.5 3334.30   9
  -3  -4  -5 25957.6 2709.36   9
  -4  -3  -5 25222.3 2834.72   9
   3  -7  -5 28370.1 4045.86   1
  -7   3  -5 24533.0 3122.44   9
  -7   4   5 22344.6 4131.98   3
  -7   3   5 29021.5 4714.10   3
  -4  -3   5 25523.5 3576.48   3
  -3  -4   5 26850.7 3691.70   3
   4   3   5 31588.8 4986.47   7
   4  -7  -5 23091.0 3799.93   1
  -4   7   5 27927.3 3566.81   4
   3   4   5 25249.7 4600.01   7
   3   4   5 24259.7 3313.61   4
  -3   7   5 26514.2 3893.71   7
  -4   7   5 26383.4 3900.78   7
  -3   7   5 23157.0 3264.69   4
  -4   7   6 3073.00 1327.97   4
   3  -7   6 6391.41 1932.43   1
   7  -4   6 5257.49 2307.49   6
   7  -3   6 3214.05 2117.61   6
   4   3   6 1030.69 1107.02   6
   3   4   6-3515.05 1845.90   6
  -3  -4  -6 5666.77 1462.87   1
  -7   4  -6 4336.08 1404.15   9
  -7   3  -6 5423.99 1566.91   9
  -4  -3  -6 4284.40 1268.73   9
  -3   7  -6 4209.96 1436.19   5
   3   4  -6 1948.34 1162.50   5
   4   3  -6 2906.33 1141.86   5
  -7   4   6 932.653 946.030   3
  -7   3   6 3691.32 1704.97   3
   3  -7  -6 3505.28 1451.06   1
   7  -3  -6 4528.32 1387.66   8
   3  -7  -6 4516.71 1260.90   8
  -4  -3   6 7275.29 2274.23   3
  -3  -4   6 5343.78 1851.46   3
   4   3   6-1287.46 1834.35   7
   3   4   6 3967.64 2249.28   7
   3   4   6 4567.44 1713.62   4
  -3   7   6 672.637 967.690   7
  -4   7   6 227.422 1189.33   7
   4  -7  -6 1475.57 1491.34   1
  -3   7   6 3514.80 1583.35   4
  -4   7   7 26345.9 3606.74   4
   4   3   7 29549.7 4637.01   6
   3   4   7 27165.2 4281.33   6
  -4  -3  -7 27844.7 3174.98   9
  -3  -4  -7 27088.9 3084.68   1
  -7   4  -7 28752.3 3566.51   9
  -3   7  -7 21228.4 2861.51   5
   3   4  -7 24318.0 3212.47   5
   4   3  -7 24492.8 3158.30   5
   7  -3  -7 25901.6 3070.39   8
   3  -7  -7 24552.4 2994.29   8
   7  -4  -7 27616.2 3302.52   8
   4  -7  -7 23555.8 3035.50   8
  -3   7   7 26257.6 3682.20   4
  -4   7   8 8.79126 870.707   4
   4   3   8 2719.84 1744.94   6
  -4  -3  -8 1108.66 879.156   9
  -3   7  -8 901.379 834.922   5
   4   3  -8 1331.90 1004.10   5
   7  -3  -8 1456.46 909.088   8
   3  -7  -8 1488.86 1047.48   8
   7  -4  -8 3822.61 1487.42   8
   7  -5   0 173382. 9451.02   6
  -7   5   0 158924. 12210.1   3
   7  -2   0 175313. 9494.75   6
   5   2   0 152209. 9336.74   6
   5  -7   0 184699. 12124.0   1
  -7   2   0 157820. 8497.43   3
  -5  -2   0 162929. 7984.88   3
  -2  -5   0 165068. 8442.70   3
   2   5   0 164648. 9556.08   7
   2  -7   0 191717. 10230.0   1
   2   5   0 163080. 8080.38   4
  -2   7   0 155158. 8079.88   7
  -5   7   0 145365. 8038.32   7
  -2   7   0 154011. 8358.50   4
  -2   7   1 4761.18 1544.20   4
  -2   7  -1 4642.67 1502.97   4
   5  -7  -1 4497.06 1886.33   1
   2  -7   1 7962.89 2213.40   1
   2  -7  -1 8092.74 2103.56   1
   7  -5   1 10525.7 2495.40   6
   7  -5  -1 8833.75 2078.59   6
   7  -2   1 9459.30 2284.01   6
   7  -2  -1 9173.70 2070.01   6
   5   2   1 10114.1 2472.29   6
   5   2  -1 10383.9 2352.76   6
  -7   5  -1 10639.6 3343.33   3
  -7   5   1 14505.1 3892.75   3
  -7   2   1 6902.28 2063.98   3
  -5  -2   1 3394.82 1134.79   3
  -5  -2  -1 6438.14 1418.21   3
   2   5   1 5356.23 2024.73   7
   2   5  -1 5759.78 1770.26   7
  -2  -5   1 7814.78 1859.54   3
  -2   7   1 8145.51 1941.80   7
  -2  -5  -1 6251.08 1648.55   3
  -2   7  -1 7056.37 1628.89   7
   2   5   1 5925.99 1526.83   4
  -5   7   1 4953.93 1733.99   7
  -5   7  -1 5708.52 1544.06   7
   2   5  -1 6222.71 1571.18   4
   5  -7  -1 10441.7 2735.10   6
   5  -7   1 10327.1 3000.19   1
   7  -5   2 97963.7 7649.09   6
  -7   5  -2 92177.4 8128.06   3
  -7   5   2 97736.7 9237.59   3
   7  -5  -2 86337.9 6068.16   6
   7  -2   2 101705. 7598.56   6
   7  -2  -2 99648.0 6642.88   6
   5  -7   2 108099. 9470.11   1
   5   2   2 104055. 7796.82   6
   5   2  -2 91467.2 6866.59   6
  -7   2   2 92173.0 7231.06   3
   5  -7  -2 109769. 9097.78   1
  -5  -2   2 88980.4 6244.38   3
  -5  -2  -2 91946.7 5332.30   3
  -2  -5   2 105078. 6866.66   3
  -7   2  -2 91470.7 5923.85   9
   2  -7   2 112836. 7941.92   1
   2   5   2 88966.4 7710.64   7
   2   5   2 85557.1 5935.68   4
  -2   7   2 95655.5 6749.11   7
   2  -7  -2 103994. 7399.63   1
  -2   7  -2 93767.4 5558.89   7
   2   5  -2 95460.6 5800.06   4
  -5   7   2 97524.2 6834.42   7
  -5   7  -2 90701.2 5892.48   7
  -2   7   2 100882. 6723.05   4
  -2   7  -2 91362.1 6243.69   4
   5  -7  -2 102832. 7460.32   6
  -2   7  -3 23516.1 3131.16   4
   2  -7   3 27694.2 3954.29   1
   7  -5  -3 24510.3 3062.13   6
   5  -7  -3 32867.4 4933.51   1
   7  -2  -3 28150.4 3373.93   6
   5  -7  -3 26525.2 3531.92   6
   7  -5   3 30660.8 4409.34   6
   2  -7  -3 25841.5 3671.42   1
   7  -2   3 29686.2 4237.18   6
   5   2   3 27433.5 4051.94   6
   5   2  -3 24294.6 3467.19   6
  -5  -2   3 27958.6 3534.13   3
   2   5  -3 28359.1 3318.03   5
  -7   2  -3 27626.7 3226.68   9
  -7   5   3 23454.2 4653.01   3
  -7   2   3 28423.5 4211.83   3
   2   5   3 28226.9 3433.18   4
  -2   7   3 34317.8 4129.61   7
   2   5  -3 24615.1 2829.08   4
  -2   7   3 29262.7 3640.94   4
  -5   7  -3 28926.3 3178.85   7
   2   5   3 26526.0 4500.46   7
  -2  -5   3 24036.3 3325.90   3
  -5   7   3 26934.2 3647.09   7
   5  -7   3 24009.5 4568.21   1
   7  -2   4 40182.2 5087.33   6
   7  -2  -4 41954.5 4050.98   6
   5   2   4 47611.4 5492.17   6
  -7   2   4 44550.5 5615.01   3
   5   2  -4 47183.9 4796.53   6
   7  -5   4 42251.7 5474.14   6
   5  -7  -4 50437.8 6140.29   1
  -5  -2   4 44349.7 4687.78   3
  -2   7  -4 43135.9 3991.55   5
   2   5  -4 44648.4 4151.09   5
  -2  -5   4 50620.1 4967.91   3
  -7   5  -4 43377.4 4037.80   9
  -2  -5  -4 47461.1 4479.35   1
  -7   2  -4 44551.7 4126.81   9
  -5  -2  -4 39173.5 3737.55   9
  -7   5   4 42573.0 5885.38   3
   2  -7   4 39982.0 4870.19   1
   2   5   4 38767.6 4160.63   4
  -2   7   4 39142.8 4682.41   7
  -5   7   4 39877.6 4621.20   7
  -2   7   4 44843.0 4634.06   4
   2  -7  -4 40769.8 4630.19   1
   2   5  -4 41284.2 3619.84   4
  -5   7  -4 46106.4 3959.90   7
   2   5   4 44046.7 5915.51   7
  -2   7  -4 46470.0 4375.17   4
   5  -7   4 40826.1 5273.46   1
   7  -5   5 98248.7 8782.12   6
  -7   5   5 106987. 9197.99   3
   7  -2  -5 99346.5 6244.43   6
   5   2   5 102714. 8325.17   6
  -7   2   5 91170.0 8610.53   3
   5   2  -5 93744.9 6794.09   6
   5  -7  -5 107598. 8866.08   1
  -5  -2   5 88297.8 7098.83   3
  -2   7  -5 96118.1 6109.89   5
   2   5  -5 92004.5 6212.95   5
  -2  -5   5 88421.3 6918.37   3
  -7   5  -5 101619. 6524.87   9
  -7   2  -5 100575. 6454.27   9
  -5  -2  -5 94307.3 5964.44   9
  -2  -5  -5 96735.2 6451.55   1
   2  -7   5 100075. 7841.73   1
   2   5   5 83164.7 8239.71   7
   2   5   5 81875.1 6353.62   4
  -2   7   5 92926.0 7597.91   7
  -5   7   5 93363.2 7458.55   7
  -2   7   5 104179. 7242.73   4
  -5   7   5 94538.8 6826.53   4
   2  -7   6-2693.02 1473.98   1
  -5   7   6 2125.71 1657.50   4
   7  -2  -6-150.203 776.674   6
  -7   5  -6 2313.69 1160.25   9
  -2   7  -6-209.068 905.014   5
  -5  -2  -6 3214.08 1235.49   9
  -7   2   6 2950.23 1708.67   3
  -2  -5  -6 1586.85 1089.75   1
  -7   5  -7 92078.3 6738.44   9
  -2  -5  -7 84080.8 5990.78   1
   2  -7   7 77393.6 7225.64   1
   6  -7   0 20270.8 3533.05   6
   7  -6   0 18209.5 3063.60   6
   7  -1   0 19325.1 3213.42   6
   7  -6   0 24757.8 4384.28   1
   6  -7   0 10555.0 3319.85   1
  -6  -1   0 20121.9 2707.19   3
   1   6   0 23398.5 3333.31   7
  -1   7   0 16382.4 2493.54   7
  -6   7   0 18131.7 2844.00   7
   1   6   0 17302.6 2688.62   4
   6  -7   1 742.732 1041.73   6
   6  -7  -1 1046.27 986.021   6
   7  -6   1 1313.57 1105.70   6
   7  -6  -1 2434.62 1339.53   6
   7  -1  -1 2158.38 1374.95   6
   6  -7   1 116.862 1714.53   1
   6  -7  -1 3938.15 1631.96   1
  -7   1   1 2563.49 1159.20   3
   7  -6  -1 4153.51 2402.45   1
  -6  -1   1 3019.35 1210.04   3
   1   6   1 2588.75 1579.11   7
  -1   7   1 1387.72 1074.68   7
  -6   7   1 2552.03 1217.06   7
  -6   7  -1 2362.85 1206.76   7
   1   6   1 4009.12 1292.77   4
   1   6  -1 1729.49 1144.69   4
   6  -7   2 18656.4 3692.03   6
   6  -7  -2 18824.8 3058.82   6
   7  -6   2 27881.7 4235.29   6
   7  -6  -2 19992.2 2977.71   6
   7  -1  -2 20920.2 3108.39   6
   7  -6  -2 24840.4 4876.40   1
   6  -7   2 17864.0 3887.38   1
   6  -7  -2 22837.5 4758.65   1
  -7   1   2 20269.6 3169.42   3
  -6  -1   2 21395.8 3048.46   3
   1   6   2 20881.7 3523.53   7
  -1   7   2 22567.3 3340.61   7
   1   6   2 18407.9 2867.25   4
  -6   7  -2 18564.5 2753.17   7
   1   6  -2 14752.7 2419.65   4
   7  -1  -3 32365.0 3839.92   6
   6  -7   3 33340.9 5344.17   6
  -7   1   3 33434.0 4308.19   3
  -6  -1   3 30639.5 3840.00   3
   7  -6  -3 46214.6 6408.02   1
   6  -7  -3 45248.9 6466.74   1
  -1   7   3 39601.4 4719.45   7
   1   6  -3 34214.7 3609.41   4
   1   6   3 33717.5 4665.23   7
   1   6  -4 3875.70 1422.57   4
   7  -1  -4 2076.52 1098.40   6
  -7   1   4 1899.19 1266.22   3
  -6  -1   4 1172.08 1291.11   3
   1   6   4 3924.10 1721.62   7
  -1   7   4 1990.19 1330.90   7
   1   6  -5 17200.9 2481.44   4
   7  -1  -5 18077.2 2746.47   6
   0   0   0    0.00    0.00   0

TITL pg48 in P6/mmm
REM P6/mmm (#191 in standard setting)
CELL 0.71073   5.240153   5.240153  12.294398  90.0000  90.0000 120.0000
ZERR    2.00   0.000140   0.000140   0.000399   0.0000   0.0000   0.0000
LATT  1
SYMM -y, x-y, z
SYMM -x+y,-x, z
SYMM -x,-y, z
SYMM  y,-x+y, z
SYMM  x-y, x, z
SYMM  y, x,-z
SYMM  x-y,-y,-z
SYMM -x,-x+y,-z
SYMM -y,-x,-z
SYMM -x+y, y,-z
SYMM  x, x-y,-z
SFAC O Cl K As
UNIT 6.00 2.00 2.00 4.00
TREF
HKLF 4
END
;
_shelx_hkl_checksum              2593
_olex2_date_sample_data_collection 2018-12-05
_olex2_submission_special_instructions 'No special instructions were received'
_oxdiff_exptl_absorpt_empirical_details
;
Empirical correction (ABSPACK) includes:
- Absorption correction using spherical harmonics
- Frame scaling
;
_oxdiff_exptl_absorpt_empirical_full_max 1.104
_oxdiff_exptl_absorpt_empirical_full_min 0.891
loop_
_space_group_symop_operation_xyz
'x, y, z'
'x-y, x, z'
'-y, x-y, z'
'-x, -y, z'
'-x+y, -x, z'
'y, -x+y, z'
'x-y, -y, -z'
'-x, -x+y, -z'
'y, x, -z'
'-y, -x, -z'
'-x+y, y, -z'
'x, x-y, -z'
'-x, -y, -z'
'-x+y, -x, -z'
'y, -x+y, -z'
'x, y, -z'
'x-y, x, -z'
'-y, x-y, -z'
'-x+y, y, z'
'x, x-y, z'
'-y, -x, z'
'y, x, z'
'x-y, -y, z'
'-x, -x+y, z'
loop_
_atom_site_label
_atom_site_type_symbol
_atom_site_fract_x
_atom_site_fract_y
_atom_site_fract_z
_atom_site_U_iso_or_equiv
_atom_site_adp_type
_atom_site_occupancy
_atom_site_site_symmetry_order
_atom_site_calc_flag
_atom_site_refinement_flags_posn
_atom_site_refinement_flags_adp
_atom_site_refinement_flags_occupancy
_atom_site_disorder_assembly
_atom_site_disorder_group
As1 As 0.333333 0.666667 0.21026(2) 0.01105(12) Uani 1 6 d S T P . .
K1 K 0.000000 0.000000 0.000000 0.0274(3) Uani 1 24 d S T P . .
Cl1 Cl 0.000000 0.000000 0.32424(12) 0.0303(3) Uani 1 12 d S T P . .
O1 O 0.500000 0.500000 0.13226(13) 0.0147(3) Uani 1 4 d S T P . .
K2 K 0.500000 0.000000 0.500000 0.0624(9) Uani 0.3334 8 d S T P A 1
O2 O 0.500000 0.000000 0.500000 0.0624(9) Uani 0.3334 8 d S T P B 2
loop_
_atom_site_aniso_label
_atom_site_aniso_U_11
_atom_site_aniso_U_22
_atom_site_aniso_U_33
_atom_site_aniso_U_23
_atom_site_aniso_U_13
_atom_site_aniso_U_12
As1 0.00876(13) 0.00876(13) 0.01562(18) 0.000 0.000 0.00438(7)
K1 0.0268(5) 0.0268(5) 0.0285(7) 0.000 0.000 0.0134(2)
Cl1 0.0269(4) 0.0269(4) 0.0370(6) 0.000 0.000 0.01346(19)
O1 0.0148(6) 0.0148(6) 0.0199(8) 0.000 0.000 0.0115(6)
K2 0.085(2) 0.060(2) 0.0333(13) 0.000 0.000 0.0301(10)
O2 0.085(2) 0.060(2) 0.0333(13) 0.000 0.000 0.0301(10)
loop_
_atom_type_symbol
_atom_type_description
_atom_type_scat_dispersion_real
_atom_type_scat_dispersion_imag
_atom_type_scat_source
As As 0.0499 2.0058 'International Tables Vol C Tables 4.2.6.8 and 6.1.1.4'
Cl Cl 0.1484 0.1585 'International Tables Vol C Tables 4.2.6.8 and 6.1.1.4'
K K 0.2009 0.2494 'International Tables Vol C Tables 4.2.6.8 and 6.1.1.4'
O O 0.0106 0.0060 'International Tables Vol C Tables 4.2.6.8 and 6.1.1.4'
loop_
_exptl_crystal_face_index_h
_exptl_crystal_face_index_k
_exptl_crystal_face_index_l
_exptl_crystal_face_perp_dist
0 0 -1 0.0196
0 1 0 0.1013
0 -1 0 0.0857
-1 1 0 0.0827
1 -1 0 0.0983
-1 0 0 0.1034
1 0 0 0.0878
0 0 1 0.0196
loop_
_geom_angle_atom_site_label_1
_geom_angle_atom_site_label_2
_geom_angle_atom_site_label_3
_geom_angle
_geom_angle_site_symmetry_1
_geom_angle_site_symmetry_3
_geom_angle_publ_flag
O1 As1 O1 94.01(6) 2 3_665 ?
O1 As1 O1 94.01(6) 3_665 . ?
O1 As1 O1 94.01(6) 2 . ?
As1 O1 As1 115.25(9) 2_655 . ?
loop_
_geom_bond_atom_site_label_1
_geom_bond_atom_site_label_2
_geom_bond_distance
_geom_bond_site_symmetry_2
_geom_bond_publ_flag
As1 O1 1.7911(9) 2 ?
As1 O1 1.7911(9) . ?
As1 O1 1.7911(9) 3_665 ?
loop_
_geom_torsion_atom_site_label_1
_geom_torsion_atom_site_label_2
_geom_torsion_atom_site_label_3
_geom_torsion_atom_site_label_4
_geom_torsion
_geom_torsion_site_symmetry_1
_geom_torsion_site_symmetry_2
_geom_torsion_site_symmetry_3
_geom_torsion_site_symmetry_4
_geom_torsion_publ_flag
O1 As1 O1 As1 -132.84(4) 2 . . 2_655 ?
O1 As1 O1 As1 132.84(4) 3_665 . . 2_655 ?
loop_
_exptl_oxdiff_crystal_face_indexfrac_h
_exptl_oxdiff_crystal_face_indexfrac_k
_exptl_oxdiff_crystal_face_indexfrac_l
_exptl_oxdiff_crystal_face_x
_exptl_oxdiff_crystal_face_y
_exptl_oxdiff_crystal_face_z
-0.0001 0.0000 -0.9985 -0.0083 0.0037 0.0569
-0.0009 0.9980 0.0001 -0.0657 0.1402 -0.0188
0.0009 -0.9980 -0.0001 0.0657 -0.1402 0.0188
-0.9983 0.9979 0.0004 0.0880 0.1287 0.0045
0.9983 -0.9979 -0.0004 -0.0880 -0.1287 -0.0045
-0.9975 -0.0001 0.0003 0.1537 -0.0115 0.0233
0.9975 0.0001 -0.0003 -0.1537 0.0115 -0.0233
0.0001 -0.0000 0.9985 0.0083 -0.0037 -0.0569
