#------------------------------------------------------------------------------
#$Date: 2021-05-01 00:26:41 +0300 (Sat, 01 May 2021) $
#$Revision: 264729 $
#$URL: file:///home/coder/svn-repositories/cod/cif/4/51/86/4518646.cif $
#------------------------------------------------------------------------------
#
# This file is available in the Crystallography Open Database (COD),
# http://www.crystallography.net/
#
# All data on this site have been placed in the public domain by the
# contributors.
#
data_4518646
loop_
_publ_author_name
'Yang, Feng'
'Xu, Yuangang'
'Wang, Pengcheng'
'Lin, Qiuhan'
'Lu, Ming'
_publ_section_title
;
 Oxygen-Enriched Metal--Organic Frameworks Based on
 1-(Trinitromethyl)-1H-1,2,4-Triazole-3-Carboxylic Acid and Their Thermal
 Decomposition and Effects on the Decomposition of Ammonium Perchlorate
;
_journal_name_full               'ACS Applied Materials &amp; Interfaces'
_journal_paper_doi               10.1021/acsami.1c03110
_journal_year                    2021
_chemical_formula_moiety         'C4 H2 N5 O6 Rb'
_chemical_formula_sum            'C4 H2 N5 O6 Rb'
_chemical_formula_weight         301.58
_space_group_crystal_system      monoclinic
_space_group_IT_number           7
_space_group_name_Hall           'P -2yac'
_space_group_name_H-M_alt        'P 1 n 1'
_atom_sites_solution_hydrogens   mixed
_atom_sites_solution_primary     iterative
_audit_creation_date             2020-11-05
_audit_creation_method
;
Olex2 1.2
(compiled 2018.05.29 svn.r3508 for OlexSys, GUI svn.r5506)
;
_cell_angle_alpha                90
_cell_angle_beta                 98.981(2)
_cell_angle_gamma                90
_cell_formula_units_Z            2
_cell_length_a                   8.1074(4)
_cell_length_b                   5.0807(2)
_cell_length_c                   10.7183(5)
_cell_measurement_reflns_used    3159
_cell_measurement_temperature    170
_cell_measurement_theta_max      26.410
_cell_measurement_theta_min      2.940
_cell_volume                     436.09(3)
_computing_cell_refinement       'SAINT V8.40A (?, 2016)'
_computing_data_reduction        'SAINT V8.40A (?, 2016)'
_computing_molecular_graphics    'Olex2 (Dolomanov et al., 2009)'
_computing_publication_material  'Olex2 (Dolomanov et al., 2009)'
_computing_structure_refinement  'ShelXL (Sheldrick, 2015)'
_computing_structure_solution    'olex2.solve (Bourhis et al., 2015)'
_diffrn_ambient_temperature      170.0
_diffrn_measured_fraction_theta_full 0.997
_diffrn_measured_fraction_theta_max 0.988
_diffrn_measurement_device_type  'D8 VENTURE'
_diffrn_measurement_method       '\f and \w scans'
_diffrn_radiation_type           MoK\a
_diffrn_radiation_wavelength     0.71073
_diffrn_reflns_av_R_equivalents  0.0565
_diffrn_reflns_av_unetI/netI     0.0518
_diffrn_reflns_Laue_measured_fraction_full 0.997
_diffrn_reflns_Laue_measured_fraction_max 0.988
_diffrn_reflns_limit_h_max       10
_diffrn_reflns_limit_h_min       -11
_diffrn_reflns_limit_k_max       6
_diffrn_reflns_limit_k_min       -6
_diffrn_reflns_limit_l_max       14
_diffrn_reflns_limit_l_min       -13
_diffrn_reflns_number            9424
_diffrn_reflns_point_group_measured_fraction_full 0.966
_diffrn_reflns_point_group_measured_fraction_max 0.918
_diffrn_reflns_theta_full        25.242
_diffrn_reflns_theta_max         29.247
_diffrn_reflns_theta_min         2.940
_diffrn_standards_number         0
_exptl_absorpt_coefficient_mu    5.705
_exptl_absorpt_correction_T_max  0.7454
_exptl_absorpt_correction_T_min  0.5573
_exptl_absorpt_correction_type   multi-scan
_exptl_absorpt_process_details
'SADABS-2016/2 (Bruker,2016/2) was used for absorption correction. wR2(int) was 0.0899 before and 0.0628 after correction. The Ratio of minimum to maximum transmission is 0.7477. The \l/2 correction factor is Not present.'
_exptl_crystal_colour            colourless
_exptl_crystal_colour_primary    colourless
_exptl_crystal_density_diffrn    2.297
_exptl_crystal_description       block
_exptl_crystal_F_000             292
_exptl_crystal_size_max          0.28
_exptl_crystal_size_mid          0.15
_exptl_crystal_size_min          0.12
_refine_diff_density_max         0.693
_refine_diff_density_min         -0.568
_refine_diff_density_rms         0.099
_refine_ls_abs_structure_details
;
 Refined as an inversion twin.
;
_refine_ls_abs_structure_Flack   0.053(12)
_refine_ls_extinction_coef       0.015(4)
_refine_ls_extinction_expression Fc^*^=kFc[1+0.001xFc^2^\l^3^/sin(2\q)]^-1/4^
_refine_ls_extinction_method     'SHELXL-2018/3 (Sheldrick 2018)'
_refine_ls_goodness_of_fit_ref   1.081
_refine_ls_hydrogen_treatment    mixed
_refine_ls_matrix_type           full
_refine_ls_number_parameters     151
_refine_ls_number_reflns         2165
_refine_ls_number_restraints     9
_refine_ls_restrained_S_all      1.079
_refine_ls_R_factor_all          0.0297
_refine_ls_R_factor_gt           0.0269
_refine_ls_shift/su_max          0.000
_refine_ls_shift/su_mean         0.000
_refine_ls_structure_factor_coef Fsqd
_refine_ls_weighting_details
'w=1/[\s^2^(Fo^2^)+(0.0139P)^2^+0.0535P] where P=(Fo^2^+2Fc^2^)/3'
_refine_ls_weighting_scheme      calc
_refine_ls_wR_factor_gt          0.0582
_refine_ls_wR_factor_ref         0.0600
_reflns_Friedel_coverage         0.854
_reflns_Friedel_fraction_full    0.935
_reflns_Friedel_fraction_max     0.848
_reflns_number_gt                2066
_reflns_number_total             2165
_reflns_threshold_expression     'I > 2\s(I)'
_iucr_refine_instructions_details
;
TITL 115yf039_0m_b.res in Pn
    115yf039_0m_b.res
    created by SHELXL-2018/3 at 13:18:04 on 05-Nov-2020
REM Old TITL 115yf039_0m_a.res in P2/n
REM SHELXT solution in Pn
REM R1 0.089, Rweak 0.011, Alpha 0.005, Orientation as input
REM Flack x = -0.669 ( 0.036 ) from Parsons' quotients
REM Formula found by SHELXT: C8 I N2 O5
CELL 0.71073 8.1074 5.0807 10.7183 90 98.981 90
ZERR 2 0.0004 0.0002 0.0005 0 0.002 0
LATT -1
SYMM 0.5+X,-Y,0.5+Z
SFAC C H N O Rb
UNIT 8 4 10 12 2
DFIX 0.84 O5 H5
ISOR 0.005 0.01 C1

L.S. 10
PLAN  20
SIZE 0.28 0.15 0.12
TEMP -103.15
LIST 4
fmap 2
acta
TWIN -1 0 0 0 -1 0 0 0 -1 2
OMIT 2 6 1
OMIT 1 6 -2
OMIT 1 6 4
OMIT 2 6 -1
OMIT 3 1 10
OMIT 1 2 11
OMIT 1 6 -1
OMIT 10 2 -4
REM <olex2.extras>
REM <HklSrc "%.\\115yf039_0m_b.hkl">
REM </olex2.extras>

WGHT    0.013900    0.053500
EXTI    0.015173
BASF   0.05311
FVAR       0.98001
RB1   5   -0.421429   -0.218280   -0.946301    11.00000    0.02375    0.02250 =
         0.01945    0.00202    0.00223   -0.00051
O3    4   -0.412757   -0.594243   -0.738271    11.00000    0.04396    0.02351 =
         0.01835    0.00217    0.00957    0.00849
O5    4   -0.688992   -0.933706   -0.219628    11.00000    0.03020    0.02338 =
         0.02355    0.00234    0.00405   -0.00848
N1    3   -0.400893   -0.592734   -0.621620    11.00000    0.01932    0.01761 =
         0.02287    0.00033    0.00692   -0.00027
O4    4   -0.314137   -0.770105   -0.555453    11.00000    0.02941    0.02002 =
         0.02116    0.00360    0.00584    0.00835
O6    4   -0.561411   -0.713119   -0.050559    11.00000    0.03152    0.02350 =
         0.01996    0.00165    0.00432   -0.00139
N3    3   -0.464870   -0.438836   -0.426717    11.00000    0.02561    0.01814 =
         0.01831   -0.00109    0.00831   -0.00295
O2    4   -0.686985   -0.126678   -0.550329    11.00000    0.03411    0.03429 =
         0.03491   -0.00415    0.00889    0.01459
N4    3   -0.560417   -0.620638   -0.378533    11.00000    0.02489    0.01754 =
         0.02273    0.00045    0.00816   -0.00335
N5    3   -0.400922   -0.393494   -0.221238    11.00000    0.02914    0.02136 =
         0.02329   -0.00085    0.00124   -0.00430
O1    4   -0.600866   -0.176327   -0.730465    11.00000    0.03719    0.03250 =
         0.02648    0.00998    0.00652    0.01181
C1    1   -0.474468   -0.406833   -0.556926    11.00000    0.02208    0.01666 =
         0.01990    0.00112    0.00555    0.00138
N2    3   -0.594402   -0.228302   -0.618032    11.00000    0.02308    0.02000 =
         0.02486   -0.00073    0.00648   -0.00045
C3    1   -0.516394   -0.586445   -0.256571    11.00000    0.01808    0.01556 =
         0.02141    0.00171    0.00489    0.00183
C4    1   -0.590955   -0.750025   -0.163719    11.00000    0.02053    0.01631 =
         0.02286    0.00127    0.00556    0.00316
C2    1   -0.371164   -0.305562   -0.330506    11.00000    0.02776    0.02266 =
         0.02173   -0.00145    0.00430   -0.00538
AFIX  43
H2    2   -0.295002   -0.168282   -0.341093    11.00000   -1.20000
AFIX   0
H5    2   -0.733868   -1.018963   -0.166946    11.00000    0.04131
HKLF 4




REM  115yf039_0m_b.res in Pn
REM wR2 = 0.0600, GooF = S = 1.081, Restrained GooF = 1.079 for all data
REM R1 = 0.0269 for 2066 Fo > 4sig(Fo) and 0.0297 for all 2165 data
REM 151 parameters refined using 9 restraints

END  
     
WGHT      0.0143      0.0499 

REM Highest difference peak  0.693,  deepest hole -0.568,  1-sigma level  0.099
Q1    1  -0.5222 -0.2280 -0.9836  11.00000  0.05    0.69
Q2    1  -0.3157 -0.2372 -0.9066  11.00000  0.05    0.67
Q3    1  -0.4147 -0.2126 -0.8624  11.00000  0.05    0.53
Q4    1  -0.4316 -0.2110 -1.0395  11.00000  0.05    0.48
Q5    1  -0.3817 -0.4117 -0.3993  11.00000  0.05    0.41
Q6    1  -0.4610 -0.4028 -0.4915  11.00000  0.05    0.39
Q7    1  -0.5812 -0.2043 -1.0525  11.00000  0.05    0.36
Q8    1  -0.7819 -0.2413 -0.5989  11.00000  0.05    0.36
Q9    1  -0.6970 -0.7770 -0.3604  11.00000  0.05    0.35
Q10   1  -0.1425 -0.7650 -0.5375  11.00000  0.05    0.35
Q11   1  -0.7556 -0.8018 -0.3435  11.00000  0.05    0.35
Q12   1  -0.2334 -0.7156 -0.4886  11.00000  0.05    0.34
Q13   1  -0.5591 -0.7642 -0.7987  11.00000  0.05    0.33
Q14   1  -0.7726 -0.7262 -0.1434  11.00000  0.05    0.32
Q15   1  -0.6035 -0.7134 -0.4041  11.00000  0.05    0.31
Q16   1  -0.4521 -0.2454 -0.7944  11.00000  0.05    0.31
Q17   1  -0.5584 -0.2962 -0.2532  11.00000  0.05    0.31
Q18   1  -0.4256 -0.5943 -0.0619  11.00000  0.05    0.31
Q19   1  -0.4406 -0.1939 -0.7061  11.00000  0.05    0.30
Q20   1  -0.3822 -0.2166 -0.6254  11.00000  0.05    0.30

  REM The information below was added by Olex2.
  REM
  REM R1 = 0.0269 for 2066 Fo > 4sig(Fo) and 0.0297 for all 10030 data
  REM n/a parameters refined using n/a restraints
  REM Highest difference peak 0.69, deepest hole -0.57
  REM Mean Shift 0, Max Shift 0.000.

  REM +++ Tabular Listing of Refinement Information +++
  REM R1_all = 0.0297
  REM R1_gt = 0.0269
  REM wR_ref = 0.0600
  REM GOOF = 1.081
  REM Shift_max = 0.000
  REM Shift_mean = 0
  REM Reflections_all = 10030
  REM Reflections_gt = 2066
  REM Parameters = n/a
  REM Hole = -0.57
  REM Peak = 0.69
  REM Flack = n/a

  
;
_cod_data_source_file            am1c03110_si_006.cif
_cod_data_source_block           115yf039_0m_b
_cod_database_code               4518646
_shelx_shelxl_version_number     2018/3
_shelx_space_group_comment
;
The symmetry employed for this shelxl refinement is uniquely defined
by the following loop, which should always be used as a source of
symmetry information in preference to the above space-group names.
They are only intended as comments.
;
_shelx_estimated_absorpt_t_max   0.548
_shelx_estimated_absorpt_t_min   0.298
_olex2_refinement_description
;
1. Twinned data refinement
 Scales: 0.947(12)
 0.053(12)
2. Fixed Uiso
 At 1.2 times of:
  All C(H) groups
3. Restrained distances
 O5-H5
 0.84 with sigma of 0.02
4. Uiso/Uaniso restraints and constraints
Uanis(C1) \\sim Ueq: with sigma of 0.005 and sigma for terminal atoms of 0.01
5.a Aromatic/amide H refined with riding coordinates:
 C2(H2)
;
_olex2_submission_special_instructions 'No special instructions were received'
loop_
_space_group_symop_operation_xyz
'x, y, z'
'x+1/2, -y, z+1/2'
loop_
_atom_site_label
_atom_site_type_symbol
_atom_site_fract_x
_atom_site_fract_y
_atom_site_fract_z
_atom_site_U_iso_or_equiv
_atom_site_adp_type
_atom_site_occupancy
_atom_site_site_symmetry_order
_atom_site_calc_flag
_atom_site_refinement_flags_posn
_atom_site_refinement_flags_adp
_atom_site_refinement_flags_occupancy
_atom_site_disorder_assembly
_atom_site_disorder_group
Rb1 Rb -0.42143(6) -0.21828(6) -0.94630(6) 0.02202(15) Uani 1 1 d . . . . .
O3 O -0.4128(5) -0.5942(6) -0.7383(3) 0.0281(7) Uani 1 1 d . . . . .
O5 O -0.6890(5) -0.9337(6) -0.2196(3) 0.0257(7) Uani 1 1 d D . . . .
N1 N -0.4009(5) -0.5927(8) -0.6216(4) 0.0195(8) Uani 1 1 d . . . . .
O4 O -0.3141(5) -0.7701(6) -0.5555(3) 0.0233(7) Uani 1 1 d . . . . .
O6 O -0.5614(5) -0.7131(6) -0.0506(3) 0.0250(7) Uani 1 1 d . . . . .
N3 N -0.4649(4) -0.4388(7) -0.4267(3) 0.0202(7) Uani 1 1 d . . . . .
O2 O -0.6870(4) -0.1267(7) -0.5503(3) 0.0341(8) Uani 1 1 d . . . . .
N4 N -0.5604(5) -0.6206(8) -0.3785(4) 0.0212(7) Uani 1 1 d . . . . .
N5 N -0.4009(5) -0.3935(8) -0.2212(4) 0.0249(8) Uani 1 1 d . . . . .
O1 O -0.6009(5) -0.1763(7) -0.7305(3) 0.0319(8) Uani 1 1 d . . . . .
C1 C -0.4745(6) -0.4068(10) -0.5569(4) 0.0193(10) Uani 1 1 d . U . . .
N2 N -0.5944(5) -0.2283(7) -0.6180(4) 0.0224(8) Uani 1 1 d . . . . .
C3 C -0.5164(6) -0.5864(8) -0.2566(4) 0.0182(9) Uani 1 1 d . . . . .
C4 C -0.5910(6) -0.7500(8) -0.1637(5) 0.0197(9) Uani 1 1 d . . . . .
C2 C -0.3712(7) -0.3056(10) -0.3305(5) 0.0240(11) Uani 1 1 d . . . . .
H2 H -0.295002 -0.168282 -0.341093 0.029 Uiso 1 1 calc R . . . .
H5 H -0.734(7) -1.019(12) -0.167(5) 0.041(18) Uiso 1 1 d D . . . .
loop_
_atom_site_aniso_label
_atom_site_aniso_U_11
_atom_site_aniso_U_22
_atom_site_aniso_U_33
_atom_site_aniso_U_23
_atom_site_aniso_U_13
_atom_site_aniso_U_12
Rb1 0.0237(2) 0.0225(2) 0.0194(2) 0.0020(3) 0.00223(12) -0.0005(3)
O3 0.044(2) 0.0235(17) 0.0184(16) 0.0022(12) 0.0096(13) 0.0085(14)
O5 0.0302(18) 0.0234(19) 0.0235(18) 0.0023(11) 0.0041(13) -0.0085(14)
N1 0.019(2) 0.018(2) 0.023(2) 0.0003(13) 0.0069(14) -0.0003(15)
O4 0.0294(19) 0.0200(18) 0.0212(19) 0.0036(12) 0.0058(14) 0.0083(12)
O6 0.0315(19) 0.0235(17) 0.0200(18) 0.0017(12) 0.0043(14) -0.0014(13)
N3 0.026(2) 0.0181(18) 0.0183(19) -0.0011(12) 0.0083(13) -0.0030(13)
O2 0.034(2) 0.034(2) 0.035(2) -0.0041(15) 0.0089(15) 0.0146(16)
N4 0.025(2) 0.018(2) 0.0227(19) 0.0005(14) 0.0082(14) -0.0034(14)
N5 0.029(2) 0.021(2) 0.0233(19) -0.0008(14) 0.0012(15) -0.0043(15)
O1 0.037(2) 0.0325(19) 0.026(2) 0.0100(14) 0.0065(15) 0.0118(15)
C1 0.022(2) 0.017(3) 0.020(2) 0.0011(17) 0.0056(16) 0.0014(18)
N2 0.023(2) 0.020(2) 0.025(2) -0.0007(13) 0.0065(15) -0.0005(14)
C3 0.018(2) 0.016(2) 0.021(2) 0.0017(14) 0.0049(16) 0.0018(17)
C4 0.021(2) 0.016(2) 0.023(2) 0.0013(14) 0.0056(17) 0.0032(14)
C2 0.028(3) 0.023(3) 0.022(2) -0.0015(18) 0.0043(18) -0.005(2)
loop_
_atom_type_symbol
_atom_type_description
_atom_type_scat_dispersion_real
_atom_type_scat_dispersion_imag
_atom_type_scat_source
C C 0.0033 0.0016 'International Tables Vol C Tables 4.2.6.8 and 6.1.1.4'
H H 0.0000 0.0000 'International Tables Vol C Tables 4.2.6.8 and 6.1.1.4'
N N 0.0061 0.0033 'International Tables Vol C Tables 4.2.6.8 and 6.1.1.4'
O O 0.0106 0.0060 'International Tables Vol C Tables 4.2.6.8 and 6.1.1.4'
Rb Rb -0.9393 2.9676 'International Tables Vol C Tables 4.2.6.8 and 6.1.1.4'
loop_
_geom_angle_atom_site_label_1
_geom_angle_atom_site_label_2
_geom_angle_atom_site_label_3
_geom_angle
_geom_angle_site_symmetry_1
_geom_angle_site_symmetry_3
_geom_angle_publ_flag
O3 Rb1 O5 66.76(10) . 2_544 ?
O3 Rb1 O4 99.77(10) . 2_444 ?
O3 Rb1 O6 144.76(10) . 1_564 ?
O3 Rb1 O2 137.71(11) . 2_554 ?
O3 Rb1 N4 74.49(10) . 2_544 ?
O3 Rb1 N5 122.46(10) . 1_554 ?
O3 Rb1 C3 59.68(10) . 2_544 ?
O3 Rb1 C4 88.03(10) . 1_554 ?
O3 Rb1 C4 157.04(11) . 1_564 ?
O5 Rb1 O4 140.97(9) 2_544 2_444 ?
O5 Rb1 O6 104.10(9) 2_544 1_564 ?
O5 Rb1 N4 53.05(10) 2_544 2_544 ?
O5 Rb1 N5 137.53(11) 2_544 1_554 ?
O5 Rb1 C3 38.69(9) 2_544 2_544 ?
O5 Rb1 C4 147.43(9) 2_544 1_554 ?
O5 Rb1 C4 120.83(10) 2_544 1_564 ?
O4 Rb1 C3 159.03(9) 2_444 2_544 ?
O4 Rb1 C4 60.46(9) 2_444 1_554 ?
O4 Rb1 C4 60.08(10) 2_444 1_564 ?
O6 Rb1 O3 71.96(10) 1_554 . ?
O6 Rb1 O5 134.97(9) 1_554 2_544 ?
O6 Rb1 O4 62.60(9) 1_554 2_444 ?
O6 Rb1 O4 65.06(9) 1_564 2_444 ?
O6 Rb1 O6 120.12(12) 1_554 1_564 ?
O6 Rb1 O2 127.45(10) 1_554 2_554 ?
O6 Rb1 N4 99.42(11) 1_554 2_544 ?
O6 Rb1 N4 128.88(11) 1_564 2_544 ?
O6 Rb1 N5 57.56(10) 1_554 1_554 ?
O6 Rb1 N5 87.96(10) 1_564 1_554 ?
O6 Rb1 O1 98.88(11) 1_554 . ?
O6 Rb1 C3 133.88(10) 1_564 2_544 ?
O6 Rb1 C3 103.76(10) 1_554 2_544 ?
O6 Rb1 C4 108.30(10) 1_564 1_554 ?
O6 Rb1 C4 19.86(10) 1_564 1_564 ?
O6 Rb1 C4 104.20(10) 1_554 1_564 ?
O6 Rb1 C4 16.29(10) 1_554 1_554 ?
O2 Rb1 O5 77.70(10) 2_554 2_544 ?
O2 Rb1 O4 122.45(10) 2_554 2_444 ?
O2 Rb1 O6 64.55(10) 2_554 1_564 ?
O2 Rb1 N4 65.88(11) 2_554 2_544 ?
O2 Rb1 N5 71.14(10) 2_554 1_554 ?
O2 Rb1 C3 78.33(10) 2_554 2_544 ?
O2 Rb1 C4 62.98(11) 2_554 1_564 ?
O2 Rb1 C4 113.41(11) 2_554 1_554 ?
N4 Rb1 O4 161.93(10) 2_544 2_444 ?
N4 Rb1 N5 87.54(11) 2_544 1_554 ?
N4 Rb1 C3 19.06(10) 2_544 2_544 ?
N4 Rb1 C4 101.84(11) 2_544 1_554 ?
N4 Rb1 C4 128.10(11) 2_544 1_564 ?
N5 Rb1 O4 81.16(10) 1_554 2_444 ?
N5 Rb1 C3 105.60(11) 1_554 2_544 ?
N5 Rb1 C4 42.37(11) 1_554 1_554 ?
N5 Rb1 C4 68.46(11) 1_554 1_564 ?
O1 Rb1 O3 53.23(9) . . ?
O1 Rb1 O5 70.17(10) . 2_544 ?
O1 Rb1 O4 72.72(10) . 2_444 ?
O1 Rb1 O6 91.53(10) . 1_564 ?
O1 Rb1 O2 133.56(11) . 2_554 ?
O1 Rb1 N4 114.38(10) . 2_544 ?
O1 Rb1 N5 151.31(11) . 1_554 ?
O1 Rb1 C3 95.32(10) . 2_544 ?
O1 Rb1 C4 106.74(11) . 1_564 ?
O1 Rb1 C4 111.74(11) . 1_554 ?
C4 Rb1 C3 111.11(10) 1_554 2_544 ?
C4 Rb1 C3 140.88(11) 1_564 2_544 ?
C4 Rb1 C4 90.48(11) 1_564 1_554 ?
N1 O3 Rb1 138.9(3) . . ?
C4 O5 Rb1 117.2(3) . 2_445 ?
O3 N1 O4 120.1(4) . . ?
O3 N1 C1 123.1(4) . . ?
O4 N1 C1 116.8(4) . . ?
N1 O4 Rb1 129.7(3) . 2_545 ?
Rb1 O6 Rb1 120.12(12) 1_556 1_546 ?
C4 O6 Rb1 121.5(3) . 1_556 ?
C4 O6 Rb1 104.4(3) . 1_546 ?
N4 N3 C1 120.9(4) . . ?
N4 N3 C2 109.5(4) . . ?
C2 N3 C1 129.6(4) . . ?
N2 O2 Rb1 164.3(3) . 2_455 ?
N3 N4 Rb1 133.0(3) . 2_445 ?
C3 N4 Rb1 112.3(3) . 2_445 ?
C3 N4 N3 101.9(3) . . ?
C3 N5 Rb1 109.4(3) . 1_556 ?
C2 N5 Rb1 142.6(3) . 1_556 ?
C2 N5 C3 102.1(4) . . ?
N2 O1 Rb1 144.2(3) . . ?
N1 C1 N3 117.9(4) . . ?
N1 C1 N2 122.2(4) . . ?
N3 C1 N2 117.7(4) . . ?
O2 N2 C1 115.7(4) . . ?
O1 N2 O2 123.4(4) . . ?
O1 N2 C1 120.9(4) . . ?
N4 C3 Rb1 48.7(2) . 2_445 ?
N4 C3 N5 116.0(4) . . ?
N4 C3 C4 121.0(4) . . ?
N5 C3 Rb1 148.3(3) . 2_445 ?
N5 C3 C4 123.0(4) . . ?
C4 C3 Rb1 78.5(3) . 2_445 ?
Rb1 C4 Rb1 90.48(11) 1_546 1_556 ?
Rb1 C4 Rb1 134.07(11) 1_556 2_445 ?
Rb1 C4 Rb1 132.70(12) 1_546 2_445 ?
O5 C4 Rb1 44.6(2) . 2_445 ?
O5 C4 Rb1 162.0(3) . 1_556 ?
O5 C4 Rb1 88.1(2) . 1_546 ?
O5 C4 C3 111.8(4) . . ?
O6 C4 Rb1 145.6(3) . 2_445 ?
O6 C4 Rb1 42.3(2) . 1_556 ?
O6 C4 Rb1 55.8(2) . 1_546 ?
O6 C4 O5 125.4(4) . . ?
O6 C4 C3 122.8(4) . . ?
C3 C4 Rb1 78.3(3) . 2_445 ?
C3 C4 Rb1 132.2(3) . 1_546 ?
C3 C4 Rb1 82.2(2) . 1_556 ?
N5 C2 N3 110.4(4) . . ?
loop_
_geom_bond_atom_site_label_1
_geom_bond_atom_site_label_2
_geom_bond_distance
_geom_bond_site_symmetry_2
_geom_bond_publ_flag
Rb1 O3 2.929(3) . ?
Rb1 O5 2.936(4) 2_544 ?
Rb1 O4 3.217(4) 2_444 ?
Rb1 O6 2.954(3) 1_564 ?
Rb1 O6 2.909(3) 1_554 ?
Rb1 O2 2.931(3) 2_554 ?
Rb1 N4 3.017(4) 2_544 ?
Rb1 N5 3.108(4) 1_554 ?
Rb1 O1 2.926(4) . ?
Rb1 C3 3.717(5) 2_544 ?
Rb1 C4 3.690(5) 1_554 ?
Rb1 C4 3.461(4) 1_564 ?
O3 N1 1.239(5) . ?
O5 C4 1.309(6) . ?
N1 O4 1.286(5) . ?
N1 C1 1.363(6) . ?
O6 C4 1.214(6) . ?
N3 N4 1.358(5) . ?
N3 C1 1.395(5) . ?
N3 C2 1.362(6) . ?
O2 N2 1.236(5) . ?
N4 C3 1.312(6) . ?
N5 C3 1.368(6) . ?
N5 C2 1.311(7) . ?
O1 N2 1.227(6) . ?
C1 N2 1.414(6) . ?
C3 C4 1.495(7) . ?
loop_
_refln_index_h
_refln_index_k
_refln_index_l
_refln_F_squared_meas
_refln_F_squared_sigma
_refln_scale_group_code
-1 0 0 0.25937 1.26904 6
-1 0 0 0.26543 0.75395 1
-1 0 0 3.17956 0.77258 3
-1 0 0 0.62981 0.86614 2
1 0 0 0.59343 0.5567 3
1 0 0 -0.0048 0.70906 1
1 0 0 1.39734 0.92704 2
1 0 0 0.95597 1.18546 6
-3 0 0 -0.0834 2.34114 1
-3 0 0 1.48619 2.31943 2
-3 0 0 -0.9992 4.5212 4
-3 0 0 1.98288 3.96085 6
3 0 0 0.68757 1.59314 3
3 0 0 1.01466 2.55096 1
3 0 0 -1.3389 3.18903 6
3 0 0 1.78589 2.4251 2
-4 0 0 2851.85 246.524 2
-4 0 0 2986.44 248.985 4
4 0 0 3190.24 246.784 2
4 0 0 3474.55 248.316 6
4 0 0 3387.57 245.035 3
4 0 0 3005.92 247.522 1
-5 0 0 4.01387 6.87921 6
-5 0 0 4.05036 7.44737 4
-5 0 0 13.7169 5.42528 2
-5 0 0 -3.2306 3.65566 1
5 0 0 0.72143 6.50083 6
5 0 0 6.15484 4.90799 1
5 0 0 -6.3383 3.68707 2
5 0 0 7.58439 3.24437 3
-6 0 0 2115.93 161.856 4
-6 0 0 1833.66 158.515 6
-6 0 0 1824.91 157.132 2
-6 0 0 1692.81 157.673 1
6 0 0 2159.8 157.99 2
6 0 0 2228.38 154.405 3
6 0 0 1914.17 158.406 1
-7 0 0 -1.9305 5.44886 2
-7 0 0 -6.134 9.04655 6
-7 0 0 -2.1855 12.4585 4
-7 0 0 3.7968 6.38842 1
7 0 0 2.93606 10.9826 6
7 0 0 -3.6512 3.53924 3
7 0 0 1.43714 6.80152 1
7 0 0 -0.8705 7.53416 5
7 0 0 2.99803 6.00995 5
7 0 0 -2.3197 6.63313 2
-8 0 0 767.404 67.1166 1
-8 0 0 768.657 68.2413 6
8 0 0 782.035 60.6371 3
8 0 0 716.108 62.9724 5
8 0 0 734.845 65.5645 2
-9 0 0 7.16394 8.55426 1
-9 0 0 -1.7955 13.1105 6
9 0 0 1.91949 6.98495 5
9 0 0 3.80082 6.53607 5
-10 0 0 171.151 30.4095 6
-10 1 0 -11.381 12.7079 6
-10 1 0 3.7032 10.7529 1
-9 1 0 96.7907 17.9648 1
-9 1 0 73.5982 18.8349 6
8 -1 0 96.5692 13.314 5
-8 1 0 54.2632 14.0901 1
-8 1 0 61.7415 16.9553 6
7 -1 0 321.306 31.1675 5
7 -1 0 388.514 34.2308 2
-7 1 0 355.995 37.9043 6
-7 1 0 370.696 35.7929 1
-7 1 0 372.106 33.831 2
6 -1 0 9.94985 5.10818 5
6 -1 0 1.4005 5.38561 1
6 -1 0 6.38509 6.31363 2
6 -1 0 7.56748 10.7561 6
-6 1 0 4.77872 11.5691 4
-6 1 0 16.6083 9.42031 6
-6 1 0 13.8397 5.74801 2
-6 1 0 9.2688 6.63898 1
5 -1 0 2552.08 192.901 2
5 -1 0 2278.39 194.297 6
5 -1 0 2367.77 191.132 5
5 -1 0 2203.37 194.04 1
-5 1 0 2648.26 192.972 2
-5 1 0 2401.7 194.51 1
-5 1 0 2559.88 196.999 4
-5 1 0 2545.86 195.061 6
4 -1 0 68.6514 10.1642 1
4 -1 0 78.192 12.4024 6
4 -1 0 73.6446 9.07125 2
4 -1 0 65.3627 6.23806 3
4 -1 0 71.1602 8.60427 5
-4 1 0 79.5349 8.98224 2
-4 1 0 75.3698 10.6026 1
-4 1 0 60.4397 11.3422 6
-4 1 0 81.7606 14.3123 4
3 -1 0 3959.21 290.964 6
3 -1 0 3690.13 288.538 5
3 -1 0 3447.67 293.535 1
3 -1 0 4022.1 289.102 2
-3 1 0 3219.19 291.364 4
-3 1 0 3872.04 288.604 5
-3 1 0 4067.34 290.921 6
-3 1 0 3446.3 290.382 1
-3 1 0 3676.7 288.885 2
2 -1 0 3233.85 245.925 5
2 -1 0 3017.19 246.983 6
2 -1 0 3370.27 245.384 3
2 -1 0 3228.19 245.623 2
-2 1 0 3111.24 247.385 1
-2 1 0 3470.36 247.507 6
-2 1 0 3100.56 245.54 2
-2 1 0 2694.52 247.311 4
-2 1 0 3237.4 245.837 5
1 -1 0 2486.26 199.188 6
1 -1 0 2511.65 198.524 3
1 -1 0 2671.16 198.862 5
-1 1 0 2549.66 198.478 3
-1 1 0 2333.38 199.113 4
-1 1 0 2790.93 198.847 5
-1 1 0 2535.67 199.296 6
0 -1 0 712.775 61.0874 4
0 -1 0 759.342 61.927 3
0 -1 0 798.086 62.053 5
0 -1 0 773.48 60.9902 2
0 1 0 788.219 62.0829 5
0 1 0 780.235 60.9806 2
0 1 0 792.811 61.9578 3
0 1 0 857.501 61.2813 4
-1 -1 0 2525.11 199.919 2
-1 -1 0 2740.89 200.527 5
1 1 0 2398.62 199.763 2
1 1 0 2620 200.415 3
1 1 0 2564.56 200.48 5
-2 -1 0 3332.38 243.264 5
-2 -1 0 2643.17 243.445 1
-2 -1 0 3272.84 243.15 3
-2 -1 0 3070.24 242.991 2
2 1 0 3158.04 242.876 3
2 1 0 3320.35 243.717 6
2 1 0 2859.25 243.56 1
2 1 0 3415.38 243.001 2
2 1 0 2967.27 242.938 5
-3 -1 0 3890.44 281.61 6
-3 -1 0 3130.8 283.31 2
-3 -1 0 3415.68 281.732 1
-3 -1 0 3607.98 280.605 3
-3 -1 0 3816.43 282.045 4
3 1 0 3940.13 280.558 3
3 1 0 3294.52 280.426 5
3 1 0 3758.54 280.832 2
3 1 0 3484.66 281.636 1
-4 -1 0 61.0203 8.70751 3
-4 -1 0 80.7458 13.6156 4
-4 -1 0 57.6444 9.32511 2
-4 -1 0 66.9244 10.4982 1
-4 -1 0 69.0134 11.6781 6
4 1 0 61.8621 9.83681 5
4 1 0 79.5348 10.1675 2
4 1 0 85.9023 13.6353 6
4 1 0 74.9206 9.00728 3
4 1 0 65.6833 9.93726 1
-5 -1 0 2444.49 184.125 3
-5 -1 0 2466.25 185.488 2
-5 -1 0 2340.86 186.161 1
5 1 0 2463.14 185.142 2
5 1 0 2013 183.448 5
5 1 0 2107.16 185.507 1
5 1 0 2509.69 183.721 3
-6 -1 0 22.9572 6.15666 3
-6 -1 0 10.9312 6.6042 1
-6 -1 0 9.44187 8.41542 6
-6 -1 0 17.5197 7.17301 2
-6 -1 0 10.1021 11.1008 4
6 1 0 0.1552 6.0755 5
6 1 0 8.96658 9.92136 6
6 1 0 15.0215 7.70284 2
-7 -1 0 333.984 34.5571 1
-7 -1 0 330.566 35.6465 6
7 1 0 340.401 33.0544 2
7 1 0 289.48 31.3173 5
7 1 0 405.837 31.2242 3
-8 -1 0 74.7213 15.6117 1
-8 -1 0 61.0089 16.4115 6
8 1 0 49.1393 9.71774 3
8 1 0 40.7339 10.1668 5
8 1 0 52.8409 13.8925 2
-9 -1 0 122.209 21.4541 1
-9 -1 0 90.7931 22.4555 6
9 1 0 198.182 18.0627 3
9 1 0 161.233 19.7934 5
-10 -1 0 -5.9222 12.3239 6
-10 -1 0 24.4598 11.784 1
10 1 0 -1.4937 13.8748 5
10 1 0 -7.8413 4.93326 5
-10 2 0 167.835 29.629 6
-9 2 0 90.7341 19.349 1
-9 2 0 120.116 24.1539 6
-8 2 0 335.429 32.9019 2
-8 2 0 384.212 37.8198 1
-8 2 0 327.884 39.7221 6
-7 2 0 346.544 35.8941 1
-7 2 0 356.674 38.3508 6
-7 2 0 344.306 32.1681 2
6 -2 0 1227.99 98.7149 5
6 -2 0 1178.88 102.787 6
-6 2 0 1223 99.3407 2
-6 2 0 1294.15 103.424 1
-6 2 0 1231.98 106.039 4
-6 2 0 1251.65 103.503 6
5 -2 0 470.276 34.3926 5
5 -2 0 435.168 37.7439 6
-5 2 0 346.779 32.9327 2
-5 2 0 348.644 36.1623 1
-5 2 0 364.084 39.634 4
-5 2 0 365.8 38.1083 6
-4 2 0 513.346 47.734 4
-4 2 0 528.652 42.638 2
-4 2 0 507.84 43.3373 5
-4 2 0 524.7 46.6748 6
-4 2 0 542.269 46.5228 1
-3 2 0 21.0646 3.4678 2
-3 2 0 14.2183 7.58379 4
-3 2 0 18.4542 6.43671 1
-3 2 0 18.9342 8.02954 6
-3 2 0 20.3971 5.27199 5
2 -2 0 844.568 75.2085 6
2 -2 0 893.404 73.9253 3
2 -2 0 890.777 74.5193 5
-2 2 0 1058.86 76.2045 6
-2 2 0 845.304 75.2379 4
-2 2 0 1039.21 74.6787 5
1 -2 0 1327.95 117.23 3
1 -2 0 1315.44 117.455 5
-1 2 0 1474.3 117.516 4
-1 2 0 1583.62 117.517 3
-1 2 0 1646.89 118.633 6
-1 2 0 1580.27 117.921 5
0 -2 0 4045.64 337.832 3
0 -2 0 4677.16 338.37 5
0 -2 0 4096.97 336.004 2
0 2 0 4389.87 337.968 3
0 2 0 4401.56 338.27 5
0 2 0 4410.72 336.35 4
-1 -2 0 1505.54 110.508 2
-1 -2 0 1607.55 112.55 5
-1 -2 0 1494.02 112.202 3
1 2 0 1316.36 112.319 1
1 2 0 1383.48 111.735 3
1 2 0 1173.76 111.418 5
1 2 0 1356.26 110.268 2
-2 -2 0 963.247 70.4113 4
-2 -2 0 992.452 72.9453 5
-2 -2 0 1009.54 71.7134 2
-2 -2 0 840.314 73.191 1
-2 -2 0 905.33 72.3632 3
2 2 0 796.911 72.5832 1
2 2 0 754.664 71.9793 5
2 2 0 852.823 71.0762 2
2 2 0 863.337 71.9067 3
-3 -2 0 22.4554 6.40241 4
-3 -2 0 23.9039 7.65844 5
-3 -2 0 18.9156 6.43045 1
-3 -2 0 28.4502 7.04234 3
-3 -2 0 26.659 6.12794 2
3 2 0 6.0262 5.3796 3
4 2 0 832.817 73.0184 1
4 2 0 964.609 74.4472 6
4 2 0 835.277 72.2836 5
-5 -2 0 338.203 35.8254 2
-5 -2 0 443.542 38.7 4
-5 -2 0 338.724 35.2874 3
-5 -2 0 349.915 37.5896 1
5 2 0 392.855 36.7005 5
5 2 0 455.93 36.0761 3
5 2 0 396.601 37.6641 1
5 2 0 475.69 36.906 2
5 2 0 398.77 38.3907 6
-6 -2 0 1111.78 96.7255 2
-6 -2 0 1213.9 96.0984 3
-6 -2 0 1171.99 98.7751 1
6 2 0 1325.65 96.0013 3
6 2 0 1108.77 97.9338 1
6 2 0 1086.97 95.7411 5
6 2 0 1253.67 96.7379 2
6 2 0 1083.2 98.5778 6
-7 -2 0 314.947 36.1027 1
-7 -2 0 334.245 33.4687 3
-7 -2 0 435.499 42.5523 4
7 2 0 403.865 34.0214 3
7 2 0 304.881 34.138 5
7 2 0 390.083 35.5804 2
-8 -2 0 263.399 26.2831 3
-8 -2 0 288.503 31.0472 1
8 2 0 216.683 27.1669 5
8 2 0 249.645 28.5195 2
8 2 0 278.66 26.9089 3
-9 -2 0 86.293 19.0234 1
9 2 0 115.565 23.3148 5
9 2 0 122.882 16.6027 3
-10 -2 0 185.346 27.8072 1
10 2 0 205.434 24.9043 5
-9 3 0 224.881 29.2744 1
-9 3 0 229.012 33.7995 6
-8 3 0 60.5112 15.3633 1
-8 3 0 58.4769 18.632 6
-8 3 0 74.5847 11.4151 2
7 -3 0 558.22 44.0263 5
-7 3 0 496.785 48.7174 1
-7 3 0 439.908 41.9342 2
-7 3 0 503.377 50.5232 6
6 -3 0 205.601 19.4213 3
-6 3 0 270.698 27.9294 1
-6 3 0 257.314 21.6096 2
-6 3 0 253.553 31.084 6
5 -3 0 918.594 69.6989 5
5 -3 0 858.618 72.6491 6
5 -3 0 911.896 67.0871 3
-5 3 0 738.738 66.3563 2
-5 3 0 828.512 73.4235 6
-5 3 0 801.402 72.2994 1
-5 3 0 776.502 68.4499 5
-5 3 0 858.47 75.4954 4
4 -3 0 341.868 32.0596 5
4 -3 0 363.596 29.7631 3
4 -3 0 346.321 35.2767 6
-4 3 0 315.228 27.4436 2
-4 3 0 361.424 34.7683 6
-4 3 0 351.173 36.3643 4
-4 3 0 335.744 33.5765 1
-4 3 0 342.007 31.1139 5
3 -3 0 1130.15 96.4118 6
3 -3 0 1194.6 95.3689 5
3 -3 0 1178.3 95.7865 3
-3 3 0 1201.54 97.5945 6
-3 3 0 1149.08 97.2291 4
-3 3 0 1189.65 95.0403 5
2 -3 0 168.735 17.6794 5
2 -3 0 154.926 15.0664 3
-2 3 0 130.015 18.0251 6
-2 3 0 117.362 16.7845 4
-2 3 0 109.046 15.2481 5
1 -3 0 1125.96 89.6463 5
1 -3 0 968.436 88.4497 3
-1 3 0 1105.85 89.3759 5
-1 3 0 1077.48 88.5848 3
-1 3 0 1124.71 90.1171 6
-1 3 0 1171.63 88.469 4
0 -3 0 496.288 41.2493 5
0 -3 0 426.693 36.7276 2
0 -3 0 461.176 40.1772 3
0 3 0 460.033 40.9162 6
0 3 0 486.915 40.2456 3
0 3 0 463.854 41.0309 1
0 3 0 459.111 37.1142 4
0 3 0 434.207 40.6716 5
-1 -3 0 1034.68 81.8062 2
-1 -3 0 1121.32 85.1258 5
-1 -3 0 1055.31 84.4665 3
1 3 0 1074.53 84.4119 3
1 3 0 917.161 84.3015 5
1 3 0 967.784 84.9499 1
-2 -3 0 127.315 14.4693 2
-2 -3 0 128.948 17.7894 5
-2 -3 0 132.905 16.0289 3
2 3 0 150.389 16.7939 3
2 3 0 148.567 17.0955 1
2 3 0 130.601 17.818 5
2 3 0 159.498 14.9083 2
-3 -3 0 1028.59 85.718 2
-3 -3 0 1014.65 83.0746 4
-3 -3 0 963.389 88.2483 1
-3 -3 0 1011.66 83.4073 4
-3 -3 0 1064.56 87.2652 3
-3 -3 0 1056.02 87.6229 5
3 3 0 1174.59 87.3265 3
3 3 0 1045.26 87.4313 5
3 3 0 1140.2 85.6502 2
-4 -3 0 379.026 32.2388 4
-4 -3 0 377.527 32.5954 2
-4 -3 0 317.523 34.5974 1
-4 -3 0 373.659 33.9729 3
4 3 0 340.282 31.4604 2
4 3 0 363.052 32.6373 3
4 3 0 312.874 35.532 1
4 3 0 285.113 33.6442 6
4 3 0 309.184 33.3984 5
-5 -3 0 724.604 68.5956 3
-5 -3 0 911.227 71.0018 4
-5 -3 0 753.981 69.0083 2
-5 -3 0 726.272 70.8703 1
5 3 0 790.437 70.2548 1
5 3 0 752.536 69.3416 5
5 3 0 914.085 69.1371 2
5 3 0 929.794 69.4011 3
5 3 0 809.321 72.044 6
-6 -3 0 228.738 26.8649 3
-6 -3 0 240.937 27.2947 1
6 3 0 191.801 23.7244 2
6 3 0 231.106 24.4947 3
6 3 0 189.319 25.176 5
-7 -3 0 437.889 49.0146 1
-7 -3 0 572.766 52.1855 4
7 3 0 521.283 48.3702 5
7 3 0 531.044 47.5858 2
-8 -3 0 60.7651 15.5302 1
-8 -3 0 86.0505 23.1191 4
8 3 0 44.7684 13.692 5
8 3 0 41.8972 12.0567 3
-9 -3 0 226.47 29.3977 1
9 3 0 200.031 26.9851 5
9 3 0 254.598 26.4372 3
-8 4 0 41.8392 14.5399 1
-8 4 0 54.5122 18.6058 6
7 -4 0 292.757 29.0403 5
-7 4 0 286.828 32.9068 1
-7 4 0 264.631 22.8161 2
-7 4 0 240.748 36.4764 6
6 -4 0 255.865 30.3691 5
-6 4 0 312.938 33.5375 1
-6 4 0 297.849 29.5622 5
-6 4 0 313.271 37.9512 6
5 -4 0 321.604 34.4906 5
5 -4 0 344.347 31.3479 3
-5 4 0 367.615 37.4073 1
-5 4 0 332.328 40.2936 4
-5 4 0 363.898 33.8865 5
-5 4 0 397.164 41.0467 6
-4 4 0 66.5439 14.0516 1
-4 4 0 64.9639 12.3987 5
-4 4 0 65.1621 16.3374 4
-4 4 0 67.8418 17.5676 6
3 -4 0 215.477 26.0296 5
3 -4 0 213.118 22.5777 3
-3 4 0 225.757 28.2096 4
-3 4 0 248.744 25.5895 5
-3 4 0 227.688 28.4839 6
2 -4 0 210.054 23.3199 5
2 -4 0 182.457 20.4224 3
-2 4 0 187.967 24.5271 6
-2 4 0 161.863 21.2435 5
-2 4 0 178.058 22.4428 4
1 -4 0 661.157 66.2712 5
-1 4 0 824.39 66.2383 3
-1 4 0 818.307 64.109 4
-1 4 0 813.981 67.3192 5
-1 4 0 765.959 67.5648 6
0 -4 0 205.187 29.3446 5
0 -4 0 208.48 22.3733 3
0 -4 0 182.056 17.0475 2
0 4 0 191.25 22.642 1
0 4 0 236.696 22.9451 3
0 4 0 202.373 24.5194 6
0 4 0 215.502 24.6613 5
-1 -4 0 721.428 57.057 2
-1 -4 0 750.389 61.584 3
-1 -4 0 810.202 62.5196 5
1 4 0 640.67 60.194 3
1 4 0 597.537 61.3856 5
-2 -4 0 163.495 22.9682 5
-2 -4 0 157.97 17.3507 2
-2 -4 0 168.055 20.5296 3
2 4 0 178.156 20.6313 3
2 4 0 185.187 21.1456 1
2 4 0 179.793 23.5001 5
-3 -4 0 238.487 22.3284 2
3 4 0 212.859 24.1517 3
3 4 0 217.953 25.5209 1
3 4 0 194.142 26.3524 5
4 4 0 154.82 19.6255 3
4 4 0 132.566 22.3329 5
-5 -4 0 320.133 29.592 4
-5 -4 0 347.955 31.5409 4
-5 -4 0 375.02 38.6943 1
5 4 0 358.393 34.8384 3
5 4 0 324.277 36.2093 5
-6 -4 0 324.094 35.3808 1
-6 -4 0 287.102 26.9636 4
6 4 0 233.602 31.8936 5
6 4 0 257.755 28.9403 3
-7 -4 0 292.472 33.1893 1
7 4 0 242.045 28.4937 3
7 4 0 219.801 29.4541 5
-8 -4 0 71.3673 17.4597 1
8 4 0 43.5261 14.2825 5
8 4 0 63.5062 14.5502 3
9 4 0 30.8393 12.5915 3
9 4 0 -4.8177 9.69113 5
-7 5 0 27.6102 11.6148 5
-6 5 0 296.84 35.2007 5
-6 5 0 339.72 41.5457 6
-6 5 0 343.499 37.9018 1
5 -5 0 114.173 16.8482 3
-5 5 0 118.843 20.1898 5
-5 5 0 107.676 20.7549 1
-5 5 0 164.252 27.0831 6
4 -5 0 334.734 32.5464 3
-4 5 0 333.751 38.992 6
-4 5 0 287.279 35.7216 1
-4 5 0 364.443 39.3132 4
3 -5 0 205.75 26.5789 3
-3 5 0 290.276 34.2785 6
-3 5 0 286.807 31.4903 4
-2 5 0 922.469 83.9869 6
-2 5 0 950.269 83.07 5
-2 5 0 992.586 80.1225 4
-1 5 0 101.212 19.7399 6
-1 5 0 91.0313 12.4728 4
-1 5 0 131.731 20.1318 5
0 5 0 1178.95 102.667 5
0 5 0 1232.99 101.633 3
0 5 0 1222.39 102.911 6
-1 -5 0 101.072 12.5639 2
1 5 0 160.54 24.0924 5
1 5 0 164.48 24.0771 6
-2 -5 0 790.515 69.0273 2
2 5 0 914.499 74.0728 3
2 5 0 847.057 75.514 5
-3 -5 0 242.169 23.7131 2
3 5 0 240.454 27.6868 3
3 5 0 218.29 31.9723 5
-4 -5 0 248.747 29.2886 2
4 5 0 315.125 36.018 5
4 5 0 341.985 32.898 3
5 5 0 163.272 22.7976 3
5 5 0 159.262 25.6574 5
-7 -5 0 38.7689 15.3872 1
7 5 0 20.8168 14.5584 3
7 5 0 16.8239 14.1646 5
-5 6 0 226.893 28.3893 5
-4 6 0 62.4093 16.8797 1
-4 6 0 36.4597 12.519 5
-4 6 0 47.0844 18.4243 6
-3 6 0 154.331 24.3017 4
-3 6 0 165.656 26.3782 5
-3 6 0 128.691 25.7394 6
-2 6 0 158.231 24.582 5
-2 6 0 131.453 16.8402 4
-1 6 0 142.037 26.4019 6
-1 6 0 211.703 28.0646 5
0 6 0 446.699 49.026 5
0 6 0 479.019 49.0176 6
1 6 0 227.657 29.8828 6
1 6 0 205.361 31.911 5
1 6 0 187.321 26.6805 3
2 6 0 118.229 23.6952 3
-3 -6 0 121.747 17.3238 2
3 6 0 111.288 21.2878 3
3 6 0 186.673 27.9259 5
4 6 0 75.6278 18.938 5
4 6 0 39.9012 15.5454 3
4 6 -1 175.189 28.2006 5
3 6 -1 27.5235 17.2067 5
-3 -6 1 50.8781 11.3403 2
-2 -6 1 1.85755 4.5233 2
1 6 -1 49.7701 17.0844 5
1 6 -1 51.2951 18.3125 6
0 6 -1 609.418 58.2549 6
0 6 -1 556.609 56.9386 5
-1 6 -1 2.12154 17.3802 6
-1 6 -1 33.5512 14.846 5
-2 6 -1 398.112 52.7119 6
-2 6 -1 399.634 42.6399 5
-2 6 -1 375.002 39.2135 4
-3 6 -1 38.6823 14.1127 5
-3 6 -1 34.9879 16.1219 6
-3 6 -1 35.998 15.4041 4
-4 6 -1 85.1185 22.4029 6
-4 6 -1 104.946 21.6156 1
-4 6 -1 104.771 19.2313 5
-5 6 -1 28.7694 13.1686 5
7 5 -1 61.4195 16.556 3
7 5 -1 67.4713 17.7703 5
-7 -5 1 28.5011 16.5544 1
6 5 -1 40.8036 16.9775 5
5 5 -1 378.072 43.2616 5
5 5 -1 407.396 40.3155 3
4 5 -1 128.352 22.5573 5
4 5 -1 173.856 22.1673 3
-4 -5 1 108.246 17.0098 2
3 5 -1 670.656 60.07 5
3 5 -1 676.496 57.681 3
-3 -5 1 554.782 52.9089 2
2 5 -1 233.559 27.5641 3
2 5 -1 183.21 29.169 5
1 5 -1 167.525 24.9989 6
1 5 -1 172.837 25.7744 5
-1 -5 1 137.269 14.5295 2
0 5 -1 147.537 23.9993 6
0 5 -1 128.742 21.894 5
-1 5 -1 303.148 34.0693 6
-1 5 -1 257.654 25.8372 4
-1 5 -1 262.453 30.9919 5
-2 5 -1 259.438 29.9793 5
-2 5 -1 221.101 29.4518 6
-2 5 -1 235.921 27.2822 4
-3 5 -1 308.819 35.3917 4
-3 5 -1 293.793 34.3148 5
-3 5 -1 326.177 37.8469 6
3 -5 1 348.133 32.4234 3
-4 5 -1 130.424 24.0091 4
-4 5 -1 101.471 19.7711 1
-4 5 -1 120.434 23.5646 6
-4 5 -1 135.529 21.6846 5
4 -5 1 125.916 18.1287 3
-5 5 -1 205.329 26.1395 5
-5 5 -1 202.074 28.1287 1
-5 5 -1 213.097 33.2237 6
5 -5 1 208.13 24.9477 3
-6 5 -1 9.60483 10.01 1
-6 5 -1 18.1454 10.6854 5
-6 5 -1 16.5003 17.4545 6
6 -5 1 -8.7594 6.70379 3
-7 5 -1 166.229 24.6238 5
9 4 -1 66.4378 18.8671 5
8 4 -1 271.086 31.7228 5
8 4 -1 286.659 30.4071 3
-8 -4 1 224.624 33.514 1
7 4 -1 259.456 29.5029 5
7 4 -1 308.931 29.3632 3
-7 -4 1 219.864 25.2206 4
-7 -4 1 204.228 30.4592 1
-7 -4 1 207.271 28.5474 4
6 4 -1 178.758 22.0248 3
6 4 -1 161.168 24.6727 5
-6 -4 1 144.594 22.7991 4
5 4 -1 304.949 28.8832 3
5 4 -1 302.595 31.2325 5
-5 -4 1 250.283 25.7269 4
-5 -4 1 235.085 30.7614 1
-5 -4 1 226.159 24.4081 4
-4 -4 1 326.221 31.5953 2
-4 -4 1 329.677 36.251 1
3 4 -1 355.842 38.2925 5
3 4 -1 411.618 48.0086 1
3 4 -1 388.062 36.4085 3
-3 -4 1 361.949 33.892 2
2 4 -1 196.126 20.4557 1
2 4 -1 208.965 23.7222 5
-2 -4 1 139.344 19.7216 3
-2 -4 1 146.025 16.65 2
-2 -4 1 139.56 21.1422 5
1 4 -1 922.196 78.9142 5
1 4 -1 832.654 78.2095 1
1 4 -1 931.644 77.6434 3
-1 -4 1 901.946 73.7549 2
-1 -4 1 882.977 77.4718 3
-1 -4 1 1055.97 78.9593 5
0 4 -1 664.524 56.6656 5
0 4 -1 630.272 50.9104 4
0 4 -1 707.304 55.4049 3
0 4 -1 620.091 56.0173 1
0 4 -1 653.418 56.3573 6
0 -4 1 543.43 49.8594 2
-1 4 -1 569.422 51.2291 5
-1 4 -1 632.216 49.1889 4
-1 4 -1 609.741 52.6023 6
1 -4 1 468.866 49.2994 3
-2 4 -1 790.308 67.4384 6
-2 4 -1 767.042 65.8019 4
-2 4 -1 759.779 65.7135 5
2 -4 1 734.137 64.5034 3
-3 4 -1 484.406 44.5549 6
-3 4 -1 483.685 44.2917 4
-3 4 -1 446.724 41.0386 5
3 -4 1 386.027 39.0013 3
3 -4 1 408.459 46.1876 5
-4 4 -1 125.584 26.8082 4
-4 4 -1 138.802 21.2609 1
-4 4 -1 179.296 20.9782 5
-4 4 -1 153.474 25.122 6
4 -4 1 168.77 17.9111 3
-5 4 -1 281.393 33.5734 6
-5 4 -1 244.367 26.1965 5
-5 4 -1 240.836 28.3457 1
5 -4 1 205.829 22.557 3
5 -4 1 233.078 30.1008 5
-6 4 -1 354.432 36.4627 5
-6 4 -1 348.898 43.1561 6
-6 4 -1 326.916 38.8035 1
6 -4 1 407.969 33.1337 3
6 -4 1 424.606 37.9252 5
-7 4 -1 189.773 32.2617 6
-7 4 -1 193.74 18.593 2
-7 4 -1 218.271 27.6744 1
7 -4 1 218.491 25.9262 5
-8 4 -1 124.975 26.3554 6
-8 4 -1 184.988 25.4896 1
10 3 -1 140.019 22.39 5
9 3 -1 90.817 17.3952 5
9 3 -1 95.5074 16.8369 3
-9 -3 1 113.147 21.5674 1
8 3 -1 311.198 31.0524 3
8 3 -1 259.822 31.497 5
-8 -3 1 365.81 45.8789 4
-8 -3 1 242.76 32.6348 1
7 3 -1 77.4902 20.2155 5
-7 -3 1 145.755 24.7678 4
-7 -3 1 108.198 20.5773 1
6 3 -1 923.017 84.6907 3
-6 -3 1 1040.78 85.7403 3
-6 -3 1 1108.88 89.2739 1
5 3 -1 513.608 51.6494 5
5 3 -1 624.279 51.2959 3
5 3 -1 604.669 54.1264 6
5 3 -1 600.547 53.3474 1
-5 -3 1 697.978 52.3727 4
-5 -3 1 523.735 50.6252 2
-5 -3 1 538.418 50.8985 3
-5 -3 1 544.13 53.582 1
4 3 -1 2498.48 205.516 1
4 3 -1 2675.92 201.286 3
4 3 -1 2177.67 200.925 5
-4 -3 1 2631.79 204.418 1
-4 -3 1 2426.76 201.264 3
-4 -3 1 2553.71 199.082 4
-4 -3 1 2639.59 201.769 5
-4 -3 1 2646.59 200.935 2
3 3 -1 735.601 61.2341 1
3 3 -1 647.359 60.0386 5
-3 -3 1 671.382 59.4711 3
-3 -3 1 748.903 58.766 2
-3 -3 1 724.208 56.8697 4
-3 -3 1 722.056 60.3217 5
-3 -3 1 636.331 61.168 1
2 3 -1 1044.08 82.1381 3
2 3 -1 962.423 82.81 1
2 3 -1 923.943 82.3927 5
-2 -3 1 1015 82.2483 5
-2 -3 1 1027.67 80.3925 2
-2 -3 1 1047.82 78.6725 4
-2 -3 1 921.687 81.6425 3
-1 -3 1 155.004 17.6659 3
-1 -3 1 168.921 19.371 5
-1 -3 1 173.332 15.3651 4
-1 -3 1 164.368 15.5849 2
0 3 -1 1354.65 111.878 3
0 3 -1 1257.02 112.751 1
0 3 -1 1338.96 109.93 4
0 3 -1 1366.12 112.663 6
0 3 -1 1353.05 112.659 5
0 -3 1 1379.47 108.993 2
0 -3 1 1487.26 110.32 4
0 -3 1 1568.75 113.085 5
0 -3 1 1421.73 112.365 3
-1 3 -1 1526.68 124.175 6
-1 3 -1 1407.54 123.229 5
-1 3 -1 1575.31 123.034 4
1 -3 1 1689.12 124.092 5
1 -3 1 1492.33 123.121 3
-2 3 -1 2457.88 203.946 6
-2 3 -1 2439.65 202.778 5
-2 3 -1 2392.1 203.618 4
2 -3 1 2952.3 203.825 5
2 -3 1 2599.53 202.247 3
-3 3 -1 287.718 29.9199 4
-3 3 -1 322.733 29.8362 6
-3 3 -1 315.403 26.9503 5
3 -3 1 211.299 24.3544 3
3 -3 1 267.436 27.1348 5
-4 3 -1 444.389 39.2443 6
-4 3 -1 364.367 30.4341 2
-4 3 -1 371.128 39.0337 4
-4 3 -1 395.744 34.531 5
-4 3 -1 375.109 36.7068 1
4 -3 1 345.426 33.3404 3
4 -3 1 358.635 36.3278 6
4 -3 1 382.067 34.8253 5
-5 3 -1 137.895 14.0596 2
-5 3 -1 160.19 20.4961 1
-5 3 -1 170.433 24.7028 6
-5 3 -1 137.862 24.6682 4
-5 3 -1 135.846 18.1133 5
5 -3 1 186.608 19.6243 5
-6 3 -1 171.392 26.9827 6
-6 3 -1 172.831 16.9589 2
-6 3 -1 178.168 22.9582 1
-6 3 -1 176.129 20.9505 5
-7 3 -1 127.585 23.3631 6
-7 3 -1 129.039 20.4677 1
-7 3 -1 112.975 14.1288 2
7 -3 1 134.483 17.9499 5
-8 3 -1 152.98 22.9994 1
-8 3 -1 164.292 22.7121 2
-8 3 -1 171.901 27.6308 6
8 -3 1 123.38 17.9048 5
-9 3 -1 55.1723 15.5408 1
-9 3 -1 58.0258 20.2028 6
-10 -2 1 69.8608 17.4455 1
9 2 -1 202.455 25.29 5
-9 -2 1 253.533 29.5366 1
8 2 -1 29.645 9.94089 3
8 2 -1 18.3006 9.92804 5
-8 -2 1 36.1534 9.42781 3
-8 -2 1 35.6083 11.9517 1
7 2 -1 411.441 41.6845 5
7 2 -1 538.032 42.1672 3
-7 -2 1 559.994 48.913 4
-7 -2 1 421.289 41.1185 3
-7 -2 1 413.768 44.2747 1
6 2 -1 441.107 45.1561 5
6 2 -1 486.234 47.5645 1
6 2 -1 557.831 45.37 3
6 2 -1 516.118 48.8512 6
-6 -2 1 551.586 47.1614 2
-6 -2 1 558.206 49.0452 1
-6 -2 1 525.33 45.3158 3
5 2 -1 638.303 60.3507 5
5 2 -1 684.732 62.1747 1
5 2 -1 759.22 63.2384 6
5 2 -1 787.191 61.4593 2
-5 -2 1 707.466 63.0875 1
-5 -2 1 759.709 61.6098 2
-5 -2 1 718.253 60.5048 3
4 2 -1 1614.6 123.848 3
4 2 -1 1287.14 123.309 5
4 2 -1 1524.02 123.652 2
4 2 -1 1494.04 125.257 6
4 2 -1 1360.63 124.74 1
-4 -2 1 1637.51 124.075 3
-4 -2 1 1731.77 124.529 2
-4 -2 1 1581.6 126.227 1
-4 -2 1 1697.93 124.369 5
3 2 -1 2336.25 194.853 6
3 2 -1 2252.32 195.555 1
3 2 -1 2740.53 195.23 3
-3 -2 1 2646.71 194.761 2
-3 -2 1 2404.3 194.617 3
-3 -2 1 2725.04 195.152 5
-3 -2 1 2179.36 195.752 1
2 2 -1 1952.86 166.202 5
2 2 -1 2253.61 166.238 3
-2 -2 1 2190.75 165.4 2
-2 -2 1 2175.8 166.182 5
-2 -2 1 2022.66 166.049 3
-2 -2 1 2172.61 164.524 4
-2 -2 1 1946.93 167.268 1
1 2 -1 1991.1 164.064 3
1 2 -1 1904.5 164.275 5
1 2 -1 2010.36 166.911 1
1 2 -1 1953.85 162.209 4
-1 -2 1 2162.44 165.775 3
-1 -2 1 2339.26 166.404 5
-1 -2 1 2302.99 162.78 4
-1 -2 1 2008.23 162.725 2
0 2 -1 1654.64 137.996 4
0 2 -1 1618.88 139.164 5
0 2 -1 1583.5 139.078 6
0 2 -1 1654.22 138.818 3
0 -2 1 2006.46 139.73 5
0 -2 1 1807.86 139.201 3
0 -2 1 1847.69 137.222 2
0 -2 1 1904.82 138.386 4
-1 2 -1 4240.33 296.969 6
-1 2 -1 4059.41 296.633 4
-1 2 -1 4096.81 296.27 5
1 -2 1 3384.08 295.776 4
1 -2 1 3906.37 296.192 5
1 -2 1 3515.53 295.529 3
1 -2 1 3362.67 293.414 2
-2 2 -1 500.526 47.1238 4
-2 2 -1 588.434 49.1388 6
-2 2 -1 534.298 45.4699 5
-2 2 -1 493.508 43.1276 2
2 -2 1 634.482 46.3647 5
2 -2 1 547.183 44.9899 3
2 -2 1 554.389 46.5524 6
2 -2 1 550.18 47.4759 4
2 -2 1 558.339 43.3182 2
-3 2 -1 1505.69 107.324 2
-3 2 -1 1324.99 111.57 4
-3 2 -1 1633.01 111.882 1
3 -2 1 1271.44 107.83 3
3 -2 1 1335.18 107.259 2
3 -2 1 1235.64 110.076 6
3 -2 1 1280.21 108.853 5
-4 2 -1 437.662 45.3662 4
-4 2 -1 442.87 39.558 2
-4 2 -1 524.948 45.0127 6
-4 2 -1 486.523 41.1372 5
-4 2 -1 450.003 43.0205 1
4 -2 1 584.489 44.5074 6
-5 2 -1 1599.91 132.759 1
-5 2 -1 1521.82 135.271 4
-5 2 -1 1709.82 133.865 6
-5 2 -1 1618.96 129.357 2
5 -2 1 1692.72 128.145 3
5 -2 1 1692.63 129.667 2
5 -2 1 1591.79 129.929 5
-6 2 -1 29.0422 16.4133 4
-6 2 -1 19.7248 6.51746 2
-6 2 -1 19.121 9.01234 1
-6 2 -1 23.7195 11.7327 6
6 -2 1 49.0783 9.14354 5
6 -2 1 45.6733 8.99105 2
6 -2 1 39.5281 5.4654 3
6 -2 1 35.7499 20.6464 6
-7 2 -1 739.939 65.0147 6
-7 2 -1 695.739 59.2561 2
-7 2 -1 685.082 63.0108 1
7 -2 1 701.39 59.4172 2
7 -2 1 694.048 58.6851 5
-8 2 -1 14.5189 10.0805 1
-8 2 -1 9.4543 7.0539 2
-8 2 -1 3.40668 12.3798 6
8 -2 1 9.64367 7.43579 5
-9 2 -1 194.955 26.9916 1
-9 2 -1 230.224 41.7279 6
-10 -1 1 492.182 46.9784 1
-10 -1 1 380.651 46.0219 6
9 1 -1 -3.2861 6.763 5
-9 -1 1 12.4154 11.8493 6
-9 -1 1 3.49238 9.52586 1
8 1 -1 369.134 31.2591 5
-8 -1 1 296.769 35.6372 6
-8 -1 1 309.962 34.7878 1
7 1 -1 0.15666 6.01669 5
7 1 -1 1.08131 10.1245 6
7 1 -1 9.83282 6.24639 3
-7 -1 1 1.74507 6.32967 1
-7 -1 1 13.1028 11.9709 4
-7 -1 1 8.2618 4.93024 3
-7 -1 1 9.11549 10.1126 6
6 1 -1 853.073 79.9949 6
6 1 -1 1032.74 76.5699 3
6 1 -1 802.987 80.6299 1
-6 -1 1 1028.14 80.8698 2
-6 -1 1 990.777 80.2881 1
-6 -1 1 955.645 79.513 6
-6 -1 1 931.685 76.462 3
5 1 -1 349.568 26.605 3
5 1 -1 304.3 27.6459 2
5 1 -1 292.723 28.6899 1
5 1 -1 305.721 29.6333 6
5 1 -1 247.44 26.3509 5
-5 -1 1 313.025 28.0031 2
-5 -1 1 282.463 26.0531 3
-5 -1 1 272.61 28.2598 6
-5 -1 1 283.532 28.5495 1
4 1 -1 1398.32 116.261 5
4 1 -1 1690.12 118.918 6
4 1 -1 1690.65 119.29 1
-4 -1 1 1382.26 117.746 6
-4 -1 1 1331.76 117.982 1
-4 -1 1 1404.06 117.245 2
-4 -1 1 1399.49 116.249 3
3 1 -1 69.9287 9.6614 6
3 1 -1 46.493 9.14335 1
3 1 -1 66.4855 7.61443 3
3 1 -1 45.4425 7.82177 5
3 1 -1 54.4614 7.47254 2
-3 -1 1 62.6747 8.60486 2
-3 -1 1 45.248 8.4847 1
-3 -1 1 51.8247 8.2062 6
-3 -1 1 46.391 6.68487 3
-3 -1 1 49.5252 8.15255 5
2 1 -1 3366.6 221.865 5
-2 -1 1 2711.94 221.438 3
-2 -1 1 2906.08 221.441 5
-2 -1 1 2580.32 222.486 1
-2 -1 1 2624.73 221.355 2
1 1 -1 1081.49 83.8933 5
1 1 -1 934.582 83.9402 1
1 1 -1 1182.15 83.9422 3
-1 -1 1 919.507 84.0887 1
-1 -1 1 1002.21 83.1846 2
-1 -1 1 1114.91 83.7433 5
-1 -1 1 1067.59 83.746 3
-1 -1 1 1168.31 83.34 4
0 1 -1 2468.86 201.257 6
0 1 -1 2609.05 201.289 4
0 1 -1 2466.25 201.334 5
0 -1 1 2790.09 201.367 3
-1 1 -1 1945.25 145.764 6
-1 1 -1 1637.54 144.157 2
-1 1 -1 1891.67 146.464 4
-1 1 -1 1970.33 145.37 5
1 -1 1 1978.96 145.453 5
1 -1 1 1751.62 144.275 2
1 -1 1 1726.91 146.124 4
1 -1 1 1968.86 145.818 6
-2 1 -1 7856.7 618.953 4
2 -1 1 8060.75 618.845 4
-3 1 -1 1747.09 136.22 1
-3 1 -1 1732.1 134.478 2
-3 1 -1 1422.29 137.132 4
-3 1 -1 1870.18 136.619 6
-3 1 -1 1926.03 134.892 5
3 -1 1 1687.59 134.532 2
3 -1 1 1621.1 134.513 5
3 -1 1 1690.1 136.211 6
-4 1 -1 1156.41 83.7832 1
-4 1 -1 1019.93 85.5542 4
-4 1 -1 1127.39 83.6757 6
4 -1 1 911.478 82.5929 1
4 -1 1 926.606 80.8124 5
4 -1 1 1062.32 81.5137 2
4 -1 1 902.872 82.7202 6
-5 1 -1 21.5022 5.58567 2
-5 1 -1 12.4256 11.0925 4
-5 1 -1 15.5229 6.50207 1
-5 1 -1 14.3218 9.10962 6
5 -1 1 4.10249 4.84148 5
5 -1 1 10.0656 3.13702 3
5 -1 1 3.74687 7.53807 6
5 -1 1 8.16455 5.17756 1
5 -1 1 14.2286 5.70002 2
-6 1 -1 936.89 78.779 4
-6 1 -1 833.59 71.0867 2
-6 1 -1 841.832 73.9917 6
-6 1 -1 869.27 73.269 1
6 -1 1 875.844 74.2915 6
6 -1 1 840.099 67.7913 3
6 -1 1 794.209 72.5982 1
6 -1 1 910.64 71.3439 2
6 -1 1 837.568 70.0145 5
-7 1 -1 46.5975 11.6934 1
-7 1 -1 46.7676 10.0881 2
-7 1 -1 23.8167 18.3549 6
7 -1 1 38.8401 10.6016 2
7 -1 1 24.4914 8.07064 5
7 -1 1 36.2095 5.28443 3
-8 1 -1 1106.05 95.4777 6
-8 1 -1 1099.44 93.9967 1
8 -1 1 1095.76 89.2866 5
8 -1 1 1072.47 98.7943 2
-9 1 -1 -4.7376 12.4497 6
-9 1 -1 -0.2237 8.25623 1
9 -1 1 5.83326 8.99882 2
-10 1 -1 267.033 32.8352 1
-10 1 -1 278.369 36.3446 6
10 0 -1 8.17647 5.94157 5
-10 0 1 17.7736 11.1566 1
9 0 -1 457.82 46.8639 5
-9 0 1 676.53 57.005 6
-9 0 1 642.944 54.655 1
8 0 -1 3.4798 5.33154 5
-8 0 1 3.58713 7.71858 1
-8 0 1 5.16809 11.388 6
7 0 -1 412.737 39.167 6
7 0 -1 329.799 32.246 5
7 0 -1 369.91 42.1391 1
-7 0 1 370.089 35.5097 2
-7 0 1 453.091 43.4964 4
-7 0 1 385.121 38.1329 6
-7 0 1 376.515 36.856 1
6 0 -1 2.40886 6.92144 6
6 0 -1 -2.6148 4.93455 2
6 0 -1 -2.3262 4.10965 5
6 0 -1 -4.8772 4.22776 1
-6 0 1 -2.07 8.78022 4
-6 0 1 -5.4969 7.65062 6
-6 0 1 -3.7685 4.74154 2
-6 0 1 4.31564 5.92972 1
5 0 -1 1706.41 149.624 1
5 0 -1 1979.04 146.04 3
5 0 -1 1823.87 149.771 6
5 0 -1 2009.32 149.017 2
-5 0 1 1782.87 149.516 1
-5 0 1 1888.33 149.501 6
-5 0 1 1884.34 148.765 2
4 0 -1 1.20335 2.26558 3
4 0 -1 -0.6448 3.45706 2
4 0 -1 2.92542 5.19891 6
4 0 -1 -0.0139 3.3831 1
4 0 -1 3.88545 3.02285 5
-4 0 1 2.04217 3.08947 2
-4 0 1 -1.2563 4.7878 6
-4 0 1 0.77539 1.84551 3
3 0 -1 2499.54 220.721 6
3 0 -1 3035.21 220.782 2
3 0 -1 3008.98 219.081 3
3 0 -1 2472.79 220.852 1
-3 0 1 2751.83 221.129 1
-3 0 1 2936.32 220.581 2
-3 0 1 2866.84 219.072 3
-3 0 1 2995.54 221.088 6
2 0 -1 0.38217 1.62581 1
2 0 -1 2.61063 1.46459 5
2 0 -1 -2.8025 2.0084 6
-2 0 1 0.66409 1.73501 2
-2 0 1 -1.5584 2.05495 6
-2 0 1 -0.1263 1.52418 1
1 0 -1 1256.65 93.7869 5
1 0 -1 1082.33 94.3587 1
-1 0 1 1088.06 94.3839 1
-1 0 1 1419.73 94.2827 6
-1 0 1 1193.53 93.7552 5
1 0 1 675.41 53.439 1
1 0 1 682.208 53.5528 2
-2 0 -1 4.54535 4.05182 4
-2 0 -1 1.76069 1.80976 1
-2 0 -1 -0.765 2.97221 6
-2 0 -1 0.38619 1.75511 2
2 0 1 -1.0085 2.40573 6
2 0 1 3.50833 3.49895 4
2 0 1 0.25346 2.04314 2
2 0 1 0.76414 1.59526 1
-3 0 -1 844.315 76.0861 4
-3 0 -1 1073.03 75.762 6
-3 0 -1 973.104 74.8316 1
-3 0 -1 1009.23 74.5362 2
3 0 1 877.549 75.0502 6
3 0 1 940.292 74.4058 2
3 0 1 848.241 74.5705 1
3 0 1 869.474 73.2567 3
-4 0 -1 1.3544 5.40157 6
-4 0 -1 1.88807 5.88572 1
-4 0 -1 1.54465 7.07298 4
-4 0 -1 -5.1227 2.45161 2
4 0 1 1.59009 2.52394 3
4 0 1 -0.215 5.35559 6
4 0 1 0.26037 3.00962 1
-5 0 -1 2542.16 212.749 2
-5 0 -1 2561.32 213.856 6
-5 0 -1 2467.05 213.385 1
-5 0 -1 2600.04 216.197 4
5 0 1 2961.5 211.077 3
5 0 1 2926.48 215.006 6
5 0 1 2830.4 213.983 1
-6 0 -1 -2.8269 4.65892 2
-6 0 -1 0.85728 8.75197 6
-6 0 -1 2.12684 5.17417 1
-6 0 -1 -2.6942 12.3802 4
6 0 1 -2.9868 4.39457 1
6 0 1 -8.3903 7.58524 6
6 0 1 -0.6937 3.49938 3
6 0 1 4.79947 5.86819 2
-7 0 -1 1396.77 122.13 1
-7 0 -1 1466.63 123.339 6
7 0 1 1402.78 125.131 1
7 0 1 1635.52 121.909 2
7 0 1 1524.48 117.95 3
7 0 1 1507.06 119.997 5
-8 0 -1 14.1149 12.526 6
-8 0 -1 -5.0598 6.4017 1
8 0 1 -1.2429 4.24863 3
8 0 1 1.80708 7.3479 5
8 0 1 -0.3457 6.79226 5
8 0 1 3.72553 8.40491 2
-9 0 -1 372.664 43.4543 6
-9 0 -1 391.442 40.396 1
9 0 1 429.122 37.9462 5
9 0 1 362.151 36.4841 5
9 0 1 446.132 40.2594 2
-10 0 -1 -2.8883 14.8318 6
-10 0 -1 3.60618 9.39516 1
10 0 1 -2.4444 3.88947 5
-10 1 1 486.099 54.9475 6
-10 1 1 504.833 50.6483 1
-9 1 1 9.61707 13.6601 6
-9 1 1 13.7842 10.2556 1
8 -1 -1 318.375 29.6362 5
8 -1 -1 406.461 30.1884 5
-8 1 1 325.823 36.4649 1
-8 1 1 353.122 39.2676 6
7 -1 -1 1.44624 3.94806 5
7 -1 -1 2.99064 9.58383 6
-7 1 1 8.28339 10.6617 6
-7 1 1 13.7169 8.08842 1
6 -1 -1 841.178 77.7462 6
6 -1 -1 878.445 72.907 5
6 -1 -1 801.963 77.3145 1
-6 1 1 1010.96 78.8533 6
-6 1 1 955.901 78.1858 1
-6 1 1 1053.12 76.3301 2
5 -1 -1 265.86 28.2284 1
5 -1 -1 313.84 24.9526 5
5 -1 -1 285.361 29.1368 6
-5 1 1 322.97 32.6505 4
-5 1 1 291.684 29.7159 6
-5 1 1 302.694 27.06 2
-5 1 1 297.654 28.8917 1
4 -1 -1 1593.15 125.159 6
4 -1 -1 1716.62 122.106 5
4 -1 -1 1616.63 125.567 1
-4 1 1 1441.66 123.404 2
-4 1 1 1430.63 125.09 1
3 -1 -1 57.0883 8.837 6
3 -1 -1 59.2365 8.80428 1
3 -1 -1 58.2975 5.99032 5
-3 1 1 54.7902 5.88071 5
-3 1 1 49.4226 7.87563 1
-3 1 1 43.4431 8.51611 6
-3 1 1 52.5906 6.52132 2
-2 1 1 2845.91 221.667 2
-2 1 1 2850.54 221.183 3
-2 1 1 2990.92 223.105 6
-2 1 1 2798.41 223.285 1
-2 1 1 2779.98 221.339 5
1 -1 -1 993.434 82.5474 5
1 -1 -1 1009.38 82.984 6
1 -1 -1 1028.65 82.4721 3
-1 1 1 1073.49 83.1652 6
-1 1 1 1058.95 82.5746 5
-1 1 1 1152.11 82.65 3
0 -1 -1 2254.19 183.284 5
0 -1 -1 2069.18 182.423 2
0 -1 -1 2127.04 183.092 3
0 1 1 2587.46 182.495 4
0 1 1 2716.95 183.493 3
-1 -1 -1 1741.01 126.741 2
-1 -1 -1 1668.33 127.15 3
-1 -1 -1 1562.67 126.43 4
-1 -1 -1 1483.3 126.974 1
1 1 1 1403.04 126.121 4
1 1 1 1513.84 126.939 1
1 1 1 1605.79 126.495 2
1 1 1 1773.28 127.301 5
1 1 1 1828.68 127.226 3
-2 -1 -1 8817.41 689.693 4
2 1 1 7863.17 689.123 4
2 1 1 9999.99 689.883 5
-3 -1 -1 1627.75 135.262 4
-3 -1 -1 1841.23 134.612 2
-3 -1 -1 1891.58 135.361 6
-3 -1 -1 1843.39 134.329 3
-3 -1 -1 1723.27 135.065 1
3 1 1 1538.07 134.443 1
3 1 1 1606.73 133.631 3
3 1 1 1520.81 133.891 5
3 1 1 1680.08 134.13 2
3 1 1 1705.11 135.414 6
-4 -1 -1 1186.03 88.0756 4
-4 -1 -1 1203.17 86.8612 6
-4 -1 -1 1155.34 85.9532 2
-4 -1 -1 1047.28 86.256 1
4 1 1 1024.27 85.1331 2
4 1 1 969.56 84.1316 3
4 1 1 963.357 86.5904 6
4 1 1 896.32 85.3652 1
-5 -1 -1 16.9661 6.34953 2
-5 -1 -1 26.813 7.64493 1
-5 -1 -1 25.8568 6.40996 3
-5 -1 -1 19.5011 8.31258 6
-5 -1 -1 26.4043 10.8913 4
5 1 1 5.16758 5.25625 2
5 1 1 1.08911 7.56293 6
5 1 1 11.7476 5.4936 3
5 1 1 10.6097 5.95503 1
5 1 1 8.81421 6.65237 5
-6 -1 -1 984.34 75.3259 4
-6 -1 -1 806.891 69.0338 2
-6 -1 -1 766.284 69.6948 1
6 1 1 782.784 74.5797 1
6 1 1 800.582 68.5084 2
6 1 1 847.672 71.7742 6
6 1 1 716.445 67.5648 5
6 1 1 867.722 67.1569 3
-7 -1 -1 55.1341 18.5014 4
-7 -1 -1 44.5448 11.9652 1
-7 -1 -1 35.2776 16.5058 6
7 1 1 41.5265 8.78322 3
7 1 1 34.4434 9.75003 5
-8 -1 -1 1074.12 91.9052 1
8 1 1 1135.31 90.8521 2
8 1 1 920.956 87.7082 5
8 1 1 1159.78 87.2367 3
-9 -1 -1 0.27711 12.2678 6
-9 -1 -1 7.75172 9.15181 1
9 1 1 6.0785 9.82276 2
9 1 1 13.4484 7.93629 3
9 1 1 4.90686 7.90543 5
-10 -1 -1 254.943 35.1505 6
-10 -1 -1 310.281 33.7543 1
10 1 1 227.077 31.2966 2
-10 2 1 117.039 24.9502 1
-10 2 1 81.3012 22.9043 6
-9 2 1 236.586 34.512 6
-9 2 1 269.655 31.5868 1
-8 2 1 43.5971 13.2976 1
-8 2 1 54.8906 17.36 6
-8 2 1 46.1093 10.0865 2
7 -2 -1 444.643 37.6008 5
-7 2 1 485.292 44.5648 1
-7 2 1 455.659 47.0478 6
-7 2 1 443.944 40.2131 2
6 -2 -1 535.57 53.4255 6
6 -2 -1 504.975 48.5479 5
-6 2 1 598.001 54.9137 6
-6 2 1 726.793 59.1033 4
-6 2 1 647.996 54.6302 1
-6 2 1 644.404 50.744 2
5 -2 -1 749.656 61.3324 5
5 -2 -1 785.865 65.2556 6
-5 2 1 755.278 61.9672 2
-5 2 1 809.256 68.4559 4
-5 2 1 734.664 65.2216 1
-5 2 1 738.427 65.8006 6
4 -2 -1 1377.95 131.802 6
4 -2 -1 1488.26 129.694 5
4 -2 -1 1498.11 128.421 3
-4 2 1 1665.26 129.603 5
-4 2 1 1929.96 133.875 6
-4 2 1 1784.82 134.935 4
-4 2 1 1794.11 129.837 2
-4 2 1 1707.64 133.347 1
3 -2 -1 2294.53 202.755 6
3 -2 -1 2511.97 200.591 3
3 -2 -1 2273.48 201.09 5
-3 2 1 2758.74 203.752 6
-3 2 1 2770.94 204.791 4
-3 2 1 2693.45 204.144 1
-3 2 1 2644.18 201.204 5
-3 2 1 2665.67 200.386 2
2 -2 -1 2126.24 169.797 5
2 -2 -1 2082.49 170.739 6
2 -2 -1 2194.29 169.502 3
-2 2 1 1939.15 167.798 2
-2 2 1 2347.03 171.405 6
-2 2 1 2148.6 167.899 2
-2 2 1 2266.99 169.848 5
-2 2 1 2230.57 169.484 3
1 -2 -1 1932.03 157.961 3
1 -2 -1 1698.55 157.748 5
-1 2 1 2191.1 158.176 3
-1 2 1 2077.94 158.263 5
-1 2 1 2237.25 159.15 6
-1 2 1 1944.52 155.868 2
0 -2 -1 1481.4 127.434 5
0 -2 -1 1467.28 127.209 3
0 -2 -1 1431.46 125.544 2
0 2 1 1737.69 125.352 4
0 2 1 1836.36 127.774 3
0 2 1 1673.16 127.622 5
0 2 1 1644.61 125.57 2
-1 -2 -1 3776.87 271.237 2
1 2 1 3333.54 270.765 2
1 2 1 3489.4 272.549 5
1 2 1 3369.46 272.642 1
1 2 1 3429.77 272.164 3
-2 -2 -1 433.157 41.2163 4
-2 -2 -1 516.633 42.2591 2
-2 -2 -1 510.562 43.2127 3
-2 -2 -1 457.093 43.5025 1
2 2 1 591.386 43.6322 3
2 2 1 547.534 42.2045 2
2 2 1 526.905 45.3376 1
-3 -2 -1 1450.76 101.618 3
-3 -2 -1 1329.88 102.149 1
-3 -2 -1 1322.44 100.476 4
3 2 1 1134.08 100.758 5
3 2 1 1311 100.803 3
3 2 1 1224.61 100.071 2
3 2 1 1110.59 101.04 6
3 2 1 1129.73 101.111 1
-4 -2 -1 442.747 46.1283 4
-4 -2 -1 460.465 44.9056 2
-4 -2 -1 466.606 45.1976 3
-4 -2 -1 435.37 46.0379 1
4 2 1 564.434 46.5305 1
4 2 1 589.362 45.3828 2
4 2 1 600.157 47.9621 6
4 2 1 572.97 46.3208 5
4 2 1 631.687 45.7053 3
-5 -2 -1 1773.1 127.877 4
-5 -2 -1 1565.35 125.022 3
-5 -2 -1 1496.93 126.686 1
-5 -2 -1 1562.49 127.675 2
5 2 1 1490.72 124.27 2
5 2 1 1573.94 124.346 3
5 2 1 1475.89 124.601 5
5 2 1 1450.21 125.8 1
-6 -2 -1 26.768 9.78105 2
-6 -2 -1 19.3703 7.71453 3
-6 -2 -1 44.7935 14.331 4
-6 -2 -1 23.8306 9.2112 1
6 2 1 24.7766 8.49698 2
6 2 1 27.5894 8.68104 1
6 2 1 38.8642 9.58025 3
6 2 1 34.2054 10.2734 5
-7 -2 -1 671.892 60.2278 1
-7 -2 -1 799.738 64.9421 4
-7 -2 -1 601.334 56.5822 3
7 2 1 569.714 56.8694 5
7 2 1 696.762 56.7023 3
-8 -2 -1 -7.7151 8.05169 1
8 2 1 12.9209 8.62907 3
8 2 1 9.73351 8.68414 2
8 2 1 1.93895 8.53348 5
-9 -2 -1 189.25 25.6955 1
9 2 1 172.096 24.6213 3
9 2 1 175.404 23.7672 5
-10 -2 -1 9.78181 10.8326 1
10 2 1 -1.8486 9.17808 5
10 2 1 14.9252 8.30081 3
-9 3 1 82.941 18.6324 1
-9 3 1 56.8677 19.4647 6
-8 3 1 260.636 26.4677 2
-8 3 1 297.808 36.3786 6
-8 3 1 296.251 32.8694 1
7 -3 -1 101.758 16.9748 5
-7 3 1 113.218 18.9784 1
-7 3 1 116.758 22.006 6
-7 3 1 116.284 13.3673 2
-6 3 1 1231.26 97.8347 2
-6 3 1 1247.38 103.597 1
-6 3 1 1204.01 106.343 6
-6 3 1 1226.99 98.2652 5
5 -3 -1 612.182 47.0667 3
5 -3 -1 598.991 52.9151 6
5 -3 -1 562.478 49.264 5
-5 3 1 555.578 52.6425 1
-5 3 1 634.942 54.5309 6
-5 3 1 563.117 47.0308 2
-5 3 1 592.592 64.4429 4
-5 3 1 558.855 48.6172 5
4 -3 -1 2509.51 208.823 5
4 -3 -1 2549.24 207.699 3
4 -3 -1 2585.83 211.668 6
-4 3 1 3015.57 212.996 6
-4 3 1 2496.09 206.136 2
-4 3 1 2597.99 208.418 5
-4 3 1 2769.22 212.631 4
-4 3 1 2767.5 212.677 1
3 -3 -1 814.344 64.7007 3
3 -3 -1 814.916 66.1816 6
3 -3 -1 815.851 64.5125 5
-3 3 1 793.574 66.6472 6
-3 3 1 720.893 64.7053 5
-3 3 1 699.513 65.2678 4
2 -3 -1 993.604 82.9698 5
2 -3 -1 1020.68 82.4731 3
-2 3 1 1148.04 85.1389 6
-2 3 1 1002.9 82.8248 5
-2 3 1 1022.02 82.2059 3
-2 3 1 936.569 82.5088 4
-1 3 1 145.913 16.1217 4
-1 3 1 165.103 17.1079 3
-1 3 1 169.052 19.1499 6
-1 3 1 170.282 18.6159 5
0 -3 -1 1247.44 106.525 3
0 -3 -1 1264.77 106.897 5
0 -3 -1 1199.34 103.563 2
0 3 1 1321.63 106.998 5
0 3 1 1406.48 103.68 2
0 3 1 1370.83 107.676 1
0 3 1 1445.07 106.878 3
-1 -3 -1 1331.83 116.543 5
-1 -3 -1 1402.97 114.1 2
-1 -3 -1 1355.42 116.306 3
1 3 1 1508.04 117.428 1
1 3 1 1587.19 116.538 3
1 3 1 1429.65 116.764 5
1 3 1 1490.64 113.907 2
-2 -3 -1 2127.78 181.063 2
-2 -3 -1 2092.39 183.059 5
-2 -3 -1 2063.2 182.628 3
2 3 1 2575.06 181.085 2
2 3 1 2266.62 183.093 5
2 3 1 2434.88 183.936 1
2 3 1 2542.27 183.311 3
-3 -3 -1 254.052 25.5644 1
-3 -3 -1 293.971 23.4641 2
-3 -3 -1 261.928 24.2854 3
-3 -3 -1 247.435 20.5555 4
3 3 1 214.513 23.7888 3
3 3 1 198.989 24.6703 5
3 3 1 180.584 23.0155 1
3 3 1 194.161 21.2976 2
-4 -3 -1 349.836 31.701 4
-4 -3 -1 372.032 32.0994 2
-4 -3 -1 363.505 34.9449 3
-4 -3 -1 351.053 34.5975 1
4 3 1 319.85 32.7463 1
4 3 1 291.757 33.4317 6
4 3 1 351.511 31.0238 2
4 3 1 307.917 31.4855 3
4 3 1 309.132 33.0213 5
-5 -3 -1 145.462 23.2686 4
-5 -3 -1 143.94 21.1504 1
-5 -3 -1 146.99 19.9666 3
-5 -3 -1 167.028 19.8755 2
5 3 1 192.009 20.8219 3
5 3 1 205.867 20.342 2
5 3 1 179.568 21.0491 1
5 3 1 184.875 22.7608 5
-6 -3 -1 163.364 25.1558 1
-6 -3 -1 182.292 28.6402 4
6 3 1 227.131 28.1582 5
6 3 1 249.169 24.6291 3
6 3 1 249.058 24.6684 2
-7 -3 -1 149.81 25.6449 4
-7 -3 -1 97.8505 19.9266 1
7 3 1 153.069 20.2506 2
7 3 1 135.969 22.008 5
7 3 1 174.592 20.2994 3
-8 -3 -1 149.432 22.0808 1
8 3 1 128.042 19.9277 3
8 3 1 112.197 19.2319 2
8 3 1 111.289 19.4465 5
-9 -3 -1 86.1612 19.3594 1
9 3 1 89.1342 16.8922 3
9 3 1 89.4033 17.0555 5
9 3 1 77.5438 18.2871 2
-8 4 1 181.524 30.6908 6
-8 4 1 218.042 28.4228 1
-7 4 1 183.797 25.9964 1
-7 4 1 241.717 32.9469 6
-7 4 1 199.083 17.4314 2
6 -4 -1 178.103 19.8636 5
6 -4 -1 117.921 12.3999 3
-6 4 1 115.8 16.7348 5
-6 4 1 120.174 20.0644 1
-6 4 1 104.165 23.8276 6
5 -4 -1 315.385 29.2974 5
5 -4 -1 302.562 25.3241 3
-5 4 1 226.644 29.7758 1
-5 4 1 254.244 27.1746 5
-5 4 1 253.508 33.9325 6
-5 4 1 261.721 34.5878 4
-4 4 1 336.162 35.7016 1
-4 4 1 346.88 37.3156 4
-4 4 1 341.827 32.4598 5
3 -4 -1 368.352 34.6997 3
3 -4 -1 401.804 37.3242 5
-3 4 1 379.373 35.9055 5
-3 4 1 384.419 37.7556 4
-3 4 1 402.678 39.4857 6
2 -4 -1 206.186 20.4151 3
2 -4 -1 218.44 24.0541 5
-2 4 1 149.391 19.555 3
-2 4 1 177.186 22.1058 5
-2 4 1 180.607 24.5142 6
1 -4 -1 918.916 80.3935 5
1 -4 -1 852.64 79.1348 3
-1 4 1 982.332 79.3365 3
-1 4 1 957.512 80.1871 5
-1 4 1 986.856 77.0322 4
-1 4 1 1017.21 81.3755 6
0 -4 -1 596.369 47.76 2
0 -4 -1 614.174 55.0972 3
0 4 1 589.299 52.1257 3
0 4 1 601.718 53.2985 6
0 4 1 586.586 55.3686 1
0 4 1 579.361 53.1613 5
-1 -4 -1 547.479 42.0208 2
-1 -4 -1 516.389 45.4414 3
-1 -4 -1 566.242 47.3939 5
1 4 1 456.884 45.9956 5
1 4 1 444.035 45.4292 1
1 4 1 496.203 41.497 2
1 4 1 470.006 44.7166 3
-2 -4 -1 678.13 61.2892 3
-2 -4 -1 659.991 62.2615 5
-2 -4 -1 697.726 58.2916 2
2 4 1 660.826 61.1769 1
2 4 1 729.331 61.239 3
2 4 1 807.113 58.4434 2
2 4 1 657.93 61.7297 5
-3 -4 -1 436.599 37.0737 2
3 4 1 373.686 39.4197 1
3 4 1 396.425 40.1597 5
3 4 1 439.11 36.8599 2
3 4 1 397.458 38.9065 3
-4 -4 -1 145.355 22.4447 1
-4 -4 -1 149.039 19.173 2
4 4 1 165.247 23.9431 5
4 4 1 185.854 22.3792 3
4 4 1 178.84 19.2943 2
-5 -4 -1 214.304 21.9251 4
-5 -4 -1 221.507 20.5465 4
-5 -4 -1 219.973 28.111 1
5 4 1 233.692 26.2238 3
5 4 1 205.041 27.8819 5
5 4 1 219.71 33.65 2
-6 -4 -1 333.063 38.2579 1
6 4 1 375.657 35.6062 3
6 4 1 328.964 34.2924 2
6 4 1 355.302 37.77 5
-7 -4 -1 213.849 31.0179 1
7 4 1 235.779 26.7347 3
7 4 1 233.257 27.0219 2
7 4 1 243.819 30.473 5
-8 -4 -1 167.205 25.9359 1
8 4 1 162.542 22.4197 3
8 4 1 111.748 27.5414 5
-7 5 1 29.4766 17.7369 6
-7 5 1 42.6076 11.591 5
6 -5 -1 37.3948 14.7071 5
-6 5 1 39.467 11.2852 5
-6 5 1 17.5093 12.0774 1
5 -5 -1 376.224 41.7671 5
5 -5 -1 389.083 36.9071 3
-5 5 1 494.804 47.2947 6
-5 5 1 376.59 38.6873 5
-5 5 1 425.07 43.3679 1
4 -5 -1 138.179 18.6832 3
-4 5 1 142.093 21.7459 5
-4 5 1 145.015 24.7694 6
-4 5 1 162.931 22.972 1
3 -5 -1 617.818 54.1992 3
-3 5 1 610.771 58.3417 6
-3 5 1 628.742 56.0912 4
-3 5 1 591.598 54.9583 5
2 -5 -1 181.13 21.8709 3
-2 5 1 133.623 22.823 6
-2 5 1 117.427 18.5711 3
-1 5 1 175.178 24.5327 3
-1 5 1 163.865 24.2031 5
-1 5 1 168.236 25.2103 6
0 -5 -1 104.556 10.7766 2
0 5 1 136.768 18.5902 3
0 5 1 152.096 22.8284 5
0 5 1 163.999 23.2148 6
1 5 1 410.56 39.2584 3
1 5 1 373.112 40.9294 5
1 5 1 377.393 41.0381 6
-2 -5 -1 195.035 20.8953 2
2 5 1 242.202 25.9479 3
-3 -5 -1 279.216 32.5838 2
3 5 1 372.746 38.6055 5
3 5 1 376.984 35.4008 3
4 5 1 137.166 20.741 3
4 5 1 134.606 22.6611 5
5 5 1 221.252 30.7865 5
5 5 1 207.473 26.0659 3
6 5 1 15.5197 14.0614 5
6 5 1 26.0494 12.7235 3
-7 -5 -1 160.855 28.8483 1
7 5 1 216.728 31.4029 5
7 5 1 238.18 28.0213 3
-5 6 1 10.1844 10.5423 5
-4 6 1 107.586 19.8364 5
-4 6 1 174.172 24.7412 1
-4 6 1 118.553 23.816 6
-3 6 1 39.1137 14.8971 4
-3 6 1 70.1525 16.8533 5
-3 6 1 56.7578 19.8404 6
-2 6 1 227.808 35.4616 6
-2 6 1 209.754 29.2632 5
-1 6 1 67.7865 17.9291 5
-1 6 1 74.4665 20.3111 6
0 6 1 618.073 59.5746 5
0 6 1 565.438 58.5688 6
0 6 1 630.11 57.0907 3
1 6 1 37.6304 16.4184 6
1 6 1 23.7461 14.0216 3
1 6 1 37.0336 16.5191 5
2 6 1 309.449 54.7539 6
-3 -6 -1 30.8336 9.86527 2
3 6 1 61.174 16.1107 3
3 6 1 51.6617 17.7575 5
4 6 1 160.805 27.9754 5
4 6 1 160.301 24.6327 3
4 6 -2 6.78342 14.7712 5
-3 -6 2 222.891 24.078 2
2 6 -2 27.8037 27.3852 5
1 6 -2 245.501 34.5271 5
0 6 -2 27.8656 15.8442 5
0 6 -2 50.0419 21.0863 6
-1 6 -2 103.841 13.78 4
-1 6 -2 190.785 28.7105 5
-2 6 -2 32.7347 17.2515 6
-2 6 -2 15.5324 13.7729 5
-2 6 -2 29.5278 11.0096 4
-3 6 -2 125.004 25.4168 6
-3 6 -2 92.7973 20.034 5
-4 6 -2 28.5177 13.6174 5
-5 6 -2 182.472 28.8491 5
7 5 -2 55.4842 17.5664 5
6 5 -2 117.729 22.5898 5
5 5 -2 108.739 22.1092 5
4 5 -2 141.41 24.9114 5
-4 -5 2 164.081 19.5859 2
3 5 -2 175.651 27.8617 5
-3 -5 2 160.125 18.6407 2
2 5 -2 170.663 26.5812 6
2 5 -2 148.101 25.9222 5
1 5 -2 360.386 39.1846 5
1 5 -2 347.302 38.4709 6
0 5 -2 127.605 22.0221 5
0 5 -2 148.168 15.4884 4
0 5 -2 165.263 23.6713 6
0 -5 2 155.229 13.1957 2
0 -5 2 149.357 12.9815 2
-1 5 -2 338.36 38.2547 6
-1 5 -2 362.729 34.9074 4
-1 5 -2 368.008 39.0181 5
-2 5 -2 473.79 44.8277 5
-2 5 -2 423.247 46.0768 6
-2 5 -2 439.049 42.373 4
-3 5 -2 101.534 22.2849 6
-3 5 -2 106.632 18.7483 5
-3 5 -2 133.282 23.5457 4
-4 5 -2 265.536 35.2417 6
-4 5 -2 250.965 40.3002 4
-4 5 -2 273.238 31.5664 5
-4 5 -2 270.504 31.9143 1
-5 5 -2 84.9047 31.235 6
-5 5 -2 144.249 23.3221 1
-5 5 -2 105.024 19.1516 5
5 -5 2 139.575 18.0081 3
-6 5 -2 45.0361 14.9388 1
-6 5 -2 55.177 13.8176 5
-6 5 -2 37.0373 20.6493 6
-7 5 -2 69.644 15.1835 5
9 4 -2 106.215 23.7301 5
-8 -4 2 96.5085 16.1691 4
-8 -4 2 52.4077 19.1194 4
7 4 -2 121.791 21.372 5
-7 -4 2 116.156 19.5469 4
-7 -4 2 193.311 25.6873 4
-7 -4 2 151.023 26.2841 1
6 4 -2 253.464 30.0907 5
-6 -4 2 205.527 30.2375 1
-6 -4 2 252.807 27.6401 4
-6 -4 2 217.724 24.9118 4
5 4 -2 182.354 24.245 3
5 4 -2 146.166 25.8837 5
-5 -4 2 211.396 28.1105 1
-5 -4 2 213.692 23.0391 4
-5 -4 2 252.417 24.1637 4
4 4 -2 448.327 42.9921 3
-4 -4 2 468.598 39.8926 4
-4 -4 2 460.057 41.5671 2
-4 -4 2 443.62 45.8731 1
3 4 -2 1016 97.3008 5
3 4 -2 1229.65 96.9852 3
-3 -4 2 1141.24 94.198 2
-3 -4 2 1219.68 92.1195 4
2 4 -2 1299.6 110.057 1
2 4 -2 1349.42 110.56 5
-2 -4 2 1233.59 106.023 2
-2 -4 2 1463.19 104.518 4
-2 -4 2 1398.36 109.642 5
-2 -4 2 1174.71 108.569 3
1 4 -2 1200.4 92.7847 4
1 4 -2 1277.5 99.2793 1
1 4 -2 1278.46 98.6197 6
1 4 -2 1234.37 98.9282 5
-1 -4 2 1020.82 93.1977 2
-1 -4 2 1022.82 96.4694 3
-1 -4 2 1193.08 97.6948 5
-1 -4 2 1183.73 93.2878 4
0 4 -2 748.694 64.0769 1
0 4 -2 782.336 59.8693 4
0 4 -2 827.165 64.5569 6
0 4 -2 782.709 64.0601 5
0 -4 2 756.741 60.4326 4
0 -4 2 624.859 61.7107 3
0 -4 2 706.743 63.0442 5
0 -4 2 607.848 57.6062 2
-1 4 -2 598.004 54.4324 5
-1 4 -2 562.352 54.4283 6
-1 4 -2 603.278 54.0963 4
1 -4 2 662.01 54.2506 5
1 -4 2 572.999 54.4273 3
-2 4 -2 644.797 59.2395 6
-2 4 -2 631.599 57.6974 5
-2 4 -2 625.596 58.1245 4
2 -4 2 612.87 55.9371 3
2 -4 2 768.549 58.8685 5
-3 4 -2 478.623 46.7213 4
-3 4 -2 526.031 44.295 5
3 -4 2 486.846 44.1847 5
3 -4 2 393.208 40.9165 3
-4 4 -2 835.747 75.9709 1
-4 4 -2 800.168 78.0786 4
-4 4 -2 931.988 77.8279 6
-4 4 -2 819.434 73.3651 5
4 -4 2 936.632 72.3995 3
-5 4 -2 376.003 37.967 5
-5 4 -2 382.573 42.5926 6
-5 4 -2 381.108 39.9084 1
5 -4 2 423.392 39.1133 5
5 -4 2 378.831 34.8381 3
-6 4 -2 207.559 27.1042 1
-6 4 -2 204.223 17.8525 2
-6 4 -2 195.812 25.8849 5
-6 4 -2 227.708 30.1896 6
6 -4 2 200.338 20.8449 3
6 -4 2 248.355 27.4355 5
-7 4 -2 133.267 36.3025 6
-7 4 -2 166.112 33.0992 1
-8 4 -2 102.625 22.4559 1
10 3 -2 48.0131 14.0402 5
9 3 -2 98.9301 17.5526 5
-9 -3 2 81.1695 18.6189 1
8 3 -2 162.576 23.6451 5
-8 -3 2 188.696 25.6955 1
7 3 -2 362.615 37.3012 3
7 3 -2 298.351 33.6949 5
-7 -3 2 355.851 37.239 1
6 3 -2 53.4929 13.2192 5
6 3 -2 57.0693 13.6529 3
-6 -3 2 85.791 14.7581 4
-6 -3 2 90.5373 12.9748 3
-6 -3 2 58.8286 14.1667 1
5 3 -2 804.21 61.464 5
-5 -3 2 675.143 60.5911 5
-5 -3 2 648.54 59.1791 2
-5 -3 2 686.336 59.764 3
-5 -3 2 643.541 59.5912 4
-5 -3 2 703.368 62.8337 1
4 3 -2 564.954 52.9 1
4 3 -2 534.866 52.3007 5
4 3 -2 667.675 52.1904 3
4 3 -2 560.626 52.3563 6
-4 -3 2 582.215 51.5278 3
-4 -3 2 562.318 53.8794 1
-4 -3 2 601.86 52.2148 5
-4 -3 2 641.268 51.3674 2
-4 -3 2 587.909 49.837 4
3 3 -2 514.936 44.2727 5
3 3 -2 503.882 44.504 1
-3 -3 2 451.124 42.2496 3
-3 -3 2 498.994 43.1701 5
-3 -3 2 495.99 41.2559 4
-3 -3 2 417.491 44.1559 1
-3 -3 2 474.881 41.6045 2
2 3 -2 514.263 43.273 5
2 3 -2 501.941 42.9527 1
-2 -3 2 492.868 42.1358 5
-2 -3 2 442.643 39.498 2
-2 -3 2 385.069 40.7969 3
-2 -3 2 482.445 40.033 4
1 3 -2 159.733 20.2922 1
1 3 -2 163.563 21.4689 5
1 3 -2 184.357 17.9829 4
-1 -3 2 215.955 17.678 2
-1 -3 2 213.722 20.1099 3
0 3 -2 595.132 50.4651 1
0 3 -2 615.038 50.3282 6
0 3 -2 596.317 50.1683 5
0 3 -2 646.523 48.598 4
0 -3 2 546.155 48.4786 4
0 -3 2 522.256 46.1511 2
0 -3 2 575.437 49.8615 5
0 -3 2 512.044 48.837 3
-1 3 -2 1368.5 116.609 4
-1 3 -2 1265.34 116.609 6
-1 3 -2 1294.18 116.681 5
1 -3 2 1691.87 117.625 5
1 -3 2 1570.07 116.701 4
1 -3 2 1506.75 116.282 3
1 -3 2 1432.68 112.854 2
-2 3 -2 1169.73 97.7323 6
-2 3 -2 1158.02 98.1171 4
-2 3 -2 1123.57 96.4364 5
2 -3 2 1262.45 97.9996 6
2 -3 2 1171.24 95.9307 3
2 -3 2 1186.31 100.494 4
2 -3 2 1135.01 92.5601 2
2 -3 2 1306.43 97.3572 5
-3 3 -2 505.131 41.1425 6
-3 3 -2 444.003 41.5243 4
3 -3 2 399.249 33.311 2
3 -3 2 356.696 38.0161 6
3 -3 2 399.279 40.6074 4
3 -3 2 449.229 38.4657 5
3 -3 2 379.022 35.8419 3
-4 3 -2 828.434 65.6665 5
-4 3 -2 749.437 70.266 4
-4 3 -2 790.613 61.8703 2
-4 3 -2 828.266 68.6231 6
-4 3 -2 803.973 67.783 1
4 -3 2 743.496 61.8238 2
4 -3 2 723.742 63.5038 3
4 -3 2 699.229 66.7614 6
4 -3 2 829.5 65.9722 5
-5 3 -2 697.746 68.8673 4
-5 3 -2 717.483 64.4783 1
-5 3 -2 687.223 61.8963 2
-5 3 -2 751.254 62.2063 5
5 -3 2 789.651 62.9151 5
5 -3 2 737.206 59.2194 2
5 -3 2 715.861 59.8621 3
-6 3 -2 164.548 18.2981 2
-6 3 -2 172.805 23.6191 1
-6 3 -2 191.451 28.5538 6
6 -3 2 214.722 19.6033 2
6 -3 2 238.277 23.5441 5
-7 3 -2 277.399 26.6892 2
-7 3 -2 294.644 36.0134 6
-7 3 -2 287.373 32.7066 1
7 -3 2 305.322 30.6332 5
-8 3 -2 136.862 21.5686 1
-8 3 -2 122.378 16.1667 2
-8 3 -2 104.416 30.9018 6
8 -3 2 146.027 20.1879 5
-9 3 -2 232.404 30.3251 1
9 2 -2 58.3085 12.3619 5
-9 -2 2 52.8561 11.2287 3
-9 -2 2 86.0395 18.4096 1
8 2 -2 1002.26 83.8249 5
-8 -2 2 1017.89 88.3817 1
7 2 -2 141.805 17.4055 5
-7 -2 2 82.2225 14.3921 3
-7 -2 2 164.472 24.5172 4
-7 -2 2 112.59 18.7487 1
6 2 -2 601.561 48.3493 6
6 2 -2 588.447 48.1726 1
6 2 -2 538.392 45.145 5
-6 -2 2 500.291 47.5905 1
-6 -2 2 406.711 43.1488 3
-6 -2 2 427.241 44.3526 2
5 2 -2 51.887 12.1351 6
5 2 -2 24.2129 8.66453 5
5 2 -2 46.7893 10.2205 1
5 2 -2 54.1238 9.9602 3
-5 -2 2 24.8906 7.58961 2
-5 -2 2 19.2349 9.05171 1
-5 -2 2 24.1238 6.92817 3
4 2 -2 1533.33 132.768 6
4 2 -2 1701.04 131.978 3
4 2 -2 1347.63 132.591 1
-4 -2 2 1686.24 131.829 3
-4 -2 2 1865.49 132.243 5
-4 -2 2 1733.06 132.139 2
-4 -2 2 1684.28 134.357 1
-3 -2 2 277.785 24.5563 5
-3 -2 2 250.983 24.0149 3
-3 -2 2 232.139 25.2162 1
-3 -2 2 239.096 23.1236 2
-3 -2 2 274.918 24.2635 4
2 2 -2 2887.17 235.854 5
2 2 -2 2951.05 236.698 1
-2 -2 2 3182.98 235.685 5
-2 -2 2 2858.09 235.562 3
-2 -2 2 3322.16 235.219 4
-2 -2 2 2797.53 234.687 2
1 2 -2 112.219 13.0869 1
1 2 -2 126.606 14.1872 5
1 2 -2 112.479 12.0674 4
0 2 -2 3258.75 236.899 4
0 2 -2 3259.06 237.459 5
0 2 -2 3093.49 236.993 6
0 -2 2 2702.01 237.067 5
0 -2 2 2797.62 236.909 4
1 -2 2 19.724 5.29165 3
1 -2 2 35.8148 7.38908 5
1 -2 2 18.9192 7.28035 4
1 -2 2 43.5872 7.96176 6
1 -2 2 25.5558 3.8916 2
-2 2 -2 1843.9 152.398 6
-2 2 -2 1659.17 149.426 2
-2 2 -2 1855.84 151.685 5
-2 2 -2 1747.63 153.84 4
2 -2 2 2264.01 153.167 6
2 -2 2 1998.13 153.491 4
2 -2 2 2069.19 149.76 2
-3 2 -2 784.816 67.7881 2
-3 2 -2 998.508 72.6427 6
-3 2 -2 797.965 73.2916 4
-3 2 -2 865.88 71.3811 1
-3 2 -2 868.207 70.5152 5
3 -2 2 908.829 70.1884 5
3 -2 2 885.841 71.4059 6
3 -2 2 741.945 71.9028 4
3 -2 2 856.436 68.155 2
-4 2 -2 1772.44 146.107 2
-4 2 -2 1921.71 147.84 5
-4 2 -2 1558.41 151.14 4
-4 2 -2 1789.18 149.293 1
-4 2 -2 1902.12 150.182 6
4 -2 2 2071.93 148.223 5
4 -2 2 1997.05 146.588 2
4 -2 2 1790.47 151.738 4
4 -2 2 1903.22 149.552 6
-5 2 -2 48.0436 15.3669 4
-5 2 -2 66.0315 14.0404 6
-5 2 -2 60.5131 8.86968 2
-5 2 -2 74.9641 12.8203 1
5 -2 2 57.3201 10.8508 5
5 -2 2 39.687 12.3548 6
5 -2 2 63.4709 9.74666 2
-6 2 -2 319.949 38.7697 6
-6 2 -2 350.307 36.4054 1
-6 2 -2 331.76 33.0256 2
6 -2 2 445.094 35.2681 5
6 -2 2 408.499 33.668 2
-7 2 -2 355.143 34.5311 2
-7 2 -2 363.153 38.8509 6
-7 2 -2 327.126 35.6783 1
7 -2 2 360.873 32.9397 2
7 -2 2 337.118 29.1366 3
7 -2 2 374.231 33.6897 5
-8 2 -2 349.585 41.0365 6
-8 2 -2 321.866 37.4674 1
8 -2 2 387.611 34.9519 2
8 -2 2 387.336 35.1643 5
-9 2 -2 32.6674 17.4445 6
9 -2 2 45.1059 12.0786 2
-10 -1 2 56.5329 26.9237 6
-10 -1 2 93.7209 19.6831 1
9 1 -2 284.371 29.0653 5
-9 -1 2 346.527 35.659 1
-9 -1 2 323.245 35.8648 6
8 1 -2 202.963 20.3694 5
-8 -1 2 154.761 17.7739 3
-8 -1 2 186.53 25.038 6
-8 -1 2 214.065 25.0028 1
7 1 -2 658.442 55.3732 6
-7 -1 2 628.729 53.9835 1
-7 -1 2 534.294 48.5587 3
-7 -1 2 542.899 52.321 6
6 1 -2 41.379 8.11855 5
6 1 -2 56.6619 13.9236 6
6 1 -2 47.8876 10.0268 1
-6 -1 2 39.5967 7.53338 3
-6 -1 2 30.6945 9.82559 1
-6 -1 2 32.6654 9.11615 2
-6 -1 2 25.5517 10.3862 6
5 1 -2 2187.6 165.325 6
5 1 -2 1867.35 164.836 1
-5 -1 2 2020.1 162.28 3
-5 -1 2 2037.89 163.69 6
-5 -1 2 2129.78 163.899 2
-5 -1 2 2113.34 165.359 1
4 1 -2 184.471 18.5637 5
4 1 -2 180.394 20.1841 1
4 1 -2 228.808 21.2232 6
-4 -1 2 175.893 19.9994 1
-4 -1 2 208.419 19.1576 2
-4 -1 2 206.855 18.7913 5
-4 -1 2 199.667 19.7995 6
-4 -1 2 185.534 17.9701 3
3 1 -2 5184.18 425.496 1
3 1 -2 6230.13 424.904 6
3 1 -2 4989.08 423.387 5
-3 -1 2 5277.83 425.13 1
-3 -1 2 5854.86 423.433 5
-3 -1 2 5151.53 424.251 2
2 1 -2 1368.91 108.745 5
2 1 -2 1296.58 109.533 1
-2 -1 2 1426.3 108.561 5
-2 -1 2 1599.35 109.884 4
-2 -1 2 1217.04 109.541 1
-2 -1 2 1348.5 108.588 3
1 1 -2 6303.98 510.944 5
-1 -1 2 6864.74 510.947 5
0 -1 2 187.71 16.6454 6
0 -1 2 194.696 16.9142 5
0 -1 2 171.854 15.9153 2
0 -1 2 210.483 18.4454 4
-1 1 -2 1609.08 145.609 2
-1 1 -2 1821.32 146.775 5
-1 1 -2 1826.09 146.769 6
-1 1 -2 1817.28 148.194 4
1 -1 2 1947.84 145.949 2
1 -1 2 1913.45 148.446 4
1 -1 2 2156.31 146.977 5
-2 1 -2 1371.36 102.225 5
-2 1 -2 1240.59 101.149 2
-2 1 -2 1135.55 104.188 4
-2 1 -2 1472.89 103.264 6
-2 1 -2 1248.09 102.429 1
2 -1 2 1136.78 103.714 4
2 -1 2 1386.37 102.211 5
2 -1 2 1226.65 101.152 2
2 -1 2 1360.46 102.778 6
-3 1 -2 2791.21 210.568 1
-3 1 -2 3072.53 211.847 6
-3 1 -2 2299.52 212.2 4
-3 1 -2 2778.28 209.167 2
3 -1 2 2665.76 209.162 2
3 -1 2 2832.54 209.723 5
3 -1 2 2249.16 217.533 4
3 -1 2 2655.48 210.731 6
-4 1 -2 226.318 23.0711 1
-4 1 -2 173.027 26.1469 4
-4 1 -2 235.432 24.8837 6
-4 1 -2 225.655 21.4149 2
4 -1 2 232.284 23.8208 6
4 -1 2 267.721 22.1338 2
4 -1 2 207.88 25.6522 4
4 -1 2 258.6 22.5961 5
4 -1 2 279.662 23.7674 1
-5 1 -2 548.941 53.6162 4
-5 1 -2 676.184 51.5336 6
-5 1 -2 671.246 50.1789 1
5 -1 2 549.903 47.6836 2
5 -1 2 513.302 47.4038 5
5 -1 2 488.761 48.6012 1
5 -1 2 515.047 49.9123 6
-6 1 -2 211.639 31.585 4
-6 1 -2 207.087 27.2167 6
-6 1 -2 227.762 22.9958 2
-6 1 -2 197.518 24.1483 1
6 -1 2 229.798 20.4625 3
6 -1 2 236.612 24.8194 1
6 -1 2 257.231 23.8135 2
6 -1 2 242.375 23.5628 5
6 -1 2 253.585 27.378 6
-7 1 -2 654.333 63.303 6
-7 1 -2 619.346 61.766 1
-7 1 -2 684.346 59.8143 2
7 -1 2 706.383 59.1243 5
7 -1 2 754.488 59.9079 2
7 -1 2 724.361 56.167 3
-8 1 -2 106.901 21.7624 6
8 -1 2 123.039 17.7652 5
8 -1 2 127.326 12.1281 3
8 -1 2 87.8371 16.1352 2
-9 1 -2 231.445 34.5903 6
-9 1 -2 237.733 30.5427 1
9 -1 2 318.13 30.0738 2
-10 1 -2 31.5673 13.2536 1
10 -1 2 51.2321 15.8849 2
-10 0 2 212.738 28.7655 1
-10 0 2 198.98 31.9503 6
9 0 -2 -0.3534 2.12656 5
9 0 -2 -2.6372 2.07517 5
-9 0 2 -8.2377 7.47485 1
-9 0 2 6.52895 14.1401 6
8 0 -2 986.4 77.0059 5
8 0 -2 866.275 76.7474 5
-8 0 2 982.292 83.5379 6
-8 0 2 1055.91 83.9798 1
7 0 -2 5.46992 4.2271 5
7 0 -2 1.32135 8.87045 6
7 0 -2 -2.3111 8.2642 1
-7 0 2 -3.5509 8.70074 6
-7 0 2 -1.0262 5.78314 1
-7 0 2 10.7435 6.70202 2
6 0 -2 725.499 70.5962 1
6 0 -2 761.755 70.6124 6
-6 0 2 810.657 65.7939 3
-6 0 2 900.099 69.9217 2
-6 0 2 944.811 71.1586 6
-6 0 2 866.323 71.0213 1
5 0 -2 3.16127 6.02255 6
5 0 -2 1.63394 3.99333 1
5 0 -2 0.22488 2.7774 5
-5 0 2 1.01361 6.23319 6
-5 0 2 1.80702 4.71902 1
-5 0 2 1.34971 3.42248 2
-5 0 2 1.69564 2.30912 3
-4 0 2 1620.39 124.787 6
-4 0 2 1558.03 124.408 2
-4 0 2 1488.03 125.423 1
-4 0 2 1598.57 122.475 3
3 0 -2 -3.2252 3.22708 6
3 0 -2 -0.9293 2.12597 1
3 0 -2 2.74922 1.99475 5
-3 0 2 -1.4271 3.04942 6
-3 0 2 3.04399 1.72856 3
-3 0 2 2.42407 2.91301 1
-3 0 2 0.00201 2.36959 2
2 0 -2 3982.74 293.818 6
2 0 -2 3592.61 292.88 5
2 0 -2 3519.5 294.279 1
-2 0 2 3594.49 294.229 1
-2 0 2 3928.17 292.872 5
-2 0 2 4062.41 293.695 6
1 0 -2 1.59868 1.41529 5
1 0 -2 1.13381 1.15596 1
1 0 -2 -0.1296 2.41336 4
1 0 -2 -0.4378 0.92479 6
-1 0 2 -1.2774 1.21753 5
-1 0 2 -0.4023 1.06403 1
-1 0 2 1.50359 1.05158 6
-1 0 2 0.7682 2.53755 4
0 0 2 565.756 48.0573 4
0 0 2 559.687 47.0028 2
0 0 2 601.89 46.3715 6
0 0 2 639.635 47.2527 5
-1 0 -2 1.20133 2.14284 6
-1 0 -2 -0.0356 1.01703 1
-1 0 -2 -0.8113 1.14801 2
-1 0 -2 0.12627 3.06096 4
1 0 2 2.63831 3.74003 4
1 0 2 -0.229 1.26359 2
1 0 2 -0.063 1.92308 6
1 0 2 0.30244 1.06543 1
-2 0 -2 3883.81 279.165 6
-2 0 -2 3112.3 280.21 4
-2 0 -2 3187.17 277.971 1
-2 0 -2 3604.23 278.45 2
2 0 2 4132.09 279.229 6
2 0 2 3387 280.003 4
2 0 2 3716.03 278.213 1
-3 0 -2 -0.661 2.40094 1
-3 0 -2 -4.2006 4.19776 6
3 0 2 -4.2698 3.52323 6
3 0 2 0.49914 4.77913 4
3 0 2 0.43205 2.92394 2
3 0 2 0.89638 2.47073 1
-4 0 -2 960.137 72.5778 1
-4 0 -2 902.161 73.5011 4
4 0 2 794.775 69.3509 1
4 0 2 869.802 68.3621 3
4 0 2 763.763 71.634 4
4 0 2 840.65 70.657 6
4 0 2 833.3 69.3689 2
-5 0 -2 5.91553 7.57889 6
-5 0 -2 -1.9384 4.00065 1
-5 0 -2 6.29788 10.4546 4
-5 0 -2 -0.1922 4.33978 2
5 0 2 5.77547 4.55173 1
5 0 2 -4.9564 3.56437 2
5 0 2 1.52871 6.13953 6
5 0 2 4.24327 4.03393 3
6 0 2 280.264 26.9138 2
6 0 2 257.059 26.9506 1
6 0 2 280.991 24.456 3
6 0 2 275.667 26.7535 5
6 0 2 249.659 29.6946 6
-7 0 -2 -1.6948 9.22081 6
-7 0 -2 -4.3978 6.3701 1
7 0 2 -2.2541 5.83568 2
7 0 2 1.47555 4.93746 3
7 0 2 6.45991 6.73081 1
7 0 2 -2.7003 6.80503 5
-8 0 -2 287.29 28.6523 1
-8 0 -2 271.777 31.2716 6
8 0 2 220.633 22.6379 3
8 0 2 226.766 26.6631 5
8 0 2 239.488 27.0342 2
-9 0 -2 -6.3356 7.46356 1
-9 0 -2 13.9614 14.6296 6
9 0 2 -4.0402 3.56675 3
9 0 2 0.19438 8.1224 5
9 0 2 -1.382 8.26494 2
9 0 2 -5.4542 8.5824 5
-10 0 -2 219.224 33.2206 6
10 0 2 192.749 24.631 2
10 0 2 137.11 21.632 5
-10 1 2 104.206 25.1599 6
-10 1 2 111.027 21.4026 1
-9 1 2 341.949 38.3481 1
-9 1 2 379.499 42.2207 6
-8 1 2 209.066 25.7558 1
-8 1 2 198.687 29.1184 6
7 -1 -2 601.433 55.0993 6
-7 1 2 596.005 55.0378 1
-7 1 2 611.461 55.7329 6
-7 1 2 619.158 54.5963 2
6 -1 -2 43.1033 11.8079 6
6 -1 -2 38.621 9.722 1
-6 1 2 32.5069 11.2755 6
-6 1 2 46.1242 9.19274 2
-6 1 2 40.3183 10.2021 1
5 -1 -2 1915.73 163.766 1
5 -1 -2 1914.58 163.264 6
-5 1 2 2116.78 164.164 1
-5 1 2 2069.25 163.778 6
-5 1 2 2233.01 162.4 2
4 -1 -2 211.771 20.1592 1
4 -1 -2 194.244 20.1619 6
-4 1 2 196.043 18.6928 2
-4 1 2 197.342 20.23 1
-4 1 2 204.481 20.6786 6
3 -1 -2 5332.16 428.869 6
3 -1 -2 5261.25 429.647 1
-3 1 2 5641.75 426.576 3
-3 1 2 5687.72 429.786 1
-3 1 2 5782.54 429.225 6
-3 1 2 5363.51 428.011 2
2 -1 -2 1353.35 106.412 1
2 -1 -2 1391.03 105.858 6
-2 1 2 1305.56 104.493 5
-2 1 2 1336.31 104.759 3
-2 1 2 1323.21 106.293 1
-2 1 2 1336.94 105.881 6
-1 1 2 6177 492.471 4
-1 1 2 6509.2 491.672 5
0 -1 -2 233.448 17.6401 3
0 -1 -2 235.833 17.6085 4
0 -1 -2 211.24 16.905 2
0 1 2 175.382 17.1048 3
0 1 2 167.041 17.2106 4
0 1 2 177.711 16.7161 2
-1 -1 -2 1624.91 133.923 2
-1 -1 -2 1543.15 134.195 3
-1 -1 -2 1443.46 133.626 1
-1 -1 -2 1476.15 134.004 4
1 1 2 1809.39 133.945 1
1 1 2 1927.02 134.608 3
1 1 2 1972.69 134.513 6
1 1 2 1861.95 133.986 2
1 1 2 1729.49 134.514 4
-2 -1 -2 1329.22 95.9367 6
-2 -1 -2 1173.79 95.2423 3
-2 -1 -2 1130.81 96.1434 4
-2 -1 -2 1228.56 95.2367 2
-2 -1 -2 1051.47 94.9354 1
2 1 2 1184.78 94.9015 1
2 1 2 1310.04 96.0297 6
2 1 2 1089.07 95.3796 4
2 1 2 1211.48 94.9803 2
2 1 2 1264.72 95.2721 3
-3 -1 -2 2470.86 214.996 4
-3 -1 -2 2877.46 213.762 2
-3 -1 -2 2714.27 213.892 1
-3 -1 -2 3053.01 214.777 6
3 1 2 2406.32 214.353 2
3 1 2 2719.16 214.418 6
3 1 2 2798.67 213.209 3
3 1 2 2706.42 213.593 1
-4 -1 -2 237.453 23.2698 2
-4 -1 -2 213.919 23.4221 1
-4 -1 -2 208.886 26.9326 4
-4 -1 -2 271.329 25.7785 6
4 1 2 233.472 23.1716 1
4 1 2 265.889 23.4115 2
4 1 2 277.437 23.0726 3
4 1 2 251.028 25.201 6
-5 -1 -2 592.583 47.7713 1
-5 -1 -2 652.018 52.224 4
5 1 2 518.158 48.7805 6
5 1 2 516.817 45.2684 3
5 1 2 488.515 46.1551 2
5 1 2 473.303 46.3281 1
-6 -1 -2 212.948 30.4242 4
-6 -1 -2 211.422 26.4451 6
-6 -1 -2 197.639 23.8221 1
-6 -1 -2 225.258 23.2884 2
6 1 2 240.387 25.9332 1
6 1 2 224.277 21.6619 3
6 1 2 206.546 26.7896 6
6 1 2 236.037 23.134 2
-7 -1 -2 641.132 61.0843 1
-7 -1 -2 797.048 69.5297 4
-7 -1 -2 623.646 61.9722 6
7 1 2 649.571 59.4033 5
7 1 2 740.892 58.0269 3
7 1 2 711.385 60.1847 2
-8 -1 -2 59.0284 16.7555 6
-8 -1 -2 86.932 16.6144 1
8 1 2 83.994 15.0227 5
8 1 2 109.95 17.4347 2
8 1 2 101.184 13.4544 3
-9 -1 -2 209.565 29.128 1
-9 -1 -2 187.88 32.4457 6
9 1 2 299.589 30.4158 2
9 1 2 282.176 31.7078 5
9 1 2 266.602 25.2727 3
-10 -1 -2 19.276 11.7691 1
10 1 2 1.67072 5.83579 3
10 1 2 19.8683 11.3862 2
10 1 2 37.7452 11.7242 5
-10 2 2 148.811 27.5816 6
-9 2 2 91.209 21.0362 6
-9 2 2 68.3918 15.8595 1
-8 2 2 1091.54 90.9695 1
-8 2 2 1040.35 86.633 2
-8 2 2 1006.17 90.6877 6
-7 2 2 104.483 17.5899 1
-7 2 2 93.3956 14.0014 2
-7 2 2 143.086 21.7092 6
6 -2 -2 605.092 48.7685 6
-6 2 2 471.052 48.4712 6
-6 2 2 501.756 48.2348 1
-6 2 2 522.035 44.8303 2
5 -2 -2 43.8977 10.8742 6
5 -2 -2 33.3222 5.35517 5
-5 2 2 25.769 10.8073 6
-5 2 2 25.8037 8.46692 1
-5 2 2 30.2608 6.58047 2
4 -2 -2 1456.3 139.193 6
-4 2 2 1814.69 137.45 2
-4 2 2 1723.81 136.608 5
-4 2 2 1928.94 140.882 6
-4 2 2 1824.56 140.855 1
-3 2 2 258.594 22.2692 2
-3 2 2 217.13 28.4557 6
-3 2 2 285.058 25.7282 1
-3 2 2 282.511 22.5724 3
-3 2 2 263.557 22.7132 5
2 -2 -2 2924.73 221.556 3
2 -2 -2 2597.07 221.514 5
-2 2 2 2876.33 221.601 5
-2 2 2 2979.66 223.039 6
-2 2 2 2716.1 220.367 2
-2 2 2 2934.7 221.628 3
-1 2 2 191.637 17.5216 5
-1 2 2 174.583 16.6355 3
-1 2 2 175.189 17.6642 6
-1 2 2 175.92 15.1068 2
0 -2 -2 2700.64 190.727 2
0 -2 -2 2757.47 192.488 3
0 2 2 2287.13 190.321 4
0 2 2 2344.4 191.836 5
0 2 2 2210.95 190.22 2
0 2 2 2374.94 191.842 3
1 2 2 26.6953 6.12291 3
1 2 2 19.48 5.34308 1
1 2 2 23.6238 4.73627 4
1 2 2 21.4156 4.61151 2
1 2 2 30.3541 7.37331 5
-2 -2 -2 1527.04 146.734 1
-2 -2 -2 1772.42 147.28 3
-2 -2 -2 1770.25 146.344 2
2 2 2 1747.36 145.086 4
2 2 2 1853.38 147.101 6
2 2 2 1996.04 147.563 5
2 2 2 2114.08 147.471 3
2 2 2 1878.29 147.42 1
2 2 2 2031.95 146.196 2
-3 -2 -2 750.383 69.7775 1
-3 -2 -2 735.29 65.8784 4
-3 -2 -2 904.826 66.9347 3
-3 -2 -2 809.443 65.6553 2
3 2 2 786.957 66.2791 5
3 2 2 812.012 65.2068 2
3 2 2 820.565 65.8179 3
3 2 2 758.462 65.8567 1
3 2 2 786.297 67.1262 6
-4 -2 -2 1819.71 142.463 3
-4 -2 -2 1689.49 142.768 1
-4 -2 -2 1681.3 141.887 2
4 2 2 1759.11 142.058 5
4 2 2 1884.91 141.742 2
4 2 2 1689.63 143.014 6
4 2 2 1761.14 142.303 1
4 2 2 1893.86 141.81 3
-5 -2 -2 69.4835 11.9602 2
-5 -2 -2 75.4466 13.7717 1
-5 -2 -2 77.4011 16.8581 4
-5 -2 -2 88.4931 13.7071 3
5 2 2 42.4196 10.0746 2
5 2 2 64.2064 11.3456 3
5 2 2 67.0135 12.2399 1
5 2 2 59.1135 14.0044 6
5 2 2 61.4869 13.0904 5
-6 -2 -2 350.201 42.0754 4
-6 -2 -2 326.307 36.7835 1
6 2 2 406.555 35.1414 3
6 2 2 382.618 36.7873 5
6 2 2 392.701 35.6333 2
6 2 2 395.287 36.8034 1
-7 -2 -2 315.139 34.8491 1
-7 -2 -2 384.488 43.9034 4
7 2 2 293.159 33.7168 5
7 2 2 354.764 33.7026 2
7 2 2 351.985 32.4077 3
-8 -2 -2 361.085 36.418 1
8 2 2 305.611 33.486 2
8 2 2 328.179 34.2955 5
8 2 2 332.482 32.4226 3
-9 -2 -2 34.3733 13.1491 1
9 2 2 42.2077 11.652 3
9 2 2 47.4379 13.1106 5
9 2 2 41.8827 14.3116 2
-10 -2 -2 218.803 31.0827 1
10 2 2 229.839 28.5748 5
10 2 2 255.494 26.4043 3
-9 3 2 110.962 20.9363 1
-8 3 2 153.922 26.497 6
-8 3 2 176.42 24.1529 1
-8 3 2 155.53 18.1677 2
-7 3 2 339.049 38.1213 6
-7 3 2 343.698 30.5029 2
-7 3 2 338.984 36.208 1
-6 3 2 82.2645 15.705 1
-6 3 2 94.4118 11.0338 2
-6 3 2 91.8052 11.6231 5
-6 3 2 90.775 19.1903 6
5 -3 -2 919.424 68.603 6
5 -3 -2 844.65 64.122 5
-5 3 2 748.487 82.9074 4
-5 3 2 744.211 67.8889 1
-5 3 2 705.842 63.2278 5
-5 3 2 792.83 68.8676 6
-5 3 2 735.949 62.6278 2
4 -3 -2 624.204 56.0087 6
4 -3 -2 588.291 52.0446 3
-4 3 2 617.956 52.9813 5
-4 3 2 652.898 56.7435 1
-4 3 2 644.566 51.1348 2
-4 3 2 674.56 57.9252 4
-4 3 2 719.878 57.6202 6
3 -3 -2 533.175 43.5044 6
3 -3 -2 485.767 41.4108 5
-3 3 2 457.804 40.7142 5
-3 3 2 432.585 37.6053 2
-3 3 2 457.206 43.1345 1
-3 3 2 453.759 39.9165 3
-3 3 2 490.251 37.761 2
-3 3 2 492.668 43.6766 4
-3 3 2 523.844 44.1418 6
2 -3 -2 526.781 40.479 3
2 -3 -2 505.548 41.4021 5
-2 3 2 454.815 42.8903 5
-2 3 2 463.58 42.3715 6
-2 3 2 470.199 40.4647 3
-2 3 2 423.889 36.9495 2
-1 3 2 233.738 23.9368 5
-1 3 2 271.926 23.7579 3
-1 3 2 239.198 24.5765 6
-1 3 2 230.999 19.9003 2
0 -3 -2 507.629 44.9454 5
0 -3 -2 580.359 44.4278 3
0 -3 -2 568.382 41.4395 2
0 3 2 480.246 40.9307 2
0 3 2 513.76 43.8148 3
0 3 2 471.927 40.5327 4
0 3 2 488.821 44.1121 1
0 3 2 454.995 43.8986 5
-1 -3 -2 1180.93 112.561 2
1 3 2 1424.56 115.336 5
1 3 2 1567.92 115.293 3
1 3 2 1539.28 115.997 1
1 3 2 1437.77 112.711 2
-2 -3 -2 1025.95 90.6403 3
-2 -3 -2 1078.74 88.9575 2
2 3 2 1165.07 90.6175 3
2 3 2 1111.45 91.0184 1
2 3 2 1066.16 90.8713 5
2 3 2 1163.11 88.7626 2
-3 -3 -2 422.279 37.9952 1
-3 -3 -2 472.323 37.9362 3
-3 -3 -2 442.902 33.8641 4
-3 -3 -2 479.615 36.5509 2
3 3 2 349.194 36.8287 5
3 3 2 374.165 34.8714 2
3 3 2 313.561 36.059 6
3 3 2 365.894 36.3054 1
3 3 2 366.878 35.9819 3
-4 -3 -2 757.477 61.2202 2
-4 -3 -2 667.825 59.7693 4
-4 -3 -2 773.706 62.4225 3
-4 -3 -2 749.588 63.4502 1
4 3 2 668.292 62.85 6
4 3 2 653.991 61.5391 5
4 3 2 725.929 62.1052 1
4 3 2 735.763 60.1854 2
4 3 2 713.501 61.043 3
-5 -3 -2 635.403 57.7497 2
-5 -3 -2 705.854 59.0307 3
-5 -3 -2 637.594 59.6652 1
-5 -3 -2 638.58 58.5161 4
5 3 2 636.434 57.9295 1
5 3 2 672.265 58.7614 5
5 3 2 672.477 56.9408 2
5 3 2 702.888 57.8426 3
-6 -3 -2 157.239 27.5723 4
6 3 2 193.976 21.7724 2
6 3 2 200.295 24.6718 5
6 3 2 180.516 25.1208 3
-7 -3 -2 280.87 32.6014 1
-7 -3 -2 265.68 45.7845 4
7 3 2 308.184 32.7746 5
7 3 2 284.349 30.7559 2
7 3 2 319.323 30.7042 3
-8 -3 -2 102.618 19.9767 1
8 3 2 109.918 19.1103 2
8 3 2 126.326 18.2348 3
8 3 2 102.799 18.9738 5
-9 -3 -2 245.988 30.5379 1
9 3 2 204.862 28.1622 5
9 3 2 243.419 26.2335 3
-8 4 2 294.086 34.4653 1
-8 4 2 298.92 49.0379 6
-7 4 2 112.346 11.3335 2
-7 4 2 88.5102 22.2215 6
-7 4 2 129.943 20.2412 1
6 -4 -2 278.601 25.6457 5
-6 4 2 208.997 27.131 1
-6 4 2 205.406 22.8515 5
-6 4 2 234.993 33.2556 6
5 -4 -2 167.409 18.0323 3
5 -4 -2 164.293 22.3926 5
-5 4 2 179.354 24.1194 1
-5 4 2 224.925 28.752 4
-5 4 2 181.548 20.1881 5
-5 4 2 243.883 29.1781 6
4 -4 -2 377.309 40.8845 3
-4 4 2 551.542 47.0484 4
-4 4 2 501.484 47.5502 6
-4 4 2 494.008 43.0381 5
-4 4 2 538.426 49.3888 1
3 -4 -2 1069.89 94.1413 5
3 -4 -2 1049.84 92.9598 3
-3 4 2 1189.62 96.7352 6
-3 4 2 1117.04 92.7865 3
-3 4 2 1261.17 95.163 4
-3 4 2 1179.81 93.7512 5
2 -4 -2 1356.07 105.579 5
2 -4 -2 1317.51 104.455 3
-2 4 2 1290.22 104.773 5
-2 4 2 1119.24 104.794 4
-2 4 2 1308.59 106.716 6
-2 4 2 1309.72 104.147 3
1 -4 -2 1120.65 89.1731 3
1 -4 -2 1113.71 90.121 5
-1 4 2 1001.62 85.4558 4
-1 4 2 1137.24 88.8276 3
-1 4 2 1084.74 90.2293 6
-1 4 2 1016.89 85.2371 4
-1 4 2 1072.55 89.2327 5
0 -4 -2 663.804 60.5465 5
0 -4 -2 726.96 61.2113 3
0 -4 -2 723.263 53.7845 2
0 4 2 598.747 65.703 1
0 4 2 605.33 58.0532 5
0 4 2 643.758 53.4198 2
0 4 2 683.404 57.6205 3
0 4 2 654.595 59.1401 6
-1 -4 -2 550.995 49.6086 3
-1 -4 -2 574.225 46.3856 2
-1 -4 -2 493.168 50.722 5
1 4 2 589.988 46.0111 2
1 4 2 564.469 49.2812 3
1 4 2 537.007 50.2349 5
-2 -4 -2 601.234 57.0583 3
-2 -4 -2 589.344 53.6345 2
2 4 2 631.636 56.7646 1
2 4 2 691.06 56.4375 3
2 4 2 690.031 57.9764 5
2 4 2 649.874 53.236 2
-3 -4 -2 438.133 37.1991 2
3 4 2 382.259 38.6229 1
3 4 2 395.15 35.9036 2
-4 -4 -2 754.715 73.1415 2
4 4 2 888.139 73.0033 2
4 4 2 950.833 75.3248 3
4 4 2 912.636 76.2861 5
-5 -4 -2 323.232 36.2008 1
-5 -4 -2 316.568 29.7213 4
5 4 2 342.605 32.4439 2
5 4 2 354.016 34.642 3
5 4 2 343.642 36.2412 5
-6 -4 -2 222.966 27.534 1
6 4 2 203.387 28.0779 5
6 4 2 196.699 24.1523 2
6 4 2 198.617 25.2612 3
-7 -4 -2 125.169 23.3657 1
7 4 2 175.538 25.9856 5
7 4 2 127.297 20.9746 3
7 4 2 140.434 20.1977 2
-8 -4 -2 109.667 22.6665 1
8 4 2 95.8077 18.1859 2
8 4 2 108.028 20.1382 5
8 4 2 89.0248 20.1048 3
-7 5 2 60.0168 11.7092 5
-7 5 2 60.1684 21.173 6
6 -5 -2 196.48 26.494 5
-6 5 2 208.709 29.676 1
-6 5 2 196.117 23.4198 5
5 -5 -2 139.102 21.1886 5
5 -5 -2 134.653 17.0087 3
-5 5 2 115.221 18.9644 5
-5 5 2 127.74 20.9319 1
-5 5 2 100.575 22.8745 6
4 -5 -2 130.549 21.6192 3
4 -5 -2 152.674 24.7129 5
-4 5 2 177.821 22.4634 5
-4 5 2 118.859 23.8402 6
-4 5 2 157.493 24.8238 4
-4 5 2 212.649 25.4297 1
3 -5 -2 156.29 20.4457 3
-3 5 2 176.01 27.083 6
-3 5 2 186.427 24.9217 4
-3 5 2 172.381 20.461 3
-3 5 2 169.475 22.9532 5
-2 5 2 69.3772 13.2146 4
-2 5 2 74.045 16.687 5
-2 5 2 59.8454 10.5801 4
-2 5 2 92.9014 20.0391 6
-2 5 2 45.7613 12.3323 3
-1 5 2 505.884 45.8976 5
-1 5 2 433.298 45.9934 6
0 -5 -2 153.956 14.9417 2
0 5 2 170.285 24.7381 5
0 5 2 169.688 22.0782 3
0 5 2 177.755 24.835 6
-1 -5 -2 313.119 28.0339 2
1 5 2 316.404 35.6026 5
1 5 2 328.129 34.0667 3
-2 -5 -2 406.649 36.2033 2
2 5 2 388.839 39.6412 3
2 5 2 405.502 35.8432 2
2 5 2 434.888 42.8931 5
-3 -5 -2 96.0908 14.3451 2
3 5 2 105.409 14.2209 2
3 5 2 78.7821 16.4482 3
3 5 2 83.0344 18.4761 5
4 5 2 227.648 26.4578 3
4 5 2 205.533 28.8034 5
5 5 2 112.446 21.1232 5
5 5 2 125.153 17.9102 2
5 5 2 105.835 19.5453 3
6 5 2 73.4543 14.6163 2
6 5 2 50.8237 15.7827 5
6 5 2 43.0199 14.1295 3
-5 6 2 51.1246 13.1087 5
-4 6 2 16.6957 12.0273 1
-4 6 2 2.26162 14.2589 6
-4 6 2 -2.7651 9.42096 5
-3 6 2 446.939 48.1829 6
-3 6 2 366.13 42.1309 4
-3 6 2 371.01 40.3676 5
-2 6 2 25.4209 13.0768 5
-2 6 2 21.2494 15.5997 6
-2 6 2 32.1935 12.5858 3
-1 6 2 309.123 32.9118 3
-1 6 2 280.59 37.0222 6
-1 6 2 273.665 35.4062 5
0 6 2 19.6322 15.2015 6
0 6 2 23.2407 11.9032 3
0 6 2 10.8869 13.5252 5
1 6 2 107.412 19.3037 3
1 6 2 76.6327 23.0435 6
1 6 2 102.968 21.4132 5
2 6 2 33.3483 19.2832 6
2 6 2 30.5929 16.1763 3
2 6 2 19.9554 19.3914 5
-3 -6 -2 96.2077 15.51 2
3 6 2 115.958 20.4997 3
3 6 2 110.221 21.1521 5
4 6 -3 172.958 30.5787 5
3 6 -3 71.5639 19.5872 5
3 6 -3 52.4316 20.027 6
2 6 -3 298.391 45.5413 6
2 6 -3 272.619 37.6043 5
1 6 -3 28.5718 25.0891 5
-1 -6 3 -5.4821 3.48948 2
-1 6 -3 103.243 16.9177 4
-1 6 -3 123.94 25.3887 6
-1 6 -3 114.937 26.6276 5
-2 6 -3 236.322 33.8299 4
-2 6 -3 318.035 41.3204 5
-2 6 -3 314.709 38.1262 6
-3 6 -3 17.0045 15.7252 6
-4 6 -3 160.704 29.4166 5
7 5 -3 130.582 24.4791 5
6 5 -3 198.612 32.3614 5
5 5 -3 263.934 34.7551 5
4 5 -3 119.951 22.8705 5
3 5 -3 224.95 31.321 5
-3 -5 3 193.216 23.6967 2
2 5 -3 67.2524 17.8574 5
2 5 -3 77.2677 19.0326 6
1 5 -3 743.919 66.2206 5
-1 -5 3 683.155 57.4986 2
0 5 -3 173.507 25.6009 6
0 5 -3 198.642 26.4381 5
0 -5 3 113.551 11.9157 2
0 -5 3 123.399 12.3791 2
-1 5 -3 363.728 39.8257 6
-1 5 -3 357.789 38.65 5
-1 5 -3 344.484 34.3085 4
-2 5 -3 81.5416 19.3131 6
-2 5 -3 117.301 20.3948 4
-2 5 -3 76.9636 17.8214 5
-3 5 -3 315.816 36.0521 4
-3 5 -3 301.89 35.3268 5
-3 5 -3 312.585 37.1825 6
-4 5 -3 34.6197 13.8275 5
-4 5 -3 35.8833 17.8293 6
-4 5 -3 41.635 13.6314 1
-5 5 -3 107.259 19.4427 5
-5 5 -3 134.71 29.5954 6
-6 5 -3 110.689 21.0443 1
-6 5 -3 91.9642 18.6845 5
-6 5 -3 107.459 28.0446 6
-7 5 -3 114.604 20.1817 5
9 4 -3 58.7638 15.4573 5
8 4 -3 177.541 26.2018 5
-8 -4 3 265.88 33.5308 4
-8 -4 3 169.454 24.6272 4
-8 -4 3 205.538 29.4296 1
7 4 -3 63.1121 16.8271 5
-7 -4 3 94.0901 16.5899 4
-7 -4 3 97.235 19.6674 1
-7 -4 3 130.952 22.8484 4
6 4 -3 359.979 38.9649 5
-6 -4 3 365.464 36.4689 4
-6 -4 3 381.801 41.6885 1
5 4 -3 420.023 43.6058 5
-5 -4 3 457.948 46.2206 1
4 4 -3 348.117 44.6853 5
-4 -4 3 451.531 45.6642 1
-4 -4 3 448.089 40.5624 2
-4 -4 3 506.54 41.3095 4
3 4 -3 330.498 34.1801 5
-3 -4 3 277.665 27.9641 2
-3 -4 3 293.504 29.8238 4
2 4 -3 431.202 46.137 1
2 4 -3 481.305 46.3896 5
-2 -4 3 398.648 46.1162 3
-2 -4 3 547.267 43.164 4
-2 -4 3 548.361 48.7559 5
-2 -4 3 469.202 41.4201 2
1 4 -3 473.074 47.7768 5
1 4 -3 526.851 43.7731 4
1 4 -3 518.421 47.8544 6
1 4 -3 489.362 47.4925 1
-1 -4 3 515.616 46.5715 3
-1 -4 3 524.7 47.3219 5
-1 -4 3 467.945 42.6447 2
-1 -4 3 573.815 45.4929 4
0 4 -3 231.456 27.237 6
0 4 -3 171.682 26.7725 5
0 4 -3 225.449 25.5017 1
0 -4 3 256.116 26.6719 5
0 -4 3 223.168 20.4518 2
0 -4 3 290.038 26.1691 4
0 -4 3 224.356 20.342 2
0 -4 3 222.916 24.1697 3
-1 4 -3 286.726 33.0264 6
-1 4 -3 280.426 30.9754 4
-1 4 -3 278.22 33.0681 5
1 -4 3 307.715 25.3032 2
1 -4 3 354.79 33.2961 5
1 -4 3 280.021 30.0263 3
1 -4 3 349.228 32.1444 4
1 -4 3 311.764 25.4095 2
-2 4 -3 108.442 17.713 5
-2 4 -3 84.1481 16.7566 4
-2 4 -3 82.6638 17.3512 6
-3 4 -3 259.814 30.6432 6
-3 4 -3 270.879 27.8545 5
-3 4 -3 259.927 31.1058 4
3 -4 3 231.543 27.264 5
3 -4 3 171.634 25.0932 3
-4 4 -3 448.593 44.761 5
-4 4 -3 426.634 50.0879 4
-4 4 -3 500.56 48.728 6
-4 4 -3 455.258 45.96 1
4 -4 3 530.816 42.9009 3
-5 4 -3 135.524 24.5397 6
-5 4 -3 94.452 18.4346 1
-5 4 -3 139.132 21.951 5
5 -4 3 122.72 16.0742 3
-6 4 -3 137.798 21.8351 5
-6 4 -3 186.269 28.6614 6
-6 4 -3 121.626 19.8847 1
6 -4 3 101.661 15.4992 3
-7 4 -3 205.71 23.1144 2
-7 4 -3 235.807 31.5 1
-7 4 -3 274.006 34.8279 6
10 3 -3 51.4985 12.8316 5
-10 -3 3 13.5062 14.7091 4
9 3 -3 47.3639 13.2858 5
-9 -3 3 57.4192 16.3198 1
-9 -3 3 52.6516 15.2348 4
8 3 -3 129.505 20.9081 5
-8 -3 3 135.746 22.9672 1
7 3 -3 263.706 30.1858 5
-7 -3 3 300.573 32.9974 1
-7 -3 3 264.772 31.0932 4
6 3 -3 608.9 52.9619 5
-6 -3 3 586.048 52.5125 4
-6 -3 3 595.12 52.2976 5
-6 -3 3 622.871 55.5346 1
-6 -3 3 502.271 50.8338 3
5 3 -3 310.512 30.7806 5
5 3 -3 310.419 31.4966 6
-5 -3 3 272.49 31.1711 1
-5 -3 3 257.061 27.3773 3
-5 -3 3 260.851 27.8829 2
-5 -3 3 264.593 28.6402 5
-5 -3 3 283.43 28.6167 4
4 3 -3 251.44 26.1716 6
4 3 -3 229.05 26.3422 5
4 3 -3 257.302 26.1857 1
-4 -3 3 241.076 27.7618 1
-4 -3 3 242.763 25.249 4
-4 -3 3 225.058 23.8797 2
-4 -3 3 222.041 24.9285 5
3 3 -3 294.136 29.9536 1
3 3 -3 251.244 30.2045 5
-3 -3 3 290.141 28.4626 3
-3 -3 3 279.243 30.8784 1
-3 -3 3 326.527 29.7378 5
-3 -3 3 329.138 29.3542 4
-3 -3 3 301.305 27.4704 2
2 3 -3 572.154 55.3486 5
2 3 -3 644.661 55.9047 1
-2 -3 3 611.678 52.8437 2
-2 -3 3 681.434 55.2415 5
-2 -3 3 731.065 54.9877 4
-2 -3 3 577.085 54.1962 3
1 3 -3 298.07 31.286 1
1 3 -3 305.22 29.4551 4
1 3 -3 321.879 31.5148 6
1 3 -3 316.007 31.983 5
-1 -3 3 327.264 28.2024 2
-1 -3 3 412.378 32.4717 5
-1 -3 3 328.766 30.4714 3
0 3 -3 2604.11 194.141 4
0 3 -3 2565.56 195.468 5
0 3 -3 2401.46 194.327 6
0 3 -3 2443.05 195.266 1
0 -3 3 2364.92 194.453 4
0 -3 3 2314.98 194.297 5
-1 3 -3 376.288 35.7281 5
-1 3 -3 357.863 35.6301 4
-1 3 -3 355.777 35.1885 6
1 -3 3 384.47 34.2886 3
1 -3 3 423.719 37.0292 4
1 -3 3 400.479 35.3674 5
1 -3 3 361.236 31.2709 2
-2 3 -3 1542.24 112.529 4
2 -3 3 1410.69 110.23 5
2 -3 3 1208.26 106.2 2
2 -3 3 1307.69 108.899 3
2 -3 3 1306.42 111.167 4
2 -3 3 1373.75 110.827 6
-3 3 -3 192.342 26.3034 4
-3 3 -3 198.957 24.9873 6
-3 3 -3 216.159 22.7397 5
3 -3 3 178.014 19.5357 3
3 -3 3 205.761 22.8428 5
3 -3 3 182.729 24.7309 4
3 -3 3 199.474 23.5217 6
3 -3 3 188.285 17.3668 2
-4 3 -3 941.336 75.1963 2
-4 3 -3 769.088 82.5234 4
-4 3 -3 943.729 78.7263 5
-4 3 -3 956.009 80.4279 1
-4 3 -3 996.574 81.6355 6
4 -3 3 928.844 75.2204 2
4 -3 3 1001.51 79.0656 5
4 -3 3 1049.83 83.8219 4
4 -3 3 888.889 76.5536 3
-5 3 -3 165.479 21.3211 1
-5 3 -3 138.55 23.7195 6
-5 3 -3 146.637 20.6179 5
-5 3 -3 136.519 14.4529 2
-6 3 -3 342.303 37.7373 6
-6 3 -3 362.375 30.6569 2
-6 3 -3 344.144 35.5519 1
6 -3 3 346.763 30.505 3
6 -3 3 343.105 33.8933 5
6 -3 3 320.45 30.3491 2
-7 3 -3 126.949 23.5093 6
-7 3 -3 89.0289 17.8516 1
-7 3 -3 103.364 13.0392 2
7 -3 3 83.2132 11.5731 3
7 -3 3 105.804 14.3161 2
7 -3 3 141.982 19.048 5
-8 3 -3 111.992 15.8231 2
-8 3 -3 115.335 21.1565 1
-8 3 -3 136.556 24.7739 6
8 -3 3 99.3015 15.6066 2
-10 -2 3 23.2859 18.5615 1
9 2 -3 205.854 26.0243 5
-9 -2 3 308.616 32.9622 1
-9 -2 3 249.933 25.1265 3
8 2 -3 140.203 18.9836 5
-8 -2 3 142.63 21.7868 1
7 2 -3 189.773 24.3737 5
-7 -2 3 304.162 29.6559 1
-7 -2 3 236.976 23.7083 3
6 2 -3 95.6305 14.5055 5
-6 -2 3 47.1728 10.9108 2
-6 -2 3 67.8458 14.749 1
-6 -2 3 69.9498 10.9046 3
5 2 -3 675.369 62.9553 5
5 2 -3 795.958 65.0007 6
-5 -2 3 725.641 63.4043 2
-5 -2 3 697.098 62.3738 3
-5 -2 3 744.756 64.9142 4
-5 -2 3 829.365 63.1087 5
-5 -2 3 801.686 66.1639 1
4 2 -3 103.501 15.1407 1
4 2 -3 87.8031 15.5447 5
4 2 -3 101.914 16.4316 6
-4 -2 3 150.294 14.6924 3
-4 -2 3 162.444 18.0298 1
-4 -2 3 148.608 15.7643 5
-4 -2 3 129.044 14.7218 2
3 2 -3 1787.15 140.339 1
3 2 -3 1693.55 139.258 5
-3 -2 3 1903.46 138.741 5
-3 -2 3 1732.87 138.325 2
-3 -2 3 1635.98 140.329 1
-3 -2 3 1642.81 138.461 3
-3 -2 3 1796.25 139.007 4
2 2 -3 867.122 73.5187 1
2 2 -3 951.24 72.7326 4
-2 -2 3 971.076 73.263 4
-2 -2 3 779.053 71.9931 3
-2 -2 3 869.547 72.5279 5
1 2 -3 3977.82 341.15 1
1 2 -3 4597.42 343.07 5
1 2 -3 4427.38 340.678 4
-1 -2 3 4840.01 341.738 4
-1 -2 3 3973.78 340.439 5
0 2 -3 1139.7 85.2413 6
0 2 -3 1097.79 85.9376 1
0 2 -3 1089.31 92.991 5
0 -2 3 979.187 86.2706 4
0 -2 3 974.736 85.1364 5
-1 2 -3 1080.91 92.9324 6
-1 2 -3 1022.86 96.1004 4
-1 2 -3 1143.44 94.8469 5
1 -2 3 1204.47 93.2345 6
1 -2 3 1275.9 95.7111 4
1 -2 3 1234.01 93.2156 5
1 -2 3 1114.95 91.1898 2
2 -2 3 105.692 17.6927 4
2 -2 3 116.503 14.2027 5
2 -2 3 111.374 14.7688 6
2 -2 3 117.083 11.4226 2
-3 2 -3 1303.79 109.378 1
-3 2 -3 1356.97 109.771 6
-3 2 -3 1271.45 106.433 2
-3 2 -3 1358.54 108.624 5
3 -2 3 1348.43 106.79 2
3 -2 3 1299.16 111.094 4
3 -2 3 1383.78 109.738 6
3 -2 3 1464.71 109.038 5
-4 2 -3 416.269 33.2711 2
-4 2 -3 305.701 39.1694 4
-4 2 -3 409.986 36.2107 1
-4 2 -3 431.973 35.9233 5
-4 2 -3 428.234 37.7556 6
4 -2 3 396.791 33.3612 2
4 -2 3 391.021 35.2631 5
4 -2 3 354.962 36.2983 6
4 -2 3 321.668 37.9319 4
-5 2 -3 863.195 75.8708 1
-5 2 -3 889.932 77.4666 6
-5 2 -3 848.297 81.4163 4
-5 2 -3 906.25 73.3749 2
5 -2 3 957.535 75.0588 5
5 -2 3 844.19 76.6232 6
5 -2 3 936.532 81.1798 4
5 -2 3 936.519 73.7339 2
-6 2 -3 194.683 18.5417 2
-6 2 -3 192.202 25.9266 6
-6 2 -3 198.716 21.8636 1
6 -2 3 129.457 19.3688 5
6 -2 3 137.908 17.9837 2
-7 2 -3 630.595 58.8174 6
-7 2 -3 628.309 56.6642 1
-7 2 -3 591.471 53.1199 2
7 -2 3 622.633 53.2748 2
7 -2 3 619.993 50.8105 3
-8 2 -3 22.8626 10.956 1
-8 2 -3 22.3214 14.0789 6
8 -2 3 21.2943 10.0453 5
8 -2 3 13.2427 8.39953 2
-9 2 -3 193.697 34.9582 1
-9 2 -3 155.514 28.7821 6
9 -2 3 182.04 22.3177 2
-10 -1 3 62.0754 17.6454 6
-10 -1 3 74.1776 17.3924 1
-9 -1 3 22.0463 10.8545 1
-9 -1 3 37.451 13.5316 6
8 1 -3 458.227 46.9459 5
-8 -1 3 530.412 44.5201 3
-8 -1 3 557.905 49.8796 6
-8 -1 3 589.729 51.4315 1
7 1 -3 281.642 31.1529 6
7 1 -3 230.125 24.6458 5
-7 -1 3 270.08 28.6093 6
-7 -1 3 295.362 34.4892 1
-7 -1 3 270.965 24.3215 3
6 1 -3 2212.58 167.519 6
6 1 -3 1928.53 163.515 5
6 1 -3 2192.54 168.316 1
-6 -1 3 2044.76 165.583 6
-6 -1 3 1903.71 165.392 2
-6 -1 3 2047.36 163.654 3
-6 -1 3 2224.02 168.027 1
5 1 -3 29.1501 8.49472 1
5 1 -3 29.0241 9.73192 6
5 1 -3 29.1577 7.14012 5
-5 -1 3 31.5588 7.535 2
-5 -1 3 42.6145 9.38374 6
-5 -1 3 43.2993 8.29869 3
-5 -1 3 42.0084 7.5064 5
-5 -1 3 33.4764 9.14631 1
4 1 -3 905.24 76.5123 1
4 1 -3 910.194 74.3584 5
4 1 -3 932.161 75.6578 6
-4 -1 3 946.572 76.5853 1
-4 -1 3 927.408 75.131 2
-4 -1 3 871.213 74.0563 3
-4 -1 3 958.607 73.9348 5
3 1 -3 664.533 49.9114 6
3 1 -3 555.751 48.9061 5
3 1 -3 547.124 49.9984 1
-3 -1 3 634.14 51.245 4
-3 -1 3 567.722 50.4117 1
-3 -1 3 590.862 48.7704 3
-3 -1 3 618.106 48.6856 5
2 1 -3 1219.62 116.02 5
-2 -1 3 1587.38 117.411 4
-2 -1 3 1599.97 116.191 5
-2 -1 3 1477.68 117.289 1
1 1 -3 154.15 16.643 1
1 1 -3 181.525 17.9657 4
1 1 -3 171.662 17.1439 5
-1 -1 3 177.971 17.1347 1
-1 -1 3 205.257 17.0369 5
-1 -1 3 218.871 18.9757 4
0 1 -3 4209.52 342 1
0 1 -3 4298.45 341.549 6
0 1 -3 4802.96 343.78 4
0 1 -3 4455.26 342.531 5
0 -1 3 4430.03 341.587 6
0 -1 3 4507.16 342.268 5
0 -1 3 3896.07 341.475 2
0 -1 3 4570.94 343.955 4
-1 1 -3 637.603 48.8103 5
-1 1 -3 623.726 50.8057 4
-1 1 -3 581.681 47.4602 2
-1 1 -3 594.902 48.2622 6
1 -1 3 591.557 48.1897 6
1 -1 3 563.217 48.3323 5
1 -1 3 543.626 47.4416 2
1 -1 3 570.762 50.9485 4
-2 1 -3 3339.63 263.534 4
-2 1 -3 3667.23 261.306 6
-2 1 -3 3228.91 259.694 2
-2 1 -3 3734.42 261.15 5
-2 1 -3 3316.46 260.534 1
2 -1 3 2815.26 262.232 4
2 -1 3 3357.81 260.874 6
2 -1 3 3190.87 259.776 2
-3 1 -3 27.6594 6.59602 1
-3 1 -3 23.0529 10.9323 4
-3 1 -3 25.4106 7.98659 6
-3 1 -3 33.1498 6.32666 2
3 -1 3 50.6845 9.66444 6
3 -1 3 49.3064 8.43958 5
3 -1 3 54.1346 12.5046 4
3 -1 3 47.0546 7.0895 2
-4 1 -3 2260.5 183.666 6
-4 1 -3 2135.82 182.548 1
-4 1 -3 2262.66 181.666 2
4 -1 3 2144.53 185.139 4
4 -1 3 2511.97 182.078 2
4 -1 3 2316.62 183.613 6
4 -1 3 2494.72 182.503 5
-5 1 -3 184.498 21.7142 6
-5 1 -3 180.872 17.5033 2
-5 1 -3 171.912 18.6807 1
5 -1 3 154.9 17.1957 2
5 -1 3 139.955 17.8643 5
5 -1 3 142.51 21.9515 6
5 -1 3 131.292 22.06 4
-6 1 -3 624.41 66.4103 2
-6 1 -3 645.367 87.1388 4
-6 1 -3 713.744 66.4908 6
-6 1 -3 692.291 64.5694 1
6 -1 3 816.752 64.1813 5
6 -1 3 809.701 62.5347 3
6 -1 3 780.73 78.4526 6
6 -1 3 788.448 65.2243 1
6 -1 3 837.261 64.3812 2
-7 1 -3 23.1147 12.4372 2
-7 1 -3 7.62226 12.3113 6
7 -1 3 22.4206 9.10126 2
7 -1 3 24.4184 9.55906 3
7 -1 3 36.9309 9.96907 5
-8 1 -3 294.012 38.8771 6
-8 1 -3 323.094 35.8142 1
8 -1 3 394.206 35.6719 5
8 -1 3 380.375 34.8985 2
-9 1 -3 70.0805 15.1251 1
-9 1 -3 76.2536 23.0783 6
9 -1 3 53.2967 13.358 2
-10 1 -3 158.289 24.5858 1
10 -1 3 175.165 23.8375 2
-11 0 3 315.207 40.6814 6
-10 0 3 3.71006 10.4905 1
-10 0 3 2.70516 14.6612 6
-9 0 3 455.895 47.9719 6
-9 0 3 487.645 47.2621 1
-8 0 3 12.961 13.1441 6
-8 0 3 -1.0418 7.54605 1
7 0 -3 900.045 69.1834 6
-7 0 3 764.791 67.6893 6
-7 0 3 673.914 61.6968 3
-7 0 3 841.213 68.5626 1
-7 0 3 797.498 66.6371 2
6 0 -3 4.006 7.64386 6
-6 0 3 2.61699 5.58432 1
-6 0 3 2.74727 2.84597 3
-6 0 3 0.34515 7.41212 6
-6 0 3 2.10453 5.07737 2
4 0 -3 -1.7421 2.98929 1
4 0 -3 1.19812 4.5267 6
4 0 -3 -0.1117 2.22879 5
-4 0 3 -5.6739 2.86173 1
-4 0 3 3.07912 3.04802 2
-4 0 3 -2.9243 4.15158 6
-4 0 3 0.41778 2.16196 3
3 0 -3 5615.8 462.562 1
3 0 -3 5892.32 461.642 6
3 0 -3 5930.84 460.374 5
-3 0 3 5612.32 462.336 1
-3 0 3 5973.79 460.27 5
-3 0 3 6630.25 461.729 6
2 0 -3 -0.4873 2.06565 6
2 0 -3 1.17659 2.09165 1
2 0 -3 -1.1755 1.97528 5
-2 0 3 1.07142 1.89372 5
-2 0 3 -0.6834 1.98641 6
-2 0 3 -1.633 1.62465 1
-2 0 3 6.72722 4.76225 4
1 0 -3 4456.34 336.539 4
1 0 -3 4349.23 334.842 5
1 0 -3 4328.34 334.561 1
-1 0 3 4334.52 334.847 5
-1 0 3 4202.01 334.605 1
-1 0 3 4201.82 336.375 4
0 0 -3 2.14566 0.89018 1
0 0 -3 -0.7938 1.37912 2
0 0 -3 1.47081 1.70139 6
0 0 -3 1.86867 3.80907 4
0 0 3 -1.1484 1.51506 6
0 0 3 1.32607 3.68949 4
0 0 3 -1.1644 2.24311 5
0 0 3 2.56535 2.22588 2
-1 0 -3 3885.43 321.018 1
-1 0 -3 4459.86 322.265 6
-1 0 -3 4181.65 324.181 4
1 0 3 4140.7 322.605 5
1 0 3 4085.28 324.493 4
1 0 3 4105.75 321.981 6
-2 0 -3 -2.3198 3.519 6
-2 0 -3 0.73805 2.01979 1
-2 0 -3 1.71474 2.35463 2
-2 0 -3 -0.9694 5.80963 4
2 0 3 4.12325 2.79209 2
2 0 3 3.70026 3.8227 6
2 0 3 -3.2023 5.74329 4
2 0 3 1.21413 1.96388 1
-3 0 -3 1488.17 144.245 4
-3 0 -3 1633.97 142.045 6
-3 0 -3 1715.57 141.44 2
3 0 3 2035.45 141.476 1
3 0 3 2054.95 142.783 6
-4 0 -3 -3.034 3.49892 1
-4 0 -3 2.91328 6.77783 6
-4 0 -3 5.97457 8.59871 4
-4 0 -3 4.33447 3.50864 2
4 0 3 0.36812 3.01516 1
4 0 3 -4.7404 6.8106 4
4 0 3 -3.0054 3.78253 2
4 0 3 3.0598 6.23227 6
4 0 3 5.17433 3.96117 3
-5 0 -3 2580.59 187.517 6
-5 0 -3 2295.49 191.046 4
-5 0 -3 2664.05 186.354 2
-5 0 -3 2366.36 185.838 1
5 0 3 2186.25 185.358 3
5 0 3 2388.35 185.631 2
5 0 3 2073.19 188.016 4
5 0 3 2229.43 185.44 1
5 0 3 2314.28 187.278 6
5 0 3 2298.01 185.33 5
-6 0 -3 -4.5932 8.89583 6
-6 0 -3 -4.5278 4.55496 1
-6 0 -3 6.85183 14.1856 4
-6 0 -3 1.90529 4.67542 2
6 0 3 7.63523 6.9837 5
6 0 3 2.36067 6.18811 2
6 0 3 -4.7105 3.99376 3
6 0 3 8.41729 5.71229 1
6 0 3 6.79313 8.77148 6
-7 0 -3 553.331 54.609 6
-7 0 -3 484.666 51.5703 1
7 0 3 648.345 54.5541 2
7 0 3 626.002 49.5101 3
7 0 3 662.598 64.8986 1
-8 0 -3 4.95998 7.10108 1
-8 0 -3 3.82097 12.8279 6
8 0 3 -4.435 8.79711 5
8 0 3 -8.4656 7.08 2
8 0 3 -8.522 4.77765 3
-9 0 -3 251.914 31.7088 1
9 0 3 349.962 32.7868 2
-10 0 -3 1.88513 9.90458 1
10 0 3 -9.9391 9.17511 5
10 0 3 -10.852 9.20427 2
10 0 3 -12.009 5.1995 3
-11 1 3 19.6541 26.2807 6
-10 1 3 69.3978 20.2102 6
-10 1 3 84.0421 18.1519 1
-9 1 3 38.8092 15.5852 6
-9 1 3 56.1188 14.6365 1
-8 1 3 702.87 60.1715 1
-8 1 3 586.383 60.7584 6
7 -1 -3 260.458 31.3279 6
-7 1 3 326.116 32.2728 1
-7 1 3 295.638 28.8948 2
-7 1 3 322.293 33.2926 6
6 -1 -3 2041.88 176.9 1
6 -1 -3 2161.76 176.379 6
-6 1 3 2147.92 174.801 2
-6 1 3 2377.49 176.971 6
-6 1 3 2298.17 177.343 1
5 -1 -3 20.6585 8.38005 6
5 -1 -3 31.568 8.26256 1
-5 1 3 41.1489 9.31712 1
-5 1 3 35.5011 9.57451 6
-5 1 3 46.5037 7.95483 2
4 -1 -3 940.91 78.3174 1
-4 1 3 981.481 78.4287 1
-4 1 3 944.684 74.4594 3
-4 1 3 922.901 76.5817 2
-4 1 3 979.604 77.7007 6
3 -1 -3 548.564 45.6944 6
3 -1 -3 547.693 46.7651 1
-3 1 3 553.351 46.0299 6
-3 1 3 596.383 46.8521 1
-3 1 3 537.907 44.2321 3
2 -1 -3 1092.46 95.7555 1
2 -1 -3 1076.77 94.9247 6
-2 1 3 1462.73 96.3686 1
-1 1 3 183.089 16.3494 6
-1 1 3 204.021 16.6638 1
-1 1 3 186.787 18.0677 4
-1 1 3 190.799 16.6767 3
-1 1 3 180.953 16.5303 2
0 -1 -3 4097.93 310.073 4
0 -1 -3 3950.97 309.201 2
0 1 3 3886.11 309.133 2
0 1 3 4070.2 310.343 4
0 1 3 3864.13 309.487 3
-1 -1 -3 560.4 42.8632 2
-1 -1 -3 553.131 41.9433 1
-1 -1 -3 526.636 43.7915 4
1 1 3 456.383 43.6154 4
1 1 3 513.999 42.9726 3
1 1 3 562.467 43.1344 6
1 1 3 496.664 41.6896 1
1 1 3 483.48 42.3642 2
-2 -1 -3 3487.72 249.638 6
-2 -1 -3 2978.89 250.311 4
-2 -1 -3 3075.76 248.491 1
-2 -1 -3 3319.44 249.26 2
2 1 3 3175.41 248.197 1
2 1 3 3302.4 249.672 6
2 1 3 2907.08 249.875 4
2 1 3 3135.28 249.057 3
2 1 3 3261.21 248.959 2
-3 -1 -3 37.3794 9.68628 6
3 1 3 50.1979 10.1448 4
3 1 3 51.5969 7.68955 2
3 1 3 47.2427 9.59236 6
3 1 3 46.6709 7.13629 1
-4 -1 -3 2313.71 175.901 6
-4 -1 -3 2178.42 174.787 2
-4 -1 -3 1837.32 176.855 4
4 1 3 2299.72 174.587 2
4 1 3 1947.84 175.241 4
4 1 3 2330.74 176.258 6
4 1 3 2265.44 174.311 1
4 1 3 2440.59 174.326 3
-5 -1 -3 149.549 17.7683 1
-5 -1 -3 184.057 21.4988 6
-5 -1 -3 153.04 25.4626 4
5 1 3 146.186 17.1276 2
5 1 3 157.193 16.508 3
5 1 3 136.493 16.5904 1
5 1 3 113.419 19.4198 6
-6 -1 -3 750.466 72.5561 4
-6 -1 -3 676.077 62.7991 6
-6 -1 -3 659.574 63.9005 2
-6 -1 -3 672.025 61.7614 1
6 1 3 742.627 62.224 1
6 1 3 774.048 60.3032 3
-7 -1 -3 28.4518 9.82794 1
-7 -1 -3 13.0538 12.1965 6
7 1 3 18.5581 7.48532 3
7 1 3 15.28 8.19644 2
-8 -1 -3 297.587 35.3124 1
-8 -1 -3 318.486 38.3778 6
8 1 3 368.929 35.3264 2
8 1 3 383.35 32.7328 3
-9 -1 -3 49.5543 19.0183 6
-9 -1 -3 41.9783 13.3005 1
9 1 3 55.409 13.3535 5
9 1 3 62.8089 11.819 3
-10 -1 -3 143.052 23.6004 1
10 1 3 165.377 23.1985 5
-10 2 3 14.7385 13.8252 1
-10 2 3 48.9244 20.7651 6
-9 2 3 255.36 35.8391 6
-9 2 3 312.506 33.9583 1
-8 2 3 109.13 14.8899 2
-8 2 3 97.546 18.2958 1
-8 2 3 115.964 21.6376 6
7 -2 -3 216.294 31.4227 6
-7 2 3 303.122 30.4265 1
-7 2 3 304.434 32.9385 6
-7 2 3 270.709 26.4233 2
6 -2 -3 135.187 21.4837 6
-6 2 3 92.9489 16.9107 6
-6 2 3 76.5489 14.6283 1
-6 2 3 73.039 11.5066 2
5 -2 -3 820.035 68.4452 6
-5 2 3 891.463 69.7256 1
-5 2 3 744.718 65.3815 2
-5 2 3 786.967 68.5345 6
-4 2 3 157.273 18.092 1
-4 2 3 153.886 15.1665 2
-4 2 3 164.86 14.0884 3
-4 2 3 158.87 14.3325 5
-4 2 3 176.64 19.9606 6
3 -2 -3 1738.73 142.203 6
-3 2 3 1889.73 143.466 1
-3 2 3 1786.96 142.682 6
-3 2 3 1757.51 140.453 5
-3 2 3 1795.8 140.716 3
-2 2 3 785.196 66.1412 2
-2 2 3 804.78 66.9162 5
-2 2 3 871.353 67.2821 3
-2 2 3 823.282 68.0285 6
-2 2 3 890.598 68.638 1
1 -2 -3 3672.68 288.584 3
1 -2 -3 3868.45 287.658 2
-1 2 3 3493.65 287.31 2
-1 2 3 3746.7 288.55 5
-1 2 3 3713.17 288.556 3
-1 2 3 3680.58 288.706 6
-1 2 3 3688.37 288.571 4
0 2 3 777.423 63.7592 4
0 2 3 798.428 64.3206 3
0 2 3 794.872 63.0542 2
0 2 3 777.728 64.4172 5
-1 -2 -3 967.703 82.6807 3
-1 -2 -3 970.204 81.4065 4
-1 -2 -3 1008.29 81.7507 2
1 2 3 1059.34 82.6817 3
1 2 3 1050.71 81.5208 2
1 2 3 1038.51 83.0772 5
1 2 3 1030.54 81.8986 4
1 2 3 1028.07 82.0305 1
2 2 3 100.967 11.5183 2
2 2 3 95.7551 12.6367 4
2 2 3 93.9721 11.6367 1
2 2 3 96.8925 14.3601 5
2 2 3 113.926 13.7344 6
2 2 3 112.579 12.5433 3
-3 -2 -3 1320.76 101.071 2
-3 -2 -3 1344.56 101.815 3
-3 -2 -3 1139.83 101.09 4
-3 -2 -3 1104.01 100.756 1
3 2 3 1102.25 99.6773 4
3 2 3 1252.19 101.98 6
3 2 3 1325.36 100.394 2
3 2 3 1330.71 101.107 3
3 2 3 1328.52 101.666 5
3 2 3 1242.96 100.54 1
-4 -2 -3 398.502 33.9506 2
-4 -2 -3 341.979 35.8359 4
-4 -2 -3 353.94 33.8085 1
4 2 3 346.438 32.8027 2
4 2 3 357.103 33.3482 1
4 2 3 415.449 33.7793 3
4 2 3 352.712 34.7154 5
4 2 3 336.237 35.2991 6
-5 -2 -3 879.159 77.6048 4
-5 -2 -3 881.953 74.7825 1
-5 -2 -3 918.981 74.5804 2
5 2 3 832.324 74.0689 5
5 2 3 861.859 72.9861 3
5 2 3 872.406 74.0003 1
5 2 3 938.184 73.7808 2
5 2 3 836.705 75.8652 6
-6 -2 -3 181.433 20.9646 1
-6 -2 -3 181.889 29.5065 4
6 2 3 129.22 17.3245 2
6 2 3 129.265 16.6346 3
6 2 3 141.576 20.5787 5
6 2 3 121.841 17.8446 1
-7 -2 -3 632.249 62.8179 4
-7 -2 -3 596.247 55.3987 1
7 2 3 574.285 53.929 5
7 2 3 557.675 52.7136 2
7 2 3 611.97 51.9929 3
-8 -2 -3 20.0655 10.6789 1
8 2 3 18.7192 11.7736 5
8 2 3 22.3996 10.252 2
8 2 3 16.5205 9.25987 3
-9 -2 -3 184.816 26.032 1
9 2 3 184.875 22.1678 3
9 2 3 153.091 24.947 5
-10 3 3 37.225 27.9944 6
-9 3 3 59.1845 19.2922 6
-9 3 3 65.4567 17.6298 1
-8 3 3 138.744 22.0768 1
-8 3 3 141.171 24.7994 6
-7 3 3 332.156 30.338 2
-7 3 3 345.084 35.9669 1
-7 3 3 327.683 38.0771 6
-6 3 3 586.36 48.6689 5
-6 3 3 639.327 50.5255 2
-6 3 3 613.044 56.3388 6
-6 3 3 590.365 55.2499 1
5 -3 -3 320.592 31.0499 6
-5 3 3 289.338 29.8539 1
-5 3 3 296.064 31.5426 6
-5 3 3 260.263 24.7971 5
-5 3 3 276.584 24.8172 2
4 -3 -3 274.234 26.5568 6
-4 3 3 221.437 20.619 3
-4 3 3 222.759 19.7956 2
-4 3 3 230.233 19.9991 2
-4 3 3 213.602 21.1889 5
-4 3 3 239.103 26.2268 6
-4 3 3 236.087 25.1765 1
3 -3 -3 314.918 26.7849 3
-3 3 3 300.674 30.2355 6
-3 3 3 293.916 27.2687 5
-3 3 3 285.565 24.835 2
-3 3 3 306.304 26.7192 3
-3 3 3 306.967 29.7918 1
2 -3 -3 584.104 50.2206 3
-2 3 3 624.098 50.4916 3
-2 3 3 605.979 52.1638 6
-2 3 3 595.797 47.9373 2
-2 3 3 588.306 50.5859 5
1 -3 -3 299.417 27.1915 2
1 -3 -3 305.721 29.3719 3
-1 3 3 325.095 26.983 2
-1 3 3 333.074 28.7862 4
-1 3 3 322.293 30.3179 5
-1 3 3 355.064 31.1451 6
-1 3 3 342.489 29.7007 3
0 -3 -3 2164.97 157.563 2
0 -3 -3 2301.5 160.474 3
0 3 3 1927.53 159.252 3
0 3 3 1983.49 159.712 1
0 3 3 1996.56 159.826 5
0 3 3 1864.84 156.951 4
0 3 3 1814.74 156.85 2
-1 -3 -3 368.704 31.2278 2
-1 -3 -3 347.868 33.0599 3
1 3 3 344.647 30.6481 2
1 3 3 360.752 33.7102 5
1 3 3 389.437 33.1168 3
1 3 3 368.261 32.8526 1
1 3 3 334.896 29.6459 4
-2 -3 -3 1412.25 97.607 4
2 3 3 1131.07 98.7151 2
2 3 3 1157.46 100.989 5
2 3 3 1241.11 100.914 1
2 3 3 1204.63 100.663 3
-3 -3 -3 194.662 20.8306 1
-3 -3 -3 216.884 20.0661 2
-3 -3 -3 174.869 18.4959 4
-3 -3 -3 172.346 20.5165 3
3 3 3 172.949 22.1251 5
3 3 3 171.43 19.8348 3
3 3 3 166.995 18.4409 2
3 3 3 167.591 19.854 1
-4 -3 -3 775.506 70.6259 4
-4 -3 -3 869.196 73.4902 1
-4 -3 -3 847.819 71.9255 2
-4 -3 -3 944.203 74.1662 3
4 3 3 832.685 72.2242 1
4 3 3 936.467 72.5662 3
4 3 3 893.892 71.2906 2
4 3 3 837.256 72.7874 5
4 3 3 761.861 73.4672 6
-5 -3 -3 103.688 18.3142 4
-5 -3 -3 114.99 16.7612 1
5 3 3 66.8391 14.0177 3
5 3 3 90.9566 14.9435 2
5 3 3 85.9965 14.0784 1
-6 -3 -3 345.921 37.1717 4
6 3 3 315.239 35.024 5
6 3 3 324.728 33.0834 3
6 3 3 334.571 32.7968 2
-7 -3 -3 90.5893 22.2234 4
-7 -3 -3 99.354 18.7672 1
7 3 3 149.5 19.1898 3
7 3 3 131.414 20.3523 5
7 3 3 101.27 17.1861 2
-8 -3 -3 116.377 20.7106 1
8 3 3 92.296 18.286 5
8 3 3 93.2826 16.4833 3
8 3 3 119.626 19.3243 2
-9 -3 -3 129.797 22.5947 1
9 3 3 107.272 20.4417 5
9 3 3 107.964 18.8422 3
-9 4 3 82.0017 31.0628 6
-8 4 3 189.893 26.337 1
-8 4 3 147.436 36.5668 6
-7 4 3 109.505 19.4235 1
-7 4 3 84.9795 10.0949 2
-7 4 3 113.504 22.643 6
-6 4 3 345.685 29.3968 2
-6 4 3 361.625 29.5389 2
-6 4 3 392.615 41.3565 6
-6 4 3 376.803 38.5344 1
-5 4 3 512.43 48.2403 4
-5 4 3 484.813 47.2547 6
-5 4 3 428.313 40.3603 5
-5 4 3 462.628 45.354 1
4 -4 -3 337.775 37.3044 3
-4 4 3 451.608 37.9332 3
-4 4 3 523.687 44.6644 4
-4 4 3 488.859 44.0611 6
-4 4 3 429.414 38.6252 5
3 -4 -3 316.132 30.295 5
-3 4 3 257.376 27.3998 3
-3 4 3 278.913 31.7162 6
-3 4 3 287.274 28.3248 5
-3 4 3 303.841 30.6226 4
2 -4 -3 429.554 41.5359 3
2 -4 -3 414.306 43.2693 5
-2 4 3 473.156 41.4566 4
-2 4 3 491.803 45.3707 6
-2 4 3 514.383 43.2505 5
-2 4 3 500.209 42.1598 3
1 -4 -3 485.157 43.5158 3
-1 4 3 462.1 44.5703 6
-1 4 3 472.807 40.2041 4
-1 4 3 468.863 43.6283 5
-1 4 3 505.828 43.2451 3
-1 4 3 456.074 40.1187 4
-1 4 3 498.114 38.8287 2
0 -4 -3 198.854 23.6529 3
0 -4 -3 202.552 20.3108 2
0 4 3 246.172 24.4881 3
0 4 3 243.506 24.8647 1
0 4 3 225.205 20.2133 2
0 4 3 240.726 26.4621 5
0 4 3 229.58 25.5384 6
-1 -4 -3 254.576 25.7756 2
-1 -4 -3 273.409 29.1911 3
1 4 3 316.186 30.8368 5
1 4 3 318.689 30.003 3
1 4 3 279.157 25.6789 2
1 4 3 293.655 29.0306 1
2 4 3 150.276 19.6363 3
2 4 3 159.516 22.4382 5
2 4 3 166.461 17.3405 2
2 4 3 156.923 20.7312 1
-3 -4 -3 263.512 31.1707 2
3 4 3 217.371 21.5884 2
3 4 3 193.498 23.0462 1
3 4 3 203.539 23.7847 3
3 4 3 199.507 26.1192 5
-4 -4 -3 438.175 53.7448 2
4 4 3 545.743 48.0993 3
4 4 3 476.806 45.3932 2
4 4 3 602.823 50.5226 5
-5 -4 -3 118.438 20.7988 1
-5 -4 -3 159.266 16.6406 4
5 4 3 135.208 19.9209 3
5 4 3 167.844 24.7632 5
5 4 3 116.902 17.2554 2
-6 -4 -3 98.7692 18.8739 1
6 4 3 94.502 18.7232 5
6 4 3 81.9524 15.8148 3
6 4 3 121.139 16.853 2
-7 -4 -3 219.588 29.0975 1
7 4 3 165.888 31.9295 5
7 4 3 283.052 34.2515 2
7 4 3 232.854 27.1675 3
-8 -4 -3 95.1516 20.1399 1
8 4 3 69.1815 18.6678 5
8 4 3 92.9864 18.2856 3
-7 5 3 100.47 24.7754 6
-7 5 3 111.042 16.9931 5
-7 5 3 118.83 30.1202 1
-6 5 3 203.601 28.3754 1
-6 5 3 161.254 29.0217 6
-6 5 3 175.976 21.2537 5
-5 5 3 202.856 32.8721 6
-5 5 3 196.934 24.8075 5
-5 5 3 288.897 30.4719 1
4 -5 -3 110.069 16.802 3
-4 5 3 85.824 18.5956 1
-4 5 3 120.462 21.8991 4
-4 5 3 105.016 16.6051 5
-4 5 3 131.97 23.1065 6
3 -5 -3 193.781 24.7908 3
-3 5 3 258.073 25.5351 3
-3 5 3 265.115 28.1298 4
-3 5 3 234.335 30.8788 6
-3 5 3 232.609 27.1282 5
-3 5 3 222.012 26.0104 4
-2 5 3 105.279 14.5858 4
-2 5 3 112.076 17.6818 4
-2 5 3 133.208 22.3784 6
-2 5 3 148.696 24.9133 5
-2 5 3 115.827 17.2778 3
-1 5 3 790.365 67.378 3
-1 5 3 804.207 69.1515 5
-1 5 3 738.795 69.3452 6
0 -5 -3 175.968 15.5472 2
0 5 3 140.502 24.0333 6
0 5 3 147.174 15.2608 2
0 5 3 159.041 24.1558 5
0 5 3 141.894 21.7624 3
-1 -5 -3 317.698 32.8842 2
1 5 3 416.473 33.4082 2
1 5 3 402.084 40.4486 5
1 5 3 420.625 38.9292 3
-2 -5 -3 85.9423 12.4687 2
2 5 3 78.2015 15.7304 3
2 5 3 68.9434 16.2756 5
2 5 3 81.7439 12.0829 2
-3 -5 -3 274.64 29.3846 2
3 5 3 276.121 28.5869 2
3 5 3 348.898 35.9423 5
3 5 3 326.743 33.321 3
4 5 3 93.3636 17.4001 3
4 5 3 80.4863 18.2387 5
4 5 3 76.8384 13.6881 2
5 5 3 114.367 25.1271 5
5 5 3 125.496 24.8446 3
5 5 3 114.034 17.68 2
6 5 3 159.654 24.2157 3
6 5 3 196.022 28.9547 5
6 5 3 136.322 20.5388 2
-5 6 3 22.4457 21.9917 6
-5 6 3 5.22695 9.81434 5
-5 6 3 20.8081 16.7946 4
-4 6 3 198.287 26.7206 4
-4 6 3 200.502 27.185 5
-4 6 3 225.373 30.5651 1
-4 6 3 191.233 32.2911 6
-3 6 3 37.9448 11.4058 3
-3 6 3 20.1038 18.8582 6
-3 6 3 41.9127 13.5617 5
-2 6 3 354.979 42.276 6
-2 6 3 352.368 38.2493 5
-2 6 3 323.19 35.2282 3
-1 6 3 61.1958 17.1904 5
-1 6 3 87.3976 19.9577 6
-1 6 3 64.2487 16.5147 3
0 6 3 213.935 28.9107 3
0 6 3 261.028 33.5629 6
0 6 3 259.05 33.0938 5
1 6 3 93.6126 26.1506 5
1 6 3 142.716 24.1201 3
2 6 3 366.286 39.6637 5
2 6 3 299.768 35.2475 3
3 6 3 25.2362 14.8047 5
3 6 3 24.0051 13.0979 3
4 6 -4 170.302 29.8751 6
3 6 -4 435.873 45.059 6
3 6 -4 311.963 43.3897 5
2 6 -4 10.0298 16.981 5
2 6 -4 32.723 18.4889 6
-2 -6 4 -7.8037 7.84731 2
1 6 -4 325.054 47.8991 6
1 6 -4 336.781 42.8357 5
0 6 -4 48.1841 19.0442 5
0 6 -4 47.2465 14.7498 4
0 6 -4 24.3745 19.5134 6
-1 6 -4 240.748 34.7946 6
-1 6 -4 231.796 33.6258 5
-2 6 -4 54.2307 17.446 5
-2 6 -4 37.9455 18.1717 6
-3 6 -4 124.722 23.1528 5
-4 6 -4 8.82313 13.0568 5
7 5 -4 43.7102 15.8621 5
-7 -5 4 5.92196 9.96449 4
5 5 -4 16.628 14.608 5
3 5 -4 254.768 30.9704 6
3 5 -4 143.509 25.9409 5
-3 -5 4 189.293 21.0113 2
2 5 -4 414.165 42.9034 6
2 5 -4 333.233 42.1344 5
-2 -5 4 425.517 36.9948 4
1 5 -4 83.4228 19.1373 5
1 5 -4 70.9967 12.8343 4
1 5 -4 71.0338 17.9823 6
-1 -5 4 85.6807 15.0603 4
-1 -5 4 84.7598 11.28 2
-1 -5 4 90.4444 11.6075 2
0 5 -4 533.773 51.4567 5
0 5 -4 553.72 51.5967 6
0 5 -4 500.536 45.646 4
0 -5 4 606.742 47.6542 4
0 -5 4 483.411 42.1099 2
0 -5 4 438.139 41.6766 2
-1 5 -4 326.898 38.3444 5
-1 5 -4 344.796 39.93 6
-1 5 -4 364.459 35.5323 4
-2 5 -4 394.035 59.9839 4
-2 5 -4 473.165 48.8864 6
-2 5 -4 494.824 47.9277 5
-3 5 -4 140.679 24.8303 6
-3 5 -4 147.878 24.0889 5
-4 5 -4 215.631 29.4798 1
-4 5 -4 248.439 31.4247 5
-4 5 -4 255.936 35.8947 6
-5 5 -4 69.4385 16.823 5
-5 5 -4 44.5217 14.8619 1
-5 5 -4 68.7319 22.2528 6
-6 5 -4 73.2507 18.1312 5
8 4 -4 64.6452 15.9756 5
-8 -4 4 59.1439 17.7599 1
7 4 -4 87.1881 18.5623 5
-7 -4 4 106.015 18.4389 4
-7 -4 4 98.5871 24.2336 1
6 4 -4 71.2373 17.1528 5
-6 -4 4 96.1232 17.1232 4
-6 -4 4 110.212 21.0674 1
5 4 -4 158.871 25.2082 5
-5 -4 4 211.475 25.4631 4
-5 -4 4 185.114 26.5502 1
4 4 -4 388.078 47.0065 5
-4 -4 4 509.665 44.5714 2
-4 -4 4 620.571 54.0274 4
-3 -4 4 367.385 34.1304 4
-3 -4 4 272.893 28.8038 2
2 4 -4 133.614 22.9661 5
2 4 -4 161.338 23.4527 6
-2 -4 4 177.057 23.5806 4
-2 -4 4 152.893 16.8204 2
1 4 -4 786.635 70.5137 5
1 4 -4 834.601 69.6923 6
1 4 -4 757.613 66.174 4
1 4 -4 815.852 70.0956 1
-1 -4 4 846.64 71.3017 4
-1 -4 4 749.873 64.9183 2
0 4 -4 300.013 33.6627 5
0 4 -4 255.026 30.3614 4
0 4 -4 299.136 33.1549 6
0 4 -4 292.907 31.5506 1
0 -4 4 302.666 30.8078 3
0 -4 4 368.842 33.3516 4
0 -4 4 317.035 26.9623 2
-1 4 -4 465.542 51.888 1
-1 4 -4 447.562 44.0376 5
-1 4 -4 491.808 43.8036 4
-1 4 -4 480.499 45.1093 6
1 -4 4 386.831 41.4076 3
1 -4 4 419.541 37.6029 2
1 -4 4 517.737 45.1976 4
-2 4 -4 380.098 35.1215 5
-2 4 -4 363.176 39.3649 6
-2 4 -4 328.366 35.2017 4
2 -4 4 306.026 30.7451 3
2 -4 4 278.918 26.3594 2
2 -4 4 310.001 34.8172 4
-3 4 -4 668.561 64.8006 4
-3 4 -4 662.654 62.6692 6
3 -4 4 658.243 55.1758 2
3 -4 4 826.508 65.5045 4
3 -4 4 667.668 59.3237 3
-4 4 -4 338.592 35.953 5
-4 4 -4 347.214 38.672 6
-4 4 -4 360.775 36.6656 1
4 -4 4 360.205 55.366 4
4 -4 4 334.114 32.2718 3
4 -4 4 321.589 28.3077 2
-5 4 -4 267.773 31.488 5
-5 4 -4 244.588 29.8142 1
-5 4 -4 298.448 37.2195 6
5 -4 4 252.765 26.8872 3
-6 4 -4 130.988 21.4454 1
-6 4 -4 132.005 26.7207 6
-6 4 -4 170.687 23.7321 5
6 -4 4 146.14 21.1232 3
-7 4 -4 90.4153 18.1001 1
-7 4 -4 86.607 21.9855 6
9 3 -4 148.181 22.9096 5
-9 -3 4 154.487 27.3411 4
-9 -3 4 216.947 27.1095 1
-8 -3 4 53.319 16.0227 4
-8 -3 4 51.1682 14.5021 1
7 3 -4 320.093 34.485 5
-7 -3 4 336.295 36.4782 4
-7 -3 4 352.06 37.3438 1
6 3 -4 206.373 25.3927 5
-6 -3 4 192.076 25.804 4
-6 -3 4 204.796 26.2251 1
-6 -3 4 229.868 25.0188 5
5 3 -4 442.363 46.6289 6
-5 -3 4 535.056 46.0764 5
-5 -3 4 527.173 46.8742 4
-5 -3 4 578.06 50.448 1
-5 -3 4 479.567 44.9426 2
-5 -3 4 497.45 45.2512 3
4 3 -4 120.994 16.6738 1
4 3 -4 97.3943 16.5886 5
4 3 -4 104.773 16.6191 6
-4 -3 4 103.948 20.1823 5
-4 -3 4 91.076 13.6369 3
-4 -3 4 80.9377 13.0259 2
-4 -3 4 104.303 17.4477 1
-4 -3 4 115.149 17.627 4
3 3 -4 900.661 74.2378 5
3 3 -4 994.672 84.1432 1
-3 -3 4 831.867 71.549 2
-3 -3 4 911.783 76.1524 4
-3 -3 4 738.95 74.2631 1
-3 -3 4 889.415 73.0539 5
2 3 -4 671.276 62.5667 1
2 3 -4 696.979 61.12 4
2 3 -4 685.169 62.858 5
-2 -3 4 843.917 62.7203 5
-2 -3 4 748.39 61.9297 3
1 3 -4 1046.99 86.1897 5
1 3 -4 981.391 83.9603 4
1 3 -4 997.62 84.5134 6
-1 -3 4 927.062 83.9864 3
-1 -3 4 1179.22 85.5111 5
0 3 -4 582.383 47.9614 4
0 3 -4 584.743 48.0335 6
0 3 -4 559.968 48.4211 5
0 3 -4 543.007 47.7924 1
0 -3 4 490.887 44.1918 2
0 -3 4 461.433 45.8395 3
0 -3 4 534.881 47.3096 5
-1 3 -4 801.421 67.6733 5
-1 3 -4 814.449 67.3357 6
-1 3 -4 804.809 68.1998 4
1 -3 4 809.552 66.8237 5
1 -3 4 695.501 65.2874 3
1 -3 4 849.482 69.5701 4
1 -3 4 747.407 63.5091 2
-2 3 -4 500.21 47.4814 4
-2 3 -4 559.569 46.1364 5
-2 3 -4 550.167 45.8104 6
2 -3 4 444.367 40.9879 2
2 -3 4 457.769 43.2358 3
2 -3 4 507.687 47.8508 4
2 -3 4 484.393 45.1682 6
2 -3 4 505.47 45.1457 5
-3 3 -4 435.026 41.4357 5
-3 3 -4 462.798 43.3825 6
-3 3 -4 415.519 44.8251 4
3 -3 4 446.849 42.3093 6
3 -3 4 445.602 44.0523 4
3 -3 4 446.713 37.2315 2
-4 3 -4 255.141 30.3251 6
-4 3 -4 216.858 25.9105 1
-4 3 -4 231.309 26.9882 5
-4 3 -4 171.767 31.0606 4
-4 3 -4 218.749 21.415 2
4 -3 4 297.13 26.9526 5
4 -3 4 233.5 24.2793 2
4 -3 4 267.023 31.9247 4
-5 3 -4 123.655 20.4263 5
-5 3 -4 114.483 21.6762 6
-5 3 -4 126.06 13.8625 2
-5 3 -4 131.949 22.0368 1
-6 3 -4 230.816 31.6503 6
-6 3 -4 255.844 23.7711 2
-6 3 -4 234.583 27.8091 1
6 -3 4 249.382 24.1652 2
6 -3 4 257.656 24.5059 3
-7 3 -4 249.682 26.0792 2
-7 3 -4 261.07 35.5824 6
-7 3 -4 267.462 31.6184 1
7 -3 4 280.988 26.9001 2
7 -3 4 313.914 26.3849 3
-8 3 -4 27.9789 16.6814 6
8 -3 4 33.9842 9.98198 2
9 -3 4 158.84 20.7267 2
10 2 -4 -1.2899 5.15889 5
9 2 -4 63.1763 11.5866 5
-9 -2 4 47.9777 16.4402 1
-9 -2 4 26.7336 9.36929 3
8 2 -4 278.766 25.8376 5
-8 -2 4 263.122 30.1877 1
-8 -2 4 185.481 23.3818 3
-8 -2 4 228.034 30.5235 4
7 2 -4 90.6778 18.7299 6
-7 -2 4 105.89 18.8933 1
-7 -2 4 101.152 18.7282 4
-7 -2 4 90.0117 13.4774 3
6 2 -4 839.999 79.0051 6
6 2 -4 807.456 73.8133 5
-6 -2 4 864.5 73.4063 3
-6 -2 4 940.587 73.4785 5
-6 -2 4 968.358 78.1025 1
-6 -2 4 911.326 77.152 4
5 2 -4 384.607 35.1763 1
5 2 -4 372.5 33.4034 5
5 2 -4 360.301 34.2083 6
-5 -2 4 310.025 31.452 3
-5 -2 4 360.952 35.4318 1
-5 -2 4 386.464 35.6454 4
-5 -2 4 392.755 32.7621 5
-5 -2 4 279.27 31.6534 2
4 2 -4 1281.39 107.172 1
4 2 -4 1203.33 105.477 5
4 2 -4 1424.76 106.27 6
-4 -2 4 1450.06 105.367 5
-4 -2 4 1248.54 105.149 2
-4 -2 4 1180.09 104.749 3
-4 -2 4 1344.16 107.836 1
-4 -2 4 1310.82 106.909 4
3 2 -4 224.367 24.1 1
3 2 -4 200.598 24.0892 5
-3 -2 4 273.929 23.9124 5
-3 -2 4 250.343 25.3447 1
-3 -2 4 226.077 22.7267 3
-3 -2 4 281.058 26.3394 4
2 2 -4 893.116 74.2415 5
2 2 -4 883.218 74.1284 1
2 2 -4 914.512 76.1486 4
-2 -2 4 835.895 72.7957 3
-2 -2 4 1033.73 73.7684 5
-2 -2 4 801.626 74.1019 1
1 2 -4 677.31 54.1183 6
1 2 -4 644.781 54.8013 1
1 2 -4 666.745 55.331 5
-1 -2 4 604.924 54.2377 5
-1 -2 4 655.552 56.2831 4
0 2 -4 370.479 34.9743 5
0 2 -4 342.547 35.2161 4
0 2 -4 372.209 34.2072 1
0 2 -4 353.785 33.7297 6
0 -2 4 390.401 32.7074 2
0 -2 4 441.489 34.5989 5
0 -2 4 425.038 37.4699 4
-1 2 -4 328.488 36.846 4
-1 2 -4 365.237 35.9285 5
1 -2 4 437.094 40.1663 4
1 -2 4 426.011 35.7733 5
1 -2 4 436.269 35.6148 6
1 -2 4 405.586 33.788 2
-2 2 -4 1611.14 123.762 4
-2 2 -4 1497.35 118.044 2
-2 2 -4 1614.07 120.69 5
-2 2 -4 1690.71 121.056 6
2 -2 4 1376.87 122.377 4
2 -2 4 1409.08 119.745 5
2 -2 4 1355.22 118.008 2
2 -2 4 1399.64 119.953 6
-3 2 -4 78.5548 9.4552 2
-3 2 -4 108.075 16.731 6
-3 2 -4 95.311 14.9092 5
-3 2 -4 70.5143 16.5144 4
-3 2 -4 76.3779 11.9472 1
3 -2 4 63.9681 9.34617 2
3 -2 4 76.3658 12.7517 5
3 -2 4 48.9633 14.8803 4
3 -2 4 71.2342 13.3236 6
-4 2 -4 880.824 76.8532 6
-4 2 -4 864.605 75.3036 1
-4 2 -4 890.53 73.0486 2
-4 2 -4 923.768 75.46 5
4 -2 4 859.891 78.8219 4
4 -2 4 913.455 74.986 5
4 -2 4 955.19 73.5604 2
-5 2 -4 69.5441 11.9469 2
-5 2 -4 99.2224 18.1193 6
-5 2 -4 53.5119 24.2848 4
-5 2 -4 77.4674 13.7595 1
5 -2 4 105.795 12.775 2
5 -2 4 99.6976 15.0313 5
5 -2 4 121.028 22.3994 4
5 -2 4 125.54 18.4955 6
-6 2 -4 603.492 56.7791 6
-6 2 -4 585.567 54.1069 1
6 -2 4 589.998 51.8411 2
6 -2 4 631.222 53.5794 5
-7 2 -4 13.6374 9.71655 1
-7 2 -4 15.8086 13.3452 6
7 -2 4 19.6259 9.9591 5
7 -2 4 6.20202 7.36059 2
-8 2 -4 196.16 29.5023 6
-8 2 -4 163.177 23.7342 1
8 -2 4 201.861 22.4389 2
-9 2 -4 42.2668 24.8484 6
-9 2 -4 30.0191 12.9749 1
9 -2 4 37.6659 11.2258 2
-10 -1 4 15.2083 11.509 1
-9 -1 4 616.924 54.2559 1
-9 -1 4 500.362 45.0662 3
8 1 -4 49.3937 9.37157 5
-8 -1 4 57.965 8.9815 3
-8 -1 4 65.7011 14.4867 1
7 1 -4 632.744 53.6711 5
7 1 -4 697.586 58.9 6
-7 -1 4 627.232 53.518 3
6 1 -4 15.24 7.16673 1
6 1 -4 14.5401 8.92914 6
6 1 -4 9.80638 5.80027 5
-6 -1 4 -1.1539 4.49229 2
-6 -1 4 7.15386 4.59557 3
-6 -1 4 3.93369 6.3872 1
5 1 -4 1115.4 79.7584 6
5 1 -4 1008.21 77.3333 5
5 1 -4 1105.76 81.2664 1
-5 -1 4 895.455 76.8469 3
-5 -1 4 832.107 80.358 4
-5 -1 4 857.901 78.1033 2
-5 -1 4 943.031 79.9174 1
-5 -1 4 900.045 76.3652 5
4 1 -4 28.8552 6.93819 5
4 1 -4 29.5488 8.94107 6
4 1 -4 14.7557 6.03347 1
-4 -1 4 11.189 4.6051 3
-4 -1 4 8.98799 5.60843 1
-4 -1 4 7.5746 7.96977 4
-4 -1 4 7.49594 4.32284 5
3 1 -4 912.841 83.2512 5
3 1 -4 1056.35 83.4208 6
-3 -1 4 1092.3 83.112 5
-3 -1 4 1061.12 86.6467 4
-3 -1 4 1074.81 85.2661 1
2 1 -4 299.461 29.9822 5
2 1 -4 279.57 29.7593 1
-2 -1 4 422.738 33.0349 4
-2 -1 4 389.449 29.9743 5
-2 -1 4 358.448 30.5432 1
1 1 -4 4652.71 341.431 4
1 1 -4 4636.96 340.243 5
1 1 -4 4205.19 338.397 6
1 1 -4 3935.48 339.301 1
-1 -1 4 4821.03 342.25 4
-1 -1 4 4523.52 339.766 5
-1 -1 4 3748.58 339.357 1
0 1 -4 149.396 12.8328 1
0 1 -4 134.51 12.6585 6
0 1 -4 125.723 16.0286 4
0 1 -4 152.63 14.6025 5
0 -1 4 110.9 12.043 6
0 -1 4 127.321 16.3915 5
0 -1 4 106.995 12.3532 2
0 -1 4 99.6238 15.5953 4
-1 1 -4 2547.3 213.98 4
-1 1 -4 2674.51 211.319 2
-1 1 -4 2702.45 211.591 6
-1 1 -4 2667 212.356 5
1 -1 4 2737.94 215.215 4
1 -1 4 2673.78 211.443 2
1 -1 4 2815.86 211.711 6
1 -1 4 2779.7 212.286 5
-2 1 -4 49.0534 7.57423 1
-2 1 -4 46.8623 7.27074 2
-2 1 -4 58.1852 10.1111 6
-2 1 -4 56.5492 9.75736 5
-2 1 -4 33.6072 11.0219 4
2 -1 4 77.0527 10.2019 5
2 -1 4 95.7779 16.3222 4
-3 1 -4 1114.46 83.8566 6
-3 1 -4 1002.41 82.252 1
-3 1 -4 1071.25 82.058 2
-3 1 -4 1032.59 87.6725 4
3 -1 4 1016.1 81.9985 2
3 -1 4 853.098 85.3451 4
3 -1 4 998 83.323 6
3 -1 4 1034.8 83.0512 5
-4 1 -4 35.7203 8.01221 1
-4 1 -4 18.9803 13.4619 4
-4 1 -4 39.4678 10.9388 6
-4 1 -4 35.5272 7.06228 2
4 -1 4 32.5587 7.63721 2
4 -1 4 27.133 8.1278 5
4 -1 4 24.581 9.15347 6
4 -1 4 31.4812 12.3593 4
-5 1 -4 925.79 77.9815 1
-5 1 -4 803.132 83.8415 4
-5 1 -4 1031.89 77.7084 2
-5 1 -4 972.69 80.2264 6
5 -1 4 975.858 77.4615 2
5 -1 4 881.816 82.21 4
5 -1 4 949.179 78.0618 5
5 -1 4 930.756 79.5687 6
-6 1 -4 34.6924 8.54205 2
-6 1 -4 28.4126 9.19144 1
-6 1 -4 18.7285 18.5171 6
6 -1 4 40.953 9.7076 2
6 -1 4 32.4826 7.7246 3
6 -1 4 49.511 25.7167 4
-7 1 -4 629.306 62.9066 1
-7 1 -4 674.4 61.0234 6
7 -1 4 687.922 59.7737 2
7 -1 4 640.727 57.3635 5
7 -1 4 620.724 54.1174 3
-8 1 -4 11.2327 8.36915 1
-8 1 -4 19.0504 14.407 6
8 -1 4 14.6919 9.20623 2
8 -1 4 -0.4467 5.66571 3
-9 1 -4 385.451 47.3677 6
-9 1 -4 419.036 43.6031 1
9 -1 4 502.309 42.9903 2
10 -1 4 25.2882 11.0063 2
-11 0 4 -1.1223 12.9949 6
-10 0 4 227.36 33.4827 6
-10 0 4 321.004 34.2783 1
-9 0 4 -11.053 11.2127 6
-9 0 4 -3.442 8.37583 1
-8 0 4 340.591 35.7092 1
-8 0 4 350.178 36.6061 6
7 0 -4 -5.9386 8.02619 6
-7 0 4 0.36121 2.58569 3
-7 0 4 -0.5612 8.74408 6
-7 0 4 2.46848 6.8435 1
-7 0 4 2.68389 5.70665 2
6 0 -4 1497.37 125.461 6
6 0 -4 1312.93 131.282 1
-6 0 4 1482.16 131.239 2
-6 0 4 1722.63 125.556 6
-6 0 4 1590.07 121.902 3
-6 0 4 1649.12 126.668 1
5 0 -4 3.76632 5.78748 6
5 0 -4 -2.5764 3.78096 1
-5 0 4 -0.51 3.64757 2
-5 0 4 0.21226 2.80603 3
-5 0 4 2.54323 4.47766 1
-5 0 4 8.54558 6.3168 6
4 0 -4 4022.7 321.43 1
4 0 -4 4192.32 318.142 5
4 0 -4 4029.59 319.979 6
-4 0 4 4067.96 321.034 1
-4 0 4 4048.72 317.941 5
-4 0 4 4235.91 319.734 6
3 0 -4 2.13698 3.28762 6
3 0 -4 -0.7147 2.71496 5
3 0 -4 -0.5618 2.77864 1
-3 0 4 0.9617 2.34526 5
-3 0 4 -3.711 2.91858 6
-3 0 4 3.32 3.28105 1
2 0 -4 2008.89 162.868 5
2 0 -4 1876.12 163.18 1
2 0 -4 1949.47 161.775 6
-2 0 4 2323.17 163.685 1
-2 0 4 2135.57 165.533 4
-2 0 4 2217.63 162.982 5
1 0 -4 1.06731 1.56593 1
1 0 -4 0.11289 4.21881 4
-1 0 4 6.18115 2.20075 1
-1 0 4 4.53858 5.14662 4
-1 0 4 1.43207 2.65527 5
-1 0 4 2.39461 2.58644 2
0 0 -4 2625.02 184.279 2
0 0 -4 2545.68 182.634 6
0 0 -4 2562.73 186.106 4
0 0 4 2043.21 183.717 2
0 0 4 2182.7 185.926 4
0 0 4 2252.28 184.07 5
0 0 4 2220.4 182.504 6
-1 0 -4 0.20242 2.57304 2
-1 0 -4 0.92909 3.32878 6
-1 0 -4 -0.1503 1.1726 1
-1 0 -4 1.7686 5.59267 4
1 0 4 2.48667 2.80059 2
1 0 4 0.12411 3.75827 5
1 0 4 0.58817 3.09154 6
1 0 4 2.67287 6.2189 4
-2 0 -4 2949.41 208.143 6
-2 0 -4 2749.69 207.635 2
-2 0 -4 2720.1 211.026 4
-2 0 -4 2458.2 206.047 1
2 0 4 2568.27 207.517 2
2 0 4 2508.18 210.717 4
2 0 4 2637.38 207.579 6
2 0 4 2568.52 207.834 5
-3 0 -4 3.75364 3.65488 2
-3 0 -4 0.09476 7.64703 4
-3 0 -4 -1.5719 2.45689 1
-3 0 -4 -1.6434 5.54539 6
3 0 4 -2.8011 4.43293 5
3 0 4 1.98638 3.05731 1
3 0 4 0.93865 3.66255 2
3 0 4 6.82378 8.21 4
3 0 4 -0.59 4.78486 6
-4 0 -4 1760.31 150.738 1
-4 0 -4 2117.11 151.23 6
-4 0 -4 2180.52 150.484 2
-4 0 -4 1668.62 153.671 4
4 0 4 1748.67 152.266 4
4 0 4 1830.67 149.415 2
4 0 4 1841.28 149.797 5
4 0 4 1933.01 149.269 1
4 0 4 1824.39 150.603 6
-5 0 -4 0.91741 4.43865 2
-5 0 -4 -7.9587 7.64788 6
-5 0 -4 -1.8511 3.86097 1
5 0 4 1.05156 9.34664 4
5 0 4 7.60125 6.89791 5
5 0 4 -5.2203 4.56752 2
5 0 4 2.96092 5.05774 3
5 0 4 2.19579 4.51892 1
-6 0 -4 1066.26 99.4101 1
-6 0 -4 1179.79 100.583 2
-6 0 -4 1218.49 102.228 6
-6 0 -4 1042.36 112.257 4
6 0 4 1250.69 103.793 5
6 0 4 1359.72 100.844 1
6 0 4 1303.29 98.7665 3
6 0 4 1291.24 100.446 2
6 0 4 1196.61 104.843 4
-7 0 -4 -9.7939 4.95076 1
-7 0 -4 -3.9851 10.7644 6
7 0 4 -11.637 7.49564 5
7 0 4 0.47986 6.97584 2
7 0 4 7.85903 5.71719 3
-8 0 -4 402.063 41.7286 1
-8 0 -4 441.687 46.2479 6
8 0 4 470.22 42.3317 2
8 0 4 442.836 39.1241 3
-9 0 -4 -2.7724 8.29605 1
-9 0 -4 -1.6832 12.847 6
9 0 4 3.57201 5.82851 3
9 0 4 -7.0248 8.29341 2
-10 1 4 19.4329 12.1894 1
-10 1 4 -3.0082 12.9447 6
-9 1 4 612.109 56.978 1
-9 1 4 579.37 57.0139 6
-8 1 4 51.2134 13.6595 1
-8 1 4 37.0168 13.8912 6
7 -1 -4 664.075 73.0543 6
-7 1 4 796.658 64.7867 6
-7 1 4 656.934 61.3424 2
-7 1 4 794.689 66.5578 1
6 -1 -4 12.181 8.45841 6
6 -1 -4 12.9559 6.35031 1
-6 1 4 11.136 6.52612 1
-6 1 4 2.64608 4.85613 2
-6 1 4 6.19344 8.13184 6
5 -1 -4 1003.52 75.4645 1
5 -1 -4 978.831 74.0209 6
-5 1 4 810.685 72.4992 2
-5 1 4 826.39 69.9927 3
-5 1 4 916.194 74.6961 1
-5 1 4 854.197 73.7905 6
4 -1 -4 17.5167 5.81334 1
4 -1 -4 16.2876 5.96488 6
-4 1 4 14.1869 6.0014 6
-4 1 4 9.3412 5.12311 1
3 -1 -4 879.031 77.1081 6
3 -1 -4 867.15 78.2778 1
-3 1 4 981.641 80.47 4
-3 1 4 988.917 78.3824 1
-3 1 4 1050.93 77.6696 6
-3 1 4 1035.81 76.1592 5
-2 1 4 357.715 30.6189 1
-2 1 4 349.692 30.5924 2
-2 1 4 361.021 30.061 6
-2 1 4 389.778 33.5073 4
1 -1 -4 4247.82 313.555 4
-1 1 4 3938.97 310.541 6
-1 1 4 4043.83 313.279 4
-1 1 4 3777.94 311.515 2
-1 1 4 3997.11 310.695 1
0 -1 -4 124.967 11.8692 2
0 -1 -4 141.848 14.4368 4
0 1 4 106.901 9.83453 1
0 1 4 98.9187 10.8402 6
0 1 4 108.992 11.5077 2
0 1 4 104.792 14.0239 4
-1 -1 -4 2456.25 201.107 4
-1 -1 -4 2491.25 199.775 2
1 1 4 2634.12 199.918 2
1 1 4 2612.24 200.169 3
1 1 4 2547.79 199.426 6
1 1 4 2519.88 201.731 4
1 1 4 2556.65 197.907 1
-2 -1 -4 57.963 9.51827 2
-2 -1 -4 51.5267 17.0085 4
-2 -1 -4 61.4592 10.3349 6
-2 -1 -4 53.9852 7.50642 1
2 1 4 68.4445 12.9634 4
2 1 4 74.415 8.94382 2
2 1 4 68.3438 9.19508 3
2 1 4 79.4965 7.68446 1
-3 -1 -4 1102.35 82.7768 2
-3 -1 -4 1012.52 81.462 1
-3 -1 -4 1173.06 83.7584 6
-3 -1 -4 989.331 85.1674 4
3 1 4 862.765 83.6787 4
3 1 4 1013.78 83.0406 6
3 1 4 967.66 81.9466 2
3 1 4 1035.45 82.3265 3
3 1 4 949.263 80.7923 1
-4 -1 -4 41.8272 8.63454 2
-4 -1 -4 24.3273 9.67102 6
-4 -1 -4 27.3495 8.64183 1
-4 -1 -4 24.0247 12.4302 4
4 1 4 36.9386 10.9114 4
4 1 4 29.2326 7.83956 2
4 1 4 28.3239 6.71952 1
4 1 4 24.6339 8.74782 6
4 1 4 30.3413 7.60989 3
-5 -1 -4 951.204 78.4058 1
-5 -1 -4 899.339 84.3424 4
-5 -1 -4 1072.35 80.9287 6
5 1 4 985.279 77.7519 3
5 1 4 971.713 78.0368 1
5 1 4 864.536 79.964 6
5 1 4 842.25 79.919 4
-6 -1 -4 30.8217 9.33844 1
-6 -1 -4 14.5129 16.4284 4
-6 -1 -4 20.1526 13.2048 6
6 1 4 30.4601 8.65439 3
6 1 4 36.5045 9.03838 1
-7 -1 -4 613.699 56.0649 1
-7 -1 -4 634.849 58.7921 6
7 1 4 623.997 53.8913 3
-8 -1 -4 17.0498 13.6268 6
-8 -1 -4 4.53788 8.26443 1
8 1 4 4.9721 8.24438 2
8 1 4 5.45976 7.09385 3
-9 -1 -4 423.673 43.0096 1
-9 -1 -4 357.389 45.1244 6
9 1 4 488.415 39.5929 3
9 1 4 423.442 41.9237 2
9 1 4 396.197 42.0683 5
10 1 4 19.5457 12.1155 5
-10 2 4 327.37 46.8787 1
-10 2 4 252.793 46.1494 6
-9 2 4 30.8527 16.6978 6
-9 2 4 56.9672 16.1967 1
-8 2 4 206.51 29.6484 2
-8 2 4 279.186 29.6525 1
-8 2 4 231.16 31.471 6
7 -2 -4 75.3943 17.169 6
-7 2 4 112.673 16.77 2
-7 2 4 137.014 18.7413 1
-7 2 4 130.701 20.3558 6
6 -2 -4 898.939 77.39 6
-6 2 4 921.734 77.8563 6
-6 2 4 856.743 74.8411 2
-6 2 4 1007.79 79.1353 1
5 -2 -4 363.053 33.8052 6
-5 2 4 383.114 34.2394 1
-5 2 4 347.857 28.215 3
-5 2 4 332.063 33.7551 6
-5 2 4 338.975 30.7123 2
4 -2 -4 1268.08 107.724 6
-4 2 4 1351.59 108.369 6
-4 2 4 1326.57 104.915 5
-4 2 4 1337.8 105.621 3
-4 2 4 1423.28 109.194 1
3 -2 -4 202.815 23.3812 6
-3 2 4 259.737 24.3584 6
-3 2 4 266.625 22.4468 3
-3 2 4 250.237 22.0178 5
-3 2 4 248.661 22.1661 2
-3 2 4 286.475 24.5315 1
-2 2 4 885.808 70.5433 5
-2 2 4 923.589 71.6536 1
-2 2 4 875.916 72.4995 4
-2 2 4 891.93 71.2702 6
-2 2 4 848.237 70.5686 3
-2 2 4 829.455 69.9656 2
-1 2 4 535.969 43.8724 2
-1 2 4 531.631 44.807 5
-1 2 4 526.146 44.5594 3
-1 2 4 527.977 45.5163 4
-1 2 4 543.44 44.7387 6
0 -2 -4 307.243 32.6537 4
0 2 4 390.313 31.9777 2
0 2 4 421.384 32.3101 1
0 2 4 386.282 33.546 4
0 2 4 366.178 32.814 3
-1 -2 -4 301.406 30.7623 4
-1 -2 -4 304.989 30.021 2
1 2 4 385.158 30.2615 1
1 2 4 374.853 31.3958 3
1 2 4 375.068 32.1572 4
1 2 4 344.564 30.7311 6
-2 -2 -4 1329.16 104.395 4
-2 -2 -4 1434.26 103.79 1
2 2 4 1245.02 103.109 1
2 2 4 1288.21 103.449 2
2 2 4 1215.92 104.349 4
2 2 4 1245.63 104.523 6
2 2 4 1273.43 104.282 3
-3 -2 -4 81.5942 10.8294 2
-3 -2 -4 63.845 12.3601 4
3 2 4 43.8443 11.0533 6
3 2 4 46.8992 8.32028 1
3 2 4 59.2205 10.7411 3
3 2 4 54.3404 9.79758 2
3 2 4 49.9021 11.0327 4
-4 -2 -4 951.678 75.512 2
-4 -2 -4 839.939 75.0386 4
-4 -2 -4 787.617 72.0531 1
4 2 4 797.11 73.8518 6
4 2 4 919.105 72.3977 1
4 2 4 933.715 72.6066 2
4 2 4 920.045 72.8539 3
4 2 4 828.845 72.7529 4
-5 -2 -4 92.9613 15.5454 1
-5 -2 -4 61.611 17.063 4
5 2 4 117.631 17.9427 5
5 2 4 103.095 13.6814 2
5 2 4 97.7461 13.6977 1
5 2 4 98.0888 14.7933 3
5 2 4 91.4089 18.127 6
-6 -2 -4 560.157 59.5149 4
-6 -2 -4 590.326 52.0049 1
6 2 4 558.556 50.6111 1
6 2 4 574.492 50.0801 3
6 2 4 593.639 56.8964 5
6 2 4 529.494 50.1289 2
-7 -2 -4 12.9278 9.77566 1
7 2 4 -6.0195 8.98277 5
7 2 4 -1.0823 7.27751 3
7 2 4 5.74639 7.36234 2
-8 -2 -4 182.629 25.3305 1
8 2 4 217.503 23.0805 3
8 2 4 174.656 26.1264 5
8 2 4 191.128 23.3279 2
-9 -2 -4 31.6234 12.6851 1
9 2 4 35.8839 19.118 2
9 2 4 45.5466 11.8917 3
9 2 4 13.6949 12.5874 5
-9 3 4 168.355 24.7012 1
-9 3 4 119.549 24.9145 6
-8 3 4 40.7776 9.19268 2
-8 3 4 65.0784 15.4366 1
-8 3 4 47.9408 16.7265 6
-7 3 4 362.938 33.5393 2
-7 3 4 437.805 40.053 1
-7 3 4 332.463 39.6121 6
6 -3 -4 213.107 27.5595 6
-6 3 4 219.344 20.9554 2
-6 3 4 231.715 26.4013 1
-6 3 4 198.421 27.346 6
-5 3 4 516.076 43.7937 2
-5 3 4 596.497 50.0001 6
-5 3 4 481.439 42.8468 3
-5 3 4 542.226 43.3535 5
-5 3 4 510.619 43.8845 2
-5 3 4 571.644 48.9408 1
-4 3 4 87.8725 14.945 1
-4 3 4 98.9047 12.221 5
-4 3 4 102.178 10.743 2
-4 3 4 94.9909 16.4827 6
-4 3 4 98.5501 11.4694 3
-3 3 4 837.161 70.5641 6
-3 3 4 848.488 71.177 4
-3 3 4 859.208 70.9007 1
-3 3 4 853.066 70.3539 3
-3 3 4 833.86 68.2683 5
-3 3 4 796.48 66.823 2
-2 3 4 727.622 62.0918 3
-2 3 4 742.235 63.0266 4
-2 3 4 773.666 63.6709 6
-2 3 4 744.97 62.1841 5
-2 3 4 762.177 60.429 2
1 -3 -4 923.924 80.0364 2
1 -3 -4 885.56 81.5812 3
-1 3 4 1087.79 82.3585 3
-1 3 4 1012.09 82.2331 5
-1 3 4 1034.24 81.5188 4
-1 3 4 1032 79.9933 2
-1 3 4 1034.96 82.5693 6
0 -3 -4 527.878 44.7571 3
0 -3 -4 543.711 42.8329 2
0 3 4 516.869 45.0057 5
0 3 4 514.096 44.2571 1
0 3 4 464.573 43.8682 3
0 3 4 485.662 43.1389 4
0 3 4 503.104 42.2538 2
-1 -3 -4 721.231 57.5603 2
-1 -3 -4 710.152 59.7032 3
1 3 4 682.57 56.8667 2
1 3 4 664.3 58.0807 1
1 3 4 697.424 59.1089 3
1 3 4 687.056 59.3083 5
1 3 4 684.506 57.1388 4
-2 -3 -4 493.235 39.9115 2
-2 -3 -4 461.94 38.4355 4
-2 -3 -4 509.952 43.3963 3
2 3 4 424.766 38.2878 4
2 3 4 420.598 41.3184 5
2 3 4 411.874 40.6289 6
2 3 4 411.958 39.9831 3
2 3 4 441.979 38.6884 2
2 3 4 466.5 40.0776 1
-3 -3 -4 401.95 38.5664 3
-3 -3 -4 371.984 36.4963 4
-3 -3 -4 415.997 37.6668 2
3 3 4 414.168 39.3352 5
3 3 4 397.844 35.9142 4
3 3 4 436.707 38.399 3
3 3 4 419.712 39.621 6
3 3 4 415.886 36.6758 2
3 3 4 446.186 37.9879 1
-4 -3 -4 208.764 24.3921 1
-4 -3 -4 222.41 24.6129 2
-4 -3 -4 216.628 25.2631 4
4 3 4 212.633 29.6779 6
4 3 4 252.027 27.4136 5
4 3 4 242.632 23.9219 2
4 3 4 231.746 23.8635 1
4 3 4 248.813 25.1053 3
5 3 4 58.4378 13.3833 3
5 3 4 54.6984 11.3081 1
5 3 4 64.2557 15.0983 5
5 3 4 60.5354 12.484 2
-6 -3 -4 222.285 27.524 1
-6 -3 -4 201.165 31.4927 4
6 3 4 276.059 27.3657 3
6 3 4 234.775 26.0366 2
6 3 4 255.419 30.6948 5
-7 -3 -4 213.523 29.9315 1
-7 -3 -4 246.579 37.1971 4
7 3 4 294.425 30.2382 2
7 3 4 302.446 33.8271 5
7 3 4 353.994 31.5095 3
-8 -3 -4 27.5551 11.5243 1
8 3 4 29.6258 14.0187 5
8 3 4 19.831 11.2639 3
8 3 4 35.3257 12.0066 2
9 3 4 144.853 21.9647 3
9 3 4 186.931 26.4982 5
-8 4 4 34.923 17.3124 6
-8 4 4 42.6787 13.2371 1
-8 4 4 33.316 7.15644 2
-7 4 4 62.9305 15.6611 1
-7 4 4 93.9786 20.5244 6
-7 4 4 62.08 9.56617 2
-6 4 4 103.235 21.3592 6
-6 4 4 95.2303 12.8977 5
-6 4 4 98.2436 10.4348 2
-6 4 4 145.855 19.3313 1
-6 4 4 93.205 10.6814 2
-5 4 4 189.702 24.1264 1
-5 4 4 235.965 29.2325 4
-5 4 4 194.35 20.1745 5
-5 4 4 188.952 16.7461 2
-5 4 4 188.704 16.5942 2
-5 4 4 206.201 27.2265 6
-5 4 4 159.723 19.1297 3
-4 4 4 502.839 43.6073 5
-4 4 4 498.408 40.1974 2
-4 4 4 512.479 43.2306 3
-4 4 4 515.904 48.2288 6
-4 4 4 485.175 40.1173 2
3 -4 -4 378.396 30.2771 3
-3 4 4 307.794 32.3776 1
-3 4 4 313.135 29.6675 3
-3 4 4 307.072 30.3269 5
-3 4 4 302.55 33.5032 6
-3 4 4 289.432 25.8024 2
-3 4 4 325.457 32.4656 4
2 -4 -4 138.11 17.7523 3
-2 4 4 147.716 18.3898 4
-2 4 4 156.125 13.8291 2
-2 4 4 148.515 21.5653 6
-2 4 4 165.123 19.965 5
-2 4 4 139.6 18.0493 3
1 -4 -4 725.528 64.2603 3
-1 4 4 782.221 64.2683 3
-1 4 4 776.425 64.7869 5
-1 4 4 736.277 60.4386 2
-1 4 4 794.132 65.5631 6
-1 4 4 706.579 61.5396 4
0 -4 -4 253.116 25.572 2
0 -4 -4 238.58 28.9434 3
0 4 4 313.194 29.4376 3
0 4 4 324.177 29.7703 1
0 4 4 313.193 30.9799 5
0 4 4 289.438 25.6555 4
-1 -4 -4 426.419 35.7936 2
1 4 4 398.622 39.4259 5
1 4 4 407.741 38.4561 3
1 4 4 394.851 35.0192 2
1 4 4 390.127 37.6519 1
-2 -4 -4 340.914 29.483 2
2 4 4 278.443 28.0554 2
2 4 4 326.127 34.9975 5
2 4 4 282.876 30.8202 3
-3 -4 -4 675.577 59.2549 2
3 4 4 689.406 60.7368 3
3 4 4 642.128 59.7029 1
3 4 4 704.777 58.4356 2
3 4 4 718.833 61.7891 5
-4 -4 -4 359.367 30.2286 4
4 4 4 273.108 35.2952 2
4 4 4 337.909 37.3199 1
4 4 4 328.47 36.19 5
4 4 4 396.553 35.1979 3
5 4 4 285.855 29.0304 2
5 4 4 271.619 30.6716 3
5 4 4 292.221 33.0609 5
-6 -4 -4 147.796 21.9301 1
6 4 4 142.306 21.4041 3
6 4 4 88.3759 16.9663 2
6 4 4 166.54 25.4265 5
-7 -4 -4 112.019 20.1937 1
7 4 4 72.6806 16.2647 3
7 4 4 59.5896 14.1677 2
7 4 4 95.6626 19.8024 5
-8 -4 -4 80.5935 16.7112 1
8 4 4 12.4286 13.1906 3
-7 5 4 91.0355 27.0184 1
-6 5 4 314.921 39.2976 6
-6 5 4 315.667 36.4683 1
-6 5 4 251.366 27.5311 5
-5 5 4 45.2677 17.3184 6
-5 5 4 25.1306 11.7542 1
-5 5 4 24.8897 9.77947 5
-4 5 4 359.892 35.9656 3
-4 5 4 356.689 43.1401 6
-4 5 4 432.288 37.9437 5
-4 5 4 422.038 41.6893 1
-4 5 4 408.098 40.5255 4
3 -5 -4 149.03 23.3616 3
-3 5 4 194.071 23.4854 4
-3 5 4 179.2 27.7371 6
-3 5 4 210.968 24.1557 5
-3 5 4 212.831 25.9624 1
-3 5 4 202.508 21.8683 3
-3 5 4 188.731 23.6722 4
-2 5 4 278.329 28.4907 4
-2 5 4 354.472 36.0501 6
-2 5 4 298.66 39.0801 5
-1 5 4 77.1443 8.72498 2
-1 5 4 74.3188 15.9783 5
-1 5 4 91.2123 18.0736 6
-1 5 4 59.8356 13.4276 3
0 -5 -4 463.046 41.343 2
0 5 4 509.314 48.0136 5
0 5 4 524.629 48.561 6
0 5 4 480.143 45.5417 3
-1 -5 -4 332.311 32.6057 2
1 5 4 368.957 37.2428 3
1 5 4 382.247 32.5928 2
1 5 4 394.25 39.1526 5
-2 -5 -4 399.386 37.3664 2
2 5 4 404.92 41.1266 5
2 5 4 389.211 38.604 3
2 5 4 366.864 34.7743 2
3 5 4 134.331 20.2758 3
3 5 4 157.485 24.232 5
3 5 4 126.4 16.7182 2
4 5 4 252.102 33.0904 5
4 5 4 232.004 24.9269 2
4 5 4 227.706 28.7984 3
5 5 4 49.7806 15.9261 5
5 5 4 37.4134 11.0672 2
5 5 4 26.1136 13.3425 3
6 5 4 177.803 23.3218 2
-5 6 4 43.6333 12.6993 5
-5 6 4 53.1938 16.9122 4
-5 6 4 60.3624 22.8161 6
-4 6 4 139.225 26.3443 6
-4 6 4 138.195 22.0008 5
-4 6 4 150.972 25.0053 1
-4 6 4 138.7 22.5058 4
-3 6 4 284.948 43.7374 6
-3 6 4 292.377 33.0839 5
-3 6 4 290.617 30.8755 3
-2 6 4 22.9228 12.7023 5
-2 6 4 26.3146 11.73 3
-2 6 4 33.1284 17.7836 6
-1 6 4 282.527 30.1904 3
-1 6 4 257.724 34.8594 6
-1 6 4 255.922 33.3405 5
0 6 4 32.7006 16.4873 6
0 6 4 53.778 16.6879 5
0 6 4 40.2686 14.1767 3
1 6 4 263.475 45.7044 6
1 6 4 204.907 30.9217 5
1 6 4 192.218 27.2278 3
2 6 4 49.541 16.5769 5
2 6 4 45.6949 15.4568 3
2 6 4 57.7619 10.2498 2
3 6 4 215.39 23.2708 2
4 6 4 9.51233 8.33387 2
4 6 -5 150.851 27.5942 6
3 6 -5 7.32048 16.4532 6
2 6 -5 179.746 32.1162 5
2 6 -5 219.436 32.6672 6
1 6 -5 110.944 23.7083 5
1 6 -5 126.715 25.7876 6
0 6 -5 79.9995 20.8296 5
0 6 -5 83.3509 22.5797 6
-1 6 -5 9.37414 15.319 6
-1 6 -5 11.7283 14.9513 5
-2 6 -5 204.291 32.6337 5
-2 6 -5 144.526 28.4264 6
-3 6 -5 21.7355 20.1807 5
7 5 -5 119.871 22.9428 5
6 5 -5 113.322 31.9243 5
5 5 -5 119.617 23.1716 5
4 5 -5 83.6916 20.4197 5
3 5 -5 191.757 29.6602 5
3 5 -5 201.057 29.4019 6
-3 -5 5 190.659 25.3211 4
-3 -5 5 142.687 20.4437 2
2 5 -5 269.688 33.1934 6
2 5 -5 251.464 34.9083 5
-2 -5 5 205.804 24.0536 2
-2 -5 5 283.33 30.9338 4
1 5 -5 347.021 33.1874 4
1 5 -5 370.156 38.9463 6
1 5 -5 324.359 38.8686 5
-1 -5 5 382.861 36.6389 4
-1 -5 5 267.003 28.977 2
-1 -5 5 322.67 30.0486 2
0 5 -5 52.4797 13.3259 4
0 5 -5 48.0741 15.7455 5
0 5 -5 39.3832 15.8957 6
0 -5 5 55.3023 15.4516 4
-1 5 -5 409.348 42.0001 6
-1 5 -5 396.166 42.6331 5
1 -5 5 349.587 39.9068 4
-2 5 -5 72.6672 17.2842 4
-2 5 -5 88.2002 19.0442 5
-2 5 -5 80.4149 20.4619 6
2 -5 5 77.051 18.7911 4
-3 5 -5 126.758 25.7855 6
-3 5 -5 181.241 27.2048 5
3 -5 5 191.252 30.3184 4
-4 5 -5 121.575 22.657 5
-4 5 -5 105.947 21.4423 1
-4 5 -5 100.452 37.4283 6
-5 5 -5 233.724 30.1385 1
-5 5 -5 217.132 31.5355 5
-5 5 -5 216.751 35.9101 6
-6 5 -5 16.2439 12.9829 5
8 4 -5 84.7201 16.6726 5
-8 -4 5 49.3157 16.6161 4
-8 -4 5 99.7391 28.8527 1
7 4 -5 157.958 25.2646 5
-7 -4 5 149.025 25.2441 4
6 4 -5 133.459 24.1173 5
-6 -4 5 186.979 26.75 4
-6 -4 5 243.974 29.1005 1
5 4 -5 226.506 29.6333 5
-5 -4 5 218.521 28.8277 4
-5 -4 5 202.756 28.2476 1
4 4 -5 235.883 30.6475 5
-4 -4 5 249.786 25.6923 2
3 4 -5 270.521 32.8017 5
-3 -4 5 263.642 29.0012 2
2 4 -5 286.59 34.129 5
2 4 -5 302.958 30.1874 4
2 4 -5 283.407 33.2204 6
-2 -4 5 265.338 27.1348 2
-2 -4 5 353.173 35.3587 4
1 4 -5 504.531 45.6684 4
1 4 -5 534.056 48.6265 6
1 4 -5 503.876 50.7415 5
-1 -4 5 450.719 43.4701 2
-1 -4 5 587.302 50.9092 4
0 4 -5 202.085 26.2409 5
0 4 -5 195.434 25.7302 6
0 4 -5 197.753 23.7002 4
0 -4 5 143.064 17.7178 2
0 -4 5 205.704 27.4469 4
-1 4 -5 376.635 40.8569 6
-1 4 -5 381.216 41.6335 5
-1 4 -5 388.887 40.7405 4
1 -4 5 458.136 35.4001 2
-2 4 -5 273.965 31.5256 6
-2 4 -5 286.376 31.7317 5
-2 4 -5 291.9 33.2164 4
2 -4 5 266.093 32.2607 4
2 -4 5 216.074 22.555 2
-3 4 -5 322.154 37.6004 5
-3 4 -5 331.743 39.8834 6
3 -4 5 356.895 30.8998 2
3 -4 5 442.197 41.3335 4
-4 4 -5 183.795 24.0161 1
-4 4 -5 148.062 26.3381 6
-4 4 -5 199.52 26.2918 5
4 -4 5 143.996 27.6094 4
-5 4 -5 187.821 29.2161 6
-5 4 -5 133.596 21.5098 1
-5 4 -5 167.612 24.9377 5
-6 4 -5 104.035 30.7644 6
-6 4 -5 129.858 20.4596 1
-7 4 -5 10.2644 10.1481 1
7 -4 5 2.16848 4.52394 2
9 3 -5 51.8546 13.8618 5
-9 -3 5 53.6307 16.3477 4
-9 -3 5 66.9692 17.5746 1
-8 -3 5 210.104 30.8574 4
-8 -3 5 253.215 30.6428 1
7 3 -5 201.283 26.8859 5
-7 -3 5 200.953 28.4485 4
-7 -3 5 256.253 29.1707 1
6 3 -5 483.794 44.4343 5
-6 -3 5 434.139 44.666 4
-6 -3 5 454.89 42.7967 5
-6 -3 5 475.758 46.4241 1
5 3 -5 196.794 24.8746 6
5 3 -5 162.132 24.5509 5
-5 -3 5 200.083 26.2036 4
-5 -3 5 233.422 28.4548 1
-5 -3 5 178.365 23.192 3
-5 -3 5 198.962 22.5087 5
4 3 -5 587.343 50.3403 1
4 3 -5 528.678 48.1598 6
4 3 -5 539.152 50.0115 5
-4 -3 5 453.387 46.3775 2
-4 -3 5 470.012 47.2351 3
-4 -3 5 554.682 51.1872 1
-4 -3 5 619.577 50.9181 4
-4 -3 5 585.339 48.3619 5
3 3 -5 220.805 22.1006 1
-3 -3 5 157.816 26.2657 5
-3 -3 5 191.526 23.9324 4
-3 -3 5 128.437 18.8032 3
-3 -3 5 152.469 21.0117 1
2 3 -5 1525.13 133.024 5
2 3 -5 1734.24 132.179 6
2 3 -5 1575.24 132.946 1
2 3 -5 1733.22 132.393 4
-2 -3 5 1587.32 131.533 3
1 3 -5 272.22 27.5288 1
1 3 -5 234.963 28.7354 5
1 3 -5 292.143 28.8244 4
1 3 -5 267.731 27.3708 6
0 3 -5 475.864 44.2365 4
0 3 -5 461.449 44.6188 5
0 3 -5 499.092 43.5732 6
0 3 -5 466.303 43.2538 1
0 -3 5 573.896 48.6934 4
0 -3 5 430.434 41.8965 3
0 -3 5 444.932 40.4911 2
-1 3 -5 588.271 51.353 5
-1 3 -5 581.704 50.5718 6
-1 3 -5 618.741 52.5747 4
1 -3 5 629.235 55.2247 4
1 -3 5 514.965 49.478 5
1 -3 5 468.267 46.5945 2
-2 3 -5 1015.62 92.282 4
-2 3 -5 1116.97 91.1212 5
-2 3 -5 1096 90.9265 6
2 -3 5 904.218 90.4047 2
2 -3 5 1216.83 94.1662 4
2 -3 5 1149.56 90.4626 5
-3 3 -5 147.519 26.5275 4
-3 3 -5 161.448 24.5193 6
-3 3 -5 145.731 22.6375 5
3 -3 5 188.861 21.6882 5
3 -3 5 157.78 22.2904 6
3 -3 5 187.133 27.506 4
3 -3 5 162.1 16.8208 2
-4 3 -5 591.034 73.2795 6
-4 3 -5 639.898 58.6425 1
-4 3 -5 669.595 59.167 5
-4 3 -5 665.32 54.7492 2
4 -3 5 662.377 63.2329 4
4 -3 5 690.187 55.0929 2
-5 3 -5 138.085 14.7637 2
-5 3 -5 108.314 17.7269 1
-5 3 -5 148.218 24.2667 6
-5 3 -5 118.355 25.1188 5
5 -3 5 139.362 26.5868 4
5 -3 5 115.911 14.5827 2
-6 3 -5 560.178 55.4769 1
-6 3 -5 652.326 55.7525 2
-6 3 -5 612.981 59.3888 6
6 -3 5 631.459 52.5973 2
-7 3 -5 128.023 35.8593 6
-7 3 -5 123.652 20.146 1
7 -3 5 135.071 17.1323 2
-8 3 -5 123.418 21.3702 1
8 -3 5 137.585 18.2468 2
10 2 -5 3.07385 6.31252 5
-10 -2 5 37.7238 18.6146 4
-9 -2 5 163.627 18.8875 3
-9 -2 5 151.3 26.7101 4
8 2 -5 116.994 18.3589 5
-8 -2 5 178.045 22.8283 1
-8 -2 5 118.651 22.7262 4
-8 -2 5 109.772 15.3469 3
7 2 -5 473.889 43.6211 5
7 2 -5 462.033 45.6369 6
-7 -2 5 496.841 44.3593 3
-7 -2 5 430.858 47.5118 4
-7 -2 5 546.923 47.9651 1
6 2 -5 131.429 18.39 6
6 2 -5 120.915 17.2798 5
-6 -2 5 93.1032 13.8212 3
-6 -2 5 109.159 15.6367 5
-6 -2 5 122.297 18.1897 1
-6 -2 5 88.1846 17.8785 4
5 2 -5 457.322 41.583 6
5 2 -5 412.177 41.9415 1
5 2 -5 417.612 41.5162 5
-5 -2 5 521.555 44.3243 1
-5 -2 5 471.836 40.8159 2
-5 -2 5 397.802 39.7147 3
-5 -2 5 501.447 40.4717 5
-5 -2 5 474.344 44.3828 4
4 2 -5 444.107 40.4792 6
4 2 -5 424.408 41.4071 5
4 2 -5 453.488 41.5161 1
-4 -2 5 500.806 40.1651 5
-4 -2 5 420.38 39.4545 3
-4 -2 5 477.05 43.1291 4
-4 -2 5 460.258 42.3873 1
3 2 -5 1444.26 112.416 5
3 2 -5 1349.84 112.178 1
-3 -2 5 1193.88 110.457 3
-3 -2 5 1282.88 112.639 1
-3 -2 5 1587.38 114.305 4
-3 -2 5 1422.03 110.956 5
2 2 -5 51.1593 11.1228 5
2 2 -5 48.2875 11.4549 4
2 2 -5 50.88 9.4416 1
-2 -2 5 42.3756 9.4492 1
-2 -2 5 48.7738 9.07566 5
-2 -2 5 45.4272 12.1271 4
1 2 -5 2019.01 167.369 1
1 2 -5 2235.69 169.161 4
1 2 -5 1973.32 166.159 6
1 2 -5 2016.84 168.149 5
-1 -2 5 2273.7 170.354 4
-1 -2 5 2139.3 167.356 5
0 2 -5 854.231 67.8623 1
0 2 -5 782.283 68.48 5
0 2 -5 810.582 69.7155 4
0 2 -5 795.603 66.9934 6
0 -2 5 851.421 71.5233 4
0 -2 5 812.554 67.6993 5
0 -2 5 795.303 67.9361 2
-1 2 -5 2254.32 176.351 4
-1 2 -5 2119.46 174.312 5
-1 2 -5 2219.33 173.505 6
1 -2 5 2141.2 173.176 6
1 -2 5 2060.88 173.717 2
1 -2 5 2117.66 173.768 5
1 -2 5 2397.46 178.361 4
-2 2 -5 37.42 10.3063 5
-2 2 -5 25.645 11.7683 4
-2 2 -5 42.491 11.3576 6
-2 2 -5 41.171 7.39906 2
2 -2 5 52.9332 8.55232 2
2 -2 5 47.9785 10.2101 5
2 -2 5 48.7691 15.6486 4
2 -2 5 62.5779 11.7701 6
-3 2 -5 1079.83 97.0615 1
-3 2 -5 1158.19 98.1801 5
-3 2 -5 1160.88 98.6684 6
-3 2 -5 1153.77 95.8042 2
-3 2 -5 1033.32 101.813 4
3 -2 5 1322.26 98.177 5
3 -2 5 1225.04 102.144 4
3 -2 5 1402.86 96.8025 2
-4 2 -5 592.909 54.6659 1
-4 2 -5 639.269 53.3648 2
-4 2 -5 615.299 57.0205 6
4 -2 5 651.795 56.0004 5
4 -2 5 648.681 56.5645 6
4 -2 5 628.649 60.3691 4
4 -2 5 670.118 53.8999 2
-5 2 -5 643.684 57.0717 1
-5 2 -5 710.07 60.965 6
-5 2 -5 645.828 55.0078 2
5 -2 5 599.236 62.4616 4
5 -2 5 696.613 55.8616 2
5 -2 5 631.369 57.4891 5
-6 2 -5 240.881 26.9136 1
-6 2 -5 231.423 29.3671 6
-6 2 -5 203.541 22.1064 2
6 -2 5 183.268 32.9482 4
6 -2 5 216.87 22.9033 2
-7 2 -5 163.857 22.5609 1
-7 2 -5 220.9 30.1014 6
7 -2 5 187.264 21.7314 2
-8 2 -5 92.5251 21.472 6
-8 2 -5 90.1419 17.742 1
8 -2 5 114.572 17.1313 2
-9 2 -5 159.058 23.6355 1
9 -2 5 172.725 21.6241 2
-10 -1 5 176.91 25.9574 1
-9 -1 5 27.3768 6.6576 3
-9 -1 5 35.9206 13.2876 1
8 1 -5 365.991 29.6028 5
-8 -1 5 282.262 29.2861 3
-8 -1 5 357.83 36.1234 1
7 1 -5 8.98094 5.9979 5
7 1 -5 -0.5378 9.01681 6
-7 -1 5 3.61707 4.58654 3
-7 -1 5 3.04224 11.4676 4
-7 -1 5 2.74659 7.19663 1
6 1 -5 797.734 57.9203 5
6 1 -5 793.518 60.7391 6
6 1 -5 767.408 62.1025 1
-6 -1 5 644.244 56.5243 5
-6 -1 5 640.65 57.013 3
-6 -1 5 684.22 60.982 1
-6 -1 5 620.08 62.495 4
-6 -1 5 628.513 59.0038 2
5 1 -5 145.255 16.7513 5
5 1 -5 127.786 17.3526 6
5 1 -5 140.726 17.7435 1
-5 -1 5 165.134 22.2534 2
-5 -1 5 156.876 15.7888 5
-5 -1 5 133.935 14.9195 3
-5 -1 5 173.169 18.8198 1
-5 -1 5 170.414 22.7361 4
4 1 -5 2081.49 158.317 6
4 1 -5 1991.13 158.247 5
4 1 -5 1891.35 159.828 1
-4 -1 5 1863.12 157.674 3
-4 -1 5 2055.48 161.737 4
-4 -1 5 2064.48 157.513 5
-4 -1 5 2051.22 160.245 1
3 1 -5 7.25448 4.65426 6
3 1 -5 8.26585 5.91465 5
3 1 -5 4.33611 4.03739 1
-3 -1 5 22.9685 6.76813 5
-3 -1 5 16.1925 6.12364 1
-3 -1 5 19.1389 8.61861 4
2 1 -5 1231.81 106.105 1
2 1 -5 1290.47 106.542 5
2 1 -5 1338.93 108.486 4
-2 -1 5 1344.56 105.912 5
-2 -1 5 1293 106.416 1
-2 -1 5 1483.99 109.482 4
1 1 -5 575.725 47.5305 5
1 1 -5 543.372 45.1352 6
1 1 -5 515.558 48.5759 4
1 1 -5 518.736 46.0335 1
-1 -1 5 588.285 46.9545 5
-1 -1 5 629.318 48.6809 2
0 1 -5 2880.1 217.421 1
0 1 -5 2398.75 219.635 4
0 1 -5 2771.66 216.989 6
0 1 -5 2785.83 219.073 5
0 -1 5 2743.07 217.934 2
0 -1 5 3143.18 223.984 4
0 -1 5 2689.66 216.782 6
0 -1 5 2826.86 218.493 5
-1 1 -5 205.36 20.3525 6
-1 1 -5 201.659 19.5546 2
-1 1 -5 204.453 21.7504 5
-1 1 -5 204.788 24.3867 4
1 -1 5 226.619 26.7927 4
1 -1 5 225.009 20.3133 6
1 -1 5 212.363 21.167 5
-2 1 -5 1144.49 86.4922 1
-2 1 -5 1107.43 91.35 4
-2 1 -5 1228.32 87.1054 2
-2 1 -5 1227.22 88.0919 6
2 -1 5 953.133 91.6106 4
2 -1 5 984.258 87.5229 5
2 -1 5 956.447 86.624 2
2 -1 5 996.47 87.1585 6
-3 1 -5 134.741 15.0422 1
-3 1 -5 147.198 24.0024 4
-3 1 -5 148.159 18.5148 6
-3 1 -5 135.571 15.0657 2
3 -1 5 121.582 21.2087 4
3 -1 5 155.421 17.7489 5
3 -1 5 156.404 18.1766 6
3 -1 5 162.067 16.137 2
-4 1 -5 829.547 89.1267 4
-4 1 -5 1013.05 81.4155 1
-4 1 -5 1131 84.0483 6
-4 1 -5 1024.58 81.3051 2
4 -1 5 989.809 83.0516 6
4 -1 5 1009.31 82.4843 5
4 -1 5 875.41 86.2679 4
4 -1 5 1033.53 81.6177 2
-5 1 -5 18.8567 11.2067 6
-5 1 -5 33.1161 25.8009 4
-5 1 -5 19.4963 7.51045 2
5 -1 5 57.978 11.6819 5
5 -1 5 43.2067 16.0669 4
5 -1 5 41.9647 9.6144 2
5 -1 5 46.8263 12.0955 6
-6 1 -5 350.59 41.5483 6
6 -1 5 389.342 44.2359 4
6 -1 5 455.701 38.9969 2
6 -1 5 452.823 40.221 5
-7 1 -5 45.646 17.1014 6
-7 1 -5 30.147 9.9458 1
7 -1 5 42.6757 9.61176 3
7 -1 5 27.0111 9.87291 2
-8 1 -5 275.114 33.064 1
-8 1 -5 274.584 37.4634 6
8 -1 5 332.547 33.4265 2
8 -1 5 378.613 30.8509 3
-9 1 -5 32.9991 18.5308 6
-9 1 -5 18.7868 9.98496 1
9 -1 5 7.6697 5.68563 3
-10 0 5 -7.0996 10.0526 1
-10 0 5 5.7522 11.3536 6
-9 0 5 266.79 33.6312 6
-9 0 5 363.873 36.0376 1
-8 0 5 4.51345 10.237 6
-8 0 5 -6.0853 6.10716 1
7 0 -5 690.489 57.8221 6
-7 0 5 701.515 58.6522 1
-7 0 5 569.478 51.9684 3
-7 0 5 670.829 57.0215 6
6 0 -5 1.17957 5.72811 1
6 0 -5 -0.7066 6.98229 6
-6 0 5 -0.4774 3.19665 3
-6 0 5 3.88122 5.94708 1
-6 0 5 -1.214 7.00692 6
-6 0 5 -1.0103 4.681 2
5 0 -5 1179.39 98.1013 1
5 0 -5 1147.77 96.2545 6
-5 0 5 1240.02 96.1783 6
-5 0 5 1218.17 93.4638 5
-5 0 5 1207.93 97.6515 1
-5 0 5 1160.39 100.212 4
4 0 -5 3.0034 4.34439 1
4 0 -5 2.39882 4.40924 6
-4 0 5 3.38609 7.61266 4
-4 0 5 -0.9406 3.95791 6
-4 0 5 1.77846 3.86776 1
-4 0 5 2.67936 2.97098 5
3 0 -5 1776.4 125.131 1
3 0 -5 1690.11 122.786 6
-3 0 5 1410.29 123.01 5
-3 0 5 1448.53 124.328 1
-3 0 5 1512.34 127.172 4
2 0 -5 -0.0921 2.19289 1
2 0 -5 -3.3346 5.96139 4
-2 0 5 5.51296 3.83503 5
-2 0 5 2.92255 7.21542 4
-2 0 5 3.39764 3.02617 1
1 0 -5 4782.79 360.05 4
1 0 -5 4626.6 356.279 1
-1 0 5 4841.4 358.146 5
-1 0 5 4663.88 360.525 4
-1 0 5 4178.54 356.296 1
-1 0 5 4477.5 358.149 2
0 0 -5 2.12435 2.75796 2
0 0 -5 -0.603 2.70536 6
0 0 -5 -1.256 5.77324 4
0 0 5 3.33716 3.46023 2
0 0 5 0.57696 3.9686 5
0 0 5 2.52847 6.43485 4
0 0 5 3.56917 2.78038 6
-1 0 -5 1684.78 125.315 4
-1 0 -5 1710.77 122.312 2
-1 0 -5 1676.71 121.312 6
-1 0 -5 1549.18 119.331 1
1 0 5 1316.9 127.068 4
1 0 5 1402.9 122.168 5
1 0 5 1485.04 122.003 2
1 0 5 1428.03 120.921 6
-2 0 -5 4.90112 5.57543 6
-2 0 -5 -1.0308 2.97782 2
-2 0 -5 -7.318 6.85805 4
-2 0 -5 0.12644 2.05681 1
2 0 5 -0.0907 7.76613 4
2 0 5 -0.5496 4.34819 5
2 0 5 -1.885 3.0298 2
-3 0 -5 1430.44 132.219 4
-3 0 -5 1406.3 126.285 1
-3 0 -5 1568.65 128.436 6
-3 0 -5 1603.87 128.164 2
3 0 5 1766.8 128.502 2
3 0 5 1735.14 128.994 5
3 0 5 1602.81 132.172 4
3 0 5 1708.25 128.67 6
-4 0 -5 -2.3407 7.92535 6
-4 0 -5 7.39293 10.4304 4
-4 0 -5 0.41423 4.27384 2
-4 0 -5 1.15155 3.7115 1
4 0 5 1.0998 3.7094 1
4 0 5 -3.1135 6.39367 6
4 0 5 9.09463 11.299 4
4 0 5 0.50767 5.76624 5
4 0 5 -2.5675 4.01033 2
-5 0 -5 973.301 75.9564 2
-5 0 -5 841.534 74.2529 1
-5 0 -5 895.295 82.8341 4
-5 0 -5 986.903 77.9352 6
5 0 5 856.456 76.4987 6
5 0 5 935.047 75.5316 2
5 0 5 882.426 76.042 5
5 0 5 918.409 74.6993 1
5 0 5 949.879 74.8399 3
5 0 5 767.23 78.2882 4
-6 0 -5 4.10144 12.1972 6
-6 0 -5 0.20418 5.06256 1
6 0 5 3.86918 5.37375 1
6 0 5 -0.9066 5.53983 3
6 0 5 -0.1375 8.07251 5
6 0 5 5.1578 12.2811 4
6 0 5 -0.6002 10.4999 2
-7 0 -5 523.231 48.3423 6
-7 0 -5 503.557 44.046 1
7 0 5 463.191 44.2834 2
7 0 5 422.592 41.8331 3
-8 0 -5 -27.101 11.8098 6
-8 0 -5 -2.4802 6.71734 1
8 0 5 -2.3482 8.16865 2
8 0 5 -10.448 5.9002 3
-9 0 -5 118.269 25.1759 6
-9 0 -5 157.138 22.05 1
9 0 5 166.909 19.8473 3
9 0 5 162.045 22.6679 2
-10 1 5 174.04 24.5813 1
-10 1 5 137.714 24.8852 6
-9 1 5 13.4417 13.4451 6
-9 1 5 38.773 13.1617 1
8 -1 -5 350.538 36.0479 6
-8 1 5 374.858 36.0316 1
-8 1 5 276.362 34.2432 6
7 -1 -5 0.69661 8.76409 6
-7 1 5 8.75032 5.7671 2
-7 1 5 6.06305 9.22736 6
6 -1 -5 805.438 59.3536 6
6 -1 -5 774.123 60.6394 1
-6 1 5 701.455 58.0229 2
-6 1 5 670.39 59.6911 1
-6 1 5 671.533 58.4988 6
-6 1 5 632.167 53.9005 3
-6 1 5 600.622 53.7548 3
5 -1 -5 125.835 15.9176 6
5 -1 -5 118.661 15.7061 1
-5 1 5 158.567 16.876 6
4 -1 -5 1863.71 156.742 1
4 -1 -5 1976.87 155.383 6
-4 1 5 2058.09 156.842 1
-4 1 5 2010.2 155.466 6
-4 1 5 1944.5 159.331 4
-3 1 5 20.8967 5.24017 1
-3 1 5 15.2735 7.6106 4
-3 1 5 19.1212 5.02584 6
-3 1 5 20.7515 4.58838 5
-2 1 5 1303.76 98.4014 1
-2 1 5 1269 99.2855 2
-2 1 5 1162.58 102.628 4
-2 1 5 1225.17 97.4644 6
1 -1 -5 520.702 49.9011 4
-1 1 5 583.628 48.0633 2
-1 1 5 603.148 50.6443 4
-1 1 5 583.555 46.2876 6
-1 1 5 602.124 46.2661 1
0 -1 -5 2592.65 209.102 4
0 -1 -5 2715.97 207.377 2
0 1 5 2717 209.533 4
0 1 5 2533.73 205.757 6
-1 -1 -5 186.184 18.6165 2
-1 -1 -5 178.1 21.2804 4
1 1 5 208.653 23.8514 4
1 1 5 184.904 18.423 6
1 1 5 223.098 19.3628 2
-2 -1 -5 1019.65 77.8073 1
-2 -1 -5 1133.39 80.537 2
-2 -1 -5 1089.09 83.0855 4
-2 -1 -5 1154.34 80.4998 6
2 1 5 867.625 82.4808 4
2 1 5 885.842 79.7793 3
2 1 5 923.659 77.3895 1
2 1 5 913.993 79.5516 2
2 1 5 858.474 79.3997 6
-3 -1 -5 116.759 13.765 1
-3 -1 -5 142.134 21.1032 4
-3 -1 -5 141.553 15.5573 2
-3 -1 -5 159.898 18.9247 6
3 1 5 146.039 15.7695 2
3 1 5 138.387 15.777 3
3 1 5 134.051 16.9337 6
3 1 5 120.939 19.7547 4
3 1 5 141.193 13.7344 1
-4 -1 -5 1026.73 81.3056 1
-4 -1 -5 1102.8 88.0111 4
-4 -1 -5 1070.99 83.273 2
-4 -1 -5 1119.66 84.0956 6
4 1 5 864.668 84.1732 4
4 1 5 945.054 81.8488 2
4 1 5 1045.56 82.4907 3
4 1 5 973.546 80.5359 1
4 1 5 835.251 82.4896 6
-5 -1 -5 16.139 14.7509 4
-5 -1 -5 20.3852 9.43765 2
-5 -1 -5 19.9566 11.5448 6
-5 -1 -5 21.6926 7.52972 1
5 1 5 39.7186 9.55853 2
5 1 5 58.7371 11.0387 3
5 1 5 41.2426 8.26276 1
5 1 5 27.3681 11.6999 4
5 1 5 32.055 11.3367 6
-6 -1 -5 339.062 36.9513 1
-6 -1 -5 326.592 40.1359 6
6 1 5 431.157 37.3639 3
6 1 5 405.512 42.4487 4
6 1 5 442.414 37.481 1
6 1 5 461.813 38.8905 2
-7 -1 -5 19.1742 13.7313 6
-7 -1 -5 39.7899 10.9289 1
7 1 5 44.7382 11.7871 2
7 1 5 40.0073 10.3586 3
-8 -1 -5 269.51 37.3299 6
-8 -1 -5 288.834 33.6182 1
8 1 5 343.311 34.5256 2
8 1 5 369.48 32.2613 3
-9 -1 -5 13.9905 15.8941 6
-9 -1 -5 17.9862 10.7805 1
9 1 5 23.933 9.90432 3
9 1 5 16.4778 11.3944 2
9 1 5 23.4491 12.8786 5
-10 2 5 25.3815 15.2343 6
-9 2 5 184.051 29.4973 6
-9 2 5 202.427 26.6864 1
-8 2 5 154.875 21.8187 1
-8 2 5 136.418 23.1229 6
7 -2 -5 522.074 49.1509 6
-7 2 5 607.814 50.5559 1
-7 2 5 508.537 49.5313 6
-7 2 5 502.331 45.9329 2
6 -2 -5 121.928 18.4789 6
-6 2 5 117.932 13.8808 2
-6 2 5 122.959 16.7976 1
-6 2 5 103.513 17.6406 6
5 -2 -5 427.767 41.5356 6
-5 2 5 472.209 42.5048 6
-5 2 5 534.17 43.2355 1
-5 2 5 452.076 38.1653 3
4 -2 -5 430.098 39.5462 6
-4 2 5 510.055 41.1585 1
-4 2 5 424.329 48.3437 6
-4 2 5 462.98 43.4341 4
-4 2 5 445.201 37.8347 3
-4 2 5 455.214 37.0132 5
-3 2 5 1403.17 107.936 4
-3 2 5 1343.43 105.394 1
-3 2 5 1308.79 103.639 5
-3 2 5 1295.26 104.832 6
-3 2 5 1199.02 103.964 3
-2 2 5 50.2805 10.462 4
-2 2 5 61.0228 9.26645 6
-2 2 5 50.0432 7.89411 2
-2 2 5 39.7174 8.25902 5
-2 2 5 47.9205 8.20889 1
1 -2 -5 1992.21 150.966 2
-1 2 5 1898.45 152.441 4
-1 2 5 2010.5 150.466 1
-1 2 5 1856.72 150.6 2
-1 2 5 1793.61 151.08 3
-1 2 5 1890.98 150.606 6
0 -2 -5 775.089 62.4323 2
0 -2 -5 750.12 65.8842 4
0 2 5 787.313 61.5205 1
0 2 5 771.669 63.0636 3
0 2 5 726.201 63.7815 4
0 2 5 734.601 62.0141 2
-1 -2 -5 2010.97 154.828 2
1 2 5 1960.37 153.445 1
1 2 5 1988.99 156.491 4
1 2 5 1973.45 154.578 2
1 2 5 1954.4 155.456 3
1 2 5 1817.67 154.45 6
-2 -2 -5 33.9472 8.17458 2
-2 -2 -5 28.5474 9.6161 4
2 2 5 53.9736 10.5753 6
2 2 5 66.7187 11.0036 3
2 2 5 53.2332 12.6532 4
2 2 5 53.4987 7.91426 1
2 2 5 60.7024 9.7568 2
-3 -2 -5 1142.57 97.9348 2
-3 -2 -5 1016.77 98.3535 4
-3 -2 -5 1045.75 96.2205 1
3 2 5 1369.5 96.7556 1
3 2 5 1188.78 98.7009 4
3 2 5 1345.28 98.5815 3
3 2 5 1246.5 97.3421 2
3 2 5 1235.81 98.9566 6
-4 -2 -5 546.317 54.4888 4
-4 -2 -5 627.411 52.8618 2
-4 -2 -5 555.141 50.9879 1
4 2 5 632.965 51.012 1
4 2 5 580.437 52.9654 4
4 2 5 657.795 52.7169 3
4 2 5 574.269 53.7113 6
4 2 5 614.392 51.9502 2
-5 -2 -5 613.869 59.587 4
-5 -2 -5 670.151 54.5191 1
5 2 5 570.088 55.5155 4
5 2 5 669.794 54.8814 3
5 2 5 587.603 53.7293 2
5 2 5 603.682 53.187 1
-6 -2 -5 227.841 25.0925 1
-6 -2 -5 165.102 32.096 4
6 2 5 231.151 24.5069 2
6 2 5 199.946 24.262 3
6 2 5 233.338 24.0529 1
-7 -2 -5 209.172 29.0819 1
7 2 5 164.681 22.5976 2
7 2 5 189.267 27.4841 5
7 2 5 175.909 21.852 3
-8 -2 -5 118.965 19.9578 1
8 2 5 101.859 19.4318 5
8 2 5 89.1336 16.8309 2
8 2 5 111.27 17.9706 3
-9 -2 -5 113.573 21.6555 1
9 2 5 163.882 25.7829 5
9 2 5 177 20.5573 3
-9 3 5 67.5675 16.8333 1
-9 3 5 53.5732 17.25 6
-8 3 5 309.042 32.1652 1
-8 3 5 214.849 24.9063 2
-8 3 5 282.361 32.6637 6
-7 3 5 218.62 23.3537 2
-7 3 5 240.803 30.7388 6
-7 3 5 264.889 28.5728 1
6 -3 -5 560.959 46.122 6
-6 3 5 414.853 39.846 2
-6 3 5 422.746 44.7543 6
-6 3 5 513.975 45.3883 1
5 -3 -5 235.371 24.9316 6
-5 3 5 212.806 18.9175 3
-5 3 5 178.95 19.3787 2
-5 3 5 191.304 19.4432 2
-5 3 5 210.163 25.7619 6
-5 3 5 219.925 24.1223 1
-5 3 5 214.694 18.7607 5
-4 3 5 553.475 46.2732 5
-4 3 5 527.343 49.6084 6
-4 3 5 590.56 52.1501 4
-4 3 5 556.468 49.4847 1
-3 3 5 141.121 20.0398 4
-3 3 5 150.729 19.26 6
-3 3 5 141.576 15.8779 3
-3 3 5 133.155 14.312 2
-3 3 5 144.27 17.1833 5
-3 3 5 161.851 18.0998 1
-2 3 5 1708.84 134.974 2
-2 3 5 1714.01 136.307 5
-2 3 5 1663.77 136.323 3
-2 3 5 1710.51 137.128 6
-2 3 5 1836.16 137.451 1
-2 3 5 1613 136.805 4
1 -3 -5 282.004 27.3638 2
-1 3 5 312.138 29.9429 4
-1 3 5 325.099 29.3531 3
-1 3 5 307.362 29.9856 6
-1 3 5 329.642 30.1143 5
0 -3 -5 465.605 38.2901 2
0 3 5 441.408 37.7453 2
0 3 5 447.417 40.3008 5
0 3 5 433.923 38.6227 1
0 3 5 419.1 39.3345 4
0 3 5 425.905 39.1847 3
-1 -3 -5 513.743 41.7177 4
-1 -3 -5 539.981 41.4015 2
1 3 5 454.721 40.7977 1
1 3 5 448.454 40.4099 2
1 3 5 423.474 41.8403 4
1 3 5 460.168 42.9907 5
1 3 5 457.753 42.1069 3
-2 -3 -5 1012.34 85.9436 2
-2 -3 -5 992.847 85.2159 4
2 3 5 1064.63 85.303 2
2 3 5 1004.14 86.6753 6
2 3 5 1059.5 85.4817 1
2 3 5 1069.33 86.9988 3
2 3 5 1133.01 87.8138 5
2 3 5 1033.79 85.5162 4
-3 -3 -5 119.196 18.3862 4
-3 -3 -5 149.059 17.9552 2
3 3 5 161.052 21.7344 6
3 3 5 169.004 17.9199 2
3 3 5 150.677 21.5249 5
3 3 5 130.095 18.4485 3
3 3 5 163.32 17.3595 1
3 3 5 157.37 18.4255 4
-4 -3 -5 560.867 55.8832 4
-4 -3 -5 623.53 55.8412 1
4 3 5 649.028 55.2497 4
4 3 5 665.879 56.7339 3
4 3 5 655.79 55.5607 2
4 3 5 669.222 55.4539 1
4 3 5 665.794 57.874 5
-5 -3 -5 97.2636 18.4514 4
-5 -3 -5 126.375 17.8659 1
5 3 5 119.388 17.0158 3
5 3 5 123.288 16.9862 2
5 3 5 120.699 16.2464 1
5 3 5 108.7 19.9178 5
-6 -3 -5 602.99 55.3583 1
-6 -3 -5 510.325 58.7488 4
6 3 5 621.679 54.1837 2
6 3 5 663.465 54.9314 3
6 3 5 613.004 56.8101 5
-7 -3 -5 102.194 19.2732 1
7 3 5 135.125 21.9608 5
7 3 5 146.35 24.3496 2
7 3 5 127.873 19.6933 3
-8 -3 -5 133.428 21.3411 1
8 3 5 126.427 23.1718 5
-8 4 5 68.2747 18.9481 6
-8 4 5 87.8374 17.5231 1
-8 4 5 70.6906 10.9717 2
-7 4 5 181.51 26.4755 1
-7 4 5 186.413 18.7299 2
-7 4 5 227.882 31.3493 6
-7 4 5 188.93 18.4748 2
-6 4 5 142.111 25.9919 6
-6 4 5 194.069 24.4183 1
-6 4 5 192.299 18.3691 5
-6 4 5 201.738 18.139 2
-5 4 5 191.628 18.1613 2
-5 4 5 191.825 19.4227 3
-5 4 5 196.938 20.392 5
-5 4 5 215.847 28.5478 4
-5 4 5 233.519 25.7591 1
-4 4 5 286.835 25.468 2
-4 4 5 302.52 40.0323 1
-4 4 5 287.772 27.6575 3
-4 4 5 304.961 28.6903 5
-4 4 5 289.705 33.1301 6
-4 4 5 321.028 34.2985 4
-3 4 5 335.164 31.0876 3
-3 4 5 306.896 34.5693 6
-3 4 5 332.383 33.4689 4
-3 4 5 359.951 33.7194 1
-3 4 5 321.379 27.9168 2
-3 4 5 314.328 31.4155 5
-2 4 5 296.586 32.6275 6
-2 4 5 309.198 31.1584 4
-2 4 5 334.149 30.5089 3
-2 4 5 330.873 31.2102 5
-2 4 5 295.856 26.8239 2
-1 4 5 447.151 40.3103 6
-1 4 5 406.873 37.8096 4
-1 4 5 395.296 39.4436 5
-1 4 5 425.473 36.6087 2
-1 4 5 418.938 38.7211 3
-1 4 5 414.216 38.8018 1
0 4 5 140.282 17.6586 4
0 4 5 152.471 17.8388 1
0 4 5 131.089 20.5497 5
0 4 5 137.747 14.9074 2
0 4 5 136.407 17.7589 3
-1 -4 -5 349.559 36.9592 2
1 4 5 397.797 41.5753 3
1 4 5 458.504 39.335 1
1 4 5 443.649 37.2621 2
1 4 5 448.185 36.3074 4
-2 -4 -5 285.34 25.2446 2
2 4 5 225.512 27.9351 5
2 4 5 239.092 21.6364 4
2 4 5 245.359 26.3356 3
2 4 5 226.948 25.4841 1
2 4 5 230.534 23.7521 2
-3 -4 -5 294.244 31.038 4
3 4 5 371.683 33.756 2
3 4 5 379.618 37.4781 5
3 4 5 393.246 35.8251 3
3 4 5 388.46 34.9017 1
4 4 5 140.109 17.1667 2
4 4 5 121.258 16.8368 1
4 4 5 99.8301 19.1488 5
4 4 5 96.4353 17.7405 3
5 4 5 154.857 24.8869 5
5 4 5 153.869 19.8977 2
5 4 5 140.839 21.1093 3
-6 -4 -5 145.644 21.8364 1
6 4 5 181.821 33.4339 3
6 4 5 157.573 25.8672 5
6 4 5 139.999 20.4249 2
-7 -4 -5 19.7686 11.3656 1
7 4 5 31.0872 12.864 3
7 4 5 33.8058 10.8793 2
7 4 5 28.4003 15.5828 5
-7 5 5 157.997 27.5827 6
-7 5 5 146.12 27.4181 4
-6 5 5 49.0789 16.9715 1
-6 5 5 54.1786 18.0512 6
-6 5 5 47.3486 10.0559 5
-6 5 5 52.0224 17.8539 4
-5 5 5 81.5782 13.4283 5
-5 5 5 86.9706 13.1236 3
-5 5 5 79.7325 17.8308 1
-5 5 5 76.7494 19.7193 6
-5 5 5 104.798 22.7616 4
-4 5 5 135.099 17.7916 3
-4 5 5 160.372 24.0214 4
-4 5 5 141.489 22.7517 4
-4 5 5 121.207 19.2935 5
-4 5 5 136.103 23.1513 6
-4 5 5 165.119 22.578 1
-3 5 5 177.997 22.5367 4
-3 5 5 177.763 23.5448 4
-3 5 5 171.554 23.0214 3
-3 5 5 202.432 24.5617 1
-3 5 5 152.851 25.3935 6
-3 5 5 167.325 22.7663 5
-2 5 5 248.045 28.4086 5
-2 5 5 222.379 25.2361 3
-2 5 5 218.619 20.0157 2
-2 5 5 259.507 31.6942 6
-2 5 5 233.064 24.6308 4
-1 5 5 290.833 34.3964 6
-1 5 5 255.797 30.383 3
-1 5 5 310.09 29.496 2
-1 5 5 319.233 26.1317 4
-1 5 5 261.124 26.4502 4
-1 5 5 295.811 32.7309 5
0 -5 -5 73.4365 10.7106 2
0 5 5 41.4553 8.61723 2
0 5 5 56.0114 15.8677 6
0 5 5 65.7462 15.4664 5
0 5 5 61.9459 14.3709 3
-1 -5 -5 373.816 31.044 2
1 5 5 297.454 35.6876 5
1 5 5 325.477 34.5794 3
1 5 5 298.224 29.6223 2
-2 -5 -5 68.3786 12.2896 2
2 5 5 49.4472 13.7674 3
2 5 5 71.0626 12.1494 2
2 5 5 61.5406 16.5388 5
3 5 5 144.335 17.9903 2
3 5 5 142.176 23.1585 3
3 5 5 140.103 23.4916 5
4 5 5 79.2994 19.2637 5
4 5 5 132.913 19.7157 3
4 5 5 103.814 16.0692 2
5 5 5 216.354 24.8327 2
5 5 5 239.161 33.0253 5
5 5 5 197.68 28.1887 3
6 5 5 17.4075 10.3602 2
-4 6 5 213.05 33.0662 6
-4 6 5 172.256 25.4038 4
-4 6 5 263.109 30.6691 1
-4 6 5 216.765 25.7805 5
-4 6 5 175.289 23.1925 3
-3 6 5 6.41935 10.5441 5
-3 6 5 7.74634 10.3559 4
-3 6 5 -4.5364 9.03479 3
-3 6 5 14.9975 18.0582 6
-2 6 5 163.049 40.6965 6
-2 6 5 158.154 25.1203 5
-2 6 5 143.308 21.3718 3
-1 6 5 82.972 21.4919 6
-1 6 5 101.605 19.6516 5
-1 6 5 98.1526 18.4179 3
0 6 5 93.83 12.028 2
1 6 5 2.02684 10.6822 3
1 6 5 5.47638 13.0678 6
1 6 5 17.5331 13.9117 5
1 6 5 10.3663 5.91 2
2 6 5 187.843 30.273 5
2 6 5 192.614 21.6166 2
2 6 5 210.82 28.0967 3
3 6 5 19.7688 8.40297 2
4 6 -6 0.63643 20.3353 6
3 6 -6 99.406 24.0389 6
2 6 -6 80.1206 22.1708 6
0 6 -6 78.5202 21.9731 6
-1 6 -6 52.5429 20.9999 6
6 5 -6 109.943 22.6359 5
-5 -5 6 -12.575 7.40952 4
4 5 -6 310.16 36.662 6
4 5 -6 245.892 36.7607 5
3 5 -6 71.1901 19.0956 6
3 5 -6 64.7366 19.6806 5
-3 -5 6 36.4392 16.2828 4
2 5 -6 286.512 40.2021 6
-2 -5 6 402.812 34.6437 2
-2 -5 6 446.685 43.667 4
-2 -5 6 330.969 33.309 2
1 5 -6 188.912 25.7346 4
1 5 -6 238.795 31.1279 6
1 5 -6 151.868 27.6863 5
-1 -5 6 197.369 21.2469 2
-1 -5 6 245.995 32.0628 4
-1 -5 6 227.697 21.8931 2
0 5 -6 449.383 48.5169 6
0 5 -6 465.408 45.2042 4
0 5 -6 453.354 49.3708 5
0 -5 6 473.166 40.304 2
0 -5 6 492.795 40.8454 2
-1 5 -6 138.378 24.9075 4
-1 5 -6 134.516 24.8344 5
-1 5 -6 191.678 29.5306 6
1 -5 6 184.236 27.842 4
-2 5 -6 165.123 28.9261 6
-2 5 -6 241.673 31.2973 5
-3 5 -6 102.205 21.8278 5
-3 5 -6 132.793 24.932 6
-4 5 -6 161.48 27.4182 1
-4 5 -6 131.709 27.7928 6
4 -5 6 236.916 33.0093 4
-5 5 -6 41.2455 13.7218 1
-5 5 -6 58.3398 18.2341 5
8 4 -6 78.2499 18.2764 5
-8 -4 6 101.021 20.7946 4
7 4 -6 76.7885 19.5345 5
-7 -4 6 85.6108 19.8083 4
-7 -4 6 114.82 22.294 1
6 4 -6 133.987 22.92 5
-6 -4 6 121.454 22.2614 4
-6 -4 6 120.34 23.5895 1
5 4 -6 259.157 34.3101 5
-5 -4 6 290.674 33.9673 1
-5 -4 6 265.761 34.6452 4
4 4 -6 289.494 36.0013 5
-4 -4 6 311.986 36.4015 4
3 4 -6 334.652 34.6686 6
3 4 -6 270.896 35.1948 5
-3 -4 6 370.344 38.8509 4
-3 -4 6 265.985 28.6057 2
2 4 -6 320.703 40.1171 5
2 4 -6 401.259 38.6328 4
2 4 -6 377.896 40.0898 6
-2 -4 6 443.307 43.6559 4
1 4 -6 110.19 19.9948 4
1 4 -6 132.894 22.4384 5
1 4 -6 117.352 20.1624 6
-1 -4 6 156.875 27.9184 4
-1 -4 6 116.573 14.9977 2
0 4 -6 603.207 54.0522 6
0 4 -6 655.911 55.9474 5
0 4 -6 613.877 53.6509 4
0 -4 6 485.009 48.2873 2
0 -4 6 549.944 57.0028 4
-1 4 -6 467.329 65.0424 6
-1 4 -6 531.206 53.6968 5
-1 4 -6 497.584 52.1456 4
1 -4 6 587.577 47.1317 2
1 -4 6 628.455 55.9617 4
-2 4 -6 115.229 20.7017 6
-2 4 -6 110.412 19.2063 5
-2 4 -6 79.9397 24.8019 4
2 -4 6 71.5475 11.3213 2
2 -4 6 84.1259 21.3419 4
-3 4 -6 186.006 26.9656 5
-3 4 -6 193.244 30.017 6
3 -4 6 174.428 18.7473 2
3 -4 6 226.068 31.9448 4
-4 4 -6 236.607 28.5238 1
-4 4 -6 257.106 31.8998 5
-4 4 -6 278.618 35.1655 6
4 -4 6 212.11 23.1137 2
4 -4 6 306.264 36.3285 4
-5 4 -6 179.534 26.6887 5
-5 4 -6 147.299 22.9976 1
-5 4 -6 164.175 28.4979 6
5 -4 6 236.656 33.9625 4
-6 4 -6 226.384 29.2192 1
-6 4 -6 231.325 34.1342 6
-7 4 -6 59.953 14.9512 1
-9 -3 6 173.954 28.4608 4
8 3 -6 85.5844 17.0483 5
-8 -3 6 62.7755 17.1727 4
7 3 -6 341.318 37.8096 5
-7 -3 6 397.024 40.059 1
-7 -3 6 345.186 39.4371 4
6 3 -6 174.765 25.2813 5
6 3 -6 170.981 22.9783 6
-6 -3 6 204.592 25.6628 1
-6 -3 6 158.944 21.7694 5
-6 -3 6 125.135 24.1826 4
5 3 -6 608.627 58.5946 5
5 3 -6 674.359 58.0774 6
-5 -3 6 653.419 60.2876 1
-5 -3 6 616.336 56.0342 5
-5 -3 6 668.482 60.3688 4
4 3 -6 246.488 28.9145 5
4 3 -6 243.87 28.093 1
4 3 -6 219.823 25.4892 6
-4 -3 6 226.53 25.3021 5
-4 -3 6 213.343 23.2703 2
-4 -3 6 240.545 27.7447 1
-4 -3 6 252.743 30.498 4
3 3 -6 488.641 43.5375 5
3 3 -6 510.601 42.3439 1
-3 -3 6 417.488 40.1998 5
-3 -3 6 436.53 44.7239 4
-3 -3 6 364.938 38.9516 3
2 3 -6 509.711 50.7433 4
2 3 -6 568.276 52.0586 1
2 3 -6 577.399 50.1009 6
2 3 -6 506.773 51.6047 5
-2 -3 6 620.651 50.7919 5
-2 -3 6 501.38 49.1586 3
-2 -3 6 687.798 55.925 4
1 3 -6 928.911 78.7759 1
1 3 -6 945.298 79.6774 4
1 3 -6 1021.51 78.921 6
1 3 -6 974.891 80.8056 5
-1 -3 6 810.37 76.2677 2
-1 -3 6 801.236 77.284 3
-1 -3 6 1070.48 84.094 4
-1 -3 6 956.721 78.719 5
0 3 -6 502.52 45.6451 1
0 3 -6 472.091 46.7201 4
0 3 -6 447.215 47.0656 5
0 3 -6 510.027 45.8656 6
0 -3 6 535.98 46.1734 5
0 -3 6 482.922 42.9667 2
0 -3 6 563.378 51.8522 4
-1 3 -6 1756.2 139.695 5
-1 3 -6 1785.3 138.476 1
-1 3 -6 1714.27 140.417 4
-1 3 -6 1762.06 138.4 6
1 -3 6 1841.94 143.476 4
1 -3 6 1546.18 137.645 5
1 -3 6 1546.71 135.559 2
-2 3 -6 273.185 32.7413 4
-2 3 -6 284.042 30.7271 6
-2 3 -6 302.166 31.1695 5
2 -3 6 234.402 24.6227 2
2 -3 6 263.234 29.1111 6
2 -3 6 252.927 34.2695 4
-3 3 -6 487.069 44.9668 6
-3 3 -6 428.827 41.5327 1
3 -3 6 417.044 45.1279 6
3 -3 6 435.398 38.9053 2
3 -3 6 471.431 49.1972 4
-4 3 -6 68.6704 16.0298 5
-4 3 -6 75.8032 18.8328 6
-4 3 -6 80.4209 11.143 2
-4 3 -6 59.9845 13.6107 1
4 -3 6 92.8776 21.5181 4
4 -3 6 110.841 12.9926 2
-5 3 -6 272.823 31.9542 1
-5 3 -6 255.817 35.8876 6
5 -3 6 356.13 30.2917 2
5 -3 6 376.432 41.6279 4
-6 3 -6 144.961 22.1384 1
-6 3 -6 194.612 20.1652 2
-6 3 -6 196.915 29.8516 6
6 -3 6 188.464 20.3259 2
6 -3 6 193.542 33.8915 4
-7 3 -6 149.024 21.7199 1
-7 3 -6 161.382 28.1268 6
7 -3 6 161.893 20.1107 2
-8 3 -6 95.1142 19.2531 1
8 -3 6 85.9732 15.1751 2
-10 -2 6 93.1614 22.0818 4
-9 -2 6 60.1812 15.5526 1
-9 -2 6 49.7771 17.5884 4
8 2 -6 197.799 22.8938 5
-8 -2 6 166.295 19.6736 3
-8 -2 6 189.985 29.7304 4
7 2 -6 88.1561 15.1395 5
7 2 -6 83.2371 15.7344 6
-7 -2 6 80.9754 17.975 4
-7 -2 6 68.9255 12.7883 3
-7 -2 6 84.5184 16.3014 1
-7 -2 6 73.8127 12.126 5
6 2 -6 451.976 41.9479 5
6 2 -6 481.119 42.6482 6
-6 -2 6 479.309 40.0275 5
-6 -2 6 402.587 39.5303 3
-6 -2 6 437.398 45.1468 4
5 2 -6 440.304 40.8345 1
5 2 -6 451.878 39.9638 6
5 2 -6 435.935 40.2117 5
-5 -2 6 448.313 41.6199 1
-5 -2 6 444.844 38.323 5
-5 -2 6 456.759 43.3038 4
-5 -2 6 403.372 39.7984 3
-5 -2 6 366.8 38.4485 2
4 2 -6 1603.52 112.605 6
4 2 -6 1534.94 113.948 5
4 2 -6 1410.99 113.737 1
-4 -2 6 1299.22 115.098 4
-4 -2 6 1174.61 111.395 3
-4 -2 6 1348 111.809 5
-4 -2 6 1358.07 114.395 1
3 2 -6 745.082 59.4584 1
3 2 -6 735.947 60.0826 5
3 2 -6 717.202 60.9795 4
-3 -2 6 693.362 61.527 4
-3 -2 6 587.013 58.9948 1
-3 -2 6 651.96 57.7794 5
2 2 -6 877.441 75.4501 4
2 2 -6 911.515 74.8168 5
2 2 -6 882.065 72.0065 6
2 2 -6 887.72 73.466 1
-2 -2 6 928.924 77.0565 4
-2 -2 6 814.377 72.8366 5
1 2 -6 145.804 16.45 6
1 2 -6 164.476 20.6735 5
1 2 -6 144.667 15.8675 1
1 2 -6 143.439 20.2198 4
-1 -2 6 126.86 15.1245 2
-1 -2 6 143.509 22.7838 4
-1 -2 6 112.482 16.1157 5
0 2 -6 814.514 69.5511 6
0 2 -6 881.606 71.6398 5
0 2 -6 885.977 72.7938 4
0 2 -6 940.207 70.1905 1
0 -2 6 733.902 68.5203 2
0 -2 6 852.131 74.8391 4
0 -2 6 770.713 69.9515 5
-1 2 -6 734.952 66.4456 4
-1 2 -6 682.288 63.8429 5
-1 2 -6 775.575 63.2507 6
1 -2 6 748.026 63.4638 5
1 -2 6 795.665 69.5791 4
1 -2 6 732.614 61.9066 2
1 -2 6 752.541 62.521 6
-2 2 -6 571.471 52.4187 4
-2 2 -6 582.941 46.1763 2
-2 2 -6 628.61 50.055 5
-2 2 -6 586.245 48.733 6
2 -2 6 455.317 45.7563 2
2 -2 6 483.774 52.8632 4
2 -2 6 491.291 47.1838 6
-3 2 -6 427.292 39.5766 6
-3 2 -6 389.799 42.6208 4
-3 2 -6 409.678 38.3971 5
-3 2 -6 419.75 36.2163 1
-3 2 -6 420.195 35.0616 2
3 -2 6 372.825 42.8693 4
3 -2 6 322.735 36.4543 5
3 -2 6 373.935 35.0905 2
3 -2 6 399.918 38.2382 6
-4 2 -6 849.077 69.7177 6
-4 2 -6 772.895 66.4766 1
-4 2 -6 868.696 65.7733 2
4 -2 6 674.242 75.2932 4
4 -2 6 788.201 65.8739 2
4 -2 6 753.237 67.359 5
4 -2 6 760.138 68.1762 6
-5 2 -6 29.6816 13.8394 6
-5 2 -6 31.9744 8.22622 2
-5 2 -6 45.766 10.2767 1
5 -2 6 33.7007 15.395 4
5 -2 6 41.4453 9.57975 2
-6 2 -6 462.642 51.6345 1
-6 2 -6 470.566 47.2314 6
6 -2 6 453.782 51.1187 4
6 -2 6 452.182 43.9511 2
-7 2 -6 14.8304 8.77258 1
-7 2 -6 8.8727 13.9007 6
7 -2 6 52.4797 11.461 2
-8 2 -6 163.903 23.7809 1
-8 2 -6 185.437 30.7883 6
8 -2 6 206.424 23.5826 2
-10 -1 6 10.678 14.3478 4
-10 -1 6 4.35951 10.3944 1
-9 -1 6 214.525 33.4695 4
-9 -1 6 247.166 22.4206 3
8 1 -6 -7.6509 8.84335 6
8 1 -6 -3.2862 3.02092 5
-8 -1 6 4.79326 5.10568 3
-8 -1 6 12.5692 9.38117 1
-8 -1 6 -2.9416 11.5011 4
7 1 -6 459.69 43.2999 5
7 1 -6 481.579 46.6474 6
-7 -1 6 532.741 44.0772 3
-7 -1 6 598.566 49.5545 1
-7 -1 6 539.834 52.1586 4
6 1 -6 172.339 20.426 1
6 1 -6 169.327 17.8698 5
6 1 -6 147 19.083 6
-6 -1 6 145.16 16.4369 3
-6 -1 6 146.084 24.3622 4
-6 -1 6 154.381 20.1146 1
5 1 -6 565.618 46.9012 5
5 1 -6 494.752 48.413 1
5 1 -6 532.453 46.889 6
-5 -1 6 578.064 45.7925 5
-5 -1 6 547.539 51.7917 4
-5 -1 6 544.696 46.1944 3
-5 -1 6 558.339 49.2034 1
4 1 -6 26.8397 8.15043 5
4 1 -6 28.7496 7.04696 6
4 1 -6 17.8519 6.72521 1
-4 -1 6 15.3143 5.55238 5
-4 -1 6 16.3003 9.48934 4
-4 -1 6 21.3628 7.52364 1
3 1 -6 314.456 31.8141 1
3 1 -6 334.462 30.2106 6
-3 -1 6 397.771 36.8144 4
-3 -1 6 390.274 31.7969 5
-3 -1 6 375.894 34.9899 1
2 1 -6 750.229 61.3502 4
2 1 -6 717.742 58.4806 5
2 1 -6 679.496 55.3334 6
2 1 -6 655.458 57.0338 1
-2 -1 6 681.217 57.5853 5
-2 -1 6 727.295 61.5756 4
-2 -1 6 660.234 57.4975 1
1 1 -6 1229.61 100.109 6
1 1 -6 1162.96 100.921 1
1 1 -6 1265.96 105.005 4
1 1 -6 1335.37 103.294 5
-1 -1 6 1268.58 102.336 2
-1 -1 6 1411.12 106.61 4
-1 -1 6 1248.24 102.112 5
0 1 -6 81.296 13.2187 5
0 1 -6 91.548 9.21168 1
0 1 -6 90.2681 16.0145 4
0 -1 6 76.5694 16.8645 4
0 -1 6 53.3328 10.8308 5
0 -1 6 66.0829 9.30104 6
0 -1 6 68.1532 10.2598 2
-1 1 -6 2850.27 214.42 5
-1 1 -6 2802.19 212.603 6
-1 1 -6 2626.63 216.508 4
-1 1 -6 2989.99 213.383 2
1 -1 6 2585.31 212.277 6
1 -1 6 2559.28 213.084 2
1 -1 6 2693.71 213.959 5
1 -1 6 2525.98 217.696 4
-2 1 -6 440.383 36.9306 6
-2 1 -6 450.056 42.0877 4
-2 1 -6 464.309 36.1297 2
-2 1 -6 427.962 34.6813 1
2 -1 6 382.412 43.1309 4
2 -1 6 364.162 35.7999 6
2 -1 6 350.609 36.5291 5
2 -1 6 361.784 35.5705 2
-3 1 -6 520.958 45.4905 6
-3 1 -6 492.783 42.5459 1
-3 1 -6 549.856 43.7874 2
3 -1 6 467.132 50.3857 4
3 -1 6 501.467 43.8075 2
3 -1 6 480.767 44.6647 6
3 -1 6 499.224 45.0411 5
-4 1 -6 57.5114 17.6042 4
-4 1 -6 40.6595 13.07 6
-4 1 -6 41.6024 8.83521 1
4 -1 6 76.1756 19.7051 4
4 -1 6 55.9187 11.8248 5
4 -1 6 61.2316 10.8901 2
4 -1 6 54.5553 13.7193 6
-5 1 -6 797.113 68.5302 6
-5 1 -6 670.074 64.4466 1
-5 1 -6 797.455 65.5474 2
5 -1 6 850.768 72.5937 4
5 -1 6 772.306 74.9764 5
-6 1 -6 55.5383 11.3095 1
-6 1 -6 36.9439 14.511 6
6 -1 6 49.4032 11.1157 2
6 -1 6 27.1754 15.7587 4
-7 1 -6 721.043 65.171 6
-7 1 -6 736.588 61.8116 1
7 -1 6 668.991 61.1599 2
7 -1 6 679.704 59.5732 3
7 -1 6 660.944 68.1059 4
-8 1 -6 23.9613 9.74025 1
-8 1 -6 13.9139 19.0151 6
8 -1 6 18.3373 10.2534 2
8 -1 6 10.6864 8.38496 3
-9 1 -6 177.643 23.7564 1
9 -1 6 129.051 22.328 2
-10 0 6 287.087 32.5847 6
-10 0 6 247.06 37.4418 4
-9 0 6 -5.2605 10.559 4
-9 0 6 -0.1973 8.80476 1
-9 0 6 1.03067 9.58948 6
8 0 -6 130.587 19.6962 6
-8 0 6 155.909 26.0197 4
-8 0 6 95.6663 11.0617 3
-8 0 6 123.713 19.0604 6
7 0 -6 -4.5129 7.24926 6
-7 0 6 -0.5528 7.52148 6
-7 0 6 14.4259 11.8057 4
6 0 -6 890.294 81.0157 1
6 0 -6 950.238 79.0119 6
-6 0 6 980.496 79.4667 2
-6 0 6 993.807 84.3889 4
-6 0 6 911.787 76.6372 3
-6 0 6 1072.01 81.5501 1
-6 0 6 929.947 78.2464 6
5 0 -6 3.33272 5.3654 6
5 0 -6 0.61676 5.1132 1
-5 0 6 2.01801 3.14056 5
-5 0 6 5.29063 9.82537 4
-5 0 6 0.26097 4.72437 6
-5 0 6 4.09936 5.33137 1
4 0 -6 998.781 90.1346 6
4 0 -6 1068.01 92.5222 1
-4 0 6 1265.67 93.1263 1
-4 0 6 1178.65 96.1506 4
-4 0 6 1200.16 90.3001 5
3 0 -6 1.14318 3.01352 1
-3 0 6 3.07109 3.92884 5
-3 0 6 1.2605 7.25968 4
-3 0 6 -0.7115 3.62742 1
2 0 -6 1726.38 144.822 1
2 0 -6 1708.36 148.813 4
-2 0 6 1902.2 149.419 4
-2 0 6 1968.77 145.43 1
-2 0 6 1919.24 146.791 2
1 0 -6 -1.611 1.50321 1
1 0 -6 2.72994 6.38098 4
-1 0 6 2.22553 4.34915 5
-1 0 6 -0.5931 3.70152 2
-1 0 6 -2.2024 7.44984 4
-1 0 6 2.65468 2.25545 1
0 0 -6 2309.24 212.9 4
0 0 -6 2246.25 210.44 2
0 0 -6 2342.98 208.591 6
0 0 6 3018.89 211.737 5
0 0 6 2909.31 214.933 4
0 0 6 2893.73 208.797 6
0 0 6 3070.44 211.533 2
-1 0 -6 -0.3312 3.90518 2
-1 0 -6 8.79382 9.04088 4
-1 0 -6 3.64722 4.7489 6
1 0 6 0.0329 9.48832 4
1 0 6 2.6493 4.35688 2
1 0 6 0.3746 4.23201 6
1 0 6 0.16612 5.10463 5
-2 0 -6 3312.13 263.686 2
-2 0 -6 3588.53 263.762 6
-2 0 -6 3103.91 260.873 1
-2 0 -6 3327.22 267.53 4
2 0 6 3272.44 263.149 6
2 0 6 3415.14 268.773 4
2 0 6 3315.37 264.404 5
2 0 6 3530.43 264.28 2
-3 0 -6 4.0897 4.29895 2
-3 0 -6 2.91082 10.6087 4
-3 0 -6 -1.9282 2.63635 1
-3 0 -6 1.35197 7.10902 6
3 0 6 6.57667 6.85342 6
3 0 6 1.71598 6.04738 5
3 0 6 2.62041 4.66719 2
3 0 6 -5.3086 10.6537 4
-4 0 -6 1418.75 117.228 1
-4 0 -6 1618.95 120.685 6
-4 0 -6 1308.34 124.495 4
-4 0 -6 1500.34 119.232 2
4 0 6 1432.54 123.955 4
4 0 6 1521.21 119.221 2
4 0 6 1518.51 120.127 5
4 0 6 1427.17 119.59 6
-5 0 -6 -3.5588 4.32625 1
-5 0 -6 3.63213 10.0821 6
5 0 6 9.6819 6.8846 3
5 0 6 -6.9786 7.23989 5
5 0 6 -0.1052 6.20336 2
5 0 6 -12.828 7.09255 6
5 0 6 -5.8507 10.4686 4
-6 0 -6 739.221 62.2161 1
-6 0 -6 793.64 66.5156 6
6 0 6 721.567 63.3932 2
6 0 6 732.275 62.5194 3
6 0 6 656.532 67.8165 4
-7 0 -6 7.03496 7.02527 1
-7 0 -6 5.76828 12.6227 6
7 0 6 7.95587 7.77352 3
7 0 6 3.86267 8.58743 2
7 0 6 -14.867 12.3568 4
-8 0 -6 342.337 54.0037 6
8 0 6 431.677 38.6033 3
8 0 6 417.081 41.1513 2
-9 0 -6 3.8071 8.04501 1
9 0 6 6.01849 8.20783 3
9 0 6 -3.5896 8.84276 2
-10 1 6 -2.2274 10.3111 1
-10 1 6 0.09708 12.9888 6
-9 1 6 315.382 32.7967 1
-9 1 6 240.446 31.4625 6
8 -1 -6 7.24914 10.5766 6
-8 1 6 4.53334 9.88599 6
-8 1 6 3.87734 8.58239 1
7 -1 -6 522.485 47.5562 6
-7 1 6 555.389 51.9924 1
-7 1 6 480.162 41.2085 3
-7 1 6 533.951 41.3637 3
-7 1 6 549.244 47.7059 6
6 -1 -6 164.471 19.188 1
6 -1 -6 155.617 18.7168 6
-6 1 6 121.059 17.8293 6
-6 1 6 148.288 18.4104 1
-6 1 6 146.231 23.7425 4
5 -1 -6 502.281 50.7961 1
-5 1 6 584.158 49.6324 6
-5 1 6 600.416 55.2915 4
-5 1 6 684.947 52.0229 1
4 -1 -6 22.7999 6.26142 1
4 -1 -6 23.8486 5.88316 6
-4 1 6 9.97558 9.48224 4
-4 1 6 12.1961 5.31617 6
-4 1 6 19.2108 6.3503 1
-4 1 6 12.896 4.15289 5
3 -1 -6 304.383 30.216 1
-3 1 6 344.937 30.8349 2
-3 1 6 331.794 28.634 6
-3 1 6 377.842 30.6211 1
-3 1 6 369.495 34.9023 4
-3 1 6 364.017 29.9444 5
2 -1 -6 708.287 55.5059 4
-2 1 6 552.54 50.9318 2
-2 1 6 593.132 54.2584 4
-2 1 6 659.972 49.977 1
-2 1 6 610.019 52.4548 5
-2 1 6 578.299 48.5248 6
1 -1 -6 1144.28 96.8678 4
-1 1 6 1090.06 91.8512 6
-1 1 6 1184.44 91.9919 6
-1 1 6 1217.15 97.5627 4
-1 1 6 1259.56 91.9379 1
-1 1 6 1145.19 94.4919 2
0 -1 -6 93.2159 10.2741 2
0 -1 -6 89.584 15.0113 4
0 1 6 57.3456 13.4168 4
0 1 6 57.4666 8.67486 6
0 1 6 68.0865 9.93456 2
-1 -1 -6 2793.99 198.53 2
-1 -1 -6 2556.47 200.24 4
1 1 6 2432.44 197.985 2
1 1 6 2308.09 196.565 6
1 1 6 2459.73 201.581 4
-2 -1 -6 414.4 39.0932 4
-2 -1 -6 439.593 35.5181 2
-2 -1 -6 459.872 32.3684 1
2 1 6 350.323 34.6858 2
2 1 6 337.448 34.6698 6
2 1 6 352.442 39.8871 4
2 1 6 381.558 31.7759 1
-3 -1 -6 483.374 39.9481 1
-3 -1 -6 507.668 43.2347 6
-3 -1 -6 466.669 46.7686 4
3 1 6 481.669 42.6818 3
3 1 6 482.657 46.9873 4
3 1 6 463.836 41.9616 2
3 1 6 489.152 39.4615 1
3 1 6 437.883 42.4844 6
-4 -1 -6 18.4732 13.5099 4
-4 -1 -6 42.7107 12.6695 6
-4 -1 -6 51.1503 8.96534 1
-4 -1 -6 35.7803 9.00358 2
4 1 6 54.3723 10.8479 2
4 1 6 53.8347 8.50422 1
4 1 6 78.0319 17.5215 4
4 1 6 56.168 11.1365 3
4 1 6 53.7775 12.0976 6
-5 -1 -6 762.74 72.2998 6
-5 -1 -6 656.089 76.7624 4
-5 -1 -6 705.677 69.0921 1
5 1 6 937.232 69.7352 1
5 1 6 973.089 71.7925 3
5 1 6 849.041 74.4726 4
5 1 6 815.026 72.498 6
5 1 6 999.591 72.1623 2
-6 -1 -6 55.9103 15.4225 6
-6 -1 -6 55.9623 11.2131 1
6 1 6 52.9209 10.1136 1
6 1 6 40.8678 12.1789 3
6 1 6 32.4899 14.3767 4
6 1 6 34.5814 10.552 2
-7 -1 -6 627.016 62.6874 6
-7 -1 -6 730.385 60.2492 1
7 1 6 658.844 58.8834 3
-8 -1 -6 16.6282 9.66306 1
8 1 6 17.1167 9.5106 3
8 1 6 8.73005 10.234 2
-9 -1 -6 146.857 21.6103 1
9 1 6 136.043 19.8329 3
-10 2 6 97.4526 21.0102 6
-9 2 6 39.1191 14.7905 6
-8 2 6 215.016 29.6765 6
-8 2 6 284.798 30.8073 1
7 -2 -6 100.997 16.2798 6
-7 2 6 93.7113 16.7538 1
-7 2 6 79.0686 15.8818 6
-7 2 6 61.0251 11.5675 2
6 -2 -6 499.486 41.5196 6
-6 2 6 447.353 41.3739 6
-6 2 6 425.471 46.346 4
-6 2 6 424.955 35.8289 3
-6 2 6 349.237 43.3081 2
-6 2 6 491.308 42.0084 1
5 -2 -6 462.083 40.2752 6
-5 2 6 453.336 44.822 4
-5 2 6 414.431 37.1559 3
-5 2 6 489.769 41.2194 1
-5 2 6 430.267 40.155 6
-4 2 6 1297.63 106.121 4
-4 2 6 1245.57 101.825 2
-4 2 6 1230.72 99.859 5
-4 2 6 1305.23 102.218 6
-4 2 6 1206.2 100.905 3
-4 2 6 1316.77 102.991 1
-3 2 6 637.391 49.7498 1
-3 2 6 571.697 48.2894 5
-3 2 6 585.618 48.995 2
-3 2 6 550.975 48.6632 6
-3 2 6 594.418 52.7052 4
-3 2 6 562.284 48.7274 3
-2 2 6 798.34 62.465 1
-2 2 6 782.351 66.1071 4
-2 2 6 744.94 62.3058 6
-2 2 6 737.815 63.1211 3
-2 2 6 762.59 62.9351 2
1 -2 -6 146.375 14.6977 2
1 -2 -6 137.82 18.7395 4
-1 2 6 126.531 14.4654 6
-1 2 6 144.481 13.303 1
-1 2 6 112.047 14.1564 3
-1 2 6 128.502 14.3205 2
-1 2 6 115.682 18.3144 4
0 -2 -6 810.829 61.95 4
0 2 6 728.525 59.0785 2
0 2 6 622.5 59.1316 3
0 2 6 715.644 57.093 1
0 2 6 669.205 61.5163 4
-1 -2 -6 637.535 59.4409 4
-1 -2 -6 716.282 58.3743 2
1 2 6 740.358 55.8936 1
1 2 6 698.713 57.9622 2
1 2 6 670.126 61.125 4
1 2 6 659.597 58.1013 6
1 2 6 710.539 58.93 3
-2 -2 -6 570.858 42.8711 2
-2 -2 -6 510.967 44.0207 4
2 2 6 444.672 41.1953 2
2 2 6 442.863 42.1057 3
2 2 6 434.163 41.8092 6
2 2 6 455.419 45.2887 4
2 2 6 468.522 39.2926 1
-3 -2 -6 342.058 37.4114 4
-3 -2 -6 408.545 35.7656 2
-3 -2 -6 409.021 33.3242 1
3 2 6 350.292 37.8192 4
3 2 6 425.431 36.2535 3
3 2 6 363.709 34.6268 2
3 2 6 375.791 32.5295 1
3 2 6 330.869 35.7783 6
-4 -2 -6 801.661 60.6833 1
-4 -2 -6 751.425 65.2262 4
4 2 6 616.68 62.2839 6
4 2 6 723.012 59.5384 1
4 2 6 670.938 63.3609 4
4 2 6 680.176 61.3254 2
4 2 6 753.005 62.0343 3
-5 -2 -6 38.35 15.3817 4
-5 -2 -6 40.9601 9.1287 1
5 2 6 31.113 9.6683 2
5 2 6 22.6749 12.1246 4
5 2 6 15.8659 7.13989 1
5 2 6 47.2533 11.7145 3
-6 -2 -6 434.145 42.6396 1
6 2 6 507.158 44.2221 3
6 2 6 451.03 50.058 4
6 2 6 470.239 43.5543 2
6 2 6 455.875 42.218 1
7 2 6 55.6363 13.7118 2
7 2 6 49.5028 16.2687 5
7 2 6 41.3388 12.2451 3
-8 -2 -6 190.142 25.7146 1
8 2 6 207.613 26.7278 2
8 2 6 221.225 25.1677 3
-9 3 6 195.042 29.4976 6
-8 3 6 61.4521 14.7768 1
-8 3 6 66.3772 16.7949 6
-7 3 6 340.545 38.4498 6
-7 3 6 398.047 36.7953 1
-7 3 6 320.162 31.5665 2
6 -3 -6 195.924 23.8904 6
-6 3 6 147.728 17.0625 2
-6 3 6 182.331 27.4201 4
-6 3 6 141.671 14.7083 3
-6 3 6 163.841 17.675 2
-6 3 6 211.421 22.7327 1
-6 3 6 145.052 23.6431 6
-5 3 6 645.38 54.3799 1
-5 3 6 594.035 54.3 6
-5 3 6 547.227 50.2225 3
-5 3 6 641.552 57.4305 4
-5 3 6 589.774 50.5747 2
-5 3 6 620.196 49.0627 5
-4 3 6 210.864 21.3527 2
-4 3 6 229.462 28.4037 4
-4 3 6 256.947 22.3508 3
-4 3 6 232.759 24.1199 1
-4 3 6 217.111 25.2392 6
-4 3 6 221.064 21.6384 5
-3 3 6 390.761 37.3635 6
-3 3 6 436.133 37.2373 1
-3 3 6 390.16 39.1996 4
-3 3 6 428.545 36.1596 5
-3 3 6 376.017 35.6677 3
-3 3 6 408.307 35.097 2
-2 3 6 551.282 45.6859 2
-2 3 6 567.966 46.9553 1
-2 3 6 528.23 46.7272 3
-2 3 6 518.437 47.1869 6
-2 3 6 535.856 48.9576 4
-2 3 6 542.766 46.9602 5
-1 3 6 763.736 69.5172 3
-1 3 6 881.359 68.8825 2
-1 3 6 845.936 69.8798 6
-1 3 6 821.248 71.0441 4
-1 3 6 870.438 70.5254 5
0 -3 -6 518.944 43.1306 2
0 3 6 497.141 44.928 5
0 3 6 479.664 43.9372 3
0 3 6 494.032 42.5519 1
0 3 6 478.019 42.2621 2
-1 -3 -6 1603.32 120.619 4
-1 -3 -6 1677.64 120.395 2
1 3 6 1529.61 118.908 1
1 3 6 1484.99 119.295 2
1 3 6 1288.61 123.646 4
1 3 6 1351.01 119.491 6
1 3 6 1415.74 120.44 3
1 3 6 1509.41 121.143 5
-2 -3 -6 283.851 25.1182 2
-2 -3 -6 254.77 25.796 4
2 3 6 243.42 28.2293 4
2 3 6 251.697 27.2282 5
2 3 6 212.775 22.6031 1
2 3 6 211.234 23.3666 2
2 3 6 220.348 27.7884 6
2 3 6 221.931 24.6338 3
-3 -3 -6 407.742 38.2318 4
3 3 6 355.77 38.6843 6
3 3 6 425.913 38.3447 3
3 3 6 407.797 38.4281 4
3 3 6 401.234 35.4878 1
3 3 6 398.84 39.5334 5
3 3 6 380.572 36.5549 2
-4 -3 -6 72.9802 15.9343 4
4 3 6 103.319 16.4371 4
4 3 6 110.426 16.3678 3
4 3 6 106.492 15.3092 2
4 3 6 113.203 13.8116 1
4 3 6 81.6294 16.8088 5
-5 -3 -6 283.694 35.5225 4
-5 -3 -6 290.599 31.9245 1
5 3 6 337.233 33.4291 3
5 3 6 365.131 33.2238 2
5 3 6 363.259 36.6668 5
-6 -3 -6 181.052 22.4428 1
-6 -3 -6 161.182 28.4981 4
6 3 6 153.741 21.4296 2
6 3 6 180.513 26.5823 5
6 3 6 173.884 22.0953 3
-7 -3 -6 171.484 23.7398 1
7 3 6 173.421 23.2163 3
7 3 6 168.463 23.3732 2
7 3 6 189.93 29.4259 5
-8 -3 -6 75.804 16.6483 1
8 3 6 59.4494 14.7863 3
-8 4 6 105.78 24.8556 4
-8 4 6 103.072 13.2094 2
-8 4 6 53.195 17.7509 6
-8 4 6 121.093 21.0336 1
-7 4 6 112.646 20.4046 1
-7 4 6 82.0103 19.1865 6
-7 4 6 79.3535 21.578 4
-7 4 6 101.72 12.5983 2
-7 4 6 112.093 13.511 2
-6 4 6 156.339 21.0774 1
-6 4 6 129.764 13.5205 2
-6 4 6 140.92 24.705 4
-6 4 6 107.746 20.6989 6
-6 4 6 106.804 13.5545 2
-6 4 6 114.27 12.9216 5
-5 4 6 245.385 22.4236 2
-5 4 6 267.07 22.7352 2
-5 4 6 261.862 23.7441 5
-5 4 6 205.857 30.4501 6
-5 4 6 221.346 23.2889 3
-5 4 6 259.17 28.3547 1
-4 4 6 283.748 27.4341 5
-4 4 6 302.059 31.5467 1
-4 4 6 289.187 33.1146 4
-4 4 6 284.066 27.254 3
-4 4 6 229.768 31.2341 6
-4 4 6 288.558 25.31 2
-3 4 6 311.764 26.7757 2
-3 4 6 306.696 30.9552 1
-3 4 6 272.464 28.6469 3
-3 4 6 285.244 32.0547 6
-3 4 6 308.711 29.8871 5
-3 4 6 310.82 32.3018 4
-2 4 6 372.533 33.3441 2
-2 4 6 392.447 36.7489 5
-2 4 6 439.592 37.6515 1
-2 4 6 397.3 38.5205 6
-2 4 6 364.337 35.8736 3
-2 4 6 359.918 37.1197 4
-1 4 6 118.47 19.8142 4
-1 4 6 125.84 18.7354 5
-1 4 6 102.179 12.8105 2
-1 4 6 108.669 15.0662 1
-1 4 6 131.783 18.7652 6
-1 4 6 113.308 15.5272 3
0 4 6 448.278 41.7455 4
0 4 6 456.611 39.6064 2
0 4 6 445.171 44.4848 5
0 4 6 459.449 42.1834 3
0 4 6 465.029 41.4562 1
-1 -4 -6 514.351 54.3867 2
1 4 6 534.633 47.011 4
1 4 6 513.978 48.765 3
1 4 6 579.223 50.4966 5
1 4 6 516.694 46.236 2
1 4 6 548.126 47.451 1
2 4 6 63.3623 11.3432 4
2 4 6 80.6795 16.5734 5
2 4 6 58.5164 13.6591 3
2 4 6 54.9668 11.5017 2
2 4 6 88.661 12.642 1
3 4 6 163.58 21.8717 1
3 4 6 169.327 24.9473 5
3 4 6 162.22 21.965 3
3 4 6 177.324 19.4239 4
3 4 6 190.441 20.4161 2
-4 -4 -6 191.846 23.733 4
4 4 6 277.963 31.0099 5
4 4 6 261.821 27.2631 3
4 4 6 260.021 26.0386 2
4 4 6 228.015 25.039 1
5 4 6 222.496 38.2828 5
5 4 6 182.923 23.5983 2
5 4 6 205.597 25.0879 3
6 4 6 222.408 32.5015 5
6 4 6 219.823 28.1662 3
6 4 6 222.535 26.4483 2
-6 5 6 103.03 21.7129 6
-6 5 6 98.0918 21.7975 4
-6 5 6 109.414 14.8476 5
-6 5 6 99.5216 20.1778 1
-5 5 6 79.1097 20.2031 6
-5 5 6 106.478 20.919 4
-5 5 6 123.63 16.7401 5
-5 5 6 122.707 15.0074 3
-5 5 6 131.535 20.2997 1
-4 5 6 288.311 31.7639 1
-4 5 6 258.182 22.6362 2
-4 5 6 292.285 34.7683 6
-4 5 6 249.229 27.0672 3
-4 5 6 279.638 22.582 2
-4 5 6 278.371 31.5333 4
-4 5 6 263.525 28.2632 5
-3 5 6 31.2425 13.1199 5
-3 5 6 12.4845 12.8778 6
-3 5 6 20.5512 11.0991 4
-3 5 6 25.8823 5.22747 2
-3 5 6 23.2218 11.0271 1
-3 5 6 24.2267 9.07511 3
-2 5 6 346.445 37.5376 6
-2 5 6 311.492 32.8997 4
-2 5 6 331.315 35.1886 5
-2 5 6 341.387 33.8966 3
-1 5 6 190.723 25.4009 5
-1 5 6 221.853 24.6676 3
-1 5 6 240.954 27.6398 6
-1 5 6 178.209 22.0429 4
-1 5 6 181.044 18.9698 2
0 -5 -6 448.08 43.5476 2
0 5 6 489.532 42.8307 2
0 5 6 471.072 46.4012 3
0 5 6 570.654 49.198 5
0 5 6 557.717 49.6142 6
-1 -5 -6 149.329 18.0249 2
1 5 6 119.811 16.3452 2
1 5 6 134.613 19.5592 3
1 5 6 157.814 24.8757 5
2 5 6 285.818 31.5368 2
2 5 6 290.882 30.9863 3
2 5 6 279.338 33.5653 5
3 5 6 150.793 28.847 5
3 5 6 142.144 21.3985 3
3 5 6 123.198 17.7638 2
4 5 6 156.395 20.4564 2
4 5 6 164.059 26.8535 5
4 5 6 155.572 23.388 3
5 5 6 49.9896 13.632 2
-4 6 6 5.74107 9.33429 5
-4 6 6 5.05489 9.63957 1
-4 6 6 -9.3683 8.49483 3
-4 6 6 -0.8349 15.0592 6
-3 6 6 61.0394 20.112 6
-3 6 6 92.0057 15.5565 3
-3 6 6 54.2385 14.5467 5
-2 6 6 105.41 19.5536 1
-2 6 6 98.7431 18.7046 5
-2 6 6 104.564 18.397 3
-1 6 6 134.227 30.4186 3
0 6 6 60.3438 9.48767 2
0 6 6 67.4101 20.1233 6
0 6 6 83.2255 18.1987 5
0 6 6 57.9777 14.7471 3
1 6 6 119.346 15.176 2
1 6 6 130.507 19.8695 3
1 6 6 128.543 23.3652 6
1 6 6 98.5389 20.9333 5
2 6 6 29.56 9.16541 2
1 6 -7 6.08934 17.0177 6
-1 -6 7 -8.8341 9.39118 4
-1 -6 7 8.60078 6.87775 2
0 6 -7 111.95 24.5763 6
6 5 -7 85.9651 21.8499 5
5 5 -7 113.875 23.5572 5
5 5 -7 131.347 25.3019 6
4 5 -7 137.797 24.389 6
-4 -5 7 109.999 23.1284 4
3 5 -7 278.506 35.0373 6
3 5 -7 234.941 37.7256 5
-3 -5 7 318.828 40.6895 4
2 5 -7 65.0032 20.4517 5
2 5 -7 127.844 20.458 4
2 5 -7 128.907 23.9292 6
-2 -5 7 118.908 16.6392 2
-2 -5 7 143.884 26.5857 4
1 5 -7 322.439 38.9915 5
1 5 -7 283.007 32.7412 4
1 5 -7 248.915 34.6829 6
-1 -5 7 233.81 26.204 2
-1 -5 7 325.727 39.1103 4
-1 -5 7 274.489 27.3281 2
0 5 -7 95.3812 22.6192 5
0 5 -7 71.2515 19.5508 6
0 -5 7 125.437 14.9794 2
0 -5 7 112.037 23.4012 4
-1 5 -7 235.085 38.7859 5
-1 5 -7 166.639 28.2182 6
1 -5 7 207.947 33.958 4
-2 5 -7 88.3387 21.6235 6
-2 5 -7 77.5114 26.8668 5
2 -5 7 51.1667 18.8791 4
-3 5 -7 90.9551 32.4349 6
-3 5 -7 67.1804 18.9024 5
3 -5 7 76.33 21.4949 4
-4 5 -7 -11.325 16.2624 6
-4 5 -7 4.27512 9.84396 1
-4 5 -7 -1.7398 13.3465 5
4 -5 7 31.1396 19.1872 4
8 4 -7 114.197 20.9678 5
-8 -4 7 83.4636 21.6532 4
7 4 -7 56.3151 16.7289 5
-7 -4 7 53.4941 18.2258 4
-7 -4 7 64.9744 17.6266 1
6 4 -7 192.64 29.1093 5
-6 -4 7 140.901 26.7521 4
-6 -4 7 166.222 26.4487 1
5 4 -7 135.489 24.6941 5
-5 -4 7 206.986 30.22 4
4 4 -7 519.968 52.0131 5
-4 -4 7 531.006 53.7893 4
3 4 -7 361.719 36.6432 6
3 4 -7 306.168 37.3236 5
-3 -4 7 286.398 41.051 4
2 4 -7 462.827 44.0206 6
2 4 -7 443.661 46.7128 5
2 4 -7 443.348 43.4343 4
-2 -4 7 403.532 48.8965 4
1 4 -7 61.4789 17.867 5
1 4 -7 69.733 15.6598 4
1 4 -7 96.0929 18.4905 6
-1 -4 7 64.246 21.0481 4
0 4 -7 262.927 35.9489 5
0 4 -7 302.451 35.0641 4
0 4 -7 318.837 34.324 6
0 -4 7 331.49 42.4544 4
0 -4 7 303.604 29.2021 2
-1 4 -7 481.261 50.6255 5
-1 4 -7 479.202 49.2028 6
1 -4 7 502.284 44.4935 2
1 -4 7 596.673 56.2124 4
-2 4 -7 356.761 40.2603 5
-2 4 -7 382.381 40.73 6
2 -4 7 318.38 32.4047 2
2 -4 7 416.596 45.1215 4
-3 4 -7 463.537 49.0184 6
-3 4 -7 486.586 48.0309 5
3 -4 7 520.443 52.7598 4
3 -4 7 413.738 40.0297 2
-4 4 -7 296.811 30.7434 1
-4 4 -7 318.659 36.8661 5
-4 4 -7 271.811 36.7518 6
4 -4 7 216.449 25.2089 2
4 -4 7 286.38 39.1327 4
-5 4 -7 142.116 21.7755 1
-5 4 -7 194.175 27.5359 5
5 -4 7 107.473 26.8108 4
-6 4 -7 72.2712 16.9858 1
-6 4 -7 43.9461 20.437 6
6 -4 7 95.2128 25.7711 4
-9 -3 7 91.8613 24.7251 4
8 3 -7 53.2382 15.8037 5
-8 -3 7 94.0266 21.0209 4
-8 -3 7 145.658 23.9174 1
7 3 -7 63.4598 18.3942 5
-7 -3 7 40.1139 14.3317 1
-7 -3 7 27.546 15.3434 4
6 3 -7 84.4288 17.328 5
6 3 -7 60.8219 14.5608 6
-6 -3 7 100.73 19.9541 1
-6 -3 7 47.2712 19.5648 4
5 3 -7 105.214 19.4963 5
5 3 -7 79.3371 26.549 6
-5 -3 7 144.99 21.3285 1
-5 -3 7 128.944 22.6349 4
4 3 -7 293.844 33.4833 5
4 3 -7 287.266 29.5902 6
3 3 -7 266.642 28.077 6
3 3 -7 275.556 27.8827 1
3 3 -7 287.628 32.7983 5
-3 -3 7 241.147 34.0974 4
-3 -3 7 219.234 29.5241 5
2 3 -7 479.907 47.7573 6
2 3 -7 507.411 48.8501 1
2 3 -7 504.692 51.2644 5
2 3 -7 520.022 52.293 4
-2 -3 7 544.91 50.9291 5
-2 -3 7 590.149 47.4673 2
-2 -3 7 634.726 55.2877 4
1 3 -7 399.308 35.0824 1
1 3 -7 352.918 52.4294 4
1 3 -7 386.397 35.7535 6
1 3 -7 393.488 38.9624 5
-1 -3 7 283.602 32.7088 2
-1 -3 7 372.998 43.6219 4
0 3 -7 931.822 77.2064 6
0 3 -7 853.246 78.8616 4
0 3 -7 887.299 76.7509 1
0 3 -7 840.257 78.5748 5
0 -3 7 1010.87 75.6407 2
-1 3 -7 113.343 19.0279 6
-1 3 -7 135.771 16.8227 1
-1 3 -7 89.7938 19.8468 4
1 -3 7 114.821 25.1541 4
1 -3 7 121.817 15.1391 2
-2 3 -7 173.04 24.0726 6
-2 3 -7 148.141 22.9312 5
2 -3 7 99.0236 24.3955 4
2 -3 7 117.711 19.7307 6
2 -3 7 111.11 15.0318 2
-3 3 -7 427.91 44.359 6
-3 3 -7 454.799 44.3814 5
-3 3 -7 422.793 40.8068 1
3 -3 7 421.552 38.66 2
3 -3 7 445.527 49.7492 4
-4 3 -7 161.273 18.0675 2
-4 3 -7 142.116 20.3596 1
-4 3 -7 162.059 25.407 5
-4 3 -7 169.154 26.7442 6
4 -3 7 220.924 33.7876 4
4 -3 7 206.523 20.3053 2
-5 3 -7 116.009 17.3341 1
-5 3 -7 114.038 22.092 6
-5 3 -7 92.6016 14.0871 2
5 -3 7 121.764 26.0897 4
5 -3 7 105.277 15.3063 2
-6 3 -7 216.99 32.7502 6
-6 3 -7 226.575 27.1106 1
6 -3 7 242.944 24.6631 2
-7 3 -7 57.5329 13.9899 1
-7 3 -7 80.3829 20.4663 6
7 -3 7 85.7709 13.9307 2
-9 -2 7 250.149 30.9265 1
-9 -2 7 210.866 34.1985 4
8 2 -7 18.8659 9.39936 5
-8 -2 7 9.18518 10.6996 1
-8 -2 7 45.9756 16.1814 4
7 2 -7 301.119 28.4818 5
7 2 -7 264.184 28.2238 6
-7 -2 7 245.589 25.8838 5
-7 -2 7 234.246 32.2255 4
-7 -2 7 213.148 26.476 3
-7 -2 7 280.551 30.8241 1
-6 -2 7 73.6066 13.3644 3
-6 -2 7 92.652 13.965 5
-6 -2 7 107.233 17.3226 1
5 2 -7 847.486 70.792 5
5 2 -7 764.508 68.677 6
5 2 -7 729.266 70.2737 1
-5 -2 7 748.345 68.2654 3
-5 -2 7 879.81 68.7181 5
-5 -2 7 930.958 72.6143 1
-5 -2 7 878.513 74.6164 4
4 2 -7 13.308 6.44437 1
4 2 -7 4.72922 8.9346 5
4 2 -7 12.5981 7.85752 6
-4 -2 7 24.7317 7.8619 5
-4 -2 7 21.9843 7.76439 3
-4 -2 7 30.2256 10.046 1
-4 -2 7 9.95294 11.2432 4
3 2 -7 789.381 72.4938 4
3 2 -7 819.429 68.1904 6
3 2 -7 783.411 69.6988 1
3 2 -7 885.051 71.8521 5
-3 -2 7 793.302 69.1215 5
-3 -2 7 854.11 71.0009 1
-3 -2 7 887.578 74.9067 4
2 2 -7 243.002 33.2834 4
2 2 -7 294.002 29.388 6
2 2 -7 281.263 29.6079 1
2 2 -7 305.781 32.7961 5
-2 -2 7 390.966 31.0334 2
-2 -2 7 388.296 31.7168 5
-2 -2 7 395.087 37.7166 4
1 2 -7 500.278 43.963 4
1 2 -7 466.384 38.7271 6
1 2 -7 449.874 39.1087 1
1 2 -7 480.266 42.376 5
-1 -2 7 390.165 38.5962 2
-1 -2 7 375.638 39.3017 5
-1 -2 7 417.081 45.598 4
0 2 -7 43.1518 13.4109 4
0 2 -7 50.109 9.48746 1
0 2 -7 46.9513 13.1915 5
0 2 -7 40.4935 12.7328 6
0 -2 7 55.3895 9.90472 2
0 -2 7 45.3598 16.4252 4
0 -2 7 50.4753 12.7452 5
-1 2 -7 1455.16 127.239 5
-1 2 -7 1473.67 125.399 6
-1 2 -7 1556.66 125.318 1
-1 2 -7 1420.7 131.428 4
1 -2 7 1623.56 125.319 6
1 -2 7 1642.21 126.877 5
1 -2 7 1629.39 132.831 4
1 -2 7 1647.46 125.536 2
-2 2 -7 200.89 25.1566 6
-2 2 -7 212.848 26.0036 5
-2 2 -7 167.452 28.3967 4
-2 2 -7 207.323 21.1718 2
2 -2 7 226.743 24.0344 6
2 -2 7 232.994 34.5719 4
2 -2 7 230.288 22.4118 2
2 -2 7 230.619 24.6982 5
-3 2 -7 1700.11 140.986 1
-3 2 -7 1860.54 143.415 6
3 -2 7 1794.44 141.466 2
3 -2 7 1787.06 145.675 6
3 -2 7 1645.14 147.834 4
-4 2 -7 55.4508 15.1361 6
-4 2 -7 55.9433 10.3226 2
-4 2 -7 41.0712 9.40705 1
4 -2 7 4.40412 15.9522 4
-5 2 -7 302.931 33.5815 6
-5 2 -7 261.965 28.0727 1
5 -2 7 274.833 37.4132 4
5 -2 7 279.323 28.3652 2
-6 2 -7 65.1212 18.6825 6
-6 2 -7 74.0237 14.6144 1
6 -2 7 88.2062 24.2032 4
6 -2 7 112.327 16.2476 2
-7 2 -7 253.057 41.563 6
-7 2 -7 248.346 27.2168 1
7 -2 7 232.904 26.9348 2
7 -2 7 249.222 39.9451 4
-8 2 -7 38.3985 12.6057 1
8 -2 7 38.2761 11.7198 2
8 -2 7 42.1197 10.7822 3
-10 -1 7 126.871 29.9896 4
-9 -1 7 1.52379 13.7077 4
-9 -1 7 5.45809 10.2066 1
-9 -1 7 2.24696 5.82443 3
8 1 -7 558.869 45.3039 6
-8 -1 7 422.009 48.4785 4
-8 -1 7 417.848 39.4166 3
7 1 -7 40.8966 10.8045 6
7 1 -7 22.9446 7.54794 5
-7 -1 7 19.4668 7.28481 3
-7 -1 7 8.29628 11.9115 4
-7 -1 7 26.9716 10.8603 1
6 1 -7 572.731 52.1053 5
6 1 -7 575.792 51.1867 1
6 1 -7 577.097 48.5495 6
-6 -1 7 590.041 51.3585 1
-6 -1 7 545.092 46.5473 5
-6 -1 7 507.264 47.1163 3
5 1 -7 4.27428 5.44843 1
5 1 -7 11.4772 7.22666 5
5 1 -7 7.76556 11.7779 6
-5 -1 7 16.7225 11.6431 4
-5 -1 7 19.9381 6.44947 5
-5 -1 7 20.2059 8.40892 1
4 1 -7 2059.91 161.966 6
4 1 -7 2251.09 164.385 5
4 1 -7 2024.72 164.859 1
-4 -1 7 1952.19 162.76 5
-4 -1 7 2084.12 168.516 4
-4 -1 7 2000.3 165.04 1
3 1 -7 90.7669 9.79337 6
3 1 -7 104.269 18.2947 4
3 1 -7 92.2789 14.7507 5
3 1 -7 89.527 9.88836 6
3 1 -7 92.4633 11.8181 1
-3 -1 7 67.3057 11.4349 1
-3 -1 7 64.644 11.317 5
-3 -1 7 61.4306 15.5638 4
2 1 -7 2781.76 214.208 4
2 1 -7 2879.17 211.619 5
2 1 -7 2489.11 210.692 1
2 1 -7 2614.53 207.46 6
-2 -1 7 2573.44 209.864 1
-2 -1 7 2604.34 210.303 5
-2 -1 7 2782.54 215.142 4
-2 -1 7 2615.85 210.853 2
1 1 -7 27.0668 9.59514 5
1 1 -7 28.3654 5.93355 6
1 1 -7 21.5823 5.44374 1
1 1 -7 24.269 10.1328 4
-1 -1 7 21.2939 12.6149 4
-1 -1 7 22.7655 7.34352 5
-1 -1 7 34.8521 7.78877 2
0 1 -7 1105.18 84.3627 1
0 1 -7 1061.56 87.4475 5
0 1 -7 1087.27 84.5233 6
0 -1 7 1072 92.2049 4
0 -1 7 1051.58 86.8661 5
0 -1 7 979.676 84.012 6
0 -1 7 1026.84 86.1534 2
-1 1 -7 97.5707 19.2653 4
-1 1 -7 123.57 15.518 6
-1 1 -7 139.138 13.3488 1
-1 1 -7 130.7 14.6932 2
1 -1 7 139.736 15.5828 2
1 -1 7 104.52 16.3085 5
1 -1 7 143.2 25.8926 4
1 -1 7 124.464 18.8188 6
-2 1 -7 910.081 81.5955 1
-2 1 -7 962.432 83.7896 6
-2 1 -7 1007.24 83.8079 2
-2 1 -7 876.155 88.5754 4
2 -1 7 1035.18 91.3273 4
2 -1 7 1080.84 83.9628 6
2 -1 7 1152.65 85.9471 5
2 -1 7 1177.68 84.9339 2
-3 1 -7 507.392 43.242 2
-3 1 -7 461.797 50.1289 4
-3 1 -7 529.927 45.3788 6
-3 1 -7 473.863 41.6537 1
3 -1 7 491.681 43.5191 2
3 -1 7 471.516 44.8511 5
3 -1 7 508.322 52.8748 4
3 -1 7 487.956 44.3936 6
-4 1 -7 678.175 56.0631 6
-4 1 -7 604.574 51.8119 1
-4 1 -7 697.034 53.7806 2
4 -1 7 565.262 73.2341 4
4 -1 7 553.78 54.0195 6
4 -1 7 564.589 53.154 2
-5 1 -7 208.885 22.0079 1
5 -1 7 215.231 23.7552 2
5 -1 7 210.475 33.4755 4
-6 1 -7 598.451 55.7808 1
-6 1 -7 673.506 60.6628 6
6 -1 7 701.287 57.6129 2
6 -1 7 596.777 62.7081 4
-7 1 -7 37.7368 10.3986 1
-7 1 -7 39.0192 17.6627 6
7 -1 7 44.1585 11.7085 3
7 -1 7 37.5594 19.0158 4
7 -1 7 42.5556 12.1235 2
-8 1 -7 212.431 33.0345 6
-8 1 -7 187.697 24.9363 1
8 -1 7 234.37 24.6761 3
-10 0 7 -10.37 8.82159 1
-9 0 7 413.855 33.5656 3
8 0 -7 7.21382 11.5358 6
-8 0 7 6.68752 8.27305 6
-8 0 7 -1.5021 8.48645 1
-8 0 7 -9.5319 11.0994 4
-8 0 7 3.35644 4.32271 3
7 0 -7 995.749 78.8586 6
-7 0 7 838.685 75.3057 3
-7 0 7 1059.9 82.0091 1
-7 0 7 886.832 84.1325 4
6 0 -7 2.29049 5.65165 1
6 0 -7 -3.6302 6.09422 6
-6 0 7 7.11985 12.329 4
-6 0 7 -3.3066 2.75134 5
-6 0 7 -3.7136 5.59067 1
5 0 -7 1579.05 133.462 6
5 0 -7 1509.69 136.098 1
-5 0 7 1833.35 140.996 4
-5 0 7 1845.62 133.005 5
4 0 -7 6.75315 4.52468 1
4 0 -7 1.38813 3.5074 6
-4 0 7 6.50093 4.38066 5
-4 0 7 -1.8012 7.61156 4
-4 0 7 -4.5464 3.98428 1
3 0 -7 1850.21 148.702 1
-3 0 7 1865.77 151.851 4
-3 0 7 1794.82 146.734 5
-3 0 7 1916.14 147.338 1
2 0 -7 -1.2887 2.30056 1
2 0 -7 1.65095 8.58256 4
-2 0 7 -1.0538 2.90732 1
-2 0 7 -3.0381 4.56737 5
-2 0 7 3.04008 4.85667 2
-2 0 7 -2.2938 7.0301 4
1 0 -7 590.85 50.8708 1
1 0 -7 608.819 57.0448 4
-1 0 7 664.278 58.5976 4
-1 0 7 714.882 55.0054 5
-1 0 7 665.099 54.4311 2
0 0 -7 5.80325 4.18613 2
0 0 -7 6.65562 3.91482 6
0 0 -7 4.21921 8.72616 4
0 0 7 4.26314 9.22189 4
0 0 7 2.3801 5.11994 5
0 0 7 -0.7149 3.10771 6
0 0 7 1.10545 4.35513 2
-1 0 -7 1036.77 80.3194 2
-1 0 -7 899.153 83.0831 4
-1 0 -7 932.012 78.425 6
1 0 7 985.98 78.4868 6
1 0 7 1005.81 80.5013 2
1 0 7 974.339 80.7689 5
1 0 7 990.175 85.5184 4
-2 0 -7 -0.0374 2.05693 1
-2 0 -7 5.62744 4.88703 2
-2 0 -7 7.0409 9.79569 4
2 0 7 -2.432 6.21891 5
2 0 7 -3.8051 4.43108 2
2 0 7 -16.13 10.4313 4
2 0 7 -4.0314 4.95689 6
-3 0 -7 789.425 76.2243 4
-3 0 -7 957.696 72.055 6
-3 0 -7 845.106 68.1591 1
-3 0 -7 821.986 70.991 2
3 0 7 849.967 72.2682 5
3 0 7 909.334 71.6439 2
3 0 7 791.232 77.5278 4
3 0 7 809.541 70.8912 6
-4 0 -7 5.8646 9.43641 6
-4 0 -7 -1.6288 3.65928 1
-4 0 -7 0.4854 21.4043 4
4 0 7 -2.5428 5.2719 2
4 0 7 -6.1294 11.5913 4
5 0 7 95.8333 21.8016 4
5 0 7 108.468 16.001 2
5 0 7 116.906 16.0148 3
-6 0 -7 8.63046 6.1666 1
-6 0 -7 -12.234 10.6892 6
6 0 7 6.3647 8.38208 2
6 0 7 -8.1492 12.8378 4
6 0 7 5.18692 8.19107 3
7 0 7 553.111 57.5592 4
7 0 7 545.233 49.6614 3
7 0 7 552.304 51.17 2
-8 0 -7 -0.5216 14.8146 6
-8 0 -7 15.0623 8.90653 1
8 0 7 -5.9474 8.57242 2
8 0 7 1.09023 8.36459 3
-10 1 7 212.289 30.415 6
-10 1 7 305.083 34.4851 1
-9 1 7 0.07609 9.23054 1
-9 1 7 -12.958 11.6831 4
-9 1 7 2.66866 10.8122 6
8 -1 -7 590.459 48.7227 6
-8 1 7 451.617 52.6063 4
-8 1 7 468.48 46.5302 6
-8 1 7 534.693 49.0215 1
7 -1 -7 39.1152 11.2154 6
-7 1 7 28.3689 9.55818 6
-7 1 7 9.95987 8.64963 1
-7 1 7 18.6595 4.44606 3
-7 1 7 16.0637 12.3895 4
6 -1 -7 577.021 51.3228 1
6 -1 -7 648.428 49.6874 6
-6 1 7 587.211 50.9618 1
-6 1 7 514.606 55.0148 4
-6 1 7 500.677 52.7502 6
5 -1 -7 6.36489 5.72284 1
5 -1 -7 14.8201 6.59346 6
-5 1 7 19.583 7.37161 1
-5 1 7 16.6416 6.11366 6
-5 1 7 22.186 3.95591 5
-5 1 7 18.7701 12.1699 4
4 -1 -7 1891.21 147.529 1
-4 1 7 1725.69 144.509 6
-4 1 7 1840.42 145.299 5
-4 1 7 1798.47 150.943 4
-4 1 7 1993.13 147.436 1
3 -1 -7 82.855 9.7845 1
-3 1 7 67.1026 11.2322 5
-3 1 7 70.0702 11.335 2
-3 1 7 70.6121 15.0488 4
-3 1 7 74.716 9.69351 1
2 -1 -7 2644.63 203.119 4
-2 1 7 2372.01 198.738 5
-2 1 7 2535.59 197.04 1
-2 1 7 2588.28 202.792 4
-2 1 7 2482.61 199.412 2
1 -1 -7 25.8642 10.4201 4
-1 1 7 35.5564 7.68398 2
-1 1 7 28.6292 4.14866 6
-1 1 7 19.8741 3.78058 6
-1 1 7 26.3067 7.52737 5
-1 1 7 22.7138 10.4877 4
0 -1 -7 1019.86 84.5305 4
0 -1 -7 1140.42 82.2972 2
0 1 7 1028.07 81.8635 2
0 1 7 845.778 78.739 6
0 1 7 981.274 85.2637 4
-1 -1 -7 137.856 14.6478 2
-1 -1 -7 112.622 18.9459 4
1 1 7 93.1529 13.5259 6
1 1 7 122.95 14.5052 2
1 1 7 144.922 22.8926 4
-2 -1 -7 975.665 84.599 2
-2 -1 -7 908.89 87.3252 4
2 1 7 1165.3 90.9421 4
2 1 7 1105.82 85.0666 2
2 1 7 995.248 83.6909 6
-3 -1 -7 467.46 38.0137 1
-3 -1 -7 465.265 41.6186 2
-3 -1 -7 474.299 42.1818 6
-3 -1 -7 403.491 52.6253 4
3 1 7 488.785 42.1971 3
3 1 7 457.152 47.9033 4
3 1 7 420.39 41.136 6
3 1 7 494.398 41.7012 2
-4 -1 -7 673.982 53.0322 6
-4 -1 -7 647.414 48.9229 1
-4 -1 -7 592.203 56.8213 4
4 1 7 500.987 58.2486 2
4 1 7 578.242 51.614 3
4 1 7 496.44 51.284 6
4 1 7 509.987 55.6246 4
-5 -1 -7 209.216 21.2757 1
-5 -1 -7 212.494 28.3846 6
5 1 7 203.886 20.7606 1
5 1 7 191.939 22.97 3
5 1 7 211.903 23.0906 2
5 1 7 184.5 37.9088 4
-6 -1 -7 646.381 57.677 6
-6 -1 -7 599.318 53.1673 1
6 1 7 521.977 58.0363 4
6 1 7 659.688 53.1083 1
-7 -1 -7 62.815 12.9936 1
-7 -1 -7 47.6355 16.6576 6
7 1 7 42.9267 12.7955 2
7 1 7 59.4597 13.6742 3
7 1 7 49.8265 18.1765 4
7 1 7 52.5542 12.5908 1
-8 -1 -7 211.38 31.5844 6
-8 -1 -7 188.923 24.4175 1
8 1 7 202.944 26.3145 2
8 1 7 207.909 25.075 3
-9 2 7 177.777 26.9753 6
-9 2 7 254.048 38.9522 1
-9 2 7 154.121 28.7302 4
8 -2 -7 18.0406 13.888 6
-8 2 7 13.3738 10.1614 1
-8 2 7 14.5788 14.505 4
-8 2 7 9.12771 10.8716 6
7 -2 -7 294.914 30.8614 6
-7 2 7 312.169 31.2873 1
-7 2 7 241.559 35.023 4
-7 2 7 262.265 29.5777 6
6 -2 -7 59.5645 13.2033 6
-6 2 7 87.8555 9.62233 3
-6 2 7 96.5029 14.6418 1
-6 2 7 88.3071 19.6938 4
-6 2 7 69.8313 13.3177 6
-5 2 7 805.362 67.969 5
-5 2 7 877.053 72.0263 2
-5 2 7 838.405 74.7613 6
-5 2 7 867.593 77.0147 4
-5 2 7 947.308 73.0591 1
-4 2 7 37.4883 7.58887 3
-4 2 7 35.4302 7.39917 5
-4 2 7 28.7924 7.01906 5
-4 2 7 36.5444 8.4856 2
-4 2 7 30.9929 8.15993 6
-4 2 7 30.1124 12.1699 4
-4 2 7 39.6783 8.45331 1
-3 2 7 752.762 64.806 4
-3 2 7 752.99 60.7685 2
-3 2 7 718.031 60.5563 3
-3 2 7 666.938 59.2481 6
-3 2 7 761.57 62.7306 5
-2 2 7 365.588 32.7831 2
-2 2 7 336.956 31.4686 6
-2 2 7 368.031 36.9077 4
-2 2 7 387.772 33.4841 3
-2 2 7 380.675 31.5244 1
1 -2 -7 420.886 37.1903 4
-1 2 7 348.066 36.3277 4
-1 2 7 360.535 31.3931 6
-1 2 7 344.894 32.434 2
-1 2 7 317.018 30.7404 6
-1 2 7 389.329 30.1406 1
-1 2 7 351.706 33.0829 3
0 -2 -7 36.5334 12.2179 4
0 -2 -7 45.0326 9.57117 2
0 2 7 55.7285 10.7688 3
0 2 7 52.5077 9.73153 2
0 2 7 67.462 14.9975 4
0 2 7 46.231 10.6523 6
0 2 7 55.2153 6.27358 1
0 2 7 55.3515 6.60747 1
-1 -2 -7 1679.64 132.454 2
-1 -2 -7 1298.1 125.15 4
1 2 7 1633.44 124.343 2
1 2 7 1611.48 127.633 4
1 2 7 1396.28 122.889 6
1 2 7 1559.68 124.78 3
1 2 7 1635.34 120.33 1
-2 -2 -7 176.514 24.9861 4
-2 -2 -7 201.005 22.2444 2
2 2 7 225.252 18.7372 1
2 2 7 176.223 22.6785 6
2 2 7 234.441 22.8563 2
2 2 7 240.268 28.9463 4
2 2 7 238.96 23.702 3
-3 -2 -7 1570.37 131.704 4
3 2 7 1636.05 125.81 1
3 2 7 1664.28 131.871 3
3 2 7 1434.29 129.174 6
3 2 7 1623.77 132.365 4
3 2 7 1632.13 129.343 2
-4 -2 -7 31.2866 13.9667 4
4 2 7 15.8153 5.47 1
4 2 7 7.11093 12.0366 4
4 2 7 9.71028 9.3062 6
4 2 7 7.26699 8.88345 3
4 2 7 8.17918 6.37137 2
-5 -2 -7 295.887 27.3501 1
5 2 7 275.874 32.2568 4
5 2 7 283.74 29.4075 3
5 2 7 268.867 26.1055 1
5 2 7 253.782 28.2079 2
-6 -2 -7 70.7441 12.8721 1
6 2 7 77.7911 18.1758 4
6 2 7 75.8698 15.0954 3
6 2 7 82.2127 15.4453 2
-7 -2 -7 219.623 26.2259 1
7 2 7 240.246 27.8755 3
7 2 7 235.431 27.7076 2
-8 -2 -7 24.6196 11.5889 1
8 2 7 41.0993 16.3344 5
8 2 7 21.8015 11.8886 3
-9 3 7 90.8702 19.5008 1
-9 3 7 68.4558 17.9295 6
-8 3 7 96.3383 14.6982 2
-8 3 7 76.201 17.5305 6
-8 3 7 116.258 20.1345 1
7 -3 -7 44.5957 20.7337 6
-7 3 7 20.7311 12.3717 6
-7 3 7 44.5996 12.6001 1
-7 3 7 33.0966 9.33618 2
-7 3 7 39.2136 11.1096 2
-7 3 7 43.569 16.9537 4
-6 3 7 65.2002 19.0157 4
-6 3 7 77.7336 14.4809 1
-6 3 7 84.7248 12.4553 2
-6 3 7 76.3729 9.79743 3
-6 3 7 81.0253 14.9998 6
-5 3 7 117.224 18.6349 6
-5 3 7 137.038 13.7422 5
-5 3 7 146.618 18.6641 1
-5 3 7 118.158 14.4112 3
-5 3 7 140.633 15.6619 2
-5 3 7 125.197 31.4293 4
-4 3 7 383.777 39.0019 6
-4 3 7 464.515 39.7234 1
-4 3 7 454.043 43.914 4
-4 3 7 436.365 37.7746 3
-4 3 7 404.7 36.9356 5
-4 3 7 428.379 37.5181 2
-3 3 7 207.293 22.203 5
-3 3 7 249.294 28.0596 4
-3 3 7 219.742 21.9174 1
-3 3 7 212.465 21.056 2
-3 3 7 191.055 23.2017 6
-3 3 7 199.515 21.6974 3
-2 3 7 566.557 49.0002 5
-2 3 7 585.544 47.5784 1
-2 3 7 522.017 48.0133 3
-2 3 7 535.492 48.1482 6
-2 3 7 533.816 47.2259 2
-2 3 7 581.564 51.5139 4
-1 3 7 296.85 29.0667 5
-1 3 7 234.22 26.6649 3
-1 3 7 250.242 26.7955 6
-1 3 7 271.338 30.1111 4
-1 3 7 306.459 26.2827 1
-1 3 7 272.947 26.1195 2
-1 3 7 282.697 25.6768 1
0 -3 -7 893.033 76.8364 2
0 3 7 950.737 79.2629 4
0 3 7 987.328 77.4351 1
0 3 7 958.237 77.8889 3
0 3 7 925.546 78.2519 5
0 3 7 971.061 76.6374 2
0 3 7 798.4 75.8406 6
-1 -3 -7 123.121 19.3838 4
-1 -3 -7 117.298 15.4814 2
1 3 7 115.955 18.2888 5
1 3 7 100.18 19.1416 4
1 3 7 128.917 17.7124 3
1 3 7 108.285 16.9626 6
1 3 7 110.575 14.5191 2
-2 -3 -7 165.338 26.5153 2
-2 -3 -7 137.673 18.8636 4
2 3 7 80.7841 17.7355 4
2 3 7 101.418 12.3922 1
2 3 7 93.7679 14.1505 2
2 3 7 96.622 16.6389 6
2 3 7 93.1769 18.0782 5
2 3 7 106.946 16.375 3
-3 -3 -7 388.38 39.251 4
3 3 7 404.761 37.2756 2
3 3 7 434.779 40.2957 4
3 3 7 407.961 39.001 3
3 3 7 417.126 40.7465 5
3 3 7 316.779 40.1028 6
3 3 7 406.889 35.2612 1
4 3 7 187.741 20.1194 1
4 3 7 195.816 22.5225 2
4 3 7 189.829 24.1313 3
4 3 7 213.698 27.2118 5
4 3 7 190.129 24.6052 4
-5 -3 -7 86.7384 19.3399 4
5 3 7 116.673 19.4899 3
5 3 7 116.666 19.3528 4
5 3 7 107.854 14.7894 1
5 3 7 100.561 15.7961 2
5 3 7 122.641 21.3062 5
-6 -3 -7 250.533 28.4958 1
6 3 7 328.919 49.8788 5
6 3 7 275.538 27.8349 1
6 3 7 251.206 30.5636 3
-7 -3 -7 61.2704 13.7275 1
7 3 7 40.1362 17.1608 5
7 3 7 55.044 14.4218 3
-8 4 7 83.0748 18.8585 1
-8 4 7 141.381 15.6794 2
-8 4 7 144.737 27.8581 4
-8 4 7 93.8156 20.4103 6
-7 4 7 52.6825 14.8647 1
-7 4 7 62.6664 16.5308 6
-7 4 7 49.3702 9.64183 2
-7 4 7 63.2171 19.7409 4
-6 4 7 141.707 15.3365 3
-6 4 7 134.408 16.4046 2
-6 4 7 143.223 15.8719 2
-6 4 7 137.563 22.714 6
-6 4 7 166.496 21.8367 1
-6 4 7 187.078 28.3981 4
-6 4 7 149.248 14.7411 5
-5 4 7 156.86 27.4956 4
-5 4 7 174.542 22.927 1
-5 4 7 202.961 19.9585 3
-5 4 7 198.958 19.629 5
-5 4 7 179.19 26.3413 6
-5 4 7 184.021 18.6841 2
-4 4 7 448.479 40.4 5
-4 4 7 470.445 39.4211 2
-4 4 7 459.297 45.4773 4
-4 4 7 456.651 44.2508 6
-4 4 7 507.097 43.5157 1
-4 4 7 405.844 40.2413 3
-3 4 7 230.51 27.9581 6
-3 4 7 278.708 30.2054 4
-3 4 7 247.892 23.5109 2
-3 4 7 215.587 24.8545 3
-3 4 7 271.633 27.0435 1
-3 4 7 251.378 26.4313 5
-2 4 7 294.582 32.4417 6
-2 4 7 319.518 32.3318 5
-2 4 7 295.651 28.4623 2
-2 4 7 340.493 31.1463 1
-2 4 7 310.512 32.8641 4
-2 4 7 307.217 31.0538 3
-1 4 7 34.2649 7.98295 2
-1 4 7 33.6831 11.6969 4
-1 4 7 38.9872 8.95747 1
-1 4 7 28.5244 11.3375 6
-1 4 7 29.2656 11.4664 5
-1 4 7 16.9124 9.21721 3
0 -4 -7 290.54 28.524 2
0 4 7 315.145 32.1331 5
0 4 7 308.446 30.8237 3
0 4 7 284.517 27.9735 2
0 4 7 300.499 32.0363 4
0 4 7 271.782 27.9905 1
-1 -4 -7 451.285 43.4123 2
1 4 7 518.686 47.2781 4
1 4 7 478.306 42.6763 2
1 4 7 503.137 47.0761 5
1 4 7 457.312 42.8276 1
1 4 7 500.268 45.7182 3
2 4 7 365.772 34.3456 4
2 4 7 329.662 35.6318 5
2 4 7 300.649 33.1688 3
2 4 7 325.244 31.1888 1
2 4 7 315.61 31.7578 2
-3 -4 -7 512.387 43.4332 4
3 4 7 430.676 43.9421 3
3 4 7 449.775 41.9552 4
3 4 7 474.165 46.4147 5
3 4 7 442.698 42.3579 2
3 4 7 458.619 41.61 1
4 4 7 246.852 31.3674 5
4 4 7 215.332 24.6281 1
4 4 7 278.862 28.7231 3
4 4 7 211.794 25.2778 2
5 4 7 110.929 22.257 5
5 4 7 149.229 20.983 3
5 4 7 129.092 19.9397 2
6 4 7 48.2588 13.5964 2
-6 5 7 80.167 20.4879 6
-6 5 7 79.0156 15.6206 1
-6 5 7 89.5363 20.4677 4
-6 5 7 60.2338 14.5315 3
-5 5 7 179.67 23.0997 1
-5 5 7 168.905 19.1376 5
-5 5 7 160.179 18.7016 3
-5 5 7 143.656 24.3596 4
-5 5 7 117.778 22.9563 6
-4 5 7 90.8253 14.4228 5
-4 5 7 56.6611 15.798 4
-4 5 7 81.0051 13.5972 3
-4 5 7 95.3107 17.526 1
-4 5 7 59.6617 17.0205 6
-3 5 7 259.513 32.2133 4
-3 5 7 296.032 26.4026 2
-3 5 7 350.845 33.053 1
-3 5 7 291.834 30.4759 3
-3 5 7 286.113 34.1613 6
-3 5 7 308.385 31.6273 5
-2 5 7 122.027 19.1099 1
-2 5 7 120.578 18.8567 5
-2 5 7 104.179 13.107 2
-2 5 7 110.307 20.0898 4
-2 5 7 99.116 19.9647 6
-2 5 7 114.457 18.6272 3
-1 5 7 276.727 31.2244 6
-1 5 7 221.533 27.2663 3
-1 5 7 256.336 30.1366 5
-1 5 7 236.74 23.7463 2
0 -5 -7 106.486 15.6502 2
0 5 7 137.888 22.0402 6
0 5 7 100.265 18.973 5
0 5 7 110.304 17.1633 4
0 5 7 104.733 14.7802 2
0 5 7 113.98 17.8374 3
1 5 7 217.551 28.861 5
1 5 7 171.204 28.345 2
1 5 7 255.192 27.788 3
2 5 7 65.5438 12.3217 2
2 5 7 49.7879 14.8799 3
3 5 7 76.9709 18.6844 5
3 5 7 57.2871 15.6472 3
3 5 7 89.5434 15.2473 2
4 5 7 12.5824 9.37705 2
-2 6 7 179.13 24.822 1
-2 6 7 140.712 30.1279 6
-2 6 7 150.006 27.1648 5
-2 6 7 186.719 23.315 3
-1 6 7 18.3692 16.8021 6
-1 6 7 11.1356 12.1981 5
-1 6 7 5.60242 10.5741 3
0 6 7 176.566 28.6426 5
0 6 7 207.445 29.5036 6
0 6 7 162.252 25.8934 3
0 6 7 173.456 19.4096 2
1 6 7 44.9212 16.3574 6
5 5 -8 26.4645 16.9571 5
5 5 -8 29.6262 17.3454 6
-5 -5 8 -2.8877 15.5929 4
4 5 -8 81.3751 20.6617 6
4 5 -8 49.964 20.4282 5
-4 -5 8 90.8315 25.1677 4
3 5 -8 112.121 26.4876 5
3 5 -8 162.565 27.2182 6
-3 -5 8 203.275 42.2769 4
-3 -5 8 196.05 22.334 2
2 5 -8 330.205 39.2667 6
2 5 -8 284.383 40.7772 5
-2 -5 8 285.13 30.8463 2
-2 -5 8 379.047 47.0065 4
1 5 -8 65.0215 20.0718 6
1 5 -8 73.4278 21.2549 5
-1 -5 8 90.5949 14.1792 2
-1 -5 8 109.312 26.2579 4
0 5 -8 79.1336 20.882 6
0 5 -8 92.3153 21.8072 5
0 -5 8 52.7658 20.9044 4
0 -5 8 62.24 11.7693 2
-1 5 -8 90.7817 23.0814 5
-1 5 -8 52.7402 19.6729 6
1 -5 8 115.622 26.7242 4
-2 5 -8 83.8448 23.5889 6
-2 5 -8 73.9518 21.4548 5
2 -5 8 149.314 27.1619 4
-3 5 -8 91.1211 23.1801 6
7 4 -8 117.102 22.0962 5
-7 -4 8 109.518 24.7241 4
-7 -4 8 119.833 22.5721 1
6 4 -8 196.772 29.4176 5
-6 -4 8 164.289 29.6145 4
5 4 -8 185.114 30.3329 5
5 4 -8 187.542 29.702 6
-5 -4 8 168.666 30.2391 4
4 4 -8 246.445 34.699 5
-4 -4 8 243.211 58.8382 4
3 4 -8 248.794 32.3978 6
3 4 -8 233.497 34.3996 5
-3 -4 8 309.591 29.2073 2
-3 -4 8 336.283 43.9652 4
2 4 -8 319.387 37.6754 6
2 4 -8 324.05 40.559 5
-2 -4 8 441.51 48.081 4
-2 -4 8 350.45 39.1058 2
1 4 -8 540.832 54.7954 5
1 4 -8 482.635 51.1047 6
-1 -4 8 568.765 48.5997 2
-1 -4 8 603.874 67.741 4
0 4 -8 369.167 44.7815 5
0 -4 8 496.215 53.7364 4
0 -4 8 419.926 38.7501 2
-1 4 -8 285.185 35.2469 6
-1 4 -8 289.212 37.1924 5
1 -4 8 359.591 43.2257 4
1 -4 8 273.325 28.7756 2
-2 4 -8 300.739 38.8192 6
-2 4 -8 269.524 37.5913 5
2 -4 8 316.592 30.3712 2
2 -4 8 369.326 43.841 4
-3 4 -8 409.14 45.3604 5
-3 4 -8 424.835 41.6223 1
-3 4 -8 419.437 46.9495 6
3 -4 8 374.45 37.5216 2
3 -4 8 480.613 51.6331 4
-4 4 -8 37.0995 11.517 1
-4 4 -8 36.187 17.6112 6
4 -4 8 44.3401 10.3675 2
4 -4 8 10.3997 17.2845 4
-5 4 -8 117.83 18.0926 1
-5 4 -8 83.0004 21.8049 6
5 -4 8 76.0089 23.2086 4
8 3 -8 133.407 21.8973 5
-8 -3 8 108.346 24.2869 4
-8 -3 8 192.473 26.2937 1
7 3 -8 299.563 32.723 5
-7 -3 8 262.117 32.7108 1
-7 -3 8 212.805 35.1173 4
6 3 -8 169.855 26.3575 5
6 3 -8 154.743 22.9732 6
-6 -3 8 154.543 24.8134 1
-6 -3 8 127.216 25.3583 4
5 3 -8 286.779 33.8529 6
5 3 -8 345.843 37.4939 5
-5 -3 8 358.656 36.8854 1
-5 -3 8 359.765 42.1475 4
4 3 -8 109.288 17.9469 6
4 3 -8 125.218 20.4106 6
4 3 -8 116.602 22.105 5
3 3 -8 374.378 37.4384 1
3 3 -8 365.79 36.7998 6
3 3 -8 421.202 42.3317 4
3 3 -8 392.931 43.348 5
-3 -3 8 370.416 44.2806 4
2 3 -8 415.014 39.5689 1
2 3 -8 405.911 39.033 6
2 3 -8 390.287 43.0094 4
2 3 -8 409.259 43.218 5
-2 -3 8 437.69 38.8617 2
-2 -3 8 438.27 49.2212 4
1 3 -8 733.232 67.5436 4
1 3 -8 778.652 68.4313 5
1 3 -8 804.359 71.3241 1
1 3 -8 838.126 65.4789 6
-1 -3 8 583.599 70.4812 4
0 3 -8 240.536 28.1249 6
0 3 -8 259.766 28.755 1
0 3 -8 241.221 31.1601 5
0 -3 8 271.985 38.822 4
0 -3 8 234.447 25.3333 2
-1 3 -8 83.2984 17.0404 5
1 -3 8 30.643 33.986 4
1 -3 8 12.3216 7.54918 2
-2 3 -8 81.7436 13.7547 1
-2 3 -8 68.6214 17.7494 6
-2 3 -8 72.6096 18.9279 5
2 -3 8 82.9211 23.8484 4
2 -3 8 100.813 17.3026 6
2 -3 8 100.518 14.0748 2
-3 3 -8 464.859 47.5301 5
-3 3 -8 452.742 48.0886 6
-3 3 -8 392.935 42.8271 1
3 -3 8 523.364 54.9125 4
3 -3 8 567.68 43.9004 2
-4 3 -8 157.438 26.7724 6
4 -3 8 215.002 35.7479 4
4 -3 8 185.009 21.5822 2
-5 3 -8 201.102 30.4465 6
-5 3 -8 210.563 24.307 1
5 -3 8 241.162 37.1973 4
5 -3 8 183.728 22.6712 2
-6 3 -8 96.5978 16.4385 1
-6 3 -8 77.4996 20.2163 6
6 -3 8 64.7742 22.7044 4
6 -3 8 47.3952 11.5833 2
7 -3 8 59.7076 13.9534 2
9 2 -8 -4.6159 5.52402 5
-9 -2 8 41.6784 14.1849 1
-9 -2 8 4.98381 14.1775 4
-8 -2 8 305.144 33.5586 1
-8 -2 8 283.463 36.3331 4
-8 -2 8 265.925 27.4206 5
7 2 -8 174.376 23.7765 5
7 2 -8 163.694 29.7969 6
-7 -2 8 225.658 32.358 4
-7 -2 8 225.729 26.3633 1
-7 -2 8 169.554 21.0933 5
6 2 -8 573.904 48.8288 6
6 2 -8 626.609 51.252 5
-6 -2 8 539.662 51.7207 1
-6 -2 8 504.088 55.1828 4
-6 -2 8 511.087 49.382 5
5 2 -8 50.8997 11.8211 1
5 2 -8 58.3472 10.8243 6
5 2 -8 74.5 15.0013 5
-5 -2 8 45.59 13.14 1
4 2 -8 605.335 53.1549 5
4 2 -8 547.573 48.7328 6
4 2 -8 572.769 49.3351 6
-4 -2 8 594.973 52.6996 1
-4 -2 8 566.588 56.0356 4
3 2 -8 234.721 28.552 4
3 2 -8 210.287 21.1642 6
3 2 -8 191.554 25.782 5
3 2 -8 189.378 21.3048 1
-3 -2 8 198.782 22.6037 5
-3 -2 8 207.77 30.1713 4
-3 -2 8 192.981 22.4628 1
2 2 -8 1343.86 104.412 1
2 2 -8 1307.89 102.593 6
2 2 -8 1246.07 108.194 4
2 2 -8 1384.17 107.333 5
-2 -2 8 1233.85 104.52 2
-2 -2 8 1193.59 104.242 5
-2 -2 8 1238 110.138 4
1 2 -8 174.85 18.9995 1
1 2 -8 179.625 19.8577 6
1 2 -8 161.942 23.7272 5
1 2 -8 169.976 24.7536 4
0 2 -8 996.605 83.2712 6
0 2 -8 965.992 86.358 5
0 2 -8 991.8 82.8965 1
0 2 -8 981.333 88.2691 4
0 -2 8 1036.67 83.957 2
0 -2 8 1038.06 91.914 4
0 -2 8 1076.61 85.4908 5
-1 2 -8 11.8819 11.7343 4
-1 2 -8 28.4769 12.1713 5
-1 2 -8 34.0934 8.08181 1
-1 2 -8 20.3383 10.0157 6
1 -2 8 12.6731 7.67176 6
1 -2 8 5.89251 15.6892 4
1 -2 8 5.74935 6.43865 2
-2 2 -8 735.22 67.5853 5
-2 2 -8 701.776 62.5314 1
-2 2 -8 754.021 65.0112 6
2 -2 8 789.758 64.3965 6
2 -2 8 767.312 64.1642 2
-3 2 -8 3.00237 5.61321 2
-3 2 -8 7.10946 10.5501 6
3 -2 8 21.1707 10.489 6
3 -2 8 17.6261 16.7708 4
3 -2 8 24.6872 8.23899 2
-4 2 -8 259.324 27.0589 1
4 -2 8 322.478 41.6094 4
-5 2 -8 113.203 20.6698 6
-5 2 -8 104.715 14.6481 1
5 -2 8 70.841 21.3765 4
5 -2 8 67.532 13.9608 2
-6 2 -8 129.282 24.5341 6
-6 2 -8 119.399 17.9576 1
6 -2 8 178.787 20.7702 2
-7 2 -8 -1.2934 7.89573 1
-7 2 -8 -0.1632 15.2204 6
7 -2 8 7.76707 8.56732 2
-9 -1 8 131.101 25.4072 4
8 1 -8 230.166 34.2062 6
-8 -1 8 200.965 25.3592 1
-8 -1 8 178.174 30.77 4
-8 -1 8 161.706 20.4562 3
7 1 -8 762.548 61.4605 6
-7 -1 8 793.197 65.4213 1
-7 -1 8 693.132 58.444 5
-7 -1 8 629.758 61.1943 3
6 1 -8 136.8 19.7038 1
6 1 -8 138.062 17.4752 5
6 1 -8 120.49 15.9899 6
-6 -1 8 129.951 18.6999 1
-6 -1 8 112.274 14.8815 5
-6 -1 8 121.824 22.9531 4
5 1 -8 288.524 28.7177 1
5 1 -8 257.025 23.3912 6
5 1 -8 276.292 26.4705 5
-5 -1 8 230.143 26.5705 1
-5 -1 8 239.293 41.9587 4
-5 -1 8 219.559 23.7728 5
4 1 -8 141.245 18.8338 5
4 1 -8 135.859 13.7941 6
4 1 -8 120.231 16.4018 1
-4 -1 8 175.071 25.4524 4
-4 -1 8 142.223 17.284 1
-4 -1 8 155.192 17.0563 5
3 1 -8 1589.6 149.101 1
3 1 -8 1697.96 153.897 4
3 1 -8 1831.18 150.938 5
-3 -1 8 2027.64 155.747 4
-3 -1 8 1969.34 151.064 2
-3 -1 8 2072.51 150.855 1
-3 -1 8 1987.06 150.1 5
2 1 -8 178.708 26.2365 4
2 1 -8 162.784 22.3585 5
-2 -1 8 195.521 20.3699 2
-2 -1 8 216.358 28.436 4
-2 -1 8 192.936 21.3961 5
1 1 -8 1791.32 139.308 1
1 1 -8 1943.47 143.281 5
1 1 -8 1764.43 138.242 6
1 1 -8 1758.52 145.558 4
-1 -1 8 1723.43 141.659 5
-1 -1 8 1697.67 141.624 2
-1 -1 8 1668.33 146.109 4
0 1 -8 160.202 15.7706 1
0 1 -8 171.611 24.7378 4
0 1 -8 175.764 17.5486 6
0 -1 8 131.455 25.1389 5
0 -1 8 167.37 27.5209 4
0 -1 8 188.167 18.8642 2
-1 1 -8 1218 95.52 2
-1 1 -8 1145.93 100.334 4
-1 1 -8 1219.93 94.7046 6
-1 1 -8 1338.57 93.28 1
-1 1 -8 1146.52 92.6577 1
1 -1 8 1055.54 93.8317 6
1 -1 8 1059.14 101.889 4
1 -1 8 1149.71 96.0135 2
1 -1 8 1137.97 96.633 5
-2 1 -8 34.302 10.3596 6
-2 1 -8 31.9081 8.31083 2
-2 1 -8 28.3916 5.94225 1
-2 1 -8 16.3552 13.9427 4
2 -1 8 59.7876 10.8819 6
2 -1 8 59.3078 20.8767 4
2 -1 8 41.3401 11.5185 5
2 -1 8 46.0308 10.4093 2
-3 1 -8 1385.11 117.787 2
-3 1 -8 1203.61 112.649 1
-3 1 -8 1406.37 116.348 6
3 -1 8 1448.39 115.953 6
3 -1 8 1633.7 117.027 2
3 -1 8 1506.12 127.745 4
-4 1 -8 12.7893 5.70984 1
-4 1 -8 24.3765 12.2661 6
4 -1 8 30.8197 16.0441 4
4 -1 8 28.45 9.28219 2
4 -1 8 14.1152 8.86411 6
-5 1 -8 957.16 83.1789 1
-5 1 -8 1021.81 87.8577 6
5 -1 8 996.065 92.6304 4
5 -1 8 1080.17 86.0601 2
-6 1 -8 42.3876 10.4236 1
-6 1 -8 24.3891 14.8677 6
6 -1 8 73.0614 14.5862 2
6 -1 8 48.5696 20.2971 4
-7 1 -8 119.269 17.9608 1
-7 1 -8 93.4465 22.7038 6
7 -1 8 155.934 20.0578 2
7 -1 8 141.06 27.9669 4
-8 1 -8 17.8875 10.2495 1
8 -1 8 27.6409 12.5155 2
8 -1 8 39.4236 11.6349 3
9 0 -8 18.3216 17.9357 6
-9 0 8 -1.8048 8.84597 1
-9 0 8 18.9203 15.1123 4
8 0 -8 78.9602 15.7294 6
-8 0 8 100.52 11.9768 3
-8 0 8 143.939 20.2137 1
-8 0 8 97.3506 21.5396 4
7 0 -8 2.22728 8.17373 6
-7 0 8 -1.2631 4.38677 3
-7 0 8 -10.881 9.7303 4
-7 0 8 0.95341 7.65095 1
-6 0 8 67.5627 17.2707 4
-6 0 8 94.0586 15.1289 1
-6 0 8 65.2241 9.12764 5
5 0 -8 -0.1719 4.43312 6
5 0 -8 -2.117 4.54525 1
-5 0 8 0.68311 5.98375 1
4 0 -8 604.443 48.786 1
-4 0 8 586.564 48.6434 1
-4 0 8 548.431 54.2611 4
-4 0 8 512.618 47.0904 5
3 0 -8 2.33816 9.72371 4
-3 0 8 0.47287 5.39457 5
-3 0 8 7.09285 11.0355 4
-3 0 8 3.12067 4.83727 2
-3 0 8 1.31593 4.38074 1
2 0 -8 1125.59 80.7338 1
-2 0 8 952.817 83.3086 2
-2 0 8 1008.49 88.4659 4
-2 0 8 962.704 83.0258 5
-2 0 8 991.08 80.8387 1
1 0 -8 -9.9999 7.88467 4
-1 0 8 6.39538 6.11831 5
-1 0 8 -2.5545 4.08924 2
-1 0 8 2.92063 10.638 4
0 0 -8 1335.09 111.743 4
0 0 8 1269.99 102.509 5
0 0 8 1282.37 102.259 2
0 0 8 1231.93 106.928 4
0 0 8 1168.35 98.3519 6
-1 0 -8 -2.9522 9.27145 4
-1 0 -8 -3.9092 3.56523 2
-1 0 -8 1.83399 5.87784 6
1 0 8 -4.777 4.74201 6
1 0 8 -1.8957 5.1074 2
1 0 8 5.52414 13.0577 4
1 0 8 -1.5879 6.12969 5
-2 0 -8 1077.74 90.6412 6
-2 0 -8 1094.49 91.5983 2
2 0 8 1177.28 99.12 4
2 0 8 1214.49 92.6321 2
2 0 8 1025.84 90.153 6
-3 0 -8 -0.3148 2.72187 1
-3 0 -8 1.17265 8.06462 6
3 0 8 -3.3409 6.84536 6
3 0 8 -5.1809 13.3746 4
3 0 8 -0.3791 5.51742 2
-4 0 -8 1472.8 108.997 6
-4 0 -8 1361.82 104.687 1
4 0 8 1275.06 108.01 2
4 0 8 1195.88 107.571 6
4 0 8 1225.34 113.429 4
-5 0 -8 0.3586 4.68751 1
-5 0 -8 4.79631 11.3371 6
5 0 8 1.83451 7.24871 2
5 0 8 9.46953 15.1725 4
5 0 8 7.1891 7.33545 3
-6 0 -8 563.589 50.6249 6
-6 0 -8 513.451 43.0014 1
6 0 8 451.254 44.9236 2
6 0 8 435.84 44.1495 3
6 0 8 408.193 50.2069 4
-7 0 -8 3.54321 14.7288 6
-7 0 -8 1.11648 6.9065 1
7 0 8 5.99831 8.85399 3
-8 0 -8 365.482 36.7271 1
-8 0 -8 335.255 43.1059 6
-10 1 8 54.514 14.1855 6
-9 1 8 154.556 29.1749 4
-9 1 8 129.624 21.3463 6
8 -1 -8 233.535 25.6895 6
-8 1 8 180.731 31.0376 4
-8 1 8 229.807 25.6573 1
-8 1 8 177.099 22.8615 6
-8 1 8 187.531 16.9322 3
-8 1 8 181.592 16.6106 3
-7 1 8 739.054 60.1546 1
-7 1 8 629.076 56.5319 6
-7 1 8 649.729 64.5616 4
6 -1 -8 97.5455 15.758 1
-6 1 8 144.654 24.7899 4
-6 1 8 96.6056 14.0591 6
-6 1 8 121.062 16.2474 1
5 -1 -8 243.278 22.9583 1
-5 1 8 219.217 19.0577 5
-5 1 8 200.588 32.1485 4
-5 1 8 180.825 18.797 6
-5 1 8 219.587 22.3025 1
4 -1 -8 125.293 15.4176 1
-4 1 8 151.461 17.5686 2
-4 1 8 165.474 24.4678 4
-4 1 8 143.451 15.413 5
-4 1 8 129.76 15.4275 1
-3 1 8 1978.03 159.833 4
-3 1 8 1887.45 155.68 2
-3 1 8 1812.88 154.395 5
-3 1 8 2110.45 154.025 1
-2 1 8 180.532 16.2151 1
-2 1 8 181.478 25.2068 4
-2 1 8 182.077 19.9507 5
-2 1 8 168.334 19.2628 2
1 -1 -8 1692.84 133.487 4
-1 1 8 1581.89 133.567 4
-1 1 8 1474.55 129.299 5
-1 1 8 1700.46 129.854 2
0 -1 -8 155.866 23.1194 4
0 -1 -8 203.363 19.6058 2
0 1 8 182.963 26.4385 4
0 1 8 186.635 19.1924 2
0 1 8 146.796 15.8125 6
0 1 8 166.079 20.0223 5
-1 -1 -8 1116.47 90.2072 4
1 1 8 907.935 85.0947 6
1 1 8 1086.57 89.888 4
1 1 8 912.331 83.6526 5
1 1 8 1044.37 83.7701 2
-2 -1 -8 32.3124 8.86675 2
-2 -1 -8 17.384 11.6463 4
2 1 8 47.446 11.1318 5
2 1 8 66.2404 18.8518 4
2 1 8 51.0549 9.82829 2
2 1 8 37.3837 9.01648 6
-3 -1 -8 1237.86 115.665 4
3 1 8 1419.26 113.583 2
3 1 8 1453.73 123.088 3
3 1 8 1528.07 119.3 4
3 1 8 1262.85 111.08 6
-4 -1 -8 6.94811 9.40463 6
-4 -1 -8 11.1134 4.40732 1
4 1 8 28.4702 10.6119 3
4 1 8 11.0482 9.12808 6
4 1 8 21.0267 8.45598 2
-5 -1 -8 999.16 86.0638 6
-5 -1 -8 971.904 82.0662 1
5 1 8 996.985 90.3347 4
5 1 8 1013.45 85.2764 2
5 1 8 1049.56 85.5117 3
-6 -1 -8 51.4568 16.0735 6
-6 -1 -8 44.4631 10.8092 1
6 1 8 55.85 14.0375 3
6 1 8 47.0545 12.9877 2
6 1 8 60.2457 18.2273 4
-7 -1 -8 89.7572 21.9964 6
-7 -1 -8 131.67 18.7417 1
7 1 8 166.543 21.0871 3
7 1 8 198.754 29.9006 4
-8 -1 -8 -1.5554 7.68617 1
-9 2 8 12.9613 12.4625 6
-9 2 8 8.98146 10.2334 1
8 -2 -8 327.11 34.6848 6
-8 2 8 316.478 33.4816 1
-8 2 8 260.993 31.0574 6
7 -2 -8 231.501 24.4016 6
-7 2 8 219.931 24.2297 1
-7 2 8 131.839 21.3284 6
-7 2 8 166.892 29.6534 4
-7 2 8 181.982 16.9017 3
-6 2 8 483.354 44.8091 6
-6 2 8 579.249 47.8887 1
-6 2 8 533.615 48.8857 2
-6 2 8 478.333 43.3432 3
-6 2 8 549.745 53.304 4
-5 2 8 48.0291 9.05729 3
-5 2 8 51.4524 10.4793 2
-5 2 8 33.4964 8.59184 6
-5 2 8 66.1694 11.5243 1
-5 2 8 49.319 7.99673 5
-5 2 8 55.5841 16.8755 4
-5 2 8 48.8673 7.32871 5
-4 2 8 493.653 41.0446 5
-4 2 8 459.824 40.8573 5
-4 2 8 525.32 42.2172 1
-4 2 8 395.376 39.9304 6
-4 2 8 489.46 47.8775 4
-4 2 8 514.924 42.8932 2
-4 2 8 509.899 42.1427 3
-3 2 8 177.764 18.5388 3
-3 2 8 140.231 16.1724 6
-3 2 8 190.084 25.3577 4
-3 2 8 171.192 18.6348 2
-3 2 8 186.914 17.1305 1
-3 2 8 149.476 18.2561 5
-2 2 8 1002.64 87.4923 6
-2 2 8 1074.14 93.7964 4
-2 2 8 1147.27 90.4848 2
-2 2 8 1159.39 87.8437 1
-2 2 8 1143.23 90.8892 3
1 -2 -8 144.22 20.7837 4
-1 2 8 87.3486 12.4226 6
-1 2 8 91.4579 9.31005 1
-1 2 8 92.2479 12.018 6
-1 2 8 94.1447 13.3274 2
-1 2 8 99.8256 19.435 4
-1 2 8 105.846 9.85278 1
-1 2 8 99.0066 13.544 3
0 -2 -8 861.159 81.0351 4
0 -2 -8 971.612 78.9496 2
0 2 8 992.644 79.4833 3
0 2 8 875.677 77.2339 6
0 2 8 990.091 83.1876 4
0 2 8 1001.61 78.9103 2
-1 -2 -8 43.4821 12.6792 4
-1 -2 -8 37.8928 9.57899 2
1 2 8 3.2837 6.04599 3
1 2 8 5.22699 11.8041 4
1 2 8 10.83 7.21078 6
1 2 8 -0.9149 4.80116 2
2 2 8 742.807 67.039 4
2 2 8 762.954 62.4449 2
2 2 8 744.159 62.043 3
2 2 8 610.078 60.0453 6
3 2 8 36.7891 10.6836 3
3 2 8 12.0653 14.2115 4
3 2 8 29.4673 4.95716 1
3 2 8 22.5712 8.05017 2
3 2 8 7.92938 9.33994 6
4 2 8 306.298 31.1272 2
4 2 8 294.732 31.6796 3
4 2 8 327.548 37.6982 4
-5 -2 -8 124.976 14.0036 1
5 2 8 85.2514 19.6386 4
5 2 8 91.7962 15.9863 2
5 2 8 82.3812 12.4081 1
5 2 8 95.9338 17.7519 3
6 2 8 138.931 18.461 1
6 2 8 208.043 23.8476 3
6 2 8 173.798 28.7505 4
-7 -2 -8 -8.0173 4.42421 1
7 2 8 19.1559 14.673 2
7 2 8 0.14705 10.6734 3
-8 3 8 146.058 18.3039 2
-8 3 8 159.282 22.4724 1
-8 3 8 90.4536 19.2052 6
-8 3 8 138.562 26.9613 4
-7 3 8 200.193 31.4284 4
-7 3 8 171.766 24.4307 6
-7 3 8 226.382 25.253 1
-7 3 8 232.419 22.4947 2
-7 3 8 180.708 17.1613 3
-6 3 8 123.736 14.5964 3
-6 3 8 169.937 17.7691 2
-6 3 8 155.794 19.3196 1
-6 3 8 107.157 18.049 6
-6 3 8 158.396 27.2199 4
-5 3 8 314.355 30.846 2
-5 3 8 354.875 32.9833 1
-5 3 8 332.497 30.4236 3
-5 3 8 295.292 32.1141 6
-5 3 8 340.431 28.9435 5
-5 3 8 359.986 38.7757 4
-4 3 8 146.035 20.6674 6
-4 3 8 176.988 19.5438 5
-4 3 8 193.312 19.5296 2
-4 3 8 206.753 20.891 1
-4 3 8 182.369 19.5005 3
-4 3 8 190.118 28.5551 4
-3 3 8 347.005 30.5488 1
-3 3 8 329.343 31.0925 3
-3 3 8 327.509 36.7997 4
-3 3 8 296.129 30.824 6
-3 3 8 325.836 31.2909 5
-3 3 8 345.69 30.7091 2
-2 3 8 420.413 37.5432 5
-2 3 8 418.406 34.4978 1
-2 3 8 375.119 35.6182 6
-2 3 8 362.385 35.9652 3
-2 3 8 402.233 35.7858 2
-2 3 8 374.824 39.6706 4
-1 3 8 543.202 47.6077 5
-1 3 8 489.375 45.806 3
-1 3 8 535.657 43.3598 1
-1 3 8 531.248 49.1354 1
-1 3 8 509.663 45.1807 6
-1 3 8 456.344 48.8815 4
-1 3 8 544.7 45.6042 2
0 -3 -8 220.261 28.2401 4
0 -3 -8 237.253 24.5198 2
0 3 8 226.426 29.6317 4
0 3 8 209.458 23.2389 2
0 3 8 245.078 26.9213 5
0 3 8 190.122 23.3783 6
0 3 8 216.685 24.0595 3
0 3 8 237.291 21.2064 1
0 3 8 250.993 21.0508 1
1 3 8 12.3163 4.56927 1
1 3 8 26.3523 9.24006 6
1 3 8 8.17853 12.1943 4
1 3 8 4.04663 10.5992 5
1 3 8 12.0242 7.08714 2
1 3 8 19.1436 7.92638 3
2 3 8 96.3102 15.8119 2
2 3 8 103.28 20.2543 4
2 3 8 101.753 11.651 1
2 3 8 87.5918 17.9471 5
2 3 8 110.85 16.6391 3
2 3 8 89.166 16.2988 6
3 3 8 462.69 45.1927 2
3 3 8 507.539 47.2606 3
3 3 8 505.285 48.7818 4
3 3 8 520.76 42.4193 1
3 3 8 500.037 48.5667 5
-4 -3 -8 148.937 26.9681 4
4 3 8 221.927 28.1005 5
4 3 8 190.649 23.9417 3
4 3 8 182.938 26.4149 4
4 3 8 194.92 19.4112 1
4 3 8 187.76 22.2796 2
5 3 8 187.16 25.2624 3
5 3 8 198.68 20.5504 1
5 3 8 163.854 22.8124 2
6 3 8 44.1553 15.0273 3
6 3 8 74.9102 19.134 5
6 3 8 24.937 10.4558 2
-7 4 8 80.6518 19.3378 6
-7 4 8 122.155 15.6317 2
-7 4 8 144.866 20.1111 1
-6 4 8 159.622 18.3489 3
-6 4 8 207.366 24.0978 1
-6 4 8 148.489 24.8993 6
-6 4 8 218.053 32.4321 4
-6 4 8 195.611 19.5253 2
-5 4 8 183.013 22.0064 1
-5 4 8 174.518 19.1857 3
-5 4 8 187.073 18.8393 5
-5 4 8 168.722 27.872 4
-5 4 8 130.774 21.9816 6
-5 4 8 177.801 18.7498 2
-4 4 8 159.724 20.2866 3
-4 4 8 143.06 23.7986 6
-4 4 8 175.074 20.913 5
-4 4 8 219.016 22.1462 1
-4 4 8 206.53 28.8172 4
-4 4 8 202.345 19.5307 2
-3 4 8 246.069 29.8843 6
-3 4 8 264.52 28.8201 5
-3 4 8 291.076 27.0208 2
-3 4 8 318.517 28.9931 1
-3 4 8 287.316 33.7775 4
-2 4 8 352.985 38.1099 4
-2 4 8 360.52 32.9182 2
-2 4 8 319.859 35.7543 6
-2 4 8 343.982 34.5831 3
-2 4 8 388.665 33.906 1
-2 4 8 378.28 35.869 5
-1 4 8 588.306 51.1981 5
-1 4 8 551.729 48.2911 1
-1 4 8 557.233 48.0946 2
-1 4 8 615.124 48.6781 1
-1 4 8 480.76 50.8501 4
-1 4 8 566.154 50.4099 3
-1 4 8 506.743 50.0318 6
0 4 8 396.091 35.5494 1
0 4 8 385.828 36.201 2
0 4 8 452.814 39.6736 6
0 4 8 377.959 39.5717 5
0 4 8 415.291 38.5399 3
0 4 8 329.276 36.7075 6
0 4 8 406.38 40.5821 4
1 4 8 278.465 26.4031 1
1 4 8 268.116 29.8033 3
1 4 8 292.166 33.2048 5
1 4 8 276.238 27.9497 2
1 4 8 261.652 31.898 4
-2 -4 -8 277.48 34.2689 4
2 4 8 314.694 30.5846 1
2 4 8 384.669 37.6293 5
2 4 8 331.542 34.2665 3
2 4 8 371.245 34.9179 4
2 4 8 323.297 32.3436 2
-3 -4 -8 373.604 39.5379 4
3 4 8 413.647 39.7525 4
3 4 8 411.736 42.7143 5
3 4 8 408.184 40.5049 3
3 4 8 394.166 38.6626 2
3 4 8 420.929 36.7267 1
4 4 8 34.8118 15.0809 5
4 4 8 36.3583 11.9836 4
4 4 8 24.6475 10.1389 2
4 4 8 10.1699 10.9879 3
5 4 8 72.1562 14.7735 2
-5 5 8 38.1479 11.65 1
-5 5 8 33.8915 9.7541 5
-5 5 8 25.4689 9.14008 3
-5 5 8 28.6509 14.8223 6
-5 5 8 47.6249 16.3119 4
-4 5 8 65.5367 10.0114 2
-4 5 8 76.8286 17.1141 6
-4 5 8 62.4005 14.7403 1
-4 5 8 84.9889 14.8133 3
-4 5 8 63.2625 13.7598 5
-4 5 8 55.712 16.9237 4
-3 5 8 191.16 26.2763 4
-3 5 8 198.809 21.3501 3
-3 5 8 181.549 22.6045 1
-3 5 8 167.905 18.0924 2
-3 5 8 120.461 22.9273 6
-3 5 8 157.339 22.8844 5
-2 5 8 285.985 28.9651 1
-2 5 8 227.696 28.2473 3
-2 5 8 276.045 30.5991 5
-2 5 8 279.577 25.4714 2
-2 5 8 265.454 31.8411 6
-2 5 8 226.569 30.184 4
-1 5 8 79.9099 17.018 3
-1 5 8 79.7122 12.7796 2
-1 5 8 69.6608 16.5364 6
-1 5 8 98.9658 17.5505 4
-1 5 8 91.549 15.7383 1
-1 5 8 93.176 18.4195 5
0 5 8 70.2238 12.1256 2
0 5 8 44.6869 13.8513 3
0 5 8 47.8314 19.4481 4
0 5 8 62.4515 16.7419 5
0 5 8 58.5624 15.6482 6
1 5 8 88.5543 19.0858 1
1 5 8 89.5041 14.7249 2
1 5 8 75.8037 13.2316 4
1 5 8 71.2777 15.5975 3
2 5 8 111.135 19.9115 3
2 5 8 105.077 16.6482 2
2 5 8 138.505 22.1335 5
3 5 8 91.77 15.7794 2
4 5 -9 79.1746 20.9903 6
-4 -5 9 50.8491 13.6088 2
-4 -5 9 80.331 27.3396 4
3 5 -9 158.971 30.1575 5
3 5 -9 193.695 30.0969 6
-3 -5 9 173.393 33.7873 4
-3 -5 9 142.057 21.3594 2
2 5 -9 113.336 23.1087 6
2 5 -9 104.393 24.9933 5
-2 -5 9 143.909 32.8204 4
-2 -5 9 97.7771 16.5673 2
1 5 -9 132.182 28.6334 5
1 5 -9 183.095 30.3039 6
-1 -5 9 250.721 40.5562 4
-1 -5 9 159.439 21.4135 2
0 5 -9 42.2141 18.5354 6
0 5 -9 66.1678 28.3388 5
0 -5 9 78.4493 13.5239 2
0 -5 9 135.001 38.4221 4
-1 5 -9 210.237 33.2706 6
1 -5 9 227.619 40.3575 4
-2 5 -9 19.5353 18.008 6
2 -5 9 9.54509 6.04738 2
7 4 -9 82.3695 23.808 5
-7 -4 9 79.7467 23.0572 4
6 4 -9 255.682 32.9869 6
6 4 -9 174.314 29.6044 5
-6 -4 9 217.73 41.6952 4
5 4 -9 136.487 23.1252 6
5 4 -9 132.302 24.2589 5
-5 -4 9 123.509 26.9133 4
4 4 -9 121.042 32.917 6
4 4 -9 104.002 22.6237 5
-4 -4 9 82.1816 26.0943 4
3 4 -9 195.14 27.5472 6
3 4 -9 174.206 30.271 5
-3 -4 9 229.039 25.394 2
-3 -4 9 224.311 40.2959 4
2 4 -9 184.337 30.8498 5
2 4 -9 171.683 27.355 6
-2 -4 9 204.046 23.9048 2
-2 -4 9 275.089 42.3021 4
1 4 -9 170.217 30.0595 6
1 4 -9 183.261 31.1211 5
-1 -4 9 222.575 24.5112 2
-1 -4 9 276.284 43.1467 4
0 4 -9 191.485 30.749 5
0 4 -9 180.772 28.4022 6
0 -4 9 178.132 24.4457 2
0 -4 9 187.29 35.8731 4
-1 4 -9 230.136 31.3251 6
-1 4 -9 199.855 31.836 5
1 -4 9 146.138 22.558 2
1 -4 9 201.962 35.9062 4
-2 4 -9 49.2395 18.7359 6
2 -4 9 73.8523 24.2853 4
-3 4 -9 77.8903 20.7077 5
-3 4 -9 77.7705 16.2731 1
-3 4 -9 101.95 22.3877 6
3 -4 9 93.4007 26.6844 4
3 -4 9 108.995 15.4287 2
-4 4 -9 49.5676 18.0219 5
4 -4 9 91.6602 25.4334 4
4 -4 9 67.1029 13.6254 2
8 3 -9 197.288 26.3856 5
-8 -3 9 175.519 27.907 1
-8 -3 9 131.817 30.7373 4
7 3 -9 37.544 14.8521 5
-7 -3 9 50.4998 18.8766 4
-7 -3 9 73.2896 17.6053 1
6 3 -9 178.619 25.6624 6
6 3 -9 202.01 29.2327 5
-6 -3 9 209.268 32.8138 4
-6 -3 9 241.586 29.0518 1
5 3 -9 192.03 25.2768 6
5 3 -9 218.627 31.4251 5
5 3 -9 259.755 27.7616 6
-5 -3 9 230.662 28.0452 1
-5 -3 9 217.059 35.1131 4
4 3 -9 314.162 31.0768 6
4 3 -9 258.747 29.0525 6
4 3 -9 307.135 36.4191 5
-4 -3 9 273.952 39.8932 4
3 3 -9 196.438 29.0956 5
3 3 -9 200.849 25.0587 6
-3 -3 9 219.055 35.9857 4
-3 -3 9 200.787 24.0653 2
2 3 -9 707.292 61.993 6
2 3 -9 714.356 66.8786 5
2 3 -9 709.236 62.5547 1
-2 -3 9 735.515 62.5955 2
-2 -3 9 710.33 71.6879 4
1 3 -9 291.135 37.7089 5
1 3 -9 354.645 32.6162 1
1 3 -9 290.401 32.9178 6
-1 -3 9 333.996 44.5429 4
0 3 -9 942.319 82.4526 5
0 3 -9 971.61 79.4652 6
0 3 -9 939.201 78.0493 1
0 -3 9 934.044 88.5235 4
0 -3 9 832.389 77.294 2
-1 3 -9 120.579 17.0276 1
-1 3 -9 113.543 22.2079 5
-1 3 -9 96.2378 19.3876 6
1 -3 9 145.663 30.7871 4
1 -3 9 88.307 15.3921 2
-2 3 -9 865.188 73.3996 1
-2 3 -9 885.366 75.9195 6
-2 3 -9 746.946 76.3111 5
2 -3 9 938.809 85.677 4
-3 3 -9 86.1159 15.6918 1
-3 3 -9 98.6607 20.8614 5
-3 3 -9 124.219 21.9447 6
3 -3 9 178.12 32.2591 4
3 -3 9 154.757 18.6292 2
-4 3 -9 424.294 41.6734 1
-4 3 -9 471.789 47.1502 6
4 -3 9 434.832 41.8291 2
4 -3 9 487.613 56.529 4
-5 3 -9 161.813 20.487 1
-5 3 -9 119.01 25.077 6
5 -3 9 146.412 30.4088 4
5 -3 9 153.476 19.9174 2
-6 3 -9 236.912 27.028 1
-6 3 -9 240.273 34.414 6
6 -3 9 219.622 25.9959 2
-9 -2 9 14.3564 16.2593 4
-9 -2 9 4.72932 13.8615 1
8 2 -9 39.624 16.3546 6
8 2 -9 3.97921 4.82853 5
-8 -2 9 20.2683 11.16 1
7 2 -9 327.161 33.8199 6
7 2 -9 340.06 35.4195 5
-7 -2 9 441.307 39.4112 1
-7 -2 9 320.571 42.8014 4
-7 -2 9 337.773 33.0648 5
6 2 -9 218.489 26.813 5
6 2 -9 228.099 23.3726 6
-6 -2 9 184.38 32.1655 4
-6 -2 9 199.586 23.117 5
-6 -2 9 206.285 26.2605 1
5 2 -9 600.273 53.6158 5
5 2 -9 532.951 48.5508 6
-5 -2 9 678.085 54.5401 1
-5 -2 9 537.37 57.7013 4
-5 -2 9 543.324 50.0682 5
4 2 -9 180.17 24.4895 5
4 2 -9 145.9 18.9741 6
4 2 -9 169.656 18.0651 6
4 2 -9 190.002 19.603 1
-4 -2 9 111.089 19.051 1
-4 -2 9 137.68 19.4932 5
-4 -2 9 132.224 25.3963 4
3 2 -9 224.241 22.5668 6
3 2 -9 224.527 23.3941 1
3 2 -9 275.603 29.7677 5
3 2 -9 211.849 21.4901 6
2 2 -9 244.717 25.0857 1
2 2 -9 222.095 30.1989 5
2 2 -9 261.423 24.9822 6
-2 -2 9 281.245 27.453 2
-2 -2 9 257.973 38.7265 4
1 2 -9 792.827 71.2564 1
1 2 -9 812.617 71.0952 6
1 2 -9 837.926 76.2954 5
-1 -2 9 976.138 73.8859 2
-1 -2 9 958.355 86.6606 4
0 2 -9 938.987 78.8313 6
0 2 -9 942.218 78.3563 1
0 2 -9 985.402 83.0418 5
0 -2 9 949.68 104.461 4
0 -2 9 945.818 79.7891 2
-1 2 -9 871.97 67.9048 6
-1 2 -9 884.969 71.4252 5
1 -2 9 696.497 67.1156 2
1 -2 9 698.656 75.5302 4
-2 2 -9 516.45 46.5198 6
-2 2 -9 449.957 42.3164 1
-2 2 -9 580.181 44.048 1
2 -2 9 415.931 44.0965 6
2 -2 9 435.709 51.406 2
2 -2 9 544.921 58.3203 4
-3 2 -9 245.457 24.6084 1
-3 2 -9 265.701 30.9053 6
3 -2 9 267.762 41.0478 4
3 -2 9 254.049 27.2538 2
3 -2 9 243.478 28.4877 6
-4 2 -9 154.99 23.7956 6
-4 2 -9 130.424 16.9087 1
4 -2 9 139.359 30.2641 4
4 -2 9 130.337 18.5817 2
-5 2 -9 428.931 46.3511 6
-5 2 -9 402.451 39.8598 1
5 -2 9 486.878 42.7123 2
5 -2 9 453.313 57.8022 4
-6 2 -9 75.2314 14.1134 1
-6 2 -9 64.3002 19.9485 6
6 -2 9 110.669 18.1491 2
6 -2 9 118.86 28.3119 4
-7 2 -9 222.085 26.4797 1
-7 2 -9 223.921 34.9253 6
7 -2 9 227.618 26.7328 2
-9 -1 9 -0.5685 10.8247 1
-9 -1 9 5.82601 14.6299 4
-8 -1 9 265.055 46.3162 4
-8 -1 9 263.643 28.1897 3
-8 -1 9 367.257 34.7915 1
7 1 -9 61.2561 11.2106 6
-7 -1 9 51.6361 17.3059 4
-7 -1 9 62.0935 14.4007 1
-7 -1 9 71.2206 10.2345 5
-7 -1 9 66.1298 11.5667 3
6 1 -9 360.589 35.0537 6
6 1 -9 351.779 36.6745 5
-6 -1 9 462.397 36.1663 5
-6 -1 9 441.611 46.9934 4
-6 -1 9 417.933 36.6853 3
5 1 -9 80.7713 14.2669 5
5 1 -9 56.8727 12.6863 1
5 1 -9 76.8938 10.0043 6
-5 -1 9 80.3735 12.9928 5
-5 -1 9 91.0365 21.2969 4
-5 -1 9 111.957 15.2064 1
4 1 -9 433.757 40.7734 5
4 1 -9 380.352 38.6365 1
-4 -1 9 476.906 40.6414 1
-4 -1 9 466.89 39.4429 5
-4 -1 9 429.797 45.7396 4
3 1 -9 187.413 26.1083 5
3 1 -9 207.758 22.7349 1
-3 -1 9 258.014 25.0963 5
-3 -1 9 248.616 33.5818 4
-3 -1 9 260.59 25.8482 2
-3 -1 9 261.395 24.1681 1
2 1 -9 819.995 85.8846 4
-2 -1 9 799.468 72.9118 4
-2 -1 9 715.11 66.1363 5
-2 -1 9 812.353 66.9694 2
1 1 -9 132.986 25.118 4
1 1 -9 122.085 12.6822 1
1 1 -9 129.437 12.4553 6
-1 -1 9 126.138 17.6109 5
-1 -1 9 113.704 24.6196 4
-1 -1 9 114.494 16.1795 2
0 1 -9 516.836 39.2721 1
0 1 -9 526.114 40.5593 6
0 -1 9 419.396 43.3941 5
0 -1 9 417.861 42.5312 2
0 -1 9 438.46 52.2487 4
-1 1 -9 53.4424 7.50455 1
-1 1 -9 50.4042 14.7068 6
-1 1 -9 49.8327 7.06118 1
1 -1 9 88.5678 13.4995 2
1 -1 9 79.3545 37.3566 4
1 -1 9 62.7407 10.3045 6
-2 1 -9 182.62 23.5635 6
-2 1 -9 164.058 18.0095 1
-2 1 -9 243.809 19.5703 1
2 -1 9 289.852 39.0189 4
-3 1 -9 17.2583 5.13529 1
-3 1 -9 17.307 11.0544 6
3 -1 9 29.0909 18.1388 4
3 -1 9 25.9894 9.14138 2
3 -1 9 13.223 9.52643 6
-4 1 -9 408.197 41.2317 6
-4 1 -9 387.594 35.8721 1
4 -1 9 416.005 39.1952 2
4 -1 9 453.319 50.2058 4
-5 1 -9 44.7936 10.0679 1
-5 1 -9 70.6642 18.0846 6
5 -1 9 105.275 17.1085 2
5 -1 9 81.007 24.3898 4
-6 1 -9 290.257 37.1132 6
-6 1 -9 321.042 29.9203 1
6 -1 9 286.471 32.2108 2
6 -1 9 268.692 39.2274 4
-7 1 -9 13.015 7.18734 1
-7 1 -9 9.64091 14.3839 6
7 -1 9 4.68929 9.34055 2
7 -1 9 9.30907 9.25155 3
-9 0 9 142.469 27.5765 4
8 0 -9 -8.8004 6.06028 6
-8 0 9 -1.307 8.05296 1
-8 0 9 0.77942 5.72274 3
-7 0 9 687.644 72.1249 4
-7 0 9 798.973 64.3887 3
-7 0 9 836.54 68.9237 1
6 0 -9 0.49792 5.58725 1
6 0 -9 14.4548 5.34293 6
-6 0 9 5.10972 12.2932 4
-6 0 9 -4.197 6.12276 1
5 0 -9 2199.45 166.423 1
-5 0 9 2140.03 166.493 1
-5 0 9 1990.41 171.694 4
-5 0 9 1970.89 163.7 5
4 0 -9 0.44608 4.34452 1
-4 0 9 10.9058 12.4534 4
-4 0 9 2.7052 5.86349 5
-4 0 9 3.30604 5.35224 1
3 0 -9 61.4683 10.225 1
-3 0 9 79.6956 13.75 2
-3 0 9 67.3695 11.8185 5
-3 0 9 74.5858 10.0273 1
-3 0 9 50.8298 15.1596 4
2 0 -9 -0.2892 10.1414 4
2 0 -9 4.13654 2.80484 1
-2 0 9 9.77565 11.9138 4
-2 0 9 2.64053 6.03663 2
-2 0 9 -9.6299 5.33573 5
1 0 -9 936.554 87.9883 4
-1 0 9 1107.77 91.3209 4
-1 0 9 1018.86 84.4728 2
0 0 -9 2.64273 10.948 4
0 0 9 -0.7385 3.41698 6
0 0 9 -1.5129 11.7447 4
0 0 9 3.14527 5.48295 2
0 0 9 1.3752 6.7917 5
-1 0 -9 1245.51 87.966 6
1 0 9 1084.16 90.6785 2
1 0 9 1055.53 97.4345 4
1 0 9 961.373 87.4435 6
-2 0 -9 0.04245 7.8315 6
2 0 9 4.51742 7.37101 2
2 0 9 4.31334 6.36414 6
3 0 9 472.575 43.1163 2
3 0 9 494.624 53.7747 4
3 0 9 429.62 41.8379 6
-4 0 -9 -0.7397 3.78331 1
-4 0 -9 1.7579 11.4029 6
4 0 9 -0.2111 13.7131 4
4 0 9 -7.6356 8.24018 6
4 0 9 4.69486 7.45795 2
-5 0 -9 618.882 63.6546 6
5 0 9 769.737 71.9528 4
5 0 9 746.555 62.9073 2
5 0 9 685.214 61.6911 3
-6 0 -9 -6.0475 4.13312 1
-6 0 -9 -16.645 11.4525 6
6 0 9 -2.3623 14.6329 4
6 0 9 14.8257 10.0409 3
6 0 9 -0.3287 8.29953 2
-7 0 -9 294.864 45.3532 6
7 0 9 314.056 34.0274 2
7 0 9 306.139 42.8326 4
-8 1 9 272.381 39.3741 4
-8 1 9 344.283 32.532 1
-8 1 9 259.917 24.4992 3
-7 1 9 55.0428 12.7036 1
-7 1 9 66.8984 19.3974 4
6 -1 -9 319.533 33.7946 1
-6 1 9 403.302 41.2872 4
5 -1 -9 65.2415 11.8319 1
-5 1 9 63.6679 17.1376 4
-5 1 9 111.449 16.4738 2
-4 1 9 433.122 41.222 2
-4 1 9 404.821 38.6403 5
-4 1 9 492.982 39.4899 1
-4 1 9 455.59 47.1086 4
-3 1 9 210.418 24.0132 5
-3 1 9 244.343 31.5966 4
-3 1 9 267.66 22.4166 1
-3 1 9 233.663 24.9069 2
2 -1 -9 739.601 64.8749 4
-2 1 9 738.347 65.5329 4
-2 1 9 603.926 58.4578 5
-2 1 9 702.436 59.4769 2
1 -1 -9 123.95 22.9243 4
-1 1 9 125.416 23.4006 4
-1 1 9 125.852 15.7971 2
0 1 9 332.24 30.6479 6
0 1 9 361.381 35.6585 5
0 1 9 403.54 42.8309 4
0 1 9 399.564 35.0497 2
-1 -1 -9 35.2898 14.0459 4
1 1 9 55.4175 11.889 6
1 1 9 86.8133 15.0731 2
1 1 9 58.8882 19.5785 4
2 1 9 275.504 27.0667 2
2 1 9 225.913 25.1595 6
2 1 9 311.876 38.1934 4
3 1 9 29.7747 8.99669 2
3 1 9 18.5414 8.73604 3
3 1 9 7.98997 8.24631 6
3 1 9 20.9723 17.8496 4
4 1 9 463.99 41.7486 3
4 1 9 359.279 40.0922 6
4 1 9 458.882 49.0608 4
4 1 9 452.09 41.4385 2
-5 -1 -9 62.0618 15.9404 6
5 1 9 66.4014 15.3122 3
5 1 9 45.9964 12.1253 2
5 1 9 76.7748 21.1836 4
-6 -1 -9 294.176 35.0346 6
6 1 9 281.952 30.3417 3
6 1 9 255.85 38.2774 4
-7 -1 -9 6.3055 6.59791 1
-7 -1 -9 5.12043 13.6768 6
7 1 9 9.284 10.3862 3
7 1 9 1.05311 14.9122 4
-9 2 9 8.15118 11.6292 6
-9 2 9 22.0234 11.4696 1
-8 2 9 12.0595 9.60889 1
-8 2 9 8.82977 15.2344 4
-8 2 9 0.2134 8.27927 6
-7 2 9 438.506 37.7863 2
-7 2 9 302.539 33.2431 6
-7 2 9 430.563 37.5993 1
-7 2 9 375.083 31.9117 3
-7 2 9 321.608 41.4528 4
-6 2 9 180.915 28.5627 4
-6 2 9 216.514 22.362 1
-6 2 9 142.416 18.5746 6
-6 2 9 211.12 22.0711 2
-6 2 9 189.921 19.0744 3
-5 2 9 589.938 50.8703 2
-5 2 9 567.142 56.7165 4
-5 2 9 617.021 50.3938 1
-5 2 9 535.884 49.1368 3
-5 2 9 564.98 47.4076 5
-4 2 9 128.515 15.2856 3
-4 2 9 105.948 14.4512 5
-4 2 9 122.323 22.3821 4
-4 2 9 126.595 14.1943 1
-4 2 9 113.082 15.5443 2
-4 2 9 88.0346 10.9293 6
-3 2 9 341.065 27.5033 1
-3 2 9 295.023 29.5487 2
-3 2 9 294.551 29.3985 5
-3 2 9 287.706 29.3454 3
-3 2 9 289.046 35.3568 4
-2 2 9 259.447 31.5726 4
-2 2 9 271.682 20.3365 1
-2 2 9 197.922 19.8382 6
-2 2 9 254.81 24.7806 3
-2 2 9 212.781 19.8505 6
-2 2 9 200.452 24.1214 5
-2 2 9 234.192 24.0544 2
-1 2 9 828.374 70.1899 6
-1 2 9 972.649 74.3016 2
-1 2 9 934.167 79.072 4
-1 2 9 936.197 74.4984 3
-1 2 9 773.541 70.039 6
0 -2 -9 836.828 74.8187 4
0 2 9 781.033 72.2801 6
0 2 9 782.338 73.1221 3
0 2 9 885.78 76.3302 4
0 2 9 884.611 71.0178 2
-1 -2 -9 716.843 59.3066 4
1 2 9 527.547 53.0682 6
1 2 9 676.37 62.0741 4
1 2 9 642.132 56.0267 3
1 2 9 633.6 55.5084 2
-2 -2 -9 412.591 45.8477 4
2 2 9 473.914 49.7499 4
2 2 9 437.864 42.0251 3
2 2 9 467.403 41.8352 2
3 2 9 202.948 26.3684 6
3 2 9 228.137 25.1298 2
3 2 9 269.916 26.8729 3
4 2 9 138.202 19.211 3
4 2 9 107.769 24.005 4
4 2 9 150.611 18.7442 2
5 2 9 474.758 50.2336 4
5 2 9 455.32 46.5708 2
5 2 9 474.788 45.5653 3
6 2 9 74.9058 19.3515 4
6 2 9 67.7547 15.3665 2
6 2 9 75.2812 16.2045 3
7 2 9 305.582 42.5617 3
7 2 9 213.32 33.7769 4
-8 3 9 93.5909 36.0094 4
-8 3 9 162.785 30.5275 1
-8 3 9 76.9489 16.625 6
-8 3 9 134.393 18.587 2
-7 3 9 50.3145 11.9043 1
-7 3 9 48.5373 10.8826 2
-7 3 9 26.2935 10.5082 6
-6 3 9 185.74 28.8344 4
-6 3 9 148.082 21.1324 6
-6 3 9 177.964 20.4696 2
-6 3 9 167.968 18.6705 3
-6 3 9 206.301 22.3306 1
-5 3 9 203.828 21.1837 3
-5 3 9 180.378 19.9601 5
-5 3 9 221.223 22.4785 1
-5 3 9 194.328 31.4936 4
-4 3 9 227.629 31.3411 4
-4 3 9 242.72 23.8146 5
-4 3 9 189.62 24.1976 6
-4 3 9 260.123 23.9415 1
-4 3 9 231.113 23.6766 2
-4 3 9 227.166 23.828 3
-3 3 9 180.295 21.0924 3
-3 3 9 134.962 30.383 4
-3 3 9 192.345 22.186 5
-3 3 9 197.601 19.1792 1
-3 3 9 192.005 20.6566 2
-2 3 9 687.249 56.4345 2
-2 3 9 712.168 54.2469 1
-2 3 9 551.699 54.4579 6
-2 3 9 677.647 61.7648 4
-2 3 9 647.138 57.2073 5
-2 3 9 640.633 57.1469 3
-1 3 9 296.526 31.3179 5
-1 3 9 283.561 24.7555 1
-1 3 9 276.092 34.4571 4
-1 3 9 263.914 27.0473 6
-1 3 9 299.139 24.5243 1
-1 3 9 268.764 27.9673 2
-1 3 9 296.534 29.617 3
-1 3 9 256.977 26.9771 6
0 -3 -9 830.346 74.8615 4
0 3 9 829.696 71.1028 2
0 3 9 800.643 72.1675 3
0 3 9 824.727 66.5065 1
0 3 9 859.413 73.3658 5
0 3 9 830.25 76.5389 4
0 3 9 885.517 66.9448 1
-1 -3 -9 89.3155 18.5694 4
1 3 9 106.728 17.5994 3
1 3 9 89.8708 15.1274 6
1 3 9 98.7689 20.8725 4
1 3 9 99.0132 15.1377 2
-2 -3 -9 710.564 65.8296 4
2 3 9 755.805 64.1065 2
2 3 9 628.318 63.1953 6
2 3 9 854.882 69.7642 4
2 3 9 738.39 64.6152 3
-3 -3 -9 102.873 23.3961 4
3 3 9 126.241 19.3779 3
3 3 9 157.536 25.4562 4
3 3 9 122.781 18.1563 2
3 3 9 137.332 13.1305 1
4 3 9 433.996 44.4432 2
4 3 9 497.689 48.7794 4
4 3 9 496.501 55.8304 3
5 3 9 173.389 26.3074 4
5 3 9 168.888 22.4522 2
5 3 9 124.786 23.7546 5
5 3 9 163.331 22.7878 3
6 3 9 222.32 31.5857 4
-7 4 9 60.8024 15.3821 6
-7 4 9 40.3764 16.9718 4
-6 4 9 142.974 24.068 6
-6 4 9 189.023 19.6728 3
-6 4 9 182.754 31.3889 4
-6 4 9 188.807 20.644 2
-6 4 9 212.872 23.7201 1
-5 4 9 149.365 25.972 4
-5 4 9 191.355 20.6817 1
-5 4 9 136.541 17.1534 2
-5 4 9 129.508 17.0649 5
-5 4 9 158.111 22.5955 6
-5 4 9 128.106 17.6278 3
-4 4 9 93.8356 19.3913 4
-4 4 9 61.815 13.4031 3
-4 4 9 76.5925 12.6352 2
-4 4 9 65.5569 14.5607 6
-4 4 9 81.386 13.6073 1
-4 4 9 86.4988 13.7991 5
-3 4 9 227.808 25.995 5
-3 4 9 221.202 26.3706 6
-3 4 9 213.764 24.5046 3
-3 4 9 228.018 23.5176 1
-3 4 9 212.055 23.2117 2
-3 4 9 270.155 35.2761 4
-2 4 9 225.536 24.9457 5
-2 4 9 170.376 26.6708 4
-2 4 9 188.124 20.3218 1
-2 4 9 170.561 19.4028 1
-2 4 9 179.047 20.456 2
-2 4 9 194.754 22.8648 3
-2 4 9 168.892 23.0026 6
-1 4 9 194.467 25.1123 6
-1 4 9 215.819 25.0894 3
-1 4 9 193.737 23.4397 6
-1 4 9 215.092 21.584 1
-1 4 9 239.366 23.2445 2
-1 4 9 223.68 29.8811 4
-1 4 9 203.568 21.2476 1
-1 4 9 219.092 26.6791 5
0 4 9 126.936 19.656 6
0 4 9 137.224 19.227 3
0 4 9 143.439 17.7101 2
0 4 9 132.787 15.6756 1
0 4 9 118.067 22.1375 4
0 4 9 137.6 15.7799 1
0 4 9 151.446 21.6743 6
0 4 9 148.544 24.1055 5
1 4 9 161.181 16.8927 1
1 4 9 151.267 19.3532 2
1 4 9 158.942 26.1402 5
1 4 9 148.242 26.2182 4
1 4 9 140.09 20.1097 3
2 4 9 61.3499 16.2952 4
2 4 9 75.4247 17.2856 5
2 4 9 53.5004 9.45812 1
2 4 9 78.569 14.4928 2
3 4 9 83.9406 18.0365 4
3 4 9 105.23 17.3269 2
3 4 9 83.9784 18.6315 3
3 4 9 83.8988 19.1338 5
4 4 9 70.5634 15.4819 2
4 4 9 83.6465 16.8512 4
-4 5 9 58.6045 16.4735 6
-4 5 9 81.3326 12.1092 2
-4 5 9 68.1818 13.7252 3
-4 5 9 58.6711 16.5355 4
-4 5 9 87.9098 15.3043 1
-4 5 9 76.6279 14.4697 5
-3 5 9 104.3 21.4809 4
-3 5 9 77.4924 19.07 6
-3 5 9 126.136 18.0711 1
-3 5 9 144.607 20.7448 5
-3 5 9 114.837 15.0131 2
-3 5 9 111.204 17.151 3
-2 5 9 109.793 23.6751 1
-2 5 9 84.7682 17.4033 6
-2 5 9 87.5573 16.9474 5
-2 5 9 76.9114 16.5409 3
-2 5 9 60.9439 16.6876 4
-1 5 9 163.926 26.217 4
-1 5 9 144.84 19.5374 2
-1 5 9 173.949 25.9986 5
-1 5 9 189.163 21.4791 1
-1 5 9 200.202 25.4006 6
0 5 9 98.6934 14.6665 2
0 5 9 55.7 15.8122 4
0 5 9 80.5452 16.7866 3
0 5 9 89.0943 15.3266 1
0 5 9 142.186 21.0692 6
0 5 9 116.392 24.2137 5
1 5 9 192.614 24.6828 3
1 5 9 183.871 27.5729 6
1 5 9 187.931 33.777 4
1 5 9 207.384 28.34 5
1 5 9 188.682 22.1615 2
2 5 9 9.43987 8.23101 2
2 5 -10 156.72 29.1301 6
-2 -5 10 244.605 26.2258 2
-2 -5 10 229.176 41.7355 4
1 5 -10 27.3176 16.5725 6
-1 -5 10 10.4226 11.2842 2
-1 -5 10 34.1341 25.7448 4
0 5 -10 172.873 28.9333 6
0 -5 10 183.329 23.0299 2
0 -5 10 200.402 39.2056 4
6 4 -10 112.256 21.9553 5
-6 -4 10 119.239 26.2856 4
5 4 -10 63.4616 16.5004 6
-5 -4 10 91.6099 24.6745 4
4 4 -10 92.0898 23.0724 6
-4 -4 10 39.5538 22.9072 4
-4 -4 10 32.816 11.8465 2
3 4 -10 99.8023 26.5687 5
3 4 -10 94.7081 19.7522 6
-3 -4 10 98.085 17.4143 2
-3 -4 10 113.635 29.5316 4
2 4 -10 99.1915 19.9332 6
2 4 -10 104.917 34.5141 5
-2 -4 10 55.008 13.3042 2
-2 -4 10 77.1472 28.4757 4
1 4 -10 28.9761 17.7594 6
-1 -4 10 83.3104 29.9009 4
-1 -4 10 80.666 14.9833 2
0 4 -10 141.664 28.6823 5
0 4 -10 197.824 29.8936 6
0 -4 10 209.1 39.0647 4
0 -4 10 176.618 21.8482 2
-1 4 -10 257.949 34.8286 6
-1 4 -10 245.162 37.8788 5
1 -4 10 348.673 47.1446 4
1 -4 10 237.608 28.1647 2
-2 4 -10 156.617 27.0617 5
-2 4 -10 162.402 26.4853 6
2 -4 10 155.944 20.5224 2
-3 4 -10 89.7299 16.6053 1
-3 4 -10 107.77 23.1647 6
3 -4 10 71.5874 14.2018 2
3 -4 10 83.1709 28.4681 4
7 3 -10 107.176 20.5553 5
-7 -3 10 119.136 23.2242 1
-7 -3 10 98.9092 37.7941 4
6 3 -10 33.2199 15.8563 5
-6 -3 10 76.3837 21.8659 4
-6 -3 10 69.3217 16.5364 1
5 3 -10 356.833 41.7781 5
-5 -3 10 392.028 46.7689 4
4 3 -10 112.224 23.0397 5
4 3 -10 141.811 20.4969 6
4 3 -10 163.438 18.9017 6
-4 -3 10 109.74 19.7648 2
-4 -3 10 118.234 28.3436 4
3 3 -10 839.664 75.9178 5
3 3 -10 803.953 69.8557 6
-3 -3 10 830.448 71.7078 2
-3 -3 10 813.345 80.3868 4
2 3 -10 27.0096 15.203 5
2 3 -10 22.639 11.3466 6
2 3 -10 35.9852 10.5746 1
-2 -3 10 1.02935 8.09423 2
-2 -3 10 5.34694 19.7754 4
1 3 -10 211.697 22.9376 1
1 3 -10 182.683 29.7343 5
1 3 -10 194.369 25.8565 6
-1 -3 10 150.403 33.2298 4
-1 -3 10 174.689 22.2955 2
0 3 -10 158.958 24.3144 6
0 3 -10 165.868 20.3275 1
0 3 -10 135.652 25.0575 5
0 -3 10 165.033 20.6731 2
0 -3 10 145.981 33.0506 4
-1 3 -10 345.628 34.842 1
-1 3 -10 340.164 37.7615 6
-1 3 -10 321.832 41.0888 5
1 -3 10 402.361 52.261 4
1 -3 10 392.848 36.1938 2
-2 3 -10 160.066 30.2232 6
-2 3 -10 207.574 22.8131 1
-2 3 -10 174.968 20.9469 1
-2 3 -10 125.171 25.2683 5
2 -3 10 178.087 33.9137 4
2 -3 10 174.704 21.7162 2
-3 3 -10 145.673 18.8562 1
-3 3 -10 175.181 27.2689 6
3 -3 10 161.077 21.1395 2
3 -3 10 98.9196 35.9351 4
-4 3 -10 65.6359 19.861 6
-4 3 -10 96.7831 15.3768 1
4 -3 10 88.1881 15.1526 2
4 -3 10 76.4536 27.3099 4
-5 3 -10 122.691 32.1123 6
-5 3 -10 135.817 19.3176 1
-8 -2 10 157.339 29.1898 4
7 2 -10 64.2278 15.04 5
-7 -2 10 46.0383 11.3797 5
-7 -2 10 43.5724 19.2095 4
-7 -2 10 69.8682 16.6131 1
6 2 -10 331.715 35.7707 5
-6 -2 10 370.816 36.9359 1
-6 -2 10 285.707 41.9552 4
5 2 -10 112.097 20.8769 5
-5 -2 10 128.858 25.0193 1
-5 -2 10 157.971 28.8174 4
4 2 -10 314.072 29.2865 6
-4 -2 10 386.719 35.3289 1
-4 -2 10 310.885 42.7426 4
-4 -2 10 406.606 36.2871 2
3 2 -10 113.513 13.6975 6
3 2 -10 136.651 22.7285 5
3 2 -10 101.413 12.6898 6
3 2 -10 109.074 14.5802 1
-3 -2 10 77.2806 15.0962 2
-3 -2 10 83.9788 24.4137 4
2 2 -10 374.487 39.217 5
2 2 -10 367.6 31.5617 6
2 2 -10 344.664 32.122 1
-2 -2 10 254.452 42.8797 4
-2 -2 10 359.822 34.9356 2
1 2 -10 184.381 21.297 6
1 2 -10 174.266 28.9918 5
1 2 -10 196.606 20.1273 1
-1 -2 10 194.277 23.1041 2
-1 -2 10 219.786 36.5481 4
0 2 -10 817.421 71.2522 5
0 2 -10 779.7 65.058 1
0 2 -10 825.99 66.1838 6
0 -2 10 751.781 67.5327 2
0 -2 10 713.271 77.5113 4
-1 2 -10 86.3157 12.1866 1
-1 2 -10 89.9929 15.5952 6
1 -2 10 69.3989 15.0345 2
1 -2 10 86.5737 27.8852 4
-2 2 -10 419.88 40.9686 6
-2 2 -10 382.507 36.1834 1
-2 2 -10 471.527 37.9786 1
2 -2 10 366.949 41.2436 6
2 -2 10 436.857 54.7094 4
2 -2 10 405.826 39.588 2
-3 2 -10 65.3454 11.4298 1
-3 2 -10 33.9883 15.0545 6
-3 2 -10 61.9334 10.621 1
3 -2 10 68.0399 13.5647 2
3 -2 10 80.2937 26.1175 4
-4 2 -10 154.454 18.0909 1
-4 2 -10 162.546 26.1057 6
4 -2 10 175.157 21.7319 2
-5 2 -10 32.6336 17.0075 6
5 -2 10 51.1167 22.7108 4
5 -2 10 49.2077 13.0787 2
-6 2 -10 209.15 34.0979 6
6 -2 10 243.449 28.3791 2
-9 -1 10 71.6643 16.6857 1
-8 -1 10 2.89896 9.78082 1
-8 -1 10 8.70357 15.5097 4
-7 -1 10 104.25 18.5189 1
-7 -1 10 99.952 24.8974 4
-7 -1 10 102.292 14.0903 5
-6 -1 10 24.0382 7.85528 5
-6 -1 10 22.6577 15.7255 4
5 1 -10 842.502 79.5641 1
-5 -1 10 1102.09 81.6717 1
-5 -1 10 929.662 80.5747 5
4 1 -10 95.2785 12.5886 1
-4 -1 10 44.5473 18.4002 4
-4 -1 10 92.4009 14.0406 1
-4 -1 10 70.9606 14.4336 2
-4 -1 10 57.0333 11.8417 5
3 1 -10 1010.12 74.9265 1
-3 -1 10 882.548 77.3642 2
-3 -1 10 856.454 76.5393 5
-3 -1 10 863.497 82.6706 4
-2 -1 10 201.124 24.6889 5
-2 -1 10 206.108 33.7436 4
-2 -1 10 208.445 23.3729 2
1 1 -10 293.481 25.4205 1
0 1 -10 6.88768 2.96052 1
0 1 -10 -0.8983 5.76853 6
0 -1 10 2.24794 5.95946 2
0 -1 10 -0.5808 14.7301 4
-1 1 -10 660.586 54.3324 1
-1 1 -10 618.608 54.1975 1
1 -1 10 651.877 56.7481 6
1 -1 10 833.609 73.0346 4
1 -1 10 774.15 61.011 2
-2 1 -10 59.4428 7.14997 1
-2 1 -10 52.4467 12.6421 6
-2 1 -10 65.883 7.46954 1
2 -1 10 53.1065 23.0245 4
2 -1 10 35.1619 10.3477 6
2 -1 10 40.7062 11.5562 2
-3 1 -10 385.161 31.1037 1
-3 1 -10 332.744 30.4449 1
-4 1 -10 47.2812 18.0605 6
4 -1 10 29.322 10.7613 2
4 -1 10 19.3333 20.207 4
-5 1 -10 175.873 28.6014 6
5 -1 10 151.474 32.6624 4
5 -1 10 187.981 23.3846 2
-6 1 -10 -3.4812 4.67605 1
-6 1 -10 37.1693 16.7441 6
6 -1 10 7.43415 10.0777 2
-9 0 10 -13.67 8.42854 1
-8 0 10 389.066 36.0692 1
-8 0 10 254.959 34.6367 3
-8 0 10 315.785 40.8828 4
-7 0 10 -0.9964 13.1415 4
-7 0 10 -3.054 7.3957 1
-7 0 10 4.16011 4.118 5
6 0 -10 400.369 44.0813 1
-6 0 10 546.536 46.1627 1
-6 0 10 522.451 41.7008 5
5 0 -10 2.4936 5.06643 1
-5 0 10 -6.4741 11.5622 4
-5 0 10 -5.3575 5.64168 2
-5 0 10 -3.04 5.86615 1
-5 0 10 7.64466 5.84757 5
-4 0 10 1182.84 95.8421 2
-4 0 10 1173.27 92.9529 1
-4 0 10 1118.84 100.72 4
-4 0 10 1091.51 93.228 5
3 0 -10 1.28535 3.51584 1
-3 0 10 3.98024 4.42013 1
-3 0 10 11.0521 7.36439 2
-3 0 10 10.5347 8.25529 5
-3 0 10 9.54335 13.4681 4
-2 0 10 1178.93 99.5098 2
-2 0 10 1182.74 104.97 4
-2 0 10 1243.78 99.6417 5
-1 0 10 2.3307 13.0292 4
-1 0 10 -1.4209 4.83989 2
-1 0 10 -3.1365 7.15423 5
0 0 10 2116.93 173.398 2
0 0 10 2196.77 180.898 4
1 0 10 -3.7932 6.15435 2
1 0 10 -1.0667 13.3744 4
-2 0 -10 598.639 52.7184 6
2 0 10 654.491 65.7061 4
2 0 10 553.415 51.8551 6
2 0 10 675.963 55.756 2
-3 0 -10 -6.8642 8.84426 6
3 0 10 6.66373 18.4023 4
3 0 10 -1.9878 6.70827 2
3 0 10 -2.4384 7.74234 6
4 0 10 474.216 55.4423 4
4 0 10 488.49 45.8491 2
-5 0 -10 -8.2685 11.577 6
-5 0 -10 3.15808 3.13155 1
5 0 10 4.89666 8.83792 3
5 0 10 1.30064 7.89644 2
5 0 10 19.2095 20.1036 4
-6 0 -10 166.688 27.9478 6
6 0 10 154.798 31.2038 4
6 0 10 243.941 26.4575 2
-9 1 10 86.658 17.6942 1
-8 1 10 3.88499 8.62312 1
-8 1 10 4.04757 6.05318 3
-8 1 10 2.00187 13.3588 4
-7 1 10 114.089 17.1186 1
-7 1 10 75.6044 23.1509 4
-7 1 10 106.706 17.9641 2
6 -1 -10 29.5829 10.0482 1
-6 1 10 30.927 16.3816 4
-6 1 10 30.6679 6.07692 5
-6 1 10 45.7464 10.5423 1
-6 1 10 25.7052 10.8769 2
-5 1 10 1092.19 87.5056 2
-5 1 10 940.464 91.6442 4
-5 1 10 942.989 83.1317 5
-5 1 10 1149.65 85.6653 1
-4 1 10 62.7286 17.5085 4
-4 1 10 70.8555 11.1182 1
-4 1 10 63.2944 13.0402 2
-4 1 10 59.9692 11.032 5
-3 1 10 738.574 70.6963 5
-3 1 10 838.45 71.968 2
-3 1 10 965.161 68.5665 1
-3 1 10 819.654 77.1314 4
-2 1 10 194.777 21.0635 2
-2 1 10 161.298 21.3633 5
-2 1 10 199.308 30.0499 4
-1 1 10 407.376 39.5077 5
-1 1 10 409.161 58.3405 4
-1 1 10 428.438 38.7671 2
0 1 10 3.50885 15.8459 4
0 1 10 4.05873 6.34373 2
0 1 10 -0.3515 3.75732 6
1 1 10 745.286 70.2522 4
1 1 10 608.1 59.6755 6
1 1 10 804.741 62.6432 2
2 1 10 37.8712 20.0516 4
2 1 10 28.41 9.1107 6
2 1 10 50.0875 11.2517 2
3 1 10 629.76 56.6349 3
3 1 10 677.79 66.5195 4
3 1 10 571.899 55.4691 2
4 1 10 10.5206 16.727 4
4 1 10 26.7593 10.6859 3
4 1 10 38.2671 11.1853 2
5 1 10 176.974 23.0355 3
5 1 10 186.534 33.6348 4
5 1 10 168.914 22.9995 2
6 1 10 -0.0464 9.41747 3
6 1 10 21.8296 17.4857 4
-8 2 10 253.472 28.8387 1
-8 2 10 257.895 31.2477 2
-7 2 10 27.2149 7.39044 6
-7 2 10 45.4691 11.2141 1
-7 2 10 43.5026 8.74656 3
-7 2 10 43.7034 17.5256 4
-7 2 10 46.8388 11.8603 2
-6 2 10 325.729 31.2825 3
-6 2 10 344.844 34.3934 2
-6 2 10 347.325 32.7812 1
-6 2 10 329.813 41.6318 4
-5 2 10 151.479 16.8934 1
-5 2 10 143.102 18.6466 2
-5 2 10 122.756 17.1795 5
-5 2 10 149.025 16.9875 3
-5 2 10 126.651 15.8381 5
-5 2 10 143.071 25.4015 4
-4 2 10 306.726 30.5826 2
-4 2 10 322.439 38.3185 4
-4 2 10 319.223 30.2515 3
-4 2 10 310.646 28.1245 1
-4 2 10 280.96 28.9725 5
-3 2 10 91.1903 20.9789 4
-3 2 10 97.4309 14.1432 2
-3 2 10 100.001 17.0034 3
-3 2 10 83.2729 10.6995 1
-2 2 10 255.335 28.6974 5
-2 2 10 303.463 28.8041 3
-2 2 10 268.803 28.0863 2
-2 2 10 295.405 36.3807 4
-1 2 10 200.121 20.8186 2
-1 2 10 202.189 21.75 3
-1 2 10 173.607 16.2362 6
-1 2 10 154.628 15.9625 6
0 2 10 658.723 60.0451 3
0 2 10 706.825 59.8991 2
1 2 10 48.1014 20.4257 4
1 2 10 55.9479 11.3636 2
1 2 10 35.2825 11.8671 3
1 2 10 49.7175 10.124 6
2 2 10 363.867 35.1278 3
2 2 10 273.743 32.1586 6
2 2 10 383.151 44.7652 4
2 2 10 386.866 34.9731 2
3 2 10 81.245 15.5188 2
3 2 10 85.2771 16.6312 3
3 2 10 63.7556 21.3167 4
4 2 10 163.341 24.2261 2
4 2 10 169.496 23.8176 3
4 2 10 204.629 33.0635 4
5 2 10 79.7804 20.6771 4
5 2 10 25.8673 12.3802 3
5 2 10 39.6316 11.6362 2
6 2 10 252.168 42.7478 4
-7 3 10 64.04 20.8074 4
-7 3 10 60.5334 14.3296 1
-7 3 10 76.484 11.3742 3
-7 3 10 64.3658 12.5719 6
-7 3 10 82.932 14.5672 2
-6 3 10 46.9349 10.4267 6
-6 3 10 64.4012 12.8391 1
-6 3 10 73.6433 13.1638 2
-6 3 10 66.9821 20.9625 4
-6 3 10 57.7677 10.8651 3
-5 3 10 350.391 31.3084 1
-5 3 10 319.809 29.005 5
-5 3 10 335.421 41.2791 4
-5 3 10 243.242 28.5392 5
-5 3 10 349.698 31.4763 2
-5 3 10 322.488 30.5058 3
-4 3 10 129.06 14.8961 1
-4 3 10 89.0982 13.8835 6
-4 3 10 120.252 16.1408 2
-4 3 10 110.362 16.7825 5
-4 3 10 103.088 22.6362 4
-4 3 10 108.42 16.8748 5
-4 3 10 113.616 15.4814 3
-3 3 10 797.142 66.3082 5
-3 3 10 757.63 71.5662 4
-3 3 10 770.164 63.2494 1
-3 3 10 763.334 66.3799 3
-3 3 10 759.028 65.8297 2
-2 3 10 8.97608 7.30696 2
-2 3 10 14.6739 14.21 4
-2 3 10 12.9372 4.78212 1
-2 3 10 17.0036 9.4257 3
-2 3 10 8.03668 6.31705 6
-2 3 10 2.76751 3.95487 1
-2 3 10 9.56178 7.10265 6
-1 3 10 188.665 24.2326 5
-1 3 10 168.667 19.5048 2
-1 3 10 148.98 19.2713 3
-1 3 10 134.71 17.084 6
-1 3 10 131.259 16.9974 6
0 3 10 127.95 17.6799 6
0 3 10 153.45 33.0463 4
0 3 10 167.301 19.0115 2
0 3 10 125.046 19.7006 3
1 3 10 404.072 36.6608 3
1 3 10 284.813 33.235 6
1 3 10 373.576 34.5981 2
2 3 10 194.605 31.9546 4
2 3 10 192.253 22.6702 2
2 3 10 189.435 23.2641 6
2 3 10 151.229 21.6394 3
3 3 10 135.576 20.6353 3
3 3 10 153.264 20.5445 2
3 3 10 165.913 29.5229 4
4 3 10 107.165 17.6898 2
4 3 10 96.8854 18.4739 3
4 3 10 93.7319 20.9763 4
5 3 10 205.58 30.5929 4
-6 4 10 107.857 15.2597 2
-6 4 10 66.6071 17.9854 6
-6 4 10 98.6803 14.8857 3
-6 4 10 118.911 17.496 1
-6 4 10 94.7705 22.7279 4
-5 4 10 70.2946 13.1672 3
-5 4 10 55.4337 11.6738 2
-5 4 10 65.1686 11.9475 1
-5 4 10 55.4632 17.7855 4
-5 4 10 41.4521 11.9901 6
-5 4 10 53.0659 10.6265 5
-4 4 10 25.2293 10.5303 6
-4 4 10 36.035 15.5781 4
-4 4 10 14.7991 9.35628 3
-4 4 10 37.2139 10.6435 5
-4 4 10 45.2917 9.96259 2
-4 4 10 32.0897 9.26409 1
-3 4 10 91.7119 13.2574 1
-3 4 10 94.4148 20.6576 4
-3 4 10 106.185 16.7386 5
-3 4 10 94.2424 14.3087 2
-3 4 10 70.9523 14.6603 6
-3 4 10 91.2386 16.1756 3
-2 4 10 64.4637 10.928 1
-2 4 10 52.3361 9.13212 1
-2 4 10 58.9081 11.454 2
-2 4 10 55.2498 16.9925 4
-2 4 10 36.3746 12.3906 3
-2 4 10 33.7881 11.0641 6
-2 4 10 44.3067 13.1505 5
-1 4 10 82.5292 13.4964 2
-1 4 10 86.155 14.4371 6
-1 4 10 79.7712 11.4318 1
-1 4 10 88.1777 16.7177 3
-1 4 10 80.9005 17.1863 5
-1 4 10 50.7528 13.2587 6
0 4 10 147.006 14.1149 1
0 4 10 107.54 19.5936 6
0 4 10 163.787 24.2034 5
0 4 10 129.653 20.5928 6
0 4 10 142.154 24.2517 4
0 4 10 130.723 21.5834 3
0 4 10 153.53 18.3644 2
1 4 10 281.513 45.079 5
1 4 10 247.357 21.6937 1
1 4 10 257.11 33.858 4
1 4 10 238.98 26.7162 2
1 4 10 244.728 28.54 3
2 4 10 134.658 20.2509 2
2 4 10 178.344 27.6481 5
2 4 10 143.089 21.9255 3
2 4 10 168.741 28.3479 4
3 4 10 69.5179 14.8642 2
-2 5 10 199.99 27.321 6
-2 5 10 175.917 22.3004 1
-2 5 10 212.351 25.681 3
-2 5 10 213.933 30.3783 4
-2 5 10 236.724 28.7583 5
-2 5 10 221.186 23.1436 2
-1 5 10 21.4316 9.77832 2
-1 5 10 44.584 14.937 6
-1 5 10 24.1515 11.5354 3
-1 5 10 17.121 13.8325 4
-1 5 10 42.2872 14.2039 5
-1 5 10 36.659 11.4244 1
0 5 10 186.111 22.4947 2
0 5 10 196.992 29.4386 5
0 5 10 183.199 26.6198 6
5 4 -11 15.963 17.1936 5
4 4 -11 96.8611 24.2501 5
-4 -4 11 136.66 50.0994 4
-4 -4 11 159.857 22.4129 2
3 4 -11 160.022 29.1118 5
-3 -4 11 163.742 31.9992 2
-3 -4 11 213.056 38.5987 4
2 4 -11 156.892 28.4279 5
-2 -4 11 170.052 36.5054 4
-2 -4 11 117.874 20.1419 2
1 4 -11 289.176 41.7297 5
1 4 -11 365.772 37.8185 6
-1 -4 11 254.211 31.0152 2
-1 -4 11 311.719 49.7501 4
0 4 -11 185.326 44.7868 5
0 4 -11 227.544 33.8408 6
0 -4 11 246.487 26.9049 2
-1 4 -11 59.8803 19.249 6
1 -4 11 41.7549 24.2529 4
1 -4 11 21.4384 10.2037 2
-2 4 -11 89.5409 22.8198 6
-2 4 -11 95.6962 18.1942 1
2 -4 11 142.065 19.2502 2
2 -4 11 126.557 34.8387 4
6 3 -11 114.589 23.0208 5
-6 -3 11 203.01 34.8763 4
5 3 -11 85.2624 20.8757 5
-5 -3 11 144.016 20.7355 2
-5 -3 11 97.6492 26.2568 4
4 3 -11 247.005 35.3423 5
-4 -3 11 239.593 40.2911 4
3 3 -11 307.572 38.5766 5
-3 -3 11 278.689 31.2266 2
-3 -3 11 265.699 43.9624 4
2 3 -11 38.1892 18.1369 5
-2 -3 11 41.9436 25.2394 4
-2 -3 11 33.6484 10.8244 2
1 3 -11 120.759 19.2 6
1 3 -11 82.6005 21.7872 5
1 3 -11 96.6757 15.9549 1
-1 -3 11 74.4985 14.5026 2
-1 -3 11 32.1206 24.6717 4
0 3 -11 148.191 25.0482 6
0 3 -11 152.131 27.7048 5
0 3 -11 188.211 22.0437 1
0 -3 11 160.377 36.3306 4
0 -3 11 189.814 22.1607 2
-1 3 -11 91.6453 16.135 1
-1 3 -11 67.0136 17.6753 6
-1 3 -11 74.513 24.5097 5
1 -3 11 90.2737 30.5292 4
1 -3 11 104.246 17.0992 2
-2 3 -11 124.162 23.7863 6
-2 3 -11 215.895 22.8844 1
-2 3 -11 139.519 19.048 1
2 -3 11 176.496 35.276 4
2 -3 11 182.461 22.1403 2
-3 3 -11 34.8426 16.0841 6
3 -3 11 41.3721 24.2722 4
3 -3 11 32.763 11.0476 2
-4 3 -11 127.627 24.1032 6
4 -3 11 147.73 20.0787 2
7 2 -11 86.7591 17.1804 5
-7 -2 11 160.326 22.0919 1
-7 -2 11 118.787 27.1416 4
6 2 -11 110.377 19.7867 5
-6 -2 11 132.666 20.8621 1
5 2 -11 120.839 20.4482 5
-5 -2 11 118.069 18.2658 1
-5 -2 11 115.675 20.1323 2
-5 -2 11 84.9316 24.0986 4
4 2 -11 42.8595 15.1943 5
4 2 -11 30.1666 10.2634 1
-4 -2 11 70.9268 14.043 2
-4 -2 11 57.0835 20.9118 4
3 2 -11 528.967 49.9325 1
3 2 -11 549.576 55.3486 5
-3 -2 11 574.336 62.6036 4
-3 -2 11 665.978 53.944 2
2 2 -11 47.4404 9.87752 1
2 2 -11 73.0799 18.8748 5
-2 -2 11 69.7432 13.4871 2
-2 -2 11 57.227 23.4077 4
1 2 -11 596.419 48.3827 1
-1 -2 11 531.775 51.1365 2
-1 -2 11 541.571 64.4064 4
0 2 -11 18.9998 9.16323 6
0 2 -11 17.5889 6.52638 1
0 -2 11 21.0666 9.11069 2
0 -2 11 23.5274 21.0408 4
-1 2 -11 151.691 16.4129 1
-2 2 -11 54.4316 14.7899 6
2 -2 11 47.6071 26.8844 4
2 -2 11 52.1236 12.4044 6
2 -2 11 44.9261 11.1023 2
-4 2 -11 14.2915 13.9503 6
4 -2 11 20.3672 18.4298 4
4 -2 11 -3.404 8.14068 2
-7 -1 11 12.9168 9.66973 1
-7 -1 11 9.88261 15.049 4
-6 -1 11 413.467 37.4491 1
-6 -1 11 325.136 33.9007 5
-6 -1 11 363.941 45.1777 2
5 1 -11 -10.698 5.54763 1
-5 -1 11 8.77755 7.74088 5
-5 -1 11 2.36407 7.24375 1
-5 -1 11 0.29535 8.21574 2
-5 -1 11 13.3273 15.8659 4
4 1 -11 338.508 34.1927 1
-4 -1 11 409.469 38.5804 2
-4 -1 11 421.306 35.9406 1
-4 -1 11 346.246 44.4213 4
3 1 -11 64.4097 10.3217 1
-3 -1 11 104.869 24.9551 4
-3 -1 11 68.3015 13.9735 2
2 1 -11 679.244 49.5904 1
-2 -1 11 528.472 53.1304 2
-2 -1 11 528.571 61.4141 4
1 1 -11 30.988 5.00366 1
-1 -1 11 8.70391 16.8099 4
-1 -1 11 28.3175 9.79745 2
0 1 -11 460.028 37.927 6
0 -1 11 422.424 54.0631 4
0 -1 11 468.17 43.5233 2
-1 1 -11 42.6228 14.627 6
1 -1 11 47.7754 22.6801 4
1 -1 11 33.6578 11.0697 2
1 -1 11 28.8157 8.39533 6
-2 1 -11 920.914 77.7002 6
2 -1 11 783.597 76.0054 6
2 -1 11 985.409 80.4902 2
2 -1 11 1127.42 94.6906 4
-3 1 -11 19.0768 12.1622 6
3 -1 11 3.93179 9.46555 6
3 -1 11 15.7401 8.76045 2
3 -1 11 17.869 21.5582 4
-5 1 -11 1.73975 14.1292 6
-5 1 -11 2.11756 5.96113 1
5 -1 11 0.0364 9.0938 2
-8 0 11 2.47068 8.61667 1
-7 0 11 229.408 38.3523 4
-7 0 11 277.524 31.3805 2
-7 0 11 319.355 31.5261 1
6 0 -11 -2.0002 6.71005 1
-6 0 11 6.73817 14.1345 4
-6 0 11 -12.624 8.08279 2
-6 0 11 0.8322 6.98908 1
-6 0 11 6.62689 6.06731 5
5 0 -11 175.8 20.8207 1
-5 0 11 195.01 21.3562 1
-5 0 11 209.714 33.3882 4
-5 0 11 175.098 20.6414 5
-5 0 11 229.807 25.1072 2
4 0 -11 -3.987 4.80504 1
-4 0 11 -1.6167 5.32533 1
-4 0 11 6.40959 14.9792 4
-4 0 11 -5.9109 7.00445 5
-4 0 11 -9.3418 5.20368 2
3 0 -11 820.722 68.2474 1
-3 0 11 954.072 74.1699 2
-3 0 11 858.151 79.6524 4
-3 0 11 795.847 71.9324 5
-2 0 11 1.55617 14.33 4
-2 0 11 9.16115 7.72575 2
-1 0 11 376.263 46.1637 4
-1 0 11 430.826 39.5603 2
0 0 11 24.4178 19.1576 4
0 0 11 1.85412 6.90054 2
1 0 11 313.173 46.5234 4
1 0 11 377.805 35.6862 2
2 0 11 3.95846 6.56805 2
2 0 11 -12.164 17.3234 4
2 0 11 1.97488 6.34247 6
-3 0 -11 345.949 36.3664 6
3 0 11 454.549 38.7689 2
3 0 11 332.088 35.1683 6
-4 0 -11 -5.2245 10.3625 6
4 0 11 -13.802 29.0916 4
-5 0 -11 296.814 36.4802 6
5 0 11 316.864 34.6479 2
5 0 11 340.027 35.0913 3
5 0 11 332.879 47.9126 4
-6 0 -11 15.7188 16.8457 6
-8 1 11 227.476 23.5544 3
-8 1 11 250.235 28.2108 1
-7 1 11 30.5583 10.0746 1
-7 1 11 19.6224 16.7048 4
-6 1 11 386.376 33.6247 1
-6 1 11 316.311 29.5488 5
-6 1 11 375.256 36.2663 2
-6 1 11 258.522 43.2249 4
-5 1 11 0.45413 5.39435 1
-5 1 11 6.76947 14.3709 4
-5 1 11 4.49622 6.51547 5
-5 1 11 10.2816 9.00785 2
-4 1 11 408.884 38.6377 2
-4 1 11 435.281 37.87 1
-4 1 11 359.061 45.5932 4
-4 1 11 359.903 40.9118 5
-3 1 11 60.1489 12.8504 5
-3 1 11 53.8016 18.237 4
-3 1 11 91.4325 15.3486 2
-2 1 11 566.645 59.6803 4
-2 1 11 597.29 52.4459 2
-1 1 11 20.4671 17.6105 4
-1 1 11 27.5812 9.35012 2
0 1 11 521.335 56.2097 4
0 1 11 460.167 44.9267 2
1 1 11 29.2777 19.8308 4
1 1 11 36.7872 10.8876 2
2 1 11 1014.46 79.6926 2
2 1 11 780.433 75.081 6
2 1 11 1018.19 89.4055 4
3 1 11 23.1869 20.8957 4
3 1 11 16.0049 10.2042 3
3 1 11 15.6812 8.63401 2
3 1 11 22.3886 9.85626 6
4 1 11 429.331 51.921 4
4 1 11 407.847 44.5006 3
5 1 11 2.19581 17.9463 4
5 1 11 4.07471 10.5442 3
-7 2 11 111.147 15.0508 3
-7 2 11 100.761 17.3036 1
-7 2 11 122.555 27.4913 4
-6 2 11 127.491 19.2267 2
-6 2 11 122.884 17.0674 1
-6 2 11 106.189 12.8514 5
-6 2 11 154.9 16.8291 3
-5 2 11 89.7769 14.7127 5
-5 2 11 95.8992 14.1344 5
-5 2 11 64.7539 19.8911 4
-5 2 11 92.2746 13.5121 1
-5 2 11 110.377 14.9483 3
-5 2 11 94.9886 16.1209 2
-4 2 11 68.6096 13.9048 2
-4 2 11 80.774 13.5644 3
-4 2 11 37.7625 16.9461 4
-3 2 11 504.304 45.9969 3
-3 2 11 555.908 54.7269 4
-3 2 11 423.037 44.5973 5
-3 2 11 542.294 46.2933 2
-2 2 11 57.4221 19.4339 4
-2 2 11 41.925 11.4408 3
-2 2 11 81.3146 14.1146 2
-1 2 11 491.194 48.2708 3
-1 2 11 546.628 48.753 2
-1 2 11 558.574 56.3934 4
0 2 11 38.8091 11.0571 2
0 2 11 31.4083 10.4898 3
0 2 11 31.4385 6.92792 6
0 2 11 45.658 20.9495 4
1 2 11 312.473 31.0357 3
1 2 11 321.647 30.0009 2
1 2 11 213.906 25.4767 6
1 2 11 296.224 40.0341 4
2 2 11 37.0675 12.5096 3
2 2 11 32.9705 10.3931 6
2 2 11 45.8597 20.6859 4
2 2 11 54.6376 12.526 2
3 2 11 291.646 39.8419 6
3 2 11 359.98 45.3731 4
3 2 11 386.159 44.2178 2
3 2 11 314.375 35.1008 3
4 2 11 12.6785 10.1127 3
4 2 11 0.09016 8.01838 2
4 2 11 11.3145 16.0403 4
5 2 11 304.675 42.6671 4
-6 3 11 203.356 24.2662 2
-6 3 11 196.074 34.9856 4
-6 3 11 241.225 28.1567 3
-6 3 11 225.281 24.5852 1
-5 3 11 82.219 22.2187 4
-5 3 11 104.737 15.9723 2
-5 3 11 93.8264 15.2425 5
-5 3 11 114.354 16.0303 3
-5 3 11 121.616 15.5068 1
-4 3 11 182.378 24.6169 5
-4 3 11 235.334 24.927 2
-4 3 11 213.448 25.1679 3
-4 3 11 251.195 22.8946 1
-4 3 11 245.777 26.0699 5
-4 3 11 257.04 35.8939 4
-3 3 11 264.928 29.1655 3
-3 3 11 310.921 33.9033 5
-3 3 11 259.604 38.082 4
-3 3 11 310.611 29.207 2
-3 3 11 258.798 24.3995 1
-2 3 11 17.0279 16.0993 4
-2 3 11 25.1261 12.1678 5
-2 3 11 10.338 9.29498 3
-2 3 11 19.5816 8.46269 2
-2 3 11 17.0728 5.98319 6
-2 3 11 10.3981 5.73895 6
-1 3 11 74.0144 16.6116 5
-1 3 11 79.3262 21.3559 4
-1 3 11 62.7769 14.2387 3
-1 3 11 56.1716 12.3476 2
0 3 11 168.578 28.9029 4
0 3 11 130.5 18.5291 6
0 3 11 168.806 19.4107 6
0 3 11 179.03 20.9563 2
0 3 11 176.968 22.0661 3
1 3 11 54.6939 15.4303 6
1 3 11 96.0723 16.3114 2
1 3 11 103.877 23.1339 4
2 3 11 174.158 32.0302 4
2 3 11 158.996 23.1865 3
3 3 11 48.511 18.2994 4
3 3 11 37.279 12.17 2
3 3 11 33.7239 19.3689 3
4 3 11 155.205 28.0822 4
-5 4 11 39.7146 10.191 2
-5 4 11 21.5271 16.6676 4
-5 4 11 26.2355 10.2701 3
-4 4 11 132.977 20.2936 5
-4 4 11 148.358 17.0352 1
-4 4 11 157.405 18.7676 2
-4 4 11 131.452 20.0041 3
-4 4 11 112.64 24.7087 4
-3 4 11 226.417 24.8685 3
-3 4 11 184.807 20.1692 1
-3 4 11 233.834 26.3196 5
-3 4 11 180.412 31.7041 4
-3 4 11 222.765 23.5182 2
-2 4 11 151.423 17.4679 2
-2 4 11 121.097 20.9969 3
-2 4 11 113.427 22.449 4
-2 4 11 85.2679 15.4726 6
-1 4 11 254.761 38.3628 4
-1 4 11 257.719 27.799 2
-1 4 11 312.035 33.9802 5
-1 4 11 234.029 28.4233 6
-1 4 11 293.509 30.8816 3
0 4 11 203.392 25.3397 6
0 4 11 221.083 24.2688 2
0 4 11 189.664 33.1855 4
0 4 11 286.152 42.3467 5
0 4 11 220.214 27.0928 3
1 4 11 33.6259 17.2176 4
1 4 11 27.018 14.8637 5
1 4 11 8.41185 10.0622 2
2 4 11 113.511 23.8909 4
2 4 11 85.8531 16.0999 2
-2 -4 12 75.3438 29.7778 4
-2 -4 12 101.491 18.3588 2
-1 -4 12 233.751 27.1424 2
-1 -4 12 176.959 40.5064 4
5 3 -12 212.575 31.606 5
-5 -3 12 134.243 32.0179 4
4 3 -12 75.8225 28.5922 5
-4 -3 12 61.9875 14.8357 2
-4 -3 12 67.3865 25.5777 4
-3 -3 12 88.8939 30.1792 4
-3 -3 12 104.721 17.9862 2
2 3 -12 64.7971 22.3025 5
-2 -3 12 65.6688 42.7264 4
-2 -3 12 72.9446 20.6784 2
1 3 -12 337.679 42.9116 5
1 3 -12 313.174 34.621 1
-1 -3 12 409.809 56.3051 4
-1 -3 12 359.778 35.9635 2
0 -3 12 104.295 18.1974 2
0 -3 12 105.688 32.1095 4
1 -3 12 150.991 22.6657 2
1 -3 12 186.53 39.0974 4
-6 -2 12 309.615 32.6086 1
-6 -2 12 230.248 42.6984 4
-5 -2 12 7.88826 17.1151 4
-5 -2 12 -0.7414 9.04967 2
4 2 -12 305.123 33.0039 1
-4 -2 12 408.922 39.7222 2
3 2 -12 67.4381 12.1917 1
-3 -2 12 60.4322 14.3508 2
-3 -2 12 43.9614 23.081 4
-2 -2 12 401.665 37.8747 2
-2 -2 12 308.242 49.22 4
-1 -2 12 119.475 31.3999 4
0 -2 12 296.679 30.8119 2
0 -2 12 228.087 42.9589 4
1 -2 12 24.635 34.8848 4
1 -2 12 32.543 11.3419 2
2 -2 12 233.369 42.5376 4
2 -2 12 172.961 25.3015 2
-3 2 -12 49.2186 16.1097 6
3 -2 12 94.2454 16.329 2
-4 2 -12 147.93 26.8913 6
4 -2 12 214.395 24.9827 2
-7 -1 12 370.658 38.5108 1
-6 -1 12 83.6123 15.429 1
-6 -1 12 46.4671 20.3473 4
-6 -1 12 34.8964 13.4699 2
5 1 -12 395.091 39.7754 1
-5 -1 12 435.048 43.4538 2
-5 -1 12 497.983 69.8966 4
-5 -1 12 435.245 40.6008 1
4 1 -12 41.6237 9.64472 1
-4 -1 12 74.0462 23.8495 4
-4 -1 12 92.7073 16.228 2
-3 -1 12 270.842 44.5925 4
-3 -1 12 384.594 35.8677 2
-2 -1 12 79.4775 15.496 2
-2 -1 12 54.1849 23.797 4
-1 -1 12 514.185 48.819 2
-1 -1 12 522.573 61.0781 4
0 -1 12 35.5481 11.4779 2
0 -1 12 15.8963 20.7426 4
1 -1 12 330.03 34.287 2
1 -1 12 301.027 48.0701 4
2 -1 12 55.9875 12.8896 2
2 -1 12 21.5249 9.63219 6
2 -1 12 32.2203 35.3179 4
-3 1 -12 230.565 26.4647 6
3 -1 12 155.864 22.9714 2
3 -1 12 144.624 22.2066 6
3 -1 12 188.139 38.5667 4
-4 1 -12 3.03447 14.5064 6
4 -1 12 9.59526 8.76496 2
-7 0 12 -5.3275 7.99364 1
6 0 -12 208.287 23.3728 1
-6 0 12 103.03 26.9325 4
-6 0 12 178.047 23.738 2
-6 0 12 161.578 20.7519 1
5 0 -12 -6.6056 5.82347 1
-5 0 12 -1.9281 12.7769 2
-5 0 12 -1.2968 6.34168 1
-5 0 12 -4.9389 6.69809 5
-4 0 12 212.9 36.9055 4
-4 0 12 240.178 27.2348 2
-3 0 12 -4.6699 15.7144 4
-3 0 12 -7.6932 6.47646 2
-2 0 12 415.341 39.3941 2
-2 0 12 382.476 48.3682 4
-1 0 12 19.5975 19.3934 4
0 0 12 281.957 42.6854 4
0 0 12 260.267 29.4999 2
1 0 12 -1.7553 7.01622 2
1 0 12 -5.4834 16.1634 4
1 0 12 0.99413 5.07603 6
2 0 12 256.195 28.0795 6
2 0 12 336.281 48.5292 4
2 0 12 382.22 35.3229 2
3 0 12 3.51815 8.87875 2
3 0 12 -1.4029 8.06184 6
3 0 12 -10.475 19.7031 4
-4 0 -12 262.168 32.9182 6
4 0 12 320.598 35.7938 2
4 0 12 323.569 45.6379 4
-7 1 12 343.267 37.8949 2
-7 1 12 355.901 35.1488 1
-6 1 12 30.4323 17.7637 4
-6 1 12 65.9879 12.5468 1
-6 1 12 70.802 15.2509 2
-5 1 12 453.998 40.7063 1
-5 1 12 465.249 44.2865 2
-4 1 12 91.6228 10.764 1
-4 1 12 83.6718 24.3324 4
-4 1 12 83.139 16.0422 2
-4 1 12 54.7644 12.7371 5
-3 1 12 331.92 32.8706 2
-3 1 12 299.226 41.6361 4
-2 1 12 48.4953 20.3174 4
-2 1 12 86.8902 15.2215 2
-1 1 12 514.419 48.7366 2
-1 1 12 533.888 58.3846 4
0 1 12 31.8172 10.7974 2
0 1 12 36.3147 20.3056 4
1 1 12 334.63 31.3575 2
1 1 12 312.316 43.8301 4
1 1 12 232.698 24.5158 6
2 1 12 36.4034 9.71071 6
2 1 12 60.8172 21.8717 2
2 1 12 47.084 15.2937 3
2 1 12 84.6883 26.2641 4
3 1 12 195.213 23.0724 3
3 1 12 128.427 23.7584 6
3 1 12 159.857 22.4465 2
4 1 12 1.44357 16.3487 4
-6 2 12 238.332 28.196 2
-6 2 12 300.148 26.9671 1
-6 2 12 185.513 36.3653 4
-6 2 12 219.66 25.4755 3
-5 2 12 1.41041 7.72162 3
-5 2 12 7.53955 8.58789 2
-5 2 12 0.34631 7.70083 5
-5 2 12 4.3314 5.58549 1
-5 2 12 -0.9715 13.3104 4
-4 2 12 400.743 41.4491 3
-4 2 12 411.679 41.7563 2
-4 2 12 490.113 37.4879 1
-4 2 12 430.925 51.1209 4
-3 2 12 73.3845 14.6884 2
-3 2 12 74.756 15.1797 3
-3 2 12 79.7567 22.243 4
-2 2 12 388.261 36.281 2
-2 2 12 340.414 36.1869 3
-2 2 12 332.83 46.155 4
-1 2 12 114.422 18.0706 2
-1 2 12 123.377 18.5622 3
-1 2 12 140.851 27.9413 4
0 2 12 258.931 29.339 3
0 2 12 245.329 27.8567 2
0 2 12 247.845 41.0209 4
1 2 12 31.347 11.4945 3
1 2 12 24.5362 7.91879 6
1 2 12 64.6295 22.3045 4
2 2 12 217.279 35.9538 4
2 2 12 167.278 23.5033 3
2 2 12 194.753 23.9025 2
3 2 12 48.5361 23.8317 4
3 2 12 97.3417 25.3163 2
4 2 12 214.719 36.4527 4
-5 3 12 169.778 30.8712 4
-5 3 12 128.215 19.382 3
-5 3 12 133.377 18.5615 5
-5 3 12 176.42 19.4308 1
-5 3 12 113.121 24.1245 2
-4 3 12 67.6733 17.3936 5
-4 3 12 88.2995 15.4924 3
-4 3 12 93.6073 15.6941 2
-3 3 12 99.3767 16.6406 3
-3 3 12 73.2291 22.2397 4
-3 3 12 98.9464 16.9125 5
-3 3 12 74.1482 14.6371 2
-2 3 12 71.9429 16.3562 5
-2 3 12 57.8967 20.8477 4
-2 3 12 37.1959 11.7763 3
-2 3 12 40.3298 11.3505 2
-1 3 12 334.473 40.1179 4
-1 3 12 227.345 22.9025 6
-1 3 12 281.118 32.0926 3
0 3 12 88.4185 23.5178 4
0 3 12 72.3897 12.0782 6
0 3 12 91.0484 17.8517 3
1 3 12 152.173 21.6793 3
1 3 12 139.192 20.2247 2
1 3 12 126.392 26.8312 4
2 3 12 107.628 25.8819 4
2 3 12 143.157 23.0876 2
-2 4 12 72.3731 21.8261 4
-2 4 12 60.9423 16.0667 3
-2 4 12 81.3977 17.4768 5
-1 4 12 220.929 35.7965 4
-1 4 12 269.41 31.1653 5
-1 4 12 195.907 24.9501 2
3 3 -13 26.07 18.7436 5
2 3 -13 155.17 37.4775 5
-2 -3 13 103.995 18.6152 2
-1 -3 13 88.9746 16.7556 2
0 -3 13 76.9851 15.733 2
-4 -2 13 47.6938 16.8405 2
-4 -2 13 34.231 22.8306 4
-3 -2 13 186.295 36.589 4
-3 -2 13 261.768 29.0911 2
-2 -2 13 8.49663 9.66361 2
-2 -2 13 33.049 23.8503 4
-1 -2 13 332.229 33.7778 2
-1 -2 13 246.26 47.3036 4
0 -2 13 40.155 23.591 4
0 -2 13 33.974 10.9103 2
-2 2 -13 -1.6842 7.53678 6
2 -2 13 2.21942 10.0699 2
-6 -1 13 322.997 33.6259 1
-5 -1 13 9.5193 19.5704 4
-4 -1 13 330.876 35.0198 2
-4 -1 13 304.211 45.435 4
-3 -1 13 16.3215 18.2 4
-3 -1 13 14.5384 10.0585 2
-2 -1 13 276.505 30.983 2
-2 -1 13 280.895 45.3677 4
-1 -1 13 11.2549 8.94111 2
-1 -1 13 15.6657 21.0197 4
0 -1 13 377.036 52.3846 4
0 -1 13 337.602 36.0144 2
1 -1 13 10.1765 24.0151 4
1 -1 13 10.6734 9.5644 2
-3 1 -13 6.94948 7.77423 6
-6 0 13 1.02354 8.16523 1
-5 0 13 205.822 39.019 4
-5 0 13 234.137 29.132 2
-5 0 13 268.079 25.0978 1
-4 0 13 14.3977 17.1791 4
-4 0 13 9.47987 10.0826 2
-3 0 13 494.937 45.2804 2
-3 0 13 423.581 54.7904 4
-2 0 13 0.73875 13.6828 2
-1 0 13 442.328 48.6127 2
0 0 13 11.0111 21.4089 4
0 0 13 9.19363 7.95475 2
1 0 13 455.929 59.2194 4
1 0 13 482.28 46.0638 2
2 0 13 6.28622 19.9818 4
2 0 13 -10.194 7.33932 2
-6 1 13 278.335 28.9396 1
-5 1 13 30.4068 18.2636 4
-5 1 13 -3.5264 9.25354 2
-4 1 13 244.649 40.3187 4
-4 1 13 312.206 32.034 2
-3 1 13 15.9154 19.772 4
-3 1 13 21.754 9.68038 2
-2 1 13 306.547 34.8077 2
-1 1 13 -9.4504 22.9028 4
-1 1 13 11.4046 8.95877 2
0 1 13 393.721 39.609 2
1 1 13 18.7384 9.5504 2
1 1 13 0.13906 18.7355 4
2 1 13 299.253 46.6199 4
-5 2 13 126.931 20.8769 5
-5 2 13 162.026 21.5644 2
-5 2 13 181.899 21.516 3
-4 2 13 90.8551 16.9766 2
-4 2 13 65.0981 13.6722 3
-4 2 13 42.0045 20.1036 4
-3 2 13 244.724 39.8939 4
-3 2 13 253.805 28.7131 2
-3 2 13 253.097 29.1173 3
-2 2 13 28.9998 19.7856 3
-1 2 13 277.002 30.0919 3
-1 2 13 246.201 60.8189 4
-1 2 13 256.208 29.3526 2
0 2 13 36.8248 11.6926 3
0 2 13 24.1567 10.4671 2
1 2 13 274.228 38.1944 2
1 2 13 302.612 52.2464 4
2 2 13 12.7452 20.7318 4
-3 3 13 30.2883 10.6892 2
-3 3 13 65.2349 15.1173 5
-3 3 13 15.3995 18.4015 4
-3 3 13 54.7305 13.4957 3
-2 3 13 150.617 21.2488 2
-2 3 13 139.097 28.8616 4
-2 3 13 154.203 22.5244 3
-2 3 13 158.74 25.7739 5
-1 3 13 115.045 19.6796 2
-1 0 14 29.7786 37.1298 4
-2 1 14 0.74967 22.7244 4
-1 1 14 212.365 40.9874 4
0 1 14 20.2025 35.9877 4
-3 2 14 15.345 11.1678 3
-1 2 14 92.2543 42.4617 4
loop_
_twin_individual_id
_twin_individual_mass_fraction_refined
1 0.947(12)
2 0.053(12)
