#------------------------------------------------------------------------------
#$Date: 2021-06-26 03:29:27 +0300 (Sat, 26 Jun 2021) $
#$Revision: 266700 $
#$URL: file:///home/coder/svn-repositories/cod/cif/4/51/88/4518836.cif $
#------------------------------------------------------------------------------
#
# This file is available in the Crystallography Open Database (COD),
# http://www.crystallography.net/
#
# All data on this site have been placed in the public domain by the
# contributors.
#
data_4518836
loop_
_publ_author_name
'Barman, Debasish'
'Gopikrishna, Peddaboodi'
'Iyer, Parameswar Krishnan'
_publ_section_title
;
 Stimuli-Responsive Trimorphs and Charge-Transfer Complexes of a Twisted
 Molecular Donor.
;
_journal_name_full
'Langmuir : the ACS journal of surfaces and colloids'
_journal_paper_doi               10.1021/acs.langmuir.1c01172
_journal_year                    2021
_chemical_formula_moiety         'C34 H22, C6 F4 O2'
_chemical_formula_sum            'C23 H11 F4 O2'
_chemical_formula_weight         395.32
_chemical_melting_point          523
_chemical_name_systematic        DBFTFQ
_chemical_properties_physical    Heat-sensitive
_space_group_crystal_system      triclinic
_space_group_IT_number           2
_space_group_name_Hall           '-P 1'
_space_group_name_H-M_alt        'P -1'
_atom_sites_solution_hydrogens   geom
_audit_creation_method           SHELXL-2014/7
_audit_update_record
;
2019-06-21 deposited with the CCDC.	2019-07-02 downloaded from the CCDC.
;
_cell_angle_alpha                80.786(16)
_cell_angle_beta                 77.885(16)
_cell_angle_gamma                73.818(15)
_cell_formula_units_Z            2
_cell_length_a                   6.5187(11)
_cell_length_b                   9.1305(16)
_cell_length_c                   15.218(3)
_cell_measurement_reflns_used    1905
_cell_measurement_temperature    293(2)
_cell_measurement_theta_max      28.685
_cell_measurement_theta_min      2.273
_cell_volume                     845.5(3)
_computing_structure_refinement  'SHELXL-2014/7 (Sheldrick, 2014)'
_diffrn_ambient_temperature      293(2)
_diffrn_measured_fraction_theta_full 0.999
_diffrn_measured_fraction_theta_max 0.999
_diffrn_measurement_device_type  'SuperNova, Single source at offset/far, Eos'
_diffrn_measurement_method       '\w scans'
_diffrn_radiation_type           MoK\a
_diffrn_radiation_wavelength     0.71073
_diffrn_reflns_av_R_equivalents  0.0276
_diffrn_reflns_av_unetI/netI     0.0540
_diffrn_reflns_Laue_measured_fraction_full 0.999
_diffrn_reflns_Laue_measured_fraction_max 0.999
_diffrn_reflns_limit_h_max       7
_diffrn_reflns_limit_h_min       -7
_diffrn_reflns_limit_k_max       10
_diffrn_reflns_limit_k_min       -10
_diffrn_reflns_limit_l_max       18
_diffrn_reflns_limit_l_min       -13
_diffrn_reflns_number            5267
_diffrn_reflns_point_group_measured_fraction_full 0.999
_diffrn_reflns_point_group_measured_fraction_max 0.999
_diffrn_reflns_theta_full        25.049
_diffrn_reflns_theta_max         25.049
_diffrn_reflns_theta_min         2.336
_exptl_absorpt_coefficient_mu    0.128
_exptl_crystal_colour            'dark pink'
_exptl_crystal_density_diffrn    1.553
_exptl_crystal_description       cubic
_exptl_crystal_F_000             402
_exptl_crystal_preparation       Mechanochromism
_exptl_crystal_recrystallization_method 'Vapour deposition'
_refine_diff_density_max         0.189
_refine_diff_density_min         -0.232
_refine_diff_density_rms         0.053
_refine_ls_extinction_method     none
_refine_ls_goodness_of_fit_ref   1.058
_refine_ls_hydrogen_treatment    constr
_refine_ls_matrix_type           full
_refine_ls_number_parameters     262
_refine_ls_number_reflns         2993
_refine_ls_number_restraints     0
_refine_ls_restrained_S_all      1.058
_refine_ls_R_factor_all          0.0750
_refine_ls_R_factor_gt           0.0500
_refine_ls_shift/su_max          0.000
_refine_ls_shift/su_mean         0.000
_refine_ls_structure_factor_coef Fsqd
_refine_ls_weighting_details
'w=1/[\s^2^(Fo^2^)+(0.0410P)^2^+0.1774P] where P=(Fo^2^+2Fc^2^)/3'
_refine_ls_weighting_scheme      calc
_refine_ls_wR_factor_gt          0.1056
_refine_ls_wR_factor_ref         0.1263
_reflns_Friedel_coverage         0.000
_reflns_number_gt                2116
_reflns_number_total             2993
_reflns_threshold_expression     'I > 2\s(I)'
_cod_data_source_file            la1c01172_si_009.cif
_cod_data_source_block           TAHTFQ
_cod_database_code               4518836
_shelx_shelxl_version_number     2014/7
_shelx_space_group_comment
;
The symmetry employed for this shelxl refinement is uniquely defined
by the following loop, which should always be used as a source of
symmetry information in preference to the above space-group names.
They are only intended as comments.
;
_shelx_res_file
;

    exp_5952.res created by SHELXL-2014/7

TITL exp_5952_a.res in P-1
CELL 0.71073 6.5187 9.1305 15.2184 80.786 77.885 73.818
ZERR 2 0.0011 0.0016 0.0029 0.016 0.016 0.015
LATT 1
SFAC C  H  F  O
UNIT 46  22  8  4
OMIT -3 50.1
REM Old TITL exp_5952 in P-1
REM SHELXT solution in P-1: R1 0.332, Rweak 0.023, Alpha 0.038
REM <I/s> 0.000 for 0 systematic absences, Orientation as input
REM Formula found by SHELXT: C29
REM <olex2.extras>
REM <HklSrc "%.\\exp_5952.hkl">
REM </olex2.extras>
L.S. 10
ACTA
BOND
FMAP 2
PLAN 10
WGHT    0.041000    0.177400
FVAR       0.60551
F001  3    0.913425    0.660493    0.674144    11.00000    0.05971    0.06518 =
         0.06637   -0.03599   -0.00419   -0.01571
F002  3    0.828307    0.959308    0.601992    11.00000    0.06405    0.09344 =
         0.03161    0.00946   -0.01400   -0.01874
F003  3    0.725099    0.817140    0.968652    11.00000    0.06735    0.10470 =
         0.03038    0.00049   -0.00131   -0.01934
F004  3    0.645446    1.116099    0.896959    11.00000    0.06846    0.07054 =
         0.07776   -0.04332    0.00120   -0.00874
O005  4    0.849207    0.596021    0.855740    11.00000    0.05247    0.04495 =
         0.07340    0.01114   -0.00739   -0.01310
O006  4    0.689850    1.181091    0.715912    11.00000    0.05729    0.04241 =
         0.08915    0.01280   -0.01617   -0.01136
C007  1    0.344447    0.821850    0.661642    11.00000    0.02959    0.02927 =
         0.02923   -0.00625   -0.00333   -0.00895
C008  1    0.275129    0.982172    0.684487    11.00000    0.02884    0.02696 =
         0.02982   -0.00546   -0.00310   -0.00980
C009  1    0.348829    0.725328    0.749588    11.00000    0.02957    0.03402 =
         0.02600   -0.00231   -0.00616   -0.01050
C00A  1    0.437166    0.637889    0.540276    11.00000    0.04080    0.03435 =
         0.02234   -0.00644   -0.00142   -0.01020
C00B  1    0.281563    0.822895    0.819451    11.00000    0.02869    0.03810 =
         0.02771   -0.00468   -0.00748   -0.01019
C00C  1    0.237921    0.981829    0.778894    11.00000    0.02637    0.03271 =
         0.03486   -0.00922   -0.00591   -0.00918
C00D  1    0.368990    0.786647    0.576738    11.00000    0.04055    0.03212 =
         0.02720   -0.00351   -0.00489   -0.00885
AFIX  43
H00D  2    0.337345    0.870939    0.534030    11.00000   -1.20000
AFIX   0
C00E  1    0.843051    0.775391    0.725657    11.00000    0.03200    0.04388 =
         0.04006   -0.01476   -0.00554   -0.01085
C00F  1    0.677264    0.386873    0.521411    11.00000    0.04171    0.03929 =
         0.03225   -0.00859   -0.01129   -0.00018
AFIX  43
H00F  2    0.796506    0.310678    0.536689    11.00000   -1.20000
AFIX   0
C00G  1    0.391695    0.567337    0.773028    11.00000    0.04537    0.03355 =
         0.03821   -0.00288   -0.00848   -0.01118
AFIX  43
H00G  2    0.435446    0.500708    0.728497    11.00000   -1.20000
AFIX   0
C00H  1    0.816077    0.729916    0.823621    11.00000    0.02881    0.03909 =
         0.04390    0.00038   -0.00526   -0.01011
C00I  1    0.707452    1.001902    0.845149    11.00000    0.03236    0.04426 =
         0.04561   -0.01666   -0.00177   -0.00653
C00J  1    0.243518    1.120526    0.629517    11.00000    0.04310    0.03364 =
         0.03821   -0.00203   -0.00600   -0.01027
AFIX  43
H00J  2    0.269755    1.121920    0.566954    11.00000   -1.20000
AFIX   0
C00K  1    0.259707    0.763645    0.909549    11.00000    0.03932    0.05314 =
         0.03005   -0.00560   -0.00845   -0.01115
AFIX  43
H00K  2    0.216853    0.828771    0.954856    11.00000   -1.20000
AFIX   0
C00L  1    0.616286    0.522659    0.560116    11.00000    0.04536    0.04612 =
         0.03251   -0.01365   -0.01219   -0.00805
AFIX  43
H00L  2    0.696761    0.537186    0.600243    11.00000   -1.20000
AFIX   0
C00M  1    0.802951    0.920284    0.690946    11.00000    0.03606    0.05635 =
         0.02676    0.00162   -0.00773   -0.01404
C00N  1    0.746023    0.856539    0.879950    11.00000    0.03455    0.05835 =
         0.02554   -0.00074   -0.00364   -0.01060
C00O  1    0.166247    1.119764    0.817680    11.00000    0.03774    0.04629 =
         0.04051   -0.01858   -0.00501   -0.01173
AFIX  43
H00O  2    0.140337    1.119982    0.880134    11.00000   -1.20000
AFIX   0
C00P  1    0.728489    1.047980    0.747209    11.00000    0.02709    0.04078 =
         0.05383    0.00093   -0.00799   -0.00900
C00Q  1    0.368207    0.510804    0.863713    11.00000    0.05165    0.03848 =
         0.04870    0.01199   -0.01607   -0.01209
AFIX  43
H00Q  2    0.397720    0.405260    0.879392    11.00000   -1.20000
AFIX   0
C00R  1    0.302365    0.606529    0.931313    11.00000    0.04612    0.06275 =
         0.03225    0.00875   -0.01149   -0.01539
AFIX  43
H00R  2    0.286650    0.565349    0.991589    11.00000   -1.20000
AFIX   0
C00S  1    0.172679    1.255950    0.668875    11.00000    0.05112    0.02833 =
         0.05961   -0.00348   -0.00563   -0.01219
AFIX  43
H00S  2    0.150181    1.348960    0.632379    11.00000   -1.20000
AFIX   0
C00T  1    0.134610    1.255408    0.761868    11.00000    0.04890    0.03626 =
         0.06799   -0.02335   -0.00172   -0.01173
AFIX  43
H00T  2    0.086981    1.348035    0.786969    11.00000   -1.20000
AFIX   0
HKLF 4

REM  exp_5952_a.res in P-1
REM R1 =  0.0500 for    2116 Fo > 4sig(Fo)  and  0.0750 for all    2993 data
REM    262 parameters refined using      0 restraints

END

WGHT      0.0450      0.1550

REM Highest difference peak  0.189,  deepest hole -0.232,  1-sigma level  0.053
Q1    1   0.2136  1.4358  0.7970  11.00000  0.05    0.19
Q2    1   0.1405  0.5675  0.7677  11.00000  0.05    0.17
Q3    1   0.4279  0.5391  1.0018  11.00000  0.05    0.16
Q4    1   0.7182  0.5234  0.6987  11.00000  0.05    0.16
Q5    1   0.8298  0.5370  0.5615  11.00000  0.05    0.15
Q6    1   0.1807  0.4189  0.8641  11.00000  0.05    0.15
Q7    1   0.7233  0.8005  0.6030  11.00000  0.05    0.15
Q8    1   0.8070  0.8992  0.9570  11.00000  0.05    0.15
Q9    1   0.3234  0.7618  0.6986  11.00000  0.05    0.15
Q10   1   0.9578  0.5586  0.9805  11.00000  0.05    0.15
;
_shelx_res_checksum              98448
_shelx_hkl_file
;
   0   0  -2 1406.73   26.36
   0   0   2 1376.14   26.48
   0   0   2 1362.88   26.23
   0   0  -2 1387.42   26.51
   0   0  -3   42.61    1.88
   0   0   3   46.91    2.00
   0   0   3   46.93    1.82
   0   0  -3   45.16    1.83
   0   0   4  118.24    3.69
   0   0  -4  115.08    3.78
   0   0  -4  118.61    3.69
   0   0   4  117.12    3.99
   0   0   5  146.87    4.60
   0   0  -5  144.62    4.48
   0   0  -5  142.99    4.63
   0   0   5  141.08    4.96
   0   0   6    6.73    1.11
   0   0  -6    6.41    0.87
   0   0   6    3.90    0.82
   0   0   7   84.06    4.20
   0   0   7   78.24    3.68
   0   0   8    9.76    1.29
   0   0   8   10.97    1.53
   0   0   9   33.76    3.01
   0   0   9   35.79    2.68
   0   0  10    6.78    1.23
   0   0  10    9.66    1.71
   0   0  11   26.16    3.00
   0   0  11   21.59    2.32
   0   0  12   12.42    2.33
   0   0  12   10.68    1.71
   0   0  13    6.02    1.69
   0   0  13    1.99    0.83
   0   0  14   67.11    5.91
   0   0  14   60.97    4.61
   0   0  15    0.96    0.65
   0   0  15    0.47    0.70
   0   0  16    1.09    0.82
   0   0  16    1.52    0.84
   0   0  17    0.14    0.45
   0   0  18    2.29    1.13
   0  -1  18    1.50    0.90
   0  -1  17    0.86    0.68
   0  -1  16   -0.23    0.69
   0  -1  15   11.07    2.39
   0  -1  14   38.92    3.46
   0  -1  14   37.55    4.48
   0  -1  13    2.30    0.84
   0  -1  13    3.52    1.52
   0  -1  12    6.46    1.22
   0  -1  12    4.05    1.46
   0  -1  11   22.84    2.28
   0   1 -11   23.03    2.19
   0  -1  11   26.49    3.38
   0  -1  10  324.48    9.94
   0   1 -10  312.83    9.80
   0  -1   9   42.74    3.69
   0  -1   9   40.30    2.70
   0   1  -9   45.76    2.99
   0  -1   8   63.35    3.20
   0  -1   8   62.61    4.28
   0   1  -8   65.60    3.53
   0   1  -7  162.66    5.77
   0  -1   7  161.37    6.73
   0  -1   7  156.67    5.16
   0  -1   6    2.59    0.50
   0   1  -6    2.49    0.60
   0  -1   6    2.45    0.80
   0  -1   5  127.58    3.79
   0  -1   5  121.27    5.06
   0   1  -5  127.61    4.30
   0   1  -5  117.23    4.36
   0  -1   4   48.81    1.88
   0   1  -4   54.94    2.50
   0  -1   4   56.87    2.93
   0   1  -4   61.82    2.57
   0   1  -3 1277.64   24.67
   0  -1   3 1222.92   23.52
   0  -1   3 1242.58   24.80
   0  -1   2  204.92    5.40
   0   1  -2  190.29    4.96
   0  -1   1  911.60   18.57
   0   1  -1  946.48   18.31
   0  -1   0  581.68    9.87
   0   1   0  409.86    9.83
   0  -1  -1  557.56   12.27
   0   1   1  550.67   12.39
   0  -1  -2 1054.82   21.87
   0   1   2 1037.48   22.09
   0  -1  -2 1066.87   21.01
   0   1   2 1082.12   20.94
   0  -1  -3    6.15    0.66
   0   1   3    3.99    0.68
   0  -1  -3    5.63    0.77
   0   1   3    5.95    0.69
   0   1   3    5.70    0.52
   0  -1  -4  171.79    4.92
   0   1   4  165.77    5.25
   0  -1  -4  165.99    5.38
   0   1   4  172.17    4.63
   0   1   4  176.56    5.32
   0  -1  -5    1.82    0.48
   0   1   5    1.91    0.57
   0   1   5    2.31    0.57
   0   1   5    2.12    0.44
   0  -1  -5    1.41    0.39
   0  -1  -6   18.82    1.68
   0   1   6   18.38    1.69
   0   1   6   18.03    1.49
   0   1   7  165.94    6.21
   0   1   7  165.28    5.80
   0  -1  -7  169.71    6.00
   0   1   8   46.27    2.97
   0   1   8   46.86    3.19
   0  -1  -8   47.73    2.93
   0  -1  -9   21.56    1.94
   0   1   9   22.27    2.26
   0   1   9   21.27    2.14
   0  -1 -10   26.03    2.25
   0   1  10   31.74    2.85
   0   1  10   31.07    2.85
   0   1  11   12.95    2.02
   0   1  11   14.42    2.03
   0  -1 -11    9.79    1.30
   0   1  12   -0.07    0.62
   0   1  12    0.56    0.57
   0   1  13   44.79    3.94
   0   1  13   43.66    4.44
   0   1  14   27.65    3.24
   0   1  14   36.58    4.03
   0   1  15    2.42    1.05
   0   1  15    2.96    1.25
   0   1  16    7.95    1.78
   0   1  16   10.59    2.11
   0   1  17    1.11    0.81
   0   1  17    0.57    0.58
   0   1  18   -1.95    0.92
   0   1  20    1.66    1.13
   0  -2  18   -1.61    0.99
   0  -2  17    0.13    0.43
   0  -2  16    0.99    0.69
   0  -2  15   12.18    2.55
   0  -2  14    1.58    0.90
   0  -2  13  181.32   10.24
   0  -2  12   21.16    3.32
   0  -2  12   26.20    2.45
   0  -2  11    4.12    1.61
   0  -2  11    5.11    0.99
   0  -2  10   74.43    3.84
   0  -2  10   81.12    6.24
   0  -2   9    0.10    0.26
   0  -2   9    1.10    0.74
   0  -2   8  124.49    4.55
   0  -2   8  112.85    6.55
   0  -2   7  102.68    3.74
   0  -2   7  106.78    5.88
   0  -2   6   21.27    1.34
   0  -2   6   19.38    1.76
   0  -2   6   23.28    2.49
   0  -2   5   76.58    4.26
   0  -2   5   70.46    2.34
   0  -2   5   74.32    3.54
   0  -2   4  145.95    5.79
   0  -2   4  138.60    5.13
   0   2  -3  192.51    5.54
   0  -2   3  195.37    6.51
   0   2  -2   41.20    1.96
   0  -2   2   41.06    2.46
   0  -2   1  582.45   13.20
   0   2  -1  597.70   12.60
   0  -2   0   51.37    2.05
   0   2   0   62.90    2.14
   0  -2  -1  262.79    5.71
   0   2   1  262.06    8.22
   0   2   1  248.68    5.32
   0  -2  -2  312.12    8.86
   0   2   2  300.52    7.46
   0   2   2  305.07    9.24
   0  -2  -2  281.71    7.55
   0  -2  -3  338.64    9.63
   0   2   3  344.97   10.20
   0  -2  -3  330.21    8.49
   0   2   3  338.14    8.30
   0   2   4  145.45    4.84
   0   2   4  149.28    6.18
   0  -2  -4  154.51    5.69
   0  -2  -4  154.46    4.90
   0   2   4  146.26    3.80
   0   2   5   27.25    2.52
   0   2   5   27.86    2.13
   0  -2  -5   24.81    1.77
   0  -2  -5   25.65    2.16
   0   2   5   24.81    1.85
   0   2   5   25.58    1.38
   0   2   6   90.02    3.31
   0   2   6   89.97    4.87
   0  -2  -6   84.13    4.19
   0   2   6   93.36    4.48
   0   2   6   89.26    4.08
   0   2   7    1.80    0.61
   0   2   7    1.52    0.78
   0  -2  -7    2.53    0.68
   0   2   7    1.99    0.52
   0  -2  -8   12.02    1.50
   0   2   8   12.20    1.35
   0   2   8   10.54    1.60
   0  -2  -9    0.49    0.17
   0   2   9    1.06    0.50
   0   2   9    0.68    0.55
   0   2  10    5.14    1.07
   0   2  10    6.62    1.41
   0   2  11  249.70    9.27
   0   2  11  270.24   10.34
   0   2  12   23.79    2.74
   0   2  12   20.74    2.63
   0   2  13   48.67    4.26
   0   2  13   38.32    3.79
   0   2  14   73.69    5.30
   0   2  14   64.25    5.18
   0   2  15   -0.10    0.70
   0   2  15    1.23    0.67
   0   2  16   11.98    2.09
   0   2  16   13.89    2.51
   0   2  17    4.03    1.49
   0   2  17    2.27    0.82
   0   2  18    4.19    1.49
   0   2  19    1.90    1.13
   0   2  19    0.57    0.46
   0  -3  17    5.74    1.99
   0  -3  17    1.53    0.99
   0  -3  16    2.16    1.14
   0  -3  15    7.32    1.95
   0  -3  14    2.75    1.26
   0  -3  13   23.24    3.53
   0  -3  12   45.02    4.90
   0  -3  11   25.90    3.76
   0  -3  10   81.81    6.35
   0  -3  10   76.36    3.18
   0  -3   9    7.20    0.81
   0  -3   9    7.90    1.99
   0  -3   8    0.97    0.56
   0  -3   7   15.28    1.81
   0  -3   7   18.59    2.72
   0  -3   6    1.66    1.04
   0  -3   6    1.59    0.65
   0  -3   5   24.46    2.72
   0  -3   5   19.00    2.00
   0  -3   4   64.03    4.20
   0  -3   3   14.77    1.89
   0   3  -2  307.29    7.65
   0  -3   2  262.01    8.35
   0   3  -1  165.65    4.56
   0  -3   1  117.38    4.33
   0   3   0  111.09    5.87
   0  -3   0  101.83    3.79
   0   3   0  115.65    3.54
   0   3   1  370.05   12.47
   0  -3  -1  373.54    9.09
   0  -3  -2    4.80    0.56
   0   3   2    4.57    0.41
   0   3   2    4.95    0.80
   0   3   2    4.02    0.44
   0   3   2    2.96    1.02
   0  -3  -3   20.85    2.15
   0  -3  -3   21.12    1.77
   0   3   3   20.27    2.48
   0   3   3   20.85    1.64
   0   3   4   21.72    2.52
   0  -3  -4   25.63    2.39
   0  -3  -4   23.06    1.89
   0   3   4   25.20    1.39
   0   3   4   23.68    1.74
   0   3   5    8.44    0.63
   0  -3  -5    9.25    1.22
   0   3   5    8.07    1.58
   0   3   5    8.14    1.04
   0   3   6   46.21    1.89
   0   3   6   51.78    4.10
   0   3   6   47.44    2.89
   0   3   6   45.26    3.31
   0   3   7  213.53    9.28
   0   3   7  202.23    7.29
   0   3   7  209.47    8.12
   0   3   7  214.70    5.74
   0   3   8    2.94    1.05
   0   3   8    2.48    0.55
   0   3   8    2.61    0.83
   0   3   8    2.85    0.94
   0   3   9    1.45    0.83
   0   3   9    0.91    0.34
   0   3  10  178.48    6.35
   0   3  10  168.21    8.06
   0   3  11   69.40    3.92
   0   3  11   56.87    4.69
   0   3  12  373.36   11.58
   0   3  12  328.52   12.99
   0   3  13  381.60   12.38
   0   3  13  346.04   13.60
   0   3  14   21.68    3.13
   0   3  14   24.08    2.67
   0   3  15   38.17    4.25
   0   3  15   34.07    3.11
   0   3  16   19.85    3.15
   0   3  17    3.63    1.26
   0   3  18   15.34    2.89
   0   3  19    9.58    2.30
   0  -4  16    0.23    0.59
   0  -4  15    9.14    2.36
   0  -4  14    1.87    1.11
   0  -4  13    0.39    0.54
   0  -4  12    2.23    1.34
   0  -4  11    1.62    1.12
   0  -4  10   22.21    3.29
   0  -4   9   34.06    3.82
   0  -4   9   34.76    2.86
   0  -4   8    0.28    0.77
   0  -4   8    0.22    0.28
   0  -4   7   21.74    2.91
   0  -4   7   26.53    2.69
   0  -4   6  185.22    8.64
   0  -4   6  191.27    8.07
   0  -4   5   25.99    2.82
   0  -4   4  147.78    6.67
   0   4  -3   35.31    1.38
   0  -4   3   27.46    2.44
   0  -4   2  810.36   19.96
   0  -4   2  985.90   20.99
   0   4  -1   71.49    2.96
   0   4  -1   68.93    5.17
   0  -4   1   68.90    3.48
   0   4   0    1.80    0.42
   0  -4   0    2.63    0.69
   0   4   0    2.94    1.38
   0  -4  -1    3.06    0.64
   0   4   1    1.31    0.85
   0   4   1    3.18    0.53
   0   4   2    0.60    0.22
   0   4   2    0.43    0.72
   0  -4  -2    0.46    0.26
   0   4   2    0.49    0.29
   0   4   3  188.28    6.58
   0   4   3  183.89    9.20
   0   4   4   12.38    2.22
   0   4   4   13.50    1.41
   0   4   4   11.70    0.60
   0  -4  -5  284.32    8.66
   0   4   5  264.09    7.97
   0   4   5  280.76    9.40
   0   4   5  266.47    6.38
   0   4   5  279.09   11.43
   0   4   6   19.40    2.74
   0   4   6   20.87    0.91
   0   4   6   18.97    2.23
   0   4   6   19.32    1.42
   0   4   6   19.11    1.81
   0   4   7   38.40    1.54
   0   4   7   35.65    2.63
   0   4   7   34.75    3.18
   0   4   7   35.48    3.81
   0   4   8    0.18    0.34
   0   4   8    0.12    0.39
   0   4   8    0.77    0.26
   0   4   9   21.77    2.35
   0   4   9   18.92    2.84
   0   4   9   19.07    2.58
   0   4   9   23.14    1.58
   0   4  10    3.33    0.66
   0   4  10    2.14    0.91
   0   4  11  108.34    4.75
   0   4  11   90.27    6.21
   0   4  12  222.83    7.63
   0   4  12  211.84   10.25
   0   4  13   -0.58    0.87
   0   4  14   12.73    2.39
   0   4  15    0.36    0.60
   0   4  16    8.01    2.01
   0   4  17   14.69    2.76
   0   4  18   -0.72    0.89
   0   4  19    1.43    0.92
   0  -5  15   14.55    3.25
   0  -5  14   24.81    4.12
   0  -5  13   -0.88    0.98
   0  -5  13    0.67    0.50
   0  -5  12    2.67    1.35
   0  -5  11    0.41    0.63
   0  -5  10   12.48    2.37
   0  -5   9   51.89    4.67
   0  -5   9   75.48    4.72
   0  -5   8    2.15    0.77
   0  -5   8    3.85    1.07
   0  -5   7   40.14    3.66
   0  -5   7   32.54    3.30
   0  -5   6    1.54    0.88
   0  -5   5    3.80    1.04
   0  -5   4    1.62    0.80
   0   5  -4    0.46    0.15
   0  -5   4    0.66    0.58
   0  -5   3    6.08    1.26
   0   5  -3    6.69    0.67
   0   5  -2    0.59    0.29
   0   5  -2    0.06    0.54
   0  -5   2    0.38    0.45
   0   5  -1   73.18    3.15
   0   5  -1   70.31    5.85
   0  -5   1   67.70    3.91
   0  -5   0  182.97    6.68
   0   5   0  177.76    9.72
   0   5   0  194.59    6.15
   0   5   0  184.34    5.55
   0   5   1   36.32    1.91
   0  -5  -1   35.30    2.42
   0   5   1   38.93    4.30
   0   5   1   36.35    2.49
   0   5   2    3.25    0.50
   0   5   2    3.59    0.88
   0   5   2    2.30    1.19
   0   5   2    2.86    0.73
   0  -5  -2    3.42    0.64
   0  -5  -3    6.10    0.75
   0   5   3    6.82    1.82
   0   5   3    5.53    1.08
   0   5   3    5.27    0.96
   0   5   3    5.48    0.57
   0   5   4  269.38   12.32
   0   5   4  261.82    9.12
   0   5   4  263.42    5.74
   0   5   4  246.34    7.97
   0   5   5    2.04    1.12
   0   5   5    4.27    1.06
   0   5   5    3.25    0.74
   0   5   6    4.43    1.37
   0   5   6    4.02    0.80
   0   5   6    3.89    1.12
   0   5   7  129.11    5.47
   0   5   7  131.60    8.52
   0   5   7  135.30    3.86
   0   5   7  140.26    7.02
   0   5   8   56.32    3.60
   0   5   8   61.90    5.67
   0   5   8   54.66    2.54
   0   5   8   56.79    4.56
   0   5   9    4.05    0.96
   0   5   9    2.54    1.15
   0   5   9    3.05    0.38
   0   5   9    2.53    0.93
   0   5  10   10.18    1.71
   0   5  10    9.31    2.26
   0   5  10   13.70    2.42
   0   5  11   81.90    6.08
   0   5  12   -0.54    0.65
   0   5  13   12.85    2.46
   0   5  14   -0.57    0.48
   0   5  15   -0.24    0.81
   0   5  16   16.66    3.09
   0   5  17    1.57    0.90
   0   5  18    7.11    2.06
   0  -6  14   -0.10    0.85
   0  -6  13    7.46    2.20
   0  -6  12   17.32    3.30
   0  -6  11    0.68    0.91
   0  -6  10   -0.28    1.00
   0  -6   9    9.72    2.28
   0  -6   8    1.78    0.79
   0  -6   8    3.40    1.42
   0  -6   7   25.09    3.42
   0  -6   7   32.92    3.63
   0  -6   6   81.07    5.87
   0  -6   5    6.40    1.57
   0   6  -4   -0.30    0.45
   0   6  -4    0.16    0.08
   0  -6   3  164.67    7.77
   0   6  -3  157.66    9.78
   0   6  -3  169.68    4.89
   0  -6   2    2.00    0.73
   0   6  -2    3.12    0.60
   0   6  -1   14.80    1.44
   0   6  -1   16.77    3.07
   0  -6   1   15.49    2.00
   0  -6   0    5.47    1.10
   0   6   0    7.92    2.33
   0   6   0    5.23    0.93
   0   6   1  111.62    8.20
   0   6   1  106.70    4.84
   0  -6  -1   97.43    4.71
   0   6   2   10.37    1.54
   0   6   2   10.63    0.95
   0   6   2   11.88    2.54
   0   6   2   12.47    1.67
   0  -6  -2   11.24    1.35
   0   6   3   39.47    4.81
   0   6   3   43.02    3.28
   0  -6  -3   42.40    2.29
   0   6   3   39.76    2.91
   0   6   3   40.80    1.84
   0   6   4   40.07    3.30
   0   6   4   35.42    1.45
   0   6   4   33.03    4.43
   0   6   4   33.30    2.55
   0   6   5   22.50    2.58
   0   6   5   16.75    3.10
   0   6   5   19.13    1.81
   0   6   6   50.11    5.46
   0   6   6   48.92    2.98
   0   6   6   51.11    4.15
   0   6   7    7.69    1.65
   0   6   7    6.14    1.05
   0   6   7    7.35    2.08
   0   6   8   22.83    3.74
   0   6   8   22.62    2.94
   0   6   8   17.64    1.88
   0   6   9   62.06    3.88
   0   6   9   66.56    5.30
   0   6   9   72.10    6.60
   0   6  10    4.65    1.47
   0   6  10    5.41    1.15
   0   6  10    5.53    1.92
   0   6  11   19.69    3.03
   0   6  11   17.39    3.14
   0   6  12   18.24    3.02
   0   6  13    7.60    1.96
   0   6  14    1.19    0.60
   0   6  15    2.86    1.30
   0   6  16    3.64    1.61
   0  -7  13   10.09    2.63
   0  -7  12    0.66    0.87
   0  -7  11    3.50    1.67
   0   7 -11   -0.05    0.31
   0  -7  10   14.76    2.99
   0   7 -10   12.94    2.75
   0   7  -9    0.44    0.68
   0  -7   9    0.04    0.62
   0  -7   8    2.55    1.35
   0   7  -8    1.42    0.74
   0   7  -7    0.05    0.49
   0  -7   7    0.35    0.51
   0  -7   6   39.55    4.31
   0   7  -6   41.27    5.23
   0   7  -5    0.83    0.91
   0  -7   5    0.39    0.49
   0  -7   4    5.43    1.44
   0   7  -4   10.63    2.57
   0   7  -3    0.69    0.33
   0   7  -3    0.58    0.92
   0  -7   3   -0.05    0.34
   0   7  -2  135.74    9.73
   0  -7   2  128.28    6.87
   0   7  -2  141.05    4.94
   0   7  -1  147.84   10.24
   0  -7   1  133.60    6.74
   0   7  -1  142.10    5.39
   0  -7   0    3.53    0.99
   0   7   0    2.68    0.73
   0   7   0    3.15    1.46
   0   7   1   -0.46    0.76
   0  -7  -1    0.26    0.40
   0   7   1    0.28    0.41
   0   7   2   -0.16    0.40
   0   7   2    0.57    0.48
   0   7   2   -0.32    0.56
   0  -7  -2    0.12    0.22
   0   7   3   92.63    7.96
   0  -7  -3   91.53    3.75
   0   7   3   89.15    5.13
   0   7   3   92.19    4.68
   0   7   4    0.31    0.70
   0   7   4    0.57    0.32
   0   7   4   -0.48    0.37
   0   7   5   77.40    3.89
   0   7   5   70.78    6.98
   0   7   5   74.72    5.07
   0   7   6    2.53    0.93
   0   7   6    6.12    0.99
   0   7   6    6.37    1.55
   0   7   7   83.17    5.82
   0   7   7   82.74    7.65
   0   7   7   87.28    4.16
   0   7   8  121.51    7.34
   0   7   8  118.10    9.18
   0   7   8  121.58    5.18
   0   7   9    1.58    1.00
   0   7   9    1.28    0.74
   0   7  10   30.57    3.83
   0   7  10   34.59    4.83
   0   7  10   36.15    2.87
   0   7  11   11.19    2.40
   0   7  11    8.14    2.42
   0   7  12    0.08    0.43
   0   7  12    0.17    0.53
   0   7  13    8.28    2.15
   0   7  14    1.71    0.83
   0   7  15   -0.36    0.82
   0  -8  12    6.01    2.13
   0  -8  11   -0.06    0.94
   0   8 -11    0.46    0.39
   0   8 -10    5.53    1.96
   0  -8  10    0.73    0.44
   0  -8   9    1.18    1.01
   0   8  -9   -0.40    0.57
   0   8  -8    0.40    0.45
   0  -8   8    1.29    1.01
   0   8  -7    2.18    1.36
   0  -8   7    1.46    0.96
   0  -8   6   29.70    3.85
   0   8  -6   32.61    4.81
   0   8  -5   33.47    4.91
   0  -8   5   34.83    4.06
   0  -8   4   19.49    2.91
   0   8  -4   17.13    3.58
   0   8  -3   28.91    4.69
   0  -8   3   26.88    3.26
   0  -8   2   41.73    3.88
   0   8  -2   43.34    5.67
   0   8  -1    5.81    1.01
   0   8  -1    6.09    2.06
   0  -8   1    4.80    1.29
   0   8   0   50.36    6.17
   0  -8   0   44.87    3.63
   0   8   0   51.47    3.34
   0   8   1    2.82    1.68
   0   8   1    2.13    0.76
   0   8   2   22.23    4.09
   0   8   2   22.83    2.48
   0   8   3   24.42    2.70
   0   8   3   27.45    4.46
   0   8   4    5.75    1.33
   0   8   4    2.59    1.37
   0   8   5    0.58    0.73
   0   8   5    0.37    0.44
   0   8   6   23.42    3.03
   0   8   6   24.30    4.24
   0   8   7    1.00    0.78
   0   8   7    1.19    0.82
   0   8   8    2.45    1.55
   0   8   8    3.15    1.24
   0   8   9    1.89    1.30
   0   8   9    0.89    0.98
   0   8  10   -0.28    0.64
   0   8  10   -0.61    0.85
   0   8  11   -2.30    1.34
   0   8  11   -0.48    0.86
   0   8  12   -0.22    0.50
   0   8  12    0.48    0.79
   0   8  13    3.17    1.34
   0   8  13    3.94    1.56
   0   8  14    2.80    1.36
   0  -9  10    1.35    0.67
   0   9 -10    2.53    1.29
   0   9  -9    1.95    1.19
   0  -9   9    2.73    1.35
   0  -9   8    1.58    0.74
   0   9  -8    0.78    0.92
   0   9  -7    4.49    1.87
   0  -9   7    3.30    1.71
   0   9  -6   23.81    4.25
   0  -9   6   24.69    3.64
   0  -9   5   14.00    2.63
   0   9  -5   14.45    3.26
   0  -9   4    6.99    1.79
   0   9  -4    2.88    1.35
   0   9  -3    3.24    1.68
   0   9  -2   -1.15    1.33
   0   9  -1    0.65    0.62
   0   9   0    1.11    0.60
   0   9   1    0.86    0.46
   0   9   1   -0.56    0.65
   0   9   2    0.94    0.99
   0   9   2   -0.25    0.46
   0   9   3    0.05    0.66
   0   9   3    0.04    0.28
   0   9   4    2.84    1.51
   0   9   4    4.91    1.32
   0   9   5    3.05    1.16
   0   9   5    3.31    1.71
   0   9   6    8.20    2.62
   0   9   6    7.52    1.74
   0   9   7   -0.89    1.17
   0   9   7   -0.61    0.47
   0   9   8    2.21    1.05
   0   9   8    0.10    0.36
   0   9   9    7.81    1.96
   0   9   9   12.08    3.06
   0   9  10   12.36    2.49
   0   9  10   12.91    3.22
   0   9  11    2.62    1.12
   0   9  11    7.37    2.41
   0   9  12   -0.88    0.87
   0   9  12   -0.23    0.37
   0  10  -8    1.98    1.12
   0  10  -7    1.37    1.00
   0  10  -6    0.12    0.87
   0  10  -5    3.81    1.68
   0  10  -4    0.00    0.76
   0  10  -3   13.58    3.38
   0  10  -2   -0.18    0.64
   0  10  -1    0.58    1.28
   0  10   0    2.00    1.38
   0  10   1    0.14    0.50
   0  10   2    9.57    2.76
   0  10   3    1.24    0.80
   0  10   3    1.29    0.93
   0  10   4   26.56    3.06
   0  10   4   24.10    4.60
   0  10   5    7.65    2.55
   0  10   5    5.44    1.47
   0  10   6    6.74    2.43
   0  10   6    8.00    1.81
   0  10   7   18.01    2.83
   0  10   7   19.32    4.10
   0  10   8   -0.16    0.51
   0  10   8    1.16    1.07
   0  10   9    4.60    1.55
   0  10   9    0.12    0.87
   0  10  10    6.95    1.97
   0  10  10    3.68    1.75
   0  10  11    4.82    2.12
   0  10  12   25.55    4.54
   0  11   2    1.12    1.26
   0  11   3    2.35    1.69
   0  11   4    7.88    2.82
   0  11   6    8.93    1.93
   0  11   7   -0.23    0.41
   0  11   8   10.75    2.26
  -1  11   7    4.44    1.44
  -1  11   6    2.94    1.11
  -1  10  10    9.31    2.63
  -1  10   9   10.63    2.88
  -1  10   9   20.72    3.14
  -1  10   8    8.31    2.61
  -1  10   8    4.68    1.46
  -1  10   7   -2.79    1.52
  -1  10   7   -1.62    0.88
  -1  10   6    2.48    1.32
  -1  10   6    6.04    1.56
  -1  10   5    0.18    0.50
  -1  10   5   -0.91    0.67
  -1  10   4   -0.04    0.39
  -1  10   4    0.91    0.57
  -1  10   3    3.92    1.16
  -1  10   3    1.14    0.99
  -1  10   2    3.63    1.79
  -1  10   1    4.30    2.05
  -1  10   0   -0.79    0.87
  -1  10  -1   -0.50    1.08
  -1  10  -2    0.89    0.69
  -1  10  -3   -1.62    1.22
  -1  10  -4    1.12    1.32
  -1  10  -5    2.03    1.37
  -1   9  11    0.57    0.71
  -1   9  11   -2.57    1.36
  -1   9  10    2.95    1.24
  -1   9  10    2.66    1.31
  -1   9   9    0.41    0.76
  -1   9   9    0.59    0.79
  -1   9   8    1.82    0.96
  -1   9   8   -1.40    1.08
  -1   9   7   -0.65    0.43
  -1   9   7    0.59    0.75
  -1   9   6    3.20    1.28
  -1   9   6    0.59    1.02
  -1   9   5    1.27    0.78
  -1   9   5   -1.09    0.99
  -1   9   4    2.40    0.87
  -1   9   4    5.34    2.13
  -1   9   3    2.86    1.38
  -1   9   3    3.50    1.08
  -1   9   2    1.73    1.21
  -1   9   2   -0.18    0.32
  -1   9   1    7.82    2.52
  -1   9   1    8.30    1.48
  -1   9   0    7.78    2.58
  -1   9  -1    2.61    1.30
  -1   9  -2   10.36    2.91
  -1   9  -3    1.02    0.98
  -1   9  -4    2.71    1.50
  -1   9  -5    0.05    0.42
   1  -9   5    0.91    0.74
  -1   9  -6    5.77    2.15
   1  -9   6    9.44    2.43
  -1   9  -7    4.10    1.84
   1  -9   7    3.96    1.64
  -1   9  -8   -2.23    1.29
   1  -9   8   -0.03    0.51
   1  -9   9    6.98    2.15
  -1   9  -9    7.22    2.29
  -1   9 -10    1.53    1.28
   1  -9  10    0.64    0.66
  -1   8  12    6.44    1.87
  -1   8  11    0.26    0.72
  -1   8  11    1.10    0.81
  -1   8  10    1.39    0.87
  -1   8  10   -0.15    0.79
  -1   8   9    1.64    1.33
  -1   8   9   -0.14    0.50
  -1   8   8    0.26    0.31
  -1   8   8   -0.35    0.52
  -1   8   7    0.02    0.49
  -1   8   7   -0.03    0.65
  -1   8   6    0.55    0.54
  -1   8   6    2.63    1.00
  -1   8   5    1.78    0.92
  -1   8   5    0.91    0.65
  -1   8   4    4.63    1.93
  -1   8   4    4.95    1.22
  -1   8   4    6.12    1.42
  -1   8   3    7.98    1.66
  -1   8   3    7.48    2.38
  -1   8   2    7.95    1.73
  -1   8   2    8.03    2.43
  -1   8   1   -0.26    0.52
  -1   8   1   -0.97    0.65
  -1   8   0    6.82    2.25
  -1   8  -1   34.16    5.04
   1  -8   1   32.07    3.63
   1  -8   2    4.69    1.37
  -1   8  -2    5.32    2.07
   1  -8   3    0.36    0.46
  -1   8  -3    0.43    0.75
  -1   8  -4   17.29    3.55
   1  -8   4   15.85    2.83
   1  -8   5   25.96    3.74
  -1   8  -5   22.63    4.02
  -1   8  -6    1.54    1.07
   1  -8   6   -0.08    0.94
   1  -8   7   -1.00    1.25
  -1   8  -7    0.01    0.56
   1  -8   8    9.78    2.75
   1  -8   9    0.27    0.43
   1  -8  10    1.26    0.97
   1  -8  11    1.52    1.22
  -1   8 -11    1.55    1.03
  -1   8 -12   -0.78    0.73
  -1   7  14   -0.23    0.60
  -1   7  13    3.39    1.42
  -1   7  12    1.91    1.05
  -1   7  12    1.28    0.72
  -1   7  11    7.25    1.89
  -1   7  11    7.44    2.15
  -1   7  11    9.09    1.66
  -1   7  10    0.57    0.59
  -1   7  10   -0.44    0.39
  -1   7   9    1.01    0.84
  -1   7   9   -0.05    0.28
  -1   7   9   -0.02    0.65
  -1   7   8    1.60    1.16
  -1   7   8    3.17    0.96
  -1   7   7    0.20    0.56
  -1   7   7    0.14    0.28
  -1   7   6  107.99    8.68
  -1   7   6   97.05    5.59
  -1   7   5   39.47    5.07
  -1   7   5   38.69    3.52
  -1   7   4   49.01    4.10
  -1   7   4   47.92    5.68
  -1   7   3   45.52    4.08
   1  -7  -3   54.48    3.84
  -1   7   3   53.08    5.99
  -1   7   2  644.49   24.10
  -1   7   2  648.84   19.75
   1  -7  -2  678.90   18.33
  -1   7   1   28.83    4.39
  -1   7   1   24.31    3.04
   1  -7  -1   25.30    2.86
   1  -7   0   40.45    3.79
  -1   7   0   40.06    5.13
  -1   7  -1   13.15    2.87
   1  -7   1   11.13    2.08
  -1   7  -2   51.07    5.89
   1  -7   2   52.88    4.80
   1  -7   3  177.53    9.53
   1  -7   4   16.22    2.84
   1  -7   5   35.43    4.36
   1  -7   6    0.67    0.95
   1  -7   7   -0.21    0.56
   1  -7   8    7.14    2.20
   1  -7   9    0.03    0.56
   1  -7  10   -0.41    0.60
   1  -7  11   -0.40    1.09
   1  -7  12    8.80    2.91
   1  -7  13   -0.07    0.76
  -1   6  15    0.86    0.48
  -1   6  14    3.12    1.46
  -1   6  13    1.01    0.52
  -1   6  13    1.33    0.99
  -1   6  12    2.88    1.27
  -1   6  12    7.32    1.61
  -1   6  11   21.71    2.65
  -1   6  11   19.77    3.29
  -1   6  11   24.51    3.37
  -1   6  10   30.81    4.08
  -1   6  10   28.67    2.98
  -1   6  10   31.05    3.76
  -1   6   9    1.24    1.05
  -1   6   9    1.99    0.93
  -1   6   9    1.19    0.70
  -1   6   8    7.93    2.15
  -1   6   8   10.33    1.72
  -1   6   7   16.71    2.21
  -1   6   7   10.90    2.45
  -1   6   6   10.80    2.57
  -1   6   6   17.02    2.25
  -1   6   5    3.32    1.53
  -1   6   5    5.68    1.40
  -1   6   4   22.60    3.57
  -1   6   4   17.16    2.37
  -1   6   3  115.32    8.42
  -1   6   3  110.35    6.45
  -1   6   3  102.16    3.66
   1  -6  -3  127.36    5.94
   1  -6  -2    6.34    1.27
  -1   6   2    8.16    2.32
  -1   6   2    6.55    1.53
  -1   6   1    1.27    1.07
   1  -6  -1    1.08    0.65
  -1   6   0  167.78   10.21
   1  -6   0  168.03    8.03
   1  -6   1   50.39    4.33
   1  -6   2   13.99    2.38
   1  -6   3    2.11    1.06
   1  -6   4   11.58    2.28
   1  -6   5   17.89    3.00
   1  -6   6   31.72    4.06
   1  -6   7    0.36    0.83
   1  -6   8   39.92    4.88
   1  -6   9    1.53    1.01
   1  -6  10    4.53    1.78
   1  -6  11    5.46    1.83
   1  -6  12    7.77    2.44
   1  -6  13   -0.11    1.06
   1  -6  14    2.39    1.36
  -1   5  17    5.15    1.75
  -1   5  16    0.57    0.77
  -1   5  15   10.34    2.33
  -1   5  14   -0.09    0.47
  -1   5  13    1.17    0.91
  -1   5  13   -0.35    0.52
  -1   5  12    9.09    2.11
  -1   5  12   10.11    1.95
  -1   5  11    7.05    1.84
  -1   5  11    9.38    2.06
  -1   5  11    7.95    1.65
  -1   5  10    0.76    0.79
  -1   5  10    1.04    0.90
  -1   5  10    0.39    0.47
  -1   5   9   53.33    2.61
  -1   5   9   54.26    5.13
  -1   5   9   51.24    3.99
  -1   5   8   56.44    4.12
  -1   5   8   61.06    5.49
  -1   5   7    6.41    1.83
  -1   5   7    7.00    1.41
  -1   5   6   14.24    2.03
  -1   5   6   12.31    1.31
  -1   5   6   11.70    2.44
  -1   5   5    8.98    1.67
  -1   5   5   11.85    2.43
  -1   5   5    7.97    1.03
  -1   5   4    6.27    1.75
  -1   5   4    5.23    1.26
  -1   5   4    5.75    0.86
  -1   5   3   74.79    5.12
  -1   5   3   78.81    6.34
  -1   5   3   82.60    3.46
   1  -5  -3   88.98    4.79
  -1   5   2    4.64    1.29
  -1   5   2    4.88    0.76
   1  -5  -2    3.59    0.97
  -1   5   2    5.09    1.72
  -1   5   1    4.79    0.74
   1  -5  -1    3.83    1.01
   1  -5   0    2.02    0.77
   1  -5   1   54.17    4.17
   1  -5   2   -0.15    0.65
   1  -5   3    4.52    1.30
   1  -5   4   19.69    2.82
   1  -5   5    0.67    0.73
   1  -5   6   18.44    2.84
   1  -5   7   77.48    6.29
   1  -5   8   53.68    3.54
   1  -5   8   50.98    5.28
   1  -5   9  189.80   10.84
   1  -5  10    0.03    0.59
   1  -5  11   -0.35    1.04
   1  -5  12    0.16    0.68
   1  -5  13    1.25    1.21
   1  -5  14    0.29    0.58
   1  -5  15    2.54    1.57
  -1   4  18   21.96    3.42
  -1   4  17   12.16    2.58
  -1   4  16    1.63    0.69
  -1   4  15    2.03    1.04
  -1   4  14    0.11    0.45
  -1   4  13   14.96    2.66
  -1   4  12   42.16    2.82
  -1   4  12   42.43    4.25
  -1   4  12   37.26    3.79
  -1   4  11    3.31    1.25
  -1   4  11    3.06    0.71
  -1   4  11    1.64    0.85
  -1   4  10  111.17    4.53
  -1   4  10  101.74    6.04
  -1   4  10  110.98    6.76
  -1   4   9    7.15    1.43
  -1   4   9    7.00    0.98
  -1   4   9    6.23    1.52
  -1   4   8   69.44    5.30
  -1   4   8   59.60    4.27
  -1   4   7   27.08    3.25
  -1   4   7   24.71    2.18
  -1   4   7   28.17    2.77
  -1   4   6   60.05    4.14
  -1   4   6   62.18    3.39
  -1   4   6   62.87    5.05
  -1   4   5    0.70    0.43
  -1   4   5    0.66    0.29
  -1   4   5    0.44    0.17
  -1   4   4  234.14    7.22
  -1   4   4  239.40    9.43
  -1   4   4  237.96   10.53
  -1   4   3    0.35    0.22
  -1   4   3   -0.05    0.28
  -1   4   3    0.20    0.41
   1  -4  -2    1.22    0.54
  -1   4   2    1.82    0.83
  -1   4   2    1.42    0.39
   1  -4  -1  526.10   15.07
  -1   4   1  558.47   13.08
   1  -4   0   79.77    4.78
  -1   4   0   86.41    3.64
   1  -4   1    8.45    1.55
   1  -4   2    2.60    0.76
   1  -4   3   34.59    3.32
   1  -4   4   66.05    4.88
   1  -4   5   10.31    2.00
  -1   4  -6   26.79    1.55
   1  -4   6   27.84    3.40
  -1   4  -7   82.68    2.64
   1  -4   7   82.57    6.18
   1  -4   8  213.18    6.63
   1  -4   8  206.15   10.58
   1  -4   9   21.65    3.41
   1  -4  10  460.55   17.99
   1  -4  11   22.32    3.72
   1  -4  12    6.75    2.24
   1  -4  13   26.21    4.22
   1  -4  14    2.14    1.25
   1  -4  15    5.87    2.08
   1  -4  16   16.47    3.53
  -1   3  19   -1.16    0.82
  -1   3  18    5.82    1.77
  -1   3  17    5.08    1.64
  -1   3  16   10.78    2.25
  -1   3  15    1.71    1.10
  -1   3  14   -0.13    0.67
  -1   3  14    0.11    0.32
  -1   3  13    3.94    1.32
  -1   3  13    3.70    0.96
  -1   3  12    2.38    0.93
  -1   3  12    3.06    1.21
  -1   3  12    3.51    0.91
  -1   3  11   83.66    5.67
  -1   3  11   84.26    5.69
  -1   3  11   82.87    4.33
  -1   3  10   43.15    3.87
  -1   3  10   41.93    2.86
  -1   3   9    1.03    0.46
  -1   3   9    0.50    0.47
  -1   3   9    0.75    0.58
  -1   3   8    2.51    0.79
  -1   3   8    2.73    0.91
  -1   3   7  325.46   11.00
  -1   3   7  346.16   11.81
  -1   3   6   71.71    4.48
  -1   3   6   77.87    4.88
  -1   3   5  124.23    5.24
  -1   3   5  116.66    5.86
  -1   3   5  123.09    6.35
  -1   3   4 1920.72   43.28
  -1   3   4 1953.63   42.44
  -1   3   4 1994.31   40.27
  -1   3   3   69.31    3.43
  -1   3   3   62.65    4.27
  -1   3   3   66.38    4.56
  -1   3   2   16.13    1.54
  -1   3   2   16.50    2.20
   1  -3  -2   19.86    2.04
   1  -3  -1   98.43    4.93
  -1   3   1  103.20    4.18
  -1   3   0  297.46    8.18
   1  -3   0  269.48    9.32
   1  -3   1   44.81    3.33
  -1   3  -1   46.41    2.60
   1  -3   2    4.31    1.06
  -1   3  -2    6.51    0.91
   1  -3   3   32.90    3.07
   1  -3   4   44.67    3.68
   1  -3   5  327.82   11.98
  -1   3  -5  343.76    8.47
   1  -3   6   44.37    4.04
  -1   3  -6   50.31    2.20
  -1   3  -7   28.37    1.46
   1  -3   7   29.54    1.72
   1  -3   7   26.76    3.23
  -1   3  -8    1.15    0.29
   1  -3   8    3.15    1.34
   1  -3   9    6.21    1.78
  -1   3  -9    5.47    0.57
   1  -3  10  169.54    9.71
   1  -3  11    2.21    1.28
   1  -3  12    0.48    0.48
   1  -3  13    9.25    2.59
   1  -3  14    4.76    1.88
   1  -3  15    4.45    1.81
   1  -3  16    2.30    1.57
   1  -3  17    3.70    1.79
  -1   2  18   21.38    3.14
  -1   2  17   26.50    3.40
  -1   2  16    0.44    0.54
  -1   2  16    1.62    0.75
  -1   2  15   -0.32    0.71
  -1   2  15    0.89    0.68
  -1   2  14   22.40    3.01
  -1   2  14   20.95    2.61
  -1   2  13   62.94    4.37
  -1   2  13   71.61    5.26
  -1   2  12   45.47    3.51
  -1   2  12   47.28    4.08
  -1   2  11  155.55    7.50
  -1   2  11  146.38    7.76
  -1   2  11  150.84    6.62
  -1   2  10   12.19    1.64
  -1   2  10   14.77    2.24
  -1   2   9  116.70    5.29
  -1   2   9  111.54    6.16
  -1   2   8   21.03    2.38
  -1   2   7    7.88    1.32
  -1   2   7    7.92    1.45
  -1   2   6   12.54    1.75
  -1   2   6   11.49    1.55
  -1   2   5    8.42    1.33
  -1   2   5    6.85    1.35
  -1   2   4   11.51    1.60
  -1   2   4   10.46    1.49
  -1   2   3  307.92    9.68
  -1   2   3  308.19    9.06
   1  -2  -3  328.49   10.00
  -1   2   3  316.91   10.17
  -1   2   2  231.88    8.36
  -1   2   2  225.08    7.03
   1  -2  -1    1.90    0.59
  -1   2   1    3.18    0.65
  -1   2   1    3.19    1.03
  -1   2   0   41.94    2.42
   1  -2   0   35.64    2.64
   1  -2   1  161.94    6.33
  -1   2  -1  167.19    5.52
   1  -2   2 1292.33   28.63
  -1   2  -2 1274.44   26.75
  -1   2  -3   36.95    2.12
   1  -2   3   46.14    3.31
   1  -2   4  170.87    7.20
  -1   2  -4  162.40    5.03
   1  -2   5  669.74   18.14
  -1   2  -5  653.40   14.39
  -1   2  -6   41.99    2.01
   1  -2   6   44.81    3.76
   1  -2   7   12.94    2.09
  -1   2  -7   13.29    1.01
   1  -2   8   15.97    2.45
  -1   2  -8   16.66    1.15
   1  -2   8   19.05    1.84
   1  -2   9   38.85    2.87
  -1   2  -9   36.42    1.77
   1  -2   9   34.41    3.77
   1  -2  10   15.92    2.73
   1  -2  10   15.80    1.88
   1  -2  11   53.98    5.17
   1  -2  11   58.38    3.89
   1  -2  12   27.05    2.69
   1  -2  12   28.32    3.88
   1  -2  13   36.39    4.69
   1  -2  14    1.48    0.99
   1  -2  15   -0.08    0.87
   1  -2  16    0.76    0.92
   1  -2  17    1.07    1.29
   1  -2  18    0.86    1.31
  -1   1  18   18.93    3.07
  -1   1  17   -0.91    0.66
  -1   1  17    0.09    0.68
  -1   1  16    7.48    1.78
  -1   1  16    4.61    1.42
  -1   1  15    2.53    0.92
  -1   1  15    1.85    0.83
  -1   1  14    3.06    1.05
  -1   1  14    3.29    1.14
  -1   1  13    2.24    0.85
  -1   1  13    2.26    0.85
  -1   1  12   93.09    5.53
  -1   1  12  101.22    5.79
  -1   1  11   39.97    3.39
  -1   1  11   46.65    3.70
  -1   1  10    1.22    0.79
  -1   1  10   -0.08    0.26
  -1   1   9    5.75    1.10
  -1   1   9    7.47    1.56
  -1   1   8   56.94    3.59
  -1   1   8   58.56    4.13
  -1   1   7   86.32    4.84
  -1   1   6  150.32    6.32
  -1   1   5 1413.13   30.53
  -1   1   5 1385.25   28.32
  -1   1   4    0.28    0.20
   1  -1  -4    0.97    0.36
  -1   1   4    0.30    0.27
   1  -1  -3   81.82    3.88
  -1   1   3   72.02    3.89
   1  -1  -2   93.08    4.15
  -1   1   2   82.01    4.20
  -1   1   1   11.66    1.27
   1  -1  -1   13.94    1.54
  -1   1   1   11.39    1.52
   1  -1   0  147.45    5.46
  -1   1   0  142.09    4.98
   1  -1   1  195.94    6.69
  -1   1  -1  206.61    6.26
   1  -1   2  108.30    4.74
  -1   1  -2  108.81    4.12
  -1   1  -3   22.86    1.67
   1  -1   3   23.52    2.10
  -1   1  -3   21.21    1.50
   1  -1   4   10.44    1.45
  -1   1  -4   12.50    1.09
  -1   1  -4    9.96    1.05
   1  -1   5   -0.35    0.37
   1  -1   5    0.48    0.34
  -1   1  -5    0.21    0.14
   1  -1   6   23.11    1.99
   1  -1   6   18.22    2.27
  -1   1  -6   17.58    1.29
   1  -1   7  471.84   12.85
   1  -1   7  467.88   14.52
  -1   1  -7  476.26   10.70
   1  -1   8   10.70    1.50
  -1   1  -8    8.94    0.88
   1  -1   8    8.83    1.68
   1  -1   9   65.42    4.12
   1  -1   9   70.14    5.12
   1  -1  10   21.12    2.89
   1  -1  10   23.05    2.46
   1  -1  11   18.67    2.31
   1  -1  11   18.35    2.86
   1  -1  12   45.73    4.74
   1  -1  12   42.61    3.76
   1  -1  13    1.24    0.62
   1  -1  13    0.96    0.69
   1  -1  14    7.37    2.04
   1  -1  14    8.35    1.75
   1  -1  15    1.31    1.12
   1  -1  16    0.62    1.07
   1  -1  17   -0.15    0.56
   1  -1  18    6.88    2.28
   1  -1  19   -1.04    1.00
  -1   0  19   -0.51    0.63
  -1   0  18    0.01    0.36
  -1   0  17    8.72    2.26
  -1   0  16    2.66    1.34
  -1   0  15    4.11    1.30
  -1   0  15    3.25    1.04
  -1   0  14    9.50    2.02
  -1   0  14    6.79    1.45
  -1   0  13    5.35    1.41
  -1   0  13    6.94    1.43
  -1   0  12    6.60    1.50
  -1   0  12    8.94    1.56
  -1   0  11   47.39    3.92
  -1   0  11   50.94    3.66
  -1   0  10   18.19    2.32
   1   0 -10   16.97    0.96
  -1   0  10   20.85    2.17
   1   0  -9    0.58    0.17
  -1   0   9    1.20    0.46
  -1   0   8  438.21   13.87
  -1   0   8  468.29   13.26
  -1   0   7    5.99    1.07
  -1   0   7    6.92    1.37
  -1   0   6   80.28    4.39
  -1   0   5   33.78    2.55
   1   0  -4    3.88    0.74
  -1   0   4    3.40    0.74
   1   0  -3  613.35   14.20
  -1   0   3  588.81   14.31
  -1   0   2  221.40    6.79
   1   0  -2  229.41    6.79
  -1   0   1    1.03    0.46
   1   0  -1    0.56    0.28
   1   0   0  222.53    6.60
   1   0   0  223.71    6.85
  -1   0   0  220.09    6.50
  -1   0  -1   12.26    1.16
  -1   0  -1   13.24    1.22
   1   0   1   12.02    1.26
   1   0   1   10.13    1.03
  -1   0  -2  564.45   12.61
  -1   0  -2  541.70   12.31
   1   0   2  567.93   13.55
   1   0   2  572.16   12.26
  -1   0  -2  583.11   13.01
  -1   0  -3   13.49    1.17
  -1   0  -3   16.58    1.05
   1   0   3   16.08    1.58
   1   0   3   14.85    1.41
  -1   0  -3   15.18    1.28
  -1   0  -4  186.76    5.27
   1   0   4  197.65    6.21
   1   0   4  196.47    6.60
  -1   0  -5   27.68    1.87
   1   0   5   25.55    2.27
  -1   0  -5   27.05    1.63
   1   0   5   25.55    2.07
   1   0   6 1324.27   29.58
  -1   0  -6 1365.00   26.72
   1   0   7    3.88    1.08
   1   0   7    2.93    0.80
  -1   0  -7    4.06    0.61
   1   0   8  760.11   20.66
   1   0   8  847.32   20.34
   1   0   9  199.85    7.94
   1   0  10   25.57    2.71
   1   0  11  231.94    9.53
   1   0  12    2.35    1.11
   1   0  12    2.18    1.04
   1   0  13    4.76    1.41
   1   0  13    4.33    1.42
   1   0  14    0.18    0.75
   1   0  14    0.44    0.36
   1   0  15    2.42    1.28
   1   0  15    0.24    0.42
   1   0  16   -0.24    0.63
   1   0  16   -0.55    0.90
   1   0  17    8.35    2.30
   1   0  18    7.66    2.35
   1   0  19    0.46    0.47
  -1  -1  18   -0.61    0.73
  -1  -1  17   -0.10    0.71
  -1  -1  16    3.35    1.41
  -1  -1  15    7.07    1.88
  -1  -1  14    1.06    0.88
  -1  -1  14    0.64    0.46
  -1  -1  13   25.25    3.31
  -1  -1  13   25.27    2.49
  -1  -1  12    0.33    0.53
  -1  -1  12    0.04    0.34
  -1  -1  11  121.36    6.78
  -1  -1  11  119.20    5.41
  -1  -1  10    0.62    0.50
  -1  -1  10    0.95    0.53
  -1  -1   9    0.68    0.60
  -1  -1   9    0.66    0.33
  -1  -1   8  146.76    6.66
  -1  -1   7  416.59   12.42
  -1  -1   6 1058.04   24.74
  -1  -1   6 1066.82   24.52
   1   1  -6 1067.96   25.21
  -1  -1   5   38.88    2.78
  -1  -1   5   40.83    2.80
   1   1  -5   40.06    1.67
   1   1  -5   40.42    3.06
   1   1  -4 1441.41   29.15
  -1  -1   4 1410.46   29.96
   1   1  -4 1435.08   31.15
   1   1  -4 1411.09   27.54
   1   1  -3  164.45    6.30
   1   1  -3  167.62    4.38
   1   1  -3  166.90    5.19
  -1  -1   3  168.68    5.47
  -1  -1   3  160.48    6.60
  -1  -1   2  946.29   20.06
   1   1  -2  979.85   20.02
   1   1  -2  929.09   19.61
  -1  -1   2  971.88   19.35
  -1  -1   2  966.71   22.30
   1   1  -2  970.38   21.68
   1   1  -1   91.19    3.32
  -1  -1   1   87.56    4.28
  -1  -1   1   91.39    3.23
   1   1  -1   89.03    3.98
  -1  -1   1   88.67    3.15
   1   1  -1   88.73    3.22
  -1  -1   0   37.08    2.04
   1   1   0   38.77    2.39
  -1  -1   0   36.11    1.82
  -1  -1   0   36.66    1.83
  -1  -1   0   35.71    2.45
   1   1   0   37.85    1.88
  -1  -1  -1  439.99   10.12
   1   1   1  436.41   10.48
   1   1   1  441.14   10.72
  -1  -1  -1  442.15   10.43
  -1  -1  -2   19.10    1.37
   1   1   2   21.02    1.56
  -1  -1  -2   20.88    1.39
   1   1   2   19.79    1.54
  -1  -1  -3  669.63   14.58
  -1  -1  -3  688.23   14.57
   1   1   3  671.98   15.64
   1   1   3  679.12   15.34
   1   1   4  114.58    4.62
  -1  -1  -4  113.69    3.70
  -1  -1  -4  112.68    3.79
   1   1   4  118.20    4.53
   1   1   5    1.92    0.60
   1   1   5    2.64    0.74
  -1  -1  -5    2.92    0.53
  -1  -1  -5    3.06    0.54
  -1  -1  -6  211.35    5.85
  -1  -1  -6  195.26    5.81
   1   1   6  201.63    7.05
   1   1   6  207.64    7.22
   1   1   7  152.99    6.38
   1   1   7  162.20    6.55
  -1  -1  -7  162.46    4.92
   1   1   8  363.29   11.30
   1   1   8  347.28   11.13
   1   1   9    2.29    0.84
   1   1  10   17.96    2.33
   1   1  11   -0.04    0.52
   1   1  12   36.38    3.61
   1   1  12   36.11    3.80
   1   1  13    9.43    2.05
   1   1  13   10.06    1.96
   1   1  14   15.32    2.62
   1   1  14   14.24    2.57
   1   1  15    2.42    1.27
   1   1  15    2.96    1.16
   1   1  16    5.14    1.67
   1   1  16    5.50    1.69
   1   1  17   24.55    3.51
   1   1  17   17.36    3.24
   1   1  18    2.66    1.14
   1   1  19   -1.27    0.99
   1   1  20   -0.42    0.68
  -1  -2  18    0.20    0.55
  -1  -2  17    0.46    0.62
  -1  -2  16    0.66    1.08
  -1  -2  15    0.48    0.74
  -1  -2  14   12.40    2.56
  -1  -2  13    0.38    0.63
  -1  -2  12   24.43    3.30
  -1  -2  12   27.35    2.28
  -1  -2  11   16.50    1.64
  -1  -2  11   12.21    2.17
  -1  -2  10    6.48    0.98
  -1  -2  10    6.48    1.62
  -1  -2   9    1.84    0.90
  -1  -2   9    1.60    0.46
  -1  -2   8   47.44    3.77
  -1  -2   8   50.47    2.50
  -1  -2   7  150.05    6.81
   1   2  -6   11.88    1.68
  -1  -2   6   11.89    1.66
   1   2  -6   13.04    1.44
   1   2  -5  108.62    5.18
  -1  -2   5   96.45    5.44
  -1  -2   5   99.38    4.88
   1   2  -5   96.33    4.20
   1   2  -4  396.69   10.75
   1   2  -4  416.30   11.88
  -1  -2   4  406.78   11.37
  -1  -2   4  424.42   12.95
   1   2  -4  405.64   10.03
   1   2  -3  234.31    7.41
   1   2  -3  246.31    6.53
  -1  -2   3  234.59    7.47
  -1  -2   3  243.40    8.92
  -1  -2   2  437.15    9.35
  -1  -2   2  440.19   10.88
   1   2  -2  424.69    9.68
  -1  -2   2  410.23    9.90
  -1  -2   2  405.14   12.46
   1   2  -2  408.95   11.22
   1   2  -1   36.02    2.53
   1   2  -1   38.96    1.70
  -1  -2   1   37.97    1.77
  -1  -2   1   40.31    1.75
  -1  -2   1   41.70    2.51
   1   2   0  252.19    6.70
   1   2   0  238.36    8.07
  -1  -2   0  265.46    7.84
  -1  -2   0  246.73    6.25
   1   2   0  252.46    5.81
  -1  -2   0  253.10    5.55
   1   2   1   94.49    4.59
   1   2   1   89.24    3.54
  -1  -2  -1   91.98    4.19
  -1  -2  -1   87.50    3.05
  -1  -2  -2    5.78    1.01
  -1  -2  -2    4.50    0.61
   1   2   2    5.54    1.12
  -1  -2  -2    5.72    0.67
   1   2   2    5.45    0.86
  -1  -2  -3  264.91    8.42
  -1  -2  -3  253.84    6.53
   1   2   3  239.26    6.54
   1   2   3  250.80    8.98
  -1  -2  -3  248.73    6.12
   1   2   3  257.25    7.48
  -1  -2  -4    4.52    0.94
  -1  -2  -4    5.62    0.74
   1   2   4    4.44    0.71
   1   2   4    5.01    0.95
  -1  -2  -5  448.77    9.64
  -1  -2  -5  451.64   12.62
   1   2   5  406.76   10.81
   1   2   5  412.42   11.80
  -1  -2  -6    1.98    0.46
  -1  -2  -6    2.14    0.38
  -1  -2  -6    0.87    0.47
   1   2   6    1.30    0.60
   1   2   6    0.78    0.44
  -1  -2  -7  796.91   16.96
   1   2   7  836.29   20.34
   1   2   7  830.67   19.11
   1   2   8    2.65    0.79
   1   2   8    2.78    0.92
  -1  -2  -8    3.42    0.54
   1   2   9   15.10    2.12
   1   2   9   14.50    1.86
   1   2  10   61.73    4.27
   1   2  10   64.21    4.69
   1   2  11   61.45    4.46
   1   2  11   63.07    4.91
   1   2  12   72.20    5.42
   1   2  12   65.65    4.91
   1   2  13   50.01    4.68
   1   2  13   43.43    4.14
   1   2  14    9.99    2.02
   1   2  14   12.61    2.41
   1   2  15    3.95    1.32
   1   2  15    4.83    1.59
   1   2  16   10.49    2.27
   1   2  16    8.39    2.08
   1   2  17    1.53    1.04
   1   2  17   -0.14    0.51
   1   2  18    3.71    1.51
   1   2  18    1.26    0.97
   1   2  19   23.81    3.78
   1   2  19   22.51    3.59
  -1  -3  17    3.89    1.57
  -1  -3  16    4.10    1.73
  -1  -3  15    5.39    2.07
  -1  -3  14    4.51    1.69
  -1  -3  13   17.00    2.98
  -1  -3  12   -0.50    0.76
   1   3 -11   68.09    4.03
  -1  -3  11   78.61    6.04
  -1  -3  10   26.20    3.29
   1   3 -10   24.57    2.37
  -1  -3  10   26.95    1.73
  -1  -3   9   27.78    3.18
  -1  -3   9   28.41    1.62
   1   3  -8    0.41    0.47
  -1  -3   8    0.35    0.61
  -1  -3   8    0.03    0.13
  -1  -3   7   69.14    4.64
  -1  -3   7   69.81    2.20
  -1  -3   7   58.85    4.58
   1   3  -7   62.20    4.01
   1   3  -6   17.81    2.10
  -1  -3   6   18.44    2.26
  -1  -3   6   18.06    0.84
  -1  -3   6   17.28    2.37
  -1  -3   5  678.75   19.14
  -1  -3   5  678.28   17.58
   1   3  -5  663.33   17.65
   1   3  -4   12.66    1.78
  -1  -3   4   14.46    1.73
  -1  -3   4   13.79    2.10
  -1  -3   3  318.94   11.38
   1   3  -3  317.91    8.05
  -1  -3   3  314.65    9.33
   1   3  -3  296.90   10.41
  -1  -3   3  322.72    6.68
   1   3  -2  125.77    6.18
  -1  -3   2  140.76    3.49
  -1  -3   2  132.04    5.05
   1   3  -2  137.00    4.12
   1   3  -1  246.32    6.60
   1   3  -1  257.53    6.07
  -1  -3   1  247.10    5.94
  -1  -3   1  278.24    8.70
  -1  -3   1  257.47    7.20
   1   3  -1  256.57    9.40
   1   3   0  410.55   12.83
  -1  -3   0  407.45    9.11
   1   3   0  397.35    9.89
  -1  -3   0  432.77   12.08
  -1  -3   0  397.15    9.69
   1   3   0  410.88    8.49
  -1  -3  -1   58.06    3.65
   1   3   1   55.41    4.01
  -1  -3  -1   52.61    2.20
   1   3   1   51.84    2.67
  -1  -3  -1   58.30    2.33
   1   3   2   12.19    1.95
  -1  -3  -2   12.13    1.67
  -1  -3  -2   11.23    0.92
   1   3   2   11.25    1.28
  -1  -3  -2   11.59    1.00
   1   3   3   13.23    1.47
  -1  -3  -3   17.53    2.02
  -1  -3  -3   19.03    1.37
   1   3   3   15.33    2.26
  -1  -3  -3   16.18    0.85
   1   3   4  589.37   12.62
  -1  -3  -4  601.95   12.48
   1   3   4  601.23   15.05
  -1  -3  -5  357.12    8.43
   1   3   5  372.22   13.05
  -1  -3  -5  367.06    7.29
   1   3   5  351.73   10.70
   1   3   5  339.27    8.68
  -1  -3  -6    0.88    0.20
   1   3   6    0.75    0.50
   1   3   6    0.82    0.41
  -1  -3  -6    0.53    0.23
  -1  -3  -7   34.02    1.53
   1   3   7   32.14    3.01
  -1  -3  -7   36.16    2.07
   1   3   7   37.80    2.39
   1   3   8   11.63    1.83
   1   3   8    9.86    1.30
   1   3   9  101.23    4.83
   1   3   9   85.06    5.44
   1   3  10    1.23    0.60
   1   3  10   -0.03    0.68
   1   3  11    8.35    1.49
   1   3  11    7.48    1.61
   1   3  12   71.51    5.58
   1   3  12   68.99    4.70
   1   3  13  138.65    8.25
   1   3  13  145.74    7.41
   1   3  14   16.91    2.52
   1   3  14   21.24    3.22
   1   3  15    0.14    0.36
   1   3  15   -0.28    0.56
   1   3  16    5.64    1.69
   1   3  16    4.18    1.53
   1   3  17    8.62    2.13
   1   3  17    7.01    1.98
   1   3  18   20.77    3.56
   1   3  19    2.09    1.18
   1   3  20   -0.14    0.47
  -1  -4  16    1.79    1.14
  -1  -4  15   -0.91    1.01
  -1  -4  14    4.01    1.75
  -1  -4  13    2.46    1.04
  -1  -4  12    2.32    1.25
  -1  -4  11    2.76    1.42
   1   4 -11    2.08    0.81
  -1  -4  10  127.61    7.97
   1   4 -10  118.01    6.38
  -1  -4   9    5.59    1.60
   1   4  -9    4.03    1.17
  -1  -4   8  174.37    8.69
   1   4  -8  161.36    7.94
  -1  -4   8  190.73    9.03
  -1  -4   7    3.33    1.12
  -1  -4   7    4.57    1.31
   1   4  -7    3.86    1.08
   1   4  -6   87.52    5.57
  -1  -4   6   85.92    5.25
  -1  -4   6   77.60    5.64
  -1  -4   5   14.26    2.34
  -1  -4   5   14.15    1.93
   1   4  -5   12.02    2.01
  -1  -4   4    0.70    0.47
  -1  -4   4    0.36    0.46
   1   4  -4    0.19    0.49
  -1  -4   3    8.85    1.32
   1   4  -3    7.30    1.65
   1   4  -3    9.33    0.96
   1   4  -2    1.23    0.35
   1   4  -2    0.68    0.51
  -1  -4   2    1.01    0.48
   1   4  -2    0.69    0.28
   1   4  -1   34.63    3.50
  -1  -4   1   36.79    2.37
   1   4  -1   40.03    1.76
   1   4  -1   38.09    2.14
  -1  -4   0  101.22    3.84
   1   4   0  104.11    6.45
   1   4   0   97.90    3.89
   1   4   1  136.33    7.51
  -1  -4  -1  133.85    4.20
   1   4   1  141.22    5.09
  -1  -4  -2  612.89   12.94
   1   4   2  632.57   19.24
   1   4   2  643.73   15.17
   1   4   3  208.31    9.83
  -1  -4  -3  206.93    4.69
   1   4   3  195.58    6.99
  -1  -4  -4  875.73   18.14
   1   4   4  864.39   20.82
   1   4   4  900.04   25.06
  -1  -4  -5    1.99    0.47
   1   4   5    3.18    1.06
   1   4   5    1.45    0.86
   1   4   6  829.11   20.89
   1   4   6  826.13   16.46
  -1  -4  -6  811.21   17.64
   1   4   7  156.06    4.78
   1   4   7  144.46    6.97
  -1  -4  -7  139.98    4.90
   1   4   7  163.25    9.01
   1   4   8   12.73    2.07
   1   4   8   11.53    1.29
   1   4   9   53.59    4.41
   1   4   9   54.74    3.11
   1   4  10   13.56    2.33
   1   4  10   14.33    1.69
   1   4  11   95.45    6.46
   1   4  11   94.65    4.93
   1   4  12  104.58    7.00
   1   4  12  110.27    5.64
   1   4  13    6.89    1.40
   1   4  13    6.09    1.70
   1   4  14    5.87    1.36
   1   4  14    9.03    2.01
   1   4  15    1.62    0.93
   1   4  15    2.10    1.06
   1   4  16   21.22    3.48
   1   4  17    0.33    0.57
   1   4  18    8.59    2.34
   1   4  19    3.21    1.56
  -1  -5  15    1.23    0.95
  -1  -5  14    0.68    0.74
  -1  -5  13    0.77    0.92
  -1  -5  12    1.64    0.97
  -1  -5  11    8.06    2.25
  -1  -5  10  100.45    7.52
   1   5 -10   95.55    6.31
  -1  -5   9  228.36   11.12
   1   5  -9  196.78    9.63
  -1  -5   9  218.18   10.12
  -1  -5   8  470.42   16.37
   1   5  -8  417.67   15.41
  -1  -5   8  436.92   15.80
   1   5  -7    0.65    0.48
  -1  -5   7   -0.43    0.57
  -1  -5   7    0.59    0.62
   1   5  -6   57.38    5.04
  -1  -5   6   60.55    4.73
  -1  -5   6   54.67    4.98
  -1  -5   5   11.89    2.27
  -1  -5   5   12.70    2.05
   1   5  -5    9.91    2.09
  -1  -5   4   60.94    4.27
   1   5  -4   63.88    5.49
   1   5  -3    5.79    0.62
  -1  -5   3    5.16    1.12
   1   5  -3    5.83    1.57
   1   5  -2    8.28    0.93
  -1  -5   2    8.48    1.34
   1   5  -2    9.77    2.23
   1   5  -1   70.89    3.23
  -1  -5   1   76.26    3.95
   1   5  -1   79.61    6.10
  -1  -5   0   26.06    2.06
   1   5   0   24.49    1.94
   1   5   0   27.49    3.62
   1   5   1  343.84   10.15
   1   5   1  352.78   14.49
   1   5   2   15.06    1.71
   1   5   2   15.27    0.86
   1   5   2   14.93    2.68
  -1  -5  -2   13.20    1.14
   1   5   3    9.81    2.08
   1   5   3    9.39    1.40
   1   5   4   54.62    5.26
   1   5   4   46.73    3.42
   1   5   4   50.91    1.74
   1   5   5    1.12    1.13
   1   5   5    0.14    0.42
   1   5   6   97.12    7.30
   1   5   6   95.04    5.45
  -1  -5  -6   90.80    3.81
   1   5   7   -0.12    0.58
   1   5   7   -0.19    0.56
  -1  -5  -7   -0.17    0.29
   1   5   8   45.80    5.02
   1   5   8   41.93    1.64
   1   5   8   46.62    4.10
   1   5   9  105.87    7.87
   1   5   9   97.42    3.62
   1   5   9   98.28    6.29
   1   5  10  154.13    8.48
   1   5  10  174.44    5.82
   1   5  11   43.58    4.48
   1   5  11   49.23    3.04
   1   5  12   11.38    2.33
   1   5  13    2.90    1.15
   1   5  14   19.43    3.28
   1   5  15   23.39    3.85
   1   5  16   -0.71    0.77
   1   5  17   10.04    2.52
   1   5  18    9.98    2.72
  -1  -6  14   -0.49    0.84
  -1  -6  13    1.61    1.54
  -1  -6  12    3.61    1.46
  -1  -6  11    3.58    1.42
  -1  -6  10    2.12    1.14
   1   6 -10    4.14    1.43
  -1  -6   9   17.53    3.24
   1   6  -9   14.95    2.73
  -1  -6   9   18.53    2.91
  -1  -6   8    5.88    1.94
   1   6  -8    2.94    1.25
  -1  -6   8    5.29    1.48
  -1  -6   7  174.71    9.93
   1   6  -7  161.13    9.54
  -1  -6   7  164.51    9.33
   1   6  -6   -0.12    0.51
  -1  -6   6   -1.30    0.84
  -1  -6   5   48.33    4.43
   1   6  -5   39.86    4.61
   1   6  -4   34.11    4.30
  -1  -6   4   40.40    3.84
  -1  -6   3    8.28    1.68
   1   6  -3    4.70    1.57
   1   6  -3    6.40    0.75
  -1  -6   2    6.07    1.42
   1   6  -2    4.98    0.83
   1   6  -1    0.40    0.30
  -1  -6   1    0.07    0.42
   1   6  -1   -0.07    0.60
  -1  -6   0   16.16    1.75
   1   6   0   16.13    3.04
   1   6   0   16.85    1.71
   1   6   1   96.03    7.51
   1   6   1   95.08    4.55
  -1  -6  -1   87.59    3.59
  -1  -6  -2    2.28    0.46
   1   6   2    2.31    0.73
   1   6   2    2.16    0.39
   1   6   2    3.95    1.55
   1   6   3   12.59    2.70
  -1  -6  -3   11.07    0.76
   1   6   3   12.22    0.72
   1   6   3   13.17    1.77
   1   6   4    2.87    0.90
   1   6   4    3.52    1.41
   1   6   4    3.35    0.38
   1   6   5   24.20    3.83
   1   6   5   23.56    2.59
   1   6   6    0.92    1.00
   1   6   6    0.52    0.54
   1   6   7    9.36    2.39
  -1  -6  -7    9.65    1.24
   1   6   7   12.20    2.09
   1   6   8   78.05    7.22
   1   6   8   68.31    5.28
   1   6   9    2.62    1.32
   1   6   9    1.80    0.83
   1   6  10   -0.25    0.69
   1   6  10    1.04    0.62
   1   6  11   18.47    2.95
   1   6  12   10.49    2.35
   1   6  13   -0.58    0.62
   1   6  14    3.28    1.33
   1   6  15    3.22    1.63
   1   6  16    4.67    1.80
   1   6  17    3.69    1.60
  -1  -7  13    3.13    1.39
  -1  -7  12   -1.11    0.86
  -1  -7  11   -0.26    0.81
  -1  -7  10   14.52    2.78
   1   7 -10   13.38    2.71
   1   7  -9    0.26    0.62
  -1  -7   9    1.21    1.06
  -1  -7   8   -0.02    0.47
   1   7  -8    0.15    0.71
  -1  -7   8    0.20    0.48
   1   7  -7    7.21    2.10
  -1  -7   7    8.40    2.01
  -1  -7   7    9.91    2.43
  -1  -7   6   27.36    3.42
  -1  -7   6   29.36    4.10
   1   7  -6   29.35    4.29
  -1  -7   5    1.67    0.97
   1   7  -5    0.94    1.02
  -1  -7   4   20.96    2.74
   1   7  -4   22.47    3.75
  -1  -7   3    2.00    0.82
   1   7  -3    2.20    0.49
   1   7  -3    2.11    1.04
  -1  -7   2   18.77    2.20
   1   7  -2   28.10    4.21
   1   7  -2   27.22    2.03
   1   7  -1   36.01    2.53
  -1  -7   1   29.16    2.53
  -1  -7   1   33.07    2.72
   1   7   0   88.43    7.68
   1   7   0   80.79    4.23
  -1  -7   0   81.50    4.12
  -1  -7  -1    1.11    0.49
   1   7   1    1.98    0.80
   1   7   1    1.72    1.15
   1   7   2  234.68   13.01
   1   7   2  227.00    8.42
  -1  -7  -2  205.69    6.39
   1   7   2  217.57    5.86
   1   7   3  103.48    2.89
  -1  -7  -3   99.05    3.11
   1   7   3  105.01    8.49
   1   7   3  101.76    5.52
   1   7   4    6.36    0.51
   1   7   4    5.30    1.31
   1   7   4    8.16    2.47
   1   7   5   84.80    5.48
   1   7   5   90.80    8.04
   1   7   5   94.35    2.76
   1   7   6   54.56    4.47
   1   7   6   56.74    6.37
   1   7   7   23.03    4.11
   1   7   7   20.16    2.76
   1   7   8   26.05    4.33
   1   7   8   29.04    3.46
   1   7   9    1.34    1.02
   1   7   9    1.39    0.69
   1   7  10    9.52    2.10
   1   7  10    9.91    2.67
   1   7  11    8.08    2.12
   1   7  11    9.90    2.71
   1   7  12    0.60    0.86
   1   7  13    0.21    0.64
   1   7  14    3.35    1.65
   1   7  15    0.35    0.81
   1   7  16    6.80    2.20
  -1  -8  12    7.11    2.15
  -1  -8  11    1.22    1.09
  -1  -8  11   -0.75    0.66
  -1  -8  10    1.60    0.91
  -1  -8  10    1.11    0.66
  -1  -8   9   -0.06    0.34
   1   8  -9   -0.18    0.33
  -1  -8   9    0.15    0.40
  -1  -8   8    0.82    0.81
   1   8  -8    0.35    0.43
  -1  -8   7    4.60    1.45
   1   8  -7    0.95    0.84
  -1  -8   6    3.81    1.30
  -1  -8   6    2.56    1.09
  -1  -8   6    2.83    1.30
   1   8  -6    4.11    1.58
  -1  -8   5    4.65    1.36
  -1  -8   5    4.03    1.23
   1   8  -5    6.98    2.20
  -1  -8   4    3.18    1.00
  -1  -8   4    3.76    1.16
   1   8  -4    4.07    1.79
  -1  -8   3  122.24    6.55
   1   8  -3  122.62    9.66
   1   8  -2   22.62    4.04
  -1  -8   2   19.85    2.36
   1   8  -1   52.59    3.27
  -1  -8   1   53.78    3.77
  -1  -8   0   16.95    1.93
   1   8   0   15.36    1.84
   1   8   1   10.69    1.65
   1   8   1   11.24    2.95
   1   8   2  236.64    9.10
   1   8   2  256.44   14.45
   1   8   3    1.94    2.47
   1   8   3    3.00    1.12
   1   8   4  379.40   13.16
   1   8   4  386.36   18.54
   1   8   5   12.37    2.99
   1   8   5   11.49    2.06
   1   8   6   13.63    2.35
   1   8   6   13.74    3.26
   1   8   7   26.95    4.66
   1   8   7   26.89    3.36
   1   8   8   20.82    4.13
   1   8   8   12.77    2.40
   1   8   9   -0.35    0.40
   1   8   9    0.60    1.04
   1   8  10    0.48    0.91
   1   8  10    1.75    1.07
   1   8  11    5.98    2.19
   1   8  11    3.60    1.39
   1   8  12    1.97    1.42
   1   8  12   -1.60    1.13
   1   8  13    0.40    0.62
   1   8  14    3.25    1.46
   1   8  15   11.50    2.79
  -1  -9  10   -1.12    1.08
   1   9  -9   -0.15    0.45
  -1  -9   9   -0.03    0.58
  -1  -9   8    2.65    1.11
   1   9  -8    0.66    0.68
  -1  -9   7   -0.81    0.69
   1   9  -7    0.22    0.45
  -1  -9   6   11.09    2.24
   1   9  -6    9.67    2.66
  -1  -9   5   23.24    3.14
   1   9  -5   28.27    4.58
  -1  -9   4   27.02    3.26
   1   9  -4   24.91    4.32
  -1  -9   3    0.49    0.48
   1   9  -3    0.77    0.91
   1   9  -2    1.32    0.97
   1   9  -1    2.58    1.64
   1   9   0   -0.74    1.12
   1   9   1   15.48    3.64
   1   9   1   14.03    1.93
   1   9   2    4.58    1.20
   1   9   2    2.32    1.20
   1   9   3    2.06    1.50
   1   9   3    1.81    0.94
   1   9   4    2.70    0.95
   1   9   4    2.83    1.69
   1   9   5    1.17    0.74
   1   9   5    0.09    0.58
   1   9   6    1.97    1.17
   1   9   6    1.42    0.82
   1   9   7    2.85    1.70
   1   9   7    2.82    0.99
   1   9   8    1.53    1.42
   1   9   8    0.03    0.60
   1   9   9   -0.13    1.00
   1   9   9    1.26    1.05
   1   9  10   -0.51    1.20
   1   9  10    0.98    1.03
   1   9  11    2.73    1.39
   1   9  11    2.33    1.50
   1   9  12    6.09    1.94
   1   9  12    3.02    1.58
   1   9  13    0.58    0.69
   1  10  -8    7.52    2.27
   1  10  -7   -0.81    0.85
   1  10  -6    3.97    1.68
   1  10  -5    1.46    1.31
   1  10  -4    5.16    2.00
   1  10  -3    0.11    0.88
   1  10  -2   -1.20    0.40
   1  10  -1    3.22    1.51
   1  10   0    8.17    2.63
   1  10   1   -0.46    1.07
   1  10   2    2.50    1.63
   1  10   3    3.45    1.86
   1  10   3    3.03    1.08
   1  10   4   -0.46    0.53
   1  10   4    0.92    0.80
   1  10   5    0.64    0.56
   1  10   5    1.45    1.03
   1  10   6   -1.48    1.23
   1  10   6    0.91    0.76
   1  10   7    0.02    1.04
   1  10   7   -0.80    0.56
   1  10   8    1.78    1.33
   1  10   8    0.02    0.83
   1  10   9   -0.01    1.01
   1  10   9   -2.10    1.11
   1  10  10    3.63    1.85
   1  10  10    2.67    1.20
   1  10  11    0.98    1.35
   1  10  11    0.58    0.55
   1  10  12    1.21    1.09
   1  10  13    6.27    2.21
   1  11  -3    2.27    1.61
   1  11  -2   -0.08    0.55
   1  11  -1   -0.14    0.54
   1  11   0    3.73    2.05
   1  11   1    7.08    2.58
   1  11   2    4.39    2.11
   1  11   3    0.97    1.04
   1  11   4   -3.35    1.79
   1  11   5    3.64    2.08
   1  11   6    2.05    1.16
   1  11   6    1.06    0.81
   1  11   7    2.60    1.91
   1  11   7    2.95    1.37
   1  11   8    2.31    1.70
   1  11   8   -0.67    0.68
   1  11   9    9.27    2.31
  -2  10   7   -2.49    1.36
  -2  10   6   25.35    3.19
  -2  10   6   16.92    3.61
  -2  10   5    1.22    0.95
  -2  10   5    5.73    1.41
  -2  10   4    0.37    0.64
  -2  10   4   -0.56    0.43
  -2  10   3   -1.06    0.98
  -2  10   2    0.26    0.60
  -2  10   1    1.81    1.16
  -2   9   9    5.57    2.00
  -2   9   9    4.38    1.47
  -2   9   8   -1.40    0.94
  -2   9   8    0.30    0.51
  -2   9   7   10.55    2.11
  -2   9   7    9.60    2.65
  -2   9   6   -1.22    1.00
  -2   9   5    7.38    2.40
  -2   9   4   18.10    3.70
  -2   9   3    4.19    1.74
  -2   9   2   14.86    3.36
  -2   9   1    1.03    1.10
  -2   9   0    4.24    1.85
  -2   9  -1    0.38    0.66
  -2   9  -2    3.91    1.89
  -2   9  -3    0.62    0.63
  -2   9  -4    0.71    0.94
  -2   9  -5   22.82    4.26
  -2   9  -6    4.82    1.99
   2  -9   7    3.59    1.60
  -2   9  -7    0.82    1.17
   2  -9   8    1.19    0.85
   2  -9   9    1.97    1.25
  -2   8  11    2.93    1.32
  -2   8  10   18.17    3.04
  -2   8   9    2.04    1.17
  -2   8   8    6.56    2.07
  -2   8   7    2.05    1.30
  -2   8   6    0.15    0.66
  -2   8   6    0.11    0.51
  -2   8   5    1.81    0.81
  -2   8   5    1.97    1.17
  -2   8   4   12.16    3.08
  -2   8   4   10.70    2.18
  -2   8   3    1.09    0.77
  -2   8   3    0.70    0.81
  -2   8   2    0.41    0.34
  -2   8   2    1.18    1.23
  -2   8   1    1.08    0.65
  -2   8   1    1.41    1.00
  -2   8   0    0.99    0.93
  -2   8   0    1.00    0.97
  -2   8  -1    1.20    0.99
   2  -8   2    7.23    1.92
  -2   8  -2    6.57    2.25
   2  -8   3   -1.80    1.03
   2  -8   4   10.18    2.42
   2  -8   5    4.88    1.79
   2  -8   6    1.95    1.12
   2  -8   7    1.29    1.08
   2  -8   8    8.51    2.49
   2  -8   9    4.83    1.95
   2  -8  10    1.28    0.91
   2  -8  11    2.46    1.45
  -2   7  12   -0.37    0.50
  -2   7  12   -0.18    0.59
  -2   7  11   -0.27    0.63
  -2   7  11   -0.06    0.42
  -2   7  10    3.13    1.41
  -2   7  10    3.62    1.13
  -2   7   9    0.28    0.54
  -2   7   9   -0.50    0.47
  -2   7   8    4.39    1.78
  -2   7   8    6.41    1.59
  -2   7   7    1.61    1.20
  -2   7   7    3.07    1.22
  -2   7   6   23.51    3.11
  -2   7   6   22.56    3.83
  -2   7   5    0.59    0.61
  -2   7   5    1.24    1.12
  -2   7   4    3.48    1.20
  -2   7   4    6.43    2.12
  -2   7   3   27.59    4.32
  -2   7   3   28.46    3.73
  -2   7   2    0.51    0.83
  -2   7   2    0.88    0.67
   2  -7  -2    1.31    0.85
  -2   7   1    4.19    1.50
  -2   7   1    5.45    1.99
   2  -7  -1    2.45    1.04
   2  -7   0   73.78    6.00
   2  -7   1    1.16    0.58
   2  -7   2    0.44    0.54
   2  -7   3   51.89    5.44
   2  -7   4   10.18    2.49
   2  -7   5    1.75    1.21
   2  -7   6   52.70    5.99
   2  -7   7    0.50    0.45
   2  -7   8   10.60    2.92
   2  -7   9    9.07    2.66
   2  -7  10    1.93    1.19
   2  -7  11   -0.62    0.91
   2  -7  12   -2.75    1.63
  -2   6  15    6.97    1.79
  -2   6  14    2.22    1.17
  -2   6  14    2.77    1.13
  -2   6  13   10.08    2.04
  -2   6  13    8.98    2.15
  -2   6  12   -0.92    0.64
  -2   6  12   -0.36    0.57
  -2   6  11    1.13    0.57
  -2   6  10    2.43    1.22
  -2   6  10    0.41    0.32
  -2   6   9   10.21    2.38
  -2   6   9   11.46    2.11
  -2   6   8   74.93    5.52
  -2   6   8   67.57    6.15
  -2   6   7   20.88    3.37
  -2   6   7   18.16    2.71
  -2   6   6    6.95    2.02
  -2   6   6    5.78    1.59
  -2   6   5   89.48    7.38
  -2   6   5   91.99    6.61
  -2   6   4   27.06    3.94
  -2   6   4   19.97    3.08
  -2   6   3   48.92    5.37
  -2   6   3   47.04    4.91
  -2   6   2   -0.12    0.72
  -2   6   2    0.49    0.47
  -2   6   1   51.63    5.17
   2  -6  -1   55.49    4.96
   2  -6   0    8.05    1.93
   2  -6   1  109.85    7.52
   2  -6   2   82.16    6.57
   2  -6   3    1.97    1.14
   2  -6   4   25.44    3.88
   2  -6   5    6.73    2.02
   2  -6   6   50.07    5.80
   2  -6   7    1.46    0.92
   2  -6   8    1.60    1.33
   2  -6   9    1.01    1.07
   2  -6  10    0.91    0.62
   2  -6  11    0.12    0.56
   2  -6  12    4.19    1.99
   2  -6  13   -0.53    0.71
  -2   5  15    2.12    1.04
  -2   5  15    0.93    0.76
  -2   5  14    2.08    0.87
  -2   5  14    4.61    1.53
  -2   5  13   -0.12    0.45
  -2   5  13    0.80    0.65
  -2   5  12    3.23    1.15
  -2   5  11    0.64    0.65
  -2   5  10    0.21    0.52
  -2   5  10    0.97    0.67
  -2   5   9   73.40    5.79
  -2   5   9   70.98    5.40
  -2   5   8    7.38    1.77
  -2   5   8    8.92    2.03
  -2   5   7    1.31    0.85
  -2   5   7   -0.24    0.34
  -2   5   6   82.12    6.46
  -2   5   6   82.01    6.05
  -2   5   5   28.02    3.78
  -2   5   5   26.51    3.39
  -2   5   4    1.49    1.15
  -2   5   4    0.00    0.72
  -2   5   3   56.82    5.29
  -2   5   2   65.43    5.70
   2  -5  -2   58.25    5.04
  -2   5   1   40.26    4.50
   2  -5  -1   41.55    4.20
   2  -5   0   31.51    3.74
   2  -5   1   85.75    6.42
   2  -5   2   -0.04    0.65
   2  -5   3   54.24    5.17
   2  -5   4    3.33    1.48
   2  -5   5   38.99    4.61
   2  -5   6   22.99    3.77
   2  -5   7   -1.27    1.22
   2  -5   8   64.07    6.49
   2  -5   9   39.11    5.21
   2  -5  10    3.56    1.89
   2  -5  11    4.84    2.12
   2  -5  12    3.13    1.65
   2  -5  13    1.67    1.02
   2  -5  14   18.31    4.16
   2  -5  15    5.40    2.29
  -2   4  16    3.53    1.35
  -2   4  15    0.51    0.74
  -2   4  14   28.83    3.72
  -2   4  14   23.21    3.30
  -2   4  13    1.12    0.68
  -2   4  12    7.34    1.84
  -2   4  11   62.12    5.15
  -2   4  10    4.83    1.33
  -2   4  10    5.64    1.51
  -2   4   9   43.76    4.14
  -2   4   9   49.23    4.23
  -2   4   8   25.72    3.10
  -2   4   8   20.05    2.84
  -2   4   7  107.11    6.65
  -2   4   7  103.94    6.67
  -2   4   6    3.50    1.18
  -2   4   6    5.95    1.60
  -2   4   5   -0.70    0.93
  -2   4   5   -0.12    0.49
  -2   4   4   58.28    4.92
  -2   4   4   55.91    4.98
  -2   4   3   -0.16    0.66
  -2   4   2   84.18    6.39
   2  -4  -2   90.70    6.12
  -2   4   1   -0.33    0.55
   2  -4  -1    0.09    0.33
   2  -4   0   28.70    3.40
   2  -4   1    0.62    0.48
   2  -4   2  126.36    7.69
   2  -4   3   49.82    4.77
   2  -4   4    1.93    0.99
   2  -4   5    2.12    1.07
   2  -4   6    6.84    1.91
   2  -4   7   33.47    4.26
   2  -4   8    8.59    2.33
   2  -4   9    6.06    2.00
   2  -4  10   23.68    4.05
   2  -4  11   24.02    4.19
   2  -4  12    0.87    1.14
   2  -4  13    5.09    1.94
   2  -4  14    3.17    1.61
   2  -4  15    3.76    1.89
   2  -4  16   46.37    6.68
  -2   3  17    1.00    0.70
  -2   3  16    0.76    0.76
  -2   3  15   17.98    2.80
  -2   3  14    8.90    2.00
  -2   3  14    7.53    1.81
  -2   3  13    5.33    1.19
  -2   3  13    6.33    1.72
  -2   3  12   96.54    5.31
  -2   3  12   94.46    6.66
  -2   3  11   30.19    2.79
  -2   3  11   25.87    3.25
  -2   3  10   91.02    5.05
  -2   3  10   98.25    6.44
  -2   3   9   31.11    3.43
  -2   3   9   32.92    2.93
  -2   3   8    1.31    0.59
  -2   3   8    1.43    0.69
  -2   3   7    1.94    0.75
  -2   3   7    3.61    1.22
  -2   3   6    7.36    1.53
  -2   3   6    7.15    1.67
  -2   3   5   42.44    3.69
  -2   3   5   37.66    3.89
  -2   3   4    1.75    0.87
  -2   3   3    6.85    1.67
  -2   3   2   29.31    3.66
   2  -3  -2   33.28    3.60
  -2   3   1  157.40    8.75
   2  -3  -1  158.12    8.10
   2  -3   0  185.79    9.06
   2  -3   1   43.96    4.20
   2  -3   2  400.86   14.51
   2  -3   3   48.17    4.54
   2  -3   4  323.23   13.17
   2  -3   5   20.86    3.19
   2  -3   6  137.21    8.57
   2  -3   7    5.10    1.76
   2  -3   8   10.19    2.35
   2  -3   9   47.69    5.36
   2  -3  10    0.91    1.37
   2  -3  11    3.45    1.72
   2  -3  12    9.28    2.69
   2  -3  13    0.79    0.69
   2  -3  14   12.62    3.26
   2  -3  15   18.03    3.83
   2  -3  16    8.08    2.63
   2  -3  17    5.77    2.29
  -2   2  18    7.88    1.88
  -2   2  17    1.83    0.91
  -2   2  16    2.45    1.11
  -2   2  15   14.75    2.46
  -2   2  15   16.91    2.40
  -2   2  14    4.64    1.40
  -2   2  14    3.20    0.93
  -2   2  13   52.61    4.13
  -2   2  13   53.70    5.09
  -2   2  12   31.70    3.14
  -2   2  12   35.22    3.94
  -2   2  11  414.78   13.28
  -2   2  11  400.74   14.90
  -2   2  10  227.52   10.17
  -2   2   9    0.54    0.37
  -2   2   9   -0.32    0.64
  -2   2   8   13.29    2.14
  -2   2   8   17.49    1.76
  -2   2   7   65.20    3.72
  -2   2   7   66.58    4.89
  -2   2   6   29.47    2.62
  -2   2   6   32.91    3.35
  -2   2   5   20.04    2.13
  -2   2   5   18.31    2.51
  -2   2   4    0.61    0.49
  -2   2   3   30.17    3.35
  -2   2   2    1.24    0.67
  -2   2   1   89.68    6.08
   2  -2  -1   91.61    5.87
   2  -2   0    2.32    0.87
   2  -2   1   27.80    3.13
   2  -2   2    0.47    0.42
   2  -2   3    2.82    0.94
   2  -2   4  135.09    7.61
  -2   2  -5    4.32    0.86
   2  -2   5    3.87    1.43
   2  -2   6   34.15    3.96
   2  -2   6   35.71    1.82
   2  -2   7    3.29    1.45
   2  -2   8   15.69    2.83
   2  -2   9   28.39    3.96
   2  -2  10   13.63    2.85
   2  -2  11    1.41    0.99
   2  -2  12  117.05    8.91
   2  -2  13  158.74   10.90
   2  -2  14    7.08    3.89
   2  -2  15    7.63    2.43
   2  -2  16    6.87    2.25
   2  -2  17    5.94    2.28
   2  -2  18    4.95    2.23
  -2   1  17   10.54    2.11
  -2   1  17   13.57    2.34
  -2   1  16    1.21    0.76
  -2   1  16    1.09    0.79
  -2   1  15    6.93    1.64
  -2   1  15    5.52    1.42
  -2   1  14    0.00    0.24
  -2   1  14   -0.24    0.42
  -2   1  13    1.62    0.75
  -2   1  12   97.17    5.96
  -2   1  12  104.53    7.00
  -2   1  11   24.04    2.83
  -2   1  11   23.69    3.22
  -2   1  10    2.43    1.01
  -2   1  10    2.95    1.00
  -2   1   9   41.46    3.93
  -2   1   8   33.54    3.43
  -2   1   7    0.49    0.24
  -2   1   7   -0.46    0.59
  -2   1   6   60.97    2.85
  -2   1   6   58.62    4.44
  -2   1   5    2.39    0.64
  -2   1   5    3.83    1.16
  -2   1   4    0.37    0.35
  -2   1   3   30.15    3.18
  -2   1   2  204.73    9.01
  -2   1   1  196.90    8.79
   2  -1  -1  207.27    8.88
  -2   1   1  189.45    7.37
  -2   1   0  405.93   11.80
   2  -1   0  385.68   13.26
   2  -1   1   32.13    3.27
  -2   1  -1   30.24    2.58
   2  -1   2   16.98    2.37
   2  -1   3  354.62    9.95
   2  -1   3  334.40   12.27
   2  -1   4    2.33    0.90
  -2   1  -4    2.50    0.64
   2  -1   4    2.61    0.56
  -2   1  -5  324.14    9.39
   2  -1   5  325.88   12.61
   2  -1   5  333.09    8.27
   2  -1   6  146.84    8.03
   2  -1   7   18.39    2.84
   2  -1   8   94.20    6.81
   2  -1   9   78.80    5.15
   2  -1   9   76.46    6.21
   2  -1  10   19.90    3.29
   2  -1  10   23.13    2.79
   2  -1  11   -0.14    0.81
   2  -1  11    1.50    0.78
   2  -1  12   24.76    3.10
   2  -1  12   30.61    4.30
   2  -1  13   64.70    5.19
   2  -1  13   66.15    6.55
   2  -1  14    7.52    1.71
   2  -1  14    7.51    2.21
   2  -1  15   26.24    4.27
   2  -1  16    0.80    1.19
   2  -1  17    7.14    2.36
   2  -1  18    0.90    0.64
  -2   0  18    5.88    1.80
  -2   0  17   -0.64    0.65
  -2   0  16    5.13    1.57
  -2   0  15    2.30    0.97
  -2   0  15    2.70    0.90
  -2   0  14    2.45    1.01
  -2   0  14    1.48    0.80
  -2   0  13    1.51    0.83
  -2   0  13    2.10    0.91
  -2   0  12   45.96    4.17
  -2   0  11   10.26    1.91
  -2   0  11    9.17    1.99
  -2   0  10   -0.44    0.67
  -2   0  10    0.14    0.50
  -2   0   9   14.08    2.27
  -2   0   8   18.31    2.51
  -2   0   7   -0.07    0.44
  -2   0   6   10.89    1.70
  -2   0   5   37.67    3.32
  -2   0   4   11.45    1.75
  -2   0   3    1.34    0.69
  -2   0   2    1.30    0.50
  -2   0   1   20.64    2.39
  -2   0   1   16.83    1.95
   2   0  -1   17.01    2.05
   2   0   0 5398.62  108.29
  -2   0   0 5492.75  107.68
  -2   0   0 5506.85  105.89
   2   0   0 5440.80  106.35
   2   0   1 1338.48   31.88
  -2   0  -1 1408.44   30.34
   2   0   1 1372.13   30.33
   2   0   2  636.31   18.02
  -2   0  -2  659.75   16.34
   2   0   2  644.62   16.02
   2   0   3   18.57    1.71
   2   0   3   20.74    2.50
  -2   0  -3   21.44    2.04
  -2   0  -3   18.02    1.73
  -2   0  -3   21.91    2.06
  -2   0  -4   45.28    2.80
   2   0   4   44.55    2.60
   2   0   4   44.16    3.73
  -2   0  -4   43.78    2.76
   2   0   5  110.68    5.56
   2   0   5  109.17    6.24
  -2   0  -5  100.07    4.18
  -2   0  -6   -0.01    0.11
   2   0   6    0.62    0.58
   2   0   7    2.21    0.86
   2   0   7    1.14    0.51
  -2   0  -7    1.69    0.40
  -2   0  -8   55.17    2.32
   2   0   8   52.50    4.76
   2   0   8   56.18    4.30
   2   0   9   83.21    5.54
  -2   0  -9   74.49    2.62
   2   0   9   81.49    6.14
   2   0  10   51.57    4.47
   2   0  10   52.26    5.06
   2   0  11   40.34    4.53
   2   0  11   47.97    4.47
   2   0  12   47.80    4.55
   2   0  12   37.49    4.54
   2   0  13    2.37    1.01
   2   0  13    2.32    1.17
   2   0  14   51.60    4.98
   2   0  14   46.64    5.45
   2   0  15    7.30    2.25
   2   0  15    6.37    1.78
   2   0  16   12.77    3.09
   2   0  16   21.24    3.33
   2   0  17    0.22    0.66
   2   0  18    2.98    1.81
   2   0  19    5.00    1.95
  -2  -1  18    3.13    1.30
  -2  -1  17    0.18    0.58
  -2  -1  16    0.31    0.68
  -2  -1  15   -0.30    0.46
  -2  -1  14   20.42    2.36
  -2  -1  14   16.80    2.71
  -2  -1  13    3.00    0.85
  -2  -1  13    1.66    0.85
  -2  -1  12   35.89    3.85
  -2  -1  11    7.01    1.61
  -2  -1  10    8.84    1.95
  -2  -1  10    8.55    1.70
  -2  -1   9   73.09    5.08
  -2  -1   9   74.47    5.36
  -2  -1   8    0.22    0.46
  -2  -1   7   10.55    1.80
  -2  -1   6   10.02    1.66
  -2  -1   5  101.04    5.30
  -2  -1   4   12.33    1.72
  -2  -1   4   13.92    0.94
  -2  -1   3   84.39    3.29
  -2  -1   3   80.70    4.41
  -2  -1   2  159.22    7.81
  -2  -1   2  163.15    6.59
   2   1  -2  161.73    6.32
   2   1  -2  161.65    7.13
   2   1  -1  108.02    5.43
  -2  -1   1  102.81    5.05
   2   1  -1  112.22    4.99
  -2  -1   1  102.27    6.01
  -2  -1   0 9981.74  186.11
  -2  -1   0 9819.16  185.74
   2   1   0 9999.00  186.17
   2   1   1 1257.83   28.08
   2   1   1 1257.44   29.64
  -2  -1  -1 1250.46   27.85
  -2  -1  -1 1259.04   29.38
  -2  -1  -2 9467.67  181.32
   2   1   2 9958.77  182.61
  -2  -1  -2 9861.65  182.44
   2   1   2 9504.91  183.93
  -2  -1  -2 9378.56  183.83
   2   1   3    0.22    0.76
   2   1   3    1.11    0.66
  -2  -1  -3    1.08    0.55
  -2  -1  -3   -0.40    0.46
  -2  -1  -3    0.15    0.29
   2   1   4   85.63    4.83
  -2  -1  -4   85.08    3.93
   2   1   4   80.86    4.95
  -2  -1  -4   82.36    4.43
  -2  -1  -4   78.26    3.99
   2   1   5    3.90    1.10
  -2  -1  -5    4.55    0.91
   2   1   5    4.36    1.03
   2   1   6    0.76    0.66
   2   1   6    1.17    0.78
   2   1   7   27.95    3.00
   2   1   7   27.94    3.03
   2   1   8   76.89    5.52
   2   1   8   72.30    5.09
   2   1   9    3.20    1.28
   2   1   9    2.91    1.13
   2   1  10   14.63    2.53
   2   1  10   13.25    2.26
   2   1  11    1.78    0.99
   2   1  11    2.04    1.11
   2   1  12    8.75    2.16
   2   1  12    7.72    1.82
   2   1  13   -0.74    1.05
   2   1  13    0.54    0.74
   2   1  14  106.40    7.58
   2   1  14   95.25    7.62
   2   1  15   -0.16    0.60
   2   1  15   -0.05    0.68
   2   1  16   -0.30    0.98
   2   1  16   -0.03    0.74
   2   1  17    0.12    0.51
   2   1  17    0.84    0.86
   2   1  18    0.48    0.79
   2   1  18    4.12    1.69
   2   1  19    4.05    2.00
   2   1  20    2.23    1.53
  -2  -2  17    1.19    1.13
  -2  -2  16    0.42    0.56
  -2  -2  15    0.00    0.61
  -2  -2  14    0.96    0.75
  -2  -2  13   29.83    3.69
  -2  -2  12   48.66    4.60
  -2  -2  12   54.26    3.38
  -2  -2  11    8.55    1.91
  -2  -2  10   96.31    6.23
  -2  -2   9   -0.34    0.68
  -2  -2   8   13.11    2.06
  -2  -2   8   13.83    2.08
  -2  -2   7  266.43   10.44
  -2  -2   7  283.03   10.38
  -2  -2   6  140.08    6.48
  -2  -2   5   65.82    4.08
  -2  -2   5   71.11    5.56
  -2  -2   4  258.59    7.13
  -2  -2   4  249.07    8.48
  -2  -2   4  257.55   11.10
  -2  -2   3   65.62    3.15
  -2  -2   3   62.99    3.50
  -2  -2   3   57.15    4.85
  -2  -2   2  262.27    7.75
   2   2  -2  255.57    7.94
  -2  -2   2  243.92   10.49
  -2  -2   2  236.01    7.73
  -2  -2   1   87.86    4.10
   2   2  -1   76.77    4.64
  -2  -2   1   77.75    3.79
   2   2  -1   84.03    3.95
  -2  -2   1   80.25    5.44
  -2  -2   0    0.36    0.34
   2   2   0    0.14    0.20
  -2  -2   0    0.23    0.21
  -2  -2   0    0.12    0.15
  -2  -2   0    0.52    0.52
  -2  -2  -1  201.50    7.16
  -2  -2  -1  180.57    8.23
  -2  -2  -1  186.26    6.45
  -2  -2  -1  189.17    6.89
  -2  -2  -1  185.20    6.20
   2   2   2   16.07    1.91
  -2  -2  -2   15.41    1.67
  -2  -2  -2   16.05    1.54
   2   2   2   16.52    1.99
   2   2   3   11.41    1.62
  -2  -2  -3   10.91    1.33
   2   2   3    9.88    1.52
  -2  -2  -3   10.15    1.21
   2   2   4   31.29    2.75
   2   2   4   29.74    2.84
  -2  -2  -4   27.31    2.14
   2   2   5   20.16    2.42
   2   2   5   22.03    2.38
  -2  -2  -5   23.48    1.88
   2   2   6    4.24    1.15
  -2  -2  -6    4.43    0.78
   2   2   6    3.69    1.02
   2   2   7  186.02    8.60
   2   2   7  174.79    7.92
   2   2   8   16.21    2.41
   2   2   8   15.63    2.24
   2   2   9   -0.15    0.64
   2   2   9   -0.03    0.39
   2   2  10   39.54    4.14
   2   2  10   41.49    4.07
   2   2  11    0.83    0.68
   2   2  11    1.14    0.90
   2   2  12   50.07    5.03
   2   2  12   46.88    4.68
   2   2  13   14.87    2.71
   2   2  13   17.91    2.99
   2   2  14    8.18    2.17
   2   2  14    6.33    1.88
   2   2  15    2.25    1.24
   2   2  15    0.85    0.74
   2   2  16   13.71    2.95
   2   2  16    9.65    2.43
   2   2  17    0.77    1.11
   2   2  17   -0.59    0.88
   2   2  18    8.58    2.46
   2   2  18    4.83    1.81
   2   2  19    2.59    1.40
   2   2  19    0.59    0.76
   2   2  20    4.67    1.88
  -2  -3  16   -1.16    1.06
  -2  -3  15   30.61    4.16
  -2  -3  14    3.35    1.38
  -2  -3  13   23.39    3.42
  -2  -3  12   31.19    3.82
  -2  -3  11   74.41    5.81
  -2  -3  10   89.41    6.26
  -2  -3  10  103.40    4.04
   2   3  -9    5.88    0.85
  -2  -3   9    5.99    1.54
  -2  -3   8    6.63    1.54
   2   3  -8    7.48    1.05
  -2  -3   7   20.37    2.58
   2   3  -7   21.12    1.91
   2   3  -6    2.41    0.68
  -2  -3   6    2.88    1.23
  -2  -3   6    2.18    0.77
  -2  -3   5   87.73    5.16
  -2  -3   5   82.89    4.57
  -2  -3   5   83.05    6.31
   2   3  -5   86.93    4.45
  -2  -3   4   27.44    2.34
  -2  -3   4   32.53    3.82
   2   3  -4   27.67    2.48
  -2  -3   3  357.02   10.14
  -2  -3   3  361.24   13.72
   2   3  -3  333.60   10.76
  -2  -3   3  352.93    9.67
  -2  -3   2    7.59    1.78
  -2  -3   2    8.81    1.08
   2   3  -2    8.49    1.49
   2   3  -2    8.63    1.12
  -2  -3   2    8.23    1.28
  -2  -3   2    8.72    1.07
  -2  -3   1   57.31    2.87
   2   3  -1   56.81    4.13
  -2  -3   1   55.64    3.57
  -2  -3   1   55.52    4.79
   2   3  -1   59.45    3.01
  -2  -3   1   52.97    2.63
  -2  -3   0    1.94    1.08
   2   3   0    1.05    0.40
  -2  -3   0    1.64    0.48
  -2  -3   0    1.46    0.55
   2   3   0    1.58    0.69
  -2  -3   0    1.89    0.43
   2   3   1  178.32    8.12
   2   3   1  171.63    6.73
  -2  -3  -1  177.42    5.85
  -2  -3  -1  165.13    4.96
  -2  -3  -1  179.22    7.22
  -2  -3  -2    8.59    1.06
   2   3   2    6.27    1.16
  -2  -3  -2    7.58    0.86
  -2  -3  -2    7.77    1.15
  -2  -3  -3   95.23    4.16
   2   3   3   88.46    4.98
   2   3   4   71.50    4.51
   2   3   4   63.36    3.75
  -2  -3  -4   68.51    3.29
   2   3   5   81.50    4.37
   2   3   5   78.19    5.09
  -2  -3  -5   85.83    3.59
  -2  -3  -6    3.64    0.63
   2   3   6    2.46    0.78
   2   3   6    2.91    0.80
   2   3   7   16.75    2.05
   2   3   7   17.93    2.47
   2   3   8    0.23    0.24
  -2  -3  -8    0.20    0.13
   2   3   8    0.18    0.53
   2   3   9    4.63    1.15
   2   3   9    3.30    1.27
   2   3  10    0.36    0.45
   2   3  10   -0.07    0.49
   2   3  11   43.07    4.51
   2   3  11   42.38    4.03
   2   3  12   62.34    5.69
   2   3  12   65.75    5.29
   2   3  13  332.30   13.55
   2   3  13  334.05   14.56
   2   3  14   33.40    4.06
   2   3  14   33.03    4.42
   2   3  15   10.61    2.35
   2   3  15   10.29    2.46
   2   3  16    0.18    0.50
   2   3  16    0.44    0.68
   2   3  17    0.75    0.59
   2   3  17   -0.83    0.96
   2   3  18    2.80    1.33
   2   3  18    1.10    0.96
   2   3  19    3.10    1.44
   2   3  20    2.34    1.34
  -2  -4  15   -0.70    0.87
  -2  -4  14    9.58    2.40
  -2  -4  13   -0.20    0.62
  -2  -4  12    9.62    2.20
  -2  -4  11    9.10    2.09
  -2  -4  10   16.10    2.68
   2   4  -9    0.95    0.50
  -2  -4   9    1.90    0.80
  -2  -4   8   59.36    5.62
  -2  -4   8   55.99    4.63
   2   4  -8   57.20    3.83
   2   4  -7   10.50    1.64
  -2  -4   7    8.84    1.76
  -2  -4   7    8.59    0.88
  -2  -4   7   11.98    2.46
  -2  -4   6   13.00    2.03
  -2  -4   6   17.00    1.25
   2   4  -6   16.35    2.11
  -2  -4   6   14.97    2.75
  -2  -4   5    0.04    0.65
   2   4  -5    0.42    0.38
  -2  -4   5    0.33    0.56
  -2  -4   5    0.09    0.11
  -2  -4   4   15.08    1.98
   2   4  -4   12.92    2.01
  -2  -4   4   12.22    2.42
  -2  -4   4   12.89    1.12
  -2  -4   3    4.35    1.47
   2   4  -3    4.93    1.25
  -2  -4   3    3.89    0.95
  -2  -4   3    5.98    0.78
   2   4  -2  345.99    9.14
  -2  -4   2  340.45   14.11
   2   4  -2  332.40   12.43
  -2  -4   2  357.47    8.86
  -2  -4   1   94.87    3.62
   2   4  -1   95.83    3.74
   2   4  -1  100.37    6.21
   2   4   0   25.28    2.34
   2   4   0   29.39    1.79
  -2  -4   0   27.48    1.81
   2   4   0   27.37    3.26
   2   4   1    0.97    1.05
   2   4   1    1.17    0.66
  -2  -4  -1    1.23    0.43
   2   4   2  120.17    7.38
   2   4   2  114.00    5.61
  -2  -4  -2  109.24    4.69
   2   4   3  314.63   10.83
  -2  -4  -3  316.84    8.88
   2   4   3  314.25   13.11
   2   4   4    5.81    1.62
  -2  -4  -4    6.99    0.92
   2   4   4    7.85    1.52
  -2  -4  -5    5.18    0.56
   2   4   5    6.30    1.35
  -2  -4  -5    5.68    0.76
  -2  -4  -6    7.01    0.75
   2   4   6    7.71    1.57
  -2  -4  -6    7.00    0.77
   2   4   6    4.97    0.98
  -2  -4  -7   35.36    1.81
  -2  -4  -7   25.52    1.30
   2   4   7   33.11    2.60
   2   4   7   36.27    3.64
  -2  -4  -8    0.57    0.21
   2   4   8   -0.14    0.47
   2   4   8    1.12    0.57
  -2  -4  -9   58.79    2.26
   2   4   9   68.79    4.20
   2   4   9   66.46    5.36
  -2  -4 -10   25.40    1.45
   2   4  10   27.10    3.49
   2   4  10   29.49    2.87
   2   4  11    1.34    0.83
   2   4  11    0.05    0.72
   2   4  12  251.55   12.22
   2   4  12  245.34   10.15
   2   4  13  179.93    8.76
   2   4  13  180.30   10.44
   2   4  14  164.07    8.72
   2   4  14  191.08   11.00
   2   4  15   -0.09    0.56
   2   4  15    0.98    1.05
   2   4  16   10.47    2.58
   2   4  17    7.95    2.36
   2   4  18   -0.11    0.50
   2   4  19   -0.50    0.92
  -2  -5  14   11.01    2.65
  -2  -5  13    3.53    1.38
  -2  -5  12    0.33    0.44
  -2  -5  11    2.64    1.20
  -2  -5  10   19.73    3.06
  -2  -5   9   13.29    2.48
  -2  -5   9   14.97    2.85
   2   5  -9   11.35    1.87
  -2  -5   8    6.80    1.99
   2   5  -8    4.35    1.22
  -2  -5   8    6.14    1.75
   2   5  -7   14.87    2.31
  -2  -5   7   12.84    2.73
  -2  -5   7   13.28    2.22
  -2  -5   6   46.98    4.06
   2   5  -6   45.98    4.21
  -2  -5   6   46.09    5.17
  -2  -5   5   11.97    1.91
  -2  -5   5   15.75    2.97
  -2  -5   5   13.92    0.75
   2   5  -5   11.73    2.16
  -2  -5   4   80.31    4.95
  -2  -5   4   80.97    2.57
   2   5  -4   85.52    6.00
  -2  -5   4   85.60    6.88
  -2  -5   3   19.63    3.15
  -2  -5   3   18.95    1.18
  -2  -5   3   18.96    2.24
   2   5  -3   19.66    2.89
  -2  -5   2  238.19    8.51
  -2  -5   2  239.03    6.10
   2   5  -2  245.44   11.03
   2   5  -2  228.77    6.66
   2   5  -1   51.33    4.84
  -2  -5   1   58.61    3.55
   2   5  -1   54.51    3.35
  -2  -5   1   55.81    2.45
   2   5  -1   56.51    2.58
   2   5   0  251.70    8.75
  -2  -5   0  256.29    8.22
  -2  -5   0  257.83    6.96
   2   5   0  265.54    6.70
   2   5   0  269.15   12.19
  -2  -5  -1   58.93    3.12
   2   5   1   52.86    3.69
   2   5   1   59.75    5.41
   2   5   2    0.51    0.62
   2   5   2    0.79    0.50
   2   5   3   88.64    7.00
  -2  -5  -3   88.40    3.81
   2   5   3   80.02    4.98
   2   5   4   33.24    3.23
   2   5   4   39.93    4.77
  -2  -5  -4   36.56    2.01
   2   5   5   37.69    4.71
  -2  -5  -5   37.37    1.71
   2   5   5   38.13    3.59
   2   5   6   15.09    3.00
   2   5   6   14.72    2.26
  -2  -5  -6   14.48    1.00
  -2  -5  -7    4.09    0.32
  -2  -5  -7    4.17    0.60
   2   5   7    4.49    1.27
  -2  -5  -8   10.81    0.57
  -2  -5  -8   10.20    1.02
   2   5   8   11.40    1.28
   2   5   9   60.49    5.22
   2   5   9   48.79    3.03
   2   5  10   15.73    1.76
   2   5  10   17.29    2.88
   2   5  11  169.15    9.78
   2   5  11  176.04    7.10
   2   5  12  133.05    8.81
   2   5  12  130.98    6.28
   2   5  13    0.35    0.99
   2   5  14    0.24    0.77
   2   5  15   -0.07    0.50
   2   5  16   19.84    3.80
   2   5  17    3.58    1.74
   2   5  18    3.86    1.66
  -2  -6  13   14.74    3.21
  -2  -6  12   10.28    2.51
  -2  -6  11    1.68    0.88
  -2  -6  10   -0.33    0.76
  -2  -6   9   26.99    3.59
   2   6  -9   22.03    3.00
  -2  -6   9   16.61    3.09
  -2  -6   8   12.02    2.34
  -2  -6   8   15.24    3.05
   2   6  -8    9.18    1.97
  -2  -6   7   11.06    2.61
  -2  -6   7   10.24    2.00
   2   6  -7    9.38    2.07
  -2  -6   6   30.12    4.33
  -2  -6   6   33.11    3.54
   2   6  -6   26.94    3.56
  -2  -6   5   16.13    2.36
  -2  -6   5   20.22    3.50
   2   6  -5   19.52    3.04
  -2  -6   4    0.18    0.86
  -2  -6   4    0.43    0.71
   2   6  -4   -0.13    0.50
  -2  -6   3   18.36    2.31
   2   6  -3   20.69    3.24
  -2  -6   2   39.76    3.19
   2   6  -2   42.23    4.74
   2   6  -2   37.84    2.06
   2   6  -1    6.07    1.68
   2   6  -1    7.86    0.84
  -2  -6   1    7.86    1.33
  -2  -6   1    8.91    0.89
   2   6  -1    7.51    1.27
  -2  -6   0   38.58    2.74
   2   6   0   39.79    3.10
   2   6   0   41.67    4.83
   2   6   0   37.69    1.80
  -2  -6  -1  159.28    5.70
   2   6   1  161.39    7.03
   2   6   1  164.49   10.01
  -2  -6  -2    3.96    0.75
   2   6   2    4.46    2.04
   2   6   2    3.65    1.12
  -2  -6  -3    0.33    0.25
   2   6   3    0.62    0.76
   2   6   3    0.06    0.29
  -2  -6  -3    0.15    0.13
  -2  -6  -4   22.85    1.30
   2   6   4   20.10    3.51
   2   6   4   21.79    2.65
  -2  -6  -4   22.41    1.41
   2   6   5    1.86    1.30
  -2  -6  -5    0.45    0.12
   2   6   5    0.44    0.65
   2   6   6   34.60    3.67
   2   6   6   30.75    4.58
   2   6   7  142.88    9.93
   2   6   7  127.24    7.54
  -2  -6  -7  123.99    3.92
   2   6   8  147.33   10.28
   2   6   8  137.12    8.19
   2   6   9    3.21    1.33
   2   6  10    0.82    0.72
   2   6  11   31.35    4.16
   2   6  12   22.59    3.64
   2   6  13   20.14    3.50
   2   6  14    4.03    1.71
   2   6  15    0.78    0.76
   2   6  16    1.51    1.49
   2   6  17    3.18    1.59
  -2  -7  12    2.88    1.72
  -2  -7  11    1.98    1.42
  -2  -7  10    6.51    1.98
  -2  -7   9   -0.22    0.41
  -2  -7   8    0.35    0.54
  -2  -7   8   -0.25    0.58
   2   7  -8   -0.67    0.46
  -2  -7   7   23.87    3.31
  -2  -7   7   22.14    3.82
   2   7  -7   20.80    3.32
  -2  -7   6   17.62    2.69
  -2  -7   6   18.30    3.45
   2   7  -6   15.07    2.92
  -2  -7   5    8.62    2.45
  -2  -7   5    9.70    2.05
   2   7  -5    6.45    1.87
  -2  -7   4   26.41    3.01
   2   7  -4   29.75    4.28
  -2  -7   4   29.61    4.54
  -2  -7   3   79.19    5.11
   2   7  -3   71.68    6.72
  -2  -7   2   64.90    4.39
   2   7  -2   69.65    6.64
   2   7  -2   64.01    3.53
   2   7  -1    0.55    0.49
  -2  -7   1    0.22    0.48
   2   7  -1    0.47    0.40
   2   7   0   -0.39    0.47
  -2  -7   0    0.80    0.52
   2   7   0    0.56    0.42
   2   7   1   59.08    6.34
  -2  -7  -1   59.11    3.42
   2   7   1   61.60    4.30
   2   7   2    2.33    0.95
   2   7   2    3.00    1.50
  -2  -7  -2    2.44    0.62
   2   7   3    3.24    1.64
  -2  -7  -3    4.65    0.76
   2   7   3    4.36    1.27
  -2  -7  -4   16.31    1.13
   2   7   4   21.41    3.95
   2   7   4   17.18    2.52
  -2  -7  -4   14.76    0.77
   2   7   5   62.14    4.97
   2   7   5   66.43    7.01
   2   7   6   57.52    6.58
   2   7   6   47.91    4.54
   2   7   7   34.41    5.08
   2   7   7   29.13    3.63
   2   7   8    4.36    1.62
   2   7   8    3.74    1.43
   2   7   9    7.76    2.47
   2   7   9    9.84    2.21
   2   7  10    9.30    2.32
   2   7  11   54.48    5.71
   2   7  12    1.85    1.34
   2   7  13    0.07    0.65
   2   7  14    1.52    1.25
   2   7  15   13.92    3.15
   2   7  16   -0.40    0.63
  -2  -8  11    2.84    1.38
  -2  -8  10    1.46    1.19
  -2  -8   9    1.64    1.30
  -2  -8   8    5.16    2.01
   2   8  -8    3.67    1.41
  -2  -8   7    2.06    1.28
  -2  -8   7    1.52    1.15
   2   8  -7   -0.53    0.90
  -2  -8   6   26.09    3.66
  -2  -8   6   24.24    4.10
   2   8  -6   18.24    3.32
  -2  -8   5    3.84    1.82
  -2  -8   5    6.48    1.72
   2   8  -5    3.49    1.51
  -2  -8   4   39.57    4.08
   2   8  -4   35.13    4.83
  -2  -8   4   36.67    5.17
  -2  -8   3    2.00    0.86
   2   8  -3    1.25    0.99
   2   8  -2    8.60    2.54
  -2  -8   2    7.20    1.57
  -2  -8   1   81.07    5.13
   2   8  -1   71.14    7.22
   2   8  -1   71.78    4.20
  -2  -8   0   35.93    3.16
   2   8   0   31.90    2.95
   2   8   0   36.53    5.23
  -2  -8  -1   40.96    3.03
   2   8   1   51.55    6.26
   2   8   1   48.69    3.87
  -2  -8  -2    2.89    0.64
   2   8   2    4.90    1.33
   2   8   3   29.48    3.20
   2   8   3   31.93    4.97
   2   8   4    1.14    1.21
   2   8   4   -0.08    0.48
   2   8   5   31.14    3.61
   2   8   5   40.04    5.60
   2   8   6   11.50    3.07
   2   8   6    7.86    1.83
   2   8   7   44.45    4.66
   2   8   7   58.99    7.17
   2   8   8   93.97    7.09
   2   8   8   76.44    8.20
   2   8   9    2.07    1.29
   2   8   9    4.12    1.57
   2   8  10   51.18    6.57
   2   8  10   43.69    5.07
   2   8  11    0.47    0.66
   2   8  12    7.87    2.33
   2   8  13   -0.04    0.92
   2   8  14    1.10    0.94
   2   8  15    1.89    1.31
  -2  -9   9   -0.99    0.91
  -2  -9   8    7.02    1.99
  -2  -9   7   13.96    2.65
   2   9  -7   10.45    2.61
  -2  -9   6    0.80    0.94
  -2  -9   6    1.23    1.02
   2   9  -6    0.20    0.35
  -2  -9   5   15.36    3.44
  -2  -9   5    9.74    2.06
   2   9  -5    8.78    2.47
   2   9  -4    2.79    1.35
  -2  -9   4    3.23    1.21
   2   9  -3    1.83    1.32
  -2  -9   3    1.56    0.83
  -2  -9   2   38.79    3.47
   2   9  -2   43.54    5.80
  -2  -9   1    2.31    0.82
   2   9  -1    2.02    1.40
   2   9   0   -0.18    0.87
  -2  -9   0    0.93    0.51
   2   9   1    3.95    1.61
   2   9   1    0.72    0.23
   2   9   2   52.40    4.37
   2   9   2   45.52    6.23
   2   9   3    3.79    1.93
   2   9   3    0.80    0.76
   2   9   4    0.17    0.55
   2   9   4   -0.48    0.75
   2   9   5   13.61    3.34
   2   9   5   12.77    2.30
   2   9   6   -0.60    1.05
   2   9   6   -0.24    0.43
   2   9   7    4.94    2.27
   2   9   7    5.88    1.75
   2   9   8    2.98    1.85
   2   9   8    3.04    1.16
   2   9   9    1.06    0.70
   2   9   9    2.55    1.26
   2   9  10    2.98    1.18
   2   9  10    4.51    1.71
   2   9  11   -2.02    1.41
   2   9  11   -0.25    0.63
   2   9  12    6.61    2.17
   2   9  13    7.00    2.28
   2   9  14    4.53    1.91
  -2 -10   8    9.99    2.19
  -2 -10   8    7.22    1.80
   2  10  -7    2.22    1.26
  -2 -10   7    0.94    0.62
   2  10  -6   10.28    2.77
  -2 -10   6    6.27    1.64
   2  10  -5   24.76    4.39
  -2 -10   5   22.50    2.94
  -2 -10   5   34.64    5.17
   2  10  -4    1.32    1.13
  -2 -10   4    0.51    0.62
   2  10  -3    4.09    1.74
   2  10  -2    0.81    0.73
   2  10  -1    3.82    1.73
   2  10   0    1.26    1.09
   2  10   1    3.16    1.79
   2  10   2    6.35    2.30
   2  10   3   -0.45    0.95
   2  10   3   -0.51    0.67
   2  10   4    6.79    2.56
   2  10   4    2.14    1.00
   2  10   5    3.33    1.91
   2  10   5    5.00    1.55
   2  10   6    7.35    2.75
   2  10   6   10.56    2.26
   2  10   7    6.20    2.52
   2  10   7    3.70    1.49
   2  10   8    1.28    1.26
   2  10   8    1.30    0.64
   2  10   9    1.49    1.18
   2  10   9    2.37    1.22
   2  10  10    3.83    1.62
   2  10  10    2.36    1.29
   2  10  11   18.09    3.43
   2  10  11   22.24    4.50
   2  10  12    0.85    0.89
   2  11  -6    0.21    0.56
   2  11  -5    0.77    0.85
   2  11  -4    1.70    1.08
   2  11  -3    1.24    0.97
   2  11  -2   -0.49    0.77
   2  11  -1    4.76    2.09
   2  11   0    6.74    2.62
   2  11   1    0.85    1.01
   2  11   2    0.65    1.42
   2  11   3    0.99    1.05
   2  11   4   11.91    3.48
   2  11   5    1.97    1.67
   2  11   6   12.30    3.51
   2  11   6   12.90    2.58
   2  11   7    6.77    2.59
   2  11   7    5.68    1.75
   2  11   8    9.18    2.98
   2  11   8    9.32    2.31
   2  11   9    4.19    1.61
   2  11  10    3.57    1.65
  -3   9   7   -0.67    0.73
  -3   9   6   -0.40    0.58
  -3   9   5   -0.91    0.83
  -3   9   4   -0.34    0.88
  -3   9   3    1.16    0.95
  -3   9   2    3.05    1.62
  -3   9   1    3.41    1.59
  -3   9   0    4.75    2.09
  -3   9  -1   -2.02    1.27
  -3   9  -2    2.55    1.17
  -3   8   7   -1.07    0.85
  -3   8   6    2.12    1.23
  -3   8   6   -1.36    0.84
  -3   8   5    0.43    0.57
  -3   8   5    1.72    1.09
  -3   8   4    0.77    0.55
  -3   8   4    4.39    1.78
  -3   8   3   -0.01    0.69
  -3   8   3    0.65    0.99
  -3   8   2    2.87    1.33
  -3   8   2    3.30    1.51
  -3   8   1    2.58    1.46
  -3   8   1    0.29    0.48
  -3   8   0   -0.89    0.66
  -3   8   0    0.68    0.47
  -3   8  -1    3.29    1.51
   3  -8   3   13.56    3.00
   3  -8   4    1.72    1.25
   3  -8   5    3.92    1.72
   3  -8   6    1.23    1.09
   3  -8   7    2.76    1.61
   3  -8   8    0.41    0.88
   3  -8   9   -0.83    0.89
  -3   7  12    5.17    1.49
  -3   7  11    0.16    0.35
  -3   7  10    0.76    0.56
  -3   7   9    1.20    0.79
  -3   7   8   -0.79    0.71
  -3   7   8    1.34    0.85
  -3   7   7    0.95    0.79
  -3   7   7    0.32    0.30
  -3   7   6   10.89    2.60
  -3   7   6    5.40    1.65
  -3   7   5    0.98    0.69
  -3   7   5    2.36    1.39
  -3   7   4    2.74    1.24
  -3   7   4    1.28    1.01
  -3   7   3    1.00    1.08
  -3   7   3    1.05    1.41
  -3   7   2   69.81    6.80
  -3   7   2   62.29    6.23
  -3   7   1    2.31    1.17
   3  -7  -1    7.27    2.07
  -3   7   0    5.81    1.83
   3  -7   0    9.58    2.32
   3  -7   1    7.66    2.25
   3  -7   2    2.13    1.31
   3  -7   3   21.26    3.82
   3  -7   4    1.08    0.89
   3  -7   5   18.17    3.67
   3  -7   6    3.48    1.57
   3  -7   7    0.72    0.95
   3  -7   8    2.73    1.80
   3  -7   9    4.09    1.87
   3  -7  10    1.12    0.78
   3  -7  11    2.36    1.52
  -3   6  14   -0.62    0.59
  -3   6  13   -0.23    0.43
  -3   6  12    0.82    0.62
  -3   6  11    0.46    0.49
  -3   6  10    0.32    0.29
  -3   6   9    0.21    0.48
  -3   6   8    0.62    0.46
  -3   6   8    0.60    0.64
  -3   6   7    2.19    0.89
  -3   6   7    4.32    1.49
  -3   6   6   32.02    4.23
  -3   6   6   32.28    4.22
  -3   6   5    1.57    0.98
  -3   6   5    3.12    1.48
  -3   6   4   45.85    5.17
  -3   6   4   45.99    5.30
  -3   6   3   51.51    5.60
  -3   6   2  230.27   12.87
   3  -6  -2  259.91   12.81
   3  -6  -1   89.99    7.39
  -3   6   1   86.01    7.65
  -3   6   0  161.42   10.80
   3  -6   0  164.99   10.30
   3  -6   1   10.88    2.60
   3  -6   2   31.73    4.54
   3  -6   3   82.01    7.51
   3  -6   4    0.00    0.83
   3  -6   5   38.06    5.30
   3  -6   6   29.93    4.78
   3  -6   7    4.14    1.91
   3  -6   8    3.11    1.76
   3  -6   9    1.30    0.51
   3  -6  10    2.53    1.95
   3  -6  11    5.70    2.30
   3  -6  12   10.08    3.09
  -3   5  14    7.78    1.91
  -3   5  13    0.68    0.66
  -3   5  12    1.19    0.85
  -3   5  11    4.56    1.51
  -3   5  10   12.37    2.43
  -3   5   9   17.41    2.94
  -3   5   8    0.28    0.57
  -3   5   8   -0.25    0.67
  -3   5   7    0.37    0.72
  -3   5   7    0.75    0.81
  -3   5   6   24.78    3.45
  -3   5   6   15.64    2.93
  -3   5   5   19.59    3.36
  -3   5   5   21.14    3.29
  -3   5   4    2.19    0.97
  -3   5   3   11.91    2.65
  -3   5   2   35.89    4.73
   3  -5  -2   43.86    5.03
  -3   5   1    1.46    0.92
   3  -5  -1    1.53    1.26
  -3   5   0   70.15    6.66
   3  -5   0   67.47    6.45
   3  -5   1    6.89    2.16
   3  -5   2    8.35    2.38
   3  -5   3   18.43    3.49
   3  -5   4    5.20    1.92
   3  -5   5    8.70    2.33
   3  -5   6    3.17    1.53
   3  -5   7   18.57    3.69
   3  -5   8   34.19    5.16
   3  -5   9   20.42    4.09
   3  -5  10    6.46    2.08
   3  -5  11    4.51    2.32
   3  -5  12    5.10    2.38
   3  -5  13    3.32    1.92
   3  -5  14    0.34    0.52
  -3   4  15    0.30    0.69
  -3   4  14    1.34    1.01
  -3   4  13    1.63    1.02
  -3   4  12    0.31    0.64
  -3   4  11   11.37    2.39
  -3   4  10    0.79    0.67
  -3   4   9    0.97    0.93
  -3   4   8   28.88    3.23
  -3   4   8   23.30    3.39
  -3   4   7   56.55    4.74
  -3   4   7   55.16    5.35
  -3   4   6    7.35    1.80
  -3   4   6    6.35    1.77
  -3   4   5   56.44    5.58
  -3   4   4    2.37    1.29
  -3   4   3   37.42    4.72
  -3   4   2   34.07    4.50
  -3   4   1    2.84    1.62
   3  -4  -1    1.61    1.25
   3  -4   0    1.63    1.01
   3  -4   1    0.88    0.39
   3  -4   2    0.93    1.28
   3  -4   3   36.27    4.69
   3  -4   4    0.99    0.84
   3  -4   5   -0.36    0.86
   3  -4   6    1.09    1.31
   3  -4   7    3.28    1.76
   3  -4   8   77.18    7.64
   3  -4   9  105.03    9.15
   3  -4  10   98.03    9.13
   3  -4  11   76.23    8.16
   3  -4  12    0.46    1.19
   3  -4  13    4.37    2.20
   3  -4  14   -1.92    1.88
   3  -4  15   -2.30    1.55
  -3   3  16    5.47    1.67
  -3   3  15    7.41    2.06
  -3   3  14    0.52    0.92
  -3   3  13    7.90    1.58
  -3   3  13   11.53    2.47
  -3   3  12    9.00    2.10
  -3   3  11    0.58    0.72
  -3   3  10   93.38    6.77
  -3   3   9   15.75    2.82
  -3   3   8   24.42    2.58
  -3   3   8   23.82    3.44
  -3   3   7    0.59    0.35
  -3   3   7    0.63    0.50
  -3   3   6    0.68    0.55
  -3   3   6    0.05    0.44
  -3   3   5    0.83    0.95
  -3   3   4  313.10   14.07
  -3   3   3   -0.01    0.45
  -3   3   2   29.39    4.09
  -3   3   1  126.31    8.84
   3  -3  -1  154.32    9.47
   3  -3   0  173.34   10.12
   3  -3   1   69.94    6.28
   3  -3   2   16.87    3.06
   3  -3   3   10.45    2.51
   3  -3   4    5.52    1.76
   3  -3   5    6.85    2.02
   3  -3   6   28.91    2.52
   3  -3   6   32.05    4.52
   3  -3   7    2.16    1.28
   3  -3   8    3.58    2.15
   3  -3   9   37.68    5.36
   3  -3  10  308.68   16.42
   3  -3  11   17.23    3.83
   3  -3  12  114.94    9.99
   3  -3  13   11.05    3.09
   3  -3  14    6.46    2.25
   3  -3  15    1.20    1.07
   3  -3  16    4.70    2.14
  -3   2  17    0.31    0.47
  -3   2  16    1.82    0.94
  -3   2  15    0.30    0.41
  -3   2  15    1.42    0.80
  -3   2  14    7.27    1.57
  -3   2  14   10.22    2.32
  -3   2  13    0.04    0.35
  -3   2  13    0.04    0.31
  -3   2  12   -0.20    0.74
  -3   2  11   36.07    4.20
  -3   2  10    1.53    0.76
  -3   2   9   15.42    2.60
  -3   2   8    2.36    0.98
  -3   2   8    2.36    0.62
  -3   2   7   55.19    3.57
  -3   2   7   49.64    4.85
  -3   2   6    0.94    0.53
  -3   2   5  154.73    8.99
  -3   2   4  264.24   12.43
  -3   2   3  180.23   10.09
  -3   2   2  221.45   11.48
  -3   2   1    4.25    1.32
   3  -2  -1    6.30    1.88
   3  -2   0   39.35    4.54
  -3   2   0   38.31    4.54
   3  -2   1    0.16    0.73
   3  -2   2    1.69    0.99
   3  -2   3  161.81    9.76
   3  -2   4    8.72    2.26
   3  -2   5  196.14   11.24
   3  -2   5  203.00    7.71
   3  -2   6    1.05    1.10
   3  -2   6    1.19    0.46
   3  -2   7   43.52    2.54
   3  -2   7   43.76    5.31
   3  -2   8   11.47    2.93
   3  -2   9   29.65    4.58
   3  -2  10   86.28    8.06
   3  -2  11   10.87    2.89
   3  -2  12    3.22    1.57
   3  -2  13   55.40    6.92
   3  -2  14   -0.10    0.67
   3  -2  15   -0.70    1.40
   3  -2  16    1.90    1.22
   3  -2  17    0.81    1.00
  -3   1  16    3.24    1.18
  -3   1  16    2.22    0.99
  -3   1  15    4.31    1.35
  -3   1  14    7.74    1.68
  -3   1  14    4.49    1.54
  -3   1  13    4.89    1.36
  -3   1  13    6.40    1.86
  -3   1  12    5.89    1.76
  -3   1  12    7.86    1.78
  -3   1  11  122.66    7.91
  -3   1  10   59.63    5.30
  -3   1   9   -0.23    0.96
  -3   1   8   19.43    1.13
  -3   1   8   21.27    3.07
  -3   1   7   12.34    1.22
  -3   1   7   11.33    2.23
  -3   1   6    0.94    0.88
  -3   1   5  131.86    7.94
  -3   1   4   34.29    3.87
  -3   1   3   13.01    2.42
  -3   1   2   76.44    6.17
  -3   1   1   57.86    5.33
  -3   1   0    1.20    0.75
   3  -1   0    1.65    0.97
   3  -1   1   72.93    6.16
   3  -1   2  323.54   13.96
   3  -1   3   13.55    2.71
   3  -1   4   19.88    2.21
   3  -1   4   17.25    2.87
   3  -1   5  114.71    7.97
   3  -1   5  109.50    5.13
   3  -1   6  146.15    5.67
   3  -1   6  152.65    9.43
   3  -1   7   21.52    3.49
   3  -1   8    3.82    1.68
   3  -1   9    6.45    2.16
   3  -1  10   32.40    4.68
   3  -1  11   34.93    4.97
   3  -1  12  102.44    8.92
   3  -1  13    5.68    2.08
   3  -1  14    2.02    1.40
   3  -1  15    5.51    2.27
   3  -1  16    0.20    0.67
   3  -1  17   -0.15    0.95
   3  -1  18    2.72    2.01
  -3   0  17    0.49    0.53
  -3   0  16    2.95    1.09
  -3   0  15   -0.73    0.62
  -3   0  15    2.08    0.85
  -3   0  14    9.45    2.00
  -3   0  13    6.64    1.63
  -3   0  13    4.49    1.51
  -3   0  12    4.16    1.29
  -3   0  12    6.49    1.78
  -3   0  11    5.16    1.55
  -3   0  10   38.79    4.18
  -3   0   9   28.90    3.54
  -3   0   8   46.36    4.35
  -3   0   7    1.25    0.70
  -3   0   6    7.34    1.78
  -3   0   5  309.58   12.32
  -3   0   4  109.32    6.91
  -3   0   3   15.21    2.56
  -3   0   2    8.89    2.01
  -3   0   1   19.57    2.92
  -3   0   0   68.78    5.57
   3   0   1   43.70    4.61
   3   0   2  221.09   10.77
   3   0   3   29.92    3.81
   3   0   3   27.94    2.69
   3   0   4    2.74    0.78
   3   0   4    3.18    1.20
   3   0   5    1.69    0.60
   3   0   5    0.87    0.74
   3   0   6  113.07    7.87
   3   0   7   32.59    4.12
   3   0   8  127.51    8.63
   3   0   9  354.04   15.67
   3   0  10    2.42    1.68
   3   0  10    1.23    0.71
   3   0  11   13.75    2.94
   3   0  11    9.22    2.15
   3   0  12    3.04    1.59
   3   0  12    1.10    0.72
   3   0  13    3.80    1.30
   3   0  13    4.93    1.65
   3   0  14    0.41    1.08
   3   0  14    0.54    0.38
   3   0  15    3.65    1.50
   3   0  15    3.36    1.60
   3   0  16    0.13    0.97
   3   0  16    0.87    0.81
   3   0  17   -0.38    1.33
   3   0  18    2.23    1.25
   3   0  19    0.96    0.91
  -3  -1  16    3.27    1.23
  -3  -1  15    7.64    1.89
  -3  -1  14    0.06    0.38
  -3  -1  13    4.33    1.38
  -3  -1  12   17.57    2.79
  -3  -1  12   13.16    2.62
  -3  -1  11    4.15    1.28
  -3  -1  11    5.90    1.60
  -3  -1  10    0.82    0.47
  -3  -1   9   14.56    2.41
  -3  -1   8   39.08    3.95
  -3  -1   7   33.81    3.52
  -3  -1   6  288.47   11.26
  -3  -1   5    0.60    0.25
  -3  -1   5    0.45    0.46
  -3  -1   4   58.59    4.55
  -3  -1   3   19.72    2.65
  -3  -1   2    6.74    1.64
  -3  -1   1   90.15    5.84
  -3  -1   0    3.61    1.19
  -3  -1   0    4.02    1.33
   3   1   1   28.52    3.57
  -3  -1  -1   26.37    3.18
  -3  -1  -1   25.02    3.20
   3   1   2  107.23    7.06
  -3  -1  -2   94.22    6.36
   3   1   3    5.11    1.56
  -3  -1  -3    7.63    1.70
   3   1   4    9.16    2.06
  -3  -1  -4    8.54    1.73
  -3  -1  -5    7.01    1.49
   3   1   5    6.31    1.67
   3   1   6  180.22    9.69
  -3  -1  -6  186.60    8.10
   3   1   7   54.84    4.80
  -3  -1  -7   48.97    3.72
   3   1   7   43.74    4.70
   3   1   8  400.91   15.05
  -3  -1  -8  378.67   11.99
   3   1   8  402.02   15.89
   3   1   9   17.77    3.07
   3   1   9   15.94    2.68
  -3  -1  -9   16.42    1.94
   3   1  10  168.30    9.61
  -3  -1 -10  175.90    6.80
   3   1  10  182.44   10.53
   3   1  11   19.05    3.10
  -3  -1 -11   18.86    1.86
   3   1  11   23.24    3.79
   3   1  12    9.06    2.45
   3   1  12    6.21    1.87
   3   1  13   33.20    4.38
   3   1  13   47.55    5.68
   3   1  14    4.88    1.46
   3   1  14    6.43    1.93
   3   1  15    8.31    2.51
   3   1  15    8.42    2.22
   3   1  16    0.01    1.01
   3   1  16   -0.61    0.89
   3   1  17    2.66    1.44
   3   1  17    2.10    1.43
   3   1  18    4.32    2.05
   3   1  18    2.42    1.36
   3   1  19    0.02    0.58
   3   1  20    0.01    0.81
  -3  -2  16    0.34    0.39
  -3  -2  15    0.38    0.66
  -3  -2  14   -0.15    0.51
  -3  -2  13    0.53    0.75
  -3  -2  12    0.52    0.56
  -3  -2  11    0.58    0.57
  -3  -2  10    1.75    0.57
  -3  -2  10    3.44    1.29
  -3  -2   9   46.78    4.36
  -3  -2   8    0.61    0.62
  -3  -2   7  168.39    8.20
  -3  -2   6  125.05    6.70
  -3  -2   5   69.16    4.73
  -3  -2   5   78.60    3.23
  -3  -2   4  473.71   11.79
  -3  -2   4  441.91   14.15
  -3  -2   3   38.60    4.53
  -3  -2   3   28.94    2.96
  -3  -2   3   39.84    2.71
  -3  -2   2    0.35    0.28
  -3  -2   2    0.70    0.54
  -3  -2   2    0.67    0.32
  -3  -2   1   21.64    2.17
  -3  -2   1   21.64    2.52
  -3  -2   1   20.79    3.27
  -3  -2   0  182.66    7.96
  -3  -2   0  186.59    9.84
  -3  -2  -1  115.72    6.23
  -3  -2  -1  112.21    7.34
  -3  -2  -2   36.35    3.89
  -3  -2  -3    1.55    0.95
   3   2   3    1.20    0.87
  -3  -2  -4   29.72    3.36
   3   2   4   30.23    3.53
   3   2   5  108.31    6.73
  -3  -2  -5  105.20    6.37
   3   2   5  113.32    7.07
   3   2   6   40.38    4.15
  -3  -2  -6   48.87    4.07
   3   2   6   41.04    4.17
   3   2   7  353.96   13.86
  -3  -2  -7  337.38   12.25
   3   2   7  365.80   14.08
   3   2   8    1.57    1.01
   3   2   8    0.45    0.71
   3   2   9    1.05    0.89
   3   2   9   -0.25    0.83
   3   2  10   93.83    7.13
   3   2  10  106.58    7.55
   3   2  11    8.53    2.24
   3   2  11   10.42    2.30
   3   2  12   21.06    3.45
   3   2  12   21.53    3.56
   3   2  13    1.52    1.51
   3   2  13    0.40    0.65
   3   2  14   18.22    3.49
   3   2  14   14.41    3.06
   3   2  15    0.88    0.46
   3   2  15    2.26    1.32
   3   2  16   27.37    4.48
   3   2  16   26.98    4.34
   3   2  17   13.66    3.16
   3   2  17   13.02    3.00
   3   2  18    6.41    2.34
   3   2  18    2.86    1.44
   3   2  19    1.67    0.83
   3   2  19    2.62    1.47
   3   2  20    4.70    1.97
  -3  -3  15    0.14    0.35
  -3  -3  14    0.90    0.52
  -3  -3  13    0.12    0.67
  -3  -3  12    5.70    1.78
  -3  -3  11   27.80    3.60
  -3  -3  10   31.25    3.70
  -3  -3   9   18.22    2.77
  -3  -3   8   23.67    3.12
  -3  -3   8   24.24    3.05
  -3  -3   7    0.48    0.53
  -3  -3   6    8.96    1.73
  -3  -3   5   37.52    2.45
  -3  -3   5   36.20    3.18
  -3  -3   5   36.26    4.67
  -3  -3   4  187.51    6.69
  -3  -3   4  174.43    7.38
  -3  -3   4  186.00   10.84
  -3  -3   3  112.39    5.47
  -3  -3   3  119.15    5.32
  -3  -3   3  113.59    8.20
  -3  -3   2    1.16    0.49
  -3  -3   2    0.64    0.65
  -3  -3   2    0.91    0.49
  -3  -3   1   -0.24    0.54
  -3  -3   1    0.07    0.20
  -3  -3   0  163.57    6.73
  -3  -3   0  177.21    9.91
  -3  -3  -1   32.11    2.73
  -3  -3  -1   34.61    4.26
  -3  -3  -2   54.51    5.06
  -3  -3  -2   55.17    3.68
   3   3   3   51.48    4.27
  -3  -3  -3   48.93    4.70
   3   3   4  113.65    6.84
   3   3   4  108.19    6.63
   3   3   5    5.23    1.37
   3   3   5    5.12    1.55
   3   3   6   51.26    4.75
   3   3   6   51.24    4.47
   3   3   7  291.10   12.39
   3   3   7  269.45   11.41
   3   3   8   -0.18    1.04
   3   3   8    0.04    0.64
   3   3   9   17.80    3.05
   3   3   9   13.83    2.48
   3   3  10   19.61    2.99
   3   3  10   19.54    3.23
   3   3  11    3.74    1.41
   3   3  11    1.80    0.59
   3   3  12    3.80    1.50
   3   3  12    4.77    1.52
   3   3  13  116.08    8.73
   3   3  13  113.05    8.16
   3   3  14    5.34    1.68
   3   3  14    6.31    1.94
   3   3  15   11.89    2.66
   3   3  15    8.17    2.48
   3   3  16    0.61    0.91
   3   3  16   -0.19    0.90
   3   3  17    0.95    0.65
   3   3  17    5.60    2.03
   3   3  18    5.75    2.05
   3   3  18    6.02    2.01
   3   3  19    7.53    2.31
   3   3  20    1.24    1.23
  -3  -4  14    4.07    1.55
  -3  -4  13   -0.40    0.84
  -3  -4  12    1.62    0.97
  -3  -4  11   49.43    4.98
  -3  -4  10    2.79    1.16
  -3  -4   9    4.13    1.39
  -3  -4   8   40.41    4.18
  -3  -4   7   52.54    5.86
  -3  -4   7   60.24    4.98
  -3  -4   6   43.85    3.68
  -3  -4   6   35.97    4.85
  -3  -4   5   33.84    4.70
  -3  -4   5   37.10    3.18
  -3  -4   4    7.75    1.36
  -3  -4   4    8.26    2.27
  -3  -4   3  309.94   14.71
  -3  -4   3  306.50    9.65
  -3  -4   2   12.61    1.53
  -3  -4   2   12.16    2.62
  -3  -4   1   36.46    2.47
   3   4  -1   37.88    2.80
  -3  -4   1   39.73    4.86
  -3  -4   0   76.62    3.60
  -3  -4   0   77.02    6.66
   3   4   0   70.11    3.81
  -3  -4  -1   65.25    5.94
  -3  -4  -1   53.68    3.01
  -3  -4  -2    1.87    0.55
   3   4   2    0.15    0.55
  -3  -4  -3    6.84    1.07
   3   4   3    6.73    1.52
   3   4   4  111.94    6.78
   3   4   5   46.48    4.48
   3   4   6  282.51   12.19
   3   4   6  276.08   10.62
   3   4   7  147.45    8.67
   3   4   7  140.22    7.15
   3   4   8   -0.14    0.43
   3   4   8    0.50    0.57
   3   4   9   76.07    6.46
   3   4   9   70.96    5.20
   3   4  10    1.36    0.92
   3   4  10    2.06    0.80
   3   4  11   -0.19    1.15
   3   4  11    0.37    0.51
   3   4  12    8.97    2.45
   3   4  12    4.66    1.48
   3   4  13   56.75    6.13
   3   4  13   45.48    4.67
   3   4  14    1.49    1.00
   3   4  14    1.36    1.01
   3   4  15    8.54    2.13
   3   4  15    6.64    2.13
   3   4  16   19.27    3.80
   3   4  17    1.12    0.85
   3   4  18    4.71    1.91
   3   4  19    1.52    1.09
  -3  -5  13    0.89    0.83
  -3  -5  12   -0.18    0.39
  -3  -5  11    6.18    1.72
  -3  -5  10   35.31    4.13
  -3  -5   9   21.85    3.19
  -3  -5   8  237.65   11.10
  -3  -5   8  265.65   14.04
  -3  -5   7   20.39    2.89
   3   5  -7   19.16    2.45
  -3  -5   7   25.82    4.29
   3   5  -6   11.17    1.93
  -3  -5   6   16.18    2.55
  -3  -5   6   18.96    3.61
  -3  -5   5   17.35    2.52
  -3  -5   5   17.23    3.42
   3   5  -5   18.24    2.70
  -3  -5   4   27.91    3.13
   3   5  -4   27.79    3.38
  -3  -5   4   32.72    4.60
   3   5  -3    0.24    0.38
  -3  -5   3   -0.13    0.73
   3   5  -2    0.48    0.64
  -3  -5   2   -0.46    0.92
  -3  -5   2    0.50    0.39
   3   5  -1    9.17    1.26
  -3  -5   1   11.60    2.68
   3   5  -1   10.13    2.16
  -3  -5   1   13.17    1.35
  -3  -5   0    3.70    1.57
   3   5   0    3.45    0.76
   3   5   0    1.88    1.03
  -3  -5   0    3.63    0.66
   3   5   1   40.85    3.70
  -3  -5  -1   43.54    2.03
   3   5   1   45.85    4.86
   3   5   2  152.33    7.81
  -3  -5  -2  152.73    4.17
   3   5   2  157.15    9.55
   3   5   3  207.28    9.55
  -3  -5  -3  203.79    5.01
  -3  -5  -4    3.05    0.47
   3   5   4    6.19    1.76
  -3  -5  -4    4.62    1.04
  -3  -5  -5    0.00    0.19
   3   5   5    0.49    0.92
  -3  -5  -5   -0.17    0.29
   3   5   6  523.66   17.72
  -3  -5  -6  476.03   12.30
  -3  -5  -7   -0.03    0.16
   3   5   7    0.16    0.51
   3   5   7    0.72    0.49
   3   5   8   58.37    5.51
   3   5   8   53.33    3.87
   3   5   9   28.79    4.02
   3   5   9   18.51    2.28
   3   5  10   -1.16    1.24
   3   5  10    0.18    0.61
   3   5  11   13.30    2.84
   3   5  11    7.67    1.58
   3   5  12  136.45    9.73
   3   5  12  130.59    7.12
   3   5  13    0.04    0.58
   3   5  13    0.17    0.44
   3   5  14    6.61    2.02
   3   5  15    0.83    0.87
   3   5  16   -0.02    0.76
   3   5  17    1.90    1.28
   3   5  18   -2.58    1.56
  -3  -6  12   -0.44    0.72
  -3  -6  11   12.66    2.57
  -3  -6  10    2.95    1.14
  -3  -6   9   38.22    4.33
  -3  -6   9   43.11    5.43
  -3  -6   8   77.59    6.09
  -3  -6   8   95.38    8.29
   3   6  -7  134.90    7.59
  -3  -6   7  138.57    8.08
  -3  -6   7  139.46   10.26
  -3  -6   6  162.43    8.49
   3   6  -6  159.06    8.62
  -3  -6   6  151.93   11.03
   3   6  -5    1.40    0.83
  -3  -6   5    0.73    0.52
  -3  -6   5    1.08    1.14
   3   6  -4    0.16    0.62
  -3  -6   4    1.23    0.54
  -3  -6   4    0.37    0.86
   3   6  -3    4.36    1.52
  -3  -6   3    3.53    1.67
  -3  -6   3    4.87    1.22
  -3  -6   2    7.27    2.32
   3   6  -2    5.40    1.74
  -3  -6   2    4.93    1.20
  -3  -6   1   28.33    4.56
  -3  -6   1   19.79    2.33
   3   6  -1   26.12    3.81
   3   6  -1   20.03    1.71
   3   6   0   14.23    2.93
   3   6   0   13.41    1.32
   3   6   1    1.37    0.93
   3   6   1    3.34    1.10
   3   6   2   10.80    2.59
   3   6   2    7.73    1.71
   3   6   3   26.77    3.25
   3   6   3   28.85    4.28
   3   6   4   21.43    2.93
   3   6   4   19.92    3.69
  -3  -6  -4   23.47    2.08
   3   6   5   18.49    2.89
  -3  -6  -5   18.52    1.67
   3   6   6   25.81    3.55
  -3  -6  -6   23.08    1.69
   3   6   7   27.55    3.77
   3   6   8   -0.54    1.11
   3   6   9   88.71    7.46
   3   6  10  184.07   11.11
   3   6  11   10.02    2.68
   3   6  12    2.19    1.38
   3   6  13   14.40    3.25
   3   6  14    3.75    1.89
   3   6  15    8.22    2.53
   3   6  16    1.65    1.11
   3   6  17    4.05    1.89
  -3  -7  11   -0.11    0.57
  -3  -7  10    2.05    0.91
  -3  -7   9    0.96    0.72
  -3  -7   9    2.65    1.33
  -3  -7   8    5.56    1.63
  -3  -7   8    2.53    1.41
   3   7  -7   17.21    2.86
  -3  -7   7   22.26    3.19
  -3  -7   7   17.88    3.67
  -3  -7   6   33.77    5.09
  -3  -7   6   34.07    3.76
   3   7  -6   31.78    4.02
  -3  -7   5   34.02    3.66
   3   7  -5   33.19    4.25
  -3  -7   5   32.00    4.97
   3   7  -4   -0.37    0.42
  -3  -7   4   -0.33    0.35
  -3  -7   4    0.76    0.77
   3   7  -3   38.12    4.71
  -3  -7   3   39.07    3.61
  -3  -7   3   39.79    5.57
  -3  -7   2    2.03    1.40
   3   7  -2    3.63    1.60
  -3  -7   2    3.09    0.98
   3   7  -1   11.66    2.69
  -3  -7   1    8.98    1.55
  -3  -7   0   20.51    2.25
   3   7   0   24.24    3.95
   3   7   0   21.54    2.62
   3   7   1   23.30    4.04
  -3  -7  -1   19.63    2.05
   3   7   1   19.21    2.60
   3   7   2    7.48    1.75
  -3  -7  -2    9.69    1.33
   3   7   2    8.45    2.34
   3   7   3    9.71    2.02
   3   7   3   13.98    3.12
  -3  -7  -3   11.36    1.33
  -3  -7  -4   31.00    2.05
   3   7   4   23.70    3.36
   3   7   4   26.97    4.54
  -3  -7  -5    5.63    0.77
   3   7   5    4.24    1.68
   3   7   5    5.26    1.58
   3   7   6   -0.19    1.09
   3   7   6   -0.07    0.84
   3   7   7   24.91    3.74
   3   7   8   37.67    4.71
   3   7   9   12.95    2.95
   3   7  10   -1.00    1.15
   3   7  11   22.31    3.95
   3   7  12    3.35    1.49
   3   7  13    9.54    2.63
   3   7  14   -0.44    1.09
   3   7  15   -0.09    0.63
   3   7  16    9.93    3.14
  -3  -8  10    3.17    1.40
  -3  -8   9   -0.13    0.73
  -3  -8   8    4.94    1.56
  -3  -8   8    1.79    1.19
  -3  -8   7    0.65    0.77
  -3  -8   7    0.47    0.65
   3   8  -6    0.87    0.59
  -3  -8   6    1.81    0.95
   3   8  -5    1.08    0.53
  -3  -8   5    2.21    1.09
  -3  -8   5    1.49    1.10
  -3  -8   4   33.66    3.56
  -3  -8   4   29.32    4.90
   3   8  -4   36.55    4.81
   3   8  -3   32.01    4.61
  -3  -8   3   25.58    2.97
  -3  -8   3   32.05    5.17
   3   8  -2    1.30    1.00
  -3  -8   2    1.45    0.68
   3   8  -1   22.26    3.99
  -3  -8   1   24.27    2.62
  -3  -8   0   37.28    3.04
   3   8   0   37.57    3.48
   3   8   0   39.93    5.41
   3   8   1    5.74    2.06
  -3  -8  -1    3.88    0.91
   3   8   1    3.34    1.11
  -3  -8  -2  123.05    5.20
   3   8   2  131.88    7.51
   3   8   2  133.98   10.45
  -3  -8  -3   16.96    1.59
   3   8   3   20.80    4.40
   3   8   3   18.46    2.94
   3   8   4  227.99   11.05
   3   8   4  231.12   14.40
   3   8   5   92.54    8.96
   3   8   5   92.18    6.89
   3   8   6   13.11    3.40
   3   8   6   13.77    2.74
   3   8   7   25.75    4.68
   3   8   7   23.59    3.66
   3   8   8   43.69    5.14
   3   8   9    4.78    1.75
   3   8  10    0.00    0.74
   3   8  11    0.16    0.82
   3   8  12    2.05    1.46
   3   8  13    0.01    0.79
   3   8  14   -0.60    1.43
   3   8  15    1.25    0.88
  -3  -9   9    0.60    0.56
  -3  -9   8   -1.62    1.07
  -3  -9   7    1.13    1.00
  -3  -9   7    0.26    0.81
   3   9  -6    1.76    1.12
  -3  -9   6    1.37    0.84
  -3  -9   6    1.91    1.38
   3   9  -5    2.47    1.36
  -3  -9   5    0.94    0.73
  -3  -9   5    2.72    1.82
   3   9  -4    0.96    0.84
  -3  -9   4    2.67    1.59
  -3  -9   4   -0.95    0.72
   3   9  -3   28.07    4.56
  -3  -9   3   31.54    5.26
  -3  -9   3   32.46    3.50
  -3  -9   2    2.93    1.65
   3   9  -2    3.09    1.64
  -3  -9   2    2.46    0.88
  -3  -9   1   37.28    3.37
   3   9  -1   40.43    5.60
  -3  -9   0   17.04    2.14
   3   9   0   22.56    4.27
   3   9   1   23.23    4.44
   3   9   1   22.97    2.86
   3   9   2   46.66    4.36
   3   9   2   43.16    6.07
   3   9   3    1.73    1.45
   3   9   3    1.12    0.98
   3   9   4  178.87    9.72
   3   9   4  187.28   13.35
   3   9   5   11.41    3.36
   3   9   5    5.46    1.62
   3   9   6   22.17    4.58
   3   9   6   22.47    3.51
   3   9   7    4.48    2.20
   3   9   7    5.97    1.85
   3   9   8   11.50    3.34
   3   9   8   10.74    2.54
   3   9   9    2.38    1.23
   3   9  10    0.10    0.49
   3   9  11    0.63    0.98
   3   9  12   -2.25    1.58
   3   9  13   -0.30    0.99
   3   9  14    2.89    1.36
  -3 -10   7   -1.40    0.93
  -3 -10   6   -0.84    1.03
  -3 -10   6    1.86    1.32
   3  10  -5    8.49    2.43
  -3 -10   5    7.32    1.90
  -3 -10   5   11.26    3.05
   3  10  -4   10.71    2.85
  -3 -10   4    7.32    2.58
  -3 -10   4    9.74    2.13
  -3 -10   3    2.59    1.54
   3  10  -3    3.06    1.49
  -3 -10   3    1.54    0.80
  -3 -10   2    4.82    2.13
   3  10  -2    3.19    1.70
   3  10  -1    1.37    1.08
   3  10   0    5.41    2.10
   3  10   1    5.83    2.23
   3  10   2   -0.25    1.25
   3  10   3    0.43    0.93
   3  10   4    3.59    1.83
   3  10   4    1.17    0.86
   3  10   5    3.07    2.03
   3  10   5   -0.84    0.83
   3  10   6    5.11    2.29
   3  10   6    2.44    0.83
   3  10   7    1.96    1.52
   3  10   7    1.22    0.99
   3  10   8    0.14    0.36
   3  10   8    3.11    1.42
   3  10   9   -3.02    1.74
   3  10   9   -0.63    0.84
   3  10  10    0.63    1.02
   3  10  11    6.58    2.26
   3  10  12    8.28    2.56
   3  11  -5    0.64    0.84
   3  11  -4    5.52    2.13
  -3 -11   4    2.56    1.37
  -3 -11   3    1.96    1.39
   3  11  -3    2.73    1.53
  -3 -11   2   -1.01    1.04
   3  11  -2   -2.93    1.61
   3  11  -1    1.85    1.09
   3  11   0    0.95    1.20
   3  11   1    1.84    1.63
   3  11   2    4.93    2.22
   3  11   3    3.97    2.16
   3  11   4    2.15    1.30
   3  11   5   -0.31    1.27
   3  11   6   -0.63    1.04
   3  11   6   -0.89    0.78
   3  11   7   -2.10    1.55
   3  11   7   -1.04    0.84
   3  11   8    3.05    1.70
   3  11   8    1.27    0.67
   3  11   9    0.23    0.53
   3  11  10    5.48    1.99
  -4   8   6   -2.09    1.09
  -4   8   5    1.33    0.51
  -4   8   5    0.81    0.73
  -4   8   4    3.30    1.43
  -4   8   4    3.45    1.55
  -4   8   3    6.81    2.09
  -4   8   3    5.53    1.98
  -4   8   2    2.74    1.20
  -4   8   2    2.70    1.38
  -4   8   1    0.20    0.54
  -4   8   1    0.38    0.79
  -4   8   0    6.83    2.33
  -4   8  -1    0.82    1.09
  -4   8  -2    1.52    1.10
   4  -8   5    7.10    2.30
   4  -8   6    2.38    1.47
   4  -8   7    8.94    2.86
  -4   7  10    4.95    1.56
  -4   7   9    1.82    0.94
  -4   7   8    6.07    1.96
  -4   7   7   -0.90    0.78
  -4   7   6    0.53    0.61
  -4   7   6    0.72    0.72
  -4   7   5    1.26    0.80
  -4   7   5    2.24    1.24
  -4   7   4    0.73    0.57
  -4   7   4   -0.41    0.57
  -4   7   3    2.53    1.27
  -4   7   3   -0.77    0.73
  -4   7   2    5.04    2.06
  -4   7   1   -1.42    1.06
  -4   7   0   16.06    3.45
   4  -7   0   15.49    3.32
  -4   7  -1    0.59    0.60
   4  -7   1    2.96    1.56
  -4   7  -2    3.52    1.69
   4  -7   2    2.83    1.53
   4  -7   3    5.79    2.11
   4  -7   4   10.47    2.93
   4  -7   5    0.87    0.92
   4  -7   6    2.48    1.64
   4  -7   7    8.93    2.92
   4  -7   8   -2.87    1.68
   4  -7   9    3.91    2.34
  -4   6  11    0.35    0.45
  -4   6  10    2.52    1.21
  -4   6   9    1.62    0.97
  -4   6   8   12.82    2.75
  -4   6   7    2.00    1.04
  -4   6   6   11.88    2.48
  -4   6   6   16.83    3.27
  -4   6   5    9.90    2.54
  -4   6   5   10.05    2.34
  -4   6   4    6.15    2.10
  -4   6   4    7.00    1.97
  -4   6   3   11.79    2.82
  -4   6   2   -0.01    1.03
  -4   6   1   26.36    4.44
   4  -6  -1   22.17    3.95
  -4   6   0    4.44    1.78
   4  -6   0    6.16    2.11
  -4   6  -1    0.55    0.86
   4  -6   1   -0.22    0.43
   4  -6   2   31.23    4.88
   4  -6   3   15.64    3.48
   4  -6   4   -0.16    1.21
   4  -6   5    8.27    2.64
   4  -6   6   22.80    4.45
   4  -6   7   -0.18    0.66
   4  -6   8   20.57    4.40
   4  -6   9    3.19    1.81
   4  -6  10    0.11    0.62
   4  -6  11   -0.98    1.12
  -4   5  12   -0.64    0.86
  -4   5  11    3.62    1.48
  -4   5  10    0.41    0.46
  -4   5   9   14.29    2.87
  -4   5   8   10.02    2.48
  -4   5   7   10.30    2.61
  -4   5   6    9.32    2.44
  -4   5   6    8.75    2.04
  -4   5   5   25.75    4.18
  -4   5   4   22.75    4.03
  -4   5   3   28.94    4.56
  -4   5   2    7.64    2.41
  -4   5   1   47.63    5.99
   4  -5  -1   42.78    5.63
  -4   5   0    0.91    1.09
   4  -5   0    0.41    0.56
  -4   5  -1   16.42    3.80
   4  -5   1   16.33    3.47
   4  -5   2    6.53    2.22
   4  -5   3    2.95    1.79
   4  -5   4   42.50    5.92
   4  -5   5   30.17    5.03
   4  -5   6   12.94    3.23
   4  -5   7    0.59    0.68
   4  -5   8   17.92    3.97
   4  -5   9   11.57    3.20
   4  -5  10    2.94    2.05
   4  -5  11   -0.01    0.65
   4  -5  12    3.04    1.84
  -4   4  13   -0.21    0.75
  -4   4  12    0.02    0.35
  -4   4  11    0.30    0.48
  -4   4  10    2.64    1.24
  -4   4   9    9.75    2.40
  -4   4   8    0.86    0.78
  -4   4   7   12.71    2.79
  -4   4   6   60.02    5.03
  -4   4   6   61.52    6.39
  -4   4   5   53.58    6.00
  -4   4   4    3.60    1.67
  -4   4   3    7.38    2.43
  -4   4   2    4.25    1.66
  -4   4   1    1.22    0.89
   4  -4  -1    2.25    1.28
  -4   4   0    1.26    0.89
   4  -4   0    0.32    0.57
   4  -4   1   34.99    5.13
   4  -4   2   22.44    4.12
   4  -4   3    2.41    1.35
   4  -4   4   24.01    4.34
   4  -4   5   15.69    3.60
   4  -4   6   -0.69    0.91
   4  -4   7    1.20    0.86
   4  -4   8   37.61    5.82
   4  -4   9    0.91    0.66
   4  -4  10    6.46    2.55
   4  -4  11   16.22    4.01
   4  -4  12    1.67    1.41
   4  -4  13    0.36    0.58
   4  -4  14    2.99    1.94
  -4   3  13    0.06    0.41
  -4   3  12   -0.79    0.76
  -4   3  11    7.78    2.07
  -4   3  10    6.80    1.86
  -4   3   9   74.05    6.65
  -4   3   8   34.65    4.51
  -4   3   7   12.06    2.73
  -4   3   6    1.58    0.75
  -4   3   5    1.59    0.79
  -4   3   4    0.77    0.42
  -4   3   3    3.41    1.68
  -4   3   2   69.50    7.05
  -4   3   1    0.20    0.82
  -4   3   0    2.06    0.94
   4  -3   0    2.49    1.34
   4  -3   1   23.16    4.10
   4  -3   2   42.27    5.55
   4  -3   3    2.14    1.28
   4  -3   4   71.20    7.47
   4  -3   5    9.52    2.75
   4  -3   6    7.03    2.41
   4  -3   7    0.13    1.00
   4  -3   8    8.89    2.68
   4  -3   9   -0.60    1.34
   4  -3  10   22.54    4.50
   4  -3  11   15.62    3.85
   4  -3  12   11.98    3.51
   4  -3  13    0.20    0.67
   4  -3  14   -0.16    1.23
   4  -3  15    6.10    2.57
  -4   2  14    1.30    0.69
  -4   2  13   -0.54    0.56
  -4   2  12   12.85    2.74
  -4   2  11   68.63    6.26
  -4   2  10   98.19    7.41
  -4   2   9    3.60    1.49
  -4   2   8   20.59    3.43
  -4   2   7   20.87    3.49
  -4   2   6    0.94    0.69
  -4   2   5   10.63    2.66
  -4   2   4    1.90    0.98
  -4   2   3   15.70    3.15
  -4   2   2   27.32    4.26
  -4   2   1   18.26    3.46
  -4   2   0   16.97    3.58
   4  -2   0   16.02    3.32
   4  -2   1   18.58    3.52
   4  -2   2    0.09    0.85
   4  -2   3   42.59    5.47
   4  -2   4  204.79   12.77
   4  -2   5    5.57    2.34
   4  -2   6   37.02    5.29
   4  -2   7   -0.43    0.68
   4  -2   8   22.04    4.27
   4  -2   9   13.52    3.35
   4  -2  10   12.40    3.30
   4  -2  11    2.22    1.44
   4  -2  12    0.17    1.58
   4  -2  13    2.49    1.90
   4  -2  14   12.93    3.60
   4  -2  15    3.60    1.78
   4  -2  16    6.68    2.71
  -4   1  15   -0.64    0.56
  -4   1  14   -0.45    0.50
  -4   1  14    1.60    1.12
  -4   1  13   -0.04    0.29
  -4   1  13    0.29    0.38
  -4   1  12   10.14    2.40
  -4   1  11  149.63    9.39
  -4   1  10   26.09    3.80
  -4   1   9   80.99    6.56
  -4   1   8   51.29    5.26
  -4   1   7    6.01    1.93
  -4   1   6    1.13    0.80
  -4   1   5    1.81    1.45
  -4   1   4   -0.24    0.98
  -4   1   3   20.29    3.41
  -4   1   2   13.15    2.79
  -4   1   1    2.65    1.36
  -4   1   0    0.23    0.64
   4  -1   0    0.75    0.89
  -4   1  -1    4.44    1.98
   4  -1   1    2.21    1.48
   4  -1   2   -0.16    1.03
   4  -1   3   18.03    3.59
   4  -1   4   44.64    5.55
   4  -1   5   10.46    2.76
   4  -1   6    5.27    1.72
   4  -1   7   29.22    4.63
   4  -1   8    6.58    2.26
   4  -1   9   25.04    4.47
   4  -1  10   21.74    4.28
   4  -1  11    3.91    2.13
   4  -1  12   78.54    8.50
   4  -1  13   99.26    9.71
   4  -1  14    8.82    2.96
   4  -1  15   30.61    5.56
   4  -1  16    3.62    1.98
   4  -1  17   14.91    4.06
  -4   0  15    0.62    0.53
  -4   0  14    0.17    0.41
  -4   0  14    0.63    0.48
  -4   0  13   -0.84    0.69
  -4   0  13    0.39    0.46
  -4   0  12    8.44    2.21
  -4   0  11   10.99    2.45
  -4   0  10   17.56    2.97
  -4   0   9    8.07    2.06
  -4   0   8   16.46    2.88
  -4   0   7    0.23    0.39
  -4   0   6   -0.27    0.91
  -4   0   5   13.08    2.53
  -4   0   4    6.34    1.81
  -4   0   3    4.47    1.46
  -4   0   2    9.07    2.21
  -4   0   1   54.16    5.57
  -4   0   0   53.57    5.63
   4   0   1   49.95    5.84
  -4   0  -1   55.50    5.72
   4   0   2   11.13    2.70
   4   0   3   54.48    5.96
   4   0   4    0.98    0.74
   4   0   5    8.43    2.27
   4   0   6   44.49    5.54
   4   0   7   82.13    7.65
   4   0   8   19.47    3.76
   4   0   9  120.68    9.70
   4   0  10    6.81    2.28
   4   0  11    2.25    1.39
   4   0  12   30.35    5.09
   4   0  13    7.75    2.63
   4   0  14    5.84    2.28
   4   0  15   28.07    5.08
   4   0  16    1.23    1.08
   4   0  17    0.59    0.91
   4   0  18    1.54    1.37
  -4  -1  15   -0.99    0.74
  -4  -1  14    1.73    1.00
  -4  -1  13   -0.22    0.52
  -4  -1  13   -0.11    0.53
  -4  -1  12   28.62    3.69
  -4  -1  12   21.09    3.34
  -4  -1  11   -0.41    0.76
  -4  -1  10   11.97    2.46
  -4  -1   9   -0.09    0.57
  -4  -1   8    3.21    1.31
  -4  -1   7    0.37    0.42
  -4  -1   6   24.47    3.33
  -4  -1   5    0.93    0.40
  -4  -1   5    1.54    1.44
  -4  -1   4    1.00    0.66
  -4  -1   3    1.95    0.99
  -4  -1   2   89.57    6.75
  -4  -1   1   -0.72    1.31
  -4  -1   0 1074.12   30.48
  -4  -1  -1   12.30    2.47
   4   1   2 2335.11   57.50
  -4  -1  -3  151.04    9.00
   4   1   3  123.51    9.04
  -4  -1  -4    0.23    0.79
   4   1   4    0.16    0.55
  -4  -1  -5   15.01    2.52
   4   1   5   18.49    3.47
  -4  -1  -6    0.20    0.33
   4   1   6   -0.66    0.99
  -4  -1  -7   19.57    2.75
   4   1   7   22.47    3.75
  -4  -1  -8    0.10    0.52
   4   1   8    0.77    1.09
  -4  -1  -9    5.34    1.34
   4   1   9    6.53    2.19
  -4  -1 -10    0.99    0.66
   4   1  10    1.18    0.51
   4   1  11    1.65    1.34
   4   1  12   13.77    3.26
   4   1  13    6.50    2.23
   4   1  13    6.18    2.15
   4   1  14   12.08    3.31
   4   1  14    6.10    2.07
   4   1  15    1.92    1.44
   4   1  15    2.48    1.12
   4   1  16   25.39    4.86
   4   1  16   24.13    4.15
   4   1  17    1.40    1.24
   4   1  17    1.04    0.73
   4   1  18    0.03    0.56
   4   1  18   -0.34    0.60
   4   1  19   -0.91    1.11
  -4  -2  14    1.11    0.73
  -4  -2  13    2.45    0.94
  -4  -2  12   31.31    4.03
  -4  -2  12   34.58    4.34
  -4  -2  11   -0.01    0.36
  -4  -2  11    0.66    0.89
  -4  -2  10   -0.19    0.39
  -4  -2   9   24.84    3.37
  -4  -2   8   10.64    2.21
  -4  -2   7   -0.26    0.77
  -4  -2   6    0.72    0.58
  -4  -2   5    8.14    1.15
  -4  -2   5    8.51    1.85
  -4  -2   4    3.34    0.77
  -4  -2   4    2.14    0.89
  -4  -2   3   24.22    3.07
  -4  -2   2   -0.30    0.72
  -4  -2   2    0.64    0.89
  -4  -2   1   30.30    4.38
  -4  -2   1   31.35    3.62
  -4  -2   0  210.03   10.20
  -4  -2   0  245.02   12.68
  -4  -2  -1  533.79   18.04
  -4  -2  -1  541.80   20.08
  -4  -2  -2 2330.33   54.31
  -4  -2  -2 2440.18   56.89
   4   2   3  284.94   14.16
  -4  -2  -3  366.14   15.20
   4   2   4  239.71   12.46
  -4  -2  -4  252.49   12.06
  -4  -2  -5    1.22    0.99
   4   2   5    1.10    0.93
  -4  -2  -6   15.66    2.70
   4   2   6   15.47    2.95
   4   2   7    0.13    0.38
  -4  -2  -7   -1.36    0.79
  -4  -2  -8    8.40    1.89
   4   2   8    9.61    2.57
   4   2   9    6.64    2.04
  -4  -2  -9    5.04    1.44
   4   2   9    5.44    1.91
   4   2  10    0.22    0.65
  -4  -2 -10    0.83    0.68
   4   2  10    1.31    0.75
   4   2  11   -0.32    1.15
  -4  -2 -11    0.66    0.59
   4   2  11   -0.64    1.34
   4   2  12   -0.28    0.84
   4   2  12   -0.10    0.86
   4   2  13    2.91    1.40
   4   2  13    3.64    1.61
   4   2  14   32.65    4.90
   4   2  14   34.35    5.29
   4   2  15   11.86    3.10
   4   2  15    7.43    2.48
   4   2  16   16.27    3.66
   4   2  16   17.83    3.58
   4   2  17    0.00    0.82
   4   2  17    1.30    1.09
   4   2  18   -1.11    1.05
   4   2  18    0.47    0.93
   4   2  19    0.70    0.90
   4   2  19    0.43    0.84
  -4  -3  14   -0.48    0.65
  -4  -3  13    6.96    1.90
  -4  -3  12    4.50    1.49
  -4  -3  11   41.00    4.68
  -4  -3  10   -0.90    0.96
  -4  -3  10    0.38    0.38
  -4  -3   9   -0.20    0.43
  -4  -3   8   37.10    3.96
  -4  -3   7   34.68    3.73
  -4  -3   6   60.75    4.85
  -4  -3   5   15.08    2.33
  -4  -3   4   19.50    2.55
  -4  -3   4   21.57    3.91
  -4  -3   3   18.19    3.62
  -4  -3   3   20.97    2.64
  -4  -3   2   -0.21    1.00
  -4  -3   2    0.68    0.62
  -4  -3   1   11.91    2.85
  -4  -3   1   10.70    1.88
  -4  -3   0   33.71    3.44
  -4  -3   0   37.71    4.92
  -4  -3  -1    1.47    0.79
  -4  -3  -1    3.40    1.43
  -4  -3  -2   22.59    3.61
  -4  -3  -2   19.06    2.62
  -4  -3  -3   21.61    2.81
  -4  -3  -3   16.24    2.89
  -4  -3  -4    3.30    1.29
   4   3   4    2.60    1.27
  -4  -3  -5   -0.56    1.03
   4   3   5   -0.21    0.44
   4   3   6   29.50    3.92
  -4  -3  -6   32.76    4.06
   4   3   6   29.69    3.95
   4   3   7   24.35    3.67
  -4  -3  -7   24.84    3.52
   4   3   7   26.12    3.83
  -4  -3  -8    9.02    2.11
   4   3   8   10.67    2.47
   4   3   8    8.10    2.14
  -4  -3  -9    6.99    1.77
   4   3   9    7.56    2.06
   4   3   9    8.30    2.22
  -4  -3 -10    1.30    0.75
   4   3  10   -0.64    1.17
   4   3  10   -0.24    0.66
  -4  -3 -11    2.51    1.11
   4   3  11    1.73    1.13
   4   3  11    5.07    1.83
  -4  -3 -12    5.20    1.40
   4   3  12    2.72    0.97
   4   3  12    3.25    1.38
   4   3  13   10.14    2.53
   4   3  13    6.83    2.23
   4   3  14   87.50    8.21
   4   3  14   87.85    8.05
   4   3  15    0.16    1.14
   4   3  15   -0.19    0.67
   4   3  16    1.28    1.27
   4   3  16    2.78    1.46
   4   3  17   -0.19    0.45
   4   3  17    1.15    1.14
   4   3  18    1.17    0.95
   4   3  18   -0.23    0.99
   4   3  19    0.20    1.08
  -4  -4  13    2.28    1.20
  -4  -4  12    3.39    1.21
  -4  -4  11   44.62    4.85
  -4  -4  10   70.02    6.09
  -4  -4   9    0.73    0.58
  -4  -4   8    8.91    1.91
  -4  -4   7   11.04    2.04
  -4  -4   6   -0.27    0.61
  -4  -4   6    0.31    0.48
  -4  -4   5    6.85    2.29
  -4  -4   5    6.69    1.50
  -4  -4   4    1.29    1.35
  -4  -4   4    1.46    0.65
  -4  -4   3    4.60    1.13
  -4  -4   3    4.38    1.55
  -4  -4   2   -0.17    0.99
  -4  -4   2   -0.13    0.46
  -4  -4   1   12.99    3.06
  -4  -4   1   13.83    1.91
  -4  -4   0    7.57    2.34
  -4  -4   0    6.19    1.28
  -4  -4  -1   79.61    4.85
  -4  -4  -1   90.22    7.82
  -4  -4  -2    1.22    0.74
  -4  -4  -2    4.57    1.72
  -4  -4  -3    1.50    0.73
  -4  -4  -3    0.96    0.97
  -4  -4  -4    3.75    1.09
  -4  -4  -4    3.29    1.61
   4   4   5   15.42    2.82
  -4  -4  -5   22.38    3.57
  -4  -4  -6   -0.48    0.76
   4   4   6    0.34    0.70
   4   4   6   -0.14    0.70
  -4  -4  -7   10.01    2.35
   4   4   7   11.15    2.56
   4   4   7    7.74    1.90
   4   4   8    0.49    0.57
   4   4   8    1.94    1.14
   4   4   9    7.08    2.04
   4   4   9    7.12    1.94
   4   4  10    0.29    0.90
   4   4  10    0.19    0.93
   4   4  11    5.21    2.12
   4   4  11    5.02    1.67
   4   4  12   43.17    5.54
   4   4  12   37.57    4.64
   4   4  13  192.93   11.09
   4   4  13  186.21   12.38
   4   4  14   41.81    5.84
   4   4  14   41.27    5.02
   4   4  15   91.15    8.67
   4   4  15   73.62    7.00
   4   4  16   11.61    3.30
   4   4  16    4.71    1.81
   4   4  17    1.49    1.28
   4   4  18    0.56    0.90
   4   4  19    0.60    0.91
  -4  -5  12    0.11    0.58
  -4  -5  11    1.35    1.14
  -4  -5  10   -0.08    0.34
  -4  -5   9    1.49    0.86
  -4  -5   8   20.68    3.21
  -4  -5   7   25.51    4.55
  -4  -5   7   19.24    2.97
  -4  -5   6    0.36    0.59
  -4  -5   6    0.57    0.54
  -4  -5   5    2.51    1.48
  -4  -5   5    0.91    0.47
  -4  -5   4   24.61    2.61
  -4  -5   4   20.90    4.10
  -4  -5   3    4.92    1.91
  -4  -5   3    4.86    1.07
  -4  -5   2   55.92    3.60
  -4  -5   2   56.83    6.65
  -4  -5   1    0.32    0.26
  -4  -5   1    2.72    1.69
  -4  -5   0  176.91    6.48
  -4  -5   0  184.70   11.87
  -4  -5  -1   33.34    2.51
  -4  -5  -1   42.08    5.54
  -4  -5  -2   10.77    2.81
  -4  -5  -2    7.88    1.17
  -4  -5  -3   44.63    5.40
  -4  -5  -3   39.42    2.79
  -4  -5  -4    3.36    1.78
  -4  -5  -4    3.04    0.81
   4   5   4    2.50    1.29
   4   5   5    8.80    2.20
  -4  -5  -5   10.85    1.60
   4   5   6    1.03    0.94
   4   5   7    9.54    2.37
   4   5   8    0.69    0.53
   4   5   8    0.03    0.52
   4   5   9    5.80    2.03
   4   5   9    4.71    1.46
   4   5  10    4.66    1.80
   4   5  10    2.41    1.04
   4   5  11   16.79    3.47
   4   5  11   13.41    2.46
   4   5  12   78.20    7.72
   4   5  12   73.62    6.02
   4   5  13   17.31    3.81
   4   5  13   12.39    2.46
   4   5  14  143.55   11.04
   4   5  15   11.99    3.07
   4   5  16    2.91    1.51
   4   5  17    8.62    2.94
   4   5  18    5.32    2.23
  -4  -6  11    5.45    1.70
  -4  -6  10   -0.41    0.74
  -4  -6   9    0.57    0.53
  -4  -6   8   13.69    3.31
  -4  -6   8    9.20    2.09
  -4  -6   7    7.66    1.87
  -4  -6   7    9.37    2.76
  -4  -6   6    4.23    1.73
  -4  -6   6    1.62    0.79
  -4  -6   5    8.95    1.89
  -4  -6   5    7.55    2.68
  -4  -6   4   20.98    4.22
  -4  -6   3    2.23    1.06
  -4  -6   2   18.29    1.88
  -4  -6   2   17.06    3.75
  -4  -6   1   21.54    1.87
  -4  -6   1   19.96    3.98
  -4  -6   0   67.66    3.23
  -4  -6   0   73.14    7.59
  -4  -6  -1    5.33    2.08
  -4  -6  -1    6.14    0.84
  -4  -6  -2   43.48    2.19
  -4  -6  -2   53.17    6.22
   4   6   3    0.68    0.50
  -4  -6  -3    1.41    0.35
   4   6   4   10.09    2.34
  -4  -6  -4    8.20    0.81
  -4  -6  -5    3.37    0.56
   4   6   5    5.13    1.83
   4   6   6   23.80    3.63
  -4  -6  -6   20.56    1.65
   4   6   7    6.89    2.10
   4   6   8    6.05    2.13
   4   6   9   37.65    5.07
   4   6  10    9.64    2.59
   4   6  10    6.77    1.55
   4   6  11   33.21    5.00
   4   6  12   10.61    2.84
   4   6  13   20.03    3.97
   4   6  14   17.66    3.89
   4   6  15   -1.15    1.39
   4   6  16   13.73    3.44
   4   6  17    4.21    2.18
  -4  -7  10    3.98    1.46
  -4  -7   9    1.40    1.07
  -4  -7   9    1.02    0.87
  -4  -7   8    8.67    2.64
  -4  -7   8    6.81    1.81
  -4  -7   7   16.81    3.78
  -4  -7   7   18.04    2.91
  -4  -7   6    6.40    1.67
  -4  -7   6    2.45    1.61
  -4  -7   5    3.05    1.59
  -4  -7   5    5.31    1.47
   4   7  -5    3.09    1.17
  -4  -7   4   17.03    3.83
  -4  -7   4   13.42    2.29
   4   7  -4   12.41    2.67
  -4  -7   3   -0.37    0.60
   4   7  -3   -0.64    0.80
  -4  -7   3    0.97    1.25
  -4  -7   2    3.10    1.05
   4   7  -2    4.24    1.60
  -4  -7   2    2.42    1.48
   4   7  -1   36.37    4.86
  -4  -7   1   38.10    5.69
  -4  -7   0    0.30    0.57
   4   7   0   -0.03    1.06
  -4  -7  -1   21.34    4.08
  -4  -7  -2    1.73    1.40
   4   7   2    1.36    0.76
   4   7   3   23.58    3.40
   4   7   4    7.12    1.93
   4   7   5   16.96    3.14
   4   7   6   15.23    3.04
   4   7   7   52.64    5.82
   4   7   8   71.24    6.94
   4   7   9    2.13    1.37
   4   7  10    0.67    0.84
   4   7  11   30.19    4.80
   4   7  12    7.56    2.43
   4   7  13    7.77    2.59
   4   7  14    6.05    2.21
   4   7  15    3.60    1.81
   4   7  16    5.41    2.23
  -4  -8   9    1.27    0.69
  -4  -8   8    8.46    2.68
  -4  -8   8    6.00    1.69
  -4  -8   7    1.75    1.08
  -4  -8   7   -0.34    0.71
  -4  -8   6    1.56    1.52
  -4  -8   6   -0.86    0.33
  -4  -8   5    4.72    2.15
  -4  -8   5    3.96    1.30
   4   8  -5    1.77    1.03
  -4  -8   4   28.60    3.39
   4   8  -4   27.48    4.05
  -4  -8   4   32.52    5.45
  -4  -8   3   22.66    2.93
   4   8  -3   19.94    3.56
  -4  -8   3   24.56    4.76
  -4  -8   2   12.85    3.38
  -4  -8   2   13.56    2.15
   4   8  -2   12.08    2.87
  -4  -8   1    0.56    0.87
  -4  -8   1   -0.24    0.43
   4   8  -1   -0.27    0.69
  -4  -8   0   28.27    4.92
  -4  -8   0   27.52    2.85
   4   8   0   24.43    4.20
  -4  -8  -1   36.07    3.13
  -4  -8  -1   35.56    5.53
   4   8   1   34.22    5.08
  -4  -8  -2    5.16    1.12
   4   8   2    5.01    2.11
   4   8   2    6.12    1.67
  -4  -8  -3    0.08    0.27
   4   8   3    0.52    0.43
   4   8   3    1.24    0.51
   4   8   4   -0.35    0.94
   4   8   5    9.56    2.35
   4   8   6   27.13    4.08
   4   8   7  105.06    8.44
   4   8   8    0.83    0.48
   4   8   9   13.89    3.03
   4   8  10    8.32    2.52
   4   8  11   11.44    2.98
   4   8  12    3.49    1.78
   4   8  13   11.84    3.19
   4   8  14   -0.44    0.73
   4   8  15   12.43    3.38
  -4  -9   8    1.18    0.82
  -4  -9   7    0.60    0.71
  -4  -9   7   -0.71    0.87
  -4  -9   6    1.85    1.25
  -4  -9   6    8.56    1.97
  -4  -9   5    7.09    1.74
  -4  -9   5    8.39    2.84
   4   9  -4   13.15    3.01
  -4  -9   4   15.18    2.48
  -4  -9   4   20.42    4.33
   4   9  -3    0.58    0.70
  -4  -9   3    0.51    0.54
  -4  -9   3    1.06    1.19
  -4  -9   2    8.69    2.77
   4   9  -2    6.36    2.02
  -4  -9   2    8.42    1.73
  -4  -9   1   33.06    3.22
  -4  -9   1   34.50    5.67
   4   9  -1   36.25    5.25
  -4  -9   0    2.47    1.55
  -4  -9   0    1.45    0.64
   4   9   0    1.64    1.35
  -4  -9  -1   31.28    5.32
  -4  -9  -1   36.73    3.05
   4   9   1   37.45    5.49
   4   9   2   27.12    4.79
   4   9   2   21.38    3.05
   4   9   3    4.62    1.67
   4   9   3    3.88    1.66
   4   9   4    0.23    0.47
   4   9   4    1.00    1.00
   4   9   5   27.05    3.93
   4   9   6    2.25    1.08
   4   9   7    3.84    1.57
   4   9   8   51.50    5.94
   4   9   9    4.12    1.71
   4   9  10   31.22    4.84
   4   9  11    0.21    0.66
   4   9  12    8.81    2.68
   4   9  13    0.81    0.97
  -4 -10   6   -0.60    0.85
  -4 -10   6    1.90    1.03
  -4 -10   5   -0.70    0.60
  -4 -10   5    1.37    1.16
  -4 -10   4    1.31    0.72
   4  10  -4    1.06    0.91
  -4 -10   4    0.18    0.57
  -4 -10   3    2.04    0.93
   4  10  -3    3.66    1.71
  -4 -10   3    0.34    0.82
  -4 -10   2   10.37    3.12
   4  10  -2    8.33    2.61
  -4 -10   1    2.90    1.73
   4  10  -1    4.55    2.04
  -4 -10   0    6.22    2.49
   4  10   0    4.79    1.87
   4  10   1   -0.85    0.98
   4  10   2    4.92    2.05
   4  10   3    0.97    0.57
   4  10   4    1.35    1.31
   4  10   4    5.27    1.58
   4  10   5    3.74    1.37
   4  10   5    2.49    1.59
   4  10   6    1.65    1.18
   4  10   7   -0.75    1.14
   4  10   8    0.81    1.09
   4  10   9    1.22    0.98
   4  10  10    1.64    1.46
   4  10  11    1.86    0.72
   4  10  12   11.84    3.23
  -4 -11   4    0.31    0.69
   4  11  -3   13.01    3.23
  -4 -11   3    8.89    2.77
  -4 -11   2    3.18    1.81
   4  11  -2    3.20    1.63
  -4 -11   1    0.91    1.07
   4  11  -1    1.40    1.26
  -4 -11   0   -1.83    1.35
   4  11   0    2.17    1.47
   4  11   1    1.04    1.03
   4  11   2   -1.63    1.30
   4  11   3    1.79    0.94
   4  11   4    3.58    1.77
   4  11   5    3.04    1.84
   4  11   6    8.60    2.37
   4  11   6    8.11    2.79
   4  11   7    4.83    1.88
   4  11   8    2.54    1.37
   4  11   9    3.03    1.48
   4  11  10    2.30    1.31
  -5   7   5    0.71    0.76
  -5   7   4    0.94    0.74
  -5   7   4    1.24    0.75
  -5   7   3    0.48    0.43
  -5   7   3    2.94    1.31
  -5   7   2    4.49    1.86
  -5   7   1    2.92    1.64
  -5   7   0   -1.52    1.17
  -5   7  -1    2.40    1.57
  -5   7  -2    2.94    1.74
   5  -7   2    1.17    1.08
  -5   7  -3    1.84    1.30
   5  -7   3    2.91    1.75
   5  -7   4    0.74    0.90
   5  -7   5    1.32    0.96
   5  -7   6    3.41    1.81
  -5   6   7   -0.50    0.67
  -5   6   6    2.57    1.38
  -5   6   5    3.54    1.61
  -5   6   4   11.66    2.95
  -5   6   3    0.64    0.73
  -5   6   2   62.44    7.18
  -5   6   1    4.35    2.03
  -5   6   0   35.87    5.55
   5  -6   0   40.59    5.87
  -5   6  -1    0.43    0.54
   5  -6   1   -2.02    1.38
  -5   6  -2    2.28    1.45
   5  -6   2    4.50    2.17
   5  -6   3   16.53    3.87
   5  -6   4    3.04    1.76
   5  -6   5   29.10    5.24
   5  -6   6    0.47    0.44
   5  -6   7    1.99    1.32
   5  -6   8    3.66    2.06
  -5   5   9   -0.81    0.79
  -5   5   8   -0.21    0.51
  -5   5   7   -3.08    1.47
  -5   5   6    7.52    2.33
  -5   5   5    7.11    2.22
  -5   5   4   22.57    4.16
  -5   5   3    9.26    2.57
  -5   5   2   -0.77    1.28
  -5   5   1   47.44    6.46
   5  -5   0  114.23   10.16
  -5   5   0  103.91    9.59
  -5   5  -1   20.58    4.32
   5  -5   1   23.74    4.67
  -5   5  -2   31.40    5.35
   5  -5   2   36.95    5.79
   5  -5   3   29.31    5.21
   5  -5   4   -0.43    0.74
   5  -5   5   17.44    4.08
   5  -5   6    6.62    2.58
   5  -5   7    2.82    1.99
   5  -5   8    3.88    2.14
   5  -5   9    3.95    2.14
   5  -5  10    1.03    0.87
  -5   4  10    2.50    1.29
  -5   4   9    7.39    2.27
  -5   4   8    4.47    1.64
  -5   4   7    5.75    1.94
  -5   4   6   11.42    2.83
  -5   4   5    0.86    0.66
  -5   4   4    1.03    0.86
  -5   4   3    0.98    0.60
  -5   4   2    1.30    0.68
  -5   4   1   -0.22    0.71
  -5   4   0    0.45    0.55
   5  -4   0    0.47    0.60
  -5   4  -1    1.02    1.42
   5  -4   1   -3.91    1.90
  -5   4  -2   22.74    4.48
   5  -4   2   19.43    4.27
   5  -4   3    4.91    2.03
   5  -4   4    1.50    1.49
   5  -4   5    2.21    1.27
   5  -4   6   12.31    3.51
   5  -4   7    3.64    1.76
   5  -4   8    0.00    0.52
   5  -4   9   48.99    7.14
   5  -4  10    2.38    1.92
   5  -4  11   10.70    3.42
   5  -4  12    2.81    1.83
  -5   3  10    2.42    1.37
  -5   3   9    6.03    1.97
  -5   3   8   18.59    3.49
  -5   3   7   40.55    5.31
  -5   3   6   -0.43    0.89
  -5   3   5    1.96    1.35
  -5   3   4   -0.49    1.27
  -5   3   3    0.40    0.67
  -5   3   2    8.79    2.73
  -5   3   1   -0.49    1.45
  -5   3   0    2.38    1.37
  -5   3  -1   23.42    4.46
   5  -3   1   26.73    4.90
  -5   3  -2    3.02    1.50
   5  -3   2    1.75    1.35
   5  -3   3   10.90    3.23
   5  -3   4    2.15    1.26
   5  -3   5    3.72    1.71
   5  -3   6    3.97    2.05
   5  -3   7    1.91    1.55
   5  -3   8    3.03    1.53
   5  -3   9   -0.19    0.82
   5  -3  10   96.86   10.29
   5  -3  11   58.76    8.00
   5  -3  12   45.46    7.08
   5  -3  13    0.32    0.87
  -5   2  11    5.08    1.82
  -5   2  10   44.17    5.20
  -5   2   9   37.46    4.86
  -5   2   8    7.54    2.29
  -5   2   7    1.15    0.82
  -5   2   6    6.24    2.13
  -5   2   5    4.44    1.88
  -5   2   4   67.41    7.13
  -5   2   3    4.52    2.12
  -5   2   2  124.59   10.10
  -5   2   1    9.74    2.73
  -5   2   0   23.91    4.43
  -5   2  -1   26.28    4.65
   5  -2   1   24.85    4.60
  -5   2  -2   30.38    4.86
   5  -2   2   29.58    5.12
   5  -2   3    3.19    1.50
   5  -2   4   -0.09    0.81
   5  -2   5   -1.43    1.39
   5  -2   6   -0.14    0.67
   5  -2   7   -0.46    0.88
   5  -2   8   10.58    3.27
   5  -2   9    3.75    1.95
   5  -2  10   36.55    6.15
   5  -2  11    7.10    2.88
   5  -2  12  101.16   10.54
   5  -2  13   -1.25    1.32
   5  -2  14    1.02    0.87
  -5   1  11   23.50    3.75
  -5   1  10    3.03    1.44
  -5   1   9   14.14    2.95
  -5   1   8    5.34    1.94
  -5   1   7    2.31    1.06
  -5   1   6    1.15    0.73
  -5   1   5    9.49    2.61
  -5   1   4    0.79    1.06
  -5   1   3   95.92    8.41
  -5   1   2   66.77    6.97
  -5   1   1   26.47    4.44
  -5   1   0    2.78    1.56
  -5   1  -1    0.03    0.86
   5  -1   1   -1.10    1.17
  -5   1  -2    3.38    1.86
   5  -1   2    2.46    1.23
   5  -1   3   16.63    3.84
   5  -1   4   17.94    3.87
   5  -1   5   -0.53    0.76
   5  -1   6    1.16    1.08
   5  -1   7  106.41    9.93
   5  -1   8    8.57    2.84
   5  -1   9    1.73    1.03
   5  -1  10   12.01    3.36
   5  -1  11   -0.19    0.98
   5  -1  12   18.07    4.37
   5  -1  13   13.01    3.66
   5  -1  14    2.10    1.59
   5  -1  15    6.66    2.80
   5  -1  16   -1.97    1.57
  -5   0  12   -0.77    0.68
  -5   0  11   12.74    2.81
  -5   0  10   38.49    4.65
  -5   0   9   27.66    4.00
  -5   0   8    0.83    0.97
  -5   0   7    2.32    1.32
  -5   0   6    0.15    0.39
  -5   0   5   20.18    3.49
  -5   0   4    0.05    0.71
  -5   0   3   49.21    5.71
  -5   0   2   -0.12    0.90
  -5   0   1   18.64    3.57
  -5   0   0    7.66    2.49
  -5   0  -1   13.19    3.10
  -5   0  -2    2.03    1.50
   5   0   2   -1.38    1.49
   5   0   3    0.56    1.01
   5   0   4   28.28    4.82
   5   0   5   38.05    5.64
   5   0   6   26.24    4.65
   5   0   7    3.19    1.96
   5   0   8    0.31    1.30
   5   0   9   -0.01    1.18
   5   0  10   39.73    6.10
   5   0  11   18.19    4.18
   5   0  12   10.85    3.23
   5   0  13    0.23    0.83
   5   0  14   21.43    4.81
   5   0  15   -2.91    1.82
   5   0  16    0.64    0.69
   5   0  17    5.03    2.25
  -5  -1  13    4.42    1.54
  -5  -1  12    0.69    0.64
  -5  -1  11    1.34    0.95
  -5  -1  10    2.97    1.25
  -5  -1   9   -0.59    0.80
  -5  -1   8    1.30    0.76
  -5  -1   7    3.14    1.51
  -5  -1   6   32.29    4.18
  -5  -1   5   14.50    2.91
  -5  -1   4   35.94    4.56
  -5  -1   3    8.68    2.36
  -5  -1   2   -0.84    1.04
  -5  -1   1    4.08    1.66
  -5  -1   0    7.71    2.17
  -5  -1  -1   -1.08    1.02
  -5  -1  -2    4.06    1.86
   5   1   3    1.86    1.51
   5   1   4   53.17    6.62
   5   1   5   27.10    4.63
   5   1   6   63.27    7.12
   5   1   7   20.20    4.03
   5   1   8   52.18    6.69
   5   1   9   98.75    9.34
   5   1  10   73.00    8.11
   5   1  11   19.88    4.36
   5   1  12    1.57    1.28
   5   1  13   18.52    4.29
   5   1  14    2.21    1.54
   5   1  15    5.79    2.34
   5   1  16    1.28    1.47
   5   1  17    0.35    1.04
   5   1  18   -2.22    1.61
  -5  -2  12    0.03    0.49
  -5  -2  12    0.11    0.44
  -5  -2  11    1.89    1.21
  -5  -2  10    2.41    0.91
  -5  -2   9   16.83    2.93
  -5  -2   8    2.90    1.34
  -5  -2   7   19.86    3.14
  -5  -2   6   45.48    4.82
  -5  -2   5    5.36    1.73
  -5  -2   4  158.55    9.30
  -5  -2   3   -0.13    0.56
  -5  -2   2    4.67    1.70
  -5  -2   1   17.91    3.06
  -5  -2   0    0.33    0.57
  -5  -2  -1    0.60    0.81
  -5  -2  -1   -1.28    0.70
  -5  -2  -2   67.70    6.72
  -5  -2  -2   55.76    5.75
  -5  -2  -3   10.86    2.55
  -5  -2  -3   12.95    2.98
  -5  -2  -4    1.34    1.27
   5   2   4    0.44    0.80
   5   2   5   32.35    5.04
  -5  -2  -5   37.48    4.73
  -5  -2  -6    7.55    2.09
   5   2   6    4.43    2.09
  -5  -2  -7    0.08    0.85
   5   2   7   -0.25    0.69
   5   2   8   42.55    5.77
  -5  -2  -8   39.60    4.55
  -5  -2  -9    3.81    1.40
   5   2   9    6.07    2.25
   5   2  10  122.03   10.21
  -5  -2 -10  116.55    7.40
   5   2  11   -0.72    1.09
   5   2  12    0.29    0.89
   5   2  13   16.39    3.78
   5   2  14    0.44    0.76
   5   2  15    2.20    1.58
   5   2  16    0.17    0.48
   5   2  17   -0.13    0.54
   5   2  18   -3.77    1.99
  -5  -3  12   -2.80    1.28
  -5  -3  12    0.45    0.36
  -5  -3  11   -0.27    0.94
  -5  -3  11    1.35    0.94
  -5  -3  10    4.53    1.50
  -5  -3   9    0.07    0.51
  -5  -3   8    0.70    0.64
  -5  -3   7    1.17    0.92
  -5  -3   6    1.44    0.76
  -5  -3   5   72.93    5.71
  -5  -3   4   29.91    3.64
  -5  -3   3   21.14    3.05
  -5  -3   2    9.93    2.78
  -5  -3   2   11.81    2.23
  -5  -3   1   -0.16    0.75
  -5  -3   1    2.62    1.34
  -5  -3   0    4.43    1.39
  -5  -3   0    5.37    2.03
  -5  -3  -1   -0.47    0.84
  -5  -3  -1   -0.45    0.66
  -5  -3  -2   16.97    3.44
  -5  -3  -2   16.38    2.81
  -5  -3  -3   11.87    2.55
  -5  -3  -3   17.96    3.59
  -5  -3  -4    1.99    1.30
  -5  -3  -4    1.92    1.06
   5   3   5   41.63    5.45
  -5  -3  -5   37.69    4.96
  -5  -3  -6   -1.03    1.08
   5   3   6    1.00    0.79
   5   3   7   51.25    6.13
  -5  -3  -7   58.53    5.96
  -5  -3  -8    3.06    1.46
   5   3   8    0.83    1.06
  -5  -3  -9   26.89    3.83
   5   3   9   25.69    4.33
   5   3  10    5.20    2.02
  -5  -3 -10    5.97    1.79
  -5  -3 -11   -0.08    0.31
   5   3  11    0.39    1.03
   5   3  12    2.94    1.04
   5   3  12    6.21    2.38
   5   3  13    6.54    2.15
   5   3  13    7.62    2.49
   5   3  14   37.35    5.60
   5   3  14   29.70    4.98
   5   3  15    4.53    1.93
   5   3  15    5.08    2.16
   5   3  16   -0.40    1.33
   5   3  16    0.78    0.94
   5   3  17    3.08    1.88
   5   3  17   -0.34    0.67
   5   3  18    1.97    1.53
   5   3  18    2.24    1.23
  -5  -4  11    8.50    2.18
  -5  -4  10    2.32    1.04
  -5  -4  10    1.81    1.16
  -5  -4   9   37.65    4.20
  -5  -4   8    0.80    0.48
  -5  -4   7   -0.28    0.67
  -5  -4   6   -0.24    0.56
  -5  -4   5    4.97    1.36
  -5  -4   4    4.70    1.98
  -5  -4   4    5.86    1.42
  -5  -4   3   27.92    4.83
  -5  -4   3   28.26    3.31
  -5  -4   2   22.07    2.85
  -5  -4   2   20.18    4.12
  -5  -4   1    7.49    2.53
  -5  -4   1    6.52    1.58
  -5  -4   0   61.97    4.93
  -5  -4   0   60.43    7.05
  -5  -4  -1   22.27    2.89
  -5  -4  -1   26.91    4.71
  -5  -4  -2    0.18    0.52
  -5  -4  -2    1.42    1.35
  -5  -4  -3    0.66    0.64
  -5  -4  -3    0.54    0.70
  -5  -4  -4   11.75    2.87
  -5  -4  -4    9.15    2.00
  -5  -4  -5    7.30    1.93
  -5  -4  -5    5.99    1.93
  -5  -4  -6    5.82    2.00
  -5  -4  -7   -0.71    0.92
   5   4   7   -0.33    0.51
  -5  -4  -8   19.25    3.46
   5   4   8   14.79    3.20
  -5  -4  -9   17.03    3.15
   5   4   9   16.45    3.56
   5   4   9   16.73    3.30
  -5  -4 -10    7.41    2.04
   5   4  10    5.73    2.07
   5   4  10   10.59    2.81
  -5  -4 -11    7.17    1.92
   5   4  11    5.06    1.97
   5   4  11    9.61    2.49
  -5  -4 -12    3.00    1.20
   5   4  12    0.08    1.12
   5   4  12    2.77    1.31
   5   4  13   25.21    4.64
   5   4  13   29.75    4.66
   5   4  14   -0.53    0.88
   5   4  14    0.30    0.71
   5   4  15   26.17    4.77
   5   4  15   23.94    4.27
   5   4  16    3.48    1.88
   5   4  16    0.57    1.03
   5   4  17    0.06    0.60
  -5  -5  10    4.94    1.63
  -5  -5   9    4.79    1.66
  -5  -5   8   23.52    3.12
  -5  -5   7    3.55    1.25
  -5  -5   6    0.35    1.06
  -5  -5   6    0.71    0.49
  -5  -5   5    0.77    0.36
  -5  -5   5   -1.50    1.24
  -5  -5   4    5.25    2.12
  -5  -5   4    5.70    1.37
  -5  -5   3   48.41    3.94
  -5  -5   3   51.06    6.75
  -5  -5   2   17.86    2.29
  -5  -5   2   24.48    4.61
  -5  -5   1    0.28    0.77
  -5  -5   1    0.72    0.49
  -5  -5   0    2.30    1.30
  -5  -5   0    2.25    0.81
  -5  -5  -1   14.46    3.49
  -5  -5  -1   10.45    1.70
  -5  -5  -2   -0.16    0.31
  -5  -5  -2    0.84    1.00
  -5  -5  -3    1.82    0.69
  -5  -5  -3    3.71    1.75
  -5  -5  -4    0.62    0.33
  -5  -5  -4    1.58    1.25
  -5  -5  -5   -0.13    0.37
  -5  -5  -5    1.05    1.21
  -5  -5  -6  148.43   10.35
  -5  -5  -6  126.79    7.10
  -5  -5  -7   18.20    3.51
   5   5   7   16.06    3.34
   5   5   8   39.65    5.33
  -5  -5  -8   34.90    4.78
   5   5   8   39.22    4.81
   5   5   9   70.89    7.25
  -5  -5  -9   60.15    6.23
   5   5   9   68.31    6.41
  -5  -5 -10    2.78    1.27
   5   5  10    3.99    1.85
   5   5  10    3.57    1.39
  -5  -5 -11    1.19    0.96
   5   5  11    0.26    0.88
   5   5  11   -0.90    0.95
  -5  -5 -12    4.29    1.62
   5   5  12    9.34    2.78
   5   5  12    9.81    2.33
  -5  -5 -13    3.90    1.50
   5   5  13    4.94    2.09
   5   5  13    3.91    1.61
   5   5  14    1.66    0.94
   5   5  15    3.81    2.05
   5   5  16    2.62    1.48
   5   5  17    2.82    1.71
  -5  -6   9    4.86    1.67
  -5  -6   8   62.30    5.85
  -5  -6   7   11.53    2.55
  -5  -6   7   14.09    3.71
  -5  -6   6  113.85   10.50
  -5  -6   5   20.49    2.52
  -5  -6   5   21.26    4.43
  -5  -6   4    2.05    1.59
  -5  -6   4    1.66    0.67
  -5  -6   3    2.80    0.81
  -5  -6   3    3.31    1.52
  -5  -6   2   10.39    2.95
  -5  -6   2    7.10    1.33
  -5  -6   1    1.75    1.43
  -5  -6   1    1.88    0.66
  -5  -6   0    0.20    0.26
  -5  -6   0    0.55    0.57
  -5  -6  -1    2.38    1.81
  -5  -6  -1    0.48    0.36
  -5  -6  -2    5.06    2.17
  -5  -6  -2    5.40    0.99
  -5  -6  -3   66.73    3.69
  -5  -6  -3   75.93    7.93
  -5  -6  -4    4.18    1.92
  -5  -6  -4    2.08    0.67
  -5  -6  -5    5.86    2.06
   5   6   6   58.50    6.23
  -5  -6  -6   62.90    6.86
  -5  -6  -7   -1.70    1.14
   5   6   7   -1.08    0.86
   5   6   8   63.19    6.81
  -5  -6  -8   52.76    6.07
  -5  -6  -9    2.97    1.48
   5   6   9    1.87    1.41
   5   6  10    2.80    1.55
   5   6  11   -1.66    1.51
   5   6  12   31.66    5.22
   5   6  13    3.49    1.92
   5   6  14   28.13    5.08
   5   6  15    6.99    2.49
   5   6  16    0.34    0.82
  -5  -7   8    0.94    0.98
  -5  -7   8   -0.25    0.48
  -5  -7   7   53.27    5.27
  -5  -7   7   58.95    7.42
  -5  -7   6   17.80    2.98
  -5  -7   6   25.40    4.95
  -5  -7   5   50.21    5.01
  -5  -7   5   57.74    7.49
  -5  -7   4   14.26    3.65
  -5  -7   3    0.09    1.06
  -5  -7   2    0.94    1.25
  -5  -7   1    2.10    1.45
  -5  -7   0    2.62    1.45
  -5  -7  -1    3.85    2.02
  -5  -7  -2    1.15    0.95
  -5  -7  -3    1.68    1.34
  -5  -7  -4    7.13    2.38
  -5  -7  -5    3.73    1.99
   5   7   5    4.51    1.52
  -5  -7  -6    1.34    1.10
   5   7   6    3.28    1.46
  -5  -7  -7   -0.20    0.90
   5   7   7    1.35    1.14
   5   7   8   12.61    3.04
   5   7   9    1.12    1.01
   5   7  10   35.21    5.27
   5   7  11    3.03    1.77
   5   7  12   15.00    3.71
   5   7  13    9.53    2.95
   5   7  14   -0.34    1.11
   5   7  15    1.60    1.32
  -5  -8   9    0.06    0.37
  -5  -8   8   -1.95    1.35
  -5  -8   7   -0.47    0.56
  -5  -8   7    0.35    0.42
  -5  -8   6   11.19    3.25
  -5  -8   6   13.15    2.51
  -5  -8   5    1.20    0.76
  -5  -8   5    0.10    0.54
  -5  -8   4   21.02    3.03
  -5  -8   4    9.84    3.09
  -5  -8   3   12.25    3.48
  -5  -8   3   12.73    2.35
  -5  -8   2    1.41    0.70
  -5  -8   2    1.62    1.45
  -5  -8   1    1.54    1.28
  -5  -8   0   10.16    3.14
  -5  -8  -1    1.01    1.08
  -5  -8  -2   34.20    5.55
  -5  -8  -3   13.57    3.43
  -5  -8  -4    0.92    1.03
   5   8   5   36.78    4.84
  -5  -8  -5   41.64    5.97
   5   8   6    0.21    0.74
   5   8   7    4.78    1.81
   5   8   8   23.03    4.13
   5   8   9    2.32    1.48
   5   8  10    1.91    1.13
   5   8  11   -1.25    1.12
   5   8  12    2.32    1.69
   5   8  13   18.51    4.11
   5   8  14    0.08    0.66
  -5  -9   7   -0.89    0.99
  -5  -9   6    2.84    1.26
  -5  -9   6    6.36    2.48
  -5  -9   5   -0.13    0.29
  -5  -9   5    0.03    0.60
  -5  -9   4    3.45    1.81
  -5  -9   4    1.65    0.75
  -5  -9   3   12.75    2.28
  -5  -9   3   11.56    3.40
  -5  -9   2    0.47    0.40
  -5  -9   2    2.20    1.59
  -5  -9   1   31.91    3.38
  -5  -9   1   33.26    5.75
  -5  -9   0   24.62    2.87
  -5  -9   0   22.16    4.61
  -5  -9  -1    1.79    1.67
  -5  -9  -1    1.66    0.80
  -5  -9  -2   21.57    4.55
  -5  -9  -3    4.12    2.09
  -5  -9  -4  159.06   12.22
  -5  -9  -5    3.30    1.83
   5   9   5    4.44    1.90
   5   9   6   29.24    4.49
   5   9   7   44.88    5.58
   5   9   8   15.28    3.37
   5   9   9    4.88    1.96
   5   9  10    4.31    1.94
   5   9  11   -0.11    0.72
   5   9  12   -0.22    0.64
  -5 -10   5    1.14    0.77
  -5 -10   4   -2.20    1.50
  -5 -10   4    0.39    0.45
  -5 -10   3    4.91    1.35
  -5 -10   3    8.23    2.98
  -5 -10   2    3.66    1.98
  -5 -10   1    2.05    1.41
  -5 -10   0   -1.92    1.43
  -5 -10  -1   16.18    4.06
  -5 -10  -2   16.54    4.00
  -5 -10  -3    1.94    1.47
  -5 -10  -4   17.38    4.00
   5  10   5    6.86    2.21
   5  10   6   20.48    3.66
   5  10   7    2.80    1.54
   5  10   8   -0.60    0.63
   5  10   9    0.58    0.79
   5  10  10   -0.32    1.49
   5  10  11   -1.85    1.35
   5  11   7    0.15    0.64
   5  11   8    2.97    1.64
   5  11   9   -1.74    1.21
   6  -6   2    3.81    1.91
   6  -6   3    1.91    1.45
  -6   5   3    3.26    1.59
  -6   5   2    3.10    1.68
  -6   5   1   20.70    4.33
  -6   5   0    3.18    1.78
  -6   5  -1    2.52    1.46
  -6   5  -2    7.67    2.73
   6  -5   2    7.08    2.65
  -6   5  -3    3.11    1.63
   6  -5   3    0.13    0.63
  -6   5  -4   21.28    4.45
   6  -5   4   29.03    5.53
   6  -5   5    1.02    0.77
   6  -5   6    1.73    1.42
  -6   4   5    3.16    1.83
  -6   4   4    1.18    0.66
  -6   4   3    5.35    2.12
  -6   4   2   12.84    3.52
  -6   4   1   12.88    3.51
  -6   4   0    4.73    2.10
  -6   4  -1   -0.02    1.27
  -6   4  -2    1.39    1.26
   6  -4   2   -0.25    0.64
  -6   4  -3    8.88    2.97
   6  -4   3    8.55    3.11
   6  -4   4    7.93    2.97
   6  -4   5    7.06    2.81
   6  -4   6    0.01    1.06
   6  -4   7    2.09    1.75
   6  -4   8   14.17    3.90
   6  -4   9    6.20    2.83
  -6   3   7    4.16    1.90
  -6   3   6   15.76    3.49
  -6   3   5    6.65    2.41
  -6   3   4    0.17    0.67
  -6   3   3    1.04    1.39
  -6   3   2    4.78    1.99
  -6   3   1   -0.52    1.00
  -6   3   0    2.36    1.30
  -6   3  -1    4.25    1.93
  -6   3  -2   19.40    4.42
   6  -3   2   18.69    4.46
  -6   3  -3    1.67    1.39
   6  -3   3    3.48    2.06
   6  -3   4    0.58    1.26
   6  -3   5    1.77    1.42
   6  -3   6   -0.53    0.81
   6  -3   7    0.96    1.23
   6  -3   8    4.57    2.15
   6  -3   9   11.16    3.60
   6  -3  10    2.91    1.76
  -6   2   8    4.98    1.86
  -6   2   7   -1.23    1.03
  -6   2   6   -3.02    1.52
  -6   2   5    1.06    0.80
  -6   2   4   -0.50    1.30
  -6   2   3    2.39    1.50
  -6   2   2    7.87    2.73
  -6   2   1    0.52    1.50
  -6   2   0   14.63    3.61
  -6   2  -1    4.10    1.90
  -6   2  -2   -1.61    1.37
   6  -2   2    0.57    1.25
  -6   2  -3    3.64    1.76
   6  -2   3    4.34    2.25
   6  -2   4   51.59    7.46
   6  -2   5    0.49    0.53
   6  -2   6   13.55    3.73
   6  -2   7    0.67    0.97
   6  -2   8    4.55    2.23
   6  -2   9    4.90    2.31
   6  -2  10    0.67    1.07
   6  -2  11    0.67    0.87
   6  -2  12   15.11    4.27
  -6   1   9   14.69    3.14
  -6   1   8   45.94    5.61
  -6   1   7    1.88    1.13
  -6   1   6   -1.36    1.14
  -6   1   5    6.40    2.08
  -6   1   4   -0.09    0.82
  -6   1   3    0.34    1.02
  -6   1   2    5.10    1.89
  -6   1   1    3.21    1.74
  -6   1   0    1.41    1.39
  -6   1  -1    8.20    2.73
  -6   1  -2    5.66    2.32
  -6   1  -3    0.44    1.08
   6  -1   3    0.36    0.83
   6  -1   4   19.26    4.50
   6  -1   5    8.11    2.93
   6  -1   6   29.76    5.63
   6  -1   7    4.21    2.18
   6  -1   8    2.48    1.80
   6  -1   9    0.02    1.23
   6  -1  10    1.88    1.53
   6  -1  11    0.66    0.84
   6  -1  12    9.48    3.54
   6  -1  13    0.93    1.18
  -6   0   9   64.47    6.32
  -6   0   8    8.66    2.32
  -6   0   7   23.35    3.91
  -6   0   6   -0.69    0.43
  -6   0   5    1.34    1.05
  -6   0   4    1.44    1.29
  -6   0   3   -0.50    1.02
  -6   0   2    3.99    1.62
  -6   0   1   10.71    2.86
  -6   0   0   31.38    5.24
  -6   0  -1   -1.07    1.09
  -6   0  -2    2.69    1.52
  -6   0  -3   23.56    4.42
   6   0   3   17.83    4.19
   6   0   4   -0.22    1.29
   6   0   5    1.69    1.45
   6   0   6    6.31    2.57
   6   0   7    2.52    1.69
   6   0   8    4.22    1.82
   6   0   9    0.51    1.02
   6   0  10    4.34    1.97
   6   0  11   -1.26    0.68
   6   0  12    2.85    1.92
   6   0  13    6.95    2.75
   6   0  14    4.19    2.25
   6   0  15   41.81    7.10
  -6  -1   9   -0.67    0.56
  -6  -1   8    6.02    1.78
  -6  -1   7    0.91    0.92
  -6  -1   6    4.85    1.77
  -6  -1   5    4.36    1.62
  -6  -1   4    0.35    0.61
  -6  -1   3    1.45    0.54
  -6  -1   2    1.93    1.03
  -6  -1   1    1.26    0.77
  -6  -1   0   -1.06    1.01
  -6  -1  -1    4.58    2.01
  -6  -1  -2    7.99    2.54
  -6  -1  -3   49.61    6.27
  -6  -1  -4    2.91    1.77
   6   1   4    2.18    1.63
   6   1   5   35.66    5.87
   6   1   6   12.36    3.51
   6   1   7   19.75    4.32
   6   1   8   10.48    3.20
   6   1   9    9.47    3.11
   6   1  10   -1.55    1.33
   6   1  11    4.14    2.16
   6   1  12   15.06    4.08
   6   1  13    9.17    3.14
   6   1  14   -2.17    1.61
   6   1  15   -0.54    0.96
   6   1  16    6.66    2.75
  -6  -2  10    4.81    1.66
  -6  -2   9   -0.10    0.43
  -6  -2   8    3.10    1.38
  -6  -2   7    5.05    1.62
  -6  -2   6    3.31    1.32
  -6  -2   5    5.50    1.77
  -6  -2   4   -0.72    0.60
  -6  -2   3    0.42    0.92
  -6  -2   2    7.46    2.14
  -6  -2   1    0.45    0.45
  -6  -2   0   14.37    3.03
  -6  -2  -1   11.56    2.79
  -6  -2  -2  872.55   29.49
  -6  -2  -3   22.53    4.05
  -6  -2  -4  132.75    9.99
   6   2   5   26.19    4.90
   6   2   6    0.21    0.71
   6   2   7   13.16    3.57
   6   2   8    1.74    1.30
   6   2   9    0.64    1.04
   6   2  10   -0.19    0.90
   6   2  11    2.48    1.64
   6   2  12    0.09    0.58
   6   2  13   -0.40    0.85
   6   2  14   -1.75    1.41
   6   2  15   -0.54    0.89
   6   2  16   14.76    4.04
   6   2  17   -2.25    1.68
  -6  -3  10    7.13    1.98
  -6  -3   9    4.38    1.58
  -6  -3   8   10.69    2.34
  -6  -3   7   -0.28    0.90
  -6  -3   6    0.76    0.64
  -6  -3   5    4.25    1.55
  -6  -3   4    2.51    1.06
  -6  -3   3    0.50    0.72
  -6  -3   2   -0.27    0.82
  -6  -3   1   15.34    2.98
  -6  -3   0   65.81    6.32
  -6  -3  -1   38.12    5.75
  -6  -3  -1   30.71    4.23
  -6  -3  -2   93.62    8.93
  -6  -3  -2   82.91    7.15
  -6  -3  -3  112.40    8.57
  -6  -3  -3  122.96   10.11
  -6  -3  -4  171.06   10.66
  -6  -3  -4  171.02   11.91
  -6  -3  -5   25.15    4.04
  -6  -3  -5   36.95    5.23
  -6  -3  -6   14.93    3.31
   6   3   6   35.46    5.75
  -6  -3  -7    1.68    1.22
   6   3   7   -3.04    1.68
  -6  -3  -8    4.22    1.56
   6   3   8    5.13    2.17
  -6  -3  -9    3.02    1.37
   6   3   9    5.81    2.24
  -6  -3 -10    0.61    0.52
   6   3  10    0.59    0.83
   6   3  11    0.46    0.75
   6   3  12    3.51    2.07
   6   3  13    1.65    1.30
   6   3  14    0.38    0.47
   6   3  15   10.89    3.32
   6   3  16   13.99    3.76
   6   3  17    0.28    0.60
  -6  -4  10    4.41    1.52
  -6  -4   9    4.55    1.51
  -6  -4   8    7.40    1.83
  -6  -4   7    0.72    0.54
  -6  -4   6    0.41    0.33
  -6  -4   5    5.79    1.61
  -6  -4   4    3.10    1.19
  -6  -4   3    0.95    1.00
  -6  -4   2    1.90    0.85
  -6  -4   2    2.00    1.61
  -6  -4   1    3.80    1.70
  -6  -4   1    4.61    1.40
  -6  -4   0    2.08    1.28
  -6  -4   0    1.81    0.78
  -6  -4  -1    1.33    0.78
  -6  -4  -1    0.90    1.00
  -6  -4  -2    0.07    0.77
  -6  -4  -2    1.66    1.25
  -6  -4  -3    2.31    1.26
  -6  -4  -3    5.22    2.09
  -6  -4  -4    2.24    1.10
  -6  -4  -4   -0.91    1.43
  -6  -4  -5    4.51    1.55
  -6  -4  -5    2.58    1.02
  -6  -4  -6    7.02    1.89
  -6  -4  -6    5.03    1.97
  -6  -4  -7    8.07    2.33
  -6  -4  -8   -0.58    1.26
   6   4   8   -0.96    1.29
  -6  -4  -9    3.72    1.64
   6   4   9    1.96    1.28
  -6  -4 -10   -1.63    1.03
   6   4  10    2.34    1.41
  -6  -4 -11    1.38    0.90
   6   4  11   -0.48    1.06
   6   4  12    1.76    1.10
   6   4  13   16.28    3.73
   6   4  14   11.70    3.21
   6   4  15   14.97    3.58
   6   4  16   20.51    4.23
  -6  -5   9   -0.02    0.31
  -6  -5   8   16.46    2.69
  -6  -5   7   -0.22    0.38
  -6  -5   6    5.39    1.55
  -6  -5   5    0.51    0.43
  -6  -5   4   -2.31    1.52
  -6  -5   4    0.47    0.50
  -6  -5   3    3.42    1.96
  -6  -5   3    0.74    0.68
  -6  -5   2    5.09    2.16
  -6  -5   2    6.00    1.49
  -6  -5   1    6.94    2.52
  -6  -5   1    4.94    1.37
  -6  -5   0    0.22    0.54
  -6  -5   0   -0.40    0.44
  -6  -5  -1   20.97    4.42
  -6  -5  -1   12.49    2.14
  -6  -5  -2   -0.39    0.59
  -6  -5  -2    0.48    0.83
  -6  -5  -3    0.05    0.29
  -6  -5  -3    0.27    1.13
  -6  -5  -4   -0.13    0.43
  -6  -5  -4    0.23    0.85
  -6  -5  -5   -0.49    0.70
  -6  -5  -5    0.12    0.49
  -6  -5  -6   -0.74    0.85
  -6  -5  -6    0.07    0.29
  -6  -5  -7   -0.27    0.25
  -6  -5  -7    2.95    1.67
  -6  -5  -8    0.81    0.38
  -6  -5  -9    5.34    2.07
  -6  -5 -10    2.15    1.22
   6   5  10    5.52    2.00
  -6  -5 -11    0.19    0.42
   6   5  11    1.28    1.22
  -6  -5 -12    4.47    1.64
   6   5  12    2.06    1.15
   6   5  13   11.53    2.89
   6   5  14   54.18    7.15
   6   5  15   73.53    8.55
  -6  -6   7    2.84    1.08
  -6  -6   6    1.38    0.80
  -6  -6   5    6.77    1.47
  -6  -6   5   10.07    3.16
  -6  -6   4   12.81    3.64
  -6  -6   4    9.59    1.77
  -6  -6   3    0.77    0.62
  -6  -6   3    0.49    0.48
  -6  -6   2    6.34    2.47
  -6  -6   2    8.19    1.58
  -6  -6   1    1.94    0.74
  -6  -6   1    1.93    1.33
  -6  -6   0   50.45    3.81
  -6  -6   0   65.99    8.02
  -6  -6  -1   -0.69    1.15
  -6  -6  -2   24.86    4.78
  -6  -6  -3    0.76    1.26
  -6  -6  -4    1.73    1.59
  -6  -6  -5   13.05    3.31
  -6  -6  -6    1.18    1.11
  -6  -6  -7    2.28    1.49
  -6  -6  -8    0.80    0.91
  -6  -6  -9    2.42    1.34
  -6  -6 -10    0.21    0.52
  -6  -6 -11    6.60    2.17
   6   6  11    5.28    2.00
  -6  -6 -12   12.70    2.86
   6   6  12   14.15    3.57
  -6  -6 -13    5.33    1.78
   6   6  13    9.62    2.95
   6   6  14   57.41    7.45
  -6  -7   6    2.94    1.38
  -6  -7   6    2.33    1.42
  -6  -7   5    0.15    0.60
  -6  -7   4    0.17    0.84
  -6  -7   3    3.92    2.13
  -6  -7   2    4.24    2.08
  -6  -7   1   -0.79    1.17
  -6  -7   0    2.89    1.78
  -6  -7  -1    7.50    2.63
  -6  -7  -2   17.77    3.97
  -6  -7  -3    7.18    2.55
  -6  -7  -4    2.44    1.29
  -6  -7  -5   -0.19    0.97
  -6  -7  -6    9.87    2.90
  -6  -7  -7    2.70    1.63
  -6  -7  -8    1.04    0.55
  -6  -7  -9    1.15    1.03
  -6  -7 -10    1.84    1.09
   6   7  10    2.94    1.70
  -6  -7 -11   -0.25    0.31
   6   7  11    3.05    2.02
  -6  -7 -12    0.43    0.65
   6   7  12    1.28    1.20
  -6  -7 -13    6.22    2.08
   6   7  13    9.61    2.98
  -6  -8   5   11.72    2.40
  -6  -8   5    2.69    1.78
  -6  -8   4    5.23    2.42
  -6  -8   4    8.63    2.07
  -6  -8   3    1.80    1.62
  -6  -8   2    1.39    1.20
  -6  -8   1    5.04    2.32
  -6  -8   0   -0.38    0.78
  -6  -8  -1    0.40    0.37
  -6  -8  -2   -2.12    1.47
  -6  -8  -3   13.29    3.61
  -6  -8  -4    1.94    1.10
  -6  -8  -5    4.81    2.24
  -6  -8  -6    0.95    0.89
  -6  -8  -7    1.17    1.11
  -6  -8  -8    8.80    2.67
  -6  -8  -9    0.10    0.41
   6   8   9    1.07    0.94
  -6  -8 -10    7.40    2.47
   6   8  10    8.25    2.66
  -6  -8 -11   12.66    3.13
   6   8  11   14.50    3.71
  -6  -8 -12    1.31    1.21
   6   8  12    0.04    0.81
  -6  -8 -13    2.21    1.49
  -6  -8 -14    2.53    1.33
  -6  -9   4    6.56    1.69
  -6  -9   3    4.22    1.42
  -6  -9   2    0.64    0.91
  -6  -9   2    0.30    0.49
  -6  -9   1   -0.75    1.01
  -6  -9   1    0.27    0.35
  -6  -9   0   19.32    4.57
  -6  -9  -1   25.00    5.03
  -6  -9  -2    0.32    1.25
  -6  -9  -3    0.60    0.95
  -6  -9  -4   -2.19    1.50
  -6  -9  -5    2.02    1.43
  -6  -9  -6    0.91    0.81
  -6  -9  -7   20.65    4.25
  -6  -9  -8    0.38    0.68
   6   9   8    0.37    0.91
  -6  -9  -9   31.15    5.06
   6   9   9   30.92    5.09
  -6  -9 -10   12.88    3.20
   6   9  10   17.85    3.92
  -6  -9 -11    1.36    1.27
   6   9  11    0.06    0.74
  -6  -9 -12    3.63    1.57
   6  10   8   12.99    3.16
   6  10   9   -1.12    1.05
  -7   3  -2   10.38    3.22
  -7   3  -3   -1.15    0.78
   7  -3   4    0.62    1.22
   7  -3   5    0.97    1.28
  -7   2   2    2.44    1.19
  -7   2   1    1.04    0.71
  -7   2   0    4.66    2.27
  -7   2  -1   12.53    3.54
  -7   2  -2    2.81    1.51
  -7   2  -3   -0.25    0.74
  -7   2  -4    0.21    0.68
   7  -2   4   -1.99    1.61
  -7   2  -5    4.24    2.04
   7  -2   5    0.88    0.88
   7  -2   6   -1.25    1.25
   7  -2   7    0.41    0.85
   7  -2   8    0.78    1.11
  -7   1   4   -0.68    1.16
  -7   1   3    8.68    2.72
  -7   1   2   55.66    7.06
  -7   1   1   13.23    3.38
  -7   1   0    2.48    1.41
  -7   1  -1   -0.02    1.01
  -7   1  -2    4.87    2.11
  -7   1  -3    0.60    1.21
  -7   1  -4    3.52    2.19
   7  -1   4    1.50    1.31
  -7   1  -5    1.59    1.30
   7  -1   5    2.75    1.88
   7  -1   6    1.57    1.47
   7  -1   7    5.73    2.93
   7  -1   8    1.24    1.02
   7  -1   9    1.06    1.26
   7  -1  10    3.84    2.02
  -7   0   5   -0.36    0.82
  -7   0   4    0.18    0.75
  -7   0   3    9.70    2.75
  -7   0   2    2.45    1.80
  -7   0   1   21.72    4.36
  -7   0   0   22.92    4.45
  -7   0  -1    0.85    1.13
  -7   0  -2    1.45    1.17
  -7   0  -3   -0.70    1.49
  -7   0  -4   13.22    3.59
  -7   0  -5   -1.25    0.87
   7   0   5   -0.63    1.23
   7   0   6   -1.47    1.41
   7   0   7    6.54    2.89
   7   0   8    2.31    1.82
   7   0   9    4.42    2.17
   7   0  10    2.32    1.58
   7   0  11    3.53    1.83
  -7  -1   6   -0.69    0.75
  -7  -1   5   -0.27    0.61
  -7  -1   4    2.41    1.49
  -7  -1   3   20.18    3.83
  -7  -1   2    0.18    0.63
  -7  -1   1    0.33    0.64
  -7  -1   0    3.73    1.72
  -7  -1  -1    0.08    0.71
  -7  -1  -2    0.18    0.61
  -7  -1  -3    8.34    2.60
  -7  -1  -4    0.94    0.70
  -7  -1  -5    2.07    1.23
  -7  -1  -6    0.52    1.15
   7   1   6    0.01    0.55
   7   1   7    0.35    1.17
   7   1   8    1.90    1.73
   7   1   9    5.30    2.38
   7   1  10   -1.88    1.56
   7   1  11   13.82    4.06
   7   1  12    0.59    1.19
   7   1  13    2.67    1.85
  -7  -2   7    2.32    1.20
  -7  -2   6    6.21    1.94
  -7  -2   5    4.15    1.80
  -7  -2   4    1.30    0.84
  -7  -2   3   -3.21    1.47
  -7  -2   2    2.74    1.31
  -7  -2   1    1.12    1.09
  -7  -2   0   -0.71    1.01
  -7  -2  -1    0.52    0.76
  -7  -2  -2    0.46    0.89
  -7  -2  -3    3.76    1.34
  -7  -2  -4   22.75    4.27
  -7  -2  -5    9.36    2.60
  -7  -2  -6    3.80    1.76
   7   2   7    3.02    1.79
   7   2   8   14.53    4.05
   7   2   9   -0.18    0.84
   7   2  10   38.04    6.48
   7   2  11   18.64    4.46
   7   2  12   19.33    4.71
   7   2  13    5.04    2.26
   7   2  14    3.21    1.99
  -7  -3   7    0.68    0.56
  -7  -3   6    0.51    0.79
  -7  -3   5   14.33    2.85
  -7  -3   4   40.87    4.85
  -7  -3   3    2.57    1.32
  -7  -3   2   21.57    3.64
  -7  -3   1    0.88    0.94
  -7  -3   0    5.34    1.81
  -7  -3  -1   12.11    2.81
  -7  -3  -2   12.97    2.99
  -7  -3  -3   17.89    3.55
  -7  -3  -4    2.79    1.36
  -7  -3  -5    8.87    2.42
  -7  -3  -6    0.49    0.74
  -7  -3  -7   -0.22    0.98
  -7  -3  -8    0.65    0.73
   7   3   8    1.65    1.06
  -7  -3  -9    0.04    0.69
   7   3   9    1.59    1.06
   7   3  10   21.41    4.72
   7   3  11    7.28    2.97
   7   3  12    2.78    1.77
   7   3  13    3.37    1.92
   7   3  14    7.49    2.79
   7   3  15    2.84    2.19
  -7  -4   7   -0.29    0.47
  -7  -4   6   -1.09    0.77
  -7  -4   5    4.57    1.56
  -7  -4   4    1.36    1.04
  -7  -4   3   17.24    3.01
  -7  -4   2    1.34    0.85
  -7  -4   1    1.35    0.74
  -7  -4   0    2.88    1.20
  -7  -4  -1   -1.11    0.83
  -7  -4  -2    8.63    2.26
  -7  -4  -2    7.66    2.72
  -7  -4  -3    0.24    0.64
  -7  -4  -3   -0.79    0.84
  -7  -4  -4    1.03    1.11
  -7  -4  -4    0.84    0.95
  -7  -4  -5    2.00    0.95
  -7  -4  -5    1.40    1.14
  -7  -4  -6   -0.34    0.65
  -7  -4  -6    1.02    0.81
  -7  -4  -7    0.89    0.90
  -7  -4  -7    1.63    1.25
  -7  -4  -8    4.05    1.74
  -7  -4  -8    3.71    1.58
  -7  -4  -9   17.24    3.50
   7   4   9   12.13    3.37
  -7  -4 -10    0.83    1.00
   7   4  10   -1.74    1.35
   7   4  11   -2.43    1.59
   7   4  12    3.05    1.78
   7   4  13    3.90    1.96
   7   4  14    0.85    0.84
   7   4  15    5.47    2.27
  -7  -5   7    4.77    1.53
  -7  -5   6    0.91    0.80
  -7  -5   5    1.03    0.63
  -7  -5   4    1.09    0.77
  -7  -5   3    4.48    1.37
  -7  -5   2    1.88    0.91
  -7  -5   1    8.03    2.81
  -7  -5   1    4.72    1.40
  -7  -5   0    2.41    1.59
  -7  -5   0    3.89    1.38
  -7  -5  -1    3.16    1.70
  -7  -5  -1    4.03    1.39
  -7  -5  -2    4.91    1.57
  -7  -5  -2    5.93    2.38
  -7  -5  -3    1.94    1.14
  -7  -5  -3    1.13    1.15
  -7  -5  -4    0.84    0.80
  -7  -5  -4    0.78    0.76
  -7  -5  -5   -0.10    0.43
  -7  -5  -5   -1.64    1.24
  -7  -5  -6    7.11    2.54
  -7  -5  -7    5.91    2.11
  -7  -5  -8    2.67    1.53
  -7  -5  -9    0.58    0.73
  -7  -5 -10    4.09    1.70
  -7  -5 -11   -2.27    1.28
   7   5  11   -1.46    1.19
   7   5  12   -0.58    0.77
   7   5  13    0.63    1.15
  -7  -6   3    8.17    3.08
  -7  -6   2    2.56    1.87
  -7  -6   1    1.31    1.06
  -7  -6   0    4.18    2.17
  -7  -6  -1    0.58    0.82
  -7  -6  -2    0.76    1.07
  -7  -6  -3    2.60    1.78
  -7  -6  -4    3.76    2.00
  -7  -6  -5   -1.21    1.12
  -7  -6  -6   25.35    4.73
  -7  -6  -7   -1.25    1.08
  -7  -6  -8   29.83    4.98
  -7  -6  -9   13.41    3.26
  -7  -6 -10    8.74    2.54
  -7  -6 -11    6.07    2.12
  -7  -7   2    0.05    0.60
  -7  -7   1   -0.98    1.13
  -7  -7   0   -2.60    1.81
  -7  -7  -1   -0.36    0.79
  -7  -7  -2   -1.62    1.35
  -7  -7  -3    9.58    2.93
  -7  -7  -4    3.28    1.77
  -7  -7  -5    2.84    1.78
  -7  -7  -6    2.26    1.49
  -7  -7  -7    1.61    1.43
  -7  -7  -8   22.54    4.34
  -7  -7  -9    2.62    1.47
  -7  -7 -10    0.57    0.40
  -7  -7 -11    0.39    0.60
  -7  -7 -12    9.00    2.52
  -7  -8  -1   -2.08    1.57
  -7  -8  -2    2.23    1.93
  -7  -8  -3   -2.20    1.55
  -7  -8  -4    0.47    1.09
  -7  -8  -5    1.07    1.28
  -7  -8  -6   -0.16    0.63
  -7  -8  -7    3.82    1.80
  -7  -8  -8   -0.27    0.58
  -7  -8  -9    0.77    0.38
  -7  -8 -10    3.36    1.67
  -7  -8 -11   -2.09    1.28
  -7  -8 -12    2.65    1.33
  -8  -1   0    2.39    1.50
  -8  -1  -1    2.07    1.49
  -8  -1  -2    0.87    1.15
  -8  -1  -3   -1.26    1.18
  -8  -1  -4    0.54    1.09
  -8  -1  -5    2.62    1.60
  -8  -1  -6    0.65    0.94
  -8  -1  -7   -0.15    0.57
  -8  -1  -8    1.03    0.44
  -8  -2   2    2.53    1.24
  -8  -2   1   -0.38    0.62
  -8  -2   0   -0.07    0.58
  -8  -2  -1   -1.93    1.30
  -8  -2  -2   20.23    4.10
  -8  -2  -3   20.69    4.09
  -8  -2  -4   17.69    3.80
  -8  -2  -5    1.55    0.88
  -8  -2  -6    2.53    1.69
  -8  -2  -7    1.00    0.48
  -8  -2  -8    0.87    0.69
  -8  -3   3   -0.03    0.29
  -8  -3   2    1.37    1.09
  -8  -3   1    0.04    0.40
  -8  -3   0   -1.96    1.19
  -8  -3  -1    3.33    1.55
  -8  -3  -2   99.08    8.57
  -8  -3  -3   38.59    5.29
  -8  -3  -4  126.15    9.90
  -8  -3  -5    1.45    0.71
  -8  -3  -6   10.55    2.82
  -8  -3  -7    0.52    0.58
  -8  -3  -8   -0.10    0.52
  -8  -3  -9    0.97    1.11
   8   3  10    2.21    1.68
  -8  -4   3    1.07    1.03
  -8  -4   2    2.65    1.19
  -8  -4   1    4.54    1.51
  -8  -4   0   12.01    2.64
  -8  -4  -1    1.91    1.03
  -8  -4  -2    2.79    1.25
  -8  -4  -3   12.18    2.74
  -8  -4  -4   15.18    3.12
  -8  -4  -5   16.15    3.24
  -8  -4  -6    2.59    1.24
  -8  -4  -7    0.67    0.70
  -8  -4  -8    4.17    1.73
   8   4  11    1.95    1.35
  -8  -5  -3    0.85    0.99
  -8  -5  -4   -1.23    1.13
  -8  -5  -5    0.53    0.79
  -8  -5  -6    0.88    0.88
  -8  -5  -7    2.63    1.47
  -8  -5  -8    0.25    0.59
  -8  -5  -9    4.07    1.82
  -8  -6  -4   -0.18    0.53
  -8  -6  -5    1.45    1.25
  -8  -6  -6    1.48    1.23
  -8  -6  -7    0.78    0.90
  -8  -6  -8   -0.61    0.76
  -8  -6  -9   -0.31    0.57
  -8  -6 -10   -0.62    0.76
   0   0   0    0.00    0.00



TITL exp_5952 in P-1
REM P-1 (#2 in standard setting)
CELL 0.71073   6.518724   9.130527  15.218412  80.7858  77.8846  73.8184
ZERR    2.00   0.001137   0.001614   0.002898   0.0157   0.0162   0.0154
LATT  1
SFAC C H
UNIT 68.00 44.00
TREF
HKLF 4
END
_computing_structure_solution     'SHELXT 2018/2 (Sheldrick, 2018)'
_computing_structure_solution     'SHELXT 2018/2 (Sheldrick, 2018)'
;
_shelx_hkl_checksum              28004
loop_
_space_group_symop_operation_xyz
'x, y, z'
'-x, -y, -z'
loop_
_atom_site_label
_atom_site_type_symbol
_atom_site_fract_x
_atom_site_fract_y
_atom_site_fract_z
_atom_site_U_iso_or_equiv
_atom_site_adp_type
_atom_site_occupancy
_atom_site_site_symmetry_order
_atom_site_calc_flag
_atom_site_refinement_flags_posn
_atom_site_refinement_flags_adp
_atom_site_refinement_flags_occupancy
_atom_site_disorder_assembly
_atom_site_disorder_group
F001 F 0.9134(3) 0.66049(17) 0.67414(10) 0.0615(5) Uani 1 1 d . . . . .
F002 F 0.8283(3) 0.95931(19) 0.60199(9) 0.0643(5) Uani 1 1 d . . . . .
F003 F 0.7251(3) 0.8171(2) 0.96865(9) 0.0700(5) Uani 1 1 d . . . . .
F004 F 0.6454(3) 1.11610(18) 0.89696(11) 0.0721(6) Uani 1 1 d . . . . .
O005 O 0.8492(3) 0.5960(2) 0.85574(13) 0.0594(6) Uani 1 1 d . . . . .
O006 O 0.6898(3) 1.1811(2) 0.71591(14) 0.0650(6) Uani 1 1 d . . . . .
C007 C 0.3444(4) 0.8218(2) 0.66164(13) 0.0290(5) Uani 1 1 d . . . . .
C008 C 0.2751(4) 0.9822(2) 0.68449(14) 0.0280(5) Uani 1 1 d . . . . .
C009 C 0.3488(4) 0.7253(2) 0.74959(13) 0.0293(5) Uani 1 1 d . . . . .
C00A C 0.4372(4) 0.6379(2) 0.54028(13) 0.0326(6) Uani 1 1 d . . . . .
C00B C 0.2816(4) 0.8229(2) 0.81945(14) 0.0306(5) Uani 1 1 d . . . . .
C00C C 0.2379(4) 0.9818(2) 0.77889(14) 0.0302(5) Uani 1 1 d . . . . .
C00D C 0.3690(4) 0.7866(2) 0.57674(14) 0.0335(6) Uani 1 1 d . . . . .
H00D H 0.3373 0.8709 0.5340 0.040 Uiso 1 1 calc R U . . .
C00E C 0.8431(4) 0.7754(3) 0.72566(15) 0.0373(6) Uani 1 1 d . . . . .
C00F C 0.6773(4) 0.3869(3) 0.52141(14) 0.0386(6) Uani 1 1 d . . . . .
H00F H 0.7965 0.3107 0.5367 0.046 Uiso 1 1 calc R U . . .
C00G C 0.3917(4) 0.5673(2) 0.77303(15) 0.0387(6) Uani 1 1 d . . . . .
H00G H 0.4354 0.5007 0.7285 0.046 Uiso 1 1 calc R U . . .
C00H C 0.8161(4) 0.7299(3) 0.82362(16) 0.0377(6) Uani 1 1 d . . . . .
C00I C 0.7075(4) 1.0019(3) 0.84515(16) 0.0408(6) Uani 1 1 d . . . . .
C00J C 0.2435(4) 1.1205(2) 0.62952(16) 0.0386(6) Uani 1 1 d . . . . .
H00J H 0.2698 1.1219 0.5670 0.046 Uiso 1 1 calc R U . . .
C00K C 0.2597(4) 0.7636(3) 0.90955(15) 0.0405(6) Uani 1 1 d . . . . .
H00K H 0.2169 0.8288 0.9549 0.049 Uiso 1 1 calc R U . . .
C00L C 0.6163(4) 0.5227(3) 0.56012(15) 0.0402(6) Uani 1 1 d . . . . .
H00L H 0.6968 0.5372 0.6002 0.048 Uiso 1 1 calc R U . . .
C00M C 0.8030(4) 0.9203(3) 0.69095(14) 0.0396(6) Uani 1 1 d . . . . .
C00N C 0.7460(4) 0.8565(3) 0.87995(14) 0.0404(6) Uani 1 1 d . . . . .
C00O C 0.1662(4) 1.1198(3) 0.81768(16) 0.0400(6) Uani 1 1 d . . . . .
H00O H 0.1403 1.1200 0.8801 0.048 Uiso 1 1 calc R U . . .
C00P C 0.7285(4) 1.0480(3) 0.74721(17) 0.0410(6) Uani 1 1 d . . . . .
C00Q C 0.3682(4) 0.5108(3) 0.86371(16) 0.0470(7) Uani 1 1 d . . . . .
H00Q H 0.3977 0.4053 0.8794 0.056 Uiso 1 1 calc R U . . .
C00R C 0.3024(4) 0.6065(3) 0.93131(16) 0.0476(7) Uani 1 1 d . . . . .
H00R H 0.2866 0.5653 0.9916 0.057 Uiso 1 1 calc R U . . .
C00S C 0.1727(4) 1.2559(3) 0.66887(17) 0.0467(7) Uani 1 1 d . . . . .
H00S H 0.1502 1.3490 0.6324 0.056 Uiso 1 1 calc R U . . .
C00T C 0.1346(4) 1.2554(3) 0.76187(18) 0.0501(7) Uani 1 1 d . . . . .
H00T H 0.0870 1.3480 0.7870 0.060 Uiso 1 1 calc R U . . .
loop_
_atom_site_aniso_label
_atom_site_aniso_U_11
_atom_site_aniso_U_22
_atom_site_aniso_U_33
_atom_site_aniso_U_23
_atom_site_aniso_U_13
_atom_site_aniso_U_12
F001 0.0597(12) 0.0652(10) 0.0664(10) -0.0360(8) -0.0042(8) -0.0157(9)
F002 0.0640(13) 0.0934(12) 0.0316(8) 0.0095(8) -0.0140(8) -0.0187(10)
F003 0.0673(13) 0.1047(13) 0.0304(8) 0.0005(8) -0.0013(8) -0.0193(11)
F004 0.0685(13) 0.0705(11) 0.0778(12) -0.0433(9) 0.0012(10) -0.0087(10)
O005 0.0525(14) 0.0450(11) 0.0734(13) 0.0111(9) -0.0074(10) -0.0131(9)
O006 0.0573(15) 0.0424(11) 0.0892(15) 0.0128(10) -0.0162(12) -0.0114(10)
C007 0.0296(14) 0.0293(11) 0.0292(11) -0.0062(9) -0.0033(10) -0.0089(10)
C008 0.0288(14) 0.0270(11) 0.0298(11) -0.0055(9) -0.0031(9) -0.0098(10)
C009 0.0296(14) 0.0340(11) 0.0260(11) -0.0023(9) -0.0062(9) -0.0105(10)
C00A 0.0408(16) 0.0344(12) 0.0223(11) -0.0064(9) -0.0014(10) -0.0102(11)
C00B 0.0287(14) 0.0381(12) 0.0277(11) -0.0047(9) -0.0075(10) -0.0102(10)
C00C 0.0264(14) 0.0327(11) 0.0349(12) -0.0092(10) -0.0059(10) -0.0092(10)
C00D 0.0406(16) 0.0321(12) 0.0272(11) -0.0035(9) -0.0049(10) -0.0088(11)
C00E 0.0320(15) 0.0439(14) 0.0401(13) -0.0148(11) -0.0055(11) -0.0109(11)
C00F 0.0417(16) 0.0393(13) 0.0323(12) -0.0086(10) -0.0113(11) -0.0002(11)
C00G 0.0454(17) 0.0335(12) 0.0382(13) -0.0029(10) -0.0085(12) -0.0112(12)
C00H 0.0288(15) 0.0391(13) 0.0439(14) 0.0004(11) -0.0053(11) -0.0101(11)
C00I 0.0324(15) 0.0443(14) 0.0456(14) -0.0167(12) -0.0018(12) -0.0065(12)
C00J 0.0431(17) 0.0336(12) 0.0382(13) -0.0020(10) -0.0060(11) -0.0103(11)
C00K 0.0393(16) 0.0531(15) 0.0301(12) -0.0056(11) -0.0084(11) -0.0111(12)
C00L 0.0454(17) 0.0461(14) 0.0325(12) -0.0137(11) -0.0122(11) -0.0081(12)
C00M 0.0361(16) 0.0563(15) 0.0268(12) 0.0016(11) -0.0077(10) -0.0140(12)
C00N 0.0346(16) 0.0584(16) 0.0255(12) -0.0007(11) -0.0036(11) -0.0106(13)
C00O 0.0377(16) 0.0463(14) 0.0405(13) -0.0186(12) -0.0050(11) -0.0117(12)
C00P 0.0271(15) 0.0408(14) 0.0538(15) 0.0009(12) -0.0080(12) -0.0090(11)
C00Q 0.0516(19) 0.0385(13) 0.0487(16) 0.0120(12) -0.0161(13) -0.0121(13)
C00R 0.0461(18) 0.0628(17) 0.0322(13) 0.0087(12) -0.0115(12) -0.0154(14)
C00S 0.0511(19) 0.0283(12) 0.0596(17) -0.0035(11) -0.0056(14) -0.0122(12)
C00T 0.0489(19) 0.0363(14) 0.0680(18) -0.0233(13) -0.0017(14) -0.0117(13)
loop_
_atom_type_symbol
_atom_type_description
_atom_type_scat_dispersion_real
_atom_type_scat_dispersion_imag
_atom_type_scat_source
C C 0.0033 0.0016 'International Tables Vol C Tables 4.2.6.8 and 6.1.1.4'
H H 0.0000 0.0000 'International Tables Vol C Tables 4.2.6.8 and 6.1.1.4'
F F 0.0171 0.0103 'International Tables Vol C Tables 4.2.6.8 and 6.1.1.4'
O O 0.0106 0.0060 'International Tables Vol C Tables 4.2.6.8 and 6.1.1.4'
loop_
_geom_angle_atom_site_label_1
_geom_angle_atom_site_label_2
_geom_angle_atom_site_label_3
_geom_angle
_geom_angle_site_symmetry_1
_geom_angle_site_symmetry_3
_geom_angle_publ_flag
C00D C007 C009 131.90(19) . . ?
C00D C007 C008 122.5(2) . . ?
C009 C007 C008 105.19(16) . . ?
C00J C008 C00C 119.80(19) . . ?
C00J C008 C007 130.90(19) . . ?
C00C C008 C007 109.30(18) . . ?
C00G C009 C00B 118.73(19) . . ?
C00G C009 C007 132.68(19) . . ?
C00B C009 C007 108.46(17) . . ?
C00L C00A C00F 117.79(19) . 2_666 ?
C00L C00A C00D 123.7(2) . . ?
C00F C00A C00D 118.4(2) 2_666 . ?
C00K C00B C009 121.2(2) . . ?
C00K C00B C00C 130.0(2) . . ?
C009 C00B C00C 108.81(18) . . ?
C00O C00C C008 120.4(2) . . ?
C00O C00C C00B 131.4(2) . . ?
C008 C00C C00B 108.21(17) . . ?
C007 C00D C00A 130.9(2) . . ?
C00M C00E F001 122.1(2) . . ?
C00M C00E C00H 122.4(2) . . ?
F001 C00E C00H 115.5(2) . . ?
C00L C00F C00A 121.0(2) . 2_666 ?
C00Q C00G C009 119.0(2) . . ?
O005 C00H C00N 122.3(2) . . ?
O005 C00H C00E 122.4(2) . . ?
C00N C00H C00E 115.3(2) . . ?
C00N C00I F004 121.8(2) . . ?
C00N C00I C00P 122.5(2) . . ?
F004 C00I C00P 115.6(2) . . ?
C00S C00J C008 119.2(2) . . ?
C00R C00K C00B 119.2(2) . . ?
C00F C00L C00A 121.2(2) . . ?
C00E C00M F002 121.5(2) . . ?
C00E C00M C00P 122.6(2) . . ?
F002 C00M C00P 115.9(2) . . ?
C00I C00N F003 121.6(2) . . ?
C00I C00N C00H 122.3(2) . . ?
F003 C00N C00H 116.0(2) . . ?
C00T C00O C00C 118.8(2) . . ?
O006 C00P C00M 123.0(2) . . ?
O006 C00P C00I 122.2(2) . . ?
C00M C00P C00I 114.9(2) . . ?
C00R C00Q C00G 121.9(2) . . ?
C00Q C00R C00K 120.0(2) . . ?
C00J C00S C00T 121.0(2) . . ?
C00O C00T C00S 120.9(2) . . ?
loop_
_geom_bond_atom_site_label_1
_geom_bond_atom_site_label_2
_geom_bond_distance
_geom_bond_site_symmetry_2
_geom_bond_publ_flag
F001 C00E 1.330(2) . ?
F002 C00M 1.331(2) . ?
F003 C00N 1.328(2) . ?
F004 C00I 1.329(2) . ?
O005 C00H 1.219(3) . ?
O006 C00P 1.209(3) . ?
C007 C00D 1.348(3) . ?
C007 C009 1.481(3) . ?
C007 C008 1.482(3) . ?
C008 C00J 1.388(3) . ?
C008 C00C 1.406(3) . ?
C009 C00G 1.392(3) . ?
C009 C00B 1.416(3) . ?
C00A C00L 1.387(3) . ?
C00A C00F 1.394(3) 2_666 ?
C00A C00D 1.467(3) . ?
C00B C00K 1.384(3) . ?
C00B C00C 1.458(3) . ?
C00C C00O 1.395(3) . ?
C00E C00M 1.319(3) . ?
C00E C00H 1.469(3) . ?
C00F C00L 1.379(3) . ?
C00F C00A 1.395(3) 2_666 ?
C00G C00Q 1.386(3) . ?
C00H C00N 1.462(3) . ?
C00I C00N 1.323(3) . ?
C00I C00P 1.471(3) . ?
C00J C00S 1.380(3) . ?
C00K C00R 1.382(3) . ?
C00M C00P 1.469(3) . ?
C00O C00T 1.376(3) . ?
C00Q C00R 1.378(3) . ?
C00S C00T 1.384(3) . ?
