#------------------------------------------------------------------------------
#$Date: 2020-10-04 06:11:50 +0300 (Sun, 04 Oct 2020) $
#$Revision: 257065 $
#$URL: file:///home/coder/svn-repositories/cod/cif/4/51/80/4518034.cif $
#------------------------------------------------------------------------------
#
# This file is available in the Crystallography Open Database (COD),
# http://www.crystallography.net/
#
# All data on this site have been placed in the public domain by the
# contributors.
#
data_4518034
loop_
_publ_author_name
'Talukder, Md Muktadir'
'Cue, John Michael O.'
'Miller, Justin T.'
'Gamage, Prabhath L.'
'Aslam, Amina'
'McCandless, Gregory T.'
'Biewer, Michael C.'
'Stefan, Mihaela C.'
_publ_section_title
;
 Ligand Steric Effects of \a-Diimine Nickel(II) and Palladium(II)
 Complexes in the Suzuki-Miyaura Cross-Coupling Reaction.
;
_journal_issue                   37
_journal_name_full               'ACS omega'
_journal_page_first              24018
_journal_page_last               24032
_journal_paper_doi               10.1021/acsomega.0c03415
_journal_volume                  5
_journal_year                    2020
_chemical_formula_moiety         'C16 H18 Cl2 N2 Pd'
_chemical_formula_sum            'C16 H18 Cl2 N2 Pd'
_chemical_formula_weight         415.62
_space_group_crystal_system      triclinic
_space_group_IT_number           2
_space_group_name_Hall           '-P 1'
_space_group_name_H-M_alt        'P -1'
_symmetry_space_group_name_Hall  '-P 1'
_atom_sites_solution_hydrogens   geom
_audit_creation_method           SHELXL-2018/3
_audit_update_record
;
2019-06-05 # Formatted by publCIF

;
_cell_angle_alpha                112.209(10)
_cell_angle_beta                 107.067(9)
_cell_angle_gamma                96.813(10)
_cell_formula_units_Z            2
_cell_length_a                   8.623(3)
_cell_length_b                   9.493(3)
_cell_length_c                   11.552(4)
_cell_measurement_reflns_used    9833
_cell_measurement_temperature    100(2)
_cell_measurement_theta_max      30.54
_cell_measurement_theta_min      2.38
_cell_volume                     808.3(5)
_computing_cell_refinement       'Bruker SAINT'
_computing_data_collection       'Bruker APEX3'
_computing_data_reduction        'Bruker SAINT'
_computing_molecular_graphics    'ORTEP-3 for Windows (Farrugia, 2012)'
_computing_publication_material  'publCIF (Westrip, 2010)'
_computing_structure_refinement  'SHELXL-2018/3 (Sheldrick, 2018)'
_computing_structure_solution    'SHELXTL Intrinsic Phasing (Sheldrick, 2014)'
_diffrn_ambient_temperature      100(2)
_diffrn_measured_fraction_theta_full 1.000
_diffrn_measured_fraction_theta_max 0.998
_diffrn_measurement_device_type
;
Bruker Kappa D8 Quest CPAD diffractometer (with an Oxford Cryosystems cryostream
cooler)
;
_diffrn_measurement_method       '\f and \w scans'
_diffrn_radiation_monochromator  'HELIOS optics'
_diffrn_radiation_type           MoK\a
_diffrn_radiation_wavelength     0.71073
_diffrn_reflns_av_R_equivalents  0.0337
_diffrn_reflns_av_unetI/netI     0.0240
_diffrn_reflns_Laue_measured_fraction_full 1.000
_diffrn_reflns_Laue_measured_fraction_max 0.998
_diffrn_reflns_limit_h_max       12
_diffrn_reflns_limit_h_min       -12
_diffrn_reflns_limit_k_max       13
_diffrn_reflns_limit_k_min       -13
_diffrn_reflns_limit_l_max       16
_diffrn_reflns_limit_l_min       -16
_diffrn_reflns_number            25531
_diffrn_reflns_point_group_measured_fraction_full 1.000
_diffrn_reflns_point_group_measured_fraction_max 0.998
_diffrn_reflns_theta_full        25.242
_diffrn_reflns_theta_max         30.555
_diffrn_reflns_theta_min         2.383
_diffrn_source                   'I\mS microfocus tube'
_exptl_absorpt_coefficient_mu    1.472
_exptl_absorpt_correction_T_max  0.7461
_exptl_absorpt_correction_T_min  0.5978
_exptl_absorpt_correction_type   multi-scan
_exptl_absorpt_process_details
;
SADABS (Krause, Herbst-Irmer, Sheldrick, & Stalke;  J. Appl. Cryst. 2015, 48,
3-10)
;
_exptl_crystal_colour            yellow
_exptl_crystal_density_diffrn    1.708
_exptl_crystal_description       tablet
_exptl_crystal_F_000             416
_exptl_crystal_size_max          0.340
_exptl_crystal_size_mid          0.160
_exptl_crystal_size_min          0.040
_refine_diff_density_max         0.809
_refine_diff_density_min         -0.989
_refine_diff_density_rms         0.089
_refine_ls_extinction_coef       0.0023(4)
_refine_ls_extinction_expression Fc^*^=kFc[1+0.001xFc^2^\l^3^/sin(2\q)]^-1/4^
_refine_ls_extinction_method     'SHELXL-2018/3 (Sheldrick 2018)'
_refine_ls_goodness_of_fit_ref   1.123
_refine_ls_hydrogen_treatment    constr
_refine_ls_matrix_type           full
_refine_ls_number_parameters     194
_refine_ls_number_reflns         4950
_refine_ls_number_restraints     0
_refine_ls_restrained_S_all      1.123
_refine_ls_R_factor_all          0.0267
_refine_ls_R_factor_gt           0.0223
_refine_ls_shift/su_max          0.001
_refine_ls_shift/su_mean         0.000
_refine_ls_structure_factor_coef Fsqd
_refine_ls_weighting_details
'w=1/[\s^2^(Fo^2^)+(0.0151P)^2^+0.8537P] where P=(Fo^2^+2Fc^2^)/3'
_refine_ls_weighting_scheme      calc
_refine_ls_wR_factor_gt          0.0512
_refine_ls_wR_factor_ref         0.0543
_reflns_Friedel_coverage         0.000
_reflns_number_gt                4558
_reflns_number_total             4950
_reflns_threshold_expression     'I > 2\s(I)'
_cod_data_source_file            ao0c03415_si_004.cif
_cod_data_source_block           scd2082_MMT_2M394
_cod_depositor_comments
'Adding full bibliography for 4518031--4518034.cif.'
_cod_original_cell_volume        808.2(4)
_cod_database_code               4518034
_publcif_datablock.id            {93b66e02-be72-4bad-9aac-6360b3268abd}
_shelx_shelxl_version_number     2018/3
_shelx_space_group_comment
;
The symmetry employed for this shelxl refinement is uniquely defined
by the following loop, which should always be used as a source of
symmetry information in preference to the above space-group names.
They are only intended as comments.
;
_shelx_estimated_absorpt_t_min   0.634
_shelx_estimated_absorpt_t_max   0.943
_shelx_res_file
;
TITL scd2082_MMT_2M394 in P-1
    shelx.res
    created by SHELXL-2018/3 at 17:44:17 on 05-Jun-2019
CELL  0.71073   8.62258    9.49283   11.55204  112.2092  107.0669   96.8132
ZERR    2.000   0.00252    0.00312    0.00350    0.0104    0.0087    0.0095
rem
rem  Component                Vol
rem     1.1(1)             808.22
rem
LATT  1
SFAC C H CL N PD
UNIT 32 36 4 4 2
ACTA
CONF
BOND $H
FMAP 2
LIST 4
SIZE 0.04 0.16 0.34
TEMP -173
L.S. 20
PLAN 5
WGHT    0.015100    0.853700
EXTI    0.002314
FVAR       0.46764
PD1   5    0.523777    0.475913    0.834655    11.00000    0.01172    0.00917 =
         0.01389    0.00616    0.00371    0.00201
CL1   3    0.775292    0.662781    0.962423    11.00000    0.01456    0.01395 =
         0.01932    0.00822    0.00273   -0.00051
CL2   3    0.401695    0.656930    0.787865    11.00000    0.01913    0.01147 =
         0.02123    0.00920    0.00439    0.00476
N1    4    0.607199    0.300332    0.873378    11.00000    0.01411    0.00991 =
         0.01329    0.00601    0.00474    0.00266
N2    4    0.307633    0.299117    0.725803    11.00000    0.01141    0.01058 =
         0.01305    0.00566    0.00429    0.00283
C1    1    0.761993    0.301004    0.940952    11.00000    0.01291    0.01443 =
         0.01765    0.00772    0.00483    0.00326
AFIX  43
H1    2    0.852029    0.390212    0.971313    11.00000   -1.20000
AFIX   0
C2    1    0.795652    0.174422    0.968405    11.00000    0.01621    0.01695 =
         0.01873    0.00987    0.00589    0.00676
AFIX  43
H2    2    0.907302    0.177743    1.016570    11.00000   -1.20000
AFIX   0
C3    1    0.665347    0.043775    0.925044    11.00000    0.01926    0.01516 =
         0.02014    0.01103    0.00891    0.00826
AFIX  43
H3    2    0.685744   -0.042353    0.944745    11.00000   -1.20000
AFIX   0
C4    1    0.503530    0.041386    0.851828    11.00000    0.01630    0.01353 =
         0.02154    0.00990    0.00697    0.00420
AFIX  43
H4    2    0.412085   -0.047532    0.818979    11.00000   -1.20000
AFIX   0
C5    1    0.478613    0.170422    0.827954    11.00000    0.01496    0.01160 =
         0.01761    0.00818    0.00628    0.00352
C6    1    0.316904    0.176830    0.747958    11.00000    0.01317    0.01283 =
         0.01824    0.00710    0.00409    0.00121
AFIX  43
H6    2    0.219878    0.092374    0.712684    11.00000   -1.20000
AFIX   0
C7    1    0.147134    0.307462    0.648175    11.00000    0.01087    0.01087 =
         0.01627    0.00657    0.00336    0.00183
C8    1    0.049063    0.365801    0.722953    11.00000    0.01717    0.01640 =
         0.01698    0.00726    0.00708    0.00549
AFIX  43
H8    2    0.090474    0.396005    0.816997    11.00000   -1.20000
AFIX   0
C9    1   -0.108772    0.379990    0.660724    11.00000    0.01679    0.01914 =
         0.02521    0.01071    0.01073    0.00814
AFIX  43
H9    2   -0.176334    0.418861    0.711145    11.00000   -1.20000
AFIX   0
C10   1   -0.165531    0.336438    0.524027    11.00000    0.01339    0.02350 =
         0.02605    0.01450    0.00742    0.00703
AFIX  43
H10   2   -0.273144    0.345395    0.479810    11.00000   -1.20000
AFIX   0
C11   1   -0.066037    0.279568    0.450800    11.00000    0.01412    0.02057 =
         0.01776    0.01021    0.00386    0.00415
AFIX  43
H11   2   -0.108154    0.251134    0.357052    11.00000   -1.20000
AFIX   0
C12   1    0.094123    0.262171    0.509087    11.00000    0.01235    0.01166 =
         0.01564    0.00632    0.00488    0.00176
C13   1    0.196758    0.197308    0.421018    11.00000    0.01524    0.01501 =
         0.01621    0.00645    0.00722    0.00394
C14   1    0.106517    0.172955    0.276171    11.00000    0.03044    0.03293 =
         0.01983    0.01343    0.01203    0.01407
AFIX 137
H14A  2    0.084960    0.272309    0.276938    11.00000   -1.50000
H14B  2   -0.000312    0.092463    0.235373    11.00000   -1.50000
H14C  2    0.177328    0.138555    0.223789    11.00000   -1.50000
AFIX   0
C15   1    0.369424    0.312242    0.473880    11.00000    0.02163    0.02289 =
         0.03100    0.00728    0.01622    0.00031
AFIX 137
H15A  2    0.355086    0.417102    0.485857    11.00000   -1.50000
H15B  2    0.424751    0.275269    0.409164    11.00000   -1.50000
H15C  2    0.438650    0.317721    0.560361    11.00000   -1.50000
AFIX   0
C16   1    0.220302    0.036488    0.413896    11.00000    0.02882    0.01708 =
         0.02734    0.00955    0.01433    0.00910
AFIX 137
H16A  2    0.269927   -0.009670    0.346675    11.00000   -1.50000
H16B  2    0.111013   -0.033883    0.388471    11.00000   -1.50000
H16C  2    0.294965    0.050576    0.502007    11.00000   -1.50000
AFIX   0
HKLF 4




REM  scd2082_MMT_2M394 in P-1
REM wR2 = 0.0543, GooF = S = 1.123, Restrained GooF = 1.123 for all data
REM R1 = 0.0223 for 4558 Fo > 4sig(Fo) and 0.0267 for all 4950 data
REM 194 parameters refined using 0 restraints

END

WGHT      0.0151      0.8537

REM Highest difference peak  0.809,  deepest hole -0.989,  1-sigma level  0.089
Q1    1   0.4329  0.5743  0.5016  11.00000  0.05    0.81
Q2    1   0.1253  0.3014  0.5808  11.00000  0.05    0.53
Q3    1   0.7747  0.2407  0.9654  11.00000  0.05    0.52
Q4    1  -0.1024  0.3231  0.5036  11.00000  0.05    0.52
Q5    1   0.6764  0.2853  0.8988  11.00000  0.05    0.51
;
_shelx_res_checksum              52267
_shelx_hkl_file
;
  -1   0   0 1764.72   49.20
  -1   0   0 1681.53   49.00
   1   0   0 1636.94   48.90
   1   0   0 1678.33   48.70
   1   0   0 1679.73   49.00
  -2   0   0  310.07   10.50
  -2   0   0  323.37   10.50
  -2   0   0  316.77    9.90
  -2   0   0  339.57   10.90
  -2   0   0  330.37   10.80
  -2   0   0  323.07   10.60
   2   0   0  326.67   10.90
   2   0   0  313.87   10.70
   2   0   0  303.87   10.50
   2   0   0  318.87    9.90
   2   0   0  301.27   10.10
   2   0   0  314.87   10.60
  -3   0   0 1668.73   47.10
  -3   0   0 1564.84   46.70
  -3   0   0 1484.95   45.20
  -3   0   0 1605.74   46.40
  -3   0   0 1554.04   46.40
  -3   0   0 1479.15   47.30
   3   0   0 1546.75   46.40
   3   0   0 1531.85   45.30
   3   0   0 1507.15   46.60
   3   0   0 1469.75   45.70
  -4   0   0  302.77   10.40
  -4   0   0  310.47   11.60
  -4   0   0  313.27   11.80
  -4   0   0  335.37   12.20
   4   0   0  294.47   10.90
   4   0   0  308.77   11.60
   4   0   0  299.47   11.90
   4   0   0  318.77   10.40
  -5   0   0  113.39    6.40
  -5   0   0  114.19    4.90
  -5   0   0  112.79    6.00
  -5   0   0  115.99    6.10
   5   0   0  116.59    6.10
   5   0   0  111.69    4.80
  -6   0   0   40.10    3.50
  -6   0   0   34.00    2.60
  -6   0   0   41.20    3.70
  -6   0   0   45.30    4.00
   6   0   0   42.70    3.60
   6   0   0   37.60    3.70
   6   0   0   47.30    4.30
  -7   0   0  385.36   15.90
  -7   0   0  376.16   16.30
   7   0   0  371.86   13.00
   7   0   0  393.36   16.10
   7   0   0  405.26   15.80
  -8   0   0   55.69    5.30
  -8   0   0   59.09    5.40
  -8   0   0   68.99    5.30
   8   0   0   63.49    3.40
   8   0   0   67.29    6.20
   8   0   0   68.59    5.20
  -9   0   0    3.60    3.20
  -9   0   0    3.80    2.00
  -9   0   0    3.10    1.70
   9   0   0    0.90    1.40
   9   0   0    2.50    1.90
 -10   0   0   57.69    6.30
 -10   0   0   62.19    5.70
 -10   0   0   62.29    6.10
  10   0   0   56.39    6.00
  10   0   0   45.70    5.00
 -11   0   0   56.39    6.20
 -11   0   0   47.00    6.20
 -11   0   0   57.49    7.80
  11   0   0   45.90    5.60
  11   0   0   58.69    7.70
  11  -1   0    0.50    2.10
  11  -1   0    4.00    2.60
 -11   1   0    8.30    2.90
 -11   1   0   -0.30    2.90
 -11   1   0    1.80    2.10
  10  -1   0   18.50    3.80
  10  -1   0   17.60    3.70
 -10   1   0   30.00    4.80
 -10   1   0   19.50    3.90
 -10   1   0   17.70    3.30
   9  -1   0   30.80    4.20
   9  -1   0   36.00    4.60
  -9   1   0   27.90    3.60
  -9   1   0   26.40    3.80
  -9   1   0   27.50    4.70
   8  -1   0  251.37   12.60
   8  -1   0  241.68   11.80
  -8   1   0  237.28   13.40
  -8   1   0  215.58   11.50
  -8   1   0  234.38   12.90
   7  -1   0  133.99    7.60
   7  -1   0  126.29    8.10
  -7   1   0  130.39    6.90
  -7   1   0  128.39    8.20
  -7   1   0  130.99    7.70
   6  -1   0   33.60    3.60
  -6   1   0   37.00    3.00
  -6   1   0   38.40    3.70
   5  -1   0   67.69    4.20
   5  -1   0   70.69    4.70
   5  -1   0   77.99    6.60
  -5   1   0   71.09    4.80
  -5   1   0   72.99    4.60
  -5   1   0   75.79    4.20
   4  -1   0   23.90    2.40
   4  -1   0   25.30    2.20
   4  -1   0   26.00    2.50
  -4   1   0   26.40    2.20
  -4   1   0   28.80    2.20
  -4   1   0   28.20    2.40
  -4   1   0   28.40    2.10
  -4   1   0   27.10    2.60
   3  -1   0  120.79    5.70
   3  -1   0  114.49    5.30
   3  -1   0  118.49    5.00
   3  -1   0  117.89    4.90
  -3   1   0  119.19    5.30
  -3   1   0  124.79    6.00
  -3   1   0  125.69    4.80
  -3   1   0  128.99    5.30
  -3   1   0  129.89    5.80
  -3   1   0  123.09    5.00
   2  -1   0  454.45   14.80
   2  -1   0  472.35   14.30
   2  -1   0  432.86   14.60
   2  -1   0  454.45   14.90
   2  -1   0  445.46   13.80
   2  -1   0  438.56   14.00
  -2   1   0  478.75   13.70
  -2   1   0  427.36   13.90
  -2   1   0  448.16   14.90
  -2   1   0  493.15   14.30
  -2   1   0  463.85   14.70
  -2   1   0  440.66   14.90
   1  -1   0 1858.61   52.89
   1  -1   0 1900.11   53.89
   1  -1   0 1968.00   52.89
   1  -1   0 1859.91   52.99
   1  -1   0 1693.83   53.59
   1  -1   0 1700.83   53.69
  -1   1   0 1895.51   53.89
  -1   1   0 1845.92   53.79
  -1   1   0 1750.12   53.69
  -1   1   0 1955.60   53.79
  -1   1   0 1799.42   52.99
   0  -1   0 2359.66   67.89
   0   1   0 2258.77   67.59
   0   1   0 2451.75   67.49
   0   1   0 2394.26   67.59
   0   1   0 2228.38   67.49
  -1  -1   0  364.76   11.70
  -1  -1   0  384.56   11.40
  -1  -1   0  360.86   12.10
  -1  -1   0  355.66   11.90
  -1  -1   0  374.96   12.00
   1   1   0  384.06   11.30
   1   1   0  361.36   12.10
   1   1   0  370.96   11.70
   1   1   0  366.26   12.00
  -2  -1   0 2075.49   62.19
  -2  -1   0 2109.79   63.09
  -2  -1   0 2116.79   62.19
  -2  -1   0 2240.68   63.09
   2   1   0 2056.19   64.89
   2   1   0 2150.78   63.19
   2   1   0 2152.08   61.69
   2   1   0 2133.39   61.99
   2   1   0 2067.09   62.09
  -3  -1   0 1727.83   52.19
  -3  -1   0 1723.83   52.09
  -3  -1   0 1803.02   51.79
  -3  -1   0 1705.83   50.99
  -3  -1   0 1676.83   51.79
   3   1   0 1700.03   50.89
   3   1   0 1729.83   50.89
   3   1   0 1661.73   52.39
   3   1   0 1695.93   50.99
  -4  -1   0  548.15   18.40
  -4  -1   0  570.14   20.00
  -4  -1   0  573.84   19.80
  -4  -1   0  571.44   18.50
   4   1   0  545.95   18.00
   4   1   0  574.24   18.80
   4   1   0  567.74   18.80
  -5  -1   0  112.29    6.60
  -5  -1   0  113.79    6.50
  -5  -1   0  115.89    5.70
   5   1   0  111.89    5.20
   5   1   0  112.59    5.80
   5   1   0  116.99    5.80
   5   1   0  111.59    5.40
  -6  -1   0   17.50    2.70
  -6  -1   0   20.00    4.80
   6   1   0   17.80    2.20
   6   1   0   18.90    1.90
   6   1   0   15.80    2.10
   6   1   0   22.20    2.10
  -7  -1   0   13.40    2.70
  -7  -1   0   12.10    2.20
  -7  -1   0   14.10    2.80
   7   1   0   12.60    1.70
   7   1   0   14.60    2.30
   7   1   0   10.30    2.00
  -8  -1   0    1.10    1.10
  -8  -1   0    1.30    1.40
  -8  -1   0   -1.30    1.30
   8   1   0    3.30    0.90
   8   1   0   -1.40    1.70
   8   1   0    2.30    1.40
  -9  -1   0   14.40    3.30
  -9  -1   0   19.10    3.50
  -9  -1   0   16.90    3.50
   9   1   0   18.30    3.40
   9   1   0   18.20    3.00
   9   1   0   24.30    2.30
 -10  -1   0   28.40    4.40
 -10  -1   0   40.20    5.80
  10   1   0   28.10    4.10
  10   1   0   32.20    4.70
 -11  -1   0    3.60    2.90
 -11  -1   0    0.50    2.40
  11   1   0   -4.40    2.20
  11  -2   0   55.39    6.30
  11  -2   0   73.79    8.00
 -11   2   0   56.39    6.20
 -11   2   0   60.69    7.70
 -11   2   0   73.29    7.50
  10  -2   0   93.69    7.70
  10  -2   0   98.99    8.50
 -10   2   0   85.29    7.30
 -10   2   0  101.59    8.70
   9  -2   0    4.40    1.90
   9  -2   0    7.30    2.20
  -9   2   0    1.30    2.00
  -9   2   0    4.70    1.90
  -9   2   0    5.90    1.40
   8  -2   0   83.29    7.10
   8  -2   0   79.49    6.20
  -8   2   0   82.99    6.10
  -8   2   0   81.19    6.70
  -8   2   0   83.29    5.10
   7  -2   0   67.79    5.40
  -7   2   0   64.99    3.90
  -7   2   0   62.09    5.50
  -7   2   0   59.99    4.60
   6  -2   0  115.69    7.20
   6  -2   0  112.39    6.10
  -6   2   0  126.39    7.70
  -6   2   0  121.89    6.60
  -6   2   0  124.89    6.60
   5  -2   0  466.05   16.60
   5  -2   0  481.15   18.20
  -5   2   0  484.15   18.60
  -5   2   0  508.75   17.20
  -5   2   0  469.35   16.30
  -5   2   0  490.85   15.70
  -5   2   0  483.75   17.40
   4  -2   0  368.36   14.50
   4  -2   0  373.56   13.00
   4  -2   0  377.26   13.50
  -4   2   0  378.36   14.80
  -4   2   0  392.26   14.20
  -4   2   0  405.86   13.50
   3  -2   0   16.20    1.40
   3  -2   0   13.70    1.70
   3  -2   0   16.80    1.90
   3  -2   0   14.60    1.70
   3  -2   0   14.90    1.70
   3  -2   0   14.70    1.30
  -3   2   0   17.90    2.00
  -3   2   0   13.90    1.20
  -3   2   0   16.20    1.90
  -3   2   0   17.80    1.50
  -3   2   0   13.00    1.90
   2  -2   0  863.31   24.40
   2  -2   0  860.01   24.70
   2  -2   0  781.42   26.00
   2  -2   0  808.32   24.70
   2  -2   0  844.52   26.10
   2  -2   0  807.62   26.00
   2  -2   0  810.12   26.10
  -2   2   0  807.42   26.10
  -2   2   0  838.22   26.00
  -2   2   0  840.92   24.90
  -2   2   0  823.32   26.10
  -2   2   0  838.02   24.70
  -2   2   0  841.72   26.40
  -2   2   0  824.52   24.80
   1  -2   0 1322.17   37.20
   1  -2   0 1217.28   38.00
   1  -2   0 1302.67   36.90
   1  -2   0 1236.98   37.20
   1  -2   0 1251.77   37.20
   1  -2   0 1236.28   37.90
   1  -2   0 1247.28   37.90
  -1   2   0 1244.78   37.20
  -1   2   0 1237.68   37.20
  -1   2   0 1241.78   38.10
  -1   2   0 1261.27   38.00
  -1   2   0 1327.97   37.10
  -1   2   0 1298.87   37.00
  -1   2   0 1235.48   38.10
   0  -2   0   43.40    2.20
   0  -2   0   41.00    2.30
   0  -2   0   46.10    2.40
   0  -2   0   38.60    2.20
   0  -2   0   44.40    2.30
   0  -2   0   44.00    2.30
   0  -2   0   43.00    1.90
   0  -2   0   39.40    2.20
   0   2   0   40.70    2.40
   0   2   0   39.40    2.20
   0   2   0   41.40    2.30
   0   2   0   41.50    2.30
   0   2   0   41.40    2.30
   0   2   0   43.70    2.50
   0   2   0   42.00    2.20
  -1  -2   0 1963.70   57.99
  -1  -2   0 1941.21   58.79
  -1  -2   0 1876.11   59.09
  -1  -2   0 1989.90   58.99
  -1  -2   0 2021.00   57.99
  -1  -2   0 1965.80   59.29
   1   2   0 1996.10   59.09
   1   2   0 1989.80   59.49
   1   2   0 2001.40   59.09
   1   2   0 2012.00   58.29
   1   2   0 2103.09   58.79
   1   2   0 2046.50   58.09
  -2  -2   0 2042.70   61.59
  -2  -2   0 2132.49   60.89
  -2  -2   0 2088.69   63.69
  -2  -2   0 2043.80   62.49
  -2  -2   0 2017.90   62.09
   2   2   0 2127.39   62.49
   2   2   0 2079.29   60.79
   2   2   0 2061.89   61.59
   2   2   0 2069.59   62.79
  -3  -2   0 1832.12   54.59
  -3  -2   0 1804.52   54.99
  -3  -2   0 1876.21   55.99
  -3  -2   0 1774.52   55.99
   3   2   0 1836.92   54.69
  -4  -2   0 1277.57   41.50
  -4  -2   0 1301.57   41.50
   4   2   0 1301.17   38.80
   4   2   0 1265.67   39.80
   4   2   0 1317.57   39.50
  -5  -2   0  454.25   16.40
  -5  -2   0  472.85   18.50
  -5  -2   0  470.55   19.40
   5   2   0  485.95   16.50
   5   2   0  490.35   16.70
   5   2   0  470.15   15.90
  -6  -2   0  704.53   26.60
  -6  -2   0  717.23   24.10
  -6  -2   0  728.73   26.60
   6   2   0  722.43   24.10
   6   2   0  773.32   25.10
   6   2   0  692.53   23.50
   6   2   0  744.63   23.90
  -7  -2   0   50.49    4.80
  -7  -2   0   45.70    4.80
  -7  -2   0   45.80    4.00
   7   2   0   53.29    4.10
   7   2   0   50.09    3.80
   7   2   0   45.80    3.50
  -8  -2   0   16.30    2.60
  -8  -2   0   14.40    2.90
  -8  -2   0   15.70    2.70
   8   2   0   15.20    2.50
   8   2   0   11.80    2.30
   8   2   0   14.60    2.10
  -9  -2   0    8.70    2.90
  -9  -2   0    7.40    2.50
  -9  -2   0   14.10    3.80
   9   2   0    2.60    2.20
   9   2   0    8.50    1.80
   9   2   0   11.80    3.10
 -10  -2   0   19.90    3.80
 -10  -2   0   26.40    4.20
  10   2   0   20.70    3.60
  11  -3   0  240.48   14.10
  11  -3   0  269.57   15.30
 -11   3   0  223.98   13.60
 -11   3   0  260.27   15.70
  10  -3   0   13.70    3.40
  10  -3   0   10.80    5.20
 -10   3   0   26.90    5.40
 -10   3   0   13.20    2.40
 -10   3   0   16.80    4.40
   9  -3   0   10.70    3.50
   9  -3   0   13.00    3.20
  -9   3   0   17.50    3.40
  -9   3   0   15.50    4.30
  -9   3   0   14.70    2.20
   8  -3   0   51.49    5.00
  -8   3   0   42.90    3.20
  -8   3   0   48.80    5.50
  -8   3   0   49.20    4.50
   7  -3   0    0.70    1.00
   7  -3   0    0.80    0.70
  -7   3   0    1.50    1.00
  -7   3   0    2.20    1.70
  -7   3   0    1.40    1.20
   6  -3   0   82.89    5.90
   6  -3   0   82.59    5.10
  -6   3   0   85.29    5.10
  -6   3   0   73.09    6.60
  -6   3   0   80.29    5.50
   5  -3   0  855.01   30.30
  -5   3   0  860.31   27.00
  -5   3   0  879.81   29.80
  -5   3   0  939.61   28.50
  -5   3   0  870.81   30.90
   4  -3   0  445.16   15.20
   4  -3   0  444.96   14.90
   4  -3   0  444.36   17.10
  -4   3   0  431.56   14.40
  -4   3   0  447.46   16.90
  -4   3   0  497.65   16.50
  -4   3   0  461.65   17.60
   3  -3   0  308.97   10.10
   3  -3   0  294.67   10.10
   3  -3   0  303.37   12.00
   3  -3   0  312.47    9.80
  -3   3   0  286.17   10.20
  -3   3   0  304.37   10.10
  -3   3   0  284.67   12.20
  -3   3   0  301.47   12.00
  -3   3   0  315.07   10.40
   2  -3   0 1003.00   29.20
   2  -3   0 1003.70   32.40
   2  -3   0  989.60   28.70
   2  -3   0  968.00   29.20
   2  -3   0  937.51   30.70
   2  -3   0  979.40   29.10
   2  -3   0  938.21   30.70
  -2   3   0 1004.60   31.60
  -2   3   0  939.01   30.90
  -2   3   0  924.11   29.20
  -2   3   0  981.20   30.70
  -2   3   0  926.61   29.30
   1  -3   0  236.38    8.40
   1  -3   0  233.38    8.30
   1  -3   0  232.78    8.10
   1  -3   0  230.58    8.00
   1  -3   0  230.78    8.90
   1  -3   0  236.08    9.00
   1  -3   0  233.28    8.50
  -1   3   0  231.08    9.20
  -1   3   0  229.48    8.30
  -1   3   0  217.58    8.30
  -1   3   0  242.68    8.20
  -1   3   0  231.08    9.10
  -1   3   0  224.48    8.30
  -1   3   0  228.48    9.10
   0  -3   0  202.88    7.90
   0  -3   0  211.58    7.20
   0  -3   0  201.48    9.10
   0  -3   0  207.88    7.90
   0  -3   0  205.98    7.70
   0  -3   0  224.28    8.30
   0  -3   0  212.48    7.50
   0  -3   0  208.98    8.00
   0   3   0  205.48    8.00
   0   3   0  204.38    8.00
   0   3   0  202.28    8.40
   0   3   0  219.58    8.50
   0   3   0  216.08    7.90
   0   3   0  210.68    8.00
   0   3   0  208.68    8.20
  -1  -3   0  862.61   27.10
  -1  -3   0  880.71   28.20
  -1  -3   0  870.11   28.50
  -1  -3   0  888.31   28.50
  -1  -3   0  882.31   27.90
  -1  -3   0  889.81   26.80
   1   3   0  888.41   28.90
   1   3   0  862.21   27.00
   1   3   0  861.11   27.50
   1   3   0  941.21   27.90
   1   3   0  935.21   29.50
   1   3   0  888.21   28.40
   1   3   0  886.31   27.10
  -2  -3   0 1421.76   42.00
  -2  -3   0 1400.16   43.50
  -2  -3   0 1408.06   44.10
  -2  -3   0 1415.26   41.70
   2   3   0 1358.66   42.00
   2   3   0 1439.56   42.10
   2   3   0 1401.86   43.80
   2   3   0 1375.26   42.90
  -3  -3   0 1145.89   36.30
  -3  -3   0 1222.38   38.20
  -3  -3   0 1155.88   38.40
   3   3   0 1187.18   38.40
   3   3   0 1165.98   37.00
   3   3   0 1213.28   36.00
   3   3   0 1207.28   36.20
  -4  -3   0  715.53   25.80
  -4  -3   0  732.13   27.00
   4   3   0  731.93   23.70
   4   3   0  725.23   24.50
   4   3   0  770.62   23.30
  -5  -3   0  696.93   25.10
  -5  -3   0  658.03   25.10
   5   3   0  674.23   22.50
   5   3   0  681.53   23.10
  -6  -3   0  983.10   34.90
  -6  -3   0  945.81   34.40
   6   3   0  995.30   31.80
   6   3   0 1006.60   32.20
  -7  -3   0  124.39    8.50
  -7  -3   0  122.69    8.60
   7   3   0  126.19    6.80
   7   3   0  132.19    6.90
  -8  -3   0   47.60    5.40
  -8  -3   0   36.70    5.00
   8   3   0   41.90    3.70
   8   3   0   45.40    4.10
  -9  -3   0   20.00    4.00
  -9  -3   0   22.00    4.20
   9   3   0   26.10    3.70
   9   3   0   27.50    3.10
 -10  -3   0   17.30    4.40
 -10  -3   0   22.00    4.20
  10   3   0   14.80    3.00
  11  -4   0  128.09    9.90
  11  -4   0  119.39   10.30
 -11   4   0  114.89    8.90
 -11   4   0  126.09   11.00
  10  -4   0   12.70    3.80
  10  -4   0   18.20    4.30
 -10   4   0   18.70    4.50
 -10   4   0   15.60    3.40
 -10   4   0   14.10    3.00
   9  -4   0   66.09    7.30
   9  -4   0   76.59    6.90
  -9   4   0   73.89    6.00
  -9   4   0   68.39    4.60
  -9   4   0   86.19    7.50
   8  -4   0  137.39    7.30
   8  -4   0  134.49    9.00
  -8   4   0  129.79    7.90
  -8   4   0  131.39    9.90
  -8   4   0  138.79    8.40
  -8   4   0  135.59    6.30
   7  -4   0    3.50    1.30
   7  -4   0    4.30    1.00
  -7   4   0    4.70    2.00
  -7   4   0    3.00    1.50
  -7   4   0    5.40    2.30
   6  -4   0   50.69    4.90
  -6   4   0   52.79    7.90
  -6   4   0   54.59    3.30
  -6   4   0   57.59    4.00
  -6   4   0   51.09    4.60
   5  -4   0  123.99    5.80
   5  -4   0  123.49   10.70
  -5   4   0  133.29    5.50
  -5   4   0  126.59    7.50
  -5   4   0  133.59    6.30
  -5   4   0  126.79    9.20
   4  -4   0  127.89    5.50
   4  -4   0  127.69    5.10
   4  -4   0  134.99    7.40
  -4   4   0  132.19    7.40
  -4   4   0  128.39    5.40
  -4   4   0  134.69    5.80
  -4   4   0  114.69    5.50
  -4   4   0  128.49    7.80
   3  -4   0  753.32   23.10
   3  -4   0  767.42   22.90
   3  -4   0  753.32   23.40
   3  -4   0  784.72   25.90
  -3   4   0  702.63   23.60
  -3   4   0  744.93   26.20
  -3   4   0  739.43   23.50
  -3   4   0  759.72   25.50
  -3   4   0  741.83   25.90
   2  -4   0  958.10   28.10
   2  -4   0  967.60   28.00
   2  -4   0  916.71   28.90
   2  -4   0  951.90   28.90
   2  -4   0  927.01   28.90
  -2   4   0  944.81   30.80
  -2   4   0  901.31   30.60
  -2   4   0  901.81   28.80
  -2   4   0  926.81   30.50
  -2   4   0  926.31   29.20
  -2   4   0  913.31   28.90
   1  -4   0  458.45   14.90
   1  -4   0  434.06   14.90
   1  -4   0  450.05   15.20
   1  -4   0  426.46   15.20
   1  -4   0  440.16   14.50
   1  -4   0  455.75   15.20
   1  -4   0  417.76   15.50
  -1   4   0  458.85   14.80
  -1   4   0  441.76   16.10
  -1   4   0  433.56   16.00
  -1   4   0  404.56   16.20
  -1   4   0  462.85   16.30
  -1   4   0  447.26   15.30
   0  -4   0  212.08    7.70
   0  -4   0  220.18    9.00
   0  -4   0  213.48    8.00
   0  -4   0  231.58    9.00
   0  -4   0  213.48    8.40
   0   4   0  223.18    8.60
   0   4   0  223.38    8.70
   0   4   0  207.48    9.00
   0   4   0  226.38    9.00
   0   4   0  205.58    8.70
   0   4   0  207.58    9.30
  -1  -4   0  676.73   22.60
  -1  -4   0  713.53   22.00
  -1  -4   0  684.33   21.40
  -1  -4   0  662.03   23.30
   1   4   0  708.53   23.10
   1   4   0  679.33   23.50
   1   4   0  689.23   22.80
   1   4   0  689.83   22.00
   1   4   0  658.03   22.50
  -2  -4   0  275.77   12.10
  -2  -4   0  268.57   10.00
  -2  -4   0  270.27   10.10
  -2  -4   0  279.37   11.60
   2   4   0  285.17   11.20
   2   4   0  330.97   12.10
   2   4   0  290.07   10.40
   2   4   0  279.67   12.10
  -3  -4   0   74.09    5.90
  -3  -4   0   70.29    5.00
   3   4   0   70.39    3.90
   3   4   0   71.39    4.10
   3   4   0   74.19    4.70
   3   4   0   63.59    5.00
  -4  -4   0  531.25   21.20
  -4  -4   0  533.05   20.70
   4   4   0  554.24   19.80
   4   4   0  560.94   18.30
   4   4   0  558.04   21.50
   4   4   0  541.55   18.60
  -5  -4   0  815.12   30.40
  -5  -4   0  824.42   31.00
   5   4   0  882.21   31.40
   5   4   0  867.51   29.00
   5   4   0  875.41   28.00
  -6  -4   0  323.27   15.80
  -6  -4   0  317.17   15.30
   6   4   0  337.67   16.30
   6   4   0  345.37   13.30
   6   4   0  346.57   13.80
  -7  -4   0  192.28   11.90
  -7  -4   0  201.38   12.10
   7   4   0  221.18   10.00
   7   4   0  215.88    9.70
   7   4   0  187.18   12.10
  -8  -4   0  216.18   12.80
  -8  -4   0  210.68   12.70
   8   4   0  220.88   10.30
   8   4   0  200.08   13.10
   8   4   0  218.58   10.50
  -9  -4   0  123.19    9.60
  -9  -4   0  105.59    9.00
   9   4   0  130.59    7.80
   9   4   0  129.99    7.40
   9   4   0  111.19    9.90
  11  -5   0    4.00    3.40
  11  -5   0   13.30    4.10
 -11   5   0   11.40    3.30
 -11   5   0   14.80    4.30
  10  -5   0   51.69    6.50
  10  -5   0   46.40    7.40
 -10   5   0   67.59    8.00
 -10   5   0   50.89    6.00
   9  -5   0  104.79    6.40
   9  -5   0  101.39    8.50
  -9   5   0  106.49    8.00
  -9   5   0   99.89    9.10
  -9   5   0   97.69    7.30
   8  -5   0  143.69    9.80
   8  -5   0  139.39    8.00
  -8   5   0  150.08    8.60
  -8   5   0  158.58   11.20
  -8   5   0  155.88    9.60
   7  -5   0  143.89    7.20
   7  -5   0  157.98   10.00
  -7   5   0  149.39    9.30
  -7   5   0  152.28    8.20
  -7   5   0  165.48   11.00
   6  -5   0   43.10    4.40
   6  -5   0   36.70    3.80
  -6   5   0   36.10    3.20
  -6   5   0   33.40    4.30
  -6   5   0   40.50    4.40
   5  -5   0   57.89    3.50
   5  -5   0   63.69    5.30
  -5   5   0   66.69    6.50
  -5   5   0   60.79    5.30
  -5   5   0   61.29    3.70
  -5   5   0   63.79    3.90
   4  -5   0   71.49    3.90
   4  -5   0   71.19    4.10
   4  -5   0   72.79    3.80
   4  -5   0   68.79    5.40
  -4   5   0   77.29    5.70
  -4   5   0   79.79    5.70
  -4   5   0   74.39    3.90
  -4   5   0   74.79    6.00
   3  -5   0  167.98    8.60
   3  -5   0  163.48    6.00
   3  -5   0  156.88    6.70
   3  -5   0  153.38    7.40
  -3   5   0  156.08    8.30
  -3   5   0  148.19    7.50
  -3   5   0  172.88    9.10
  -3   5   0  156.98    7.00
  -3   5   0  159.68    8.70
   2  -5   0  195.88    7.40
   2  -5   0  172.68    7.90
   2  -5   0  197.48    7.40
   2  -5   0  188.98    8.10
  -2   5   0  186.48    9.40
  -2   5   0  184.28    9.40
  -2   5   0  204.48    9.50
  -2   5   0  181.78    7.90
  -2   5   0  192.18    7.60
   1  -5   0  352.66   12.30
   1  -5   0  338.67   12.60
   1  -5   0  347.77   13.10
   1  -5   0  348.07   12.80
  -1   5   0  344.47   14.10
  -1   5   0  361.66   13.20
  -1   5   0  354.06   14.10
  -1   5   0  347.57   14.20
  -1   5   0  359.36   12.80
   0  -5   0  723.03   24.30
   0  -5   0  731.73   24.30
   0  -5   0  654.53   23.70
   0  -5   0  716.43   25.10
   0  -5   0  712.83   22.50
   0   5   0  752.42   24.40
   0   5   0  705.73   25.20
   0   5   0  731.43   23.90
   0   5   0  708.33   24.70
   0   5   0  726.53   24.40
   0   5   0  764.62   24.20
  -1  -5   0  714.63   24.30
  -1  -5   0  706.13   24.10
  -1  -5   0  681.93   23.20
  -1  -5   0  600.34   22.30
   1   5   0  716.13   23.50
   1   5   0  691.53   23.60
   1   5   0  698.43   24.60
   1   5   0  702.03   22.80
  -2  -5   0  213.28    9.80
  -2  -5   0  212.28    8.30
   2   5   0  213.38   11.10
   2   5   0  219.08   10.60
   2   5   0  208.48    9.20
  -3  -5   0   82.99    6.20
   3   5   0   90.89    5.20
   3   5   0   90.79    6.60
   3   5   0   88.29    4.90
  -4  -5   0  178.68   10.30
  -4  -5   0  180.98    9.70
   4   5   0  175.98   10.30
   4   5   0  174.58    8.90
   4   5   0  189.58    8.00
   4   5   0  190.58    8.40
  -5  -5   0  317.07   15.60
  -5  -5   0  336.07   15.20
   5   5   0  332.87   13.70
   5   5   0  308.87   15.40
  -6  -5   0  116.39    8.30
  -6  -5   0  103.79    8.30
   6   5   0  120.59    6.70
   6   5   0  126.69    9.20
   6   5   0  119.09    7.20
  -7  -5   0  310.47   16.00
  -7  -5   0  311.27   16.40
   7   5   0  305.17   13.70
   7   5   0  331.07   13.50
   7   5   0  321.87   16.80
  -8  -5   0  428.26   20.80
  -8  -5   0  390.46   19.90
   8   5   0  510.05   23.50
   8   5   0  438.36   21.20
   8   5   0  419.06   17.20
  -9  -5   0  207.88   13.70
  -9  -5   0  215.18   15.40
   9   5   0  225.28   10.70
   9   5   0  195.38   13.60
   9   5   0  217.78   11.40
  11  -6   0   -0.90    2.70
  11  -6   0    2.20    2.20
 -11   6   0   -1.30    3.30
  10  -6   0   27.60    4.80
  10  -6   0   28.40    5.90
 -10   6   0   32.90    5.30
 -10   6   0   33.60    6.60
 -10   6   0   38.70    5.70
   9  -6   0   88.99    8.10
   9  -6   0   77.59    5.70
  -9   6   0   89.49    7.00
  -9   6   0   90.29    7.20
  -9   6   0   92.89    9.10
   8  -6   0   56.99    6.20
  -8   6   0   64.09    6.70
  -8   6   0   53.69    6.90
  -8   6   0   63.79    6.40
   7  -6   0   12.90    3.10
   7  -6   0   14.20    2.70
  -7   6   0   19.10    2.70
  -7   6   0   14.70    3.20
  -7   6   0   14.90    3.40
   6  -6   0    1.40    0.90
   6  -6   0    1.80    1.00
  -6   6   0   -0.10    1.10
  -6   6   0    1.40    1.40
   5  -6   0  468.85   19.90
  -5   6   0  480.95   21.00
  -5   6   0  500.45   17.70
  -5   6   0  464.05   20.00
   4  -6   0   -0.60    0.60
   4  -6   0    0.30    0.60
   4  -6   0    1.00    0.60
  -4   6   0   -1.00    0.70
   3  -6   0  227.58   11.10
   3  -6   0  212.48    9.10
  -3   6   0  215.48    9.20
  -3   6   0  229.78   11.50
  -3   6   0  227.98   11.20
  -3   6   0  215.68   11.60
   2  -6   0   14.10    2.00
   2  -6   0   16.20    2.00
   2  -6   0   17.00    1.80
  -2   6   0   15.40    2.60
  -2   6   0   16.50    1.90
  -2   6   0   14.60    2.90
  -2   6   0   16.10    3.80
  -2   6   0   16.50    2.00
   1  -6   0  398.16   15.40
   1  -6   0  421.46   15.00
   1  -6   0  419.46   19.30
  -1   6   0  398.76   16.30
  -1   6   0  409.26   14.90
  -1   6   0  411.96   16.90
  -1   6   0  408.26   16.70
  -1   6   0  386.56   15.20
   0  -6   0 1518.95   48.50
   0  -6   0 1523.45   48.50
   0  -6   0 1549.24   47.50
   0  -6   0 1486.85   46.00
   0   6   0 1561.84   49.40
   0   6   0 1582.24   48.30
   0   6   0 1595.54   48.50
   0   6   0 1467.45   48.50
  -1  -6   0  515.15   20.00
  -1  -6   0  537.55   19.30
  -1  -6   0  551.04   23.50
  -1  -6   0  524.25   18.60
   1   6   0  526.95   19.00
   1   6   0  559.14   21.30
   1   6   0  529.25   19.90
  -2  -6   0   40.70    4.10
  -2  -6   0   45.00    4.40
  -2  -6   0   40.80    3.80
   2   6   0   43.30    3.70
   2   6   0   44.10    3.80
   2   6   0   51.19    4.80
  -3  -6   0  298.37   13.80
  -3  -6   0  303.17   14.50
   3   6   0  326.47   13.30
   3   6   0  304.77   14.70
   3   6   0  299.47   12.60
  -4  -6   0  372.76   17.60
  -4  -6   0  403.36   16.90
   4   6   0  374.96   15.70
   4   6   0  365.96   17.50
   4   6   0  381.46   14.70
   4   6   0  390.26   16.70
  -5  -6   0  156.98   10.30
  -5  -6   0  149.49    9.50
   5   6   0  164.68    8.80
   5   6   0  141.49   10.20
  -6  -6   0   55.19    5.80
  -6  -6   0   54.49    6.70
   6   6   0   49.80    4.60
   6   6   0   54.19    4.50
  -7  -6   0  255.17   14.40
  -7  -6   0  264.57   15.20
   7   6   0  260.77   12.50
   7   6   0  276.07   15.90
   7   6   0  268.67   12.50
  -8  -6   0  194.98   12.40
   8   6   0  182.18   11.00
   8   6   0  163.48   12.40
   8   6   0  201.78   10.40
  11  -7   0   24.00    4.80
  11  -7   0   16.00    4.20
 -11   7   0   18.50    4.30
  10  -7   0  130.09   10.20
  10  -7   0  120.69   10.90
 -10   7   0  111.39   11.20
 -10   7   0  118.79    9.50
 -10   7   0  112.49    8.90
   9  -7   0   42.80    5.70
  -9   7   0   48.80    7.70
  -9   7   0   51.79    6.80
   8  -7   0    3.30    2.10
   8  -7   0    0.90    1.30
  -8   7   0    3.90    2.60
  -8   7   0    1.00    2.60
   7  -7   0   22.10    4.40
  -7   7   0   34.80    4.90
  -7   7   0   31.30    5.30
   6  -7   0   41.90    3.50
   6  -7   0   47.90    5.50
  -6   7   0   49.90    6.10
  -6   7   0   46.40    3.30
  -6   7   0   45.60    5.50
   5  -7   0  125.19    5.70
   5  -7   0  130.59    6.50
   5  -7   0  134.69    9.00
  -5   7   0  139.19    9.10
  -5   7   0  146.09   10.20
  -5   7   0  141.19    9.40
   4  -7   0    6.00    1.50
   4  -7   0    5.00    1.90
  -4   7   0    2.90    2.00
  -4   7   0    3.80    1.70
  -4   7   0    5.30    1.30
  -4   7   0    3.90    2.10
   3  -7   0   20.10    1.70
   3  -7   0   22.30    2.50
   3  -7   0   17.30    3.90
  -3   7   0   15.50    2.10
  -3   7   0   18.40    3.40
  -3   7   0   20.30    3.20
   2  -7   0    8.00    1.10
   2  -7   0    6.70    1.60
  -2   7   0    6.60    2.10
  -2   7   0    4.50    1.10
  -2   7   0    4.60    1.80
  -2   7   0    5.90    1.50
   1  -7   0  205.28    8.80
   1  -7   0  210.48    9.70
   1  -7   0  220.28   10.20
  -1   7   0  219.88   11.40
  -1   7   0  180.88   12.20
  -1   7   0  216.58   11.50
  -1   7   0  214.68   11.00
  -1   7   0  212.38    9.70
   0  -7   0  249.78   10.40
   0  -7   0  241.58   11.70
   0  -7   0  246.28   11.40
   0   7   0  244.88   12.70
   0   7   0  237.88   10.70
   0   7   0  247.08   12.20
  -1  -7   0   88.49    6.40
  -1  -7   0   92.19    5.80
  -1  -7   0   87.99    6.40
   1   7   0   86.79    5.50
   1   7   0   88.29    6.90
   1   7   0   97.19    6.00
   1   7   0   93.49    6.60
  -2  -7   0  306.57   14.60
  -2  -7   0  266.47   11.60
  -2  -7   0  314.27   14.60
  -2  -7   0  303.97   13.40
   2   7   0  330.67   13.90
   2   7   0  305.67   13.30
   2   7   0  323.47   15.40
  -3  -7   0  555.24   22.60
  -3  -7   0  558.04   21.40
  -3  -7   0  535.75   22.50
   3   7   0  553.84   20.50
   3   7   0  505.05   20.40
   3   7   0  520.35   22.90
  -4  -7   0  248.58   13.60
  -4  -7   0  229.58   12.20
  -4  -7   0  240.48   13.30
   4   7   0  232.68   10.70
   4   7   0  220.08   13.40
   4   7   0  235.18   11.60
  -5  -7   0   37.00    5.00
  -5  -7   0   40.90    4.60
  -5  -7   0   41.80    5.30
   5   7   0   34.50    5.70
  -6  -7   0   84.79    8.10
  -6  -7   0   94.59    8.20
  -6  -7   0   96.29    8.10
   6   7   0   89.09    8.90
   6   7   0  102.19    7.10
   6   7   0  103.59    7.00
  -7  -7   0  138.09   10.80
  -7  -7   0  137.39   10.20
   7   7   0  128.39    9.20
   7   7   0  125.09   10.80
   7   7   0  161.18    9.10
  10  -8   0  202.68   13.70
  10  -8   0  194.58   15.00
 -10   8   0  209.08   13.50
 -10   8   0  189.18   15.50
   9  -8   0   64.59    6.90
  -9   8   0   52.99    7.50
  -9   8   0   54.79    6.60
   8  -8   0    6.80    2.70
   8  -8   0   10.60    2.40
  -8   8   0   11.40    4.40
  -8   8   0    8.50    2.90
   7  -8   0   81.39    9.70
  -7   8   0   82.49   13.20
  -7   8   0   93.79    9.40
   6  -8   0  282.47   13.50
   6  -8   0  323.47   16.30
  -6   8   0  289.27   17.00
  -6   8   0  294.47   16.10
   5  -8   0    0.10    1.30
  -5   8   0    0.90    1.80
  -5   8   0    3.10    2.20
  -5   8   0    1.70    1.20
  -5   8   0   -0.60    1.50
   4  -8   0   43.00    3.90
   4  -8   0   48.00    5.00
  -4   8   0   45.10    5.20
  -4   8   0   42.50    5.10
  -4   8   0   41.30    5.50
  -4   8   0   45.50    3.70
   3  -8   0  166.88    8.50
   3  -8   0  162.28   10.00
  -3   8   0  165.28    8.30
  -3   8   0  168.78   10.60
  -3   8   0  149.29   10.00
  -3   8   0  156.18   10.20
   2  -8   0    4.20    1.20
   2  -8   0    1.00    1.20
  -2   8   0    2.60    1.70
  -2   8   0    4.00    1.50
  -2   8   0    2.40    1.50
  -2   8   0    3.70    1.20
  -2   8   0    3.90    1.70
   1  -8   0    1.60    1.10
  -1   8   0    0.80    0.90
  -1   8   0   -0.30    1.00
  -1   8   0   -1.60    1.10
   0  -8   0   19.80    2.60
   0  -8   0   22.00    2.90
   0  -8   0   25.30    3.20
   0  -8   0   16.00    2.50
   0   8   0   23.70    3.40
   0   8   0   22.50    4.10
   0   8   0   18.40    3.70
   0   8   0   18.00    2.60
  -1  -8   0    5.10    1.80
  -1  -8   0    5.30    2.20
  -1  -8   0    5.20    1.90
   1   8   0    6.40    1.90
   1   8   0    4.00    2.00
   1   8   0    6.30    2.20
   1   8   0    6.30    2.00
  -2  -8   0  502.15   21.50
  -2  -8   0  546.55   20.50
  -2  -8   0  498.45   21.40
   2   8   0  523.25   23.00
   2   8   0  485.35   19.90
  -3  -8   0  324.47   16.50
  -3  -8   0  352.96   18.70
  -3  -8   0  339.67   15.30
   3   8   0  353.56   17.90
   3   8   0  306.87   16.30
   3   8   0  338.57   14.90
  -4  -8   0  128.09    8.70
  -4  -8   0  128.29    9.60
  -4  -8   0  129.19    9.60
   4   8   0  123.39    8.10
   4   8   0  124.79   10.00
  -5  -8   0  116.79    9.40
  -5  -8   0  119.69    8.50
  -5  -8   0  118.89    9.60
   5   8   0  128.09   10.70
   5   8   0  125.49    8.00
  -6  -8   0  172.68   12.50
  -6  -8   0  184.28   11.60
   6   8   0  184.48   10.50
   6   8   0  184.88   13.40
 -10   9   0   91.49   10.50
   9  -9   0  124.99   11.90
   9  -9   0  127.99   10.80
  -9   9   0  128.09   10.60
  -9   9   0  114.99   11.30
   8  -9   0   99.09    9.20
  -8   9   0   87.69   10.10
  -8   9   0   93.29    9.10
   7  -9   0  102.19    7.50
   7  -9   0   92.79    8.30
  -7   9   0   93.39    8.60
  -7   9   0  104.89   10.40
   6  -9   0   58.89    8.60
  -6   9   0   71.59    7.50
  -6   9   0   66.89   10.00
  -6   9   0   69.59    4.60
   5  -9   0  104.19    8.80
   5  -9   0  108.39    6.40
  -5   9   0  110.49    9.80
  -5   9   0  115.79    6.30
  -5   9   0  107.99    9.20
  -5   9   0  105.19    8.50
   4  -9   0   37.30    3.60
   4  -9   0   35.20    5.00
  -4   9   0   27.90    5.10
  -4   9   0   25.50    5.10
  -4   9   0   38.90    3.60
  -4   9   0   31.90    4.80
   3  -9   0   76.29    6.90
   3  -9   0   74.99    5.50
  -3   9   0   71.39    7.20
  -3   9   0   70.09    6.90
  -3   9   0   61.49    6.60
   2  -9   0    4.30    1.80
   2  -9   0    2.10    1.30
  -2   9   0    1.10    1.50
  -2   9   0   -0.10    2.00
  -2   9   0    2.00    1.90
   1  -9   0   21.00    2.90
   1  -9   0   20.40    3.10
   1  -9   0   18.10    2.20
  -1   9   0   19.70    3.50
  -1   9   0   14.20    3.60
  -1   9   0   14.10    3.30
  -1   9   0   15.00    2.70
   0  -9   0    5.90    2.00
   0  -9   0    4.40    1.60
   0   9   0    4.90    1.70
   0   9   0    7.40    2.30
   0   9   0    2.20    2.10
   0   9   0    6.10    2.80
  -1  -9   0   24.90    3.40
  -1  -9   0   25.90    3.80
  -1  -9   0   24.30    4.00
   1   9   0   24.90    4.40
   1   9   0   24.20    4.60
   1   9   0   24.50    4.30
  -2  -9   0  231.48   13.70
  -2  -9   0  240.08   11.90
  -2  -9   0  247.78   13.60
   2   9   0  233.58   11.90
   2   9   0  234.78   19.60
   2   9   0  232.98   12.70
  -3  -9   0  108.89    7.70
  -3  -9   0  109.39    8.70
  -3  -9   0  107.19    8.80
   3   9   0  101.49    7.50
   3   9   0  110.09   10.00
   3   9   0  106.59    7.60
  -4  -9   0   86.79    7.90
  -4  -9   0   90.69    7.50
  -4  -9   0   91.79    8.10
   4   9   0   94.39    6.90
   4   9   0   90.49    8.60
   4   9   0   85.99    6.80
  -5  -9   0  198.48   13.20
  -5  -9   0  221.48   12.70
  -5  -9   0  213.48   14.00
   5   9   0  205.68   14.40
   5   9   0  195.48   11.30
   9 -10   0  123.29   12.60
   9 -10   0  135.19   11.60
  -9  10   0  120.09   11.80
  -9  10   0  128.09   11.80
   8 -10   0  250.97   15.90
   8 -10   0  242.88   16.80
  -8  10   0  229.08   15.50
  -8  10   0  226.58   16.80
   7 -10   0  129.69   10.80
   7 -10   0  134.99    7.60
  -7  10   0  141.09   11.10
  -7  10   0  120.49   11.30
   6 -10   0    8.40    2.00
   6 -10   0    7.00    2.90
  -6  10   0   10.70    3.00
  -6  10   0    9.10    3.80
   5 -10   0   54.99    4.70
   5 -10   0   45.90    6.40
  -5  10   0   45.70    6.90
  -5  10   0   51.29    6.60
  -5  10   0   52.79    6.60
   4 -10   0  122.29    9.60
  -4  10   0  115.79   10.40
  -4  10   0  118.49    9.70
  -4  10   0  127.99   10.40
   3 -10   0    1.50    2.10
   3 -10   0    1.30    1.60
   3 -10   0   -0.60    1.20
  -3  10   0    5.60    2.30
  -3  10   0    0.10    2.10
   2 -10   0    0.90    1.60
   2 -10   0   -0.70    1.60
   2 -10   0    0.00    1.40
   2 -10   0   -1.00    1.90
  -2  10   0    3.30    2.10
  -2  10   0   -3.00    2.10
   1 -10   0   31.60    3.30
   1 -10   0   44.70    5.60
   1 -10   0   37.10    4.00
  -1  10   0   36.40    5.40
  -1  10   0   40.10    5.20
  -1  10   0   28.00    5.00
   0 -10   0   19.40    2.90
   0 -10   0   18.60    3.60
   0 -10   0   14.40    5.40
   0  10   0   18.60    3.30
   0  10   0   13.80    3.60
   0  10   0   19.00    3.50
   0  10   0   19.20    4.40
  -1 -10   0    4.00    2.20
  -1 -10   0    5.70    2.30
  -1 -10   0    4.60    1.90
   1  10   0    5.30    2.40
   1  10   0    3.00    2.80
   1  10   0    3.50    1.50
  -2 -10   0    2.40    2.10
  -2 -10   0    2.00    1.90
   2  10   0    0.60    1.90
   2  10   0   -2.30    1.90
   2  10   0   -2.10    1.10
  -3 -10   0   -1.70    2.90
  -3 -10   0    0.00    1.60
  -3 -10   0    0.10    2.40
   3  10   0   -2.40    2.30
   3  10   0   -1.10    1.30
   3  10   0   -1.90    3.00
  -4 -10   0   74.79    9.10
  -4 -10   0   84.69   10.60
  -4 -10   0   55.29    6.40
   4  10   0   70.79    8.60
   4  10   0   75.09    7.60
   8 -11   0  223.18   15.40
   8 -11   0  201.08   20.30
  -8  11   0  212.18   16.30
  -8  11   0  222.38   15.10
   7 -11   0   79.19    9.40
   7 -11   0   70.99    8.20
  -7  11   0   73.79    8.10
  -7  11   0   86.39   10.20
   6 -11   0   72.09    8.70
   6 -11   0   75.69    5.80
   6 -11   0   74.99    8.10
  -6  11   0   86.19    9.20
  -6  11   0   63.39    8.40
   5 -11   0  240.98   15.20
   5 -11   0  250.07   11.70
   5 -11   0  228.88   15.30
  -5  11   0  222.58   16.00
  -5  11   0  251.97   15.30
  -5  11   0  247.78   15.90
   4 -11   0   26.10    5.20
   4 -11   0   20.30    3.70
   4 -11   0   22.30    4.80
  -4  11   0   26.10    5.30
  -4  11   0   19.20    4.60
  -4  11   0   19.00    5.00
   3 -11   0    7.60    1.90
   3 -11   0    1.30    2.40
   3 -11   0    3.00    2.90
   3 -11   0    3.30    2.40
  -3  11   0    6.60    4.50
  -3  11   0    2.90    2.50
  -3  11   0    4.80    3.30
   2 -11   0    6.40    2.60
   2 -11   0   15.00    3.70
   2 -11   0   14.00    2.60
   2 -11   0    9.40    2.90
  -2  11   0   17.00    4.20
  -2  11   0   13.20    3.80
  -2  11   0   14.20    4.50
   1 -11   0    0.90    1.90
   1 -11   0    0.50    1.80
  -1  11   0   -2.80    2.20
  -1  11   0   -2.70    2.30
   0 -11   0    4.70    2.20
   0 -11   0    0.20    2.20
   0 -11   0    3.60    1.90
   0  11   0    1.50    2.50
   0  11   0    7.70    2.90
   0  11   0    1.70    3.00
  -1 -11   0    7.60    2.70
  -1 -11   0   11.90    3.10
   1  11   0    7.20    3.40
   1  11   0   13.00    3.80
  -2 -11   0    9.70    3.20
  -2 -11   0    9.90    3.20
   2  11   0   12.80    6.60
   2  11   0   10.20    3.50
   6 -12   0  143.09   12.30
  -6  12   0  180.08   13.80
  -6  12   0  148.39   15.70
   5 -12   0  263.37   13.10
   5 -12   0  271.97   16.50
   5 -12   0  244.68   15.90
  -5  12   0  235.08   16.80
   4 -12   0   48.30    7.20
   4 -12   0   57.09    7.40
  -4  12   0   79.19    7.50
  -4  12   0   62.39    8.60
  -4  12   0   68.89    7.50
   3 -12   0    4.50    3.10
   3 -12   0   10.30    2.90
   3 -12   0   -1.90    2.70
  -3  12   0    7.80    3.70
  -3  12   0    4.40    3.90
  -3  12   0    0.90    2.80
   2 -12   0   13.90    3.40
   2 -12   0   25.00    4.10
   2 -12   0   16.30    4.00
  -2  12   0   25.60    5.00
  -2  12   0   21.60    4.70
  -2  12   0   22.40    5.10
   1 -12   0    7.70    3.50
   1 -12   0    8.60    3.10
   1 -12   0   10.20    3.30
  -1  12   0   13.60    4.90
  -1  12   0   14.00    4.20
  -1  12   0   14.10    4.40
   0 -12   0    0.20    2.10
   0 -12   0   -0.30    2.30
   0 -12   0   -5.40    2.40
   0  12   0    0.60    3.10
   0  12   0   -1.20    4.50
   1  12  -1  156.28   11.40
   1  12  -1  184.58   13.50
   1  12  -1  179.38   10.50
  -1 -12   1  164.88   11.70
  -1 -12   1  137.19   10.70
  -1 -12   1  161.38   10.90
   0  12  -1  301.37   17.70
   0  12  -1  259.87   15.80
   0 -12   1  263.47   15.40
   0 -12   1  279.27   16.80
   0 -12   1  276.47   15.30
  -1  12  -1   25.30    4.80
  -1  12  -1   17.50    4.90
  -1  12  -1   21.50    4.60
   1 -12   1   35.00    5.00
   1 -12   1   23.60    4.60
  -2  12  -1    5.00    3.70
  -2  12  -1    7.30    3.30
  -2  12  -1    6.40    3.40
   2 -12   1    8.10    3.10
   2 -12   1    4.90    2.30
   2 -12   1    3.80    2.70
  -3  12  -1   21.70    5.30
  -3  12  -1   20.80    4.60
  -3  12  -1    6.10    4.40
   3 -12   1   16.80    3.40
   3 -12   1   13.60    3.50
   3 -12   1   17.20    4.30
  -4  12  -1    4.00    2.70
  -4  12  -1   -2.80    2.50
  -4  12  -1   -4.00    2.70
   4 -12   1    4.50    2.30
   4 -12   1    0.20    2.10
  -5  12  -1   31.20    5.80
  -5  12  -1   25.80    5.50
  -5  12  -1   25.20    6.20
   5 -12   1   31.70    4.30
   5 -12   1   39.40    5.80
   5 -12   1   26.20    5.40
  -6  12  -1   24.20    5.10
  -6  12  -1   20.10    4.90
   6 -12   1   27.60    5.40
   3  11  -1   26.80    3.90
   3  11  -1   14.90    4.30
  -3 -11   1   12.70    3.10
  -3 -11   1   19.30    3.70
  -3 -11   1   20.60    5.80
   2  11  -1   88.79    8.30
   2  11  -1  114.89   10.00
   2  11  -1   89.89    7.10
  -2 -11   1   90.09    9.20
  -2 -11   1   87.29    6.80
  -2 -11   1   83.39    7.90
   1  11  -1  333.97   15.90
   1  11  -1  342.47   19.20
   1  11  -1  350.46   17.50
  -1 -11   1  332.27   17.50
  -1 -11   1  348.37   17.10
  -1 -11   1  343.97   15.40
   0  11  -1  397.16   18.60
   0  11  -1  439.96   20.60
   0  11  -1  437.26   21.80
   0  11  -1  423.16   18.20
   0 -11   1  419.16   19.50
   0 -11   1  414.16   19.10
   0 -11   1  418.16   19.80
   0 -11   1  416.06   17.10
  -1  11  -1   60.19    5.50
  -1  11  -1   54.59    7.20
  -1  11  -1   71.79    8.50
  -1  11  -1   56.19    6.70
   1 -11   1   66.49    5.60
   1 -11   1   64.89    5.20
   1 -11   1   61.29    6.90
   1 -11   1   68.39    5.60
  -2  11  -1  185.58   12.60
  -2  11  -1  174.08   12.40
  -2  11  -1  170.18   12.50
   2 -11   1  194.08   12.30
   2 -11   1  166.08   10.20
   2 -11   1  191.38    9.80
   2 -11   1  177.18    8.40
   2 -11   1  173.48   10.50
  -3  11  -1   99.29    9.30
  -3  11  -1  105.19    9.50
   3 -11   1  111.69    9.00
   3 -11   1  104.49    7.40
   3 -11   1  103.49    8.60
  -4  11  -1   35.20    5.20
  -4  11  -1   21.40    4.00
  -4  11  -1   21.90    5.70
  -4  11  -1   23.90    5.50
   4 -11   1   14.40    4.10
   4 -11   1   22.90    3.50
   4 -11   1   21.30    4.30
  -5  11  -1    4.20    3.00
  -5  11  -1    1.20    2.10
  -5  11  -1    2.60    3.20
  -5  11  -1    5.00    2.50
   5 -11   1    0.30    2.40
   5 -11   1    3.10    2.80
   5 -11   1    3.30    1.60
  -6  11  -1   10.10    3.40
  -6  11  -1   13.90    4.70
  -6  11  -1   13.80    3.00
   6 -11   1    7.10    3.40
   6 -11   1   10.30    3.80
  -7  11  -1    0.10    2.80
  -7  11  -1   -0.70    2.20
   7 -11   1    2.70    2.00
   7 -11   1    0.20    2.60
  -8  11  -1    8.00    3.70
  -8  11  -1    2.00    3.50
   8 -11   1    2.30    4.70
   5  10  -1  146.09    9.70
   5  10  -1  163.58   13.00
  -5 -10   1  140.09   11.60
  -5 -10   1  160.98   10.70
  -5 -10   1  141.79   11.40
   4  10  -1  136.09   11.20
   4  10  -1  130.19    8.70
  -4 -10   1  117.89    9.90
  -4 -10   1  121.99    9.90
  -4 -10   1  116.19    9.00
   3  10  -1    4.60    2.90
   3  10  -1    6.70    2.10
   3  10  -1    9.30    2.60
  -3 -10   1    7.00    2.60
  -3 -10   1    2.10    1.70
  -3 -10   1    6.00    2.40
   2  10  -1   95.39    6.80
   2  10  -1   83.89    7.30
   2  10  -1   91.29    9.00
  -2 -10   1   92.19    7.20
  -2 -10   1   95.39    7.90
  -2 -10   1  103.59    8.10
   1  10  -1  275.37   14.80
   1  10  -1  281.47   13.50
   1  10  -1  275.47   15.90
  -1 -10   1  278.77   20.30
  -1 -10   1  283.47   13.30
   0  10  -1  202.58   11.60
   0  10  -1  224.28   12.90
   0  10  -1  201.28   13.30
   0  10  -1  203.48   11.00
   0 -10   1  201.08   11.70
   0 -10   1  212.38   11.60
  -1  10  -1  138.79    8.20
  -1  10  -1  131.49    9.90
  -1  10  -1  145.79   10.10
  -1  10  -1  138.89    9.80
   1 -10   1  136.09    9.50
   1 -10   1  130.69    7.40
   1 -10   1  136.19    8.30
   1 -10   1  137.99    8.90
  -2  10  -1  432.26   20.90
  -2  10  -1  447.96   21.10
  -2  10  -1  445.56   17.50
  -2  10  -1  440.46   18.50
  -2  10  -1  446.86   21.20
   2 -10   1  464.05   20.50
   2 -10   1  427.36   17.40
   2 -10   1  434.36   19.00
   2 -10   1  438.76   18.50
  -3  10  -1  316.27   17.60
  -3  10  -1  349.07   18.00
  -3  10  -1  340.37   14.80
  -3  10  -1  321.47   17.10
   3 -10   1  324.77   14.60
   3 -10   1  320.87   13.10
   3 -10   1  341.87   17.00
   3 -10   1  331.87   16.50
  -4  10  -1   51.69    4.80
  -4  10  -1   54.99    7.70
  -4  10  -1   44.40    7.50
  -4  10  -1   45.90    6.70
   4 -10   1   53.89    6.20
   4 -10   1   60.19    4.70
   4 -10   1   54.89    6.40
  -5  10  -1   19.70    4.80
  -5  10  -1   16.20    4.40
  -5  10  -1   24.10    3.40
  -5  10  -1   31.00    5.20
   5 -10   1   24.90    5.00
   5 -10   1   23.40    4.70
   5 -10   1   27.80    3.00
  -6  10  -1    5.50    2.40
  -6  10  -1    2.60    2.80
  -6  10  -1    8.50    2.20
   6 -10   1    1.00    2.20
   6 -10   1    9.20    3.60
  -7  10  -1   37.40    5.20
  -7  10  -1   48.40    6.50
  -7  10  -1   35.40    5.60
   7 -10   1   29.20    6.60
  -8  10  -1   47.00    6.30
  -8  10  -1   43.00   10.50
   8 -10   1   39.30    7.60
   8 -10   1   51.89    6.90
  -9  10  -1    2.60    3.40
   9 -10   1   -2.10    2.60
   9 -10   1   -1.80    3.00
   6   9  -1  350.76   20.40
   6   9  -1  365.96   18.00
  -6  -9   1  406.36   19.30
  -6  -9   1  386.36   20.30
   5   9  -1  282.77   14.50
   5   9  -1  306.67   17.70
  -5  -9   1  329.07   17.60
  -5  -9   1  306.87   16.10
  -5  -9   1  309.57   17.40
   4   9  -1   75.29    6.40
   4   9  -1   69.59    7.70
  -4  -9   1   81.49    7.50
  -4  -9   1   75.59    7.50
  -4  -9   1   82.59    9.70
   3   9  -1  156.78    9.50
  -3  -9   1  156.28   10.80
  -3  -9   1  165.98   11.10
  -3  -9   1  177.88   10.30
   2   9  -1  378.26   16.80
   2   9  -1  376.46   18.90
  -2  -9   1  386.46   16.80
  -2  -9   1  372.86   17.80
  -2  -9   1  378.46   17.60
   1   9  -1  119.69    7.70
   1   9  -1  122.99    9.30
   1   9  -1  124.99    9.30
   1   9  -1  125.89    8.30
  -1  -9   1  106.29    7.80
  -1  -9   1  128.09    7.70
  -1  -9   1  116.39    8.10
   0   9  -1   65.79    6.60
   0   9  -1   67.59    6.10
   0   9  -1   58.79    5.10
   0  -9   1   63.79    5.50
   0  -9   1   58.99    5.20
   0  -9   1   64.89    5.50
   0  -9   1   71.29    4.60
  -1   9  -1  396.46   17.20
  -1   9  -1  407.66   19.10
  -1   9  -1  414.16   18.90
  -1   9  -1  418.56   18.80
  -1   9  -1  406.36   16.40
   1  -9   1  392.06   15.80
   1  -9   1  407.56   17.20
   1  -9   1  427.46   16.80
   1  -9   1  410.36   16.80
  -2   9  -1  487.55   21.70
  -2   9  -1  475.45   21.30
  -2   9  -1  499.85   18.40
  -2   9  -1  484.55   21.70
  -2   9  -1  461.65   19.20
   2  -9   1  510.25   20.40
   2  -9   1  501.35   20.90
   2  -9   1  476.75   18.20
   2  -9   1  478.05   17.70
   2  -9   1  492.65   19.30
  -3   9  -1  347.47   17.10
  -3   9  -1  355.76   18.00
  -3   9  -1  337.07   17.20
  -3   9  -1  351.96   14.90
   3  -9   1  352.96   16.70
   3  -9   1  337.97   13.20
   3  -9   1  355.16   16.70
  -4   9  -1  309.77   15.70
  -4   9  -1  287.27   15.70
  -4   9  -1  310.37   13.10
  -4   9  -1  285.57   16.50
   4  -9   1  277.37   14.90
   4  -9   1  297.67   12.40
  -5   9  -1  119.39    8.70
  -5   9  -1  115.59    9.00
  -5   9  -1  116.59    9.30
  -5   9  -1  107.99    9.60
   5  -9   1  113.69    8.60
  -6   9  -1  109.19   14.90
  -6   9  -1  113.19    9.50
  -6   9  -1  108.69    6.50
   6  -9   1  119.59    9.00
   6  -9   1  111.69    9.70
   6  -9   1  106.39    5.90
  -7   9  -1   12.20    2.50
  -7   9  -1   11.80    3.40
  -7   9  -1   13.60    4.70
   7  -9   1   10.50    3.60
   7  -9   1   13.00    4.10
  -8   9  -1   11.90    4.40
  -8   9  -1   13.80    4.20
   8  -9   1   10.30    3.50
   8  -9   1   16.70    4.70
  -9   9  -1    3.30    2.60
  -9   9  -1    1.40    3.40
   9  -9   1    6.30    3.00
 -10   9  -1   34.40    7.30
  10  -9   1   41.50    6.70
   7   8  -1   17.60    4.80
   7   8  -1   18.30    3.50
  -7  -8   1   18.60    4.40
  -7  -8   1   18.10    4.10
  -7  -8   1   31.50    5.10
   6   8  -1  153.98    9.50
   6   8  -1  162.88   12.00
  -6  -8   1  166.08   12.20
  -6  -8   1  165.08   11.80
  -6  -8   1  159.48   10.90
   5   8  -1  212.38   13.90
   5   8  -1  219.58   11.70
  -5  -8   1  227.38   12.90
  -5  -8   1  222.48   13.60
  -5  -8   1  221.58   13.80
   4   8  -1  144.99    9.40
   4   8  -1  146.19    7.60
   4   8  -1  124.79    9.80
  -4  -8   1  129.29    8.90
  -4  -8   1  145.09   10.40
  -4  -8   1  142.29   10.00
   3   8  -1  575.24   24.40
   3   8  -1  565.14   21.40
   3   8  -1  555.64   22.00
  -3  -8   1  567.14   22.70
  -3  -8   1  583.74   24.00
  -3  -8   1  574.84   24.00
   2   8  -1  409.66   16.80
   2   8  -1  387.26   18.40
  -2  -8   1  401.86   17.00
  -2  -8   1  393.56   17.90
  -2  -8   1  417.56   18.10
   1   8  -1    1.30    1.20
   1   8  -1    4.60    1.10
   1   8  -1    4.00    1.70
   1   8  -1    5.70    1.80
  -1  -8   1    4.00    1.70
  -1  -8   1    4.30    1.60
   0   8  -1   16.70    2.80
   0   8  -1   20.30    3.10
   0   8  -1   16.10    3.20
   0   8  -1   17.60    3.60
   0   8  -1   21.60    4.90
   0  -8   1   15.40    2.40
   0  -8   1   14.10    2.50
   0  -8   1   19.10    4.10
  -1   8  -1  412.16   17.90
  -1   8  -1  388.86   17.70
  -1   8  -1  409.06   15.70
  -1   8  -1  378.26   17.50
  -1   8  -1  387.86   16.30
   1  -8   1  392.96   15.90
   1  -8   1  422.86   16.40
   1  -8   1  400.66   16.50
  -2   8  -1  237.48   11.50
  -2   8  -1  245.68   13.30
  -2   8  -1  272.77   11.10
  -2   8  -1  256.47   13.20
  -2   8  -1  243.38   13.00
   2  -8   1  256.67   12.60
   2  -8   1  269.47   13.00
  -3   8  -1   56.09    6.20
  -3   8  -1   81.29    6.60
  -3   8  -1   72.99    5.20
  -3   8  -1   81.99    6.70
  -3   8  -1   74.79    4.60
   3  -8   1   75.79    6.10
   3  -8   1   71.19    4.90
  -4   8  -1  262.17   14.80
  -4   8  -1  251.47   13.50
  -4   8  -1  277.57   11.80
  -4   8  -1  285.47   14.30
   4  -8   1  265.07   13.70
   4  -8   1  264.97   10.80
   4  -8   1  280.17   11.50
  -5   8  -1  148.39    7.80
  -5   8  -1  163.98   10.70
  -5   8  -1  154.68   11.20
   5  -8   1  156.28   10.00
  -6   8  -1  225.68   13.20
  -6   8  -1  199.48   13.70
  -6   8  -1  210.68    9.40
   6  -8   1  214.68   12.80
  -7   8  -1    7.80    2.10
  -7   8  -1    9.80    3.10
   7  -8   1    8.40    2.80
   7  -8   1    7.30    3.80
  -8   8  -1   19.50    4.40
  -8   8  -1   13.90    4.10
   8  -8   1   16.30    4.50
   8  -8   1   17.40    3.60
  -9   8  -1   -1.80    2.50
  -9   8  -1    1.60    2.20
   9  -8   1   -1.50    1.90
   9  -8   1    5.80    2.40
 -10   8  -1  168.38   11.80
 -10   8  -1  137.09   12.50
  10  -8   1  132.89   12.40
  10  -8   1  163.68   14.20
   8   7  -1   -3.30    2.40
   8   7  -1    2.50    2.00
  -8  -7   1   -3.40    4.10
  -8  -7   1    2.00    2.40
   7   7  -1   20.10    3.50
   7   7  -1   31.90    4.80
   7   7  -1   32.20    5.30
  -7  -7   1   20.00    4.00
  -7  -7   1   32.90    5.20
   6   7  -1   77.19    5.80
   6   7  -1   56.29    7.00
  -6  -7   1   67.39    6.70
  -6  -7   1   74.59    6.80
   5   7  -1  216.98   11.20
   5   7  -1  200.78   12.60
  -5  -7   1  229.08   15.90
  -5  -7   1  224.98   12.30
   4   7  -1  382.36   18.10
   4   7  -1  369.86   16.30
   4   7  -1  389.36   14.80
  -4  -7   1  397.76   18.40
  -4  -7   1  389.66   17.30
   3   7  -1  663.43   24.40
   3   7  -1  664.13   23.30
   3   7  -1  692.53   26.20
  -3  -7   1  634.14   25.70
  -3  -7   1  642.44   24.90
   2   7  -1  821.52   27.90
   2   7  -1  784.32   29.20
   2   7  -1  775.32   27.40
  -2  -7   1  768.42   27.90
  -2  -7   1  754.72   28.80
  -2  -7   1  809.62   28.90
   1   7  -1  684.53   24.40
   1   7  -1  687.53   24.90
   1   7  -1  662.23   26.00
   1   7  -1  690.73   25.00
  -1  -7   1  696.53   24.60
  -1  -7   1  686.83   25.00
  -1  -7   1  685.13   27.20
   0   7  -1  705.73   25.30
   0   7  -1  693.63   25.40
   0   7  -1  679.13   24.70
   0   7  -1  682.33   26.00
   0   7  -1  694.73   24.30
   0  -7   1  670.03   24.60
   0  -7   1  712.63   23.30
   0  -7   1  649.93   24.30
   0  -7   1  707.43   24.10
  -1   7  -1  478.15   22.00
  -1   7  -1  479.45   18.30
  -1   7  -1  488.95   19.50
  -1   7  -1  466.95   17.40
  -1   7  -1  455.75   19.10
   1  -7   1  476.85   17.70
   1  -7   1  494.35   17.90
  -2   7  -1  109.89    8.00
  -2   7  -1  112.39    9.00
  -2   7  -1  109.19    7.40
  -2   7  -1  107.99    6.40
  -2   7  -1  105.39    5.70
   2  -7   1  112.19    6.70
   2  -7   1   99.29    6.80
   2  -7   1  100.59    5.90
  -3   7  -1   49.99    3.40
  -3   7  -1   46.10    4.70
  -3   7  -1   45.10    4.80
  -3   7  -1   48.60    3.90
   3  -7   1   51.69    3.70
   3  -7   1   54.49    4.80
   3  -7   1   49.70    3.00
  -4   7  -1  342.47   15.90
  -4   7  -1  351.96   15.60
  -4   7  -1  312.17   16.20
  -4   7  -1  342.47   13.70
   4  -7   1  315.37   13.00
   4  -7   1  347.37   15.60
  -5   7  -1  475.65   17.60
  -5   7  -1  496.25   21.20
  -5   7  -1  482.95   22.20
   5  -7   1  510.05   21.00
  -6   7  -1  525.75   19.10
  -6   7  -1  548.85   24.80
  -6   7  -1  553.34   23.30
   6  -7   1  547.85   23.20
  -7   7  -1  238.38   13.50
  -7   7  -1  231.88   14.90
  -7   7  -1  254.77   10.80
   7  -7   1  247.08   13.80
   7  -7   1  215.78    9.40
  -8   7  -1  104.29    8.50
  -8   7  -1   90.19    9.90
  -8   7  -1  102.19    5.90
   8  -7   1   97.99    8.50
   8  -7   1   95.89    9.20
  -9   7  -1   15.80    3.30
  -9   7  -1   19.60    5.20
  -9   7  -1   13.60    4.20
   9  -7   1   12.20    4.20
   9  -7   1   13.30    3.60
 -10   7  -1    6.20    4.10
 -10   7  -1    5.90    2.50
  10  -7   1    2.60    3.10
  10  -7   1    4.70    3.00
 -11   7  -1   -0.80    3.50
  11  -7   1   -4.20    2.20
   8   6  -1    1.30    2.50
   8   6  -1    0.80    1.50
   8   6  -1   -1.90    2.60
  -8  -6   1   -2.70    1.90
  -8  -6   1   -1.40    1.70
   7   6  -1   20.20    5.10
   7   6  -1   25.30    4.50
  -7  -6   1   16.30    3.60
  -7  -6   1   19.70    3.90
   6   6  -1    4.50    1.60
   6   6  -1    4.50    1.70
   6   6  -1    2.90    1.90
  -6  -6   1    4.60    1.70
  -6  -6   1    9.10    2.50
   5   6  -1    4.60    2.00
   5   6  -1    0.50    1.10
   5   6  -1    1.40    1.10
  -5  -6   1    2.60    1.20
  -5  -6   1    2.10    1.40
   4   6  -1  358.66   16.30
   4   6  -1  349.87   15.00
   4   6  -1  369.26   13.50
  -4  -6   1  341.07   15.70
  -4  -6   1  340.37   16.30
   3   6  -1  768.22   28.10
   3   6  -1  765.72   25.20
   3   6  -1  750.82   26.50
  -3  -6   1  732.43   27.40
  -3  -6   1  727.93   27.90
   2   6  -1  450.25   17.30
   2   6  -1  451.05   18.20
   2   6  -1  448.16   16.50
  -2  -6   1  447.16   17.40
  -2  -6   1  407.46   16.40
  -2  -6   1  445.46   18.20
   1   6  -1  942.01   32.10
   1   6  -1  923.01   30.70
   1   6  -1  935.31   30.90
   1   6  -1  952.30   31.20
  -1  -6   1  900.31   31.70
  -1  -6   1  931.41   31.40
  -1  -6   1  918.41   31.00
   0   6  -1 1497.45   46.90
   0   6  -1 1425.46   45.80
   0   6  -1 1452.65   46.80
   0   6  -1 1501.05   46.60
   0   6  -1 1457.35   47.30
   0  -6   1 1436.46   45.10
   0  -6   1 1419.86   44.30
   0  -6   1 1484.55   46.10
   0  -6   1 1485.75   46.50
  -1   6  -1  634.24   23.00
  -1   6  -1  586.84   21.50
  -1   6  -1  616.14   22.60
  -1   6  -1  603.54   22.50
  -1   6  -1  605.84   20.90
   1  -6   1  622.74   21.10
   1  -6   1  625.04   20.90
  -2   6  -1    9.80    1.90
  -2   6  -1   12.60    2.50
  -2   6  -1   15.60    2.50
  -2   6  -1   14.90    2.30
  -2   6  -1   11.70    1.50
   2  -6   1   16.70    2.50
   2  -6   1   11.10    2.20
   2  -6   1   12.50    2.90
  -3   6  -1  251.27   15.50
  -3   6  -1  250.17    9.40
  -3   6  -1  258.37   15.90
  -3   6  -1  242.98   10.20
  -3   6  -1  271.87   13.70
   3  -6   1  257.07   11.80
   3  -6   1  243.58    9.50
   3  -6   1  242.78    9.30
  -4   6  -1  406.96   14.90
  -4   6  -1  457.25   16.00
  -4   6  -1  466.85   20.10
  -4   6  -1  464.05   20.30
  -4   6  -1  443.96   18.10
   4  -6   1  401.66   15.80
   4  -6   1  473.45   18.40
   4  -6   1  408.56   16.60
  -5   6  -1   73.19    4.40
  -5   6  -1   74.79    6.10
  -5   6  -1   78.69    7.00
   5  -6   1   68.99    4.60
   5  -6   1   80.59    6.30
  -6   6  -1    1.90    1.40
  -6   6  -1    1.60    1.60
  -6   6  -1    2.10    1.10
   6  -6   1    1.50    0.80
  -7   6  -1  338.27   14.70
  -7   6  -1  367.06   17.00
  -7   6  -1  353.36   13.50
  -7   6  -1  356.06   18.50
   7  -6   1  333.97   12.90
   7  -6   1  367.46   17.40
  -8   6  -1  257.17   15.90
  -8   6  -1  241.98   12.30
  -8   6  -1  255.97   13.80
  -8   6  -1  260.67   10.60
   8  -6   1  263.77   14.10
   8  -6   1  229.28   14.60
  -9   6  -1   -1.80    1.70
  -9   6  -1   -3.60    2.30
  -9   6  -1   -2.30    1.80
   9  -6   1   -3.00    1.80
   9  -6   1    1.60    1.60
 -10   6  -1   54.99    6.90
 -10   6  -1   49.90    7.70
  10  -6   1   57.69    7.20
  10  -6   1   62.79    6.70
 -11   6  -1    8.00    3.00
  11  -6   1   10.00    4.00
   9   5  -1    4.00    1.80
   9   5  -1    5.30    3.20
   9   5  -1    7.10    2.90
  -9  -5   1    1.50    2.40
  -9  -5   1    5.00    2.80
   8   5  -1  103.79    7.00
   8   5  -1  100.69    9.20
   8   5  -1  114.39    6.60
  -8  -5   1   96.69    8.80
  -8  -5   1  106.99    8.70
   7   5  -1   11.00    2.20
   7   5  -1    8.10    3.00
  -7  -5   1    6.80    2.50
  -7  -5   1    7.80    2.40
   6   5  -1    0.10    1.10
   6   5  -1    0.00    0.80
   6   5  -1    0.80    1.70
  -6  -5   1    1.00    1.10
  -6  -5   1    0.40    1.30
   5   5  -1   -0.10    0.80
   5   5  -1    0.40    0.80
   5   5  -1   -0.20    1.20
  -5  -5   1   -0.90    0.90
   4   5  -1  273.87   14.50
   4   5  -1  255.97   11.60
  -4  -5   1  256.47   12.50
  -4  -5   1  272.87   13.20
   3   5  -1  156.88    8.50
   3   5  -1  151.98    8.40
   3   5  -1  148.79    7.70
  -3  -5   1  149.79    8.70
  -3  -5   1  144.89    8.10
  -3  -5   1  145.69    6.80
   2   5  -1   51.09    3.90
   2   5  -1   56.79    4.20
   2   5  -1   52.39    4.30
   2   5  -1   51.69    3.60
  -2  -5   1   56.89    4.30
  -2  -5   1   52.69    4.50
  -2  -5   1   49.50    3.60
   1   5  -1 2297.27   70.49
   1   5  -1 2301.57   69.59
   1   5  -1 2414.76   70.49
   1   5  -1 2302.17   69.69
   1   5  -1 2275.87   69.79
  -1  -5   1 2216.78   70.09
  -1  -5   1 2345.07   69.79
  -1  -5   1 2311.37   69.19
  -1  -5   1 2326.07   70.79
  -1  -5   1 2299.87   69.99
   0   5  -1 1194.48   37.90
   0   5  -1 1164.98   37.60
   0   5  -1 1213.58   37.00
   0   5  -1 1121.99   37.80
   0   5  -1 1194.88   37.60
   0  -5   1 1175.18   39.40
   0  -5   1 1166.18   37.00
   0  -5   1 1188.88   36.90
   0  -5   1 1172.68   37.40
   0  -5   1 1169.58   37.00
  -1   5  -1  524.65   18.30
  -1   5  -1  511.55   18.90
  -1   5  -1  494.95   19.00
  -1   5  -1  521.25   17.60
  -1   5  -1  520.35   19.00
   1  -5   1  529.65   17.60
   1  -5   1  526.65   17.70
  -2   5  -1  969.70   32.50
  -2   5  -1  963.40   31.70
  -2   5  -1  980.20   29.60
  -2   5  -1  946.11   30.50
  -2   5  -1  919.01   31.90
   2  -5   1  903.91   30.40
   2  -5   1  973.80   29.40
   2  -5   1  967.30   31.50
   2  -5   1  956.00   30.30
  -3   5  -1 1138.29   36.00
  -3   5  -1 1115.39   36.60
  -3   5  -1 1126.69   37.30
  -3   5  -1 1090.69   34.30
  -3   5  -1 1059.69   33.40
  -3   5  -1 1007.80   33.50
   3  -5   1 1082.79   33.60
   3  -5   1 1096.69   36.00
   3  -5   1 1183.28   34.50
   3  -5   1 1021.50   34.30
   3  -5   1 1075.59   33.10
  -4   5  -1  392.76   16.00
  -4   5  -1  387.16   13.60
  -4   5  -1  394.76   16.70
  -4   5  -1  344.87   13.40
   4  -5   1  321.97   13.30
   4  -5   1  402.56   13.30
   4  -5   1  368.16   12.90
   4  -5   1  380.76   15.60
  -5   5  -1   56.79    3.50
  -5   5  -1   61.69    5.90
  -5   5  -1   71.79    4.50
  -5   5  -1   67.29    5.50
   5  -5   1   76.69    5.90
  -6   5  -1   28.50    3.10
  -6   5  -1   28.60    2.60
  -6   5  -1   22.50    3.40
  -6   5  -1   26.00    4.00
   6  -5   1   31.30    3.40
  -7   5  -1  225.28    9.40
  -7   5  -1  230.18   12.00
  -7   5  -1  216.28   10.90
  -7   5  -1  225.58   13.40
   7  -5   1  219.88   12.20
  -8   5  -1   85.69    6.50
  -8   5  -1   85.09    5.00
  -8   5  -1   94.49    7.10
  -8   5  -1   92.69    8.30
   8  -5   1   76.79    7.80
   8  -5   1   95.59    7.30
  -9   5  -1   41.60    3.70
  -9   5  -1   28.80    5.30
  -9   5  -1   40.80    5.00
   9  -5   1   36.40    5.80
   9  -5   1   34.70    5.40
 -10   5  -1  222.68   15.00
 -10   5  -1  190.08   10.00
 -10   5  -1  200.58   14.90
  10  -5   1  209.98   13.80
  10  -5   1  207.38   13.10
 -11   5  -1   34.30    5.70
 -11   5  -1   28.30    5.40
  11  -5   1   43.10    6.20
  11  -5   1   24.90    5.50
  10   4  -1   22.20    4.80
  10   4  -1   30.00    4.20
  10   4  -1   36.80    5.20
 -10  -4   1   35.20    5.30
   9   4  -1    5.00    2.20
   9   4  -1    1.30    1.60
   9   4  -1    3.30    2.40
  -9  -4   1    6.90    2.70
  -9  -4   1    4.20    2.20
   8   4  -1   39.20    3.60
   8   4  -1   43.50    4.10
   8   4  -1   24.00    5.80
  -8  -4   1   34.70    4.70
  -8  -4   1   39.40    5.10
   7   4  -1    2.40    1.00
   7   4  -1   -0.70    1.40
   7   4  -1    1.40    1.30
  -7  -4   1    3.10    1.20
  -7  -4   1    0.30    1.20
  -7  -4   1   -0.40    1.30
   6   4  -1   26.60    3.60
   6   4  -1   26.90    2.80
   6   4  -1   30.70    3.20
  -6  -4   1   20.30    2.30
  -6  -4   1   21.20    3.40
  -6  -4   1   26.60    3.70
   5   4  -1   49.30    4.10
  -5  -4   1   56.79    5.00
  -5  -4   1   54.59    5.00
   4   4  -1  123.19    6.30
   4   4  -1  119.39    7.40
   4   4  -1  119.99    6.60
  -4  -4   1  121.09    7.70
  -4  -4   1  121.29    7.40
   3   4  -1   10.40    2.10
   3   4  -1   14.30    2.30
   3   4  -1   10.30    1.20
  -3  -4   1    9.40    1.50
  -3  -4   1    9.50    1.90
  -3  -4   1    9.60    2.10
   2   4  -1   20.70    1.70
   2   4  -1   20.40    2.30
   2   4  -1   19.30    1.90
   2   4  -1   18.50    2.20
   2   4  -1   22.10    2.20
  -2  -4   1   24.60    2.20
  -2  -4   1   23.70    2.60
  -2  -4   1   18.20    2.20
  -2  -4   1   21.90    1.60
   1   4  -1 1269.77   39.00
   1   4  -1 1244.08   38.80
   1   4  -1 1301.27   39.30
   1   4  -1 1187.48   39.40
   1   4  -1 1308.97   39.60
  -1  -4   1 1296.27   39.50
  -1  -4   1 1250.37   37.50
  -1  -4   1 1247.08   40.00
  -1  -4   1 1270.67   39.50
   0   4  -1  347.97   13.10
   0   4  -1  360.96   12.60
   0   4  -1  367.36   13.10
   0   4  -1  375.96   13.40
   0  -4   1  337.97   12.70
   0  -4   1  326.77   12.90
   0  -4   1  332.37   12.90
   0  -4   1  347.97   12.70
   0  -4   1  353.76   14.00
   0  -4   1  365.06   13.70
   0  -4   1  358.16   12.70
  -1   4  -1 1831.12   54.09
  -1   4  -1 1595.54   54.49
  -1   4  -1 1809.32   53.89
  -1   4  -1 1768.52   54.29
  -1   4  -1 1756.82   53.39
   1  -4   1 1788.22   52.39
   1  -4   1 1819.92   52.69
   1  -4   1 1766.12   52.79
   1  -4   1 1760.42   53.59
   1  -4   1 1766.02   53.99
   1  -4   1 1732.23   53.69
   1  -4   1 1713.23   52.99
   1  -4   1 1785.62   53.39
  -2   4  -1 3999.20  113.09
  -2   4  -1 3790.12  114.99
  -2   4  -1 3919.41  115.99
  -2   4  -1 4012.90  114.09
  -2   4  -1 3956.50  115.59
  -2   4  -1 3723.03  112.99
   2  -4   1 3936.01  112.79
   2  -4   1 3780.62  112.99
   2  -4   1 3892.81  115.09
   2  -4   1 3855.61  113.19
   2  -4   1 3856.61  114.09
   2  -4   1 4056.39  114.89
  -3   4  -1 1453.75   44.30
  -3   4  -1 1509.55   45.20
  -3   4  -1 1492.25   47.80
  -3   4  -1 1496.85   47.30
   3  -4   1 1479.95   44.30
   3  -4   1 1543.35   44.80
   3  -4   1 1502.65   47.00
   3  -4   1 1459.55   44.00
  -4   4  -1  451.05   15.60
  -4   4  -1  471.15   16.20
  -4   4  -1  476.35   18.60
  -4   4  -1  453.15   17.70
   4  -4   1  454.95   14.90
   4  -4   1  457.55   17.80
  -5   4  -1  305.57   14.70
  -5   4  -1  285.97   10.80
  -5   4  -1  327.57   12.50
  -5   4  -1  311.97   11.40
  -5   4  -1  318.47   13.60
   5  -4   1  336.27   16.30
  -6   4  -1  351.66   12.90
  -6   4  -1  365.26   13.40
  -6   4  -1  353.96   15.40
  -6   4  -1  388.86   14.80
   6  -4   1  354.86   13.00
   6  -4   1  366.86   16.10
  -7   4  -1   65.69    4.30
  -7   4  -1   73.39    5.80
  -7   4  -1   70.49    6.20
  -7   4  -1   62.49    6.10
   7  -4   1   65.89    6.30
   7  -4   1   73.29    5.80
  -8   4  -1   22.00    2.60
  -8   4  -1   26.60    3.50
  -8   4  -1   23.00    4.10
   8  -4   1   23.70    3.60
   8  -4   1   15.70    3.80
  -9   4  -1  176.88   10.50
  -9   4  -1  188.88   12.50
  -9   4  -1  183.48    9.10
   9  -4   1  182.98   14.90
   9  -4   1  177.48   12.10
 -10   4  -1   66.59    8.20
 -10   4  -1   58.79    6.30
 -10   4  -1   73.09    5.80
  10  -4   1   60.99    6.80
  10  -4   1   73.09    7.40
 -11   4  -1   10.00    3.20
 -11   4  -1   17.30    4.90
  11  -4   1   12.70    3.30
  10   3  -1   65.19    4.80
  10   3  -1   64.69    7.30
 -10  -3   1   65.79    6.80
 -10  -3   1   61.49    6.60
   9   3  -1    6.50    1.90
   9   3  -1    8.90    1.90
  -9  -3   1    9.10    3.00
  -9  -3   1   10.60    2.50
  -9  -3   1    9.00    2.90
   8   3  -1    0.20    1.00
   8   3  -1   -0.20    1.10
  -8  -3   1    1.70    1.40
  -8  -3   1    1.80    1.30
   7   3  -1    7.10    1.70
   7   3  -1    9.30    2.00
  -7  -3   1    9.70    2.20
  -7  -3   1    6.90    2.20
  -7  -3   1    9.60    2.20
   6   3  -1   84.29    4.80
   6   3  -1   94.19    7.80
  -6  -3   1   79.09    6.30
  -6  -3   1   85.59    6.50
   5   3  -1  303.37   11.10
   5   3  -1  293.67   12.00
  -5  -3   1  292.37   13.50
   4   3  -1   -0.50    0.50
  -4  -3   1    0.40    0.60
  -4  -3   1    0.20    0.50
   3   3  -1   51.19    2.70
   3   3  -1   51.69    3.50
   3   3  -1   45.10    3.60
  -3  -3   1   53.19    3.90
  -3  -3   1   53.39    4.20
  -3  -3   1   46.90    2.80
   2   3  -1 1399.06   42.40
   2   3  -1 1395.76   42.50
   2   3  -1 1324.27   40.90
   2   3  -1 1398.36   40.70
   2   3  -1 1331.97   42.40
   2   3  -1 1369.66   43.20
  -2  -3   1 1398.66   43.00
  -2  -3   1 1421.06   41.70
  -2  -3   1 1404.16   40.80
  -2  -3   1 1354.16   43.30
   1   3  -1    3.90    1.00
   1   3  -1    4.20    1.00
   1   3  -1    3.60    0.80
   1   3  -1    5.30    1.30
   1   3  -1    1.90    0.80
  -1  -3   1    3.40    0.80
  -1  -3   1    3.10    0.90
  -1  -3   1    3.40    0.90
  -1  -3   1    4.20    0.50
  -1  -3   1    2.60    0.80
  -1  -3   1    4.50    1.00
  -1  -3   1    4.70    1.20
  -1  -3   1    3.60    0.70
   0   3  -1  723.13   23.10
   0   3  -1  688.83   23.30
   0   3  -1  775.62   23.30
   0   3  -1  759.82   23.30
   0   3  -1  730.53   22.80
   0  -3   1  746.73   23.70
   0  -3   1  707.53   22.90
   0  -3   1  751.52   22.60
   0  -3   1  677.53   22.80
   0  -3   1  701.43   23.30
   0  -3   1  750.52   23.00
   0  -3   1  730.73   23.20
  -1   3  -1  656.13   19.90
  -1   3  -1  617.24   21.00
  -1   3  -1  626.14   20.70
  -1   3  -1  648.74   21.40
  -1   3  -1  664.83   20.50
   1  -3   1  627.24   20.80
   1  -3   1  636.14   20.30
   1  -3   1  645.64   19.70
   1  -3   1  653.83   20.00
   1  -3   1  646.14   20.70
  -2   3  -1 1786.82   52.29
  -2   3  -1 1821.92   53.69
  -2   3  -1 1740.23   53.29
  -2   3  -1 1619.64   54.59
  -2   3  -1 1783.72   51.39
  -2   3  -1 1812.02   54.09
  -2   3  -1 1785.52   51.39
   2  -3   1 1762.32   51.19
   2  -3   1 1786.52   51.59
   2  -3   1 1705.53   53.59
   2  -3   1 1746.03   54.69
   2  -3   1 1797.12   51.99
   2  -3   1 1730.83   53.49
   2  -3   1 1762.92   51.89
  -3   3  -1 2451.15   72.89
  -3   3  -1 2378.76   73.39
  -3   3  -1 2367.46   70.79
  -3   3  -1 2364.96   70.09
  -3   3  -1 2455.15   71.49
   3  -3   1 2417.86   70.19
   3  -3   1 2438.36   72.89
   3  -3   1 2439.86   70.99
  -4   3  -1  667.13   21.10
  -4   3  -1  656.83   23.00
  -4   3  -1  644.54   22.10
  -4   3  -1  623.94   20.10
  -4   3  -1  608.04   19.50
   4  -3   1  614.24   22.20
   4  -3   1  595.14   19.70
  -5   3  -1 1134.59   38.00
  -5   3  -1 1146.09   36.70
  -5   3  -1 1046.20   33.90
  -5   3  -1 1167.28   35.80
   5  -3   1 1084.29   34.60
   5  -3   1 1135.29   37.30
  -6   3  -1  681.63   24.00
  -6   3  -1  684.13   24.20
  -6   3  -1  669.43   21.80
   6  -3   1  666.13   27.20
  -7   3  -1   78.39    5.60
  -7   3  -1   81.49    6.70
   7  -3   1   76.49    6.00
   7  -3   1   73.79    6.50
  -8   3  -1   17.20    2.70
  -8   3  -1   17.90    2.10
  -8   3  -1   20.80    3.50
   8  -3   1   23.90    3.70
   8  -3   1   14.10    2.70
  -9   3  -1  119.69    9.20
  -9   3  -1   99.29    7.80
  -9   3  -1  122.79    6.30
   9  -3   1  132.09    9.60
   9  -3   1  127.99    9.00
 -10   3  -1   32.00    5.90
 -10   3  -1   23.30    4.20
 -10   3  -1   29.60    4.50
  10  -3   1   26.40    4.90
  10  -3   1   24.70    4.60
 -11   3  -1   -1.70    1.90
 -11   3  -1    6.40    3.40
  11  -3   1    1.90    3.80
  11  -3   1    2.30    2.10
  11   2  -1  152.58    9.70
 -11  -2   1  154.58   11.30
 -11  -2   1  171.98   11.20
  10   2  -1   36.00    4.60
 -10  -2   1   47.20    5.60
 -10  -2   1   40.50    5.20
   9   2  -1    4.20    2.40
   9   2  -1    5.90    1.60
   9   2  -1    5.90    1.70
  -9  -2   1    3.40    1.90
  -9  -2   1    5.70    2.40
  -9  -2   1    1.40    1.90
   8   2  -1  202.08    9.20
   8   2  -1  204.38    9.50
   8   2  -1  192.08    8.80
  -8  -2   1  193.38   11.10
  -8  -2   1  200.18   10.40
  -8  -2   1  189.28   11.20
   7   2  -1  102.49    5.80
   7   2  -1  101.99    5.80
   7   2  -1  100.79    5.70
  -7  -2   1  106.49    6.10
  -7  -2   1   98.59    7.00
  -7  -2   1   99.09    7.20
   6   2  -1   51.19    3.40
   6   2  -1   54.99    3.70
   6   2  -1   49.10    3.60
   6   2  -1   51.99    3.70
  -6  -2   1   52.19    4.70
  -6  -2   1   47.70    4.50
   5   2  -1  207.38    8.40
   5   2  -1  220.48    8.50
   5   2  -1  204.88    8.80
  -5  -2   1  213.88   10.30
   4   2  -1   28.20    2.30
   4   2  -1   28.70    2.10
  -4  -2   1   31.40    3.00
  -4  -2   1   28.50    2.50
  -4  -2   1   30.20    3.00
   3   2  -1  545.25   17.80
   3   2  -1  549.25   16.80
  -3  -2   1  531.55   18.80
  -3  -2   1  521.35   17.80
  -3  -2   1  524.05   18.90
  -3  -2   1  536.95   17.20
   2   2  -1 1421.46   40.70
   2   2  -1 1400.96   42.80
   2   2  -1 1353.66   41.90
   2   2  -1 1328.77   42.00
  -2  -2   1 1384.36   42.20
  -2  -2   1 1388.46   42.40
  -2  -2   1 1404.56   42.90
  -2  -2   1 1417.06   42.70
  -2  -2   1 1357.16   42.80
  -2  -2   1 1439.96   40.90
   1   2  -1 1008.10   30.80
   1   2  -1  993.00   30.40
   1   2  -1  971.10   29.80
   1   2  -1  998.10   30.60
   1   2  -1 1011.20   31.00
  -1  -2   1  970.00   29.70
  -1  -2   1 1044.30   30.70
  -1  -2   1 1022.70   29.40
  -1  -2   1  997.40   30.90
  -1  -2   1 1025.00   31.30
  -1  -2   1 1035.20   30.40
  -1  -2   1 1022.60   30.50
   0   2  -1 1143.99   33.50
   0   2  -1 1112.69   33.20
   0   2  -1 1065.29   33.00
   0   2  -1 1047.20   32.90
   0   2  -1 1091.89   32.90
   0  -2   1 1092.59   32.70
   0  -2   1 1103.39   33.00
   0  -2   1 1069.89   32.80
   0  -2   1 1103.99   33.40
   0  -2   1 1124.59   32.90
   0  -2   1 1156.98   33.30
   0  -2   1 1127.59   33.20
  -1   2  -1  532.15   17.70
  -1   2  -1  547.75   16.30
  -1   2  -1  530.85   17.10
  -1   2  -1  539.45   17.40
  -1   2  -1  528.75   16.00
  -1   2  -1  507.95   16.80
  -1   2  -1  557.04   17.10
   1  -2   1  585.74   16.30
   1  -2   1  520.05   16.00
   1  -2   1  529.55   17.30
   1  -2   1  542.85   16.60
   1  -2   1  549.15   17.20
   1  -2   1  551.14   17.20
   1  -2   1  531.45   17.50
   1  -2   1  528.65   16.30
   1  -2   1  556.14   16.70
  -2   2  -1  999.30   27.00
  -2   2  -1  927.71   27.70
  -2   2  -1  893.21   28.70
  -2   2  -1  917.01   29.00
  -2   2  -1  969.30   28.20
  -2   2  -1  933.51   29.20
  -2   2  -1  872.61   26.90
   2  -2   1  906.01   28.90
   2  -2   1  957.00   28.00
   2  -2   1  880.31   28.80
   2  -2   1  905.31   27.10
   2  -2   1  909.71   28.90
  -3   2  -1  284.27    9.60
  -3   2  -1  326.87    9.70
  -3   2  -1  288.37   11.50
  -3   2  -1  318.87   11.60
  -3   2  -1  290.87   11.30
  -3   2  -1  306.37   11.90
   3  -2   1  309.67   10.70
   3  -2   1  284.77   11.20
   3  -2   1  302.47   11.50
   3  -2   1  282.97   11.20
   3  -2   1  283.97    9.80
   3  -2   1  300.77    9.70
  -4   2  -1  286.27    9.30
  -4   2  -1  260.27   10.60
  -4   2  -1  244.58    9.30
  -4   2  -1  282.67   11.60
  -4   2  -1  283.27   10.50
   4  -2   1  270.67   11.20
   4  -2   1  265.87    9.60
   4  -2   1  261.07    9.60
  -5   2  -1 1932.81   55.79
  -5   2  -1 1890.91   58.89
  -5   2  -1 1939.31   57.49
   5  -2   1 1765.02   56.39
   5  -2   1 1879.41   58.99
   5  -2   1 1817.92   58.09
  -6   2  -1  798.52   25.50
  -6   2  -1  795.52   27.20
  -6   2  -1  808.52   28.60
   6  -2   1  776.32   27.70
   6  -2   1  782.42   32.40
  -7   2  -1  421.96   15.30
  -7   2  -1  420.66   18.10
  -7   2  -1  405.56   16.90
   7  -2   1  425.46   18.20
   7  -2   1  433.36   17.50
  -8   2  -1  239.88   12.60
  -8   2  -1  274.67   13.90
  -8   2  -1  276.07   11.30
   8  -2   1  259.67   13.50
   8  -2   1  272.87   13.20
  -9   2  -1   94.29    7.60
  -9   2  -1   99.59    8.00
  -9   2  -1  107.79    6.50
   9  -2   1  108.59    7.70
   9  -2   1  107.99    8.30
 -10   2  -1    3.30    1.90
 -10   2  -1    5.10    2.80
 -10   2  -1    1.40    2.00
  10  -2   1    4.30    2.50
  10  -2   1    1.10    2.20
 -11   2  -1   -0.80    2.10
 -11   2  -1    5.00    5.00
  11  -2   1    0.30    2.30
  11  -2   1    0.80    3.40
  11   1  -1    9.50    6.20
  11   1  -1   12.10    3.30
 -11  -1   1   16.20    3.50
 -11  -1   1   16.60    3.60
 -11  -1   1   11.80    6.40
  10   1  -1   75.79    6.30
  10   1  -1   82.29    6.50
 -10  -1   1   75.99    7.20
 -10  -1   1   85.09    7.00
 -10  -1   1   78.29    6.90
   9   1  -1  237.68    9.80
   9   1  -1  239.58   11.50
   9   1  -1  255.67   11.90
  -9  -1   1  233.78   14.90
  -9  -1   1  247.78   12.50
  -9  -1   1  258.07   12.70
   8   1  -1  222.78    9.30
   8   1  -1  236.68   10.80
   8   1  -1  223.88   11.30
  -8  -1   1  226.38   11.50
  -8  -1   1  227.28   13.40
  -8  -1   1  215.18   11.80
   7   1  -1   77.89    4.40
   7   1  -1   81.59    5.60
   7   1  -1   83.89    5.40
  -7  -1   1   77.79    6.10
  -7  -1   1   78.09    5.70
  -7  -1   1   74.29    5.40
   6   1  -1   31.50    2.90
   6   1  -1   35.40    2.70
  -6  -1   1   31.20    4.10
  -6  -1   1   28.40    3.00
  -6  -1   1   31.80    3.30
   5   1  -1   11.50    1.70
   5   1  -1   15.40    1.40
  -5  -1   1   11.20    1.80
  -5  -1   1   13.50    2.10
   4   1  -1  206.08    8.00
   4   1  -1  204.48    8.00
   4   1  -1  207.08    7.90
  -4  -1   1  207.68    9.10
  -4  -1   1  203.88    8.50
  -4  -1   1  203.68    7.80
  -4  -1   1  192.58    8.80
   3   1  -1  536.15   17.40
   3   1  -1  543.35   17.30
  -3  -1   1  557.04   19.00
  -3  -1   1  522.85   18.40
  -3  -1   1  553.04   17.60
  -3  -1   1  564.14   18.60
  -3  -1   1  531.15   17.30
  -3  -1   1  535.85   18.10
   2   1  -1  165.08    5.50
   2   1  -1  166.48    5.70
   2   1  -1  159.08    6.10
   2   1  -1  160.28    6.30
   2   1  -1  168.28    6.80
   2   1  -1  162.68    6.10
  -2  -1   1  166.28    5.80
  -2  -1   1  166.18    6.40
  -2  -1   1  164.98    6.70
  -2  -1   1  163.28    6.60
  -2  -1   1  163.28    6.30
  -2  -1   1  157.38    6.00
   1   1  -1 1179.08   35.10
   1   1  -1 1154.38   35.40
   1   1  -1 1153.78   35.00
   1   1  -1 1252.47   34.40
   1   1  -1 1212.68   35.20
  -1  -1   1 1188.88   34.30
  -1  -1   1 1184.98   35.10
  -1  -1   1 1197.48   35.40
  -1  -1   1 1156.48   34.90
   0   1  -1  953.50   28.30
   0   1  -1  946.61   27.70
   0   1  -1  962.60   27.90
   0   1  -1  926.51   27.70
   0   1  -1  929.91   28.00
   0   1  -1 1000.00   28.20
   0  -1   1  951.40   28.30
  -1   1  -1   66.19    2.40
  -1   1  -1   60.79    2.80
  -1   1  -1   65.09    2.70
  -1   1  -1   58.29    2.90
  -1   1  -1   59.29    3.00
  -1   1  -1   59.29    2.80
   1  -1   1   58.79    2.80
   1  -1   1   62.29    2.40
   1  -1   1   64.69    2.70
   1  -1   1   61.19    2.80
   1  -1   1   56.99    2.90
   1  -1   1   56.19    2.80
  -2   1  -1    8.40    1.20
  -2   1  -1    8.60    0.80
  -2   1  -1   10.90    1.10
  -2   1  -1   10.80    0.90
  -2   1  -1    9.40    1.20
   2  -1   1   11.10    1.10
   2  -1   1    8.00    1.00
   2  -1   1    7.20    1.00
   2  -1   1    8.30    1.10
   2  -1   1    8.40    1.30
   2  -1   1   11.00    0.80
  -3   1  -1  251.07    9.10
  -3   1  -1  236.48    9.30
  -3   1  -1  219.78    8.30
  -3   1  -1  247.28    8.50
   3  -1   1  238.78    9.70
   3  -1   1  227.98    8.60
   3  -1   1  240.48    9.20
   3  -1   1  235.38    9.00
   3  -1   1  232.58    9.20
  -4   1  -1 1262.47   40.90
  -4   1  -1 1407.86   41.90
  -4   1  -1 1398.46   41.10
  -4   1  -1 1364.56   42.30
   4  -1   1 1290.37   41.60
   4  -1   1 1335.77   42.10
   4  -1   1 1412.46   42.80
   4  -1   1 1318.07   41.40
  -5   1  -1 1134.89   34.30
  -5   1  -1 1096.99   35.60
  -5   1  -1 1058.39   35.10
   5  -1   1 1039.80   35.20
   5  -1   1 1108.99   35.90
  -6   1  -1  705.03   26.90
  -6   1  -1  714.43   25.80
  -6   1  -1  758.52   24.60
   6  -1   1  701.43   25.30
   6  -1   1  741.33   26.10
  -7   1  -1  518.75   20.70
  -7   1  -1  502.65   20.30
  -7   1  -1  537.65   19.50
   7  -1   1  549.05   21.00
   7  -1   1  541.95   20.50
  -8   1  -1  452.65   17.90
  -8   1  -1  434.16   19.10
  -8   1  -1  403.96   18.20
   8  -1   1  441.76   18.20
   8  -1   1  454.25   18.70
  -9   1  -1  181.58    9.50
  -9   1  -1  174.78   10.40
  -9   1  -1  162.48   11.20
   9  -1   1  170.68   10.10
   9  -1   1  192.48   10.90
 -10   1  -1   60.79    6.30
 -10   1  -1   63.69    5.50
 -10   1  -1   52.49    5.90
  10  -1   1   55.19    6.20
  10  -1   1   66.39    6.40
 -11   1  -1   62.39    7.70
 -11   1  -1   82.39    8.10
 -11   1  -1   77.19    7.30
  11  -1   1   75.49    6.90
  11  -1   1   81.89    8.00
  11   0  -1    8.90    3.10
  11   0  -1    9.90    3.80
 -11   0   1    5.50    2.50
 -11   0   1   11.70    3.30
 -11   0   1    4.70    3.50
  10   0  -1   66.49    6.20
  10   0  -1   61.99    6.50
 -10   0   1   70.49    6.10
 -10   0   1   71.89    6.60
   9   0  -1  341.07   15.20
   9   0  -1  356.26   16.00
  -9   0   1  306.97   15.70
  -9   0   1  343.77   16.00
  -9   0   1  353.86   15.10
   8   0  -1  248.98   11.50
   8   0  -1  241.68   12.30
   8   0  -1  226.98    8.90
  -8   0   1  224.38   12.10
  -8   0   1  230.38   11.90
  -8   0   1  245.08   11.40
   7   0  -1    0.50    0.70
   7   0  -1    1.00    0.80
  -7   0   1    0.60    0.90
  -7   0   1    1.30    1.10
  -7   0   1    1.10    1.00
   6   0  -1  101.19    5.20
   6   0  -1  103.39    5.90
   6   0  -1   91.89    4.90
  -6   0   1   97.09    5.70
  -6   0   1   93.29    5.90
   5   0  -1  188.28    7.10
   5   0  -1  163.58    8.90
   5   0  -1  189.38    8.20
   5   0  -1  182.48    8.20
  -5   0   1  181.98    8.20
  -5   0   1  195.68    8.60
  -5   0   1  162.18    8.10
  -5   0   1  184.58    8.60
   4   0  -1   73.59    4.20
   4   0  -1   73.89    4.20
   4   0  -1   72.39    4.10
   4   0  -1   73.89    3.50
   4   0  -1   76.59    3.80
  -4   0   1   71.69    4.20
  -4   0   1   78.99    4.40
  -4   0   1   84.19    4.70
  -4   0   1   79.69    3.70
  -4   0   1   76.29    4.30
   3   0  -1  226.28    8.50
   3   0  -1  241.48    9.80
   3   0  -1  223.98    8.00
   3   0  -1  230.48    8.70
   3   0  -1  238.48    8.80
   3   0  -1  227.78    7.90
  -3   0   1  240.88    8.20
  -3   0   1  248.98    9.00
  -3   0   1  234.98    8.80
  -3   0   1  228.08    8.70
  -3   0   1  229.18    8.00
   2   0  -1  349.67   10.50
   2   0  -1  326.77   10.90
   2   0  -1  328.87   10.80
   2   0  -1  326.37   10.90
   2   0  -1  316.67   10.40
   2   0  -1  335.07   11.10
  -2   0   1  330.37   10.90
  -2   0   1  331.97   10.40
  -2   0   1  346.67   11.10
  -2   0   1  326.67   10.50
  -2   0   1  327.17   10.90
   1   0  -1 1461.85   42.70
   1   0  -1 1461.05   42.30
  -1   0   1 1427.76   42.70
  -1   0   1 1473.95   42.50
  -1   0   1 1507.75   42.70
  -1   0  -1 2139.29   58.99
  -1   0  -1 1946.91   58.89
  -1   0  -1 1997.00   58.49
  -1   0  -1 2085.59   58.39
  -1   0  -1 2017.40   58.99
  -1   0  -1 2091.19   58.99
   1   0   1 1995.70   58.89
   1   0   1 1976.00   58.79
   1   0   1 2028.10   58.99
   1   0   1 1884.81   58.39
   1   0   1 2086.39   58.99
  -2   0  -1    1.70    0.50
  -2   0  -1    2.70    0.70
  -2   0  -1    2.90    0.70
  -2   0  -1    2.30    0.60
  -2   0  -1    2.30    0.40
   2   0   1    2.90    0.70
   2   0   1    3.00    0.40
   2   0   1    2.60    0.70
   2   0   1    1.60    0.50
   2   0   1    3.10    0.70
   2   0   1    2.40    0.50
  -3   0  -1  266.27   10.00
  -3   0  -1  260.87    8.80
  -3   0  -1  266.37   10.00
  -3   0  -1  257.87    9.40
  -3   0  -1  256.97   10.50
  -3   0  -1  249.88    9.90
   3   0   1  255.57    8.50
   3   0   1  253.57    9.60
   3   0   1  256.77    9.60
   3   0   1  250.47    9.80
  -4   0  -1 1804.92   54.39
  -4   0  -1 1772.32   53.19
  -4   0  -1 1840.42   54.79
  -4   0  -1 1814.32   55.19
   4   0   1 1816.22   54.69
   4   0   1 1761.82   54.59
   4   0   1 1762.32   54.09
   4   0   1 1809.12   52.79
  -5   0  -1  193.78    8.80
  -5   0  -1  195.58    8.70
  -5   0  -1  196.78    9.30
   5   0   1  190.38    8.80
   5   0   1  191.58    8.80
   5   0   1  201.58    7.10
  -6   0  -1  249.48    9.40
  -6   0  -1  247.48   11.70
  -6   0  -1  257.57   11.20
   6   0   1  265.87   11.40
   6   0   1  245.08   11.10
   6   0   1  265.67    9.20
  -7   0  -1  430.56   15.20
  -7   0  -1  446.66   17.60
  -7   0  -1  465.55   18.30
  -7   0  -1  423.36   18.20
   7   0   1  444.36   17.60
   7   0   1  455.05   17.60
   7   0   1  451.35   14.60
  -8   0  -1  711.43   28.30
  -8   0  -1  746.93   28.30
  -8   0  -1  764.72   27.70
   8   0   1  801.32   27.80
   8   0   1  790.32   28.00
  -9   0  -1  140.89   11.10
  -9   0  -1  119.99    8.10
  -9   0  -1  116.79    8.60
   9   0   1  132.49    8.30
   9   0   1  121.39    8.10
 -10   0  -1  129.39    9.60
 -10   0  -1  141.89    9.10
  10   0   1  137.19    9.20
  10   0   1  131.09    8.80
 -11   0  -1  188.48   12.80
 -11   0  -1  213.38   12.20
  11   0   1  213.58   11.90
  11   0   1  219.18   13.80
  11  -1  -1  135.99    9.40
  11  -1  -1  138.79   11.40
 -11   1   1  120.89    9.30
 -11   1   1  129.49    8.70
 -11   1   1  147.59   12.50
  10  -1  -1  112.79    9.00
  10  -1  -1  110.59    8.90
 -10   1   1  122.79    9.10
 -10   1   1  110.79    7.10
 -10   1   1  110.99    8.10
   9  -1  -1  216.88   12.50
   9  -1  -1  243.88   12.20
  -9   1   1  206.38   11.60
  -9   1   1  233.58   12.70
  -9   1   1  236.28   10.80
   8  -1  -1  118.19    7.30
  -8   1   1  105.59    6.30
  -8   1   1  118.89    8.10
  -8   1   1  101.99    7.10
   7  -1  -1   82.29    6.60
  -7   1   1   85.69    6.30
  -7   1   1   70.99    6.80
  -7   1   1   79.59    4.80
   6  -1  -1  880.61   30.20
   6  -1  -1  866.81   29.50
   6  -1  -1  897.81   28.00
  -6   1   1  931.71   31.00
  -6   1   1  894.91   28.70
  -6   1   1  875.41   28.80
  -6   1   1  887.91   29.80
   5  -1  -1  532.65   17.20
   5  -1  -1  511.85   18.60
   5  -1  -1  528.15   18.90
   5  -1  -1  558.64   19.80
  -5   1   1  550.34   18.70
  -5   1   1  567.24   18.50
  -5   1   1  577.44   20.10
  -5   1   1  578.94   19.30
   4  -1  -1   36.80    2.70
   4  -1  -1   40.90    2.90
   4  -1  -1   40.50    3.20
   4  -1  -1   40.30    2.10
  -4   1   1   39.00    2.80
  -4   1   1   47.20    3.00
  -4   1   1   44.30    2.60
  -4   1   1   46.00    3.50
   3  -1  -1    0.40    0.30
   3  -1  -1    0.60    0.40
   3  -1  -1    0.30    0.30
   3  -1  -1    0.20    0.40
  -3   1   1   -0.10    0.30
  -3   1   1    0.00    0.40
  -3   1   1    0.50    0.40
  -3   1   1    0.50    0.40
  -3   1   1    0.00    0.40
  -3   1   1    0.70    0.50
   2  -1  -1  155.98    6.20
   2  -1  -1  170.48    6.00
   2  -1  -1  164.08    5.80
   2  -1  -1  157.48    6.30
   2  -1  -1  163.68    6.40
   2  -1  -1  162.48    6.60
  -2   1   1  179.48    5.70
  -2   1   1  156.88    5.80
  -2   1   1  157.28    6.30
  -2   1   1  172.28    6.60
  -2   1   1  170.98    5.40
   1  -1  -1   13.30    1.10
   1  -1  -1   12.90    1.10
   1  -1  -1   12.80    1.00
   1  -1  -1   15.40    0.90
   1  -1  -1   14.30    0.80
   1  -1  -1   14.00    1.00
  -1   1   1   14.60    0.90
  -1   1   1   13.70    1.20
  -1   1   1   13.20    1.00
  -1   1   1   15.10    1.20
  -1   1   1   13.90    1.10
  -1   1   1   12.70    1.10
   0  -1  -1   26.30    1.50
   0  -1  -1   29.50    1.70
   0  -1  -1   30.50    1.40
   0  -1  -1   31.60    1.60
   0  -1  -1   29.60    1.70
   0  -1  -1   31.10    1.40
   0  -1  -1   27.80    1.70
   0   1   1   30.00    1.40
   0   1   1   26.50    1.70
   0   1   1   29.10    1.80
   0   1   1   30.50    1.70
   0   1   1   29.90    1.50
   0   1   1   30.50    1.60
   0   1   1   31.50    1.50
  -1  -1  -1  293.37    9.90
  -1  -1  -1  302.77   10.40
  -1  -1  -1  292.57    9.50
  -1  -1  -1  317.37   10.20
   1   1   1  287.97   10.30
   1   1   1  310.37   10.30
   1   1   1  296.77    9.40
   1   1   1  307.57    9.90
   1   1   1  294.77    9.70
  -2  -1  -1  409.76   13.50
  -2  -1  -1  423.36   14.90
  -2  -1  -1  415.96   14.60
  -2  -1  -1  413.46   13.30
   2   1   1  405.66   13.10
   2   1   1  416.76   13.50
   2   1   1  408.06   14.30
   2   1   1  410.46   13.30
  -3  -1  -1  880.21   28.20
  -3  -1  -1  911.01   28.30
  -3  -1  -1  835.82   27.50
  -3  -1  -1  857.11   27.00
  -3  -1  -1  856.41   26.30
   3   1   1  866.11   26.80
   3   1   1  866.21   27.10
   3   1   1  867.31   26.60
  -4  -1  -1  534.45   18.00
  -4  -1  -1  577.64   20.00
  -4  -1  -1  556.44   19.80
  -4  -1  -1  546.95   18.40
   4   1   1  556.74   17.90
   4   1   1  562.44   18.50
   4   1   1  552.84   18.70
  -5  -1  -1    0.80    0.70
  -5  -1  -1    2.50    1.10
  -5  -1  -1    2.10    1.20
   5   1   1    2.90    0.80
   5   1   1    2.10    0.50
   5   1   1    0.60    0.60
  -6  -1  -1   60.59    4.80
  -6  -1  -1   68.69    4.10
  -6  -1  -1   61.09    5.10
   6   1   1   60.59    4.30
   6   1   1   57.39    4.10
   6   1   1   62.79    3.60
  -7  -1  -1  360.66   15.50
  -7  -1  -1  339.27   14.10
  -7  -1  -1  340.97   15.70
   7   1   1  352.76   12.60
   7   1   1  364.96   14.30
   7   1   1  364.96   14.50
  -8  -1  -1  328.77   15.20
  -8  -1  -1  334.27   13.90
  -8  -1  -1  307.37   15.60
   8   1   1  339.27   14.50
   8   1   1  351.96   14.50
  -9  -1  -1  128.79    8.80
  -9  -1  -1  117.29    8.90
  -9  -1  -1  132.89    8.10
   9   1   1  127.59    7.80
   9   1   1  119.39    7.60
 -10  -1  -1  232.18   13.80
 -10  -1  -1  237.88   13.20
  10   1   1  243.78   11.90
  10   1   1  231.18   12.10
  11  -2  -1  139.99   10.00
  11  -2  -1  152.38   11.40
 -11   2   1  150.28   11.50
 -11   2   1  131.89    9.60
 -11   2   1  150.28   11.20
  10  -2  -1  183.98   13.10
  10  -2  -1  187.18   12.20
 -10   2   1  169.88   11.50
 -10   2   1  180.98   12.30
   9  -2  -1   88.99    7.10
  -9   2   1   82.59    5.20
  -9   2   1   82.29    6.50
  -9   2   1   98.19    8.00
   8  -2  -1   65.89    5.60
   8  -2  -1   63.99    5.30
  -8   2   1   58.49    4.90
  -8   2   1   56.89    5.60
  -8   2   1   52.79    3.90
   7  -2  -1  280.17   13.20
   7  -2  -1  285.57   12.10
  -7   2   1  291.57   16.00
  -7   2   1  285.17   12.10
  -7   2   1  275.87   12.10
  -7   2   1  274.97   10.70
   6  -2  -1  341.27   15.00
   6  -2  -1  350.66   13.60
  -6   2   1  358.96   15.40
  -6   2   1  345.67   13.80
  -6   2   1  367.86   13.70
  -6   2   1  350.36   12.30
   5  -2  -1   15.80    1.90
   5  -2  -1   16.10    2.30
   5  -2  -1   15.40    1.30
  -5   2   1   15.80    2.00
  -5   2   1   19.20    2.60
  -5   2   1   17.20    1.50
  -5   2   1   19.50    2.00
   4  -2  -1   80.79    4.20
   4  -2  -1   76.19    4.90
   4  -2  -1   83.49    4.80
  -4   2   1   82.99    4.90
  -4   2   1   90.09    4.10
  -4   2   1   74.89    3.90
  -4   2   1   82.99    5.20
   3  -2  -1  828.82   27.30
   3  -2  -1  800.92   26.80
   3  -2  -1  796.92   26.90
   3  -2  -1  795.32   26.70
   3  -2  -1  830.52   25.90
   3  -2  -1  861.21   25.60
  -3   2   1  911.21   25.50
  -3   2   1  882.91   27.60
  -3   2   1  855.31   27.30
   2  -2  -1  132.39    6.70
   2  -2  -1  132.39    5.20
   2  -2  -1  121.29    6.30
   2  -2  -1  130.99    6.30
   2  -2  -1  134.09    6.40
  -2   2   1  130.19    5.90
  -2   2   1  143.99    4.50
  -2   2   1  141.09    6.10
  -2   2   1  139.19    6.10
  -2   2   1  130.39    5.30
   1  -2  -1  921.21   27.80
   1  -2  -1  900.81   27.60
   1  -2  -1  912.31   27.30
   1  -2  -1  971.60   27.40
   1  -2  -1  939.11   27.20
   1  -2  -1  868.11   27.90
   1  -2  -1  901.01   27.80
   1  -2  -1  932.81   28.20
  -1   2   1  916.01   27.80
  -1   2   1  882.01   27.70
  -1   2   1  901.81   28.30
  -1   2   1  889.81   28.20
  -1   2   1  879.11   27.90
  -1   2   1  924.91   27.30
   0  -2  -1  193.08    6.90
   0  -2  -1  177.48    7.10
   0  -2  -1  186.88    6.20
   0  -2  -1  187.18    6.40
   0  -2  -1  183.48    7.00
   0  -2  -1  183.08    7.00
   0  -2  -1  180.08    6.60
   0  -2  -1  190.78    7.00
   0  -2  -1  193.88    6.50
   0   2   1  184.18    7.10
   0   2   1  183.08    6.80
   0   2   1  183.38    7.30
   0   2   1  180.58    6.60
   0   2   1  175.58    6.50
   0   2   1  179.28    7.00
   0   2   1  186.38    6.40
   0   2   1  191.88    6.60
  -1  -2  -1  547.35   17.50
  -1  -2  -1  546.95   17.50
  -1  -2  -1  541.85   17.10
  -1  -2  -1  532.75   16.40
  -1  -2  -1  537.85   18.90
   1   2   1  539.85   17.70
   1   2   1  532.85   17.10
   1   2   1  537.55   18.20
   1   2   1  552.24   16.20
   1   2   1  526.15   17.20
  -2  -2  -1 2095.09   63.39
  -2  -2  -1 2178.78   64.29
  -2  -2  -1 2114.89   64.69
  -2  -2  -1 2079.19   63.79
   2   2   1 2146.79   64.89
   2   2   1 2132.29   64.59
   2   2   1 2273.37   63.69
   2   2   1 2130.89   63.39
  -3  -2  -1  783.72   25.20
  -3  -2  -1  731.33   25.30
   3   2   1  735.23   23.60
   3   2   1  725.23   23.60
  -4  -2  -1   14.30    2.10
  -4  -2  -1   14.90    2.20
   4   2   1   14.20    1.70
   4   2   1   14.10    1.30
   4   2   1   15.60    1.50
  -5  -2  -1  228.78   11.10
  -5  -2  -1  230.18   11.20
   5   2   1  252.07    9.90
   5   2   1  234.48    9.40
  -6  -2  -1  691.33   26.30
  -6  -2  -1  718.33   26.40
  -6  -2  -1  737.13   23.70
   6   2   1  720.33   23.50
   6   2   1  694.73   28.40
   6   2   1  715.73   23.60
  -7  -2  -1  279.57   13.70
  -7  -2  -1  276.97   13.90
   7   2   1  292.17   11.40
   7   2   1  292.87   11.50
   7   2   1  280.17   12.10
  -8  -2  -1   34.70    4.40
  -8  -2  -1   28.60    4.20
   8   2   1   29.90    4.00
   8   2   1   38.00    3.30
   8   2   1   36.70    3.70
  -9  -2  -1  265.87   15.00
  -9  -2  -1  306.77   15.40
 -10  -2  -1  252.07   14.00
  10   2   1  236.48   12.20
  11  -3  -1  183.28   13.30
  11  -3  -1  206.98   12.80
 -11   3   1  199.88   13.70
 -11   3   1  190.88   11.70
  10  -3  -1  208.38   12.60
 -10   3   1  202.38   11.60
 -10   3   1  226.48   14.00
   9  -3  -1   27.80    4.30
   9  -3  -1   42.00    4.10
  -9   3   1   35.30    4.80
  -9   3   1   35.30    4.00
  -9   3   1   37.80    2.70
   8  -3  -1   95.49    6.20
   8  -3  -1  103.79    7.50
  -8   3   1   93.59    7.90
  -8   3   1  104.19    9.20
  -8   3   1   96.49    6.40
   7  -3  -1  567.24   20.70
   7  -3  -1  552.34   22.60
  -7   3   1  600.34   20.90
  -7   3   1  588.64   23.80
   6  -3  -1   67.19    5.40
   6  -3  -1   64.89    4.20
  -6   3   1   66.99    4.20
  -6   3   1   64.49    3.10
  -6   3   1   62.39    5.50
  -6   3   1   62.79    4.90
   5  -3  -1  146.79    8.20
   5  -3  -1  149.49    6.80
   5  -3  -1  140.99    7.30
  -5   3   1  160.38    6.70
  -5   3   1  147.09    7.90
  -5   3   1  166.38    8.80
   4  -3  -1  436.76   14.40
   4  -3  -1  430.56   14.70
   4  -3  -1  433.96   13.50
   4  -3  -1  416.56   16.50
  -4   3   1  417.16   16.30
  -4   3   1  455.65   17.10
  -4   3   1  394.16   14.40
  -4   3   1  460.75   14.30
   3  -3  -1  567.84   20.20
   3  -3  -1  551.54   18.50
   3  -3  -1  588.14   17.50
   3  -3  -1  566.34   17.20
   3  -3  -1  586.14   17.80
  -3   3   1  557.84   19.80
  -3   3   1  568.54   20.20
  -3   3   1  590.24   20.40
  -3   3   1  542.05   18.50
  -3   3   1  604.84   17.60
   2  -3  -1   77.29    3.60
   2  -3  -1   73.49    4.20
   2  -3  -1   71.99    4.30
   2  -3  -1   76.69    3.10
   2  -3  -1   73.99    4.00
   2  -3  -1   74.19    4.20
   2  -3  -1   69.49    3.30
   2  -3  -1   72.89    3.70
  -2   3   1   71.09    4.40
  -2   3   1   76.29    4.50
  -2   3   1   71.49    3.20
  -2   3   1   75.59    3.30
  -2   3   1   73.29    4.40
  -2   3   1   73.29    3.80
   1  -3  -1    1.30    0.60
   1  -3  -1    1.90    0.60
   1  -3  -1    1.90    0.50
   1  -3  -1    1.80    0.50
   1  -3  -1    1.10    0.40
   1  -3  -1    1.70    0.70
   1  -3  -1    2.80    0.90
  -1   3   1    1.70    0.70
  -1   3   1    1.90    0.80
  -1   3   1    2.10    0.60
  -1   3   1    1.60    0.60
   0  -3  -1    1.50    0.70
   0  -3  -1    1.90    0.50
   0  -3  -1    0.90    0.50
   0  -3  -1    2.00    0.60
   0  -3  -1    1.00    0.60
   0  -3  -1    2.20    0.50
   0  -3  -1    1.70    0.60
   0  -3  -1    1.40    0.60
   0  -3  -1    0.70    0.60
   0   3   1    2.20    0.60
   0   3   1    2.10    0.70
   0   3   1    1.60    0.60
   0   3   1    1.00    0.60
   0   3   1    0.90    0.50
   0   3   1    1.20    0.60
  -1  -3  -1   23.70    1.80
  -1  -3  -1   20.50    2.10
  -1  -3  -1   24.10    2.10
  -1  -3  -1   23.70    2.30
   1   3   1   25.00    2.20
   1   3   1   20.60    1.90
   1   3   1   21.20    2.40
   1   3   1   25.50    2.00
  -2  -3  -1  303.77   11.30
  -2  -3  -1  287.57   11.80
   2   3   1  274.87   11.80
   2   3   1  269.07   10.60
   2   3   1  287.07   10.50
  -3  -3  -1  378.56   14.50
  -3  -3  -1  358.16   14.80
   3   3   1  378.06   13.20
   3   3   1  351.36   13.30
   3   3   1  361.76   15.00
  -4  -3  -1   42.60    4.00
  -4  -3  -1   45.10    3.90
   4   3   1   42.30    3.10
   4   3   1   48.80    3.40
   4   3   1   46.70    4.40
  -5  -3  -1  321.57   14.70
  -5  -3  -1  324.47   14.40
   5   3   1  331.67   13.80
  -6  -3  -1  282.77   13.90
  -6  -3  -1  293.47   14.10
   6   3   1  289.17   12.10
   6   3   1  318.87   14.80
  -7  -3  -1   60.09    5.80
  -7  -3  -1   59.29    5.80
   7   3   1   57.19    4.50
   7   3   1   57.79    4.20
  -8  -3  -1   10.50    2.60
  -8  -3  -1   10.60    2.80
   8   3   1   14.20    2.10
   8   3   1    9.40    2.10
  -9  -3  -1  165.48   11.00
  -9  -3  -1  178.48   11.30
   9   3   1  154.48    9.10
  11  -4  -1  219.98   15.00
  11  -4  -1  234.08   14.10
 -11   4   1  225.08   15.30
 -11   4   1  223.18   12.80
  10  -4  -1  267.87   14.90
 -10   4   1  267.67   16.40
 -10   4   1  248.48   13.00
   9  -4  -1   79.99    7.10
   9  -4  -1   80.89    5.80
  -9   4   1   84.09    6.50
  -9   4   1   77.59    6.10
  -9   4   1   74.99    8.00
   8  -4  -1  201.58   10.20
   8  -4  -1  217.48   11.90
  -8   4   1  211.08   11.30
  -8   4   1  216.68   13.10
   7  -4  -1  598.24   21.50
   7  -4  -1  602.24   24.30
  -7   4   1  619.24   21.60
  -7   4   1  616.84   25.30
  -7   4   1  600.34   23.80
   6  -4  -1    3.50    0.90
   6  -4  -1    3.90    1.50
  -6   4   1    4.10    1.50
  -6   4   1    4.30    1.10
  -6   4   1    4.70    1.70
   5  -4  -1  180.48    7.20
   5  -4  -1  189.38    7.70
  -5   4   1  196.58    8.60
  -5   4   1  193.08   10.00
   4  -4  -1  744.13   22.80
   4  -4  -1  746.13   26.40
   4  -4  -1  747.43   23.10
   4  -4  -1  728.63   23.70
  -4   4   1  729.93   26.70
  -4   4   1  724.13   25.80
  -4   4   1  725.73   26.20
  -4   4   1  765.72   22.90
   3  -4  -1  114.49    5.40
   3  -4  -1  123.19    5.20
   3  -4  -1  113.49    6.60
   3  -4  -1  115.19    4.80
  -3   4   1  116.09    4.80
  -3   4   1  120.19    6.70
  -3   4   1   99.49    6.10
  -3   4   1  118.09    6.80
  -3   4   1  127.19    7.00
   2  -4  -1   27.00    2.40
   2  -4  -1   28.50    1.90
   2  -4  -1   27.10    2.20
  -2   4   1   26.80    2.80
  -2   4   1   27.80    2.10
  -2   4   1   28.10    2.90
  -2   4   1   27.00    2.00
  -2   4   1   27.00    2.80
   1  -4  -1  202.08    7.00
   1  -4  -1  189.28    8.20
   1  -4  -1  198.28    8.40
   1  -4  -1  201.38    9.00
   1  -4  -1  193.08    8.10
   1  -4  -1  199.88    7.70
  -1   4   1  197.98    9.00
  -1   4   1  194.18    9.10
  -1   4   1  198.88    8.30
  -1   4   1  201.18    8.80
  -1   4   1  198.18    7.70
   0  -4  -1  136.59    5.90
   0  -4  -1  133.49    6.40
   0  -4  -1  135.99    5.70
   0  -4  -1  136.69    5.30
   0  -4  -1  127.69    6.40
   0   4   1  130.69    6.10
   0   4   1  134.79    6.70
   0   4   1  132.39    5.90
   0   4   1  126.39    5.90
   0   4   1  131.19    7.00
  -1  -4  -1   22.90    1.60
  -1  -4  -1   22.00    2.10
  -1  -4  -1   23.30    2.50
  -1  -4  -1   18.20    2.30
   1   4   1   21.70    2.00
   1   4   1   23.10    2.10
   1   4   1   21.50    2.60
   1   4   1   20.80    2.10
   1   4   1   24.20    1.90
   1   4   1   21.20    2.20
  -2  -4  -1   13.20    1.80
  -2  -4  -1   13.50    2.00
   2   4   1   13.40    1.80
   2   4   1   10.60    2.30
   2   4   1   13.80    2.30
   2   4   1   11.50    1.70
  -3  -4  -1   24.00    2.70
  -3  -4  -1   24.40    2.90
   3   4   1   20.40    2.30
   3   4   1   22.60    2.20
   3   4   1   24.60    3.20
  -4  -4  -1  195.18   10.40
  -4  -4  -1  184.98    9.70
   4   4   1  197.68    8.60
   4   4   1  174.68   10.00
   4   4   1  199.98   10.70
   4   4   1  196.88    8.50
  -5  -4  -1  597.94   23.90
  -5  -4  -1  595.94   23.30
   5   4   1  600.34   21.50
   5   4   1  616.64   24.60
   5   4   1  614.94   20.80
   5   4   1  611.34   21.30
  -6  -4  -1  159.28   10.10
  -6  -4  -1  157.58    9.80
   6   4   1  158.98    8.10
   6   4   1  175.18    8.50
   6   4   1  171.28    7.50
   6   4   1  163.08   10.70
  -7  -4  -1   70.19    6.50
  -7  -4  -1   79.69    7.00
   7   4   1   74.89    5.50
   7   4   1   75.69    5.40
   7   4   1   73.69    7.50
  -8  -4  -1  138.09    9.80
  -8  -4  -1  137.89    9.60
   8   4   1  128.99   10.50
   8   4   1  135.39    8.30
  -9  -4  -1   96.99    8.60
   9   4   1   99.69    7.20
   9   4   1   99.39    9.20
  11  -5  -1  106.09    9.50
  11  -5  -1   94.69   10.20
 -11   5   1  108.99   10.30
 -11   5   1   94.59    8.30
  10  -5  -1  183.18    9.80
  10  -5  -1  173.08   12.00
 -10   5   1  185.08   10.80
 -10   5   1  198.58   11.70
 -10   5   1  196.58   13.90
   9  -5  -1  537.05   24.30
  -9   5   1  560.84   23.30
  -9   5   1  540.05   21.50
  -9   5   1  573.04   26.70
   8  -5  -1  625.44   25.90
   8  -5  -1  587.34   22.50
  -8   5   1  636.54   25.00
  -8   5   1  602.54   27.00
  -8   5   1  618.64   22.60
   7  -5  -1  232.08   10.40
   7  -5  -1  237.28   13.10
  -7   5   1  230.48   10.30
  -7   5   1  237.48   13.80
  -7   5   1  245.78   12.80
   6  -5  -1  191.28    8.70
   6  -5  -1  195.28   11.10
  -6   5   1  210.58    8.70
  -6   5   1  226.28   12.50
  -6   5   1  192.18   10.90
   5  -5  -1  443.66   16.70
   5  -5  -1  480.55   16.50
  -5   5   1  480.65   19.50
   4  -5  -1  115.39   10.00
   4  -5  -1  107.39    4.60
   4  -5  -1  112.19    5.50
  -4   5   1  111.39    7.70
  -4   5   1  115.49    4.80
   3  -5  -1   38.00    2.70
   3  -5  -1   37.20    3.00
   3  -5  -1   36.60    3.00
  -3   5   1   36.80    3.90
  -3   5   1   40.30    3.90
  -3   5   1   37.60    2.50
  -3   5   1   38.70    3.80
   2  -5  -1  422.26   15.10
   2  -5  -1  384.06   14.60
   2  -5  -1  394.16   14.40
  -2   5   1  387.96   14.30
  -2   5   1  385.76   13.80
  -2   5   1  374.26   15.80
  -2   5   1  393.46   16.00
  -2   5   1  403.36   15.80
   1  -5  -1  464.55   16.30
   1  -5  -1  495.75   15.80
   1  -5  -1  479.15   17.60
   1  -5  -1  464.65   16.80
  -1   5   1  485.05   18.80
  -1   5   1  502.85   16.80
  -1   5   1  503.95   18.70
  -1   5   1  482.15   17.90
   0  -5  -1   88.59    5.50
   0  -5  -1   87.49    5.50
   0  -5  -1   90.89    5.40
   0  -5  -1   92.19    4.20
   0   5   1   85.49    5.70
   0   5   1   93.19    5.00
   0   5   1   94.69    5.30
   0   5   1   97.39    5.00
   0   5   1   85.39    6.00
  -1  -5  -1    8.30    1.90
  -1  -5  -1    9.90    1.30
   1   5   1   12.50    1.60
   1   5   1    9.40    2.30
   1   5   1    8.20    2.40
  -2  -5  -1   15.00    2.40
  -2  -5  -1   15.80    2.20
   2   5   1   17.50    2.20
   2   5   1   17.70    2.50
   2   5   1   18.40    2.20
   2   5   1   16.30    3.10
  -3  -5  -1    1.80    0.80
  -3  -5  -1    1.70    1.00
  -3  -5  -1    1.70    0.90
   3   5   1    1.20    1.00
   3   5   1    2.00    0.90
   3   5   1    0.60    0.90
   3   5   1   -0.90    1.10
  -4  -5  -1  261.77   12.60
  -4  -5  -1  262.27   13.30
   4   5   1  282.37   14.00
   4   5   1  258.77   11.10
   4   5   1  279.17   11.90
   4   5   1  271.57   11.50
  -5  -5  -1  200.28   11.00
  -5  -5  -1  194.18   11.40
   5   5   1  198.58    9.00
   5   5   1  201.98    9.70
   5   5   1  207.38    9.60
   5   5   1  198.48   11.90
  -6  -5  -1   41.50    5.00
  -6  -5  -1   51.89    5.10
   6   5   1   38.00    3.90
   6   5   1   32.30    5.50
   6   5   1   43.30    4.00
  -7  -5  -1  119.59    9.10
  -7  -5  -1  115.99    8.70
   7   5   1  119.79    7.10
   7   5   1  114.09    7.10
   7   5   1  105.99    9.40
  -8  -5  -1  210.58   13.30
  -8  -5  -1  214.28   12.80
   8   5   1  212.58   14.00
  11  -6  -1   60.89    7.00
  11  -6  -1   48.40   10.30
 -11   6   1   48.50    6.80
 -11   6   1   48.30    7.40
  10  -6  -1  121.99    7.50
  10  -6  -1  108.09   10.00
 -10   6   1  119.69    8.20
 -10   6   1  122.39   10.90
 -10   6   1  111.99    9.10
   9  -6  -1  550.44   21.20
   9  -6  -1  568.04   25.40
  -9   6   1  562.74   21.70
  -9   6   1  562.74   27.00
  -9   6   1  583.14   24.50
   8  -6  -1  327.67   14.30
   8  -6  -1  353.06   18.00
  -8   6   1  344.37   17.30
  -8   6   1  373.56   14.50
  -8   6   1  365.16   19.40
   7  -6  -1    4.50    1.60
   7  -6  -1    5.40    2.20
  -7   6   1    6.50    2.70
  -7   6   1    6.80    1.70
  -7   6   1    6.30    2.90
   6  -6  -1  534.75   19.20
   6  -6  -1  604.04   24.20
   6  -6  -1  586.24   20.50
  -6   6   1  591.74   25.20
  -6   6   1  607.64   24.20
   5  -6  -1  236.68   10.20
   5  -6  -1  232.28   12.50
  -5   6   1  235.48   13.20
  -5   6   1  280.47   13.50
  -5   6   1  263.27   12.90
   4  -6  -1   80.59    4.90
   4  -6  -1   90.09    4.40
   4  -6  -1   86.99    7.60
  -4   6   1   87.29    4.40
  -4   6   1   79.29    6.40
  -4   6   1   80.19    7.70
  -4   6   1   90.69    6.50
   3  -6  -1   58.79    4.20
  -3   6   1   63.19    5.50
  -3   6   1   58.89    3.70
  -3   6   1   59.29    5.20
  -3   6   1   59.19    5.30
   2  -6  -1   20.90    2.50
   2  -6  -1   22.60    1.90
  -2   6   1   17.00    2.80
  -2   6   1   17.10    2.80
  -2   6   1   17.30    2.70
   1  -6  -1  191.98    9.50
   1  -6  -1  178.38    8.40
  -1   6   1  181.78   10.10
  -1   6   1  187.28    9.40
  -1   6   1  197.48   10.70
  -1   6   1  185.18    8.20
   0  -6  -1    3.70    1.30
   0  -6  -1    5.20    1.70
   0  -6  -1    3.60    1.10
   0   6   1    3.30    2.00
   0   6   1    7.50    1.80
   0   6   1    5.00    1.70
  -1  -6  -1   96.49    5.70
  -1  -6  -1   98.19    7.60
  -1  -6  -1   89.39    6.30
   1   6   1  100.19    7.30
   1   6   1   99.39    6.50
   1   6   1   98.99    5.80
   1   6   1  121.49    7.70
  -2  -6  -1   57.89    5.20
  -2  -6  -1   62.09    5.20
  -2  -6  -1   57.79    5.00
   2   6   1   59.39    4.80
   2   6   1   63.79    5.80
   2   6   1   56.19    4.40
  -3  -6  -1    0.40    1.10
  -3  -6  -1    2.40    1.30
  -3  -6  -1    1.00    1.10
   3   6   1    0.20    1.30
   3   6   1    1.40    1.10
   3   6   1    1.50    1.00
   3   6   1    2.10    1.70
  -4  -6  -1  108.89    7.30
  -4  -6  -1  103.19    7.80
  -4  -6  -1  100.59    7.80
   4   6   1  107.19    8.40
   4   6   1  109.39    6.70
   4   6   1  105.49    6.40
   4   6   1   97.09    6.40
  -5  -6  -1   45.80    5.70
  -5  -6  -1   50.29    4.70
  -5  -6  -1   44.00    6.90
   5   6   1   45.70    4.50
   5   6   1   42.10    5.80
   5   6   1   43.70    4.00
   5   6   1   45.20    4.10
  -6  -6  -1   10.20    3.10
  -6  -6  -1    7.20    2.50
  -6  -6  -1    9.60    2.80
   6   6   1    6.50    2.30
   6   6   1    3.90    2.80
   6   6   1    7.70    2.70
  -7  -6  -1  137.89    9.60
  -7  -6  -1  130.49   10.20
  -7  -6  -1  137.89   10.40
   7   6   1  147.79    8.90
   7   6   1  129.39   10.70
   7   6   1  132.09    8.10
  -8  -6  -1  144.99   10.80
  -8  -6  -1  144.89   11.30
  -8  -6  -1  135.39   10.60
   8   6   1  129.29   13.50
   8   6   1  125.59    9.60
  11  -7  -1   65.29    8.20
  11  -7  -1   57.99    8.60
 -11   7   1   67.79   10.40
 -11   7   1   67.69    7.00
  10  -7  -1   71.49    7.90
 -10   7   1   78.99    8.00
 -10   7   1   62.39    6.40
 -10   7   1   78.29    8.90
   9  -7  -1  237.08   11.30
   9  -7  -1  240.58   14.80
  -9   7   1  226.98   15.80
  -9   7   1  237.38   14.30
   8  -7  -1  289.37   16.40
  -8   7   1  287.67   16.10
  -8   7   1  310.17   18.00
   7  -7  -1  339.27   14.00
   7  -7  -1  359.86   17.80
  -7   7   1  334.27   17.40
  -7   7   1  361.96   19.10
   6  -7  -1  990.30   34.40
   6  -7  -1  995.30   37.10
  -6   7   1  986.30   37.30
  -6   7   1 1012.10   38.40
   5  -7  -1  312.47   11.80
   5  -7  -1  356.16   16.70
  -5   7   1  330.17   12.00
  -5   7   1  344.47   16.20
  -5   7   1  333.47   17.10
  -5   7   1  342.67   16.80
   4  -7  -1  325.87   15.60
  -4   7   1  302.27   11.80
  -4   7   1  318.37   15.30
  -4   7   1  312.27   15.80
  -4   7   1  319.77   15.80
   3  -7  -1  186.68    9.00
  -3   7   1  172.78   10.50
  -3   7   1  185.48   10.60
  -3   7   1  140.59   13.80
   2  -7  -1  175.28    9.20
  -2   7   1  190.98   10.80
  -2   7   1  181.98   10.50
  -2   7   1  170.98   11.70
   1  -7  -1  292.67   13.40
   1  -7  -1  307.97   12.80
  -1   7   1  313.67   12.50
  -1   7   1  306.17   14.60
  -1   7   1  309.27   14.90
  -1   7   1  303.17   13.90
   0  -7  -1   22.70    3.20
   0  -7  -1   29.70    3.80
   0   7   1   30.30    4.20
   0   7   1   30.20    3.00
   0   7   1   31.50    3.30
  -1  -7  -1   81.19    5.20
  -1  -7  -1   84.39    6.40
  -1  -7  -1   80.69    6.10
   1   7   1   85.09    6.40
   1   7   1   76.69    5.30
   1   7   1   88.19    6.50
   1   7   1   81.69    7.00
  -2  -7  -1   32.70    4.10
  -2  -7  -1   42.30    4.50
   2   7   1   37.10    3.60
   2   7   1   39.00    4.20
   2   7   1   36.70    4.90
  -3  -7  -1   19.20    2.70
  -3  -7  -1   15.60    3.20
  -3  -7  -1   17.60    3.50
   3   7   1   17.00    2.80
   3   7   1   17.60    4.10
   3   7   1   17.30    3.20
  -4  -7  -1    8.70    2.40
  -4  -7  -1   14.20    3.40
  -4  -7  -1    7.90    2.30
   4   7   1   10.90    4.00
   4   7   1   10.40    2.50
   4   7   1   11.30    2.50
  -5  -7  -1   42.50    5.70
  -5  -7  -1   35.30    5.70
  -5  -7  -1   33.50    5.00
   5   7   1   36.00    5.80
   5   7   1   35.60    5.50
   5   7   1   35.70    4.00
  -6  -7  -1    2.50    1.90
  -6  -7  -1    0.90    1.40
  -6  -7  -1   -1.70    2.10
   6   7   1   -2.10    1.40
   6   7   1   -0.70    2.50
   6   7   1    2.00    2.80
  -7  -7  -1  134.59   10.80
  -7  -7  -1  135.19   10.00
  -7  -7  -1  144.69   11.20
   7   7   1  127.59    9.70
   7   7   1  149.39   13.70
  10  -8  -1   90.09    9.30
 -10   8   1   80.39    9.90
 -10   8   1   89.99    8.50
   9  -8  -1   24.20    3.60
   9  -8  -1   17.10    4.70
  -9   8   1   30.40    6.10
  -9   8   1   21.90    5.50
   8  -8  -1   48.60    6.60
   8  -8  -1   51.39    4.30
  -8   8   1   57.29    7.70
  -8   8   1   39.80    5.90
   7  -8  -1  435.76   18.20
   7  -8  -1  455.25   23.10
  -7   8   1  423.16   25.40
  -7   8   1  454.55   24.00
   6  -8  -1  511.65   18.80
   6  -8  -1  518.75   23.10
  -6   8   1  459.65   23.40
  -6   8   1  498.25   22.80
   5  -8  -1  337.77   16.80
   5  -8  -1  305.47   13.00
  -5   8   1  293.67   16.90
  -5   8   1  305.37   15.70
  -5   8   1  326.67   16.70
   4  -8  -1  303.97   15.40
   4  -8  -1  290.77   12.60
  -4   8   1  270.27   15.00
  -4   8   1  274.27   14.80
  -4   8   1  282.37   15.50
   3  -8  -1  606.84   22.70
  -3   8   1  597.64   25.10
  -3   8   1  615.24   25.30
  -3   8   1  609.04   25.60
   2  -8  -1  339.47   15.00
   2  -8  -1  336.67   14.00
  -2   8   1  331.47   16.80
  -2   8   1  344.17   17.00
  -2   8   1  383.86   18.50
   1  -8  -1    6.10    1.80
   1  -8  -1    4.70    1.70
  -1   8   1    4.30    2.00
  -1   8   1    6.80    2.30
   0  -8  -1   28.50    3.50
   0  -8  -1   24.40    3.60
   0  -8  -1   33.40    2.90
   0   8   1   26.60    3.20
   0   8   1   28.20    3.90
   0   8   1   36.60    3.70
   0   8   1   31.60    4.50
  -1  -8  -1   72.49    5.00
  -1  -8  -1   66.79    6.20
  -1  -8  -1   68.49    5.80
   1   8   1   66.79    5.30
   1   8   1   68.89    6.20
   1   8   1   69.09    4.80
   1   8   1   65.59    7.00
  -2  -8  -1    3.00    1.90
  -2  -8  -1    1.70    1.60
  -2  -8  -1    5.90    1.90
   2   8   1    5.60    1.60
   2   8   1    5.90    2.30
   2   8   1   10.50    3.10
  -3  -8  -1   -2.40    1.50
  -3  -8  -1   -1.70    1.30
  -3  -8  -1    0.70    1.40
   3   8   1   -3.50    2.00
   3   8   1   -0.60    1.20
   3   8   1   -1.80    1.70
  -4  -8  -1   80.89    7.70
  -4  -8  -1   84.59    6.80
  -4  -8  -1   85.99    7.70
   4   8   1   87.29    6.60
   4   8   1   83.89    6.30
   4   8   1   74.99    8.30
  -5  -8  -1   30.30    4.70
  -5  -8  -1   21.80    4.00
  -5  -8  -1   24.60    4.50
   5   8   1   28.10    3.90
   5   8   1   12.90    4.30
  -6  -8  -1  119.49    8.90
  -6  -8  -1  121.99   10.00
   6   8   1  140.69   13.60
 -10   9   1   20.10    5.70
 -10   9   1   27.00    9.60
   9  -9  -1   10.70    5.00
  -9   9   1    7.00    4.20
  -9   9   1    7.90    3.60
   8  -9  -1   98.29    9.10
   8  -9  -1   85.99    6.10
  -8   9   1   93.99    9.10
  -8   9   1   86.99    9.60
   7  -9  -1  186.28   12.40
   7  -9  -1  155.38    8.40
  -7   9   1  145.19   12.50
  -7   9   1  163.88   12.30
   6  -9  -1   78.89    7.40
   6  -9  -1   72.39    7.80
  -6   9   1   89.59    8.10
  -6   9   1   83.09    9.30
  -6   9   1   94.29    8.90
   5  -9  -1  257.77   12.00
   5  -9  -1  256.47   15.00
  -5   9   1  258.47   15.90
   4  -9  -1  390.96   16.50
   4  -9  -1  434.66   20.30
  -4   9   1  404.66   20.20
  -4   9   1  399.56   20.20
  -4   9   1  372.56   19.20
   3  -9  -1  628.64   21.80
   3  -9  -1  619.84   23.90
   3  -9  -1  642.24   26.60
  -3   9   1  612.14   27.00
  -3   9   1  623.54   26.70
  -3   9   1  624.44   26.60
   2  -9  -1  336.97   14.20
   2  -9  -1  344.27   15.70
  -2   9   1  346.27   17.70
  -2   9   1  343.17   17.70
  -2   9   1  321.07   16.60
   1  -9  -1   25.90    3.90
   1  -9  -1   27.90    3.50
  -1   9   1   27.30    4.80
  -1   9   1   33.90    4.50
  -1   9   1   29.50    5.30
   0  -9  -1  125.39    8.20
   0  -9  -1  122.79    6.70
   0  -9  -1  124.49    8.80
   0   9   1  118.09   10.20
   0   9   1  116.59    9.20
  -1  -9  -1   28.20    3.20
  -1  -9  -1   28.20    4.00
  -1  -9  -1   26.10    4.50
   1   9   1   27.60    5.00
   1   9   1   30.60    4.80
   1   9   1   30.80    3.60
  -2  -9  -1   14.30    3.60
  -2  -9  -1   17.50    3.90
  -2  -9  -1   13.80    2.60
   2   9   1   14.20    3.70
   2   9   1   23.10    3.40
   2   9   1   17.20    4.20
  -3  -9  -1   -0.70    1.80
  -3  -9  -1   -0.50    1.90
  -3  -9  -1   -0.20    1.70
   3   9   1   -2.10    1.10
   3   9   1   -3.60    2.50
   3   9   1    1.80    2.10
  -4  -9  -1   58.49    5.60
  -4  -9  -1   53.59    5.90
  -4  -9  -1   40.00    5.80
   4   9   1   39.30    7.00
   4   9   1   44.40    5.90
  -5  -9  -1    4.20    2.90
  -5  -9  -1    2.80    2.20
  -5  -9  -1   -2.40    1.90
   5   9   1    4.10    4.20
   9 -10  -1    9.00    3.90
  -9  10   1    9.50    4.30
  -9  10   1   21.20    5.60
   8 -10  -1   40.80    6.90
   8 -10  -1   37.30    6.40
  -8  10   1   37.00    6.80
  -8  10   1   35.30    6.60
   7 -10  -1   88.89    8.60
   7 -10  -1   68.79    5.80
  -7  10   1   80.89    8.50
  -7  10   1   73.39    8.60
   6 -10  -1   51.49    4.80
   6 -10  -1   43.50    6.30
  -6  10   1   43.40    6.20
  -6  10   1   48.70    7.60
  -6  10   1   50.29    6.40
   5 -10  -1  206.68   13.30
   5 -10  -1  181.58   10.00
  -5  10   1  195.98   13.30
  -5  10   1  154.98   12.60
  -5  10   1  187.68   12.80
   4 -10  -1  453.05   19.20
   4 -10  -1  477.95   25.60
  -4  10   1  448.16   22.60
  -4  10   1  477.55   23.30
  -4  10   1  468.75   22.60
   3 -10  -1  248.98   14.90
   3 -10  -1  268.07   13.40
   3 -10  -1  273.27   11.70
  -3  10   1  248.68   15.30
  -3  10   1  258.67   15.70
  -3  10   1  259.97   15.60
   2 -10  -1  171.78    9.40
  -2  10   1  177.58   13.10
  -2  10   1  180.98   12.50
  -2  10   1  171.38   11.60
   1 -10  -1  374.26   16.90
   1 -10  -1  374.36   18.10
  -1  10   1  402.86   20.70
  -1  10   1  386.66   21.40
  -1  10   1  391.76   17.90
   0 -10  -1  402.36   18.60
   0 -10  -1  429.56   16.10
   0 -10  -1  413.96   19.50
   0  10   1  399.06   20.20
   0  10   1  443.06   21.80
  -1 -10  -1   99.29    8.00
  -1 -10  -1  102.09    8.40
  -1 -10  -1  101.09    6.40
   1  10   1  110.09   10.20
   1  10   1   94.99    8.90
  -2 -10  -1   21.50    4.50
  -2 -10  -1   31.30    4.10
  -2 -10  -1   30.10    4.60
   2  10   1   26.00    5.30
   2  10   1   24.00    4.50
  -3 -10  -1   19.70    3.70
  -3 -10  -1   27.40    4.60
  -3 -10  -1   19.60    5.00
   3  10   1   16.00    4.90
   3  10   1   19.90    4.70
   7 -11  -1   59.39    7.70
   7 -11  -1   62.49    6.80
  -7  11   1   44.90   10.00
  -7  11   1   54.09    8.20
   6 -11  -1    6.00    2.90
  -6  11   1   13.20    3.70
  -6  11   1    9.10    2.90
   5 -11  -1  110.29    9.50
   5 -11  -1  105.89    9.50
  -5  11   1  122.09    9.60
  -5  11   1  107.69   10.30
  -5  11   1   86.69   10.30
   4 -11  -1  121.79    8.40
   4 -11  -1  113.69   10.30
  -4  11   1  124.99   10.50
  -4  11   1  137.99   10.90
  -4  11   1  128.59   11.20
   3 -11  -1   57.19    7.40
   3 -11  -1   55.79    4.90
   3 -11  -1   52.09    5.80
  -3  11   1   43.50    7.10
  -3  11   1   55.09    7.10
   2 -11  -1  201.18   10.50
   2 -11  -1  196.78   13.50
   2 -11  -1  166.08   11.30
   2 -11  -1  201.88   11.90
  -2  11   1  194.38   13.70
  -2  11   1  213.38   14.30
  -2  11   1  198.28   12.80
   1 -11  -1  508.95   23.10
  -1  11   1  539.65   25.20
  -1  11   1  522.75   25.80
   0 -11  -1  271.47   15.30
   0 -11  -1  260.27   14.20
   0  11   1  259.17   15.70
   0  11   1  270.67   17.30
  -1 -11  -1   49.50    5.90
  -1 -11  -1   51.89    6.40
   1  11   1   47.60    6.80
   1  11   1   46.90    7.50
   5 -12  -1  113.39    8.50
   5 -12  -1   97.49   10.10
   5 -12  -1  131.99   11.70
  -5  12   1  133.89   11.60
  -5  12   1  112.99   10.60
  -5  12   1  143.09   12.00
   4 -12  -1    5.50    3.00
   4 -12  -1   -0.90    3.00
   4 -12  -1    8.90    3.20
  -4  12   1    8.40    4.00
  -4  12   1    3.60    3.20
   3 -12  -1   22.90    4.70
   3 -12  -1   24.20    4.40
   3 -12  -1   35.40    5.00
  -3  12   1   28.00    5.90
  -3  12   1   30.40    6.00
  -3  12   1   18.20    6.00
   2 -12  -1  123.39    9.50
   2 -12  -1  131.19   10.90
   2 -12  -1  125.59    8.40
  -2  12   1  111.69   10.50
  -2  12   1  125.09   11.10
  -2  12   1  104.59   10.40
  -2  13  -2   82.99   14.70
  -2  13  -2   80.89    8.40
   2 -13   2   85.19    7.30
   2 -13   2   68.79    7.70
  -3  13  -2  143.59   12.10
  -3  13  -2  139.19   12.70
   3 -13   2  162.18   11.80
   3 -13   2  148.09   10.60
   3 -13   2  161.38    9.50
   2  12  -2  143.19   11.80
   2  12  -2  138.89    9.50
   2  12  -2  148.69   10.80
  -2 -12   2  133.79   10.30
  -2 -12   2  150.48   10.70
  -2 -12   2  156.78    9.70
   1  12  -2  144.89   11.60
   1  12  -2  156.28    9.80
   1  12  -2  148.09   10.70
  -1 -12   2  142.29   10.10
  -1 -12   2  151.38   10.70
  -1 -12   2  135.59    9.20
  -1 -12   2  135.09   11.10
   0  12  -2  191.58   12.50
   0  12  -2  194.28   11.30
   0  12  -2  201.78   13.70
   0 -12   2  195.68   11.80
   0 -12   2  197.18   12.20
  -1  12  -2   86.59    8.80
  -1  12  -2   90.69   13.40
  -1  12  -2   87.59    8.60
   1 -12   2   70.69    7.30
   1 -12   2   72.19    6.70
   1 -12   2   82.39    6.60
  -2  12  -2   14.80    4.20
  -2  12  -2   25.40    5.00
  -2  12  -2   18.40    5.10
   2 -12   2   17.90    3.30
   2 -12   2   18.80    3.50
   2 -12   2   13.70    3.80
   2 -12   2   19.80    4.40
  -3  12  -2   75.39    9.10
  -3  12  -2   79.59    8.70
  -3  12  -2   82.09    8.20
  -3  12  -2   87.89    9.20
   3 -12   2   81.79    6.20
   3 -12   2   68.09    7.60
   3 -12   2   75.19    7.30
  -4  12  -2  168.08   12.50
  -4  12  -2  168.88   10.10
  -4  12  -2  165.98   12.30
  -4  12  -2  149.79   13.00
   4 -12   2  192.28   12.90
   4 -12   2  175.38    9.50
   4 -12   2  186.28   11.50
  -5  12  -2   91.99    7.90
  -5  12  -2   93.89    8.90
  -5  12  -2  109.89   10.60
   5 -12   2   98.99    9.20
   5 -12   2   84.19    8.90
  -6  12  -2   38.70    8.00
   6 -12   2   50.49    7.00
   6 -12   2   49.10    9.20
   4  11  -2   32.50    6.00
   4  11  -2   50.39    5.40
  -4 -11   2   60.99    8.10
  -4 -11   2   41.30    6.30
  -4 -11   2   45.80    6.00
   3  11  -2   27.70    5.80
   3  11  -2   28.40    5.50
   3  11  -2   29.70    4.30
  -3 -11   2   35.80    4.80
  -3 -11   2   36.20    5.60
  -3 -11   2   35.20    5.00
   2  11  -2   86.89    6.90
   2  11  -2   82.29    7.50
   2  11  -2   78.99    8.10
  -2 -11   2   89.69    7.50
  -2 -11   2   99.39    7.20
  -2 -11   2   74.49    7.70
   1  11  -2  393.96   18.60
   1  11  -2  407.06   20.50
   1  11  -2  378.66   17.60
  -1 -11   2  396.66   17.80
  -1 -11   2  387.06   18.60
  -1 -11   2  399.66   17.40
  -1 -11   2  386.36   18.60
   0  11  -2  526.55   23.60
   0  11  -2  451.15   21.10
   0  11  -2  469.65   20.00
   0  11  -2  439.66   21.50
   0 -11   2  502.15   19.90
   0 -11   2  484.35   20.90
   0 -11   2  505.85   21.80
  -1  11  -2  202.98   13.00
  -1  11  -2  194.18   12.80
  -1  11  -2  202.88   13.00
  -1  11  -2  204.28   12.90
  -1  11  -2  206.18   10.60
   1 -11   2  211.88   11.70
   1 -11   2  202.98   10.50
   1 -11   2  211.78   11.50
   1 -11   2  184.18   12.40
  -2  11  -2   76.69    7.70
  -2  11  -2   78.69    8.20
  -2  11  -2   81.49    9.00
  -2  11  -2   82.89    6.70
   2 -11   2   64.39    6.20
   2 -11   2   80.59    6.00
   2 -11   2   75.99    7.00
   2 -11   2   88.89    5.70
   2 -11   2   74.59    7.50
  -3  11  -2  129.79   10.50
  -3  11  -2  131.49    8.80
  -3  11  -2  151.88   11.10
   3 -11   2  140.79    7.50
   3 -11   2  142.09    8.30
   3 -11   2  147.99    9.70
   3 -11   2  142.09    7.70
   3 -11   2  146.69   10.40
  -4  11  -2  176.18   12.20
  -4  11  -2  175.98   12.70
  -4  11  -2  185.48   10.40
  -4  11  -2  169.78   13.20
   4 -11   2  186.68   12.00
   4 -11   2  196.28    9.50
   4 -11   2  174.88    8.70
   4 -11   2  187.38   12.20
  -5  11  -2   -1.90    2.50
  -5  11  -2   -0.10    1.90
  -5  11  -2   -4.50    2.00
   5 -11   2   -1.40    1.60
   5 -11   2    6.70    3.10
   5 -11   2   -0.80    1.30
  -6  11  -2  165.98   13.60
  -6  11  -2  167.98    9.60
  -6  11  -2  187.18   13.00
   6 -11   2  180.48   12.70
   6 -11   2  173.68   13.20
  -7  11  -2  296.17   18.60
  -7  11  -2  291.67   19.50
   7 -11   2  321.97   18.50
   7 -11   2  314.57   17.90
  -8  11  -2  117.29   10.20
  -8  11  -2  102.39   11.50
   8 -11   2  121.19   16.70
   8 -11   2  116.59   16.70
   5  10  -2    5.80    2.80
   5  10  -2    2.60    1.90
  -5 -10   2    2.00    2.50
  -5 -10   2   -1.10    2.20
  -5 -10   2    2.80    4.90
   4  10  -2   10.10    3.80
   4  10  -2    8.80    2.30
  -4 -10   2    6.40    2.70
  -4 -10   2    4.70    2.40
  -4 -10   2    7.20    3.10
   3  10  -2   20.30    3.50
   3  10  -2   13.50    3.10
   3  10  -2   12.40    3.90
  -3 -10   2   10.30    3.00
  -3 -10   2   10.70    3.30
  -3 -10   2   11.50    2.90
   2  10  -2  183.98   10.60
   2  10  -2  213.58   15.30
   2  10  -2  186.58   10.50
  -2 -10   2  173.98   12.90
  -2 -10   2  190.08   11.50
  -2 -10   2  199.58   11.10
   1  10  -2  453.35   21.30
   1  10  -2  462.15   20.00
   1  10  -2  456.95   19.10
  -1 -10   2  450.85   19.90
  -1 -10   2  455.65   19.00
  -1 -10   2  463.55   23.70
   0  10  -2  279.37   15.30
   0  10  -2  261.47   13.70
   0  10  -2  276.17   14.30
   0  10  -2  273.67   14.50
   0  10  -2  259.27   12.80
   0 -10   2  271.07   13.60
   0 -10   2  283.37   13.80
   0 -10   2  272.07   13.00
   0 -10   2  283.57   13.80
  -1  10  -2  242.68   13.60
  -1  10  -2  232.18   13.40
  -1  10  -2  207.78   11.00
  -1  10  -2  229.78   13.30
  -1  10  -2  233.28   12.20
   1 -10   2  238.78   11.50
   1 -10   2  223.68   11.60
   1 -10   2  220.78   11.40
   1 -10   2  232.98   12.40
  -2  10  -2  497.05   20.20
  -2  10  -2  500.75   22.30
  -2  10  -2  497.45   22.80
  -2  10  -2  463.45   21.90
  -2  10  -2  487.25   18.80
   2 -10   2  505.95   24.00
   2 -10   2  477.45   19.50
   2 -10   2  481.25   18.90
   2 -10   2  489.85   20.40
   2 -10   2  499.85   22.00
  -3  10  -2  412.86   17.30
  -3  10  -2  415.86   15.80
  -3  10  -2  399.06   19.30
  -3  10  -2  409.36   19.80
  -3  10  -2  363.46   19.80
   3 -10   2  412.16   16.00
   3 -10   2  386.56   15.00
   3 -10   2  404.16   18.60
   3 -10   2  402.86   18.60
   3 -10   2  391.36   16.10
  -4  10  -2  173.98   12.50
  -4  10  -2  179.38   11.70
  -4  10  -2  172.68    9.60
  -4  10  -2  187.58   14.70
   4 -10   2  159.98   10.80
   4 -10   2  168.78   11.10
   4 -10   2  171.48    8.70
   4 -10   2  173.08   11.60
  -5  10  -2   16.90    3.70
  -5  10  -2   11.30    2.90
  -5  10  -2    8.70    3.70
   5 -10   2    8.30    2.00
   5 -10   2   16.30    2.30
   5 -10   2   10.00    3.40
   5 -10   2   16.30    3.90
  -6  10  -2  181.18   14.10
  -6  10  -2  194.18   10.00
  -6  10  -2  208.28   13.40
   6 -10   2  198.08   12.90
   6 -10   2  181.68   13.20
  -7  10  -2   53.29    7.90
   7 -10   2   49.90    7.30
   7 -10   2   59.99    6.90
  -8  10  -2   21.20    5.50
  -8  10  -2   22.70    4.60
   8 -10   2   18.90    4.40
   8 -10   2   23.00    4.80
  -9  10  -2  216.88   16.20
  -9  10  -2  206.38   15.20
   9 -10   2  225.48   15.20
   9 -10   2  229.88   16.00
   6   9  -2    0.10    2.50
   6   9  -2    0.00    1.40
  -6  -9   2    0.10    2.00
  -6  -9   2   -0.80    2.00
  -6  -9   2    2.60    1.90
   5   9  -2   18.70    4.20
   5   9  -2   12.10    3.00
  -5  -9   2   14.30    3.50
  -5  -9   2   17.10    3.50
  -5  -9   2   10.70    3.10
   4   9  -2   -0.50    1.10
   4   9  -2    0.60    1.60
   4   9  -2   -2.20    2.30
  -4  -9   2   -1.00    1.50
  -4  -9   2    0.60    1.50
  -4  -9   2   -1.60    1.70
   3   9  -2    0.40    1.50
   3   9  -2    1.60    1.20
  -3  -9   2   -2.60    2.60
  -3  -9   2    1.80    1.40
   2   9  -2   90.29    6.80
   2   9  -2   89.09    7.70
   2   9  -2   93.99    7.00
  -2  -9   2   98.09    7.50
  -2  -9   2   96.09    7.00
  -2  -9   2   86.09    7.20
   1   9  -2   55.19    5.50
   1   9  -2   67.29    6.30
   1   9  -2   70.89    6.00
   1   9  -2   50.49    5.50
   1   9  -2   65.49    5.40
  -1  -9   2   68.79    5.90
  -1  -9   2   68.49    5.70
  -1  -9   2   65.79    5.50
   0   9  -2   79.19    6.30
   0   9  -2   85.39    6.00
   0   9  -2   86.19    6.90
   0   9  -2   78.89    6.70
   0   9  -2   86.09    7.10
   0  -9   2   73.89    5.90
   0  -9   2   65.49    8.10
   0  -9   2   78.49    5.00
   0  -9   2   87.79    6.20
   0  -9   2   72.59    5.80
  -1   9  -2  552.74   20.70
  -1   9  -2  558.74   21.80
  -1   9  -2  578.04   23.50
  -1   9  -2  539.55   22.70
  -1   9  -2  547.15   23.10
   1  -9   2  536.45   20.90
   1  -9   2  547.95   21.70
   1  -9   2  540.95   20.90
   1  -9   2  541.35   20.80
   1  -9   2  549.65   20.70
  -2   9  -2  734.53   29.70
  -2   9  -2  708.73   28.80
  -2   9  -2  736.13   27.20
  -2   9  -2  771.02   29.10
  -2   9  -2  736.83   25.90
   2  -9   2  740.73   25.80
   2  -9   2  756.12   27.80
   2  -9   2  746.83   26.30
   2  -9   2  741.33   26.10
   2  -9   2  762.42   28.10
  -3   9  -2  323.57   16.60
  -3   9  -2  328.37   13.20
  -3   9  -2  334.47   14.70
  -3   9  -2  339.97   17.40
  -3   9  -2  351.06   16.60
   3  -9   2  330.47   13.70
   3  -9   2  324.17   12.70
   3  -9   2  325.77   13.50
   3  -9   2  347.57   16.20
   3  -9   2  330.27   15.60
  -4   9  -2  176.88   11.30
  -4   9  -2  181.58   12.30
  -4   9  -2  150.08   11.00
  -4   9  -2  166.18   10.80
   4  -9   2  180.48   10.70
   4  -9   2  179.98    9.20
   4  -9   2  179.98   11.30
   4  -9   2  172.68    8.50
  -5   9  -2  254.27   12.10
  -5   9  -2  282.37   15.30
  -5   9  -2  265.07   16.20
   5  -9   2  278.87   15.50
   5  -9   2  262.07   14.50
   5  -9   2  273.57   11.40
  -6   9  -2  232.48   15.00
  -6   9  -2  246.48   18.00
  -6   9  -2  229.78   11.40
   6  -9   2  220.78   14.20
   6  -9   2  225.88   13.50
  -7   9  -2   67.49    7.00
  -7   9  -2   55.69    7.10
   7  -9   2   36.60    5.90
   7  -9   2   52.09    6.20
  -8   9  -2   51.19    7.30
  -8   9  -2   45.30    6.30
   8  -9   2   29.60    5.70
   8  -9   2   42.10    6.60
  -9   9  -2   69.29    7.50
  -9   9  -2   66.69    8.90
   9  -9   2   59.59    7.30
   7   8  -2  100.39    7.50
   7   8  -2   82.69    8.80
  -7  -8   2   86.79    8.10
  -7  -8   2   95.49   12.40
   6   8  -2   28.60    5.50
   6   8  -2   32.50    4.10
  -6  -8   2   28.60    4.80
  -6  -8   2   37.90    5.10
   5   8  -2   13.50    3.60
   5   8  -2   15.80    3.20
  -5  -8   2   15.30    3.50
  -5  -8   2   11.40    3.50
   4   8  -2   28.40    3.80
   4   8  -2   25.10    4.60
  -4  -8   2   29.60    4.60
  -4  -8   2   29.70    4.20
   3   8  -2    1.80    1.20
   3   8  -2    0.00    1.60
   3   8  -2    7.00    1.50
  -3  -8   2    6.10    1.50
  -3  -8   2    3.70    1.80
   2   8  -2   30.40    3.90
   2   8  -2   32.60    3.70
   2   8  -2   31.30    3.50
   2   8  -2   34.70    4.00
  -2  -8   2   35.70    4.10
  -2  -8   2   36.50    4.10
  -2  -8   2   34.00    4.10
   1   8  -2    2.00    1.20
   1   8  -2    2.30    1.10
   1   8  -2    1.10    1.30
   1   8  -2    1.90    1.30
  -1  -8   2    1.90    1.10
  -1  -8   2    0.70    1.20
  -1  -8   2    1.70    0.70
   0   8  -2    3.00    1.30
   0   8  -2    0.80    1.10
   0   8  -2   -0.40    1.00
   0   8  -2   -0.60    1.10
   0   8  -2    0.60    0.70
   0  -8   2    0.40    1.10
   0  -8   2    0.00    1.00
  -1   8  -2  417.76   18.80
  -1   8  -2  402.96   17.60
  -1   8  -2  417.46   17.80
  -1   8  -2  392.06   17.30
  -1   8  -2  383.96   15.60
   1  -8   2  385.86   15.70
   1  -8   2  401.86   16.00
   1  -8   2  392.76   16.40
   1  -8   2  401.26   16.00
   1  -8   2  392.16   17.20
  -2   8  -2  654.13   23.00
  -2   8  -2  673.23   25.60
  -2   8  -2  680.23   26.00
  -2   8  -2  693.63   24.50
  -2   8  -2  651.43   26.30
   2  -8   2  662.73   23.10
   2  -8   2  657.73   23.40
   2  -8   2  655.83   26.70
   2  -8   2  642.54   24.60
  -3   8  -2  243.48   13.70
  -3   8  -2  245.38   12.70
  -3   8  -2  258.07   13.30
   3  -8   2  248.78   13.10
   3  -8   2  252.37   12.00
   3  -8   2  240.58   12.20
   3  -8   2  244.68   10.20
  -4   8  -2  330.37   17.20
  -4   8  -2  363.36   16.70
  -4   8  -2  329.37   14.10
  -4   8  -2  354.46   16.30
   4  -8   2  333.47   16.40
   4  -8   2  324.47   15.60
  -5   8  -2 1133.09   42.20
  -5   8  -2 1144.89   37.00
  -5   8  -2 1133.79   40.60
   5  -8   2  971.20   34.70
   5  -8   2 1104.49   39.80
   5  -8   2 1208.98   41.60
  -6   8  -2  244.58   10.70
  -6   8  -2  210.68   14.20
  -6   8  -2  223.28   13.00
   6  -8   2  203.78   12.60
   6  -8   2  218.98   13.70
  -7   8  -2   24.00    3.60
  -7   8  -2   22.60    6.20
   7  -8   2   25.50    6.10
   7  -8   2   27.60    8.20
  -8   8  -2  151.28   10.80
  -8   8  -2  149.09   12.40
  -8   8  -2  151.68    8.50
   8  -8   2  156.28   11.30
   8  -8   2  152.68   11.70
  -9   8  -2   42.70    7.20
  -9   8  -2   60.29    6.60
   9  -8   2   61.49    7.00
   9  -8   2   53.49    6.00
 -10   8  -2   72.79    8.80
   8   7  -2   73.69    8.40
   8   7  -2   79.99    6.30
  -8  -7   2   82.89    8.20
  -8  -7   2   86.69    8.00
   7   7  -2   -1.50    1.90
   7   7  -2   -0.20    1.30
  -7  -7   2   -2.20    1.50
  -7  -7   2    1.10    1.90
   6   7  -2   56.79    6.30
   6   7  -2   68.59    9.10
  -6  -7   2   68.69    6.60
  -6  -7   2   67.79    6.60
   5   7  -2   25.10    4.50
   5   7  -2   22.40    3.10
  -5  -7   2   19.50    4.20
  -5  -7   2   17.30    3.40
   4   7  -2    2.80    1.40
   4   7  -2    3.30    1.60
  -4  -7   2    0.90    1.40
  -4  -7   2    5.30    1.90
   3   7  -2  152.68    8.50
   3   7  -2  162.38    9.40
   3   7  -2  141.89    7.30
  -3  -7   2  155.08    9.10
  -3  -7   2  144.99    9.50
   2   7  -2   12.30    2.80
   2   7  -2   18.80    2.70
   2   7  -2   13.20    2.50
   2   7  -2   17.50    3.00
  -2  -7   2   11.40    2.50
  -2  -7   2   11.70    2.50
   1   7  -2  145.99    8.00
   1   7  -2  144.29    8.30
   1   7  -2  137.19    7.70
   1   7  -2  136.59    8.30
   1   7  -2  138.59    7.70
  -1  -7   2  141.19    7.90
  -1  -7   2  143.79    8.40
   0   7  -2  189.28    9.10
   0   7  -2  192.98   10.00
   0   7  -2  188.68    9.60
   0   7  -2  193.38    9.70
   0  -7   2  185.68    9.00
   0  -7   2  186.28    9.50
   0  -7   2  187.88    9.30
   0  -7   2  190.38    8.40
  -1   7  -2  145.09    8.40
  -1   7  -2  142.49    8.90
  -1   7  -2  155.48    8.30
  -1   7  -2  163.88    8.20
   1  -7   2  148.79    7.60
   1  -7   2  148.29    7.60
   1  -7   2  151.58    7.90
   1  -7   2  144.89    7.80
   1  -7   2  146.79    7.30
  -2   7  -2  181.58    9.70
  -2   7  -2  182.18   10.50
  -2   7  -2  184.68    9.10
  -2   7  -2  179.18    8.10
  -2   7  -2  180.98   10.10
   2  -7   2  187.58   11.00
   2  -7   2  187.48    9.70
   2  -7   2  189.58    9.00
   2  -7   2  179.38    9.30
  -3   7  -2  332.57   16.50
  -3   7  -2  337.77   19.10
  -3   7  -2  324.77   15.20
  -3   7  -2  339.67   12.30
  -3   7  -2  321.27   13.60
   3  -7   2  332.17   16.20
   3  -7   2  328.97   11.80
   3  -7   2  346.67   15.40
  -4   7  -2  968.20   36.00
  -4   7  -2  975.90   34.90
  -4   7  -2  930.91   32.00
   4  -7   2  996.50   35.20
   4  -7   2  953.30   34.10
  -5   7  -2  972.50   34.60
  -5   7  -2  986.20   36.40
  -5   7  -2  982.70   31.60
   5  -7   2  800.92   29.10
   5  -7   2  927.31   34.10
   5  -7   2  968.10   35.30
  -6   7  -2  343.67   13.80
  -6   7  -2  301.57   16.00
  -6   7  -2  333.37   17.80
   6  -7   2  358.86   17.60
   6  -7   2  336.67   16.40
  -7   7  -2  379.26   18.10
  -7   7  -2  368.06   14.70
  -7   7  -2  375.86   19.80
   7  -7   2  343.67   17.60
   7  -7   2  368.56   18.90
  -8   7  -2  279.37   12.10
  -8   7  -2  284.77   16.60
  -8   7  -2  262.17   17.20
   8  -7   2  260.67   16.00
   8  -7   2  277.57   15.40
  -9   7  -2   90.99    8.10
  -9   7  -2  114.39    9.30
  -9   7  -2  104.89   10.50
   9  -7   2  100.39    8.50
   9  -7   2   84.49    8.80
 -10   7  -2   75.39    8.10
 -10   7  -2  100.79   10.50
  10  -7   2   95.89    8.60
  10  -7   2  107.39    9.30
   9   6  -2  240.38   12.10
   9   6  -2  237.68   14.90
  -9  -6   2  223.48   19.10
  -9  -6   2  221.08   16.50
   8   6  -2   72.89    8.30
   8   6  -2   83.89    6.10
   8   6  -2   83.79    6.50
  -8  -6   2   75.59    7.40
  -8  -6   2   92.09    8.20
   7   6  -2   25.40    3.20
   7   6  -2   27.30    5.20
   7   6  -2   28.20    4.30
  -7  -6   2   29.70    4.40
  -7  -6   2   29.40    4.60
   6   6  -2  122.69    9.00
   6   6  -2  133.19    6.60
   6   6  -2  136.79    8.30
  -6  -6   2  128.39    9.40
  -6  -6   2  116.69    8.90
   5   6  -2  159.18   10.00
   5   6  -2  161.88    9.10
   5   6  -2  163.08    7.30
  -5  -6   2  153.78   10.20
  -5  -6   2  172.88   10.30
   4   6  -2   23.90    3.10
   4   6  -2   23.40    3.00
  -4  -6   2   25.70    3.80
  -4  -6   2   20.30    3.20
   3   6  -2   28.80    2.70
   3   6  -2   33.50    3.60
   3   6  -2   32.40    3.30
  -3  -6   2   31.40    3.60
  -3  -6   2   28.30    3.70
   2   6  -2    6.00    1.60
   2   6  -2    9.20    2.30
   2   6  -2    5.70    1.50
  -2  -6   2    5.50    1.60
  -2  -6   2    7.10    1.80
   1   6  -2   10.60    2.30
   1   6  -2    8.30    1.80
   1   6  -2    9.10    2.10
   1   6  -2    8.50    1.70
   1   6  -2   10.60    2.30
  -1  -6   2    9.30    1.10
  -1  -6   2    8.00    1.80
  -1  -6   2    9.30    1.80
  -1  -6   2    7.30    1.90
   0   6  -2   69.29    4.90
   0   6  -2   69.09    4.90
   0   6  -2   64.99    4.60
   0   6  -2   69.99    4.50
   0   6  -2   67.19    5.10
   0  -6   2   64.89    4.70
   0  -6   2   68.69    4.60
   0  -6   2   57.89    4.10
   0  -6   2   63.19    4.20
  -1   6  -2    8.70    2.00
  -1   6  -2   10.50    2.40
  -1   6  -2    7.50    1.70
  -1   6  -2    6.90    1.70
  -1   6  -2    7.80    1.40
   1  -6   2    7.70    1.80
   1  -6   2    9.20    1.70
   1  -6   2    9.50    1.90
   1  -6   2    6.80    1.50
   1  -6   2    5.80    1.30
  -2   6  -2    3.60    1.60
  -2   6  -2    4.20    1.40
  -2   6  -2    4.90    1.40
  -2   6  -2    5.80    1.20
  -2   6  -2    5.70    1.60
   2  -6   2    7.20    1.30
   2  -6   2    4.10    1.20
   2  -6   2    5.70    1.60
   2  -6   2    6.40    1.20
  -3   6  -2  318.87   11.40
  -3   6  -2  323.87   13.90
  -3   6  -2  315.97   12.80
   3  -6   2  322.27   13.80
   3  -6   2  327.77   14.40
  -4   6  -2  498.35   24.60
  -4   6  -2  523.85   18.40
  -4   6  -2  507.35   27.10
   4  -6   2  496.35   20.00
   4  -6   2  480.15   16.60
   4  -6   2  523.45   20.90
  -5   6  -2   86.09    7.30
  -5   6  -2   75.29    6.00
   5  -6   2   83.39    6.30
   5  -6   2   82.59    6.70
  -6   6  -2  172.48   11.40
  -6   6  -2  176.58   10.30
  -6   6  -2  161.58    8.10
   6  -6   2  158.58    9.80
   6  -6   2  160.28   10.60
  -7   6  -2  613.94   21.10
  -7   6  -2  541.55   22.10
  -7   6  -2  585.24   23.80
  -7   6  -2  584.14   26.10
   7  -6   2  592.04   24.40
   7  -6   2  557.14   24.90
  -8   6  -2  392.36   16.40
  -8   6  -2  409.16   18.20
  -8   6  -2  442.16   22.00
   8  -6   2  428.26   21.00
   8  -6   2  423.56   21.50
  -9   6  -2  179.38   13.40
  -9   6  -2  165.58   10.70
  -9   6  -2  153.28    9.40
   9  -6   2  187.98   11.80
   9  -6   2  171.28   11.80
 -10   6  -2   36.30    5.30
 -10   6  -2   29.60    5.30
 -10   6  -2   28.70    5.90
  10  -6   2   46.90    5.90
  10  -6   2   41.30    5.10
 -11   6  -2   64.19    8.20
 -11   6  -2   36.90    6.00
  11  -6   2   50.29   11.50
  11  -6   2   46.90    6.70
   9   5  -2  196.48    9.70
   9   5  -2  175.28   13.10
   9   5  -2  179.88    9.40
  -9  -5   2  185.48   12.50
  -9  -5   2  158.98   11.50
   8   5  -2   83.09    6.20
   8   5  -2   85.19   12.80
  -8  -5   2   83.09    7.80
  -8  -5   2   87.79    7.90
   7   5  -2  105.19    8.70
   7   5  -2  107.59    7.10
   7   5  -2  115.89    6.30
  -7  -5   2  103.69    8.30
  -7  -5   2  100.99    8.10
   6   5  -2  499.45   19.20
   6   5  -2  474.95   20.50
   6   5  -2  489.95   17.00
  -6  -5   2  478.95   20.90
  -6  -5   2  488.75   21.40
   5   5  -2   87.49    4.50
   5   5  -2   83.79    6.20
   5   5  -2   84.59    5.70
  -5  -5   2   81.29    6.80
  -5  -5   2   77.09    6.40
   4   5  -2   10.90    2.60
  -4  -5   2    5.70    1.90
  -4  -5   2    7.20    1.30
   3   5  -2   17.00    3.20
   3   5  -2   21.70    2.60
  -3  -5   2   23.60    2.50
  -3  -5   2   17.40    2.40
  -3  -5   2   16.80    3.30
  -3  -5   2   18.40    2.60
   2   5  -2  149.29    6.70
   2   5  -2  160.68    7.80
   2   5  -2  153.48    7.70
   2   5  -2  156.58    7.90
  -2  -5   2  146.29    7.40
  -2  -5   2  171.88    8.40
  -2  -5   2  144.99    5.60
  -2  -5   2  152.38    8.40
  -2  -5   2  147.19    6.40
   1   5  -2   26.70    2.50
   1   5  -2   31.20    2.80
   1   5  -2   34.10    2.90
   1   5  -2   29.00    2.80
   1   5  -2   30.40    3.00
  -1  -5   2   28.70    2.00
  -1  -5   2   28.60    2.50
  -1  -5   2   33.20    3.00
  -1  -5   2   29.90    1.90
  -1  -5   2   28.70    3.00
   0   5  -2  769.22   25.90
   0   5  -2  793.22   26.80
   0   5  -2  801.22   25.70
   0   5  -2  739.93   26.10
   0   5  -2  782.62   26.10
   0  -5   2  774.22   26.00
   0  -5   2  801.32   26.30
   0  -5   2  792.82   25.10
  -1   5  -2  276.67   11.30
  -1   5  -2  270.87   11.60
  -1   5  -2  286.97   10.60
  -1   5  -2  271.77   11.30
  -1   5  -2  277.27   12.10
   1  -5   2  279.17   11.00
   1  -5   2  275.97   10.00
   1  -5   2  286.07   11.30
   1  -5   2  277.47   10.80
  -2   5  -2    5.00    1.50
  -2   5  -2    3.80    0.90
  -2   5  -2    6.50    1.50
  -2   5  -2    3.20    1.10
  -2   5  -2    3.20    0.90
   2  -5   2    5.50    1.60
   2  -5   2    2.60    0.90
   2  -5   2    4.90    1.10
   2  -5   2    7.40    1.60
   2  -5   2    4.70    0.90
   2  -5   2    5.90    1.00
  -3   5  -2  376.56   13.90
  -3   5  -2  374.06   15.30
  -3   5  -2  373.86   16.00
  -3   5  -2  376.16   12.30
   3  -5   2  370.96   14.90
   3  -5   2  384.46   15.60
   3  -5   2  354.66   11.80
  -4   5  -2  211.98   10.70
  -4   5  -2  220.08   12.70
  -4   5  -2  218.48    9.20
   4  -5   2  208.58   10.50
   4  -5   2  224.08   11.60
  -5   5  -2  254.37   11.00
  -5   5  -2  234.78   10.70
  -5   5  -2  255.07   14.80
  -5   5  -2  249.78   12.10
   5  -5   2  229.58    8.50
   5  -5   2  257.77   17.00
   5  -5   2  243.88   13.30
  -6   5  -2  393.76   18.50
  -6   5  -2  399.96   17.10
  -6   5  -2  388.26   14.70
  -6   5  -2  384.66   16.20
   6  -5   2  384.16   17.20
   6  -5   2  399.66   18.20
  -7   5  -2  855.21   33.30
  -7   5  -2  839.92   30.10
  -7   5  -2  836.82   28.10
   7  -5   2  832.12   31.30
   7  -5   2  836.32   32.50
  -8   5  -2  458.45   20.00
  -8   5  -2  496.75   23.20
  -8   5  -2  503.65   20.90
   8  -5   2  480.55   22.20
   8  -5   2  488.35   21.30
  -9   5  -2  174.88    9.30
  -9   5  -2  191.28   13.10
  -9   5  -2  177.28   11.10
   9  -5   2  177.98   12.20
   9  -5   2  185.48   11.80
 -10   5  -2  171.98   11.70
 -10   5  -2  192.38   10.10
 -10   5  -2  183.78   13.40
  10  -5   2  207.58   13.30
  10  -5   2  188.88   12.10
 -11   5  -2  242.88   16.00
 -11   5  -2  231.88   14.40
  11  -5   2  244.88   16.20
  11  -5   2  260.67   15.50
  10   4  -2  129.99   11.10
  10   4  -2  150.68    9.50
  10   4  -2  170.08    9.10
 -10  -4   2  149.99   12.10
 -10  -4   2  157.98   11.30
   9   4  -2  116.19    6.70
   9   4  -2  108.89    7.10
  -9  -4   2   97.69    8.50
  -9  -4   2  116.29    9.30
   8   4  -2  110.89    6.90
   8   4  -2  102.59    5.80
  -8  -4   2   94.49    8.00
  -8  -4   2  103.69    8.10
  -8  -4   2  106.69    6.30
   7   4  -2  444.86   17.50
   7   4  -2  459.95   16.10
  -7  -4   2  436.56   19.60
  -7  -4   2  433.56   19.80
   6   4  -2  721.53   24.80
   6   4  -2  715.33   22.80
  -6  -4   2  653.73   26.30
  -6  -4   2  673.83   26.90
   5   4  -2   77.09    5.20
   5   4  -2   77.89    4.10
  -5  -4   2   73.39    5.90
  -5  -4   2   74.69    6.10
   4   4  -2  100.39    6.00
   4   4  -2  109.89    6.50
  -4  -4   2  101.99    5.50
  -4  -4   2  108.69    4.90
  -4  -4   2  105.69    8.50
   3   4  -2  170.18    8.10
   3   4  -2  178.88    8.40
   3   4  -2  183.28    6.40
   3   4  -2  174.08    8.10
  -3  -4   2  176.08    8.90
  -3  -4   2  177.68    6.50
  -3  -4   2  177.98    9.20
  -3  -4   2  174.28    8.60
   2   4  -2   26.50    2.70
   2   4  -2   25.00    2.40
   2   4  -2   23.10    1.80
   2   4  -2   24.00    2.30
  -2  -4   2   23.80    2.60
  -2  -4   2   23.20    2.40
  -2  -4   2   24.00    1.40
  -2  -4   2   25.00    1.80
  -2  -4   2   21.60    2.70
   1   4  -2    0.70    0.50
   1   4  -2    2.40    1.00
   1   4  -2    1.30    0.50
  -1  -4   2    2.00    0.40
  -1  -4   2    2.50    0.70
  -1  -4   2    0.70    0.70
  -1  -4   2    1.80    0.60
   0   4  -2  414.16   14.00
   0   4  -2  423.06   14.70
   0   4  -2  396.76   14.20
   0   4  -2  405.76   14.90
   0   4  -2  394.96   14.10
   0  -4   2  399.46   14.80
   0  -4   2  406.26   13.70
   0  -4   2  400.46   13.40
   0  -4   2  388.96   14.10
   0  -4   2  417.06   14.60
   0  -4   2  375.86   14.20
   0  -4   2  378.56   13.80
   0  -4   2  388.46   13.90
  -1   4  -2   35.80    3.00
  -1   4  -2   36.50    2.90
  -1   4  -2   35.80    3.20
  -1   4  -2   37.50    3.00
  -1   4  -2   42.50    2.70
   1  -4   2   39.40    2.60
   1  -4   2   41.10    2.30
   1  -4   2   41.50    3.00
   1  -4   2   41.30    2.80
   1  -4   2   43.70    2.90
   1  -4   2   33.50    3.80
   1  -4   2   41.70    3.20
  -2   4  -2  255.17   10.70
  -2   4  -2  280.57   10.90
  -2   4  -2  242.88   10.20
  -2   4  -2  261.67    8.90
  -2   4  -2  249.28   10.90
  -2   4  -2  260.47   11.30
   2  -4   2  254.07    9.50
   2  -4   2  254.37   10.80
   2  -4   2  248.08    8.20
   2  -4   2  237.28    9.30
   2  -4   2  253.77   10.40
   2  -4   2  256.67    9.00
   2  -4   2  264.37    8.70
  -3   4  -2  565.74   18.80
  -3   4  -2  548.05   20.50
  -3   4  -2  542.55   18.30
  -3   4  -2  547.75   16.60
  -3   4  -2  545.45   19.60
   3  -4   2  530.65   19.50
   3  -4   2  525.55   18.10
   3  -4   2  535.95   20.10
  -4   4  -2    3.50    1.20
  -4   4  -2    2.70    1.30
  -4   4  -2    3.30    1.10
  -4   4  -2    1.10    0.70
   4  -4   2    3.80    1.40
   4  -4   2    2.70    1.30
  -5   4  -2   93.89    7.50
  -5   4  -2   83.09    4.80
  -5   4  -2   83.49    5.80
  -5   4  -2   85.29    3.80
  -5   4  -2   85.29    5.40
   5  -4   2   82.49    6.00
   5  -4   2   83.89    6.40
  -6   4  -2  442.66   17.20
  -6   4  -2  403.96   14.40
  -6   4  -2  449.95   16.10
   6  -4   2  439.56   19.00
   6  -4   2  435.76   18.10
  -7   4  -2  387.66   18.30
  -7   4  -2  364.96   15.90
   7  -4   2  385.56   17.90
   7  -4   2  374.36   16.70
  -8   4  -2   75.29    7.30
  -8   4  -2   72.59    6.10
   8  -4   2   72.19    6.50
   8  -4   2   84.79    7.30
  -9   4  -2  316.77   16.60
  -9   4  -2  250.97   10.70
  -9   4  -2  280.47   14.50
   9  -4   2  299.57   16.70
   9  -4   2  283.67   14.90
 -10   4  -2  348.87   18.10
 -10   4  -2  372.06   21.40
  10  -4   2  399.86   18.80
  10  -4   2  396.76   19.90
 -11   4  -2   63.89    7.20
 -11   4  -2   53.49    6.50
 -11   4  -2   66.09    8.20
  11  -4   2   47.10    9.00
  11  -4   2   53.69    7.80
  10   3  -2   55.29    5.70
  10   3  -2   73.99    5.10
 -10  -3   2   68.59    6.90
 -10  -3   2   66.19    6.90
   9   3  -2   13.10    2.40
   9   3  -2   17.10    2.70
  -9  -3   2   13.70    3.40
  -9  -3   2   15.50    4.20
  -9  -3   2   21.90    4.30
   8   3  -2  173.08    8.70
   8   3  -2  161.58    7.70
   8   3  -2  186.08    8.60
  -8  -3   2  168.08   10.70
  -8  -3   2  169.48   10.50
  -8  -3   2  172.68    9.10
   7   3  -2  385.96   17.70
   7   3  -2  423.56   15.00
  -7  -3   2  427.56   18.40
  -7  -3   2  394.76   18.00
   6   3  -2  223.88   11.00
   6   3  -2  209.98   11.40
   6   3  -2  208.58    8.40
  -6  -3   2  209.28   11.20
  -6  -3   2  217.18   11.30
   5   3  -2  257.87    9.20
   5   3  -2  248.08   10.60
  -5  -3   2  239.88   10.20
  -5  -3   2  245.98   11.90
  -5  -3   2  250.07   13.60
   4   3  -2  446.86   14.00
   4   3  -2  426.96   15.70
  -4  -3   2  432.26   17.20
  -4  -3   2  418.06   16.80
   3   3  -2  378.76   14.10
   3   3  -2  381.96   12.30
   3   3  -2  406.86   14.50
  -3  -3   2  390.16   12.60
  -3  -3   2  396.06   15.10
  -3  -3   2  381.86   15.40
   2   3  -2   18.50    2.20
   2   3  -2   23.60    2.00
   2   3  -2   21.90    1.90
   2   3  -2   18.70    1.90
  -2  -3   2   22.10    2.20
  -2  -3   2   22.40    2.20
  -2  -3   2   25.00    2.10
  -2  -3   2   18.00    1.90
  -2  -3   2   20.50    2.40
   1   3  -2   52.79    3.70
   1   3  -2   54.49    3.00
   1   3  -2   55.79    2.90
   1   3  -2   55.89    2.70
   1   3  -2   50.99    4.10
   1   3  -2   63.19    3.80
  -1  -3   2   50.79    3.40
  -1  -3   2   56.29    2.60
  -1  -3   2   59.09    3.60
  -1  -3   2   57.89    3.30
  -1  -3   2   60.49    3.70
  -1  -3   2   53.39    2.90
  -1  -3   2   55.09    2.90
  -1  -3   2   63.19    3.70
   0   3  -2  341.47   11.70
   0   3  -2  339.37   12.50
   0   3  -2  339.97   12.20
   0   3  -2  330.67   11.70
   0   3  -2  366.86   11.70
   0   3  -2  348.47   11.70
   0  -3   2  337.17   11.60
   0  -3   2  339.37   11.10
   0  -3   2  340.97   12.60
   0  -3   2  331.57   11.50
   0  -3   2  324.67   11.80
   0  -3   2  347.37   11.60
  -1   3  -2  105.59    5.10
  -1   3  -2  101.09    4.70
  -1   3  -2  104.59    4.30
  -1   3  -2  109.59    4.90
  -1   3  -2  104.39    5.60
  -1   3  -2  103.09    4.80
   1  -3   2  112.19    5.20
   1  -3   2  105.29    5.10
   1  -3   2  103.99    4.60
   1  -3   2  104.39    5.50
   1  -3   2  104.79    4.30
   1  -3   2   99.99    4.70
   1  -3   2  107.39    4.90
   1  -3   2  100.89    3.70
   1  -3   2  109.99    4.40
  -2   3  -2  666.63   22.60
  -2   3  -2  715.33   21.00
  -2   3  -2  658.93   22.40
  -2   3  -2  693.63   21.80
  -2   3  -2  671.53   20.60
  -2   3  -2  702.03   23.40
  -2   3  -2  730.83   22.30
   2  -3   2  709.13   20.60
   2  -3   2  680.13   21.70
   2  -3   2  659.03   20.50
   2  -3   2  676.43   23.00
   2  -3   2  672.23   22.40
   2  -3   2  699.33   23.10
   2  -3   2  666.43   22.40
   2  -3   2  658.63   22.70
  -3   3  -2   53.39    3.70
  -3   3  -2   52.19    3.70
  -3   3  -2   57.99    4.30
  -3   3  -2   51.99    3.50
  -3   3  -2   58.99    2.60
   3  -3   2   54.39    2.50
   3  -3   2   52.99    4.10
   3  -3   2   49.50    3.30
   3  -3   2   48.20    3.60
  -4   3  -2   95.49    5.30
  -4   3  -2   91.39    4.00
  -4   3  -2   80.29    5.20
  -4   3  -2   93.59    6.10
   4  -3   2   89.19    5.90
   4  -3   2   95.19    5.60
  -5   3  -2  195.28    9.00
  -5   3  -2  199.98    7.50
  -5   3  -2  199.08   10.20
   5  -3   2  192.48   10.10
   5  -3   2  176.08    7.90
  -6   3  -2  392.36   13.20
  -6   3  -2  337.67   14.60
  -6   3  -2  393.66   15.40
   6  -3   2  364.96   15.50
   6  -3   2  327.37   14.00
  -7   3  -2   29.30    2.70
  -7   3  -2   34.00    4.30
  -7   3  -2   26.50    3.40
   7  -3   2   29.10    3.60
   7  -3   2   28.00    3.80
  -8   3  -2   61.79    5.60
  -8   3  -2   66.89    4.30
  -8   3  -2   71.09    6.60
   8  -3   2   62.79    6.20
   8  -3   2   59.89    5.80
  -9   3  -2  221.28   18.20
  -9   3  -2  299.17   15.90
  -9   3  -2  280.87   14.20
   9  -3   2  301.87   15.60
   9  -3   2  301.57   14.80
 -10   3  -2  269.17   15.00
 -10   3  -2  222.48   10.90
 -10   3  -2  205.58   12.80
  10  -3   2  228.38   13.30
  10  -3   2  266.17   14.60
 -11   3  -2  132.89   10.20
 -11   3  -2  155.98   11.80
  11  -3   2  152.58   10.50
  11  -3   2  148.39   11.40
  11   2  -2  213.68   11.50
 -11  -2   2  231.28   20.10
 -11  -2   2  244.68   13.60
  10   2  -2  125.49    8.00
  10   2  -2  127.29    6.80
  10   2  -2  131.29    8.20
 -10  -2   2  115.29    9.40
 -10  -2   2  128.79    8.60
 -10  -2   2  136.19   10.50
   9   2  -2   95.89    5.50
   9   2  -2   84.39    5.80
  -9  -2   2   73.79    7.00
  -9  -2   2   80.29    6.90
  -9  -2   2   95.19    6.50
   8   2  -2  520.45   19.10
   8   2  -2  541.65   19.80
   8   2  -2  542.95   19.40
  -8  -2   2  506.65   21.80
  -8  -2   2  509.85   21.00
  -8  -2   2  538.25   21.70
   7   2  -2  477.05   17.40
   7   2  -2  480.95   17.10
  -7  -2   2  467.75   19.40
  -7  -2   2  447.76   19.40
  -7  -2   2  480.15   18.00
   6   2  -2  146.19    7.70
   6   2  -2  151.68    7.30
   6   2  -2  150.18    6.90
  -6  -2   2  155.58    8.80
  -6  -2   2  146.69    8.80
   5   2  -2  160.48    7.50
   5   2  -2  162.28    9.00
   5   2  -2  171.28    6.80
  -5  -2   2  166.48    8.80
  -5  -2   2  164.98    8.70
   4   2  -2 1268.67   36.70
   4   2  -2 1222.18   36.70
   4   2  -2 1174.98   37.80
  -4  -2   2 1194.88   37.40
  -4  -2   2 1217.08   39.20
  -4  -2   2 1224.28   39.50
   3   2  -2 2227.18   62.79
   3   2  -2 2194.98   62.89
   3   2  -2 2119.19   64.39
   3   2  -2 2138.89   64.29
  -3  -2   2 2193.58   63.29
  -3  -2   2 2203.38   65.59
  -3  -2   2 2016.30   64.49
  -3  -2   2 2161.08   65.79
  -3  -2   2 2170.48   64.19
   2   2  -2  918.61   29.60
   2   2  -2  964.50   29.90
   2   2  -2  943.81   30.40
   2   2  -2 1024.50   28.60
   2   2  -2  955.80   29.90
  -2  -2   2  960.40   30.50
  -2  -2   2  982.80   28.50
  -2  -2   2 1017.90   30.30
  -2  -2   2  931.91   30.60
  -2  -2   2  926.11   30.30
   1   2  -2   74.09    3.60
   1   2  -2   77.69    3.80
   1   2  -2   73.89    3.00
   1   2  -2   78.69    4.10
   1   2  -2   73.09    3.10
   1   2  -2   74.49    3.40
  -1  -2   2   67.29    3.60
  -1  -2   2   79.09    3.10
  -1  -2   2   77.39    3.80
  -1  -2   2   76.69    3.10
  -1  -2   2   76.09    4.00
  -1  -2   2   75.99    3.50
  -1  -2   2   74.09    3.00
  -1  -2   2   74.69    3.50
   0   2  -2 1623.34   48.40
   0   2  -2 1601.54   47.50
   0   2  -2 1627.64   47.80
   0   2  -2 1636.54   48.00
   0   2  -2 1649.54   47.20
   0   2  -2 1582.74   47.20
   0  -2   2 1500.35   47.20
   0  -2   2 1548.84   47.80
   0  -2   2 1523.35   47.70
   0  -2   2 1630.14   48.50
   0  -2   2 1655.63   47.00
   0  -2   2 1612.14   47.70
   0  -2   2 1668.93   47.50
   0  -2   2 1702.13   47.90
   0  -2   2 1652.23   47.10
  -1   2  -2  323.67   11.40
  -1   2  -2  369.66   11.20
  -1   2  -2  359.16   12.40
  -1   2  -2  343.97   12.10
  -1   2  -2  328.77   10.80
  -1   2  -2  337.37   11.70
   1  -2   2  332.97   12.20
   1  -2   2  364.76   11.60
   1  -2   2  346.97   12.10
   1  -2   2  362.16   11.00
   1  -2   2  343.37   11.60
   1  -2   2  338.37   12.00
  -2   2  -2  617.44   20.80
  -2   2  -2  619.64   21.10
  -2   2  -2  640.34   20.50
  -2   2  -2  686.73   19.60
   2  -2   2  655.53   19.50
   2  -2   2  612.44   21.10
   2  -2   2  625.94   20.80
   2  -2   2  621.14   20.10
   2  -2   2  623.94   20.60
  -3   2  -2   39.90    2.80
  -3   2  -2   38.30    3.10
  -3   2  -2   36.50    1.90
  -3   2  -2   41.00    2.40
   3  -2   2   36.20    3.10
   3  -2   2   38.00    2.90
   3  -2   2   33.70    2.80
   3  -2   2   33.40    2.80
   3  -2   2   41.00    2.30
  -4   2  -2  148.39    6.90
  -4   2  -2  148.99    7.50
  -4   2  -2  157.78    6.20
  -4   2  -2  133.99    5.70
   4  -2   2  135.99    6.10
   4  -2   2  136.89    7.40
   4  -2   2  139.29    7.20
  -5   2  -2  291.57   10.70
  -5   2  -2  273.97   12.30
  -5   2  -2  280.47   11.80
   5  -2   2  282.27   12.40
   5  -2   2  275.17   12.20
  -6   2  -2  186.48    9.80
  -6   2  -2  187.28    8.10
  -6   2  -2  171.08    9.10
   6  -2   2  183.48    9.80
   6  -2   2  176.28    9.40
  -7   2  -2   -0.50    1.20
  -7   2  -2    0.60    0.90
  -7   2  -2    1.80    1.00
   7  -2   2    1.70    1.30
  -8   2  -2  215.48   11.90
  -8   2  -2  232.38   10.70
  -8   2  -2  244.78   12.90
   8  -2   2  233.38   12.20
   8  -2   2  253.77   12.90
  -9   2  -2  146.19   10.00
  -9   2  -2  176.48    9.10
  -9   2  -2  166.58   10.80
   9  -2   2  181.08   11.00
   9  -2   2  186.68   10.70
 -10   2  -2   71.29    7.20
 -10   2  -2   58.89    6.30
 -10   2  -2   67.09    5.80
  10  -2   2   76.59    8.50
  10  -2   2   77.79    7.00
 -11   2  -2  221.28   19.10
 -11   2  -2  166.88   15.30
  11  -2   2  209.48   12.80
  11  -2   2  229.68   13.50
  11   1  -2  231.38   12.30
  11   1  -2  257.37   13.30
 -11  -1   2  245.38   13.80
 -11  -1   2  221.08   13.80
 -11  -1   2  251.37   13.30
  10   1  -2  128.49    8.10
  10   1  -2  130.19    8.20
  10   1  -2  120.89    6.90
 -10  -1   2  124.39    8.70
 -10  -1   2  105.19    8.80
 -10  -1   2  149.69   11.20
   9   1  -2  270.47   11.00
   9   1  -2  288.77   13.60
   9   1  -2  276.07   12.60
  -9  -1   2  273.27   14.10
  -9  -1   2  272.87   13.60
  -9  -1   2  267.47   13.40
   8   1  -2  358.76   14.50
   8   1  -2  361.06   13.60
  -8  -1   2  362.06   15.60
  -8  -1   2  342.27   16.10
  -8  -1   2  347.97   16.00
   7   1  -2    1.50    1.00
   7   1  -2    2.90    0.90
  -7  -1   2   -0.20    0.90
  -7  -1   2    2.00    1.10
  -7  -1   2    1.00    1.10
   6   1  -2   63.09    4.10
   6   1  -2   60.89    3.80
  -6  -1   2   56.39    4.60
  -6  -1   2   61.09    4.80
   5   1  -2  783.22   26.60
   5   1  -2  804.22   25.70
   5   1  -2  782.72   25.40
  -5  -1   2  767.52   26.80
  -5  -1   2  815.12   27.30
   4   1  -2 1041.60   33.00
   4   1  -2 1052.49   31.90
   4   1  -2 1034.10   31.90
  -4  -1   2 1017.90   33.30
  -4  -1   2  992.60   32.10
  -4  -1   2 1010.50   32.20
  -4  -1   2 1025.00   33.40
  -4  -1   2 1083.19   32.00
   3   1  -2  211.38    8.50
   3   1  -2  217.38    7.90
   3   1  -2  213.88    7.70
   3   1  -2  215.38    7.60
   3   1  -2  213.28    7.90
  -3  -1   2  197.08    7.90
  -3  -1   2  204.68    7.70
  -3  -1   2  213.68    8.40
  -3  -1   2  220.28    7.90
  -3  -1   2  208.78    7.70
  -3  -1   2  224.48   10.00
   2   1  -2  806.42   25.60
   2   1  -2  801.82   24.30
   2   1  -2  837.32   24.50
   2   1  -2  831.92   25.30
   2   1  -2  814.12   25.00
   2   1  -2  818.72   25.00
  -2  -1   2  796.72   25.60
  -2  -1   2  809.52   25.20
  -2  -1   2  846.62   24.70
  -2  -1   2  804.02   25.00
   1   1  -2  324.67    9.60
   1   1  -2  314.77   10.50
   1   1  -2  331.47   10.30
   1   1  -2  316.87   10.40
  -1  -1   2  306.67   10.40
  -1  -1   2  335.77   10.30
  -1  -1   2  324.17   10.70
  -1  -1   2  316.47   10.90
  -1  -1   2  314.37   10.30
   0   1  -2  105.49    4.00
   0   1  -2  100.99    3.70
   0   1  -2   93.99    4.10
   0   1  -2   97.59    3.50
   0   1  -2  101.59    4.10
   0   1  -2  107.09    4.00
   0  -1   2  102.39    4.10
   0  -1   2  101.99    4.30
   0  -1   2  108.29    3.90
   0  -1   2   94.89    3.40
   0  -1   2  106.79    3.70
  -1   1  -2    1.00    0.30
  -1   1  -2    0.70    0.40
  -1   1  -2    0.70    0.40
  -1   1  -2    1.40    0.40
  -1   1  -2    0.80    0.30
  -1   1  -2    0.60    0.30
   1  -1   2    0.70    0.40
   1  -1   2    2.00    0.70
   1  -1   2    0.40    0.30
   1  -1   2    1.00    0.40
   1  -1   2    0.40    0.30
  -2   1  -2   13.00    1.40
  -2   1  -2   10.40    1.90
  -2   1  -2   10.50    1.30
  -2   1  -2   10.80    1.10
  -2   1  -2   12.50    1.40
   2  -1   2    9.60    1.20
   2  -1   2    9.90    1.30
   2  -1   2   11.00    1.30
   2  -1   2   13.00    1.40
   2  -1   2   12.40    1.20
  -3   1  -2   37.90    2.40
  -3   1  -2   44.90    2.70
  -3   1  -2   42.80    3.00
  -3   1  -2   40.80    2.90
   3  -1   2   40.30    2.70
   3  -1   2   40.30    3.10
   3  -1   2   40.50    3.00
   3  -1   2   39.10    2.80
  -4   1  -2  918.31   29.70
  -4   1  -2  956.30   29.00
  -4   1  -2  872.61   28.60
  -4   1  -2  906.81   29.60
   4  -1   2  909.51   30.00
   4  -1   2  877.41   28.80
   4  -1   2  925.01   29.70
  -5   1  -2  320.17   13.20
  -5   1  -2  330.67   12.60
   5  -1   2  322.27   13.50
   5  -1   2  337.97   13.40
  -6   1  -2   10.30    2.10
  -6   1  -2   12.70    2.00
  -6   1  -2   12.20    1.90
   6  -1   2    9.60    2.10
   6  -1   2    9.80    2.10
  -7   1  -2   58.79    5.20
  -7   1  -2   64.29    4.70
  -7   1  -2   54.09    4.90
   7  -1   2   61.19    5.00
  -8   1  -2  219.38   12.40
  -8   1  -2  243.58   12.50
  -8   1  -2  258.97   11.80
   8  -1   2  263.97   12.80
   8  -1   2  257.67   12.50
  -9   1  -2  105.19    8.40
  -9   1  -2  119.09    7.80
  -9   1  -2  132.39    8.60
   9  -1   2  124.99    8.70
   9  -1   2  118.09    7.80
 -10   1  -2   57.79    6.20
 -10   1  -2   53.69    5.70
  10  -1   2   54.59    6.20
  10  -1   2   68.79    6.80
  11   0  -2   92.09    7.90
  11   0  -2   91.49    7.60
 -11   0   2   83.29    7.60
 -11   0   2   86.09    7.60
 -11   0   2   85.19    8.30
  10   0  -2  193.28   11.90
  10   0  -2  203.88   11.10
 -10   0   2  175.08   11.20
 -10   0   2  209.58   10.80
 -10   0   2  208.98   12.00
   9   0  -2  554.04   19.30
   9   0  -2  602.84   22.50
  -9   0   2  594.14   23.80
  -9   0   2  596.34   22.30
  -9   0   2  535.65   22.90
   8   0  -2  320.77   13.90
   8   0  -2  317.77   11.80
  -8   0   2  320.97   13.70
  -8   0   2  309.57   14.70
  -8   0   2  308.47   14.40
   7   0  -2   90.19    6.10
   7   0  -2   81.99    4.60
   7   0  -2   91.79    4.80
  -7   0   2   93.39    6.00
  -7   0   2   94.99    6.20
   6   0  -2  455.25   16.30
   6   0  -2  492.65   18.30
   6   0  -2  477.95   16.40
   6   0  -2  481.65   17.90
  -6   0   2  499.25   18.50
  -6   0   2  496.95   16.40
  -6   0   2  484.65   17.90
  -6   0   2  497.45   18.50
   5   0  -2 1220.88   39.00
   5   0  -2 1236.58   38.80
   5   0  -2 1202.98   37.90
  -5   0   2 1280.27   39.30
  -5   0   2 1233.58   38.80
  -5   0   2 1207.08   37.60
  -5   0   2 1202.78   37.30
   4   0  -2  101.59    5.30
   4   0  -2   98.69    4.30
   4   0  -2  101.99    5.30
   4   0  -2  100.19    5.30
   4   0  -2  103.39    4.50
   4   0  -2   95.49    5.40
  -4   0   2   95.79    4.40
  -4   0   2  108.89    4.70
  -4   0   2   98.29    5.20
  -4   0   2  109.99    5.50
   3   0  -2   47.10    2.70
   3   0  -2   42.20    2.30
   3   0  -2   41.30    2.70
   3   0  -2   41.70    2.70
   3   0  -2   42.30    2.80
  -3   0   2   41.20    2.40
  -3   0   2   41.50    2.70
  -3   0   2   45.50    2.90
  -3   0   2   41.60    2.20
  -3   0   2   40.30    2.60
   2   0  -2 2803.82   83.19
   2   0  -2 2885.91   82.69
   2   0  -2 2951.30   83.59
   2   0  -2 2952.90   83.49
   2   0  -2 2814.52   83.59
  -2   0   2 2870.41   83.59
  -2   0   2 2822.32   82.69
  -2   0   2 2797.92   83.39
  -2   0   2 2955.90   83.49
  -2   0   2 2828.72   83.19
  -2   0   2 2847.02   83.59
   1   0  -2 1948.80   57.89
   1   0  -2 2058.09   57.79
   1   0  -2 1959.30   57.99
   1   0  -2 1986.00   58.19
   1   0  -2 2099.19   58.29
   1   0  -2 2000.40   58.19
  -1   0   2 1979.00   57.89
  -1   0   2 1920.11   58.19
  -1   0   2 1928.81   58.09
  -1   0   2 2092.49   58.19
   0   0  -2  156.98    5.40
   0   0  -2  139.29    5.10
   0   0  -2  145.29    5.20
   0   0  -2  135.79    5.10
   0   0  -2  146.49    5.40
   0   0   2  130.99    5.00
   0   0   2  138.89    5.30
   0   0   2  148.49    5.10
   0   0   2  148.39    5.40
   0   0   2  135.09    5.10
  -1   0  -2  438.66   13.30
  -1   0  -2  437.36   13.40
  -1   0  -2  389.56   13.20
  -1   0  -2  405.26   13.00
  -1   0  -2  400.96   13.20
   1   0   2  409.26   13.10
   1   0   2  387.46   12.70
   1   0   2  382.76   13.10
   1   0   2  399.16   13.20
  -2   0  -2  822.52   25.10
  -2   0  -2  795.82   25.10
  -2   0  -2  827.02   25.20
  -2   0  -2  783.72   24.30
  -2   0  -2  801.42   24.10
   2   0   2  754.12   24.00
   2   0   2  771.02   24.90
   2   0   2  786.92   24.90
   2   0   2  801.92   25.20
   2   0   2  817.42   25.30
  -3   0  -2   12.20    1.20
  -3   0  -2   12.50    1.60
  -3   0  -2   12.80    1.40
  -3   0  -2   11.50    1.60
   3   0   2   13.70    1.50
   3   0   2   11.80    1.80
   3   0   2   10.20    1.20
  -4   0  -2   71.59    4.70
  -4   0  -2   76.59    4.60
  -4   0  -2   75.99    4.20
   4   0   2   69.59    4.40
   4   0   2   70.19    4.30
  -5   0  -2    2.30    0.80
  -5   0  -2    0.60    0.80
  -5   0  -2   -0.30    0.70
  -5   0  -2    0.60    0.80
   5   0   2    0.00    0.70
   5   0   2   -0.20    0.60
  -6   0  -2   18.50    2.10
  -6   0  -2   15.30    2.60
  -6   0  -2   12.70    1.70
   6   0   2   15.70    2.80
   6   0   2   16.60    2.30
  -7   0  -2  458.65   21.80
  -7   0  -2  387.96   17.60
  -7   0  -2  429.86   17.40
   7   0   2  411.46   16.90
   7   0   2  432.36   17.10
  -8   0  -2  149.09    8.80
  -8   0  -2  124.99    9.00
  -8   0  -2  148.59    8.30
   8   0   2  137.79    8.40
   8   0   2  139.19    8.30
  -9   0  -2   34.00    4.90
  -9   0  -2   27.50    3.80
  -9   0  -2   22.70    4.10
   9   0   2   30.10    4.30
   9   0   2   24.60    3.90
 -10   0  -2   13.40    3.30
 -10   0  -2   12.20    3.10
  10   0   2    9.40    2.90
  10   0   2   19.40    4.40
  12  -1  -2   54.39    6.80
  12  -1  -2   52.89    7.70
 -12   1   2   53.69    6.40
 -12   1   2   58.69    7.80
  11  -1  -2   14.70    6.70
  11  -1  -2   19.80    4.00
 -11   1   2   18.80    4.90
 -11   1   2   20.70    3.40
  10  -1  -2  225.08   12.20
 -10   1   2  262.47   14.30
 -10   1   2  231.78   11.20
 -10   1   2  209.88   17.10
   9  -1  -2  407.46   17.40
  -9   1   2  371.86   16.80
  -9   1   2  383.66   18.20
   8  -1  -2  223.88   10.90
   8  -1  -2  221.18    9.50
   8  -1  -2  222.58   11.10
  -8   1   2  209.98   10.80
  -8   1   2  212.58   11.80
  -8   1   2  214.08    9.90
   7  -1  -2 1184.78   36.40
   7  -1  -2 1200.38   40.20
   7  -1  -2 1173.18   39.50
  -7   1   2 1177.78   37.70
  -7   1   2 1188.38   40.20
  -7   1   2 1174.88   37.80
  -7   1   2 1172.78   38.80
   6  -1  -2  877.21   29.90
   6  -1  -2  868.11   27.40
   6  -1  -2  855.21   29.30
  -6   1   2  911.71   29.30
  -6   1   2  838.22   27.40
  -6   1   2  883.61   28.50
  -6   1   2  895.71   30.60
  -6   1   2  879.61   28.60
   5  -1  -2  737.23   25.00
   5  -1  -2  722.33   22.70
   5  -1  -2  712.13   24.20
   5  -1  -2  690.63   23.60
  -5   1   2  746.93   23.70
  -5   1   2  737.53   25.20
  -5   1   2  698.73   23.80
  -5   1   2  756.82   24.20
   4  -1  -2  261.57   10.60
   4  -1  -2  256.47   10.30
   4  -1  -2  272.27   10.20
   4  -1  -2  252.07   10.00
  -4   1   2  264.77   10.20
  -4   1   2  279.77   10.10
  -4   1   2  260.27    9.90
   3  -1  -2  116.79    5.70
   3  -1  -2  115.59    5.00
   3  -1  -2  116.69    5.20
   3  -1  -2  117.89    5.20
   3  -1  -2  119.69    5.50
  -3   1   2  115.79    5.00
  -3   1   2  122.79    5.50
  -3   1   2  125.89    4.70
  -3   1   2  126.49    5.00
   2  -1  -2  308.47   10.60
   2  -1  -2  313.87   10.50
   2  -1  -2  296.97   10.60
   2  -1  -2  304.17    9.90
   2  -1  -2  310.07   10.70
   2  -1  -2  322.87   10.10
  -2   1   2  299.07   10.60
  -2   1   2  300.87   10.40
  -2   1   2  305.47    9.80
  -2   1   2  304.97   10.80
  -2   1   2  304.27   10.80
  -2   1   2  334.27    9.90
   1  -1  -2 1658.63   45.70
   1  -1  -2 1514.55   45.90
   1  -1  -2 1524.75   45.80
   1  -1  -2 1494.05   45.90
   1  -1  -2 1504.35   45.60
  -1   1   2 1521.65   45.80
  -1   1   2 1635.14   46.40
  -1   1   2 1552.54   46.10
  -1   1   2 1504.65   45.90
  -1   1   2 1586.14   45.70
   0  -1  -2  685.83   19.90
   0  -1  -2  619.34   20.00
   0  -1  -2  628.84   20.50
   0  -1  -2  624.94   20.10
   0  -1  -2  670.43   20.70
   0  -1  -2  699.53   20.60
   0   1   2  634.24   20.60
   0   1   2  703.83   20.00
   0   1   2  643.64   20.30
   0   1   2  675.03   20.60
   0   1   2  643.64   20.80
   0   1   2  645.74   20.00
  -1  -1  -2  391.66   13.30
  -1  -1  -2  438.56   14.20
  -1  -1  -2  418.36   14.00
  -1  -1  -2  415.66   13.50
  -1  -1  -2  428.06   13.70
   1   1   2  394.56   13.60
   1   1   2  426.86   13.90
   1   1   2  403.26   14.10
   1   1   2  415.26   13.40
  -2  -1  -2  941.21   29.30
  -2  -1  -2  929.01   29.80
  -2  -1  -2  965.90   29.40
  -2  -1  -2  972.10   30.30
  -2  -1  -2  988.10   30.00
   2   1   2  964.20   30.30
   2   1   2  922.21   29.40
   2   1   2  954.40   29.10
  -3  -1  -2   66.89    3.80
  -3  -1  -2   68.69    4.40
  -3  -1  -2   72.69    4.40
   3   1   2   71.79    3.70
   3   1   2   69.49    3.40
   3   1   2   71.39    4.00
  -4  -1  -2   50.09    3.90
  -4  -1  -2   48.30    3.90
   4   1   2   46.20    2.70
   4   1   2   48.50    3.40
   4   1   2   42.70    3.10
  -5  -1  -2   14.30    2.20
  -5  -1  -2   16.70    2.50
  -5  -1  -2   16.90    1.70
   5   1   2   21.80    2.40
   5   1   2   19.40    2.00
   5   1   2   17.40    1.70
  -6  -1  -2   93.69    6.60
  -6  -1  -2   90.59    6.30
   6   1   2   96.69    5.80
   6   1   2   93.19    5.60
  -7  -1  -2  239.18   12.00
  -7  -1  -2  219.78   11.90
   7   1   2  238.68   11.00
   7   1   2  231.78   10.50
  -8  -1  -2   95.49    6.90
  -8  -1  -2   87.19    7.20
   8   1   2   90.19    6.50
   8   1   2   89.09    6.20
  -9  -1  -2   27.50    4.30
  -9  -1  -2   35.60    4.90
   9   1   2   32.80    4.80
   9   1   2   39.60    4.80
 -10  -1  -2   35.10    8.60
 -10  -1  -2   46.30    5.90
  10   1   2   57.39    5.10
  12  -2  -2   -6.20    2.70
 -12   2   2   -3.40    1.90
  11  -2  -2    2.10    2.60
  11  -2  -2    4.70    2.90
 -11   2   2   -2.00    2.00
 -11   2   2    1.70    3.10
 -11   2   2    7.50    2.30
  10  -2  -2  150.38    9.90
 -10   2   2  129.79    8.80
 -10   2   2  142.29    7.40
 -10   2   2  151.78   10.50
   9  -2  -2  232.98   12.50
   9  -2  -2  238.58   11.60
  -9   2   2  226.98   11.50
  -9   2   2  232.78   13.40
  -9   2   2  240.18   10.00
   8  -2  -2  158.18    9.30
   8  -2  -2  149.79    8.50
  -8   2   2  161.28   10.20
  -8   2   2  152.08    8.40
  -8   2   2  153.98    7.20
  -8   2   2  155.38    8.30
   7  -2  -2 1383.36   44.70
   7  -2  -2 1338.17   41.30
   7  -2  -2 1386.16   47.30
  -7   2   2 1369.46   46.40
  -7   2   2 1322.87   43.90
  -7   2   2 1410.26   43.80
   6  -2  -2  669.33   23.40
   6  -2  -2  669.33   24.70
   6  -2  -2  671.13   21.40
  -6   2   2  674.03   21.80
  -6   2   2  713.83   31.10
  -6   2   2  685.13   23.00
  -6   2   2  671.43   23.80
   5  -2  -2  277.37   11.10
   5  -2  -2  288.27   12.30
   5  -2  -2  273.57   11.00
  -5   2   2  296.07   12.60
  -5   2   2  273.77    9.90
  -5   2   2  268.17   11.60
  -5   2   2  302.97   10.80
   4  -2  -2  487.65   18.10
   4  -2  -2  491.05   16.80
   4  -2  -2  481.35   16.40
  -4   2   2  533.85   16.20
  -4   2   2  481.05   17.70
  -4   2   2  500.45   18.30
   3  -2  -2  704.13   22.40
   3  -2  -2  694.83   23.90
   3  -2  -2  724.03   25.20
   3  -2  -2  773.82   22.50
   3  -2  -2  750.92   23.50
   3  -2  -2  723.43   24.10
  -3   2   2  706.93   23.20
  -3   2   2  771.82   24.70
  -3   2   2  774.52   22.30
  -3   2   2  809.02   22.30
  -3   2   2  709.23   24.30
  -3   2   2  727.93   24.20
   2  -2  -2  609.24   20.50
   2  -2  -2  593.84   20.40
   2  -2  -2  650.13   19.30
   2  -2  -2  621.64   20.10
   2  -2  -2  644.24   18.90
   2  -2  -2  610.44   20.60
  -2   2   2  660.23   21.00
  -2   2   2  663.93   19.40
  -2   2   2  594.74   20.10
  -2   2   2  607.64   20.70
  -2   2   2  659.83   20.80
   1  -2  -2   41.50    2.40
   1  -2  -2   36.80    2.60
   1  -2  -2   39.80    2.20
   1  -2  -2   35.40    2.50
   1  -2  -2   40.40    2.40
   1  -2  -2   36.80    2.80
  -1   2   2   39.90    2.80
  -1   2   2   40.00    2.80
  -1   2   2   45.00    2.50
  -1   2   2   40.00    2.70
  -1   2   2   37.60    2.50
  -1   2   2   40.60    2.50
   0  -2  -2   61.39    2.80
   0  -2  -2   60.79    3.50
   0  -2  -2   62.49    3.30
   0  -2  -2   60.49    2.90
   0  -2  -2   61.99    3.40
   0  -2  -2   55.39    3.50
   0   2   2   63.29    3.90
   0   2   2   66.69    2.90
   0   2   2   63.89    3.00
   0   2   2   59.79    3.50
   0   2   2   64.09    4.80
   0   2   2   62.99    3.70
   0   2   2   61.59    3.00
   0   2   2   59.39    3.50
  -1  -2  -2  919.41   28.90
  -1  -2  -2  938.11   29.40
  -1  -2  -2  934.31   29.50
  -1  -2  -2  973.30   28.80
  -1  -2  -2  867.81   28.50
  -1  -2  -2  918.21   28.10
   1   2   2  973.10   27.90
   1   2   2  885.11   29.80
   1   2   2  920.71   28.80
  -2  -2  -2  321.17   11.60
  -2  -2  -2  291.17   11.80
  -2  -2  -2  289.47   10.40
  -2  -2  -2  289.77   11.80
   2   2   2  300.17   10.70
   2   2   2  311.17   10.20
   2   2   2  303.37   12.40
   2   2   2  313.67   11.10
  -3  -2  -2   87.39    4.60
  -3  -2  -2   98.19    5.60
  -3  -2  -2   99.09    5.90
   3   2   2  100.09    5.00
   3   2   2   94.09    4.30
   3   2   2   96.39    4.70
  -4  -2  -2  239.78   11.00
  -4  -2  -2  235.98   10.80
   4   2   2  234.68    9.20
   4   2   2  227.68    8.70
   4   2   2  242.28    9.80
  -5  -2  -2   10.10    2.10
  -5  -2  -2   10.70    2.30
   5   2   2   13.50    1.70
   5   2   2   14.60    2.00
   5   2   2   10.40    1.60
  -6  -2  -2  108.09    7.50
  -6  -2  -2  111.59    7.60
   6   2   2  131.29    6.80
   6   2   2  120.39    5.80
  -7  -2  -2   75.69    6.30
  -7  -2  -2   77.79    6.50
   7   2   2   71.59    4.70
   7   2   2   83.99    5.70
  -8  -2  -2   -0.10    2.70
  -8  -2  -2   -1.70    1.30
   8   2   2    0.10    1.90
   8   2   2   -0.50    1.70
  -9  -2  -2   41.40    5.30
  -9  -2  -2   49.00    6.00
   9   2   2   41.80    5.00
  12  -3  -2   -1.80    2.90
  12  -3  -2    3.30    2.20
 -12   3   2    1.70    2.30
  11  -3  -2   34.70    5.90
 -11   3   2   37.40    6.80
 -11   3   2   39.40    5.10
  10  -3  -2   31.30    3.80
  10  -3  -2   18.20    3.70
 -10   3   2   19.90    3.50
 -10   3   2   17.80    8.00
   9  -3  -2    4.10    2.00
   9  -3  -2    0.10    1.60
  -9   3   2    3.70    1.70
  -9   3   2    4.90    2.60
   8  -3  -2  211.18   11.90
  -8   3   2  216.58   12.60
  -8   3   2  222.98   12.40
  -8   3   2  217.08   10.50
   7  -3  -2  495.55   16.60
   7  -3  -2  514.85   19.10
   7  -3  -2  515.15   21.00
  -7   3   2  496.25   21.50
  -7   3   2  537.95   18.60
   6  -3  -2  807.82   27.20
   6  -3  -2  793.62   29.10
  -6   3   2  800.22   28.50
  -6   3   2  855.01   26.40
  -6   3   2  799.92   29.70
   5  -3  -2  797.02   26.30
   5  -3  -2  760.32   25.70
   5  -3  -2  789.22   28.40
  -5   3   2  870.01   25.70
  -5   3   2  813.32   28.10
  -5   3   2  808.52   28.80
   4  -3  -2 1330.17   40.80
   4  -3  -2 1337.27   41.90
   4  -3  -2 1402.26   44.20
  -4   3   2 1431.06   44.40
  -4   3   2 1364.66   43.50
  -4   3   2 1347.67   43.70
   3  -3  -2 1659.53   50.69
   3  -3  -2 1667.43   49.30
  -3   3   2 1723.23   52.39
  -3   3   2 1666.43   51.99
  -3   3   2 1674.93   52.29
  -3   3   2 1692.33   49.40
   2  -3  -2  225.88    9.10
   2  -3  -2  231.68    9.00
   2  -3  -2  252.87    8.40
   2  -3  -2  229.68    8.30
   2  -3  -2  228.28    8.50
  -2   3   2  231.38    9.90
  -2   3   2  231.68    9.90
  -2   3   2  238.18    8.50
  -2   3   2  221.88    9.60
  -2   3   2  231.38   10.60
   1  -3  -2  200.78    7.80
   1  -3  -2  192.38    8.10
   1  -3  -2  194.38    7.60
   1  -3  -2  192.28    7.30
  -1   3   2  192.58    8.50
  -1   3   2  193.08    7.80
  -1   3   2  181.18    7.80
  -1   3   2  180.48    8.40
  -1   3   2  204.38    7.90
   0  -3  -2  747.83   23.10
   0  -3  -2  740.33   24.40
   0  -3  -2  790.22   23.30
   0  -3  -2  704.93   24.60
   0   3   2  759.22   23.70
   0   3   2  759.52   23.50
   0   3   2  737.63   23.40
   0   3   2  757.72   24.80
   0   3   2  768.42   25.50
  -1  -3  -2  777.02   26.20
  -1  -3  -2  766.82   24.30
  -1  -3  -2  765.52   26.20
  -1  -3  -2  840.32   25.50
   1   3   2  777.52   25.60
   1   3   2  786.92   25.80
   1   3   2  801.02   24.30
   1   3   2  843.82   26.30
   1   3   2  810.12   25.20
   1   3   2  769.92   27.00
  -2  -3  -2   24.90    2.40
  -2  -3  -2   20.50    2.40
  -2  -3  -2   19.20    2.50
   2   3   2   23.80    2.20
   2   3   2   30.70    2.60
   2   3   2   26.30    2.90
  -3  -3  -2  127.69    7.40
  -3  -3  -2  134.59    7.10
   3   3   2  138.39    6.50
   3   3   2  119.89    7.60
   3   3   2  122.49    6.10
  -4  -3  -2  299.97   14.80
  -4  -3  -2  280.77   13.20
   4   3   2  304.97   14.00
  -5  -3  -2  136.99    8.50
  -5  -3  -2  144.99    8.50
   5   3   2  130.49    7.90
   5   3   2  140.99    9.10
   5   3   2  141.39    7.30
  -6  -3  -2   25.20    3.70
  -6  -3  -2   22.60    3.40
   6   3   2   28.40    3.00
  -7  -3  -2   26.40    4.20
  -7  -3  -2   32.50    4.50
   7   3   2   29.00    3.70
  -8  -3  -2    0.80    1.90
  -8  -3  -2   -0.20    2.10
   8   3   2   -1.60    1.60
   8   3   2    2.40    3.20
  -9  -3  -2   61.89    6.80
  -9  -3  -2   61.99    7.30
   9   3   2   71.29    6.20
   9   3   2   57.19    7.40
  12  -4  -2    0.10    2.90
  12  -4  -2    4.80    4.40
 -12   4   2    9.10    4.00
 -12   4   2    0.60    3.10
  11  -4  -2   91.89    8.50
 -11   4   2   94.09    9.70
  10  -4  -2   16.20    4.10
  10  -4  -2   15.70    3.10
 -10   4   2    6.50    3.40
 -10   4   2   12.50    2.80
 -10   4   2    8.70    2.70
   9  -4  -2   11.10    2.50
   9  -4  -2   15.00    3.40
  -9   4   2   15.30    3.00
  -9   4   2   19.80    3.10
  -9   4   2   18.50    4.60
   8  -4  -2  180.48   11.30
  -8   4   2  181.08   11.90
  -8   4   2  190.48   10.60
   7  -4  -2   13.30    3.10
   7  -4  -2   13.10    1.50
   7  -4  -2   12.80    2.50
  -7   4   2   16.60    3.60
  -7   4   2   18.40    2.20
  -7   4   2   21.60    3.20
   6  -4  -2  491.15   19.70
   6  -4  -2  468.35   17.00
   6  -4  -2  446.76   15.20
   6  -4  -2  425.06   17.80
  -6   4   2  472.35   19.20
  -6   4   2  478.15   20.10
  -6   4   2  471.35   16.00
   5  -4  -2  336.17   12.10
   5  -4  -2  350.86   15.50
   5  -4  -2  359.26   13.40
  -5   4   2  361.06   12.00
  -5   4   2  357.06   15.40
  -5   4   2  362.76   15.90
   4  -4  -2 1338.97   41.80
   4  -4  -2 1367.86   44.40
  -4   4   2 1355.06   44.20
  -4   4   2 1322.17   43.70
  -4   4   2 1366.56   44.50
   3  -4  -2 2442.56   73.89
   3  -4  -2 2446.96   75.29
   3  -4  -2 2585.84   73.79
  -3   4   2 2576.84   77.29
  -3   4   2 2550.64   77.49
  -3   4   2 2525.15   77.09
   2  -4  -2  482.15   16.90
   2  -4  -2  488.85   16.00
   2  -4  -2  467.25   16.00
  -2   4   2  472.35   16.00
  -2   4   2  456.85   17.70
  -2   4   2  444.46   17.20
  -2   4   2  469.65   17.80
   1  -4  -2 1110.39   34.00
   1  -4  -2 1086.39   34.80
   1  -4  -2 1082.79   33.40
  -1   4   2 1060.09   34.40
  -1   4   2 1074.19   35.40
  -1   4   2 1083.09   35.70
   0  -4  -2  400.46   15.40
   0  -4  -2  414.56   13.80
   0  -4  -2  404.36   13.50
   0  -4  -2  403.96   15.10
   0   4   2  404.26   14.30
   0   4   2  421.06   15.70
   0   4   2  408.86   14.10
   0   4   2  399.86   15.20
   0   4   2  416.26   16.20
  -1  -4  -2   82.29    5.30
  -1  -4  -2   84.69    5.10
  -1  -4  -2   79.09    3.70
  -1  -4  -2   84.49    5.30
   1   4   2   78.49    4.80
   1   4   2   84.39    5.10
   1   4   2   83.59    3.90
   1   4   2   79.69    4.50
   1   4   2   78.29    5.70
  -2  -4  -2    0.20    0.60
  -2  -4  -2    0.50    0.60
  -2  -4  -2    0.50    0.70
   2   4   2    0.40    1.00
   2   4   2    1.30    0.80
   2   4   2    0.60    0.70
  -3  -4  -2  183.68    9.20
  -3  -4  -2  182.48    9.70
  -3  -4  -2  175.38    9.50
   3   4   2  164.38    9.70
   3   4   2  178.58    8.60
   3   4   2  180.18    8.40
   3   4   2  174.38    8.40
  -4  -4  -2  121.99    7.40
  -4  -4  -2  120.09    7.90
  -4  -4  -2  119.19    7.80
   4   4   2  134.29    7.20
   4   4   2  115.19    8.10
   4   4   2  120.99    6.50
   4   4   2  121.89    8.30
  -5  -4  -2    1.80    1.60
  -5  -4  -2    2.60    1.50
   5   4   2    3.80    1.30
   5   4   2    3.20    1.40
   5   4   2    3.40    1.30
   5   4   2    3.50    1.50
  -6  -4  -2   79.99    6.60
  -6  -4  -2   90.59    7.40
   6   4   2   80.69    7.80
   6   4   2   89.59    6.00
   6   4   2   94.79    6.10
  -7  -4  -2   35.60    4.90
  -7  -4  -2   49.20    5.70
  -7  -4  -2   37.00    5.40
   7   4   2   37.70    5.80
   7   4   2   44.90    4.50
  -8  -4  -2    5.60    2.60
  -8  -4  -2    9.50    3.00
  -8  -4  -2    6.90    2.90
   8   4   2    2.80    3.20
   8   4   2    6.90    2.60
  11  -5  -2   81.99    7.40
  11  -5  -2   71.49    7.90
 -11   5   2   64.59    6.90
 -11   5   2   81.59    9.00
 -11   5   2   82.99    6.90
  10  -5  -2   24.70    3.50
 -10   5   2   19.60    4.90
 -10   5   2   21.40    4.00
 -10   5   2   12.50    3.00
  -9   5   2   61.09    6.20
  -9   5   2   63.29    5.20
   8  -5  -2   84.59    6.10
   8  -5  -2   84.19    7.60
  -8   5   2   92.89    7.30
  -8   5   2   79.69    5.40
  -8   5   2   91.89    8.50
   7  -5  -2    2.90    1.40
   7  -5  -2    4.00    1.40
  -7   5   2    3.90    1.30
  -7   5   2    5.10    2.40
  -7   5   2    6.10    2.00
   6  -5  -2   89.69    5.50
   6  -5  -2   90.19    7.10
   6  -5  -2   89.99    4.50
  -6   5   2   98.69    7.20
  -6   5   2   85.99    7.30
   5  -5  -2  278.27   11.50
   5  -5  -2  297.97   14.20
  -5   5   2  297.87   13.90
  -5   5   2  295.77   14.80
  -5   5   2  269.17   16.00
   4  -5  -2  822.72   25.70
   4  -5  -2  809.32   27.50
  -4   5   2  852.61   30.30
  -4   5   2  861.71   29.90
   3  -5  -2  561.94   20.60
   3  -5  -2  562.24   19.50
  -3   5   2  565.44   19.60
  -3   5   2  632.74   27.30
  -3   5   2  647.84   22.80
   2  -5  -2  674.73   23.40
   2  -5  -2  706.03   24.20
  -2   5   2  714.73   25.60
  -2   5   2  683.93   25.40
  -2   5   2  711.63   24.90
   1  -5  -2 1705.93   51.99
   1  -5  -2 1679.13   52.89
  -1   5   2 1649.33   52.49
  -1   5   2 1679.33   53.79
  -1   5   2 1728.03   55.09
   0  -5  -2  870.61   34.70
   0  -5  -2  794.22   25.60
   0  -5  -2  830.12   27.90
   0  -5  -2  821.92   26.10
   0   5   2  785.32   26.70
   0   5   2  847.32   29.70
   0   5   2  820.12   28.60
  -1  -5  -2  156.38    8.30
  -1  -5  -2  153.08    7.20
   1   5   2  142.09    9.60
   1   5   2  152.18    8.10
  -2  -5  -2  114.09    7.20
  -2  -5  -2  108.19    6.30
  -2  -5  -2  111.39    7.10
   2   5   2  128.09    7.10
   2   5   2  106.59    7.70
   2   5   2  112.49    6.20
  -3  -5  -2  228.58   11.70
  -3  -5  -2  207.28   11.20
  -3  -5  -2  205.88   10.60
   3   5   2  229.88   11.70
   3   5   2  226.48   10.40
   3   5   2  219.68    9.90
   3   5   2  215.48   12.10
  -4  -5  -2   12.30    2.00
  -4  -5  -2    7.80    2.30
  -4  -5  -2   10.00    2.50
   4   5   2    8.00    1.90
   4   5   2    9.80    2.00
   4   5   2    9.80    2.40
   4   5   2    9.10    2.10
  -5  -5  -2   -2.10    1.00
  -5  -5  -2   -2.40    1.40
  -5  -5  -2   -0.30    1.40
   5   5   2   -1.00    0.90
   5   5   2    0.40    1.10
   5   5   2   -1.00    1.20
  -6  -5  -2  103.99    8.70
  -6  -5  -2  118.89    9.00
  -6  -5  -2  116.89    8.40
   6   5   2  119.39    9.40
   6   5   2  112.39    7.40
   6   5   2  133.69    7.30
  -7  -5  -2   55.89    6.10
  -7  -5  -2   58.89    6.30
  -7  -5  -2   53.89    6.50
   7   5   2   62.89    6.90
   7   5   2   51.59    6.10
  -8  -5  -2   -0.90    2.90
  -8  -5  -2   -3.60    2.10
  11  -6  -2    3.90    2.50
  11  -6  -2   -2.20    2.50
 -11   6   2   -1.50    2.30
 -11   6   2    2.00    3.10
 -11   6   2   -1.50    2.70
  10  -6  -2    9.80    2.80
  10  -6  -2    4.10    2.90
 -10   6   2   11.10    2.90
 -10   6   2   12.30    4.50
 -10   6   2    6.30    3.00
   9  -6  -2   98.39    9.00
   9  -6  -2   94.29    6.70
  -9   6   2  104.19    8.50
  -9   6   2  108.49   10.20
  -9   6   2  118.99   10.00
   8  -6  -2   92.39    8.40
   8  -6  -2   91.39    6.30
  -8   6   2   90.89    7.90
  -8   6   2  100.69    9.20
  -8   6   2   97.59    5.50
   7  -6  -2    0.30    1.30
  -7   6   2    1.50    2.00
   6  -6  -2    6.70    2.40
   6  -6  -2    6.00    1.60
  -6   6   2    6.40    2.50
  -6   6   2   10.60    2.80
   5  -6  -2  534.45   22.00
  -5   6   2  512.15   21.10
  -5   6   2  527.35   22.10
  -5   6   2  481.85   21.90
   4  -6  -2   73.39    3.60
  -4   6   2   72.69    6.40
  -4   6   2   56.89    4.80
  -4   6   2   73.89    6.00
  -3   6   2    3.20    1.40
  -3   6   2    2.90    1.70
   2  -6  -2 1028.50   32.70
   2  -6  -2 1021.40   34.30
  -2   6   2 1031.70   36.10
  -2   6   2 1004.30   34.90
   1  -6  -2 1029.90   33.30
   1  -6  -2 1010.50   30.90
  -1   6   2  996.20   35.20
  -1   6   2 1005.90   35.90
   0  -6  -2  510.15   19.40
   0  -6  -2  504.65   17.50
   0  -6  -2  512.65   20.10
   0   6   2  513.75   21.40
   0   6   2  514.15   18.60
   0   6   2  524.15   20.50
  -1  -6  -2  341.17   15.20
  -1  -6  -2  343.17   13.30
  -1  -6  -2  332.67   14.70
   1   6   2  339.27   13.60
   1   6   2  344.37   15.10
   1   6   2  345.47   16.20
  -2  -6  -2  961.50   34.40
  -2  -6  -2  988.70   32.50
  -2  -6  -2  977.30   34.30
   2   6   2  923.01   35.60
   2   6   2  965.90   33.50
   2   6   2  995.60   32.40
  -3  -6  -2  140.19    9.20
  -3  -6  -2  156.08    9.60
  -3  -6  -2  147.89    8.40
   3   6   2  151.98    8.60
   3   6   2  140.69    8.30
   3   6   2  150.08    9.90
   3   6   2  164.18    8.30
  -4  -6  -2   -0.90    1.40
  -4  -6  -2    2.70    1.70
  -4  -6  -2    2.30    1.20
   4   6   2    2.70    1.50
   4   6   2    2.10    1.20
   4   6   2    0.40    1.00
   4   6   2    0.40    2.00
  -5  -6  -2   72.89    7.10
  -5  -6  -2   89.49    7.70
  -5  -6  -2   88.79    6.80
   5   6   2   89.29    6.10
   5   6   2   84.89    8.00
   5   6   2   88.49    6.60
  -6  -6  -2    3.20    1.80
  -6  -6  -2   -0.80    1.90
  -6  -6  -2    2.10    2.10
   6   6   2    4.90    3.00
   6   6   2    1.90    2.60
   6   6   2   -2.40    2.20
  -7  -6  -2    2.20    2.10
  -7  -6  -2    2.60    2.30
  -7  -6  -2   -2.50    2.10
   7   6   2    6.10    2.70
   7   6   2    7.80    3.00
  11  -7  -2    6.00    3.10
 -11   7   2    6.00    3.80
 -11   7   2    9.30    3.50
  10  -7  -2   13.90    3.00
 -10   7   2   10.80    3.70
 -10   7   2   15.70    4.70
   9  -7  -2   54.59    7.00
   9  -7  -2   52.59    4.80
  -9   7   2   46.80    6.30
  -9   7   2   39.10    7.50
   8  -7  -2  178.98   13.00
   8  -7  -2  181.58   12.10
  -8   7   2  175.98   13.00
  -8   7   2  180.58   16.00
   7  -7  -2  385.96   15.40
   7  -7  -2  360.26   18.40
  -7   7   2  367.86   18.60
  -7   7   2  355.86   19.50
   6  -7  -2  258.47   14.40
   6  -7  -2  255.67   11.40
  -6   7   2  258.57   14.70
  -6   7   2  257.27   14.00
  -6   7   2  257.27   15.00
   5  -7  -2  114.59    6.60
   5  -7  -2  111.79    8.50
  -5   7   2   93.49    8.20
  -5   7   2  107.39    8.60
  -5   7   2  102.79    8.00
   4  -7  -2   21.20    2.90
  -4   7   2   17.70    3.50
  -4   7   2   23.00    4.40
  -4   7   2   19.50    4.00
   3  -7  -2  132.69    7.70
  -3   7   2  131.89    9.20
  -3   7   2  134.19    9.10
   2  -7  -2  526.95   19.20
   2  -7  -2  540.25   20.80
  -2   7   2  527.45   24.40
  -2   7   2  544.05   22.60
  -2   7   2  538.85   22.40
   1  -7  -2  351.26   15.60
   1  -7  -2  361.36   15.40
  -1   7   2  373.16   15.60
  -1   7   2  340.47   16.40
  -1   7   2  372.16   17.50
   0  -7  -2  577.94   22.80
   0  -7  -2  569.34   22.00
   0   7   2  571.64   21.10
   0   7   2  580.94   23.40
   0   7   2  603.94   24.60
  -1  -7  -2  597.84   24.70
  -1  -7  -2  640.64   22.30
  -1  -7  -2  626.24   24.40
   1   7   2  603.64   26.40
   1   7   2  630.44   24.70
   1   7   2  706.03   24.60
  -2  -7  -2  787.12   29.90
  -2  -7  -2  803.82   27.50
  -2  -7  -2  767.42   29.40
   2   7   2  779.82   29.00
   2   7   2  771.12   31.20
  -3  -7  -2  220.58   10.90
  -3  -7  -2  206.48   12.20
   3   7   2  185.58   13.40
   3   7   2  205.88   11.00
  -4  -7  -2  186.98   11.90
  -4  -7  -2  221.68   12.70
  -4  -7  -2  207.88   11.30
   4   7   2  191.58   13.10
   4   7   2  209.38   10.90
  -5  -7  -2  154.08    9.80
  -5  -7  -2  143.69   10.30
  -5  -7  -2  131.59   10.00
   5   7   2  141.89    8.90
   5   7   2  138.69   11.10
  -6  -7  -2   -0.50    2.10
  -6  -7  -2   -3.20    1.70
  -6  -7  -2   -1.30    2.00
   6   7   2    5.30    2.40
   6   7   2   -1.10    2.10
  10  -8  -2    5.00    3.40
  10  -8  -2    3.10    2.50
 -10   8   2   -0.30    2.70
 -10   8   2    3.80    2.70
   9  -8  -2    8.20    2.90
   9  -8  -2    4.00    2.20
  -9   8   2    3.80    2.90
  -9   8   2    1.30    2.50
   8  -8  -2   -2.90    1.90
   8  -8  -2    2.60    1.40
  -8   8   2   -2.00    2.50
  -8   8   2    2.70    2.40
   7  -8  -2  127.09   10.10
  -7   8   2  143.09   11.10
  -7   8   2  120.49   10.70
   6  -8  -2  151.38   11.20
   6  -8  -2  167.38    8.80
  -6   8   2  145.89   11.40
  -6   8   2  161.28   10.90
  -6   8   2  165.38   11.60
   5  -8  -2   32.10    4.90
   5  -8  -2   42.20    4.00
  -5   8   2   33.20    4.90
  -5   8   2   34.40    6.10
  -5   8   2   35.10    5.30
   4  -8  -2   88.79    4.90
   4  -8  -2   98.09    6.60
   4  -8  -2   90.79    8.00
  -4   8   2   94.39    8.20
  -4   8   2   81.99    7.60
  -4   8   2   92.99    7.70
   3  -8  -2  208.88    9.30
   3  -8  -2  212.28   10.70
  -3   8   2  208.68   12.30
  -3   8   2  209.08   12.80
  -3   8   2  195.88   12.30
   2  -8  -2   69.49    5.80
   2  -8  -2   76.59    5.60
  -2   8   2   76.09    7.00
  -2   8   2   65.99    6.70
   1  -8  -2    0.00    0.90
   1  -8  -2    1.90    1.30
  -1   8   2    0.50    1.70
  -1   8   2    1.40    1.70
  -1   8   2    1.30    2.20
   0  -8  -2   93.19    7.40
   0  -8  -2   92.89    6.80
   0   8   2   91.99    6.00
   0   8   2   80.89    7.20
   0   8   2  100.09    8.70
  -1  -8  -2  520.65   19.10
  -1  -8  -2  488.55   21.20
  -1  -8  -2  514.35   22.20
   1   8   2  521.95   22.20
   1   8   2  536.05   24.20
  -2  -8  -2  289.87   12.90
  -2  -8  -2  295.37   15.40
   2   8   2  282.47   16.70
   2   8   2  293.67   14.70
  -3  -8  -2  149.88   11.00
  -3  -8  -2  178.98    9.80
  -3  -8  -2  161.48   10.90
   3   8   2  171.48   12.30
   3   8   2  169.98   10.30
  -4  -8  -2  244.88   13.10
  -4  -8  -2  212.48   13.50
  -4  -8  -2  245.88   14.00
   4   8   2  220.88   12.30
   4   8   2  223.48   14.90
  -5  -8  -2  104.59   11.00
  -5  -8  -2   95.19    9.70
  -5  -8  -2   82.79    7.10
   5   8   2   72.49    8.40
   9  -9  -2   20.80    3.80
  -9   9   2   17.90    4.70
  -9   9   2   14.70    5.50
   8  -9  -2    6.10    2.20
   8  -9  -2    9.50    2.90
  -8   9   2    3.30    3.50
  -8   9   2    1.00    2.50
   7  -9  -2   62.39    5.10
   7  -9  -2   45.00    6.70
  -7   9   2   48.70    6.90
  -7   9   2   45.50    8.50
   6  -9  -2   93.79    8.90
   6  -9  -2   84.09    6.20
  -6   9   2   93.69    8.70
  -6   9   2   86.49    9.30
  -6   9   2   83.19    7.80
   5  -9  -2  125.59    8.00
   5  -9  -2  100.09   11.40
  -5   9   2  113.99    9.20
  -5   9   2  120.89    9.50
  -5   9   2  118.09   10.60
   4  -9  -2  195.68   10.60
   4  -9  -2  178.28    8.70
   4  -9  -2  203.58   13.20
  -4   9   2  194.38   13.00
  -4   9   2  200.58   13.10
   3  -9  -2  345.07   15.80
  -3   9   2  320.57   17.20
  -3   9   2  354.46   18.40
  -3   9   2  342.57   24.40
   2  -9  -2  122.79    7.30
   2  -9  -2  132.99    8.10
  -2   9   2  119.89   12.10
  -2   9   2  128.09    9.30
  -2   9   2  116.59    9.60
   1  -9  -2   47.80    4.80
   1  -9  -2   48.40    5.20
  -1   9   2   49.50    6.20
  -1   9   2   39.30    5.90
   0  -9  -2  194.28    8.50
   0  -9  -2  173.38   11.20
   0   9   2  177.08    9.50
   0   9   2  196.48   13.50
   0   9   2  186.18   12.00
  -1  -9  -2  245.88   14.10
  -1  -9  -2  263.07   11.40
  -1  -9  -2  248.78   13.70
   1   9   2  245.78   14.20
   1   9   2  259.47   16.30
  -2  -9  -2   57.39    6.50
  -2  -9  -2   61.89    6.10
  -2  -9  -2   59.39    5.10
   2   9   2   50.89    7.00
   2   9   2   45.60    6.10
  -3  -9  -2  161.88   11.10
  -3  -9  -2  163.48    9.50
  -3  -9  -2  168.78   11.70
   3   9   2  158.78   11.00
   3   9   2  141.79   11.70
  -4  -9  -2  304.67   15.00
  -4  -9  -2  325.37   17.80
  -4  -9  -2  281.37   21.30
   8 -10  -2   35.50    4.40
   8 -10  -2   13.00    4.60
  -8  10   2   23.90    5.40
   7 -10  -2    1.30    2.00
   7 -10  -2    1.80    2.30
  -7  10   2   -3.40    2.50
   6 -10  -2   -0.80    1.70
   6 -10  -2   -0.20    2.20
  -6  10   2    3.70    2.40
  -6  10   2    1.80    1.80
  -6  10   2   -1.70    2.70
   5 -10  -2   94.39    9.40
   5 -10  -2   94.59    7.40
  -5  10   2  100.99    8.70
  -5  10   2   85.39    9.10
  -5  10   2   85.89    9.30
   4 -10  -2  172.48   10.70
   4 -10  -2  159.68    8.30
   4 -10  -2  179.48   13.10
  -4  10   2  161.18   12.20
  -4  10   2  157.08   12.30
  -4  10   2  171.98   12.50
   3 -10  -2  185.18    9.50
   3 -10  -2  185.58   11.50
  -3  10   2  184.68   13.40
  -3  10   2  180.48   12.70
  -3  10   2  189.38   13.20
   2 -10  -2   86.19    7.30
  -2  10   2   78.69    8.00
  -2  10   2   77.09    8.70
  -2  10   2   79.69    8.50
   1 -10  -2  242.88   13.30
   1 -10  -2  214.48   11.80
  -1  10   2  221.78   14.00
  -1  10   2  234.48   15.50
  -1  10   2  220.68   12.20
   0 -10  -2  189.48   11.30
   0 -10  -2  196.18   12.40
   0  10   2  189.18   12.90
   0  10   2  206.68   14.40
  -1 -10  -2   11.70    3.90
   1  10   2   13.70    4.10
   1  10   2   12.40    4.10
  -2 -10  -2   15.70    3.80
  -2 -10  -2   12.10    3.80
  -2 -10  -2   11.00    2.90
   2  10   2   13.60    4.20
   2  10   2   18.60    4.70
   7 -11  -2    5.90    2.80
   7 -11  -2    4.80    3.50
  -7  11   2   10.30    4.70
  -7  11   2   18.90    4.50
   6 -11  -2    7.00    3.20
  -6  11   2   13.40    4.90
   5 -11  -2    3.20    2.20
  -5  11   2   -5.00    3.20
  -5  11   2   -0.50    2.50
  -5  11   2   -0.50    2.50
   4 -11  -2   52.29    6.10
   4 -11  -2   34.60    6.50
  -4  11   2   36.80    7.20
  -4  11   2   49.20    7.10
  -4  11   2   53.29    6.50
   3 -11  -2   66.69    5.90
   3 -11  -2   74.69    6.70
   3 -11  -2   87.69    9.40
  -3  11   2   72.79    8.30
  -3  11   2   68.79    8.10
   2 -11  -2  104.99    8.50
  -2  11   2   84.49    8.90
  -2  11   2  111.99   10.30
  -2  11   2  100.99    9.70
   1 -11  -2  258.97   14.70
  -1  11   2  255.67   16.90
  -1  11   2  238.28   15.70
   0 -11  -2  128.99    9.20
   0 -11  -2  127.99   10.40
   0  11   2  109.89   15.30
   0  11   2  127.19   11.10
   0  13  -3    3.70    2.30
   0  13  -3    4.40    3.30
   0 -13   3    2.70    2.80
   0 -13   3    5.60    2.40
  -1  13  -3   78.59    9.00
  -1  13  -3   87.29    7.10
  -1  13  -3   99.29    9.30
  -1  13  -3   93.79    9.30
   1 -13   3  106.89    8.00
   1 -13   3   86.99    7.20
   1 -13   3   74.99    7.80
  -2  13  -3   78.89    8.40
  -2  13  -3   64.69    5.90
  -2  13  -3   66.39    8.30
  -2  13  -3   62.69    8.40
   2 -13   3   78.59    7.80
   2 -13   3   65.29    6.50
   2 -13   3   68.09    6.20
  -3  13  -3   45.40    6.00
  -3  13  -3   56.79    6.90
  -3  13  -3   49.30    6.90
  -3  13  -3   56.59    8.20
   3 -13   3   59.09    6.50
  -4  13  -3  277.67   18.50
  -4  13  -3  354.46   21.20
  -4  13  -3  293.67   15.30
   4 -13   3  275.27   16.20
   4 -13   3  278.07   16.40
   2  12  -3   13.60    3.90
   2  12  -3   17.00    3.80
  -2 -12   3   11.50    3.00
  -2 -12   3   16.80    3.70
  -2 -12   3   12.60    3.10
   1  12  -3    4.10    3.00
   1  12  -3   -1.80    2.40
   1  12  -3    2.00    1.80
  -1 -12   3   -1.20    2.20
  -1 -12   3    0.80    2.30
  -1 -12   3    2.50    2.30
   0  12  -3    4.90    3.40
   0  12  -3   10.80    3.20
   0  12  -3   11.60    2.70
   0  12  -3    9.60    4.00
   0 -12   3   13.90    3.40
   0 -12   3   13.50    3.70
   0 -12   3   11.00    3.00
   0 -12   3   12.40    4.70
  -1  12  -3    2.20    2.70
  -1  12  -3    0.40    2.90
  -1  12  -3    2.70    1.70
  -1  12  -3    2.20    2.40
  -1  12  -3    3.40    3.00
   1 -12   3    1.80    2.10
   1 -12   3    6.40    2.60
   1 -12   3    0.90    2.00
   1 -12   3    7.00    2.40
  -2  12  -3   -0.80    2.40
  -2  12  -3   -1.60    2.30
  -2  12  -3    3.40    3.10
  -2  12  -3    0.90    1.90
  -2  12  -3   -1.80    1.90
   2 -12   3    3.40    1.70
   2 -12   3    1.80    2.20
   2 -12   3    2.20    1.70
  -3  12  -3  105.99    7.00
  -3  12  -3  114.39    9.80
  -3  12  -3  124.89   10.60
  -3  12  -3  125.99   11.00
  -3  12  -3  117.29    9.90
   3 -12   3  103.69    8.40
   3 -12   3  113.79    9.30
   3 -12   3  118.69    9.20
   3 -12   3  121.29    7.60
  -4  12  -3  371.06   21.70
  -4  12  -3  407.56   20.90
  -4  12  -3  401.06   18.10
  -4  12  -3  405.66   20.60
   4 -12   3  379.86   19.50
   4 -12   3  419.46   20.30
  -5  12  -3   85.29    8.20
  -5  12  -3   88.39    7.90
  -5  12  -3   87.49    9.80
   5 -12   3   79.69    8.80
   5 -12   3   92.89    8.80
  -6  12  -3  148.69   16.70
  -6  12  -3  137.49   13.20
  -6  12  -3  178.78   10.30
   6 -12   3  153.08   12.50
   6 -12   3  163.58   12.00
   4  11  -3   -0.50    2.60
  -4 -11   3    3.80    2.40
  -4 -11   3   -0.60    2.00
  -4 -11   3   -2.30    2.10
   3  11  -3    5.20    2.20
   3  11  -3   10.70    3.60
  -3 -11   3    3.90    2.70
  -3 -11   3    6.10    2.70
  -3 -11   3    6.00    2.90
   2  11  -3   23.20    3.90
   2  11  -3   26.30    4.20
   2  11  -3   21.90    4.40
  -2 -11   3   20.80    4.30
  -2 -11   3   14.70    3.50
  -2 -11   3   23.70    4.20
   1  11  -3    0.90    2.00
   1  11  -3   -2.60    2.00
   1  11  -3    0.70    1.20
  -1 -11   3   -0.40    1.70
  -1 -11   3   -1.30    2.40
  -1 -11   3    1.10    1.70
  -1 -11   3   -1.70    1.90
   0  11  -3   -0.20    1.20
   0  11  -3    0.30    2.20
   0  11  -3    3.40    1.70
   0  11  -3   -4.80    2.10
   0  11  -3   -1.30    3.10
   0 -11   3   -0.80    1.50
   0 -11   3   -1.70    1.30
   0 -11   3    0.50    1.20
   0 -11   3   -0.80    1.40
   0 -11   3    1.10    1.50
  -1  11  -3   -1.70    1.90
  -1  11  -3    0.40    1.60
  -1  11  -3   -0.80    2.50
  -1  11  -3    2.50    2.50
  -1  11  -3   -2.60    1.90
   1 -11   3    2.90    1.50
   1 -11   3    2.90    1.70
   1 -11   3    2.10    1.70
   1 -11   3   -0.10    1.40
  -2  11  -3    3.80    2.70
  -2  11  -3    2.90    1.60
  -2  11  -3    3.50    2.40
  -2  11  -3    2.10    2.10
   2 -11   3    3.00    1.80
   2 -11   3    2.10    1.60
   2 -11   3    4.90    2.30
   2 -11   3    1.50    1.60
  -3  11  -3   87.59    6.20
  -3  11  -3  102.29    8.10
  -3  11  -3   94.39    9.30
  -3  11  -3   84.19    7.20
  -3  11  -3   99.09    8.90
   3 -11   3   95.99    6.20
   3 -11   3  101.59    8.00
   3 -11   3   94.29    7.30
   3 -11   3   88.59    7.70
  -4  11  -3   74.59    8.90
  -4  11  -3   81.19    8.10
  -4  11  -3   93.79    8.70
  -4  11  -3   96.99    7.50
   4 -11   3   89.89    8.30
   4 -11   3   98.79    6.70
   4 -11   3   88.79    8.20
   4 -11   3   81.69    5.40
  -5  11  -3  116.99    8.60
  -5  11  -3  129.89   10.60
  -5  11  -3  126.79   11.30
   5 -11   3  135.19   10.10
   5 -11   3  108.59    8.90
  -6  11  -3  183.78   14.10
  -6  11  -3  197.18   13.20
  -6  11  -3  178.48   10.30
   6 -11   3  157.48   11.60
   6 -11   3  178.08   12.90
   6 -11   3  138.19   10.10
  -7  11  -3  230.38   12.10
   7 -11   3  232.28   15.50
   7 -11   3  214.58   14.30
  -8  11  -3  252.37   15.90
  -8  11  -3  253.07   17.60
   8 -11   3  256.37   17.90
   8 -11   3  245.28   22.50
   6  10  -3  151.58   12.50
   6  10  -3  151.88   10.00
  -6 -10   3  148.69   11.80
  -6 -10   3  169.58   11.50
  -6 -10   3  133.89   11.50
   5  10  -3   38.80    6.00
   5  10  -3   42.10    4.90
  -5 -10   3   37.90    5.60
  -5 -10   3   25.10    5.30
  -5 -10   3   30.70    4.90
   4  10  -3    5.50    1.50
  -4 -10   3    4.50    2.30
  -4 -10   3    3.90    2.60
  -4 -10   3    0.90    1.90
   3  10  -3   -2.90    1.60
   3  10  -3   -1.40    1.80
   3  10  -3    1.50    1.20
  -3 -10   3   -0.20    1.80
  -3 -10   3   -0.60    1.60
  -3 -10   3   -1.20    1.70
   2  10  -3   39.20    4.60
   2  10  -3   37.40    4.30
   2  10  -3   33.80    4.90
  -2 -10   3   34.20    4.70
  -2 -10   3   32.80    4.90
  -2 -10   3   30.30    4.60
  -2 -10   3   40.70    4.00
   1  10  -3   21.60    4.40
   1  10  -3   23.70    4.00
   1  10  -3   21.80    4.10
   1  10  -3   25.80    4.20
  -1 -10   3   19.00    3.40
  -1 -10   3   16.60    3.30
  -1 -10   3   20.00    3.50
  -1 -10   3   20.80    4.30
   0  10  -3    4.80    2.40
   0  10  -3    3.40    1.70
   0  10  -3    3.50    2.20
   0  10  -3    3.00    1.30
   0  10  -3    3.30    1.80
   0 -10   3    1.80    1.30
   0 -10   3    1.10    1.50
   0 -10   3    2.30    1.80
   0 -10   3    1.50    1.30
   0 -10   3    2.10    1.30
  -1  10  -3   34.30    5.20
  -1  10  -3   35.80    4.90
  -1  10  -3   42.80    5.20
  -1  10  -3   36.30    4.60
  -1  10  -3   37.80    4.10
   1 -10   3   44.10    4.30
   1 -10   3   38.50    4.20
   1 -10   3   32.90    4.00
   1 -10   3   38.30    4.10
   1 -10   3   38.30    6.00
  -2  10  -3   16.40    2.70
  -2  10  -3   20.10    3.60
  -2  10  -3   15.00    3.70
  -2  10  -3   20.60    3.20
  -2  10  -3   11.10    3.70
   2 -10   3   14.20    2.60
   2 -10   3   20.70    2.80
   2 -10   3   18.40    3.40
   2 -10   3   20.40    3.20
   2 -10   3   20.60    3.10
  -3  10  -3   87.69    6.80
  -3  10  -3   93.59    5.80
  -3  10  -3   93.99    8.80
  -3  10  -3   99.19    8.20
  -3  10  -3   83.59    7.50
   3 -10   3   96.99    7.40
   3 -10   3   82.29    8.90
   3 -10   3   86.29    7.30
   3 -10   3   94.69    5.50
  -4  10  -3   -1.10    1.00
  -4  10  -3   -2.10    1.60
  -4  10  -3    1.30    2.20
  -4  10  -3   -1.80    1.40
   4 -10   3    0.10    1.40
   4 -10   3    5.10    1.70
   4 -10   3    2.60    1.00
  -5  10  -3   65.79    5.70
  -5  10  -3   57.59    7.70
  -5  10  -3   61.39    6.60
   5 -10   3   68.29    6.60
   5 -10   3   63.29    6.60
  -6  10  -3  172.98   12.00
  -6  10  -3  166.18    9.40
  -6  10  -3  157.18   13.10
   6 -10   3  180.48   11.80
   6 -10   3  168.38   12.10
  -7  10  -3  183.08   10.10
  -7  10  -3  187.68   12.60
  -7  10  -3  162.88   13.60
   7 -10   3  171.18   12.20
   7 -10   3  184.28   13.10
  -8  10  -3  167.18   12.30
  -8  10  -3  151.78   13.30
   8 -10   3  168.98   12.20
   8 -10   3  175.38   13.10
  -9  10  -3   90.19   11.10
   9 -10   3   88.69    9.40
   7   9  -3  446.96   22.70
  -7  -9   3  432.56   25.80
   6   9  -3   78.39    8.30
   6   9  -3   82.49    7.00
  -6  -9   3   79.49    7.60
  -6  -9   3   88.69   11.40
   5   9  -3  129.79    9.10
   5   9  -3  149.99   15.20
  -5  -9   3  137.49   10.00
  -5  -9   3  140.99   10.70
   4   9  -3  339.37   16.20
   4   9  -3  346.97   17.40
  -4  -9   3  359.66   17.20
  -4  -9   3  345.97   18.00
   3   9  -3  144.29    7.80
   3   9  -3  147.59    9.80
   3   9  -3  128.79    9.40
  -3  -9   3  133.59   10.60
  -3  -9   3  132.29    9.30
   2   9  -3  100.89    7.80
   2   9  -3  101.89    7.30
   2   9  -3  114.79    8.10
   2   9  -3  109.79    7.20
  -2  -9   3  108.69    7.90
  -2  -9   3  109.79    7.80
  -2  -9   3  102.59    8.10
   1   9  -3    0.30    1.70
   1   9  -3    0.20    0.70
   1   9  -3   -1.00    1.40
   1   9  -3   -0.50    1.10
  -1  -9   3    1.70    1.30
  -1  -9   3    1.80    1.30
  -1  -9   3   -0.70    0.80
   0   9  -3    7.10    1.60
   0   9  -3    4.70    1.90
   0   9  -3    9.20    2.40
   0   9  -3    7.30    2.40
   0   9  -3    5.70    2.40
   0  -9   3    8.00    1.60
   0  -9   3    6.40    1.80
   0  -9   3    6.50    1.50
   0  -9   3    4.50    1.90
  -1   9  -3    3.60    1.00
  -1   9  -3    3.10    1.80
  -1   9  -3    3.30    1.50
  -1   9  -3    3.20    1.60
  -1   9  -3    1.20    1.50
   1  -9   3    1.30    1.30
   1  -9   3    3.40    1.30
  -2   9  -3   60.69    5.70
  -2   9  -3   57.09    5.80
  -2   9  -3   61.29    4.50
  -2   9  -3   62.89    6.50
  -2   9  -3   50.99    4.90
   2  -9   3   57.89    7.60
   2  -9   3   57.89    4.40
   2  -9   3   60.89    4.90
   2  -9   3   49.40    4.20
  -3   9  -3   27.50    2.80
  -3   9  -3   23.00    3.30
  -3   9  -3   23.00    4.40
  -3   9  -3   26.80    4.10
  -3   9  -3   21.10    3.70
   3  -9   3   23.30    3.30
   3  -9   3   23.20    2.60
   3  -9   3   21.10    3.20
   3  -9   3   32.80    4.00
  -4   9  -3   36.60    3.20
  -4   9  -3   36.40    4.70
  -4   9  -3   37.60    6.40
  -4   9  -3   41.40    4.30
   4  -9   3   38.90    2.70
   4  -9   3   41.10    4.50
   4  -9   3   39.80    5.00
  -5   9  -3   48.70    5.60
  -5   9  -3   55.79    7.00
  -5   9  -3   51.29    5.00
   5  -9   3   53.09    6.00
   5  -9   3   37.90    5.20
  -6   9  -3  151.28    8.50
  -6   9  -3  141.19   10.50
  -6   9  -3  165.18   12.60
   6  -9   3  138.29   13.00
   6  -9   3  142.59   10.20
  -7   9  -3   87.49    6.70
  -7   9  -3   85.29    8.20
  -7   9  -3   80.89    9.30
   7  -9   3  101.29    8.50
   7  -9   3   96.69    8.50
  -8   9  -3   82.49    9.30
  -8   9  -3   62.59    6.40
  -8   9  -3   82.79    8.30
   8  -9   3   77.39    7.90
  -9   9  -3  213.78   16.10
   9  -9   3  212.38   14.00
   9  -9   3  228.88   16.20
   8   8  -3  133.99    9.10
   8   8  -3  132.79   11.40
  -8  -8   3  138.89   11.10
  -8  -8   3  142.49   11.50
   7   8  -3  159.08   12.00
   7   8  -3  175.18   10.70
  -7  -8   3  172.28   11.80
  -7  -8   3  184.08   12.80
   6   8  -3  129.59    8.90
   6   8  -3  130.69   10.10
  -6  -8   3  135.99   10.00
  -6  -8   3  135.09   10.50
   5   8  -3  315.67   15.50
   5   8  -3  310.37   15.80
  -5  -8   3  302.07   16.50
  -5  -8   3  297.37   15.80
   4   8  -3  597.64   23.60
   4   8  -3  614.14   24.50
  -4  -8   3  573.34   25.40
  -4  -8   3  605.64   24.70
   3   8  -3  444.46   19.40
   3   8  -3  454.15   19.40
   3   8  -3  453.85   16.90
   3   8  -3  440.96   18.80
  -3  -8   3  467.25   19.80
  -3  -8   3  466.05   20.50
   2   8  -3   -0.40    1.30
   2   8  -3    0.80    0.80
   2   8  -3   -0.40    1.00
   2   8  -3    0.40    1.20
  -2  -8   3    1.00    0.80
  -2  -8   3    1.60    1.10
   1   8  -3    7.60    2.30
   1   8  -3    5.80    2.10
   1   8  -3   10.10    2.60
   1   8  -3    4.40    1.40
  -1  -8   3    5.30    1.70
  -1  -8   3    5.80    1.90
  -1  -8   3    3.60    1.60
   0   8  -3   54.39    5.30
   0   8  -3   54.99    4.50
   0   8  -3   48.30    5.00
   0   8  -3   49.70    4.80
   0   8  -3   54.19    4.80
   0  -8   3   51.99    4.60
   0  -8   3   49.10    4.80
   0  -8   3   47.90    4.60
   0  -8   3   46.80    5.50
  -1   8  -3   28.00    3.50
  -1   8  -3   29.10    3.90
  -1   8  -3   26.70    3.80
   1  -8   3   25.60    3.10
   1  -8   3   27.40    2.80
   1  -8   3   27.30    3.10
   1  -8   3   29.50    3.20
   1  -8   3   28.50    3.10
  -2   8  -3   28.90    4.10
  -2   8  -3   28.10    3.40
  -2   8  -3   30.60    3.50
  -2   8  -3   27.10    2.80
  -2   8  -3   26.80    3.60
   2  -8   3   25.10    3.40
   2  -8   3   26.90    3.40
   2  -8   3   25.40    2.50
   2  -8   3   19.90    3.10
  -3   8  -3    0.70    1.40
  -3   8  -3    0.60    1.20
  -3   8  -3    1.80    0.90
  -3   8  -3    0.00    1.20
  -3   8  -3    1.20    1.10
   3  -8   3   -2.10    0.90
  -4   8  -3   11.70    1.70
  -4   8  -3   13.10    3.00
  -4   8  -3   17.80    3.90
  -4   8  -3   12.70    2.50
   4  -8   3   10.40    2.70
   4  -8   3   10.00    2.50
  -5   8  -3   92.19    7.70
  -5   8  -3  100.29    8.60
  -5   8  -3  102.59    6.70
   5  -8   3   84.79    7.00
   5  -8   3   80.59    7.50
  -6   8  -3   36.20    5.60
  -6   8  -3   35.30    4.60
  -6   8  -3   31.50    4.00
   6  -8   3   30.10    4.70
   6  -8   3   35.20    4.80
  -7   8  -3   -0.50    2.00
  -7   8  -3   -1.40    2.00
  -7   8  -3   -1.80    2.30
   7  -8   3   -2.70    1.50
   7  -8   3    4.10    3.60
  -8   8  -3   75.29    6.20
  -8   8  -3   76.39    9.00
   8  -8   3   73.99    7.60
   8  -8   3   81.59    7.80
  -9   8  -3  414.16   22.80
  -9   8  -3  394.76   16.80
   9  -8   3  378.56   19.70
   9  -8   3  395.06   20.90
 -10   8  -3  162.18   14.80
  10  -8   3  164.58   12.70
   8   7  -3   86.69    8.90
   8   7  -3   94.99    7.50
  -8  -7   3   96.49    9.20
  -8  -7   3   99.29    8.90
   7   7  -3   39.30    5.50
   7   7  -3   35.50    4.40
  -7  -7   3   37.70    5.70
  -7  -7   3   36.60    5.20
   6   7  -3  158.68   10.80
   6   7  -3  176.48   10.10
  -6  -7   3  188.28   12.10
   5   7  -3  321.97   15.20
   5   7  -3  320.87   14.70
  -5  -7   3  311.67   16.50
  -5  -7   3  305.07   15.70
   4   7  -3  638.84   24.20
   4   7  -3  604.64   23.60
  -4  -7   3  606.84   24.70
  -4  -7   3  634.24   25.80
   3   7  -3  476.75   20.20
   3   7  -3  507.05   20.10
   3   7  -3  519.45   20.10
   3   7  -3  529.85   17.90
  -3  -7   3  514.85   21.70
  -3  -7   3  512.85   21.00
   2   7  -3   11.50    2.40
   2   7  -3   16.00    3.10
   2   7  -3   10.00    2.30
   2   7  -3   12.30    1.90
  -2  -7   3    9.90    2.40
  -2  -7   3   12.50    2.90
   1   7  -3  803.42   28.10
   1   7  -3  833.92   29.20
   1   7  -3  844.12   30.80
   1   7  -3  848.62   29.10
  -1  -7   3  773.62   25.60
  -1  -7   3  842.62   26.70
  -1  -7   3  817.62   29.20
  -1  -7   3  862.41   33.60
  -1  -7   3  835.42   27.20
   0   7  -3   72.89    5.60
   0   7  -3   72.39    5.00
   0   7  -3   80.09    5.70
   0   7  -3   68.89    5.20
   0   7  -3   83.79    6.20
   0  -7   3   78.49    5.60
   0  -7   3   75.09    4.80
   0  -7   3   83.79    5.10
   0  -7   3   79.69    5.60
  -1   7  -3   16.90    2.90
  -1   7  -3   14.10    2.00
  -1   7  -3   16.70    3.10
  -1   7  -3   17.50    2.30
   1  -7   3   13.90    2.60
   1  -7   3   13.70    2.40
   1  -7   3   13.90    1.70
   1  -7   3   14.70    2.20
   1  -7   3   14.20    2.60
  -2   7  -3   12.10    2.40
  -2   7  -3   10.50    1.80
  -2   7  -3   11.20    2.80
  -2   7  -3   10.50    2.60
  -2   7  -3    7.30    2.40
   2  -7   3    9.00    2.10
   2  -7   3   13.40    2.10
  -3   7  -3   43.10    3.00
  -3   7  -3   42.10    4.40
  -3   7  -3   43.30    5.00
  -3   7  -3   40.70    4.00
   3  -7   3   41.70    3.00
   3  -7   3   36.40    4.20
   3  -7   3   43.00    2.50
  -4   7  -3   23.40    3.80
  -4   7  -3   22.20    3.30
  -4   7  -3   18.80    1.80
  -4   7  -3   21.00    2.90
   4  -7   3   22.50    3.10
   4  -7   3   13.40    3.00
  -5   7  -3   52.09    6.00
  -5   7  -3   51.69    4.60
  -5   7  -3   59.49    5.60
   5  -7   3   53.79    5.30
   5  -7   3   51.59    5.60
  -6   7  -3    1.00    1.80
  -6   7  -3   -0.30    1.90
  -6   7  -3    0.30    2.10
   6  -7   3    1.00    1.80
   6  -7   3    3.10    1.80
  -7   7  -3   15.60    2.90
  -7   7  -3   22.20    5.30
  -7   7  -3   23.10    4.50
   7  -7   3   17.60    3.90
   7  -7   3   23.60    3.50
  -8   7  -3   75.49    7.20
  -8   7  -3   84.59    6.40
  -8   7  -3   91.69    9.40
   8  -7   3   94.69    7.90
   8  -7   3   95.69    8.50
  -9   7  -3   51.59    5.70
  -9   7  -3   68.69    7.90
  -9   7  -3   47.80    7.00
   9  -7   3   60.39    7.30
   9  -7   3   51.59    6.20
 -10   7  -3   24.10    5.10
  10  -7   3   39.80    5.80
  10  -7   3   27.50    5.30
   9   6  -3  223.08   11.80
   9   6  -3  202.98   13.70
  -9  -6   3  203.98   13.50
  -9  -6   3  232.38   14.60
   8   6  -3  160.78    9.80
  -8  -6   3  157.68   11.50
  -8  -6   3  171.38   11.70
   7   6  -3   64.69    7.00
   7   6  -3   68.19    5.80
  -7  -6   3   62.19    6.70
  -7  -6   3   61.99    6.70
   6   6  -3  280.47   13.40
   6   6  -3  279.77   14.00
  -6  -6   3  286.87   15.40
  -6  -6   3  284.47   14.90
   5   6  -3  509.65   20.00
   5   6  -3  452.75   19.00
  -5  -6   3  477.55   21.20
  -5  -6   3  478.45   20.60
   4   6  -3  163.98    8.90
   4   6  -3  156.88    9.00
  -4  -6   3  153.08    9.90
  -4  -6   3  172.08    9.90
   3   6  -3  189.48    9.70
   3   6  -3  169.98    8.90
   3   6  -3  173.48    9.10
  -3  -6   3  190.88   10.60
  -3  -6   3  167.68    9.70
   2   6  -3 1158.98   36.50
   2   6  -3 1052.79   35.40
   2   6  -3 1018.30   33.70
   2   6  -3 1083.19   35.20
  -2  -6   3 1073.59   44.50
  -2  -6   3 1024.00   33.50
  -2  -6   3 1085.49   36.30
   1   6  -3 2191.98   68.89
   1   6  -3 2192.58   69.19
   1   6  -3 2323.17   68.59
   1   6  -3 2289.37   67.89
   1   6  -3 2198.58   68.39
  -1  -6   3 2321.47   69.89
  -1  -6   3 2197.18   66.49
  -1  -6   3 2264.47   66.29
  -1  -6   3 2216.08   65.69
  -1  -6   3 2164.88   68.99
   0   6  -3  149.39    7.70
   0   6  -3  146.39    7.70
   0   6  -3  154.58    8.60
   0   6  -3  147.09    8.00
   0   6  -3  156.88    7.60
   0  -6   3  152.38    8.10
   0  -6   3  171.88    7.90
   0  -6   3  151.18    8.00
   0  -6   3  160.18    7.20
  -1   6  -3  155.08    8.80
  -1   6  -3  157.18    7.30
  -1   6  -3  152.58    8.00
  -1   6  -3  154.18    7.80
  -1   6  -3  153.98    8.10
   1  -6   3  147.49    6.50
   1  -6   3  158.28    7.80
  -2   6  -3  358.96   15.80
  -2   6  -3  363.06   15.00
  -2   6  -3  358.16   13.00
  -2   6  -3  369.26   14.50
  -2   6  -3  343.17   14.20
   2  -6   3  348.27   14.60
   2  -6   3  363.36   14.30
   2  -6   3  353.66   12.80
  -3   6  -3   15.60    3.00
  -3   6  -3   14.70    2.20
  -3   6  -3   13.90    1.60
  -3   6  -3   16.00    3.50
   3  -6   3   12.90    2.70
   3  -6   3   16.10    2.20
   3  -6   3   15.60    1.70
  -4   6  -3  189.78   11.90
  -4   6  -3  187.28   10.40
  -4   6  -3  192.78    9.10
  -4   6  -3  185.38    6.80
   4  -6   3  189.38    9.90
  -5   6  -3   -0.20    1.00
  -5   6  -3    2.20    0.90
  -5   6  -3    0.30    1.30
   5  -6   3    0.10    0.80
   5  -6   3   -1.20    0.90
  -6   6  -3   15.90    3.90
  -6   6  -3   13.40    2.70
  -6   6  -3   18.20    3.50
  -6   6  -3   14.10    2.70
   6  -6   3   12.50    3.00
   6  -6   3   15.10    3.50
  -7   6  -3  138.89    8.90
  -7   6  -3  166.68    8.50
  -7   6  -3  155.08   11.30
   7  -6   3  157.58   10.10
   7  -6   3  139.49    9.90
  -8   6  -3   66.79    5.00
  -8   6  -3   49.80    5.60
  -8   6  -3   60.59    7.20
   8  -6   3   55.59    6.10
   8  -6   3   45.10    6.90
  -9   6  -3    7.20    3.60
   9  -6   3    4.10    2.20
   9  -6   3    3.60    3.00
 -10   6  -3   16.60    5.20
 -10   6  -3   11.00    3.20
 -10   6  -3   20.30    4.30
  10  -6   3   19.70    4.90
  10  -6   3   14.80    3.70
  10   5  -3  203.58   14.40
  10   5  -3  206.98   11.10
 -10  -5   3  212.58   13.80
 -10  -5   3  218.58   14.00
   9   5  -3  394.76   20.00
   9   5  -3  387.96   15.40
  -9  -5   3  378.16   19.60
  -9  -5   3  395.66   19.80
   8   5  -3  188.88   10.10
   8   5  -3  187.68    9.10
   8   5  -3  163.48   11.40
  -8  -5   3  170.88   11.40
  -8  -5   3  184.58   12.00
   7   5  -3  142.99    6.50
   7   5  -3  133.79    8.20
   7   5  -3  122.49    9.30
  -7  -5   3  135.09    9.40
  -7  -5   3  141.39    9.90
   6   5  -3  272.77   12.50
   6   5  -3  265.37   10.70
   6   5  -3  258.47   13.00
  -6  -5   3  258.57   14.10
  -6  -5   3  256.47   13.70
   5   5  -3  194.58    9.90
  -5  -5   3  193.88   11.40
  -5  -5   3  201.68   11.00
   4   5  -3   26.00    3.10
   4   5  -3   31.70    3.80
   4   5  -3   26.70    3.10
  -4  -5   3   28.40    3.80
  -4  -5   3   29.60    3.80
   3   5  -3  435.96   17.40
   3   5  -3  424.96   16.60
   3   5  -3  427.66   16.00
  -3  -5   3  444.66   18.70
  -3  -5   3  437.46   17.60
   2   5  -3 1551.94   48.30
   2   5  -3 1539.65   47.60
   2   5  -3 1515.05   46.40
   2   5  -3 1575.64   49.00
  -2  -5   3 1459.05   46.50
  -2  -5   3 1534.25   49.20
  -2  -5   3 1611.94   49.99
   1   5  -3  260.87   10.90
   1   5  -3  234.58    9.70
   1   5  -3  236.48   10.00
   1   5  -3  252.37   10.60
   1   5  -3  218.68    9.30
  -1  -5   3  240.08    8.80
  -1  -5   3  235.38    9.50
  -1  -5   3  244.18    8.60
  -1  -5   3  234.08   10.50
  -1  -5   3  227.58    9.30
   0   5  -3  625.54   21.70
   0   5  -3  660.43   23.20
   0   5  -3  661.43   21.80
   0   5  -3  644.84   21.90
   0   5  -3  644.54   22.60
   0  -5   3  635.54   21.60
   0  -5   3  612.24   21.40
   0  -5   3  679.13   22.90
   0  -5   3  667.73   21.00
  -1   5  -3  631.14   22.20
  -1   5  -3  652.93   21.80
  -1   5  -3  634.64   21.20
  -1   5  -3  657.83   23.50
  -1   5  -3  643.64   22.20
   1  -5   3  646.44   21.50
   1  -5   3  648.04   21.30
   1  -5   3  636.14   22.00
   1  -5   3  621.44   20.10
  -2   5  -3  178.68    9.60
  -2   5  -3  184.68    9.00
  -2   5  -3  186.88    8.60
   2  -5   3  200.98    7.40
   2  -5   3  187.18    9.00
   2  -5   3  189.88    8.70
   2  -5   3  177.58    7.30
  -3   5  -3   81.89    5.60
  -3   5  -3   88.69    6.40
  -3   5  -3   81.79    3.70
  -3   5  -3   81.69    5.00
   3  -5   3   79.49    5.60
   3  -5   3   79.19    3.50
   3  -5   3   80.69    3.70
   3  -5   3   83.19    5.40
  -4   5  -3   80.79    5.30
  -4   5  -3   69.59    5.30
  -4   5  -3   74.49    4.70
   4  -5   3   69.39    5.60
   4  -5   3   72.99    7.10
  -5   5  -3   26.40    3.80
  -5   5  -3   24.10    2.70
  -5   5  -3   30.00    3.50
  -5   5  -3   34.50    8.00
   5  -5   3   29.70    3.30
   5  -5   3   24.60    3.40
  -6   5  -3  194.98    9.30
  -6   5  -3  204.08   12.00
  -6   5  -3  202.68   10.40
   6  -5   3  199.78   10.80
   6  -5   3  196.58   11.40
  -7   5  -3   72.09    5.30
  -7   5  -3   68.29    5.80
  -7   5  -3   78.49    7.30
   7  -5   3   82.39    6.80
   7  -5   3   58.19    5.80
  -8   5  -3   47.10    5.20
  -8   5  -3   43.20    6.00
  -8   5  -3   41.00    4.50
   8  -5   3   50.09    6.00
   8  -5   3   45.80    5.90
  -9   5  -3   21.00    4.20
  -9   5  -3   13.50    3.20
  -9   5  -3   14.10    3.30
   9  -5   3   10.30    3.80
   9  -5   3   15.40    3.30
 -10   5  -3    7.20    3.20
 -10   5  -3   13.30    4.50
 -10   5  -3   12.90    3.90
  10  -5   3   13.40    3.00
  10  -5   3   13.40    4.40
  10   4  -3  123.39    7.40
  10   4  -3  110.39    7.40
 -10  -4   3  117.79    9.50
 -10  -4   3  116.19    9.50
   9   4  -3  144.69    8.70
   9   4  -3  160.98    8.00
  -9  -4   3  155.38   10.80
  -9  -4   3  146.39   10.70
  -9  -4   3  146.29    8.90
   8   4  -3  270.37   12.70
   8   4  -3  295.97   15.00
  -8  -4   3  267.97   14.80
   7   4  -3  392.76   15.90
   7   4  -3  387.66   13.70
  -7  -4   3  372.56   17.80
  -7  -4   3  357.86   17.40
   6   4  -3  675.73   22.80
   6   4  -3  722.73   25.10
  -6  -4   3  697.23   27.20
  -6  -4   3  686.23   26.70
   5   4  -3  267.47   11.90
   5   4  -3  254.67   11.40
  -5  -4   3  257.27   13.60
  -5  -4   3  260.97   12.80
   4   4  -3   84.39    5.40
   4   4  -3   88.89    5.60
   4   4  -3   86.29    5.40
  -4  -4   3   90.79    6.40
  -4  -4   3   95.29    6.80
   3   4  -3  431.96   15.50
   3   4  -3  414.86   16.40
   3   4  -3  462.15   16.50
  -3  -4   3  451.55   17.80
  -3  -4   3  453.65   17.40
   2   4  -3 1195.28   36.40
   2   4  -3 1170.48   37.90
   2   4  -3 1180.38   37.40
   2   4  -3 1201.68   35.50
   2   4  -3 1156.48   35.40
  -2  -4   3 1160.78   38.30
  -2  -4   3 1266.57   35.20
  -2  -4   3 1132.79   35.60
  -2  -4   3 1179.38   37.70
   1   4  -3   59.39    4.00
   1   4  -3   55.09    3.60
   1   4  -3   51.99    3.10
   1   4  -3   52.69    3.20
   1   4  -3   51.99    3.90
   1   4  -3   58.49    3.20
  -1  -4   3   53.89    3.10
  -1  -4   3   59.49    4.10
  -1  -4   3   55.29    3.40
  -1  -4   3   56.39    3.30
  -1  -4   3   56.69    4.10
  -1  -4   3   54.79    3.00
   0   4  -3 1379.76   42.50
   0   4  -3 1485.35   44.30
   0   4  -3 1388.56   43.60
   0   4  -3 1376.06   43.30
   0   4  -3 1501.45   47.20
   0   4  -3 1364.96   42.70
   0  -4   3 1439.66   46.10
   0  -4   3 1372.56   42.40
   0  -4   3 1349.96   42.60
   0  -4   3 1350.36   43.10
   0  -4   3 1399.06   42.00
   0  -4   3 1427.06   42.00
   0  -4   3 1403.96   42.70
  -1   4  -3 1854.21   54.69
  -1   4  -3 1795.32   55.69
  -1   4  -3 1861.31   55.79
  -1   4  -3 1883.81   55.79
  -1   4  -3 1871.11   57.09
   1  -4   3 1775.52   54.39
   1  -4   3 1874.81   55.89
   1  -4   3 1785.82   53.39
   1  -4   3 1833.62   55.09
   1  -4   3 1766.42   55.19
   1  -4   3 1954.80   54.79
   1  -4   3 1720.43   55.09
  -2   4  -3  356.56   15.00
  -2   4  -3  374.86   12.50
  -2   4  -3  373.86   14.20
  -2   4  -3  365.56   13.70
   2  -4   3  388.36   14.60
   2  -4   3  387.36   12.30
   2  -4   3  368.36   12.30
   2  -4   3  380.76   14.00
  -3   4  -3  450.95   17.80
  -3   4  -3  434.46   15.70
  -3   4  -3  453.25   16.40
  -3   4  -3  452.25   14.60
  -3   4  -3  439.96   16.70
   3  -4   3  419.66   17.00
   3  -4   3  440.16   16.60
   3  -4   3  446.46   14.60
  -4   4  -3  219.68   10.00
  -4   4  -3  214.18    9.30
  -4   4  -3  229.28    8.20
  -4   4  -3  220.58   11.20
   4  -4   3  210.58    7.90
   4  -4   3  222.58   10.90
   4  -4   3  213.78   10.20
  -5   4  -3  109.99    5.00
  -5   4  -3  108.79    6.10
   5  -4   3  109.09    7.50
  -6   4  -3   62.99    5.00
  -6   4  -3   63.29    7.40
   6  -4   3   53.39    3.70
   6  -4   3   65.69    5.70
   6  -4   3   60.49    5.30
  -7   4  -3   13.90    3.20
  -7   4  -3   12.50    2.90
  -7   4  -3    7.60    1.80
   7  -4   3    8.90    2.50
   7  -4   3   11.70    2.80
  -8   4  -3   31.40    5.00
  -8   4  -3   38.40    4.70
  -8   4  -3   37.10    3.20
   8  -4   3   39.00    4.70
   8  -4   3   25.20    4.50
  -9   4  -3   55.59    5.90
  -9   4  -3   65.69    7.20
  -9   4  -3   51.99    4.30
   9  -4   3   48.40    5.90
   9  -4   3   55.69    6.50
 -10   4  -3   25.60    5.10
  10  -4   3   26.00    4.60
  10  -4   3   21.70    5.10
  11   3  -3   19.60    4.00
 -11  -3   3   36.50    6.00
 -11  -3   3   29.00    5.20
  10   3  -3   25.40    3.90
  10   3  -3   23.20    3.40
 -10  -3   3   29.60    5.20
 -10  -3   3   22.20    4.40
   9   3  -3    1.50    1.50
   9   3  -3   -0.30    1.10
   9   3  -3    2.50    1.40
  -9  -3   3    2.00    1.60
  -9  -3   3    0.30    1.50
   8   3  -3  274.47   11.70
   8   3  -3  257.37   13.80
   8   3  -3  305.47   12.80
  -8  -3   3  294.47   14.90
  -8  -3   3  269.07   14.40
   7   3  -3  678.83   22.00
   7   3  -3  638.14   25.70
  -7  -3   3  673.63   26.10
  -7  -3   3  652.43   25.80
   6   3  -3  449.66   15.60
   6   3  -3  499.75   16.10
   6   3  -3  460.45   19.60
  -6  -3   3  494.95   19.80
  -6  -3   3  463.05   19.80
   5   3  -3  529.35   17.80
   5   3  -3  570.74   20.00
  -5  -3   3  556.34   21.70
  -5  -3   3  555.94   21.40
  -5  -3   3  564.84   18.60
   4   3  -3 1572.24   48.60
   4   3  -3 1538.85   48.50
  -4  -3   3 1558.04   49.99
  -4  -3   3 1587.44   50.49
   3   3  -3 1081.69   35.80
   3   3  -3 1174.48   34.90
   3   3  -3 1130.59   35.70
   3   3  -3 1119.19   33.80
  -3  -3   3 1148.79   33.70
  -3  -3   3 1120.19   36.70
   2   3  -3  187.38    7.90
   2   3  -3  190.18    9.50
   2   3  -3  196.18    7.00
   2   3  -3  189.68    6.90
   2   3  -3  179.78    8.10
  -2  -3   3  186.08    6.60
  -2  -3   3  188.98    7.90
  -2  -3   3  189.28    8.60
  -2  -3   3  200.48    6.70
  -2  -3   3  184.78    8.10
  -2  -3   3  197.98    8.50
   1   3  -3   11.20    1.20
   1   3  -3   11.50    1.60
  -1  -3   3   10.00    1.10
  -1  -3   3   10.10    1.70
  -1  -3   3   10.70    1.10
  -1  -3   3   10.50    1.20
  -1  -3   3   11.40    1.60
   0   3  -3  567.44   17.80
   0   3  -3  532.15   18.00
   0   3  -3  537.75   17.20
   0   3  -3  582.54   18.70
   0   3  -3  527.85   17.20
   0   3  -3  562.54   20.00
   0  -3   3  549.85   17.60
   0  -3   3  550.94   17.90
   0  -3   3  528.25   18.00
   0  -3   3  545.25   17.10
   0  -3   3  552.74   19.10
   0  -3   3  517.65   18.00
   0  -3   3  545.15   17.30
   0  -3   3  563.04   17.00
   0  -3   3  574.64   18.10
  -1   3  -3 1227.78   38.20
  -1   3  -3 1272.77   36.70
  -1   3  -3 1197.58   37.60
  -1   3  -3 1194.18   36.90
  -1   3  -3 1219.78   36.10
   1  -3   3 1226.58   36.60
   1  -3   3 1253.57   36.20
   1  -3   3 1215.08   36.60
   1  -3   3 1086.69   36.50
   1  -3   3 1160.58   37.60
   1  -3   3 1230.28   36.90
   1  -3   3 1148.59   37.90
  -2   3  -3  334.77   12.60
  -2   3  -3  337.97   12.70
  -2   3  -3  326.27   13.30
  -2   3  -3  351.06   11.50
  -2   3  -3  336.07   10.90
  -2   3  -3  331.67   12.10
   2  -3   3  331.27   12.30
   2  -3   3  352.06   11.30
   2  -3   3  348.17   14.20
   2  -3   3  333.67   13.00
   2  -3   3  328.97   12.20
  -3   3  -3 1034.10   30.20
  -3   3  -3 1006.00   31.80
  -3   3  -3  967.80   32.70
   3  -3   3  970.60   30.00
   3  -3   3  939.21   31.60
   3  -3   3  967.10   32.50
  -4   3  -3  821.82   27.80
  -4   3  -3  819.52   28.90
  -4   3  -3  890.41   27.30
   4  -3   3  778.42   28.50
   4  -3   3  824.32   28.00
  -5   3  -3  119.19    7.60
  -5   3  -3  130.39    5.90
  -5   3  -3  119.39    5.30
  -5   3  -3  117.29    7.10
   5  -3   3  123.59    7.20
   5  -3   3  115.39    7.70
  -6   3  -3    4.10    1.00
  -6   3  -3    4.60    1.50
  -6   3  -3    3.50    1.20
   6  -3   3    2.40    1.60
  -7   3  -3    5.80    1.70
  -7   3  -3    8.30    1.90
  -7   3  -3    8.60    2.90
   7  -3   3    4.80    1.60
   7  -3   3    8.60    2.40
  -8   3  -3    0.20    1.50
  -8   3  -3    0.00    1.40
   8  -3   3   -0.60    1.80
  -9   3  -3   96.09    6.40
  -9   3  -3   92.19    7.60
  -9   3  -3  109.79    8.80
   9  -3   3  104.49    8.10
   9  -3   3  109.69    8.30
 -10   3  -3  160.98   11.30
 -10   3  -3  171.38    9.30
 -10   3  -3  170.78   11.80
  10  -3   3  170.78   11.60
  10  -3   3  173.28   11.00
  11   2  -3    7.80    3.30
 -11  -2   3   17.30    3.50
 -11  -2   3   21.20    4.50
 -11  -2   3   15.50    3.40
  10   2  -3    2.70    1.60
  10   2  -3    1.00    1.90
 -10  -2   3    1.70    1.90
 -10  -2   3   -2.10    1.50
 -10  -2   3    0.50    1.70
   9   2  -3    0.60    1.20
   9   2  -3    0.00    1.00
  -9  -2   3    3.60    1.60
  -9  -2   3   -0.20    1.60
   8   2  -3  119.49    6.70
   8   2  -3  115.09    6.50
  -8  -2   3  107.29    7.90
  -8  -2   3  137.49   11.20
  -8  -2   3  120.29    8.30
   7   2  -3  523.95   19.00
   7   2  -3  508.65   18.20
  -7  -2   3  512.95   21.00
  -7  -2   3  526.95   21.00
   6   2  -3  397.66   15.10
  -6  -2   3  401.36   17.20
  -6  -2   3  399.16   18.30
   5   2  -3 1134.59   37.00
   5   2  -3 1138.79   34.80
   5   2  -3 1133.99   36.10
  -5  -2   3 1137.89   37.90
  -5  -2   3 1123.39   37.60
   4   2  -3 2351.16   70.89
   4   2  -3 2353.06   70.89
   4   2  -3 2379.86   69.49
   4   2  -3 2400.06   71.89
  -4  -2   3 2323.17   70.09
  -4  -2   3 2391.66   69.99
  -4  -2   3 2396.76   72.49
   3   2  -3 1382.26   50.99
   3   2  -3 1664.93   46.80
   3   2  -3 1578.74   48.30
   3   2  -3 1551.34   47.80
  -3  -2   3 1573.64   48.00
  -3  -2   3 1668.83   47.80
  -3  -2   3 1603.34   46.90
  -3  -2   3 1588.94   49.00
   2   2  -3  295.87    9.70
   2   2  -3  271.37   10.30
   2   2  -3  283.97   11.00
   2   2  -3  274.07   10.10
   2   2  -3  274.97   10.30
  -2  -2   3  280.37   11.10
  -2  -2   3  288.97   10.20
  -2  -2   3  284.27    9.40
  -2  -2   3  278.07   11.00
   1   2  -3  698.53   21.70
   1   2  -3  684.93   22.10
   1   2  -3  698.03   21.50
   1   2  -3  665.23   21.70
  -1  -2   3  706.23   21.60
  -1  -2   3  692.23   21.40
  -1  -2   3  690.73   21.90
  -1  -2   3  715.23   22.20
   0   2  -3 1047.20   32.20
   0   2  -3 1043.70   31.00
   0   2  -3 1078.29   32.20
   0   2  -3 1014.40   31.30
   0   2  -3 1074.49   31.60
   0   2  -3 1017.80   32.00
   0   2  -3 1074.69   32.60
   0  -2   3 1058.49   31.20
   0  -2   3 1047.30   30.90
   0  -2   3 1020.20   32.00
   0  -2   3 1055.49   31.90
   0  -2   3 1036.50   32.80
   0  -2   3 1088.59   31.90
  -1   2  -3   91.09    4.00
  -1   2  -3   85.89    4.20
  -1   2  -3   84.59    4.50
  -1   2  -3   88.99    4.50
  -1   2  -3   87.19    4.70
  -1   2  -3   87.69    4.20
   1  -2   3   86.29    4.50
   1  -2   3   90.39    3.80
   1  -2   3   84.99    4.70
   1  -2   3   81.49    4.00
   1  -2   3   82.09    4.10
  -2   2  -3  465.35   18.30
  -2   2  -3  500.05   16.70
  -2   2  -3  468.85   16.70
  -2   2  -3  515.65   15.90
  -2   2  -3  489.55   17.10
   2  -2   3  482.15   17.10
   2  -2   3  495.55   15.80
   2  -2   3  472.75   16.40
   2  -2   3  472.25   16.90
   2  -2   3  469.85   16.90
  -3   2  -3  492.85   17.40
  -3   2  -3  483.35   16.90
  -3   2  -3  459.95   15.00
   3  -2   3  476.25   16.90
   3  -2   3  472.45   15.90
   3  -2   3  469.45   16.90
   3  -2   3  472.75   17.40
  -4   2  -3  782.42   23.80
  -4   2  -3  727.03   25.10
  -4   2  -3  692.53   24.40
   4  -2   3  710.23   24.70
   4  -2   3  697.73   25.10
  -5   2  -3  183.48    9.40
  -5   2  -3  197.38    8.40
  -5   2  -3  196.18    9.30
   5  -2   3  172.88    9.40
   5  -2   3  179.78    9.10
  -6   2  -3  183.58    9.80
  -6   2  -3  200.08    8.80
  -6   2  -3  176.88    9.50
   6  -2   3  190.08   11.40
   6  -2   3  177.98    9.50
  -7   2  -3   70.29    5.80
  -7   2  -3   71.39    5.20
  -7   2  -3   72.89    7.80
   7  -2   3   82.49    6.00
   7  -2   3   70.39    5.70
  -8   2  -3    0.30    1.50
  -8   2  -3    1.10    2.10
  -8   2  -3    0.80    1.40
   8  -2   3    3.60    1.60
   8  -2   3    0.40    1.50
  -9   2  -3   62.49    6.20
  -9   2  -3   85.59    7.00
  -9   2  -3   69.29    5.70
   9  -2   3   68.89    6.40
   9  -2   3   74.89    7.00
 -10   2  -3   40.90    5.50
 -10   2  -3   42.90    6.70
 -10   2  -3   38.00    5.50
  10  -2   3   32.20    4.90
  10  -2   3   46.50    6.40
  11   1  -3   -4.20    3.30
 -11  -1   3   -2.60    1.60
 -11  -1   3   -5.10    2.50
 -11  -1   3   -0.80    2.40
  10   1  -3   -0.60    1.30
  10   1  -3   -0.30    1.60
 -10  -1   3    0.50    1.50
 -10  -1   3   -2.30    1.90
 -10  -1   3   -0.40    1.70
   9   1  -3   12.40    2.40
  -9  -1   3   18.30    3.70
  -9  -1   3   14.00    2.90
  -9  -1   3    9.80    2.50
   8   1  -3   55.89    4.60
   8   1  -3   65.59    4.50
  -8  -1   3   55.79    5.20
  -8  -1   3   60.29    5.50
  -8  -1   3   55.89    5.20
   7   1  -3   72.09    5.60
   7   1  -3   67.19    4.40
   7   1  -3   68.59    4.70
  -7  -1   3   74.69    5.70
  -7  -1   3   69.49    6.50
   6   1  -3  132.09    6.70
   6   1  -3  131.39    6.60
  -6  -1   3  137.09    7.80
   5   1  -3  671.63   21.90
   5   1  -3  659.53   23.00
   5   1  -3  660.73   21.90
  -5  -1   3  656.23   22.20
  -5  -1   3  656.23   23.40
  -5  -1   3  658.93   23.30
  -5  -1   3  643.74   21.80
   4   1  -3 1442.76   42.80
   4   1  -3 1442.96   42.50
   4   1  -3 1382.06   42.50
   4   1  -3 1418.46   43.80
   4   1  -3 1431.76   42.50
  -4  -1   3 1292.67   42.70
  -4  -1   3 1384.26   42.90
  -4  -1   3 1428.96   44.10
   3   1  -3  616.04   19.30
   3   1  -3  600.84   20.50
   3   1  -3  615.84   20.20
   3   1  -3  615.04   19.90
   3   1  -3  614.44   19.50
   3   1  -3  620.54   20.30
  -3  -1   3  620.64   19.60
  -3  -1   3  603.74   18.70
  -3  -1   3  618.24   20.10
  -3  -1   3  601.74   19.50
   2   1  -3  784.92   23.90
   2   1  -3  765.02   24.90
   2   1  -3  789.92   24.50
   2   1  -3  793.12   24.20
  -2  -1   3  746.23   24.80
  -2  -1   3  793.72   24.00
  -2  -1   3  748.13   23.90
  -2  -1   3  793.52   24.70
  -2  -1   3  820.82   25.00
   1   1  -3 1892.61   57.59
   1   1  -3 1934.61   57.89
   1   1  -3 1958.40   56.99
   1   1  -3 2094.09   58.29
   1   1  -3 1952.80   57.49
  -1  -1   3 1967.00   56.99
  -1  -1   3 1975.70   57.79
  -1  -1   3 1943.61   57.39
  -1  -1   3 1884.51   57.29
  -1  -1   3 2010.70   57.89
   0   1  -3 1131.39   33.40
   0   1  -3 1037.50   34.30
   0   1  -3 1226.18   34.20
   0   1  -3 1142.49   33.70
   0  -1   3 1023.50   34.10
   0  -1   3 1092.29   34.30
   0  -1   3 1286.47   34.70
   0  -1   3 1113.49   33.90
   0  -1   3 1121.09   33.50
   0  -1   3 1107.49   33.30
  -1   1  -3  268.97    9.50
  -1   1  -3  274.47    9.30
  -1   1  -3  254.17    8.50
  -1   1  -3  249.97    9.30
  -1   1  -3  270.27    9.60
   1  -1   3  249.08    9.40
   1  -1   3  266.27    9.30
   1  -1   3  255.97    9.30
   1  -1   3  239.38    8.90
   1  -1   3  238.68    9.30
   1  -1   3  250.87    8.50
  -2   1  -3  192.18    7.70
  -2   1  -3  186.18    7.60
  -2   1  -3  185.68    6.70
  -2   1  -3  191.38    9.40
  -2   1  -3  168.98    7.70
   2  -1   3  186.08    7.50
   2  -1   3  182.08    7.80
   2  -1   3  186.08    7.50
   2  -1   3  202.58    8.70
   2  -1   3  175.98    7.40
  -3   1  -3   48.40    2.40
  -3   1  -3   55.29    3.50
  -3   1  -3   52.59    3.60
  -3   1  -3   48.00    3.30
   3  -1   3   48.90    3.40
   3  -1   3   47.20    3.60
  -4   1  -3  155.38    7.70
  -4   1  -3  165.78    7.40
  -4   1  -3  156.78    7.40
   4  -1   3  157.68    7.60
   4  -1   3  150.08    6.80
   4  -1   3  150.88    7.70
  -5   1  -3   94.39    5.50
   5  -1   3   92.29    5.80
   5  -1   3   92.19    5.90
  -6   1  -3  328.57   15.50
  -6   1  -3  334.17   14.80
  -6   1  -3  350.06   14.20
   6  -1   3  340.87   14.60
   6  -1   3  340.87   14.40
  -7   1  -3  222.88   10.70
  -7   1  -3  219.38   10.60
  -7   1  -3  193.48   11.10
   7  -1   3  213.38   10.90
   7  -1   3  220.98   10.90
  -8   1  -3   12.40    2.70
  -8   1  -3   10.50    4.50
   8  -1   3   13.20    2.70
   8  -1   3   13.40    3.10
  -9   1  -3   -1.00    1.70
  -9   1  -3    0.60    2.00
  -9   1  -3   -3.10    2.10
   9  -1   3    2.40    1.90
   9  -1   3    1.70    2.30
 -10   1  -3    1.80    2.70
  10  -1   3   -0.10    2.40
  12   0  -3   35.50    6.10
  12   0  -3   44.90    6.40
 -12   0   3   42.10    6.90
 -12   0   3   31.40    6.10
 -12   0   3   46.30    8.80
  11   0  -3   -3.10    1.90
 -11   0   3   -3.70    3.10
 -11   0   3   -0.60    2.00
 -11   0   3   -2.90    2.10
  10   0  -3   -0.60    1.00
 -10   0   3   -0.70    2.20
 -10   0   3   -0.40    1.40
 -10   0   3    0.70    1.90
   9   0  -3  137.99    6.50
   9   0  -3  128.29    7.90
  -9   0   3  130.59    8.00
  -9   0   3  120.59    8.60
  -9   0   3  115.29    8.30
   8   0  -3   95.49    6.20
   8   0  -3   85.99    5.00
   8   0  -3   96.69    6.70
  -8   0   3   97.99    7.20
  -8   0   3   93.49    6.60
  -8   0   3   90.29    7.40
   7   0  -3   63.79    3.70
   7   0  -3   63.59    4.80
   7   0  -3   66.59    4.10
  -7   0   3   62.49    5.20
  -7   0   3   63.49    5.30
  -7   0   3   59.69    4.80
  -7   0   3   66.79    3.80
   6   0  -3   10.70    1.70
   6   0  -3   16.00    2.10
   6   0  -3   12.00    2.30
  -6   0   3   10.00    2.00
  -6   0   3   11.30    1.50
  -6   0   3   14.20    2.10
  -6   0   3    7.90    1.50
   5   0  -3  443.16   16.20
   5   0  -3  442.56   16.40
   5   0  -3  446.76   15.20
  -5   0   3  436.76   15.20
  -5   0   3  428.76   14.90
  -5   0   3  456.55   16.50
   4   0  -3  549.85   19.00
   4   0  -3  547.65   18.90
   4   0  -3  543.75   19.00
   4   0  -3  578.84   17.90
  -4   0   3  543.75   18.90
  -4   0   3  536.65   18.00
  -4   0   3  561.74   18.90
  -4   0   3  557.34   17.50
   3   0  -3  182.48    7.20
   3   0  -3  185.28    7.60
   3   0  -3  198.78    7.80
   3   0  -3  191.08    6.60
   3   0  -3  195.18    7.50
  -3   0   3  189.98    7.50
  -3   0   3  190.98    7.30
  -3   0   3  191.48    7.70
  -3   0   3  192.18    6.60
   2   0  -3 5877.11  172.48
   2   0  -3 5818.82  172.18
   2   0  -3 6048.29  173.08
   2   0  -3 6254.77  173.18
   2   0  -3 5369.26  173.38
  -2   0   3 6288.97  172.88
  -2   0   3 6211.88  173.18
  -2   0   3 5952.60  172.48
  -2   0   3 6087.29  173.08
   1   0  -3 9661.43  277.57
   1   0  -3 9640.94  277.07
   1   0  -3 9293.07  277.07
  -1   0   3 9484.35  277.17
  -1   0   3 9888.01  277.67
  -1   0   3 9999.00  277.37
   0   0  -3 1415.96   42.50
   0   0  -3 1582.34   43.10
   0   0  -3 1491.75   42.60
   0   0  -3 1348.27   42.40
   0   0  -3 1399.76   42.90
   0   0   3 1301.77   42.60
   0   0   3 1449.06   42.40
   0   0   3 1435.26   42.70
   0   0   3 1374.36   42.40
   0   0   3 1534.25   43.00
   0   0   3 1365.76   42.50
  -1   0  -3  341.97   11.60
  -1   0  -3  362.86   11.90
  -1   0  -3  335.67   11.90
  -1   0  -3  332.07   12.00
  -1   0  -3  321.77   14.40
   1   0   3  357.36   11.90
   1   0   3  350.86   11.80
   1   0   3  336.47   11.70
   1   0   3  339.97   11.40
   1   0   3  336.17   11.80
  -2   0  -3 1146.09   34.10
  -2   0  -3 1177.18   34.60
  -2   0  -3 1104.69   33.20
  -2   0  -3 1115.59   34.40
  -2   0  -3 1153.68   34.40
   2   0   3 1064.79   33.20
   2   0   3  992.60   34.80
   2   0   3 1063.29   33.90
  -3   0  -3  689.13   21.90
  -3   0  -3  689.13   24.40
  -3   0  -3  711.83   23.20
  -3   0  -3  687.03   21.80
  -3   0  -3  704.83   23.10
   3   0   3  701.53   22.80
   3   0   3  642.14   21.40
   3   0   3  676.03   22.70
  -4   0  -3   22.50    2.70
  -4   0  -3   24.10    2.20
  -4   0  -3   25.60    2.50
   4   0   3   21.40    2.30
   4   0   3   22.40    2.30
  -5   0  -3  172.08   10.10
  -5   0  -3  161.48    8.60
  -5   0  -3  161.18    9.70
   5   0   3  149.49    7.70
   5   0   3  153.68   10.80
  -6   0  -3  459.75   17.90
  -6   0  -3  396.46   17.80
   6   0   3  449.46   17.20
   6   0   3  462.35   17.40
  -7   0  -3   50.39    5.10
  -7   0  -3   57.79    4.20
  -7   0  -3   57.39    5.00
   7   0   3   58.79    4.90
  -8   0  -3   23.60    3.80
  -8   0  -3   23.40    3.90
  -8   0  -3   28.20    3.20
   8   0   3   26.10    4.10
   8   0   3   24.60    3.70
  -9   0  -3  161.88   11.20
  -9   0  -3  169.78   15.40
   9   0   3  192.88   10.60
   9   0   3  199.98   11.00
 -10   0  -3   67.39    6.50
 -10   0  -3   60.69    7.40
  10   0   3   57.09    7.30
  10   0   3   65.39    6.20
  12  -1  -3   10.90    3.60
  12  -1  -3    9.20    3.60
 -12   1   3   19.20    5.10
 -12   1   3   16.10    3.70
  11  -1  -3    3.20    2.30
 -11   1   3    6.20    2.20
 -11   1   3    2.80    2.40
 -11   1   3   12.40    3.70
  10  -1  -3   14.40    3.50
 -10   1   3   19.70    4.10
 -10   1   3   18.30    3.60
 -10   1   3   17.80    4.10
   9  -1  -3   84.79    4.60
   9  -1  -3   84.59    6.40
   9  -1  -3   85.89    6.50
  -9   1   3   76.39    7.10
  -9   1   3   82.69    5.70
  -9   1   3   85.29    6.50
   8  -1  -3  126.59    7.80
   8  -1  -3  132.09    6.10
   8  -1  -3  125.99    8.10
  -8   1   3  129.89    6.80
  -8   1   3  133.19    8.80
  -8   1   3  127.89    7.10
  -8   1   3  128.99    7.70
   7  -1  -3   21.40    2.90
   7  -1  -3   16.10    1.90
   7  -1  -3   20.50    2.70
  -7   1   3   19.40    2.40
  -7   1   3   16.70    3.80
  -7   1   3   13.50    2.20
  -7   1   3   17.30    2.10
  -7   1   3   17.70    5.40
   6  -1  -3   63.59    4.90
   6  -1  -3   66.39    4.60
   6  -1  -3   62.99    3.70
  -6   1   3   58.79    4.90
  -6   1   3   57.49    4.10
  -6   1   3   64.79    4.30
  -6   1   3   65.89    4.40
   5  -1  -3   58.99    4.30
   5  -1  -3   64.99    4.30
   5  -1  -3   56.39    3.70
  -5   1   3   61.19    3.50
  -5   1   3   63.79    4.00
  -5   1   3   63.19    4.10
   4  -1  -3   10.50    1.50
   4  -1  -3    9.60    1.40
   4  -1  -3    8.60    1.70
  -4   1   3   12.40    1.70
  -4   1   3   10.40    1.40
  -4   1   3   10.30    1.50
  -4   1   3   10.60    1.20
   3  -1  -3  901.51   27.80
   3  -1  -3  880.21   28.40
   3  -1  -3  858.81   28.90
   3  -1  -3  899.61   28.30
   3  -1  -3  956.20   28.10
   3  -1  -3  934.71   28.50
  -3   1   3  900.71   28.80
  -3   1   3  929.11   27.70
  -3   1   3  937.11   27.50
  -3   1   3  893.51   28.40
  -3   1   3  909.51   28.90
  -3   1   3  844.92   28.00
   2  -1  -3 1139.19   36.40
   2  -1  -3 1265.07   35.90
   2  -1  -3 1173.08   36.10
  -2   1   3 1174.38   36.20
  -2   1   3 1113.99   36.00
  -2   1   3 1270.67   35.70
  -2   1   3 1203.28   36.60
  -2   1   3 1161.38   35.20
   1  -1  -3  888.91   28.40
   1  -1  -3 1027.50   28.90
   1  -1  -3  937.81   28.70
   1  -1  -3  874.51   28.70
  -1   1   3  933.71   28.60
  -1   1   3  929.81   28.80
  -1   1   3  987.40   28.80
  -1   1   3  907.41   28.70
  -1   1   3  882.01   28.80
  -1   1   3  940.01   27.70
   0  -1  -3  752.32   22.40
   0  -1  -3  696.13   22.70
   0  -1  -3  795.12   24.90
   0  -1  -3  688.93   22.60
   0  -1  -3  733.73   24.10
   0   1   3  723.73   23.00
   0   1   3  740.43   23.30
   0   1   3  732.23   22.40
   0   1   3  689.03   23.30
   0   1   3  713.03   22.60
  -1  -1  -3 2148.89   65.19
  -1  -1  -3 2123.99   64.49
  -1  -1  -3 2251.57   65.49
  -1  -1  -3 2139.39   64.99
   1   1   3 2243.28   66.09
   1   1   3 2183.38   64.69
   1   1   3 2122.59   64.89
   1   1   3 2297.17   65.19
  -2  -1  -3 1278.77   40.70
  -2  -1  -3 1387.46   41.50
  -2  -1  -3 1382.56   41.80
  -2  -1  -3 1232.68   41.50
  -2  -1  -3 1393.26   41.30
   2   1   3 1379.76   41.00
   2   1   3 1286.07   40.40
  -3  -1  -3  298.37   12.10
  -3  -1  -3  311.77   12.20
  -3  -1  -3  321.17   12.60
   3   1   3  299.97   11.50
   3   1   3  299.37   11.20
  -4  -1  -3   56.29    6.50
  -4  -1  -3   53.89    4.30
   4   1   3   49.99    3.50
  -5  -1  -3   56.49    4.70
  -5  -1  -3   58.69    4.80
   5   1   3   56.79    4.20
   5   1   3   61.69    4.10
  -6  -1  -3   29.50    3.70
  -6  -1  -3   34.90    3.80
   6   1   3   29.50    3.50
   6   1   3   40.40    3.50
  -7  -1  -3   15.30    3.00
  -7  -1  -3   20.60    3.10
   7   1   3   28.30    3.40
  -8  -1  -3   52.59    5.20
  -8  -1  -3   53.09    5.60
   8   1   3   44.60    5.80
   8   1   3   47.40    4.50
  -9  -1  -3   65.89    6.50
  -9  -1  -3   59.79    6.30
   9   1   3   59.29    5.90
   9   1   3   64.89    6.10
  12  -2  -3  143.29   10.00
  12  -2  -3  127.69   11.30
 -12   2   3  157.88   12.40
 -12   2   3  128.49    9.60
  11  -2  -3   11.90    3.30
 -11   2   3   15.10    3.20
 -11   2   3   21.30    4.90
  10  -2  -3   -0.80    2.10
  10  -2  -3    1.30    1.80
 -10   2   3   -1.10    1.60
 -10   2   3   -2.40    2.10
 -10   2   3    0.80    1.40
   9  -2  -3   12.50    1.90
   9  -2  -3   13.10    2.90
  -9   2   3   10.70    1.90
  -9   2   3    9.00    3.30
  -9   2   3   15.20    2.80
  -9   2   3   13.20    2.70
   8  -2  -3   61.09    3.70
   8  -2  -3   62.49    5.30
   8  -2  -3   71.59    5.30
  -8   2   3   64.29    5.80
  -8   2   3   52.99    4.60
  -8   2   3   61.59    4.00
  -8   2   3   49.90    5.70
   7  -2  -3    1.90    0.90
   7  -2  -3    0.60    0.70
   7  -2  -3   -1.50    1.70
  -7   2   3   -0.40    1.20
  -7   2   3   -0.60    0.90
  -7   2   3    0.40    0.80
  -7   2   3   -1.90    0.90
   6  -2  -3  454.15   17.00
   6  -2  -3  432.16   17.80
  -6   2   3  468.65   16.10
  -6   2   3  442.86   18.40
  -6   2   3  429.86   17.10
   5  -2  -3    7.20    1.70
   5  -2  -3    6.80    1.50
  -5   2   3    9.70    1.90
  -5   2   3    7.70    2.00
   4  -2  -3    3.30    0.70
   4  -2  -3    3.50    1.00
  -4   2   3    3.20    1.00
  -4   2   3    3.10    1.10
  -4   2   3    4.30    0.80
  -4   2   3    3.80    1.30
  -4   2   3    4.30    0.80
   3  -2  -3 1261.47   40.00
   3  -2  -3 1299.77   38.60
   3  -2  -3 1245.88   39.50
  -3   2   3 1272.97   40.10
  -3   2   3 1279.57   40.40
  -3   2   3 1286.47   40.40
  -3   2   3 1345.47   38.60
   2  -2  -3   59.89    3.50
   2  -2  -3   53.79    3.30
   2  -2  -3   54.69    3.50
   2  -2  -3   59.49    3.10
  -2   2   3   61.79    3.70
  -2   2   3   58.29    3.70
  -2   2   3   53.29    3.60
   1  -2  -3  205.98    8.10
   1  -2  -3  192.58    6.50
   1  -2  -3  173.18    7.10
   1  -2  -3  182.08    7.80
   1  -2  -3  183.28    7.80
  -1   2   3  197.78    6.50
  -1   2   3  186.68    7.60
  -1   2   3  195.08    8.30
  -1   2   3  182.78    8.10
   0  -2  -3  775.92   24.50
   0  -2  -3  676.43   23.50
   0  -2  -3  718.83   24.60
   0  -2  -3  782.22   23.40
   0   2   3  836.32   23.30
   0   2   3  772.32   23.60
   0   2   3  766.02   23.70
   0   2   3  740.63   24.40
   0   2   3  731.23   25.10
  -1  -2  -3 2884.61   87.19
  -1  -2  -3 2974.10   86.19
  -1  -2  -3 2984.70   87.29
   1   2   3 2845.92   87.79
   1   2   3 3024.90   85.79
   1   2   3 2862.81   86.59
   1   2   3 2919.11   86.69
  -2  -2  -3  974.20   31.60
  -2  -2  -3  909.71   29.80
  -2  -2  -3  934.91   31.20
  -2  -2  -3  965.70   30.70
   2   2   3  950.40   30.50
   2   2   3  966.20   32.20
   2   2   3  994.80   29.60
  -3  -2  -3  556.54   19.10
  -3  -2  -3  496.65   17.70
  -3  -2  -3  530.55   19.30
   3   2   3  505.35   18.20
   3   2   3  521.45   18.00
  -4  -2  -3 1090.19   35.60
  -4  -2  -3 1099.79   36.10
  -4  -2  -3 1059.79   36.30
   4   2   3 1035.90   34.10
   4   2   3 1010.20   32.90
  -5  -2  -3  315.87   14.00
  -5  -2  -3  313.97   14.30
   5   2   3  304.77   11.70
   5   2   3  307.47   12.70
  -6  -2  -3   45.80    5.00
  -6  -2  -3   42.00    4.70
   6   2   3   40.00    3.30
   6   2   3   43.30    4.00
  -7  -2  -3   19.10    3.60
  -7  -2  -3   22.00    3.90
   7   2   3   17.10    2.90
  -8  -2  -3   47.10    5.50
  -8  -2  -3   44.90    5.50
  -8  -2  -3   35.50    5.00
   8   2   3   43.90    4.90
  -9  -2  -3    8.20    3.50
  -9  -2  -3   16.40    3.60
  -9  -2  -3   13.70    3.60
   9   2   3   10.30    2.50
  12  -3  -3  128.29   10.10
 -12   3   3  104.59    8.90
 -12   3   3  149.19   12.00
  11  -3  -3   18.80    4.40
  11  -3  -3   25.10    4.70
 -11   3   3   20.60    5.40
 -11   3   3    8.60    4.70
  10  -3  -3   11.90    2.90
 -10   3   3   16.30    3.30
 -10   3   3   23.70    5.20
 -10   3   3   18.60    3.10
   9  -3  -3  100.99    7.90
   9  -3  -3  101.09    7.00
  -9   3   3   97.89    6.50
  -9   3   3  102.19    8.70
  -9   3   3   94.79    6.80
   8  -3  -3   15.90    2.90
   8  -3  -3   15.60    1.90
   8  -3  -3    8.30    2.50
  -8   3   3   10.50    3.20
  -8   3   3   13.70    3.40
   7  -3  -3  163.58    9.80
   7  -3  -3  164.38    8.60
  -7   3   3  162.38   10.20
  -7   3   3  172.38    9.50
  -7   3   3  181.18    8.00
   6  -3  -3  314.47   14.30
   6  -3  -3  355.46   15.60
   6  -3  -3  355.76   14.00
  -6   3   3  344.27   15.00
  -6   3   3  371.86   12.90
   5  -3  -3  118.39    7.60
   5  -3  -3  129.99    6.60
   5  -3  -3  118.99    5.50
  -5   3   3  127.09    5.00
  -5   3   3  130.59    8.10
  -5   3   3  136.89    7.70
  -5   3   3  143.69    5.40
   4  -3  -3  304.87   11.80
   4  -3  -3  313.07   10.70
  -4   3   3  306.27   13.20
  -4   3   3  304.67   13.30
  -4   3   3  311.67   12.80
   3  -3  -3  243.88    8.70
   3  -3  -3  236.88    9.70
  -3   3   3  237.98   10.60
  -3   3   3  236.58   10.40
  -3   3   3  242.48   10.80
  -3   3   3  251.07   10.80
  -3   3   3  235.58   10.50
   2  -3  -3   54.59    3.30
   2  -3  -3   49.80    2.90
   2  -3  -3   47.30    3.40
  -2   3   3   49.40    3.50
  -2   3   3   53.59    3.30
  -2   3   3   47.40    3.80
  -2   3   3   50.49    3.60
  -2   3   3   46.90    3.80
   1  -3  -3   20.90    2.00
   1  -3  -3   20.30    2.00
   1  -3  -3   18.00    1.70
  -1   3   3   21.60    2.10
  -1   3   3   21.80    1.40
  -1   3   3   20.00    2.30
  -1   3   3   17.20    1.90
  -1   3   3   19.60    2.30
   0  -3  -3  630.64   22.80
   0  -3  -3  631.84   21.30
   0  -3  -3  673.93   21.10
   0  -3  -3  679.33   22.60
   0   3   3  696.73   23.40
   0   3   3  682.53   22.80
   0   3   3  705.43   22.90
   0   3   3  658.23   23.70
   0   3   3  700.13   21.40
  -1  -3  -3 1086.99   36.60
  -1  -3  -3 1149.19   37.60
  -1  -3  -3 1136.69   37.50
  -1  -3  -3 1172.08   36.20
   1   3   3 1138.19   38.50
   1   3   3 1246.98   35.70
   1   3   3 1140.79   36.90
   1   3   3 1261.67   38.10
  -2  -3  -3  571.04   21.30
  -2  -3  -3  537.95   18.80
  -2  -3  -3  601.74   20.20
   2   3   3  570.44   20.10
   2   3   3  598.64   18.60
   2   3   3  578.54   27.50
  -3  -3  -3  616.44   26.10
  -3  -3  -3  619.74   23.60
  -3  -3  -3  658.63   24.90
   3   3   3  636.34   22.10
   3   3   3  643.14   24.30
   3   3   3  664.53   20.50
  -4  -3  -3  937.11   32.50
  -4  -3  -3  923.71   31.90
  -4  -3  -3  943.61   32.90
   4   3   3  992.60   33.90
   4   3   3  836.42   31.10
   4   3   3  928.81   30.80
  -5  -3  -3  678.33   26.40
  -5  -3  -3  698.03   25.80
  -5  -3  -3  726.63   26.50
   5   3   3  662.73   27.00
   5   3   3  691.23   24.30
  -6  -3  -3  112.59    8.10
  -6  -3  -3  102.19    7.70
  -6  -3  -3   95.09    7.40
   6   3   3   94.39    7.70
   6   3   3   97.29    6.40
  -7  -3  -3   38.40    4.90
  -7  -3  -3   38.50    4.90
  -7  -3  -3   26.70    4.60
   7   3   3   41.30    5.60
   7   3   3   37.80    4.30
  -8  -3  -3   60.39    6.30
  -8  -3  -3   66.59    6.50
  -8  -3  -3   73.69    7.40
   8   3   3   57.99    5.80
   8   3   3   45.70    6.50
  12  -4  -3   74.79    8.10
 -12   4   3   73.79    7.60
  11  -4  -3   37.30    5.20
  11  -4  -3   42.90    5.90
 -11   4   3   44.50    5.20
 -11   4   3   44.80    4.90
 -11   4   3   50.39    6.70
  10  -4  -3   52.89    6.70
  10  -4  -3   78.59    6.30
 -10   4   3   64.59    6.10
 -10   4   3   62.89    5.40
 -10   4   3   65.59    7.80
   9  -4  -3  188.78   12.20
   9  -4  -3  193.98   10.50
  -9   4   3  189.18   12.90
  -9   4   3  220.18   13.30
  -9   4   3  189.98   11.20
   8  -4  -3    4.70    1.70
   8  -4  -3    1.40    1.90
  -8   4   3    4.40    1.70
  -8   4   3    5.00    1.50
  -8   4   3    6.00    2.90
   7  -4  -3  109.29    8.00
   7  -4  -3  114.19    6.90
  -7   4   3  126.39    9.00
  -7   4   3  109.09    7.70
  -7   4   3  111.19    5.70
   6  -4  -3    5.70    1.90
   6  -4  -3    7.50    2.10
  -6   4   3    5.20    2.20
  -6   4   3    9.60    2.60
   5  -4  -3  119.39    7.90
   5  -4  -3  119.79    6.40
  -5   4   3  110.79    7.70
  -5   4   3  119.59    7.40
  -5   4   3  122.89    7.80
   4  -4  -3  662.63   22.70
  -4   4   3  641.44   21.00
  -4   4   3  673.53   24.80
  -4   4   3  688.23   24.40
  -4   4   3  663.83   24.70
   3  -4  -3  169.08    8.10
   3  -4  -3  175.58    7.40
   3  -4  -3  166.48    6.80
  -3   4   3  170.78    9.00
  -3   4   3  178.68    9.20
  -3   4   3  175.68    8.90
  -3   4   3  169.68    7.20
   2  -4  -3  143.69    6.40
   2  -4  -3  135.89    7.10
  -2   4   3  139.09    7.20
  -2   4   3  135.39    7.00
  -2   4   3  140.99    7.80
  -2   4   3  138.09    7.80
   1  -4  -3  148.99    7.00
   1  -4  -3  151.98    5.60
   1  -4  -3  149.79    7.70
  -1   4   3  147.49    8.00
  -1   4   3  169.88    7.50
  -1   4   3  147.99    7.00
  -1   4   3  140.19    8.10
   0  -4  -3  467.35   17.70
   0  -4  -3  427.06   16.30
   0  -4  -3  482.35   17.30
   0  -4  -3  463.85   16.50
   0   4   3  475.45   18.60
   0   4   3  469.35   16.40
   0   4   3  488.45   16.30
   0   4   3  457.45   15.90
   0   4   3  483.15   17.90
  -1  -4  -3    1.10    1.00
  -1  -4  -3    3.10    0.90
  -1  -4  -3    0.70    0.90
  -1  -4  -3    0.70    0.70
   1   4   3    0.40    1.10
   1   4   3    1.10    0.90
   1   4   3    0.70    0.70
  -2  -4  -3  278.27   12.70
  -2  -4  -3  271.87   12.60
  -2  -4  -3  278.87   11.50
   2   4   3  272.17   11.80
   2   4   3  264.97   13.30
   2   4   3  284.97   12.50
   2   4   3  296.97   10.20
  -3  -4  -3  671.03   26.20
  -3  -4  -3  723.03   26.40
   3   4   3  696.53   27.10
   3   4   3  709.73   24.90
   3   4   3  769.12   26.10
  -4  -4  -3  408.36   18.00
  -4  -4  -3  416.56   17.00
  -4  -4  -3  408.16   17.80
   4   4   3  405.96   16.00
   4   4   3  402.16   18.40
  -5  -4  -3  414.76   17.90
  -5  -4  -3  427.36   18.70
  -5  -4  -3  389.26   18.50
   5   4   3  408.06   16.50
   5   4   3  434.06   17.40
   5   4   3  427.16   19.50
  -6  -4  -3  100.09    8.50
  -6  -4  -3   85.29    7.50
  -6  -4  -3  108.49    7.80
   6   4   3   85.69    6.30
   6   4   3   91.89    8.20
   6   4   3   91.49    8.50
  -7  -4  -3  294.27   15.40
  -7  -4  -3  266.77   14.90
  -7  -4  -3  283.77   14.70
   7   4   3  282.07   15.90
   7   4   3  261.07   12.80
   7   4   3  235.58   12.80
  -8  -4  -3   85.49    9.20
  -8  -4  -3   75.09    7.60
  -8  -4  -3   60.49    7.20
   8   4   3   72.59    6.40
  11  -5  -3   98.39    8.50
  11  -5  -3   77.09    8.70
 -11   5   3   91.49    7.90
 -11   5   3   97.89    7.90
 -11   5   3   98.09   10.20
  10  -5  -3  154.98   11.70
  10  -5  -3  155.28    9.60
 -10   5   3  146.29   12.10
 -10   5   3  177.28   11.20
 -10   5   3  159.18    9.10
   9  -5  -3  121.29   12.30
   9  -5  -3  119.89    7.70
  -9   5   3  106.29    8.50
  -9   5   3  109.19   10.20
   8  -5  -3   95.19    6.30
   8  -5  -3   96.19    8.10
  -8   5   3   97.79    7.50
  -8   5   3   94.19    5.50
  -8   5   3   98.99    8.80
   7  -5  -3   76.69    5.50
   7  -5  -3   86.19    7.30
  -7   5   3   83.59    7.50
  -7   5   3   73.49    6.60
   6  -5  -3   11.60    2.20
   6  -5  -3   13.90    3.00
  -6   5   3   18.90    3.70
  -6   5   3   11.50    3.30
   5  -5  -3   44.80    4.90
   5  -5  -3   52.79    4.60
  -5   5   3   41.20    4.60
  -5   5   3   42.90    4.80
  -5   5   3   40.60    4.30
   4  -5  -3   75.99    7.10
  -4   5   3   82.29    6.20
  -4   5   3   75.49    7.00
  -4   5   3   64.79    7.50
  -4   5   3   64.29    3.90
   3  -5  -3   13.10    1.90
   3  -5  -3   16.70    3.40
  -3   5   3   19.90    2.80
  -3   5   3   17.70    2.70
  -3   5   3   17.20    2.60
   2  -5  -3  276.57   13.70
   2  -5  -3  284.37   11.20
  -2   5   3  288.87   13.30
  -2   5   3  277.37   12.40
  -2   5   3  278.67   13.20
   1  -5  -3  461.65   18.20
   1  -5  -3  471.75   17.30
  -1   5   3  456.75   18.80
  -1   5   3  465.15   19.30
  -1   5   3  490.05   17.50
   0  -5  -3  325.97   13.40
   0  -5  -3  314.47   13.90
   0   5   3  327.67   14.50
   0   5   3  337.67   12.70
   0   5   3  334.87   12.30
   0   5   3  279.67   13.00
   0   5   3  305.67   14.70
  -1  -5  -3   22.00    3.00
  -1  -5  -3   25.40    2.50
  -1  -5  -3   26.50    3.20
   1   5   3   28.20    3.10
   1   5   3   20.80    2.30
   1   5   3   27.20    3.50
  -2  -5  -3  183.68   10.00
  -2  -5  -3  169.48    9.70
   2   5   3  161.38   10.30
   2   5   3  181.78    9.50
   2   5   3  173.68    9.10
  -3  -5  -3  186.58   10.60
  -3  -5  -3  192.68   10.80
  -3  -5  -3  191.98    9.60
   3   5   3  175.78   11.20
   3   5   3  181.08    9.50
   3   5   3  204.18   10.20
  -4  -5  -3  159.78    9.10
  -4  -5  -3  152.08    9.70
  -4  -5  -3  130.89    9.20
   4   5   3  161.88    8.80
   4   5   3  165.48   10.70
  -5  -5  -3  198.88   11.10
  -5  -5  -3  200.68   12.00
  -5  -5  -3  208.88   12.20
   5   5   3  217.38   13.00
   5   5   3  196.38   10.70
   5   5   3  201.08   10.30
  -6  -5  -3  310.27   16.20
  -6  -5  -3  278.17   14.60
  -6  -5  -3  278.47   15.50
   6   5   3  283.97   16.30
   6   5   3  293.47   13.40
   6   5   3  291.27   14.40
  -7  -5  -3  490.95   22.30
  -7  -5  -3  444.16   20.70
   7   5   3  448.16   22.30
   7   5   3  446.26   19.30
  11  -6  -3   69.69    7.70
 -11   6   3   73.79    7.90
 -11   6   3   79.19    9.40
  10  -6  -3  119.59    8.10
  10  -6  -3  117.59   10.20
 -10   6   3  104.89    8.10
 -10   6   3  123.09   11.20
 -10   6   3  109.39    9.40
   9  -6  -3   39.50    5.00
  -9   6   3   26.50    5.50
  -9   6   3   31.20    5.80
   8  -6  -3   30.20    3.60
   8  -6  -3   25.30    4.60
  -8   6   3   19.80    4.20
  -8   6   3   22.10    4.80
   7  -6  -3  124.79    7.40
   7  -6  -3  131.99    9.80
  -7   6   3  126.19    9.30
  -7   6   3  126.49    9.90
   6  -6  -3  174.18   11.30
   6  -6  -3  186.98    9.20
  -6   6   3  177.48   11.40
  -6   6   3  164.98   10.50
  -6   6   3  187.68   11.80
   5  -6  -3    5.90    2.40
   5  -6  -3    5.20    1.50
  -5   6   3    5.10    1.80
  -5   6   3    3.20    1.00
  -5   6   3    8.00    2.50
   4  -6  -3   28.60    2.70
   4  -6  -3   36.70    3.50
   4  -6  -3   33.60    2.60
  -4   6   3   37.10    4.30
  -4   6   3   29.70    4.00
  -4   6   3   27.70    4.00
   3  -6  -3   18.50    2.70
  -3   6   3   27.50    4.10
  -3   6   3   34.10    3.80
  -3   6   3   27.20    3.60
   2  -6  -3  311.17   12.60
   2  -6  -3  318.77   13.90
  -2   6   3  317.07   15.20
  -2   6   3  308.77   14.90
  -2   6   3  314.07   14.00
   1  -6  -3  601.54   23.10
   1  -6  -3  610.74   22.00
  -1   6   3  616.84   24.10
  -1   6   3  580.14   22.20
  -1   6   3  650.83   25.10
   0  -6  -3  137.19    8.40
   0  -6  -3  134.79    7.90
   0   6   3  153.18    9.10
   0   6   3  140.89    9.50
  -1  -6  -3   80.39    6.20
  -1  -6  -3   80.69    4.90
  -1  -6  -3   81.69    4.50
  -1  -6  -3   89.99    6.70
   1   6   3   86.49    7.20
   1   6   3   87.29    6.70
  -2  -6  -3  178.38   10.40
  -2  -6  -3  185.68   12.40
  -2  -6  -3  168.58   10.10
   2   6   3  160.98   11.10
   2   6   3  181.88   10.10
  -3  -6  -3  253.87   13.60
  -3  -6  -3  278.17   12.20
  -3  -6  -3  264.27   13.90
   3   6   3  243.08   14.30
   3   6   3  275.47   13.10
   3   6   3  244.98   12.30
  -4  -6  -3   70.09    5.50
  -4  -6  -3   73.49    6.90
  -4  -6  -3   64.29    6.50
   4   6   3   61.39    6.00
   4   6   3   70.69    5.80
   4   6   3   60.59    6.90
  -5  -6  -3   36.00    4.90
  -5  -6  -3   30.20    4.20
  -5  -6  -3   36.90    5.10
   5   6   3   34.80    5.00
   5   6   3   37.50    6.00
   5   6   3   40.80    4.60
  -6  -6  -3  358.26   17.30
  -6  -6  -3  373.76   18.50
   6   6   3  367.76   16.90
   6   6   3  340.57   19.20
  11  -7  -3   85.79    9.10
  11  -7  -3   71.79    7.90
 -11   7   3   69.39   10.10
 -11   7   3   93.19    8.30
  10  -7  -3   56.49    8.70
  10  -7  -3   47.30    6.40
 -10   7   3   47.60    7.00
 -10   7   3   51.59    7.50
   9  -7  -3    3.80    2.10
   9  -7  -3    3.10    2.20
  -9   7   3    5.10    2.80
  -9   7   3    6.30    2.70
   8  -7  -3   36.40    6.20
   8  -7  -3   36.20    6.40
  -8   7   3   51.99    6.70
  -8   7   3   51.59    6.70
   7  -7  -3  113.29    7.20
   7  -7  -3  114.19    9.40
  -7   7   3  109.19   10.00
  -7   7   3  107.69    9.00
   6  -7  -3   99.39    8.60
   6  -7  -3   97.19    6.40
  -6   7   3   92.39    8.30
  -6   7   3  103.89    8.80
  -6   7   3   88.49    7.80
   5  -7  -3    5.00    2.30
   5  -7  -3    9.30    2.20
  -5   7   3    9.00    2.40
  -5   7   3    5.00    2.60
  -5   7   3    4.30    2.80
   4  -7  -3   65.69    5.10
  -4   7   3   59.89    6.00
  -4   7   3   57.79    6.10
  -4   7   3   59.19    5.80
   3  -7  -3    4.40    1.20
   3  -7  -3    5.70    1.70
  -3   7   3    5.20    1.80
  -3   7   3    2.70    1.70
  -3   7   3    1.90    1.90
   2  -7  -3  125.19    7.90
   2  -7  -3  112.19    7.30
  -2   7   3  123.99    9.10
  -2   7   3  113.79    8.40
   1  -7  -3   90.69    6.70
   1  -7  -3   89.39    6.10
  -1   7   3   96.69    7.70
  -1   7   3   92.39    6.40
  -1   7   3   86.99    7.80
   0  -7  -3   73.19    5.70
   0  -7  -3   78.09    6.60
   0  -7  -3   72.29    4.30
   0   7   3   72.89    6.50
   0   7   3   80.19    7.20
   0   7   3   70.69    6.00
  -1  -7  -3  276.77   14.20
  -1  -7  -3  276.87   13.70
   1   7   3  263.47   15.30
   1   7   3  281.57   14.30
  -2  -7  -3  241.88   13.60
  -2  -7  -3  268.87   11.80
   2   7   3  289.17   20.80
   2   7   3  264.27   13.80
  -3  -7  -3  102.59    7.00
  -3  -7  -3   98.29    8.10
  -3  -7  -3   95.49    7.70
   3   7   3   79.29    8.40
   3   7   3  106.39    7.90
  -4  -7  -3   23.20    4.50
  -4  -7  -3   24.50    4.60
  -4  -7  -3   30.20    4.40
   4   7   3   32.60    4.50
   4   7   3   25.30    5.10
  -5  -7  -3   78.89    7.00
  -5  -7  -3   79.79    7.60
   5   7   3   81.19    7.50
   5   7   3   84.99    8.90
  10  -8  -3   32.00    6.40
 -10   8   3   29.00    5.50
   9  -8  -3   19.60    4.00
  -9   8   3   26.20    5.80
  -9   8   3   21.90    4.60
   8  -8  -3  263.17   12.80
   8  -8  -3  280.07   16.40
  -8   8   3  239.78   16.70
  -8   8   3  259.37   16.10
   7  -8  -3  122.79    9.90
   7  -8  -3  112.69    7.50
  -7   8   3  113.29   10.30
  -7   8   3  113.29   10.10
   6  -8  -3   11.00    2.70
   6  -8  -3    8.10    3.40
  -6   8   3   15.70    4.50
  -6   8   3   14.30    3.70
  -6   8   3   12.30    3.50
   5  -8  -3   67.89    5.70
   5  -8  -3   73.19    7.60
  -5   8   3   82.29    7.30
  -5   8   3   74.69    7.00
  -5   8   3   69.19    7.40
   4  -8  -3  147.49    9.10
  -4   8   3  156.88   10.30
  -4   8   3  163.08   11.40
  -4   8   3  169.68   11.10
   3  -8  -3   -0.70    0.90
  -3   8   3   -0.80    1.50
  -3   8   3   -2.30    1.80
  -3   8   3   -1.50    1.60
   2  -8  -3    6.00    1.80
   2  -8  -3    5.20    1.80
  -2   8   3    4.80    2.90
  -2   8   3    6.30    2.50
  -2   8   3    5.60    2.80
   1  -8  -3   57.49    5.00
   1  -8  -3   62.39    6.00
  -1   8   3   65.39    7.20
  -1   8   3   58.09    6.50
  -1   8   3   62.59    5.30
   0  -8  -3   34.40    4.40
   0  -8  -3   39.50    5.30
   0  -8  -3   41.60    3.20
   0   8   3   35.20    4.00
   0   8   3   43.50    5.40
  -1  -8  -3  354.96   17.50
  -1  -8  -3  337.97   16.50
   1   8   3  351.36   17.70
   1   8   3  376.96   19.50
  -2  -8  -3  120.99    9.70
  -2  -8  -3  129.99    9.20
  -2  -8  -3  132.79    7.50
   2   8   3  119.39   10.40
   2   8   3  138.79    9.90
  -3  -8  -3   21.40    3.70
  -3  -8  -3   31.90    4.80
  -3  -8  -3   31.50    4.60
   3   8   3   24.00    4.80
   3   8   3   23.20    4.70
  -4  -8  -3  140.99    8.90
  -4  -8  -3  142.19   10.80
  -4  -8  -3  137.69   10.40
   4   8   3  131.39   11.60
   4   8   3  146.89   10.70
   9  -9  -3  115.59   11.20
  -9   9   3  123.19   11.40
  -9   9   3  114.59   13.80
   8  -9  -3   98.39    9.60
   8  -9  -3   98.49    7.60
  -8   9   3   94.09   10.10
  -8   9   3   99.59    9.60
   7  -9  -3    1.00    1.90
   7  -9  -3    3.40    2.20
  -7   9   3    4.70    2.50
  -7   9   3    0.70    2.20
  -7   9   3    0.00    2.80
   6  -9  -3   -0.10    1.60
   6  -9  -3    3.80    2.40
  -6   9   3    2.90    2.80
  -6   9   3    1.10    2.00
  -6   9   3    4.10    1.60
   5  -9  -3   53.19    7.20
   5  -9  -3   57.79    5.70
  -5   9   3   48.70    6.70
  -5   9   3   56.09    7.50
  -5   9   3   62.79    6.80
   4  -9  -3   51.89    4.20
  -4   9   3   41.80    5.90
  -4   9   3   48.80    6.60
  -4   9   3   66.59    6.80
   3  -9  -3   22.20    2.90
   3  -9  -3   11.80    3.00
  -3   9   3   19.50    4.30
  -3   9   3   23.30    4.70
  -3   9   3   11.20    4.10
   2  -9  -3    3.90    2.30
   2  -9  -3    9.10    1.80
  -2   9   3    4.40    2.30
  -2   9   3    4.50    2.90
  -2   9   3    8.60    2.80
   1  -9  -3   -0.80    1.60
   1  -9  -3    0.40    1.60
  -1   9   3    0.30    2.50
  -1   9   3    2.10    2.20
   0  -9  -3   24.80    5.10
   0  -9  -3   16.90    2.50
   0  -9  -3   22.30    4.10
   0   9   3   28.40    5.50
   0   9   3   12.20    3.00
  -1  -9  -3  104.09    8.60
  -1  -9  -3   89.39    7.50
  -1  -9  -3   99.69    6.00
   1   9   3   87.79    9.00
  -2  -9  -3   59.69    6.00
  -2  -9  -3   39.90    6.10
  -2  -9  -3   56.19    5.00
   2   9   3   47.70    7.20
   2   9   3   43.10    8.90
  -3  -9  -3   68.49    7.10
  -3  -9  -3   70.19    8.70
  -3  -9  -3   66.39    6.30
   3   9   3   49.10    7.50
   8 -10  -3   40.20    5.00
   8 -10  -3   20.20    5.20
  -8  10   3   31.30    9.90
  -8  10   3   28.10    6.40
   7 -10  -3   24.90    5.30
   7 -10  -3   17.60    3.80
  -7  10   3   17.70    3.80
  -7  10   3   22.20    6.10
   6 -10  -3   60.29    6.00
   6 -10  -3   72.69    8.00
  -6  10   3   85.89    8.30
  -6  10   3   66.29    7.90
  -6  10   3   56.39    8.50
   5 -10  -3   99.09   10.00
   5 -10  -3  113.79    8.40
  -5  10   3  122.69   10.30
  -5  10   3  118.59   11.00
  -5  10   3  126.69   10.90
   4 -10  -3    1.00    2.10
   4 -10  -3   -0.90    1.60
   4 -10  -3    0.60    1.90
  -4  10   3    0.90    2.20
  -4  10   3    0.70    2.00
  -4  10   3   -4.40    3.70
   3 -10  -3   29.70    4.40
   3 -10  -3   33.20    3.70
  -3  10   3   17.20    5.00
  -3  10   3   25.10    5.00
  -3  10   3   33.40    6.10
   2 -10  -3  103.09    7.60
   2 -10  -3  112.69    8.80
  -2  10   3  117.29    8.80
  -2  10   3  104.79   10.10
  -2  10   3  106.39   10.40
   1 -10  -3    2.30    1.70
   1 -10  -3    1.50    2.00
  -1  10   3   -2.00    2.90
  -1  10   3   -1.20    2.50
  -1  10   3    2.30    2.60
   0 -10  -3    2.40    2.40
   0 -10  -3    3.30    2.00
   0  10   3    1.80    2.70
   0  10   3    0.40    2.90
  -1 -10  -3   -1.40    2.90
  -1 -10  -3   -2.30    1.80
   1  10   3   -2.10    2.50
   6 -11  -3  126.99   14.20
   6 -11  -3  120.89    8.90
  -6  11   3  107.39   10.80
  -6  11   3  117.09   11.20
  -6  11   3  133.99   13.20
   5 -11  -3   37.10    5.00
   5 -11  -3   37.90    7.00
  -5  11   3   45.60    6.70
  -5  11   3   44.50   10.30
   4 -11  -3    0.70    2.00
  -4  11   3    0.50    3.40
  -4  11   3   -2.60    4.60
  -4  11   3    3.20    3.10
   3 -11  -3   27.90    4.50
   3 -11  -3   39.40    5.60
  -3  11   3   32.90    6.30
  -3  11   3   36.80    8.80
  -3  11   3   22.10    9.50
   2 -11  -3   18.40    3.70
   2 -11  -3   18.50    4.00
  -2  11   3   13.70    4.00
  -2  11   3   25.20    5.40
   1 -11  -3   -4.70    2.30
   1 -11  -3   -1.20    4.10
  -1  11   3   -3.30    3.20
  -1  11   3    3.10    3.10
   0  13  -4   43.20    6.70
   0  13  -4   35.30    5.00
   0  13  -4   32.60    5.70
   0 -13   4   36.80    6.10
   0 -13   4   54.19    6.10
  -1  13  -4   -0.70    1.50
  -1  13  -4   -1.50    2.60
  -1  13  -4    5.00    3.80
  -1  13  -4   -0.20    2.50
  -1  13  -4    0.00    2.10
   1 -13   4   -3.10    2.20
   1 -13   4    1.60    2.30
   1 -13   4   -4.60    2.50
   1 -13   4   -3.10    2.40
  -2  13  -4   -2.50    2.20
  -2  13  -4    2.60    1.70
  -2  13  -4    3.40    2.80
  -2  13  -4    1.80    2.30
  -2  13  -4    2.10    2.60
   2 -13   4   -2.70    1.90
   2 -13   4    2.00    2.30
  -3  13  -4    1.00    2.30
  -3  13  -4    0.90    2.90
  -3  13  -4    0.40    2.40
  -3  13  -4   -0.20    2.40
  -3  13  -4   -2.30    1.60
   3 -13   4    7.10    3.10
   3 -13   4   -3.00    2.20
  -4  13  -4   47.80    7.70
  -4  13  -4   45.80    9.10
  -4  13  -4   34.30    5.60
   4 -13   4   34.10    5.50
   4 -13   4   31.10    6.20
   3  12  -4   89.39    7.50
   3  12  -4   78.39    8.80
  -3 -12   4   89.49    9.10
  -3 -12   4   82.19    7.70
   2  12  -4  395.46   17.60
   2  12  -4  395.76   20.10
   2  12  -4  371.36   18.10
  -2 -12   4  393.26   19.70
  -2 -12   4  369.56   18.60
  -2 -12   4  401.46   19.00
   1  12  -4  252.07   13.70
   1  12  -4  258.37   14.80
   1  12  -4  278.97   14.30
   1  12  -4  265.37   15.60
  -1 -12   4  260.87   14.30
  -1 -12   4  249.78   14.50
  -1 -12   4  266.27   14.40
   0  12  -4    3.10    2.50
   0  12  -4    4.50    2.50
   0  12  -4    3.80    2.40
   0  12  -4    8.20    3.50
   0 -12   4    9.90    2.30
   0 -12   4    6.20    2.70
  -1  12  -4    3.20    2.10
  -1  12  -4    5.40    2.70
  -1  12  -4    3.70    2.70
  -1  12  -4    4.10    3.70
  -1  12  -4    4.60    2.60
   1 -12   4    1.90    2.00
   1 -12   4    5.40    1.70
   1 -12   4    3.40    1.90
   1 -12   4    0.90    1.90
   1 -12   4    3.20    2.40
  -2  12  -4   23.10    4.30
  -2  12  -4   24.20    5.60
  -2  12  -4   28.00    5.30
  -2  12  -4   34.20    5.40
  -2  12  -4   32.00    3.90
   2 -12   4   37.20    3.80
   2 -12   4   31.70    4.30
   2 -12   4   25.00    4.90
   2 -12   4   30.20    4.70
   2 -12   4   29.30    4.20
  -3  12  -4   -3.50    1.60
  -3  12  -4    3.00    2.20
  -3  12  -4   -0.50    2.70
  -3  12  -4    0.60    1.70
   3 -12   4   -0.20    2.30
   3 -12   4   -4.70    2.20
   3 -12   4    3.80    2.00
   3 -12   4    0.90    2.30
  -4  12  -4   15.50    4.90
  -4  12  -4   23.60    5.00
   4 -12   4   21.90    5.40
   4 -12   4   16.80    3.60
  -5  12  -4    9.10    4.00
  -5  12  -4    6.20    2.80
  -5  12  -4    1.70    3.00
   5 -12   4    6.20    2.60
   5 -12   4    4.10    2.90
  -6  12  -4   14.80    7.90
  -6  12  -4   19.40    7.50
  -6  12  -4   16.70    4.70
   6 -12   4   16.90    4.10
   5  11  -4  104.89    8.60
   5  11  -4  122.39   10.40
  -5 -11   4  100.09    9.80
  -5 -11   4  111.19    9.50
  -5 -11   4  105.59    9.80
   4  11  -4   44.80    5.10
   4  11  -4   42.80    6.40
  -4 -11   4   42.40    6.10
  -4 -11   4   37.30    5.90
  -4 -11   4   45.50    6.00
   3  11  -4  163.88   10.40
   3  11  -4  162.08   11.20
   3  11  -4  155.38    8.60
  -3 -11   4  154.28   11.40
  -3 -11   4  162.98   11.10
  -3 -11   4  160.78   11.20
   2  11  -4  754.72   29.10
   2  11  -4  717.03   27.50
   2  11  -4  823.52   32.10
   2  11  -4  706.83   29.70
  -2 -11   4  742.43   30.40
  -2 -11   4  727.63   29.40
  -2 -11   4  753.82   29.80
   1  11  -4  301.87   14.70
   1  11  -4  280.47   15.20
   1  11  -4  289.97   15.70
   1  11  -4  289.97   14.40
  -1 -11   4  286.57   14.50
  -1 -11   4  283.77   14.80
  -1 -11   4  288.57   15.20
  -1 -11   4  270.57   12.70
   0  11  -4  137.19    9.60
   0  11  -4  140.59   10.60
   0  11  -4  135.89    9.40
   0  11  -4  142.99   10.20
   0  11  -4  131.09    8.70
   0 -11   4  124.09    8.50
   0 -11   4  133.19    8.70
   0 -11   4  134.39    9.20
   0 -11   4  134.59    9.40
   0 -11   4  134.79    9.00
  -1  11  -4  250.97   13.60
  -1  11  -4  255.47   13.80
  -1  11  -4  240.28   14.50
  -1  11  -4  227.38   11.90
  -1  11  -4  231.98   13.60
   1 -11   4  239.08   12.10
   1 -11   4  237.48   14.30
   1 -11   4  242.88   12.80
   1 -11   4  238.28   12.50
  -2  11  -4   81.89    7.20
  -2  11  -4   92.59    8.00
  -2  11  -4   90.39    7.90
  -2  11  -4   75.79    8.50
  -2  11  -4   87.19    6.30
   2 -11   4   87.59    6.30
   2 -11   4   78.49    5.90
   2 -11   4   95.79    7.70
   2 -11   4   80.09    6.90
   2 -11   4   88.79    6.70
  -3  11  -4   -1.50    1.80
  -3  11  -4    0.80    2.10
  -3  11  -4   -1.80    2.00
  -3  11  -4    0.70    1.90
  -3  11  -4   -0.30    1.20
   3 -11   4    0.10    1.20
   3 -11   4   -0.90    1.80
   3 -11   4    1.10    2.00
   3 -11   4    1.30    1.30
   3 -11   4   -2.50    1.20
  -4  11  -4    0.80    2.50
  -4  11  -4    5.40    3.30
  -4  11  -4    3.40    1.20
  -4  11  -4    3.90    2.50
   4 -11   4    2.10    1.80
   4 -11   4    3.90    1.80
   4 -11   4    0.70    2.60
  -5  11  -4    4.00    3.40
  -5  11  -4    7.80    2.90
  -5  11  -4   11.00    3.90
   5 -11   4    6.20    2.30
   5 -11   4    5.10    3.30
   5 -11   4    9.80    3.10
  -6  11  -4    3.20    2.50
  -6  11  -4   -1.70    2.70
  -6  11  -4    1.70    3.10
   6 -11   4    0.40    2.40
   6 -11   4   -0.10    1.60
  -7  11  -4   17.30    4.30
  -7  11  -4   11.90    5.20
   7 -11   4   18.90    5.00
   7 -11   4   15.00    3.50
  -8  11  -4   -0.10    2.90
   8 -11   4    1.60    3.20
   8 -11   4   -2.10    2.70
   6  10  -4  180.08   12.50
  -6 -10   4  167.28   11.90
  -6 -10   4  171.18   13.80
   5  10  -4   46.00    6.40
   5  10  -4   57.99    6.00
  -5 -10   4   52.99    6.60
  -5 -10   4   56.19    6.60
   4  10  -4    6.30    1.50
   4  10  -4    9.30    2.70
  -4 -10   4    6.80    2.50
  -4 -10   4    8.80    2.50
   3  10  -4  298.97   16.00
   3  10  -4  358.86   16.90
   3  10  -4  304.37   15.50
  -3 -10   4  309.97   16.30
  -3 -10   4  329.37   17.40
   2  10  -4  176.48   10.60
   2  10  -4  187.48   12.30
   2  10  -4  197.18   11.60
   2  10  -4  166.08    9.40
  -2 -10   4  184.48   11.00
  -2 -10   4  190.68   11.40
  -2 -10   4  172.68   11.40
   1  10  -4  187.98   11.40
   1  10  -4  199.88   11.90
   1  10  -4  191.68   11.00
   1  10  -4  204.68   10.90
  -1 -10   4  205.38   11.20
  -1 -10   4  211.78   11.80
  -1 -10   4  227.58   12.70
  -1 -10   4  190.68   11.80
   0  10  -4  398.36   18.50
   0  10  -4  389.56   17.40
   0  10  -4  383.86   18.00
   0  10  -4  388.46   17.90
   0  10  -4  408.06   17.20
   0 -10   4  369.16   17.20
   0 -10   4  396.26   17.60
   0 -10   4  375.56   16.30
  -1  10  -4  519.35   20.60
  -1  10  -4  507.55   23.30
  -1  10  -4  518.15   22.10
  -1  10  -4  511.35   22.10
  -1  10  -4  524.25   22.00
   1 -10   4  519.85   20.40
   1 -10   4  530.95   21.10
   1 -10   4  506.05   19.80
   1 -10   4  519.95   21.40
   1 -10   4  594.84   28.00
  -2  10  -4  410.66   18.30
  -2  10  -4  412.96   18.70
  -2  10  -4  388.36   17.90
  -2  10  -4  371.96   19.50
  -2  10  -4  382.36   16.00
   2 -10   4  396.56   17.30
   2 -10   4  405.36   17.70
   2 -10   4  393.76   17.20
   2 -10   4  398.66   16.40
  -3  10  -4   54.49    5.30
  -3  10  -4   47.90    6.60
  -3  10  -4   53.29    6.00
  -3  10  -4   49.40    5.70
  -3  10  -4   52.99    4.20
   3 -10   4   47.30    5.40
   3 -10   4   46.30    3.80
   3 -10   4   44.80    5.10
   3 -10   4   54.19    3.70
  -4  10  -4   27.30    4.20
  -4  10  -4   25.80    5.60
  -4  10  -4   28.20    3.00
  -4  10  -4   27.00    7.00
   4 -10   4   23.20    4.40
   4 -10   4   17.70    3.60
  -5  10  -4    1.40    2.10
  -5  10  -4   -0.40    1.80
  -5  10  -4    1.20    1.90
   5 -10   4   -0.40    1.50
   5 -10   4   -3.80    2.40
  -6  10  -4   57.89    7.10
  -6  10  -4   42.30    5.20
  -6  10  -4   40.50    5.60
   6 -10   4   39.30    6.90
   6 -10   4   29.00    5.30
  -7  10  -4   15.80    4.00
  -7  10  -4   11.80    3.40
  -7  10  -4   19.50    3.80
   7 -10   4   10.40    3.50
   7 -10   4   16.50    4.20
  -8  10  -4    8.20    4.50
  -8  10  -4    5.20    4.10
   8 -10   4    9.60    3.90
   8 -10   4    4.90    2.80
   7   9  -4  307.17   16.00
   7   9  -4  331.47   17.70
  -7  -9   4  314.97   17.70
   6   9  -4  238.58   17.90
   6   9  -4  255.67   13.80
  -6  -9   4  265.37   15.80
  -6  -9   4  251.27   14.90
   5   9  -4   60.39    6.30
   5   9  -4   57.79    5.90
  -5  -9   4   48.00    6.00
  -5  -9   4   47.90    6.30
   4   9  -4  205.18   11.90
   4   9  -4  220.58   12.40
  -4  -9   4  230.08   13.20
  -4  -9   4  227.18   13.80
   3   9  -4  567.94   20.40
   3   9  -4  590.74   23.60
   3   9  -4  562.24   22.90
   3   9  -4  578.44   24.00
  -3  -9   4  560.64   24.60
  -3  -9   4  581.74   24.30
   2   9  -4    0.70    1.50
   2   9  -4    3.80    1.60
   2   9  -4    0.20    1.10
   2   9  -4    3.80    1.90
  -2  -9   4   -0.10    1.50
  -2  -9   4    2.20    1.10
   1   9  -4  281.57   13.70
   1   9  -4  282.97   13.30
   1   9  -4  278.47   14.00
   1   9  -4  274.67   12.70
  -1  -9   4  288.07   13.10
  -1  -9   4  259.87   13.80
  -1  -9   4  257.77   13.50
   0   9  -4  585.34   23.30
   0   9  -4  616.54   24.50
   0   9  -4  587.64   23.80
   0   9  -4  589.24   22.60
   0   9  -4  584.44   23.00
   0  -9   4  585.84   23.40
   0  -9   4  597.44   23.80
   0  -9   4  600.44   23.50
   0  -9   4  601.64   21.50
  -1   9  -4  559.24   23.80
  -1   9  -4  567.44   22.50
  -1   9  -4  561.74   22.30
  -1   9  -4  551.34   20.90
  -1   9  -4  545.15   22.40
   1  -9   4  572.14   22.10
   1  -9   4  563.84   21.60
   1  -9   4  568.84   20.30
   1  -9   4  524.95   23.10
   1  -9   4  540.65   20.80
  -2   9  -4  527.95   23.60
  -2   9  -4  568.44   20.20
  -2   9  -4  558.74   22.60
  -2   9  -4  504.75   21.50
  -2   9  -4  529.05   21.70
   2  -9   4  530.25   20.20
   2  -9   4  552.84   21.80
   2  -9   4  547.75   21.90
   2  -9   4  543.95   21.10
  -3   9  -4  274.07   14.50
  -3   9  -4  278.67   11.60
  -3   9  -4  290.47   15.90
  -3   9  -4  294.77   13.90
   3  -9   4  278.47   11.70
   3  -9   4  293.37   13.90
   3  -9   4  288.07   14.30
   3  -9   4  258.77   10.60
  -4   9  -4  360.06   16.30
  -4   9  -4  366.26   13.60
  -4   9  -4  393.56   18.10
  -4   9  -4  360.16   19.10
   4  -9   4  369.26   17.70
   4  -9   4  363.96   16.90
  -5   9  -4   14.40    3.20
  -5   9  -4   14.30    3.00
  -5   9  -4   11.60    3.30
   5  -9   4    7.60    2.70
   5  -9   4   11.80    3.10
  -6   9  -4   -0.90    1.90
  -6   9  -4   -0.20    1.90
  -6   9  -4    1.20    1.90
   6  -9   4    0.60    2.00
  -7   9  -4   -2.10    2.80
  -7   9  -4   -0.10    2.20
   7  -9   4    1.70    2.80
   7  -9   4    2.30    2.10
  -8   9  -4   -1.30    2.60
  -8   9  -4   -0.30    2.80
   8  -9   4    1.60    2.40
  -9   9  -4   16.30    4.90
   9  -9   4   12.60    4.20
   8   8  -4   50.99    6.60
   8   8  -4   39.10    6.50
  -8  -8   4   39.10    8.20
  -8  -8   4   34.40    6.80
   7   8  -4  202.28   11.80
  -7  -8   4  213.58   13.50
  -7  -8   4  207.38   13.90
   6   8  -4  115.69    8.40
   6   8  -4  128.09    9.30
  -6  -8   4  131.59   10.40
  -6  -8   4  132.69    9.80
   5   8  -4  194.48   12.20
   5   8  -4  224.58   12.00
  -5  -8   4  215.38   17.20
  -5  -8   4  199.08   12.40
   4   8  -4  548.75   22.40
   4   8  -4  535.35   21.60
   4   8  -4  515.95   21.50
  -4  -8   4  505.35   22.50
  -4  -8   4  556.74   24.00
   3   8  -4  151.38    9.20
   3   8  -4  154.58    9.20
   3   8  -4  154.18    9.60
   3   8  -4  153.88    7.30
  -3  -8   4  156.68   10.30
  -3  -8   4  156.98    9.90
   2   8  -4    5.70    1.70
   2   8  -4    4.10    1.60
   2   8  -4    2.40    1.30
   2   8  -4    2.70    1.40
  -2  -8   4    3.10    1.40
  -2  -8   4    1.60    1.30
   1   8  -4  159.78    8.80
   1   8  -4  160.88    8.30
   1   8  -4  151.18    9.30
   1   8  -4  141.99    9.30
   1   8  -4  153.98    9.60
  -1  -8   4  158.78    7.50
  -1  -8   4  135.49    6.20
  -1  -8   4  154.38    9.40
  -1  -8   4  160.68   10.60
   0   8  -4  561.54   23.90
   0   8  -4  612.44   22.00
   0   8  -4  599.34   22.20
   0   8  -4  579.44   23.00
   0  -8   4  578.74   21.00
   0  -8   4  593.14   21.00
   0  -8   4  579.74   23.60
   0  -8   4  598.24   23.30
  -1   8  -4  224.58   12.90
  -1   8  -4  251.37   11.30
  -1   8  -4  264.47   12.70
  -1   8  -4  268.07   12.20
   1  -8   4  252.67   11.70
   1  -8   4  263.57   12.60
   1  -8   4  262.87   12.00
   1  -8   4  247.18   11.80
  -2   8  -4  119.19   10.90
  -2   8  -4  110.09    8.30
  -2   8  -4  104.99    7.40
  -2   8  -4  104.99    7.10
   2  -8   4   98.99    6.50
   2  -8   4   97.99    6.80
  -3   8  -4  438.66   23.00
  -3   8  -4  467.85   16.70
  -3   8  -4  477.75   21.30
  -3   8  -4  460.15   19.80
   3  -8   4  477.95   20.80
   3  -8   4  468.55   19.70
  -4   8  -4  368.06   17.10
  -4   8  -4  355.96   12.90
  -4   8  -4  362.96   18.40
   4  -8   4  383.96   16.70
   4  -8   4  353.16   17.00
  -5   8  -4  108.29    8.20
  -5   8  -4  116.89    7.80
  -5   8  -4  119.49    9.80
   5  -8   4  119.49    9.00
   5  -8   4  121.09    8.50
  -6   8  -4   85.09    6.50
  -6   8  -4   85.99    8.70
  -6   8  -4   94.29    7.80
   6  -8   4   87.79    7.20
   6  -8   4   98.49    8.30
  -7   8  -4   50.79    5.20
  -7   8  -4   52.99    7.40
   7  -8   4   43.90    5.80
   7  -8   4   58.29    6.50
  -8   8  -4    9.20    2.80
  -8   8  -4   15.80    5.10
   8  -8   4   11.90    3.50
   8  -8   4   17.20    3.10
  -9   8  -4  119.49   11.60
  -9   8  -4  112.69    8.90
   9  -8   4  111.59    9.30
   9  -8   4  114.39    9.80
   9   7  -4    1.50    1.50
   9   7  -4   -1.50    3.10
  -9  -7   4   -4.10    2.00
   8   7  -4   39.90    4.90
   8   7  -4   43.50    6.20
  -8  -7   4   53.09    6.70
  -8  -7   4   36.10    5.30
   7   7  -4   41.60    5.60
   7   7  -4   47.50    4.60
  -7  -7   4   43.70    6.00
  -7  -7   4   52.99    6.10
   6   7  -4  123.49    8.30
   6   7  -4  126.49    8.70
  -6  -7   4  126.69    9.40
   5   7  -4  530.45   21.60
   5   7  -4  547.35   21.50
  -5  -7   4  547.05   23.90
  -5  -7   4  515.95   22.80
   4   7  -4  476.85   19.60
   4   7  -4  516.75   20.50
   4   7  -4  527.35   21.10
  -4  -7   4  505.35   22.20
  -4  -7   4  526.45   21.90
   3   7  -4  395.96   16.60
   3   7  -4  415.56   16.20
   3   7  -4  364.96   16.80
   3   7  -4  406.06   14.00
  -3  -7   4  383.76   17.40
  -3  -7   4  403.96   18.20
  -3  -7   4  374.16   13.80
   2   7  -4 1360.06   43.90
   2   7  -4 1302.27   42.20
   2   7  -4 1242.58   40.60
   2   7  -4 1258.07   42.50
  -2  -7   4 1292.17   43.70
  -2  -7   4 1307.37   44.80
   1   7  -4  547.55   20.40
   1   7  -4  451.45   18.20
   1   7  -4  509.15   20.00
   1   7  -4  506.15   19.00
  -1  -7   4  487.35   18.80
  -1  -7   4  527.05   17.50
  -1  -7   4  513.45   20.40
   0   7  -4  289.97   13.00
   0   7  -4  273.77   12.00
   0   7  -4  265.87   12.00
   0  -7   4  271.97   11.40
   0  -7   4  276.87   12.80
  -1   7  -4  130.49    6.80
  -1   7  -4  130.59    7.20
  -1   7  -4  115.99    7.40
  -1   7  -4  117.99    8.00
   1  -7   4  114.39    6.40
   1  -7   4  120.49    7.00
  -2   7  -4  119.59    8.50
  -2   7  -4  112.09    7.30
  -2   7  -4  103.49    6.70
  -2   7  -4  114.29    6.00
   2  -7   4  114.29    6.70
   2  -7   4  113.89    8.10
   2  -7   4  114.69    5.70
  -3   7  -4  698.43   28.20
  -3   7  -4  687.93   27.90
  -3   7  -4  729.63   26.80
  -3   7  -4  691.03   23.10
   3  -7   4  765.12   27.90
   3  -7   4  685.33   32.10
  -4   7  -4  549.85   21.80
  -4   7  -4  531.15   23.20
  -4   7  -4  525.95   17.10
   4  -7   4  555.34   21.30
   4  -7   4  532.95   21.90
   4  -7   4  482.25   17.40
  -5   7  -4  760.32   30.90
  -5   7  -4  733.53   26.90
  -5   7  -4  775.42   29.00
   5  -7   4  753.02   28.40
   5  -7   4  731.33   29.10
  -6   7  -4  208.88   13.60
  -6   7  -4  220.88   12.30
   6  -7   4  207.58   12.60
   6  -7   4  217.48   12.10
  -7   7  -4  204.48   10.70
  -7   7  -4  193.98   13.20
   7  -7   4  210.68   12.30
   7  -7   4  172.58   14.90
  -8   7  -4   15.60    4.40
  -8   7  -4   12.20    3.00
  -8   7  -4   16.90    4.00
   8  -7   4   11.70    3.30
   8  -7   4   12.50    4.10
  -9   7  -4   -2.20    2.30
  -9   7  -4    1.20    3.00
   9  -7   4   -1.30    2.70
   9  -7   4    1.80    2.20
 -10   7  -4   19.80    4.50
 -10   7  -4   23.60    5.50
 -10   7  -4   21.80    5.50
  10  -7   4   14.60    5.70
   9   6  -4   -4.20    2.90
   9   6  -4    2.10    1.90
  -9  -6   4    1.00    1.90
  -9  -6   4   -1.70    1.90
   8   6  -4   15.10    3.10
   8   6  -4   13.60    3.30
  -8  -6   4   15.20    3.40
  -8  -6   4   16.20    4.00
   7   6  -4    7.10    1.90
   7   6  -4    5.60    2.30
  -7  -6   4    2.50    2.50
  -7  -6   4    4.70    4.40
   6   6  -4   13.80    2.90
   6   6  -4   19.70    3.60
  -6  -6   4   10.70    2.80
  -6  -6   4   11.10    3.10
   5   6  -4  411.66   16.80
   5   6  -4  427.66   17.50
   5   6  -4  393.76   17.00
  -5  -6   4  406.16   19.00
  -5  -6   4  386.26   18.20
   4   6  -4  511.45   20.50
   4   6  -4  541.45   19.90
   4   6  -4  554.14   21.30
  -4  -6   4  539.25   22.10
  -4  -6   4  544.15   22.70
   3   6  -4  331.77   14.90
   3   6  -4  341.17   13.60
   3   6  -4  363.26   16.50
  -3  -6   4  345.17   15.50
   2   6  -4 1557.64   49.80
   2   6  -4 1572.64   47.80
   2   6  -4 1586.64   48.90
   2   6  -4 1536.65   50.59
  -2  -6   4 1512.05   47.90
  -2  -6   4 1586.14   51.89
  -2  -6   4 1601.54   51.09
  -2  -6   4 1587.94   46.90
   1   6  -4 1042.10   36.10
   1   6  -4 1058.79   34.40
   1   6  -4 1116.79   36.30
   1   6  -4 1120.89   34.70
   1   6  -4 1071.59   35.30
  -1  -6   4 1023.10   36.00
  -1  -6   4 1104.39   33.70
   0   6  -4  204.18    9.60
   0   6  -4  230.68   10.10
   0   6  -4  237.38   11.40
   0   6  -4  233.48   10.10
   0   6  -4  230.18   10.90
   0  -6   4  232.68    9.90
   0  -6   4  246.58    9.30
   0  -6   4  242.68   11.30
  -1   6  -4  135.59    7.70
  -1   6  -4  134.39    6.70
  -1   6  -4  144.99    8.50
  -1   6  -4  137.29    7.40
  -1   6  -4  137.99    7.00
   1  -6   4  134.69    7.30
   1  -6   4  132.69    5.70
  -2   6  -4  350.16   19.00
  -2   6  -4  369.36   14.60
  -2   6  -4  347.67   14.70
  -2   6  -4  364.56   13.00
   2  -6   4  339.27   13.60
   2  -6   4  350.06   14.00
   2  -6   4  354.26   14.90
  -3   6  -4  512.65   19.30
  -3   6  -4  500.75   21.20
  -3   6  -4  525.15   20.10
  -3   6  -4  517.45   17.00
   3  -6   4  504.25   17.00
   3  -6   4  521.15   19.60
   3  -6   4  499.15   16.60
   3  -6   4  524.75   20.40
  -4   6  -4   20.70    2.80
  -4   6  -4   30.10    3.60
  -4   6  -4   22.90    3.60
   4  -6   4   26.10    3.60
   4  -6   4   25.50    3.80
  -5   6  -4  161.88   10.80
   5  -6   4  167.28    9.50
   5  -6   4  160.58   10.10
  -6   6  -4  450.75   19.50
  -6   6  -4  480.65   20.70
  -6   6  -4  496.35   22.20
   6  -6   4  460.65   19.90
   6  -6   4  462.25   21.00
  -7   6  -4  255.57   15.30
  -7   6  -4  279.17   12.50
  -7   6  -4  242.38   13.20
   7  -6   4  256.67   13.40
   7  -6   4  257.77   14.70
  -8   6  -4   24.50    4.00
  -8   6  -4   16.30    4.60
  -8   6  -4   23.30    4.00
   8  -6   4   22.40    4.90
   8  -6   4   22.00    3.40
  -9   6  -4   50.69    6.20
  -9   6  -4   50.69    5.70
  -9   6  -4   44.30    6.90
   9  -6   4   67.89    6.50
   9  -6   4   62.79    7.30
 -10   6  -4   16.40    4.50
 -10   6  -4   11.10    3.60
 -10   6  -4   17.20    5.30
  10  -6   4   16.50    4.60
  10   5  -4    3.00    1.80
  10   5  -4   -5.20    3.00
 -10  -5   4    1.40    2.90
 -10  -5   4    3.60    2.50
   9   5  -4   13.70    3.00
   9   5  -4    9.30    3.90
   9   5  -4   13.30    3.60
  -9  -5   4   14.00    3.80
  -9  -5   4   15.10    3.70
   8   5  -4    0.20    1.40
   8   5  -4    0.60    1.00
  -8  -5   4   -0.90    1.30
  -8  -5   4   -2.30    1.70
   7   5  -4   39.00    4.90
   7   5  -4   42.20    4.30
  -7  -5   4   34.30    4.80
  -7  -5   4   36.50    5.00
   6   5  -4   10.00    2.30
   6   5  -4   16.00    3.00
  -6  -5   4    7.20    2.40
  -6  -5   4    7.90    2.60
   5   5  -4  131.69    7.80
   5   5  -4  131.89    8.00
   5   5  -4  148.09    7.80
  -5  -5   4  143.69    9.40
  -5  -5   4  136.39    8.90
   4   5  -4   79.29    4.90
   4   5  -4   77.79    5.60
   4   5  -4   89.69    6.00
  -4  -5   4   83.09    8.70
  -4  -5   4   74.79    6.20
   3   5  -4  320.47   13.60
   3   5  -4  361.26   14.50
   3   5  -4  333.17   12.60
   3   5  -4  317.47   11.30
  -3  -5   4  351.56   15.00
   2   5  -4 1511.55   45.40
   2   5  -4 1342.77   44.20
  -2  -5   4 1392.36   42.10
  -2  -5   4 1418.06   44.30
  -2  -5   4 1341.47   45.30
   1   5  -4  961.60   30.40
   1   5  -4  975.50   30.60
   1   5  -4 1004.90   31.60
   1   5  -4 1010.80   32.50
   1   5  -4  957.10   30.60
  -1  -5   4  950.60   30.90
  -1  -5   4  860.41   29.80
  -1  -5   4 1005.90   32.80
   0   5  -4  408.06   15.70
   0   5  -4  444.86   15.90
   0   5  -4  451.45   16.90
   0   5  -4  398.26   16.80
   0   5  -4  470.25   17.50
   0  -5   4  461.85   15.90
   0  -5   4  446.66   14.90
   0  -5   4  473.15   15.00
   0  -5   4  421.36   15.30
  -1   5  -4  944.81   32.50
  -1   5  -4  932.51   31.00
  -1   5  -4  922.31   30.30
  -1   5  -4  972.70   30.10
  -1   5  -4  902.11   31.20
   1  -5   4  977.60   30.10
   1  -5   4  959.50   30.20
   1  -5   4  964.30   28.90
   1  -5   4  928.51   31.10
  -2   5  -4 1163.28   38.20
  -2   5  -4 1184.88   38.00
  -2   5  -4 1140.59   39.60
  -2   5  -4 1224.08   37.40
   2  -5   4 1179.08   37.60
   2  -5   4 1188.58   38.60
   2  -5   4 1157.88   35.90
  -3   5  -4  276.17   11.30
  -3   5  -4  251.77    9.10
  -3   5  -4  258.07   12.70
   3  -5   4  248.88    9.30
   3  -5   4  264.47   11.40
   3  -5   4  262.67   12.20
  -4   5  -4   21.10    3.40
  -4   5  -4   19.10    2.50
  -4   5  -4   19.80    2.70
   4  -5   4   19.70    1.80
   4  -5   4   20.40    3.10
   4  -5   4   20.40    2.50
  -5   5  -4  158.08    9.50
  -5   5  -4  163.68   10.30
   5  -5   4  167.98    9.90
   5  -5   4  165.78    9.20
  -6   5  -4  294.17   11.50
  -6   5  -4  298.97   14.20
  -6   5  -4  310.77   15.90
  -6   5  -4  329.17   15.60
   6  -5   4  308.97   15.40
   6  -5   4  320.97   14.70
  -7   5  -4   61.39    6.50
  -7   5  -4   49.50    5.20
  -7   5  -4   53.19    5.00
   7  -5   4   53.09    5.90
   7  -5   4   43.50    5.00
  -8   5  -4  152.08    7.50
  -8   5  -4  177.08   10.10
  -8   5  -4  151.08   10.90
  -8   5  -4  147.19   10.20
   8  -5   4  176.48   10.60
  -9   5  -4  255.07   13.30
  -9   5  -4  220.88   13.70
  -9   5  -4  269.17   20.30
   9  -5   4  252.37   15.10
   9  -5   4  236.48   13.50
 -10   5  -4   18.10    4.30
 -10   5  -4   11.70    3.40
  10  -5   4   16.80    4.50
  10  -5   4   16.40    3.80
  10   4  -4    4.60    2.50
  10   4  -4    4.80    1.90
 -10  -4   4    6.30    2.80
 -10  -4   4    9.10    2.10
 -10  -4   4    2.00    2.40
   9   4  -4    9.40    2.40
   9   4  -4   11.40    2.20
  -9  -4   4    7.80    2.70
  -9  -4   4    8.10    3.10
   8   4  -4   30.80    2.80
   8   4  -4   28.10    3.50
  -8  -4   4   26.50    4.30
  -8  -4   4   25.00    4.20
   7   4  -4   25.70    3.20
  -7  -4   4   24.10    3.90
  -7  -4   4   22.90    3.80
   6   4  -4   76.79    5.50
  -6  -4   4   76.09    6.50
  -6  -4   4   78.89    6.50
   5   4  -4    0.80    0.60
   5   4  -4    0.60    0.80
   5   4  -4    1.70    0.80
   5   4  -4    0.50    0.90
  -5  -4   4    1.70    1.00
  -5  -4   4    3.60    1.30
   4   4  -4    3.10    0.80
   4   4  -4    4.10    1.30
   4   4  -4    3.20    1.00
   4   4  -4    3.10    1.30
  -4  -4   4    2.90    1.20
  -4  -4   4    3.10    0.70
   3   4  -4  222.38    8.50
   3   4  -4  234.48   10.00
   3   4  -4  209.08    9.80
   3   4  -4  222.58   10.20
  -3  -4   4  232.58   10.90
  -3  -4   4  224.38    8.00
   2   4  -4  401.86   14.90
   2   4  -4  395.06   15.30
   2   4  -4  398.66   13.70
  -2  -4   4  399.26   13.50
  -2  -4   4  422.86   13.50
  -2  -4   4  382.76   15.60
   1   4  -4  527.65   19.90
   1   4  -4  562.74   19.00
   1   4  -4  580.94   19.50
  -1  -4   4  579.14   18.80
  -1  -4   4  589.24   19.10
  -1  -4   4  581.34   20.70
  -1  -4   4  580.94   18.80
   0   4  -4 2519.75   76.39
   0   4  -4 2600.74   77.39
   0   4  -4 2534.65   75.79
   0   4  -4 2536.85   76.89
   0   4  -4 2450.85   74.99
   0  -4   4 2601.54   74.89
   0  -4   4 2567.04   76.09
   0  -4   4 2627.94   76.49
   0  -4   4 2565.04   75.59
   0  -4   4 2526.25   75.19
   0  -4   4 2607.24   76.19
   0  -4   4 2509.55   74.59
  -1   4  -4 2844.02   83.09
  -1   4  -4 2719.53   84.09
  -1   4  -4 2714.53   83.49
  -1   4  -4 2875.71   85.49
   1  -4   4 2840.02   82.89
   1  -4   4 2843.82   84.39
   1  -4   4 2923.21   83.49
   1  -4   4 2768.72   83.09
  -2   4  -4 1465.95   45.10
  -2   4  -4 1472.45   45.30
  -2   4  -4 1450.45   43.60
  -2   4  -4 1496.05   47.20
   2  -4   4 1440.86   46.10
   2  -4   4 1436.46   45.00
   2  -4   4 1425.06   43.60
  -3   4  -4  176.98    8.20
  -3   4  -4  183.88    8.30
  -3   4  -4  167.98    9.30
  -3   4  -4  170.78    8.60
   3  -4   4  185.18    9.20
   3  -4   4  172.48    8.40
  -4   4  -4  620.74   22.80
  -4   4  -4  648.54   24.30
  -4   4  -4  671.83   21.00
  -4   4  -4  658.63   22.40
   4  -4   4  616.94   23.80
   4  -4   4  569.14   20.50
   4  -4   4  642.94   24.50
  -5   4  -4  382.56   17.70
  -5   4  -4  427.06   18.70
  -5   4  -4  403.96   14.50
   5  -4   4  403.96   17.50
   5  -4   4  390.36   16.40
  -6   4  -4   59.19    4.00
  -6   4  -4   53.99    5.60
  -6   4  -4   57.69    5.10
   6  -4   4   60.19    5.20
   6  -4   4   52.69    5.30
  -7   4  -4   45.40    3.70
  -7   4  -4   45.80    5.30
  -7   4  -4   43.60    5.00
   7  -4   4   48.50    5.00
   7  -4   4   52.49    5.70
  -8   4  -4  281.17   15.30
  -8   4  -4  300.17   12.80
  -8   4  -4  321.97   16.60
   8  -4   4  308.97   16.00
   8  -4   4  327.37   15.50
  -9   4  -4  118.29    7.40
  -9   4  -4  128.19   10.30
  -9   4  -4  107.59    9.00
  -9   4  -4  135.19   10.80
   9  -4   4  148.19   10.70
   9  -4   4  140.19    9.90
 -10   4  -4    1.50    3.50
 -10   4  -4    2.60    3.00
  10  -4   4    4.60    2.50
  10  -4   4    1.50    2.80
  11   3  -4   25.80    4.40
  11   3  -4   36.50    4.50
 -11  -3   4   37.90    5.70
 -11  -3   4   34.70    5.90
 -11  -3   4   37.30    5.90
  10   3  -4    0.50    2.40
  10   3  -4    0.50    1.80
  10   3  -4    8.70    2.00
 -10  -3   4    3.70    2.10
 -10  -3   4    0.30    2.10
 -10  -3   4    6.90    3.10
   9   3  -4    8.80    2.10
   9   3  -4    9.70    2.70
  -9  -3   4    3.40    2.20
  -9  -3   4    8.80    2.10
   8   3  -4   36.30    3.40
   8   3  -4   36.10    3.00
  -8  -3   4   27.60    4.10
  -8  -3   4   22.80    4.30
   7   3  -4  172.18   12.50
   7   3  -4  169.98    7.40
  -7  -3   4  170.48   10.30
  -7  -3   4  180.48   10.70
   6   3  -4   44.50    2.80
  -6  -3   4   40.50    4.40
   5   3  -4   28.40    3.30
   5   3  -4   33.70    3.10
   5   3  -4   28.70    2.30
   5   3  -4   34.30    3.10
  -5  -3   4   32.70    4.60
  -5  -3   4   29.80    3.70
   4   3  -4  194.58    8.80
   4   3  -4  183.08    8.70
   4   3  -4  192.68    9.20
   4   3  -4  225.68    8.60
  -4  -3   4  189.88    9.70
  -4  -3   4  183.28    7.50
   3   3  -4  196.28    8.60
   3   3  -4  226.88    9.40
   3   3  -4  202.38    9.00
   3   3  -4  222.18    9.40
  -3  -3   4  223.48   10.20
  -3  -3   4  215.48    7.90
   2   3  -4   28.80    2.70
   2   3  -4   27.40    2.40
   2   3  -4   27.90    2.40
  -2  -3   4   27.00    2.00
  -2  -3   4   26.00    2.20
  -2  -3   4   28.60    2.80
  -2  -3   4   25.60    1.90
  -2  -3   4   25.10    2.70
   1   3  -4  163.68    6.60
   1   3  -4  162.08    6.90
   1   3  -4  170.48    7.40
   1   3  -4  170.18    7.00
  -1  -3   4  158.28    6.60
  -1  -3   4  164.88    6.70
  -1  -3   4  157.78    7.00
  -1  -3   4  161.68    7.60
  -1  -3   4  156.68    6.30
   0   3  -4 1089.29   35.30
   0   3  -4 1125.59   38.10
   0   3  -4 1116.09   33.70
   0   3  -4 1117.79   34.20
   0   3  -4 1181.98   36.00
   0   3  -4 1140.49   34.50
   0   3  -4 1095.19   35.20
   0  -3   4 1136.99   33.50
   0  -3   4 1118.39   35.10
   0  -3   4 1132.79   36.30
   0  -3   4 1171.68   34.80
   0  -3   4 1139.69   33.90
   0  -3   4 1018.30   34.60
   0  -3   4 1203.18   34.00
   0  -3   4 1140.29   35.10
  -1   3  -4 1989.30   61.19
  -1   3  -4 2172.28   61.89
  -1   3  -4 2066.89   61.49
  -1   3  -4 2019.60   62.49
  -1   3  -4 2021.00   60.29
   1  -3   4 2135.79   63.89
   1  -3   4 2014.30   61.89
   1  -3   4 2088.69   60.59
   1  -3   4 1899.61   61.69
  -2   3  -4 1276.77   37.40
  -2   3  -4 1186.98   35.80
  -2   3  -4 1184.18   38.70
  -2   3  -4 1234.08   37.60
  -2   3  -4 1200.78   38.10
   2  -3   4 1191.78   36.50
   2  -3   4 1156.98   38.20
   2  -3   4 1139.09   37.20
  -3   3  -4  729.33   24.60
  -3   3  -4  712.13   25.20
  -3   3  -4  739.93   23.20
   3  -3   4  703.13   24.10
   3  -3   4  667.03   22.80
   3  -3   4  705.13   24.90
  -4   3  -4 1197.78   36.70
  -4   3  -4 1168.98   39.20
  -4   3  -4 1153.98   38.60
   4  -3   4 1164.68   39.00
  -5   3  -4  355.56   15.60
  -5   3  -4  365.56   12.60
  -5   3  -4  377.16   13.60
  -5   3  -4  331.37   14.70
   5  -3   4  348.77   14.70
   5  -3   4  340.07   16.40
  -6   3  -4   60.49    5.80
  -6   3  -4   62.19    5.20
  -6   3  -4   66.89    4.50
  -6   3  -4   60.39    5.30
   6  -3   4   60.59    5.40
   6  -3   4   65.39    5.50
  -7   3  -4   71.69    6.20
  -7   3  -4   75.89    6.70
  -7   3  -4   75.19    6.40
   7  -3   4   70.59    6.10
   7  -3   4   68.69    5.80
  -8   3  -4  155.98    9.70
  -8   3  -4  137.99    7.80
  -8   3  -4  131.39   13.50
   8  -3   4  139.59    9.30
   8  -3   4  144.59   10.00
  -9   3  -4   49.20    4.90
  -9   3  -4   36.50    5.40
  -9   3  -4   45.20    5.70
   9  -3   4   55.39    5.80
   9  -3   4   59.49    6.50
 -10   3  -4   -1.70    3.20
 -10   3  -4    5.40    2.60
 -10   3  -4    3.00    3.30
  10  -3   4    4.40    2.40
  10  -3   4    6.70    3.40
  11   2  -4   26.40    5.00
  11   2  -4   25.50    4.10
  11   2  -4   21.30    3.10
 -11  -2   4   23.70    4.50
 -11  -2   4   30.40    5.00
 -11  -2   4   26.30    5.50
  10   2  -4   45.40    4.40
  10   2  -4   39.10    4.00
 -10  -2   4   37.80    5.20
 -10  -2   4   42.40    5.60
 -10  -2   4   46.60    5.60
   9   2  -4  220.98   10.20
   9   2  -4  225.48   10.60
  -9  -2   4  212.68   11.80
  -9  -2   4  227.28   12.50
  -9  -2   4  206.88   12.40
   8   2  -4   31.00    3.30
   8   2  -4   42.40    3.90
  -8  -2   4   38.40    4.60
  -8  -2   4   33.00    4.30
   7   2  -4  131.19    8.10
   7   2  -4  118.49    8.10
   7   2  -4  126.49    6.30
  -7  -2   4  129.39    8.30
  -7  -2   4  119.89   10.40
   6   2  -4    0.40    0.90
   6   2  -4    0.30    1.10
  -6  -2   4   -0.10    0.50
  -6  -2   4    1.10    1.00
   5   2  -4    8.90    1.70
   5   2  -4    7.00    1.40
   5   2  -4   10.00    2.00
   5   2  -4    9.80    2.10
  -5  -2   4   10.80    2.30
  -5  -2   4    9.10    1.40
   4   2  -4  196.88    7.70
   4   2  -4  205.38    8.50
   4   2  -4  206.08    7.50
   4   2  -4  203.48    9.10
   4   2  -4  192.68    8.50
  -4  -2   4  196.08    9.40
  -4  -2   4  202.08    8.10
  -4  -2   4  192.68    8.50
   3   2  -4  143.29    5.80
   3   2  -4  130.79    6.40
   3   2  -4  128.09    6.80
   3   2  -4  130.09    6.10
  -3  -2   4  126.29    6.00
  -3  -2   4  133.09    6.90
  -3  -2   4  132.99    5.60
   2   2  -4   11.20    1.30
   2   2  -4   11.70    1.40
   2   2  -4    9.00    1.40
   2   2  -4   11.10    0.80
  -2  -2   4   10.80    1.60
  -2  -2   4   10.30    1.50
  -2  -2   4   10.70    1.30
  -2  -2   4   10.10    1.30
  -2  -2   4   12.50    1.30
   1   2  -4  144.19    6.40
   1   2  -4  151.48    5.30
   1   2  -4  142.59    5.80
   1   2  -4  146.29    6.40
  -1  -2   4  155.48    6.40
  -1  -2   4  143.59    6.00
  -1  -2   4  152.88    6.30
  -1  -2   4  147.39    5.20
  -1  -2   4  139.79    5.60
   0   2  -4 1352.36   40.80
   0   2  -4 1292.37   38.40
   0   2  -4 1353.26   39.90
   0   2  -4 1301.47   38.90
   0   2  -4 1269.17   40.00
   0  -2   4 1229.98   38.20
   0  -2   4 1282.47   39.60
   0  -2   4 1322.87   39.30
   0  -2   4 1303.67   40.80
   0  -2   4 1297.47   38.60
   0  -2   4 1277.87   40.40
  -1   2  -4  434.76   14.00
  -1   2  -4  372.06   14.10
  -1   2  -4  386.66   14.00
  -1   2  -4  368.96   13.30
  -1   2  -4  386.86   12.10
  -1   2  -4  412.36   15.00
   1  -2   4  369.26   13.00
   1  -2   4  381.26   13.60
   1  -2   4  368.26   13.80
   1  -2   4  397.86   13.20
   1  -2   4  367.16   12.10
   1  -2   4  366.76   14.10
  -2   2  -4   40.20    2.80
  -2   2  -4   36.80    2.00
  -2   2  -4   38.40    3.20
  -2   2  -4   34.80    2.90
   2  -2   4   39.20    3.10
   2  -2   4   34.60    2.70
   2  -2   4   36.70    2.60
   2  -2   4   35.30    3.00
  -3   2  -4 1204.38   39.40
  -3   2  -4 1232.28   39.40
  -3   2  -4 1197.58   36.90
  -3   2  -4 1348.07   38.70
   3  -2   4 1213.58   39.60
   3  -2   4 1196.48   38.90
  -4   2  -4 1460.55   44.30
  -4   2  -4 1460.75   46.70
  -4   2  -4 1409.96   44.30
  -4   2  -4 1556.44   45.80
   4  -2   4 1440.56   46.90
  -5   2  -4  520.15   19.90
  -5   2  -4  522.35   18.80
  -5   2  -4  521.15   17.70
  -5   2  -4  505.65   19.70
   5  -2   4  527.45   19.70
   5  -2   4  505.95   20.00
  -6   2  -4  385.96   17.10
  -6   2  -4  413.86   17.20
  -6   2  -4  425.56   16.50
   6  -2   4  425.16   17.20
   6  -2   4  425.36   17.60
  -7   2  -4  364.86   15.00
  -7   2  -4  365.86   20.20
  -7   2  -4  315.97   15.90
   7  -2   4  365.86   16.00
   7  -2   4  377.26   16.40
  -8   2  -4   43.00    4.30
  -8   2  -4   44.40    4.90
  -8   2  -4   38.90    4.90
   8  -2   4   38.90    5.20
   8  -2   4   38.40    4.60
  -9   2  -4    2.20    2.30
  -9   2  -4    2.50    2.00
  -9   2  -4    2.40    2.00
  -9   2  -4    5.60    2.10
   9  -2   4   -0.40    2.10
   9  -2   4    2.60    3.10
 -10   2  -4   80.99   11.90
 -10   2  -4   57.19    8.20
  10  -2   4   87.69    8.30
  10  -2   4   91.49    7.20
  11   1  -4   81.09    6.70
 -11  -1   4   65.89    6.90
 -11  -1   4   83.39    7.40
 -11  -1   4   85.69    8.20
  10   1  -4  294.77   12.40
  10   1  -4  298.67   13.60
 -10  -1   4  286.47   14.50
 -10  -1   4  298.37   15.50
 -10  -1   4  266.57   14.80
   9   1  -4  309.57   13.20
   9   1  -4  327.17   13.90
  -9  -1   4  289.77   15.20
  -9  -1   4  337.57   15.80
  -9  -1   4  329.57   15.30
   8   1  -4    0.00    1.10
   8   1  -4    0.00    1.00
   8   1  -4    3.10    1.50
  -8  -1   4    0.30    1.10
  -8  -1   4    0.40    1.20
   7   1  -4  313.37   14.20
   7   1  -4  309.57   12.90
   7   1  -4  319.37   12.70
  -7  -1   4  314.97   14.30
  -7  -1   4  316.57   14.40
   6   1  -4   39.90    3.80
   6   1  -4   35.80    3.00
   6   1  -4   33.60    3.00
  -6  -1   4   28.70    3.40
   5   1  -4  245.18    9.80
   5   1  -4  241.28    9.30
   5   1  -4  243.48   10.70
  -5  -1   4  235.98   10.10
  -5  -1   4  234.28    8.70
  -5  -1   4  243.38   10.80
  -5  -1   4  228.28    9.40
   4   1  -4    6.40    1.40
   4   1  -4    5.40    1.10
   4   1  -4    4.70    1.10
   4   1  -4    5.80    1.10
  -4  -1   4    6.00    1.00
  -4  -1   4    5.80    1.40
   3   1  -4  179.18    7.70
   3   1  -4  181.38    8.00
   3   1  -4  179.88    7.10
   3   1  -4  181.28    7.10
  -3  -1   4  172.28    7.20
  -3  -1   4  186.68    7.70
  -3  -1   4  174.18    7.90
  -3  -1   4  166.58    6.80
   2   1  -4  216.38    7.50
   2   1  -4  239.38   10.40
   2   1  -4  221.28    8.20
   2   1  -4  208.98    8.30
  -2  -1   4  210.48    7.80
  -2  -1   4  216.08    9.20
  -2  -1   4  229.08    8.60
  -2  -1   4  224.88    9.00
   1   1  -4  703.23   22.90
   1   1  -4  773.32   24.10
   1   1  -4  792.72   23.50
   1   1  -4  775.82   23.70
   1   1  -4  749.13   24.10
  -1  -1   4  723.43   23.20
  -1  -1   4  771.12   23.70
  -1  -1   4  743.83   23.00
   0   1  -4   35.60    2.30
   0   1  -4   36.00    3.00
   0   1  -4   37.20    2.20
   0  -1   4   36.80    2.20
   0  -1   4   35.80    2.60
   0  -1   4   38.10    2.30
   0  -1   4   32.90    3.30
   0  -1   4   34.30    2.40
  -1   1  -4    7.70    1.00
  -1   1  -4   10.10    1.40
  -1   1  -4    9.00    1.30
  -1   1  -4    9.90    1.40
  -1   1  -4   10.50    1.30
   1  -1   4    8.60    1.10
   1  -1   4    7.90    1.20
   1  -1   4   11.60    1.40
   1  -1   4    8.00    1.00
   1  -1   4    9.20    1.30
  -2   1  -4  667.63   21.10
  -2   1  -4  602.64   20.50
  -2   1  -4  619.74   21.10
  -2   1  -4  608.14   19.80
   2  -1   4  624.34   20.80
   2  -1   4  620.64   21.00
   2  -1   4  613.64   20.60
  -3   1  -4  974.00   31.00
  -3   1  -4  952.20   30.10
  -3   1  -4  998.90   31.40
  -3   1  -4  983.40   31.70
   3  -1   4  967.00   31.60
   3  -1   4  925.41   31.00
  -4   1  -4  861.21   28.20
  -4   1  -4  826.52   28.50
  -4   1  -4  834.32   27.80
  -4   1  -4  833.82   27.10
   4  -1   4  815.42   28.30
   4  -1   4  861.81   28.20
  -5   1  -4  483.45   18.60
  -5   1  -4  477.35   17.10
  -5   1  -4  478.25   18.90
  -5   1  -4  432.66   15.50
  -5   1  -4  479.55   17.50
   5  -1   4  444.26   18.10
   5  -1   4  481.75   17.90
  -6   1  -4  567.64   23.50
  -6   1  -4  622.14   23.10
   6  -1   4  698.93   27.30
   6  -1   4  612.44   22.90
  -7   1  -4  438.26   20.00
  -7   1  -4  499.75   19.60
   7  -1   4  507.05   19.70
   7  -1   4  485.75   19.60
  -8   1  -4   88.09    7.50
  -8   1  -4   99.69    6.70
  -8   1  -4   92.19    6.70
  -8   1  -4   98.79    7.10
   8  -1   4   84.99    7.20
   8  -1   4   83.99    6.80
  -9   1  -4   65.89    6.50
  -9   1  -4   67.99    6.60
  -9   1  -4   65.09    6.80
   9  -1   4   75.49    6.40
   9  -1   4   70.29    6.70
 -10   1  -4  118.19    9.70
 -10   1  -4  119.19   10.10
 -10   1  -4  117.69    9.20
  10  -1   4  109.29    9.40
  10  -1   4  126.79   10.70
  12   0  -4   32.20    6.00
  12   0  -4   21.70    4.30
 -12   0   4   26.40    4.70
 -12   0   4   28.40    5.60
 -12   0   4   34.10    5.40
  11   0  -4  127.89    9.80
 -11   0   4  131.29   10.40
 -11   0   4  129.29    8.90
 -11   0   4  113.59    9.10
  10   0  -4  296.17   14.10
  10   0  -4  304.57   16.20
 -10   0   4  270.67   14.50
 -10   0   4  307.57   14.00
 -10   0   4  306.47   16.00
   9   0  -4  106.89    7.20
   9   0  -4  118.09    6.20
   9   0  -4  111.29    8.00
  -9   0   4   95.69    7.20
  -9   0   4  114.19    8.70
  -9   0   4  116.39    7.90
   8   0  -4    2.90    1.70
   8   0  -4    2.70    1.00
  -8   0   4   -0.20    0.90
  -8   0   4    1.70    1.00
  -8   0   4    0.70    1.40
  -8   0   4    2.70    2.00
   7   0  -4  475.55   18.20
   7   0  -4  466.05   18.80
   7   0  -4  472.15   16.90
  -7   0   4  462.15   16.40
  -7   0   4  480.65   18.50
  -7   0   4  458.15   16.50
  -7   0   4  468.85   18.50
   6   0  -4   39.90    3.00
   6   0  -4   44.50    3.60
   6   0  -4   35.80    2.80
  -6   0   4   38.80    3.50
  -6   0   4   40.20    3.60
  -6   0   4   35.50    2.90
   5   0  -4   57.59    4.20
   5   0  -4   48.70    3.80
  -5   0   4   54.09    4.00
  -5   0   4   50.29    4.90
  -5   0   4   53.69    3.90
   4   0  -4   17.40    2.00
   4   0  -4   19.40    1.80
   4   0  -4   17.20    2.00
   4   0  -4   17.10    2.00
   4   0  -4   18.40    1.40
  -4   0   4   18.60    2.00
  -4   0   4   16.40    1.70
  -4   0   4   18.30    2.10
  -4   0   4   17.80    1.80
  -4   0   4   16.70    1.30
   3   0  -4  321.67   11.30
   3   0  -4  326.07   12.00
   3   0  -4  322.67   10.90
   3   0  -4  349.07   13.70
  -3   0   4  333.77   11.80
  -3   0   4  334.17   11.60
  -3   0   4  332.47   12.10
  -3   0   4  310.37   11.80
  -3   0   4  331.67   11.30
   2   0  -4  479.25   15.00
   2   0  -4  488.05   15.80
   2   0  -4  467.25   15.00
   2   0  -4  438.86   15.50
   2   0  -4  489.75   15.90
   2   0  -4  448.86   15.10
  -2   0   4  464.05   15.10
  -2   0   4  500.95   15.60
  -2   0   4  441.06   15.70
   1   0  -4 1272.07   38.00
   1   0  -4 1168.48   36.70
   1   0  -4 1266.77   36.10
   1   0  -4 1181.98   35.90
  -1   0   4 1245.68   36.20
  -1   0   4 1099.59   36.50
  -1   0   4 1183.18   36.00
  -1   0   4 1251.67   36.50
  -1   0   4 1111.19   36.20
  -1   0   4 1163.48   36.20
   0   0  -4   23.10    1.90
   0   0  -4   21.90    2.00
   0   0  -4   20.30    2.00
   0   0  -4   19.60    1.70
   0   0  -4   18.20    1.80
   0   0   4   20.70    1.70
   0   0   4   20.10    1.80
   0   0   4   21.20    1.90
   0   0   4   19.10    1.90
   0   0   4   21.30    1.80
   0   0   4   20.10    1.90
  -1   0  -4  120.09    6.10
  -1   0  -4  136.99    5.90
  -1   0  -4  135.69    6.10
  -1   0  -4  145.99    6.40
   1   0   4  128.99    6.00
   1   0   4  126.09    5.80
   1   0   4  130.39    6.00
   1   0   4  131.49    5.60
   1   0   4  124.89    5.70
  -2   0  -4  652.83   21.40
  -2   0  -4  629.24   21.00
  -2   0  -4  614.34   19.80
  -2   0  -4  627.04   20.60
   2   0   4  596.74   20.60
   2   0   4  633.04   19.90
   2   0   4  594.64   20.70
  -3   0  -4  527.65   18.10
  -3   0  -4  524.55   18.30
  -3   0  -4  530.75   18.80
  -3   0  -4  543.55   19.00
   3   0   4  498.65   16.80
   3   0   4  526.25   18.30
   3   0   4  494.25   18.10
  -4   0  -4  313.77   11.30
  -4   0  -4  311.17   13.50
  -4   0  -4  309.37   12.40
   4   0   4  300.47   12.40
   4   0   4  311.77   12.50
  -5   0  -4  239.28   11.20
  -5   0  -4  220.78   11.20
  -5   0  -4  239.98   10.70
   5   0   4  236.38   10.60
   5   0   4  233.58   10.70
  -6   0  -4  708.23   25.30
  -6   0  -4  682.33   25.70
  -6   0  -4  630.14   25.90
   6   0   4  718.13   25.00
   6   0   4  741.83   25.40
  -7   0  -4  441.76   18.80
  -7   0  -4  445.76   18.10
  -7   0  -4  396.66   19.20
   7   0   4  442.26   18.00
   7   0   4  451.15   17.80
  -8   0  -4  125.79    9.20
  -8   0  -4  147.49    9.60
  -8   0  -4  139.69    9.10
   8   0   4  141.69    8.80
   8   0   4  154.58    8.80
  -9   0  -4  167.58   11.60
  -9   0  -4  183.68   11.50
  -9   0  -4  179.18   13.00
   9   0   4  188.78   10.90
   9   0   4  185.58   11.00
  12  -1  -4   92.19    8.40
 -12   1   4   87.79    7.60
 -12   1   4  103.39   11.50
  11  -1  -4  181.78   11.30
 -11   1   4  166.08   10.70
 -11   1   4  186.68   10.10
 -11   1   4  221.38   13.70
  10  -1  -4  107.89    5.90
  10  -1  -4   96.59    7.80
 -10   1   4  106.29    7.60
 -10   1   4   98.49    7.50
 -10   1   4  112.09    9.40
   9  -1  -4  128.29    8.50
   9  -1  -4  127.09    8.20
   9  -1  -4  133.19    6.50
  -9   1   4  117.09    7.80
  -9   1   4  119.19    7.20
  -9   1   4  115.89    9.00
   8  -1  -4  469.15   19.10
   8  -1  -4  462.55   16.60
   8  -1  -4  471.75   19.10
  -8   1   4  470.65   20.20
  -8   1   4  441.96   17.30
  -8   1   4  460.55   18.30
  -8   1   4  452.15   17.60
   7  -1  -4  528.05   24.40
   7  -1  -4  511.05   17.50
   7  -1  -4  506.85   19.80
  -7   1   4  494.05   18.60
  -7   1   4  481.95   18.40
  -7   1   4  483.75   18.60
  -7   1   4  502.95   20.50
   6  -1  -4  324.57   13.80
   6  -1  -4  330.47   13.90
  -6   1   4  337.77   13.00
  -6   1   4  308.77   13.00
   5  -1  -4   34.50    2.90
   5  -1  -4   43.30    3.50
   5  -1  -4   35.10    3.40
  -5   1   4   39.70    3.00
  -5   1   4   38.10    3.20
  -5   1   4   40.90    3.70
   4  -1  -4    5.80    1.40
   4  -1  -4    9.30    1.40
   4  -1  -4    7.70    1.50
  -4   1   4   10.70    1.30
  -4   1   4   11.00    1.90
  -4   1   4    9.40    1.20
  -4   1   4    9.70    1.50
   3  -1  -4  214.18    8.70
   3  -1  -4  221.78    7.30
   3  -1  -4  217.98    8.90
   3  -1  -4  228.68    8.70
  -3   1   4  221.98    9.00
  -3   1   4  227.98    8.20
  -3   1   4  217.68    9.10
  -3   1   4  212.58    9.10
  -3   1   4  212.88    8.10
   2  -1  -4   14.90    1.60
   2  -1  -4   13.80    1.60
   2  -1  -4   17.60    1.80
  -2   1   4   15.00    1.20
  -2   1   4   16.70    1.60
  -2   1   4   14.30    1.80
  -2   1   4   19.30    1.80
  -2   1   4   15.60    1.70
   1  -1  -4    0.90    0.50
   1  -1  -4    1.50    0.60
   1  -1  -4    2.10    0.60
   1  -1  -4    1.10    0.50
  -1   1   4    2.00    0.50
  -1   1   4    2.70    0.90
  -1   1   4    1.60    0.50
  -1   1   4    1.40    0.60
   0  -1  -4  206.18    8.20
   0  -1  -4  170.28    7.60
   0  -1  -4  190.58    8.00
   0  -1  -4  202.78    7.50
   0   1   4  186.68    8.20
   0   1   4  183.98    7.60
   0   1   4  183.08    7.70
  -1  -1  -4  169.48    7.60
  -1  -1  -4  179.48    7.40
  -1  -1  -4  179.78    8.00
  -1  -1  -4  176.58    7.60
   1   1   4  162.98    7.10
   1   1   4  181.58    8.30
   1   1   4  166.78    7.40
  -2  -1  -4  443.36   16.20
  -2  -1  -4  445.56   15.70
  -2  -1  -4  422.56   15.70
   2   1   4  429.06   15.40
   2   1   4  417.56   15.00
  -3  -1  -4  125.89    6.80
  -3  -1  -4  123.99    6.60
   3   1   4  122.49    6.00
  -4  -1  -4   16.70    2.50
  -4  -1  -4   19.10    2.60
   4   1   4   15.90    1.90
   4   1   4   14.20    2.10
  -5  -1  -4  214.38   10.30
  -5  -1  -4  194.78   10.40
  -5  -1  -4  203.08   10.60
   5   1   4  192.88    9.40
   5   1   4  210.28    9.30
  -6  -1  -4  331.67   15.20
  -6  -1  -4  332.37   14.80
  -6  -1  -4  311.27   15.20
   6   1   4  339.97   15.20
   6   1   4  338.77   14.20
  -7  -1  -4  167.78   10.60
  -7  -1  -4  173.78   10.20
  -7  -1  -4  162.58   10.20
   7   1   4  182.08    9.70
  -8  -1  -4  201.58   11.70
  -8  -1  -4  194.98   12.10
  -8  -1  -4  200.08   11.80
   8   1   4  207.78   10.20
   8   1   4  193.98   10.90
  -9  -1  -4  191.58   11.70
  -9  -1  -4  203.88   12.40
  -9  -1  -4  214.38   18.50
   9   1   4  190.28   11.00
  12  -2  -4  139.59   10.20
 -12   2   4  117.69    9.20
 -12   2   4  145.39   11.60
  11  -2  -4  175.58   11.40
  11  -2  -4  180.78   11.00
 -11   2   4  167.48   12.50
  10  -2  -4   26.80    4.70
 -10   2   4   30.90    3.70
 -10   2   4   25.60    3.80
 -10   2   4   27.60    3.40
   9  -2  -4  127.09    8.40
   9  -2  -4  128.79    8.90
   9  -2  -4  133.99    6.40
  -9   2   4  119.29    9.40
  -9   2   4  120.59    7.70
  -9   2   4  124.49    6.80
  -9   2   4  134.39    7.90
   8  -2  -4  478.85   20.20
   8  -2  -4  481.65   16.80
   8  -2  -4  470.85   19.20
  -8   2   4  462.15   17.10
  -8   2   4  464.15   20.90
  -8   2   4  484.65   18.20
   7  -2  -4   73.99    8.10
   7  -2  -4   77.59    6.10
  -7   2   4   77.19    4.90
  -7   2   4   75.19    6.40
  -7   2   4   75.09    5.50
  -7   2   4   71.69    5.50
  -6   2   4   48.70    3.00
  -6   2   4   54.89    3.60
  -6   2   4   56.89    4.60
  -6   2   4   56.49    5.20
   5  -2  -4  311.07   13.50
   5  -2  -4  302.57   12.30
   5  -2  -4  278.17   11.10
  -5   2   4  306.27   12.90
  -5   2   4  317.37   11.00
  -5   2   4  307.07   10.60
   4  -2  -4  436.16   14.70
   4  -2  -4  414.46   15.40
  -4   2   4  425.56   14.10
  -4   2   4  418.86   15.80
  -4   2   4  433.36   13.80
  -4   2   4  420.26   16.30
  -4   2   4  402.46   16.00
   3  -2  -4   36.00    2.70
   3  -2  -4   32.50    2.70
  -3   2   4   30.80    2.90
  -3   2   4   33.40    3.00
  -3   2   4   35.30    3.20
  -3   2   4   37.70    2.60
   2  -2  -4  256.27   10.60
   2  -2  -4  279.77   10.20
  -2   2   4  271.37   11.20
  -2   2   4  271.67   10.70
  -2   2   4  265.57   11.00
   1  -2  -4    1.40    0.70
   1  -2  -4    1.50    0.70
   1  -2  -4    1.80    0.50
  -1   2   4    2.20    0.60
  -1   2   4    2.50    0.90
  -1   2   4    1.90    0.90
  -1   2   4    0.20    0.60
   0  -2  -4  697.43   22.70
   0  -2  -4  623.54   22.20
   0  -2  -4  660.33   22.10
   0  -2  -4  676.63   22.80
   0   2   4  703.93   21.70
   0   2   4  666.53   23.20
   0   2   4  649.14   22.40
   0   2   4  669.53   21.80
  -1  -2  -4  412.86   15.70
  -1  -2  -4  436.76   14.80
  -1  -2  -4  400.26   14.80
  -1  -2  -4  418.86   15.70
   1   2   4  440.26   14.60
   1   2   4  411.66   16.30
   1   2   4  413.06   15.30
  -2  -2  -4  271.87   11.40
  -2  -2  -4  267.97   10.80
   2   2   4  250.27   13.50
   2   2   4  260.67   10.80
   2   2   4  254.77    9.90
  -3  -2  -4   21.10    2.40
  -3  -2  -4   15.20    2.60
  -3  -2  -4   17.00    2.50
   3   2   4   16.90    1.80
   3   2   4   17.00    2.20
   3   2   4   11.00    2.50
  -4  -2  -4  138.79    8.00
  -4  -2  -4  143.99    8.20
  -4  -2  -4  138.19    8.30
   4   2   4  132.69    6.40
   4   2   4  141.19    7.40
  -5  -2  -4  923.41   32.50
  -5  -2  -4  941.31   32.50
  -5  -2  -4  883.21   32.70
   5   2   4  909.81   29.60
   5   2   4  909.41   31.00
  -6  -2  -4   13.40    2.90
  -6  -2  -4   14.20    3.10
  -6  -2  -4   16.90    3.30
   6   2   4   15.40    2.70
   6   2   4   14.70    2.30
  -7  -2  -4   71.49    6.60
  -7  -2  -4   66.39    6.40
  -7  -2  -4   62.99    6.40
   7   2   4   74.79    6.00
  -8  -2  -4  384.86   17.90
  -8  -2  -4  345.07   17.60
  -8  -2  -4  331.87   17.50
   8   2   4  354.06   16.00
  12  -3  -4  161.18   11.60
  12  -3  -4  170.78   11.10
 -12   3   4  166.98   17.50
 -12   3   4  155.98   10.50
  11  -3  -4   79.89    7.40
  11  -3  -4   86.49    8.50
 -11   3   4   96.09    9.20
 -11   3   4   72.69    6.50
 -11   3   4   87.99    6.90
  10  -3  -4   71.39    6.70
  10  -3  -4   56.09   10.20
 -10   3   4   67.69    7.70
 -10   3   4   67.19    5.60
 -10   3   4   62.89    5.60
   9  -3  -4  183.98   10.20
   9  -3  -4  179.18   11.40
   9  -3  -4  178.98    7.90
  -9   3   4  185.88   10.40
  -9   3   4  175.48    9.10
  -9   3   4  176.28   12.20
   8  -3  -4  287.87   14.50
   8  -3  -4  286.77   13.20
  -8   3   4  274.97   15.20
  -8   3   4  270.87   13.50
  -8   3   4  281.77   11.80
   7  -3  -4   85.49    6.70
   7  -3  -4   80.79    5.80
  -7   3   4   89.89    5.00
  -7   3   4   81.99    7.10
  -7   3   4   87.39    6.50
   6  -3  -4  141.29    7.70
   6  -3  -4  144.79    6.60
   6  -3  -4  163.28   13.10
  -6   3   4  154.68    9.50
  -6   3   4  144.59   12.50
   5  -3  -4  691.13   24.10
  -5   3   4  699.53   25.00
  -5   3   4  731.73   26.40
  -5   3   4  678.93   22.40
  -5   3   4  709.83   25.70
   4  -3  -4  347.17   13.30
   4  -3  -4  296.17   12.20
  -4   3   4  275.97   10.80
  -4   3   4  304.87   13.30
  -4   3   4  312.57   13.10
  -4   3   4  310.47   13.50
  -4   3   4  300.17   13.10
   3  -3  -4   73.89    3.70
   3  -3  -4   79.29    4.90
   3  -3  -4   81.99    4.30
  -3   3   4   81.69    5.20
  -3   3   4   74.49    5.30
  -3   3   4   80.59    5.30
  -3   3   4   82.09    5.40
   2  -3  -4   45.10    3.10
   2  -3  -4   40.90    3.30
  -2   3   4   36.60    3.20
  -2   3   4   43.50    3.70
  -2   3   4   43.30    3.80
  -2   3   4   42.50    3.50
   1  -3  -4   27.70    2.80
   1  -3  -4   30.00    1.90
   1  -3  -4   31.60    2.80
  -1   3   4   30.70    3.20
  -1   3   4   28.50    3.10
  -1   3   4   29.60    2.60
   0  -3  -4   60.59    4.30
   0  -3  -4   57.99    3.30
   0  -3  -4   54.39    4.20
   0   3   4   55.79    3.20
   0   3   4   63.19    4.80
   0   3   4   57.09    3.70
   0   3   4   56.29    3.50
   0   3   4   59.69    4.80
   0   3   4   55.99    4.20
  -1  -3  -4  185.48    7.80
   1   3   4  171.38   13.10
   1   3   4  169.78    8.50
   1   3   4  192.68    7.80
  -2  -3  -4   66.99    5.90
  -2  -3  -4   79.09    4.90
  -2  -3  -4   70.39    5.30
   2   3   4   76.79    4.10
   2   3   4   70.39    5.70
   2   3   4   74.39    4.80
  -3  -3  -4   34.90    3.80
  -3  -3  -4   32.10    4.80
  -3  -3  -4   29.70    3.60
   3   3   4   33.30    3.20
   3   3   4   37.90    2.70
   3   3   4   35.80    4.20
  -4  -3  -4  236.58   11.90
  -4  -3  -4  255.07   11.80
  -4  -3  -4  228.68   12.10
   4   3   4  238.08   13.00
   4   3   4  235.78   10.90
   4   3   4  241.38    9.40
  -5  -3  -4  128.79    8.30
  -5  -3  -4  135.19    8.60
  -5  -3  -4  115.79    8.30
   5   3   4  124.29    7.40
   5   3   4  118.99    9.00
   5   3   4  130.49    5.90
  -6  -3  -4    4.80    1.70
  -6  -3  -4    3.70    2.10
  -6  -3  -4    4.20    2.30
   6   3   4    8.70    2.10
   6   3   4    2.90    2.10
  -7  -3  -4   76.89    6.80
  -7  -3  -4   74.29    6.80
  -7  -3  -4   67.89    6.70
   7   3   4   67.09    5.80
   7   3   4   60.39    7.00
  -8  -3  -4  159.58   10.40
  -8  -3  -4  141.89   10.30
  -8  -3  -4  138.49   10.30
   8   3   4  144.19    8.90
  12  -4  -4  194.68   12.90
  12  -4  -4  191.18   11.80
 -12   4   4  162.38   10.90
 -12   4   4  178.38   11.30
  11  -4  -4  108.39   10.10
  11  -4  -4  102.49    8.30
 -11   4   4  124.19    8.80
 -11   4   4  110.29    8.10
 -11   4   4  113.09   10.40
  10  -4  -4   85.59    8.10
  10  -4  -4   90.59    7.40
 -10   4   4   86.69    7.40
 -10   4   4   90.89    6.40
 -10   4   4   93.69    9.20
   9  -4  -4  182.48   10.30
   9  -4  -4  168.68    7.90
   9  -4  -4  180.78   11.70
  -9   4   4  189.48   11.10
  -9   4   4  165.48   13.30
   8  -4  -4  172.68    9.50
   8  -4  -4  163.58   10.80
  -8   4   4  169.68    7.90
  -8   4   4  181.68   10.60
  -8   4   4  165.98   11.30
   7  -4  -4   27.70    2.90
   7  -4  -4   28.00    4.00
   7  -4  -4   34.20    3.60
  -7   4   4   36.00    4.60
  -7   4   4   38.60    4.50
  -7   4   4   36.90    2.70
   6  -4  -4  305.67   14.80
  -6   4   4  283.57   14.10
  -6   4   4  290.07   14.80
   5  -4  -4  547.25   19.90
  -5   4   4  593.14   29.10
  -5   4   4  508.45   17.80
  -5   4   4  556.34   21.40
  -4   4   4  162.18    9.30
  -4   4   4  138.49    8.50
   3  -4  -4   46.00    3.60
   3  -4  -4   55.19    4.60
   3  -4  -4   44.80    3.10
  -3   4   4   45.20    4.20
  -3   4   4   48.00    4.40
  -3   4   4   56.49    4.40
  -3   4   4   44.60    4.30
   2  -4  -4  236.78   10.00
  -2   4   4  242.98   10.80
  -2   4   4  249.38   11.90
  -2   4   4  243.78   10.70
   1  -4  -4   93.79    5.50
   1  -4  -4   78.39    5.50
   1  -4  -4   87.19    4.90
  -1   4   4   94.19    5.40
  -1   4   4   75.39    4.90
  -1   4   4   93.99    8.50
   0  -4  -4    0.00    0.50
   0  -4  -4   -0.10    0.60
   0   4   4    0.30    1.20
   0   4   4    2.20    1.30
   0   4   4    1.70    0.70
   0   4   4   -0.50    0.60
   0   4   4   -0.10    0.60
  -1  -4  -4    7.20    1.40
  -1  -4  -4    9.60    2.10
  -1  -4  -4   10.40    2.30
   1   4   4   11.20    2.60
   1   4   4   10.10    1.70
   1   4   4    8.00    2.20
  -2  -4  -4    0.80    1.10
  -2  -4  -4    1.40    1.00
   2   4   4   -1.00    1.20
   2   4   4    1.30    1.20
   2   4   4    1.30    0.90
  -3  -4  -4  272.67   13.30
  -3  -4  -4  255.27   13.00
  -3  -4  -4  276.17   12.20
   3   4   4  244.78   13.50
   3   4   4  274.67   12.10
   3   4   4  282.67   10.30
  -4  -4  -4  339.07   16.60
  -4  -4  -4  384.66   17.00
  -4  -4  -4  370.56   15.90
   4   4   4  368.16   17.60
   4   4   4  369.96   16.40
   4   4   4  372.16   15.50
  -5  -4  -4    0.20    1.90
  -5  -4  -4    1.10    1.30
  -5  -4  -4    0.90    1.60
   5   4   4    0.90    1.50
   5   4   4   -0.20    1.70
  -6  -4  -4  146.39    9.40
  -6  -4  -4  138.39    9.60
  -6  -4  -4  139.59   10.00
   6   4   4  144.39   10.20
   6   4   4  140.79    8.60
   6   4   4  128.79    8.70
  -7  -4  -4  106.49    8.70
  -7  -4  -4  119.69    9.10
  -7  -4  -4  114.09    8.60
   7   4   4   97.09    7.30
   7   4   4  104.59    9.30
  11  -5  -4  140.69    9.40
  11  -5  -4  125.89   10.70
 -11   5   4  126.39   11.70
 -11   5   4  127.69    8.60
 -11   5   4  134.89    9.90
  10  -5  -4  505.35   24.20
  10  -5  -4  511.25   21.30
 -10   5   4  543.15   24.60
 -10   5   4  464.25   24.90
 -10   5   4  497.85   23.30
   9  -5  -4  307.67   16.90
   9  -5  -4  317.87   14.80
  -9   5   4  308.67   16.30
  -9   5   4  310.87   12.40
  -9   5   4  286.67   17.50
   8  -5  -4  121.69    7.50
   8  -5  -4  104.59    8.80
  -8   5   4  114.49    9.50
  -8   5   4  128.99    9.30
   7  -5  -4  218.68   12.80
   7  -5  -4  200.48   10.30
  -7   5   4  206.38   12.40
  -7   5   4  205.28   12.80
   6  -5  -4  448.46   17.60
   6  -5  -4  444.66   20.20
  -6   5   4  451.85   20.50
  -6   5   4  448.76   19.40
  -6   5   4  449.46   20.00
   5  -5  -4   28.50    3.30
  -5   5   4   35.60    4.50
  -5   5   4   39.50    4.10
  -5   5   4   30.50    2.60
  -5   5   4   42.70    4.60
   4  -5  -4  121.59    7.50
  -4   5   4  114.69    8.00
  -4   5   4  116.39    7.90
  -4   5   4  110.19    7.70
   3  -5  -4  362.76   15.50
   3  -5  -4  360.76   14.60
  -3   5   4  358.06   16.40
  -3   5   4  376.06   15.90
  -3   5   4  378.16   16.50
   2  -5  -4  388.56   14.90
   2  -5  -4  383.96   16.00
  -2   5   4  384.56   17.10
  -2   5   4  401.66   16.00
  -2   5   4  384.86   15.70
  -2   5   4  390.66   17.10
   1  -5  -4   78.09    5.20
   1  -5  -4   72.69    5.50
  -1   5   4   75.79    5.00
  -1   5   4   61.49    4.70
  -1   5   4   75.89    5.10
  -1   5   4   73.69    6.20
  -1   5   4   76.59    6.10
   0  -5  -4   25.20    3.00
   0  -5  -4   23.30    2.90
   0   5   4   18.90    2.60
   0   5   4   22.20    2.40
   0   5   4   24.70    3.30
   0   5   4   15.10    2.90
  -1  -5  -4   54.09    4.90
  -1  -5  -4   51.39    4.80
  -1  -5  -4   46.50    3.60
   1   5   4   51.29    3.80
   1   5   4   50.59    5.40
   1   5   4   57.99    5.00
  -2  -5  -4   -1.90    1.00
  -2  -5  -4    0.70    1.10
  -2  -5  -4    0.40    1.20
   2   5   4   -2.30    1.20
   2   5   4   -1.10    1.40
   2   5   4   -0.30    1.10
   2   5   4   -1.60    1.70
  -3  -5  -4  192.08   11.00
  -3  -5  -4  193.48    9.80
  -3  -5  -4  175.08   10.70
   3   5   4  178.18   11.60
   3   5   4  195.88   10.10
   3   5   4  204.68   11.00
  -4  -5  -4   92.69    6.70
  -4  -5  -4   86.69    7.30
   4   5   4  100.99    7.30
   4   5   4   95.29    8.30
   4   5   4   97.09    7.20
  -5  -5  -4    1.80    2.20
  -5  -5  -4    2.20    1.90
  -5  -5  -4   -2.90    1.70
   5   5   4    1.30    2.50
   5   5   4   -4.50    2.90
   5   5   4    3.90    2.10
  -6  -5  -4  200.28   12.70
  -6  -5  -4  216.68   12.60
  -6  -5  -4  222.08   13.20
   6   5   4  245.18   13.90
   6   5   4  193.18   11.40
   6   5   4  226.48   12.00
  -7  -5  -4  101.59    8.70
  -7  -5  -4  107.79   10.60
   7   5   4  105.69    9.80
   7   5   4   98.99    8.20
  11  -6  -4  132.49   11.10
  11  -6  -4  157.88   12.90
 -11   6   4  154.28   11.10
 -11   6   4  149.09   16.90
  10  -6  -4  416.66   18.50
  10  -6  -4  420.86   21.70
 -10   6   4  386.96   22.30
 -10   6   4  423.36   20.80
   9  -6  -4   60.99    7.30
   9  -6  -4   66.69    6.10
  -9   6   4   69.79    8.30
  -9   6   4   66.49    7.40
   8  -6  -4   91.09    6.80
   8  -6  -4   94.69    9.80
  -8   6   4   86.59    8.10
  -8   6   4  101.09    9.70
   7  -6  -4  380.56   19.30
   7  -6  -4  401.56   16.80
  -7   6   4  413.16   19.80
  -7   6   4  389.06   20.20
   6  -6  -4  215.68   13.10
   6  -6  -4  224.58   11.00
  -6   6   4  228.98   13.60
  -6   6   4  216.08   12.30
  -6   6   4  225.08   13.30
   5  -6  -4    5.50    1.40
   5  -6  -4    3.60    1.50
  -5   6   4    3.70    1.60
  -5   6   4    2.70    1.80
  -5   6   4    4.40    1.90
   4  -6  -4   59.19    4.80
  -4   6   4   65.29    6.10
  -4   6   4   52.39    5.50
  -4   6   4   58.39    5.70
   3  -6  -4  174.88    8.10
   3  -6  -4  157.98    8.90
  -3   6   4  166.38   10.20
  -3   6   4  145.69    9.40
  -3   6   4  178.78   10.50
   2  -6  -4   60.79    5.30
  -2   6   4   66.39    6.10
  -2   6   4   65.89    5.40
  -2   6   4   65.19    5.90
   1  -6  -4   53.79    4.40
   1  -6  -4   55.49    4.90
  -1   6   4   51.99    4.30
  -1   6   4   48.70    5.30
  -1   6   4   42.50    5.00
   0  -6  -4  212.18   11.50
   0  -6  -4  202.08   10.60
   0   6   4  222.78    9.30
   0   6   4  206.58   12.70
   0   6   4  216.78   11.70
  -1  -6  -4   82.69    5.20
  -1  -6  -4   93.89    7.00
  -1  -6  -4   82.89    6.50
   1   6   4   80.09    6.80
   1   6   4   85.59    7.50
  -2  -6  -4   12.00    2.20
  -2  -6  -4   10.70    2.70
  -2  -6  -4   15.70    3.40
   2   6   4   16.00    3.30
   2   6   4   13.20    3.00
  -3  -6  -4   15.90    3.50
  -3  -6  -4   19.60    3.20
  -3  -6  -4   14.70    3.50
   3   6   4   18.50    4.00
   3   6   4   14.60    3.50
  -4  -6  -4   -1.30    2.10
  -4  -6  -4   -1.00    1.80
   4   6   4   -1.50    2.70
   4   6   4    5.30    3.30
   4   6   4   -0.20    3.20
  -5  -6  -4   25.60    4.60
  -5  -6  -4   38.40    5.00
  -5  -6  -4   33.50    5.60
   5   6   4   39.80    5.60
   5   6   4   31.20    4.60
   5   6   4   34.40    5.60
  -6  -6  -4   87.59    7.10
  -6  -6  -4   65.09    7.00
   6   6   4   63.29    7.00
   6   6   4   78.59    8.30
  11  -7  -4   95.49    8.10
  11  -7  -4  103.09   10.10
 -11   7   4   78.59    9.80
 -11   7   4   94.79    9.40
  10  -7  -4   98.09    7.70
  10  -7  -4   97.49    9.60
 -10   7   4   93.89   10.00
 -10   7   4   95.39    9.30
   9  -7  -4  262.87   13.20
   9  -7  -4  256.37   15.90
  -9   7   4  247.58   17.00
  -9   7   4  262.27   15.70
   8  -7  -4  413.96   21.20
   8  -7  -4  410.66   17.70
  -8   7   4  383.16   21.80
  -8   7   4  415.56   20.90
   7  -7  -4  404.06   17.30
   7  -7  -4  383.16   20.10
  -7   7   4  387.26   29.70
  -7   7   4  434.46   29.50
   6  -7  -4  188.18   10.20
   6  -7  -4  192.58   12.50
  -6   7   4  187.28   12.60
  -6   7   4  164.88   12.40
  -6   7   4  179.58   11.60
   5  -7  -4  211.68   10.80
   5  -7  -4  195.78    8.80
  -5   7   4  212.58   12.70
  -5   7   4  213.48   13.20
  -5   7   4  223.08   13.50
   4  -7  -4  149.39    7.30
   4  -7  -4  150.28    9.00
  -4   7   4  145.29   10.10
  -4   7   4  159.88   10.70
  -4   7   4  143.09   10.20
   3  -7  -4  196.58    9.40
   3  -7  -4  198.78   10.60
  -3   7   4  195.08   12.10
  -3   7   4  190.98   11.30
  -3   7   4  200.68   12.20
   2  -7  -4  172.88   10.40
   2  -7  -4  180.98    9.40
  -2   7   4  187.58   12.00
  -2   7   4  177.98   11.60
  -2   7   4  235.18   15.80
   1  -7  -4   55.69    4.90
   1  -7  -4   52.89    5.40
  -1   7   4   58.09    6.50
  -1   7   4   59.49    6.20
  -1   7   4   47.30    4.40
   0  -7  -4  109.99    8.10
   0  -7  -4  102.29    7.20
   0  -7  -4  109.99    5.50
   0   7   4   98.09    8.70
   0   7   4   99.89    8.40
  -1  -7  -4   53.59    3.90
  -1  -7  -4   42.00    4.90
  -1  -7  -4   57.89    6.80
   1   7   4   47.50    6.00
   1   7   4   52.29    8.30
  -2  -7  -4   17.60    3.60
  -2  -7  -4   23.20    3.20
  -2  -7  -4   20.10    3.80
   2   7   4   15.50    3.80
   2   7   4   23.40    4.60
  -3  -7  -4   50.39    5.90
  -3  -7  -4   53.99    6.30
  -3  -7  -4   60.99    5.20
   3   7   4   61.99    7.30
   3   7   4   59.89    6.90
  -4  -7  -4   35.80    5.10
  -4  -7  -4   30.10    4.70
  -4  -7  -4   29.30    4.40
   4   7   4   17.90    4.90
   4   7   4   36.50    5.90
  -5  -7  -4   25.80    5.00
  -5  -7  -4   35.50    4.70
   5   7   4   28.00    6.70
   5   7   4   24.00    5.10
  10  -8  -4    5.10    3.30
  10  -8  -4    4.40    2.90
 -10   8   4   -1.90    2.80
 -10   8   4    6.90    3.50
   9  -8  -4  164.48   12.60
   9  -8  -4  161.48    9.80
  -9   8   4  162.18   13.50
  -9   8   4  156.28   12.30
   8  -8  -4  274.37   17.00
   8  -8  -4  275.97   14.20
  -8   8   4  290.97   18.60
  -8   8   4  293.77   17.40
   7  -8  -4  355.96   16.40
   7  -8  -4  365.56   19.90
  -7   8   4  361.56   19.00
  -7   8   4  391.96   21.30
  -7   8   4  354.66   19.80
   6  -8  -4  110.89    9.90
  -6   8   4  103.29   11.40
  -6   8   4  129.89   10.20
  -6   8   4  117.99    9.70
   5  -8  -4  416.76   18.40
   5  -8  -4  413.46   18.20
  -5   8   4  443.86   21.50
  -5   8   4  434.26   21.20
  -5   8   4  437.46   21.70
   4  -8  -4  416.16   17.90
   4  -8  -4  390.16   15.60
  -4   8   4  406.26   19.80
  -4   8   4  423.66   28.40
   3  -8  -4   78.49    5.50
   3  -8  -4   75.19    6.40
  -3   8   4   73.89    7.00
  -3   8   4   78.29    7.90
   2  -8  -4   24.20    3.10
   2  -8  -4   14.70    3.40
  -2   8   4   21.10    4.70
  -2   8   4   26.80    4.00
  -2   8   4   26.60    5.40
   1  -8  -4   24.20    5.20
  -1   8   4   22.80    5.10
  -1   8   4   27.00    4.10
  -1   8   4   25.60    5.20
   0  -8  -4  104.79    8.40
   0  -8  -4  110.09   11.40
   0  -8  -4   90.99    5.20
   0   8   4  107.09    9.20
   0   8   4   95.69    9.40
  -1  -8  -4    1.20    1.80
  -1  -8  -4    3.40    1.70
  -1  -8  -4    8.90    2.20
   1   8   4    5.30    2.30
   1   8   4    2.70    2.70
  -2  -8  -4   15.10    3.40
  -2  -8  -4   15.30    3.30
  -2  -8  -4   12.00    2.30
   2   8   4    9.00    4.40
   2   8   4   17.20    4.20
  -3  -8  -4   98.19    9.20
  -3  -8  -4  102.69    7.70
  -3  -8  -4  101.19    8.60
   3   8   4  127.89   10.80
   3   8   4  110.79   11.60
  -4  -8  -4   -0.90    2.50
  -4  -8  -4   -1.20    2.40
  -4  -8  -4    0.70    2.50
   4   8   4    1.00    3.00
   4   8   4   -1.60    4.20
   9  -9  -4   52.29    6.00
  -9   9   4   54.99   10.30
  -9   9   4   64.79   10.70
   8  -9  -4   34.60    7.10
   8  -9  -4   52.29    5.50
  -8   9   4   48.70    7.10
  -8   9   4   49.00    7.80
   7  -9  -4  103.79    7.80
   7  -9  -4   86.69    9.00
  -7   9   4   86.99    8.60
  -7   9   4   90.99   10.20
  -7   9   4  113.89    9.80
   6  -9  -4  163.48   12.90
   6  -9  -4  167.48   10.50
  -6   9   4  159.88   12.90
  -6   9   4  164.78   12.30
  -6   9   4  160.38   12.80
   5  -9  -4  452.65   20.20
   5  -9  -4  469.95   23.70
  -5   9   4  453.75   22.80
  -5   9   4  487.15   23.90
   4  -9  -4  349.77   14.50
   4  -9  -4  354.86   17.00
  -4   9   4  367.16   19.40
  -4   9   4  352.86   18.90
  -4   9   4  356.26   19.70
   3  -9  -4  124.09    8.60
   3  -9  -4  119.49    8.40
  -3   9   4  111.59   10.20
  -3   9   4  123.49   10.60
  -3   9   4  115.09    9.40
   2  -9  -4   45.70    5.00
   2  -9  -4   50.29    6.00
  -2   9   4   47.90    7.80
  -2   9   4   39.10    5.80
  -2   9   4   57.49    7.30
   1  -9  -4   68.59    6.50
  -1   9   4   61.29    8.10
  -1   9   4   74.89    7.20
  -1   9   4   56.39    7.40
   0  -9  -4   55.09    6.10
   0  -9  -4   37.80    4.80
   0   9   4   34.50    6.80
   0   9   4   32.00    5.90
  -1  -9  -4    3.80    2.10
  -1  -9  -4    1.10    2.30
   1   9   4    7.90    3.40
   1   9   4    2.20    3.70
  -2  -9  -4   21.30    3.90
  -2  -9  -4   36.70    5.30
  -2  -9  -4   29.10    5.70
   2   9   4   25.60    6.10
   2   9   4   34.10    7.10
   7 -10  -4   49.20    5.80
   7 -10  -4   44.10   11.20
  -7  10   4   27.40    5.90
  -7  10   4   31.10    7.70
  -7  10   4   56.89    8.00
   6 -10  -4  257.37   16.80
   6 -10  -4  257.87   13.90
  -6  10   4  216.78   16.20
  -6  10   4  239.38   15.90
   5 -10  -4  209.88   12.30
   5 -10  -4  205.78   14.90
  -5  10   4  222.18   15.10
  -5  10   4  203.68   14.20
  -5  10   4  189.28   14.40
   4 -10  -4  160.18   10.90
  -4  10   4  191.68   17.50
  -4  10   4  185.58   13.20
  -4  10   4  175.78   13.50
   3 -10  -4  205.18   11.00
   3 -10  -4  224.68   12.90
  -3  10   4  213.98   15.10
  -3  10   4  205.28   14.60
  -3  10   4  193.38   13.70
   2 -10  -4  259.07   13.60
   2 -10  -4  264.97   14.80
  -2  10   4  274.57   17.20
  -2  10   4  292.17   17.40
   1 -10  -4  373.76   18.00
   1 -10  -4  371.36   19.00
  -1  10   4  393.26   21.00
  -1  10   4  388.96   23.20
   0 -10  -4   19.80    4.70
   0 -10  -4   19.40    3.90
   0  10   4   19.50    5.30
   0  10   4   16.80    4.90
   1  13  -5  112.09   10.30
   1  13  -5  114.19    9.80
   1  13  -5  107.69    8.90
  -1 -13   5  125.79    9.30
  -1 -13   5  113.59    9.30
  -1 -13   5  100.29    8.60
   0  13  -5   72.29    7.40
   0  13  -5   51.39    7.00
   0  13  -5   65.19    8.00
   0  13  -5   70.59    6.70
   0 -13   5   65.19    7.00
   0 -13   5   76.89    7.30
   0 -13   5   77.99    7.00
  -1  13  -5   76.29    6.40
  -1  13  -5   70.29    8.00
  -1  13  -5   57.39    7.00
  -1  13  -5   64.69    7.60
  -1  13  -5   58.99    7.40
   1 -13   5   70.89    6.10
   1 -13   5   56.69    6.40
  -2  13  -5  203.78   11.30
  -2  13  -5  209.78   12.80
  -2  13  -5  202.18   14.70
  -2  13  -5  209.78   13.40
  -2  13  -5  183.98   12.80
   2 -13   5  196.68   11.10
   2 -13   5  201.48   11.80
   2 -13   5  200.68   11.90
   2 -13   5  199.38   12.10
   2 -13   5  239.18   11.60
  -3  13  -5  330.87   18.20
  -3  13  -5  331.97   17.20
  -3  13  -5  290.07   18.90
  -3  13  -5  322.77   14.50
   3 -13   5  320.47   16.40
   3 -13   5  308.47   15.80
   3 -13   5  309.67   16.70
  -4  13  -5  196.48   17.70
  -4  13  -5  191.18   12.30
  -4  13  -5  203.68   15.70
   4 -13   5  191.08   13.20
   4 -13   5  198.88   12.60
   3  12  -5  198.38   13.40
  -3 -12   5  198.38   12.80
  -3 -12   5  198.68   13.00
   2  12  -5   98.09    8.10
   2  12  -5  112.69    9.40
   2  12  -5   95.29    7.70
   2  12  -5  110.29    9.20
  -2 -12   5  103.79    9.20
  -2 -12   5  106.89    8.50
  -2 -12   5   94.39    8.40
   1  12  -5  129.79    9.10
   1  12  -5  131.79   10.10
   1  12  -5  138.99   10.30
   1  12  -5  144.49    9.70
  -1 -12   5  143.79   10.50
  -1 -12   5  142.49    9.30
   0  12  -5   37.40    5.60
   0  12  -5   43.00    5.60
   0  12  -5   45.00    5.90
   0  12  -5   49.00    5.20
   0 -12   5   49.99    5.30
   0 -12   5   42.50    5.70
   0 -12   5   44.50    5.50
  -1  12  -5   10.50    2.90
  -1  12  -5   16.20    4.10
  -1  12  -5   19.00    3.10
  -1  12  -5   15.50    4.20
  -1  12  -5   16.80    3.90
   1 -12   5   18.00    3.00
   1 -12   5   18.80    3.90
   1 -12   5   25.10    4.10
   1 -12   5   20.30    3.50
   1 -12   5   17.70    3.50
  -2  12  -5  230.68   12.00
  -2  12  -5  231.98   15.70
  -2  12  -5  259.67   14.60
  -2  12  -5  263.37   14.60
  -2  12  -5  241.68   14.40
   2 -12   5  238.18   11.40
   2 -12   5  227.88   13.20
   2 -12   5  254.17   13.00
   2 -12   5  232.08   13.20
   2 -12   5  243.18   12.40
  -3  12  -5  154.48   11.00
  -3  12  -5  124.59   11.30
  -3  12  -5  141.49   10.30
  -3  12  -5  152.48    8.80
   3 -12   5  141.19    9.60
   3 -12   5  119.09   11.50
   3 -12   5  156.68   10.00
  -4  12  -5   74.79    7.80
  -4  12  -5   62.49    7.10
  -4  12  -5   68.39    8.50
  -4  12  -5   70.09    5.50
   4 -12   5   88.89    7.90
   4 -12   5   66.79    7.20
   4 -12   5   67.59    6.90
  -5  12  -5  131.79    9.50
  -5  12  -5  128.39   12.10
  -5  12  -5  134.59   10.70
   5 -12   5  128.99   10.10
   5 -12   5  122.09    9.60
   5 -12   5  145.29   11.20
  -6  12  -5  242.38   14.20
  -6  12  -5  229.28   20.10
   6 -12   5  259.77   15.00
   6 -12   5  231.88   15.40
   5  11  -5   32.40    4.70
   5  11  -5   26.40    5.20
  -5 -11   5   39.90    5.70
   4  11  -5    1.90    1.90
   4  11  -5    0.90    2.30
  -4 -11   5    2.30    2.00
  -4 -11   5    2.10    2.60
   3  11  -5  221.08   13.50
   3  11  -5  210.08   13.20
   3  11  -5  214.68   12.70
  -3 -11   5  230.18   14.60
  -3 -11   5  222.88   13.60
  -3 -11   5  231.28   13.50
   2  11  -5  284.07   15.00
   2  11  -5  302.67   16.10
   2  11  -5  290.77   13.50
   2  11  -5  307.77   15.70
  -2 -11   5  287.17   15.60
  -2 -11   5  286.17   16.10
   1  11  -5  437.26   20.40
   1  11  -5  429.76   19.10
   1  11  -5  428.26   18.70
   1  11  -5  450.95   19.90
  -1 -11   5  409.96   18.60
  -1 -11   5  422.66   24.40
  -1 -11   5  422.46   19.90
   0  11  -5  159.58   10.50
   0  11  -5  144.69    9.80
   0  11  -5  152.78   10.50
   0  11  -5  158.98   11.00
   0 -11   5  146.59   10.10
   0 -11   5  144.99   10.00
   0 -11   5  157.18    8.70
  -1  11  -5   96.69    7.90
  -1  11  -5   96.49    7.30
  -1  11  -5  104.89    9.20
  -1  11  -5   88.79    7.90
  -1  11  -5  102.59    8.50
   1 -11   5  105.19    7.10
   1 -11   5  110.19    7.80
   1 -11   5  100.49    6.70
   1 -11   5   96.19    7.50
   1 -11   5  110.39    7.10
  -2  11  -5  222.88   13.30
  -2  11  -5  232.78   11.50
  -2  11  -5  217.68   13.00
  -2  11  -5  244.88   17.50
  -2  11  -5  228.18   13.10
   2 -11   5  221.98   10.50
   2 -11   5  228.08   12.50
   2 -11   5  234.58   12.80
   2 -11   5  225.88   11.50
  -3  11  -5   52.59    6.90
  -3  11  -5   59.49    6.60
  -3  11  -5   70.09    6.80
  -3  11  -5   59.09    5.20
   3 -11   5   55.49    6.50
   3 -11   5   69.49    6.40
   3 -11   5   71.09    6.80
  -4  11  -5   72.39    7.10
  -4  11  -5   70.19    4.80
  -4  11  -5   76.29    7.20
  -4  11  -5   64.29    8.30
   4 -11   5   70.39   10.50
   4 -11   5   70.39    6.70
   4 -11   5   73.99    6.90
  -5  11  -5  189.38   13.10
  -5  11  -5  198.58   14.70
  -5  11  -5  206.68   12.20
   5 -11   5  192.78   12.30
   5 -11   5  188.18   13.10
  -6  11  -5  414.86   23.80
  -6  11  -5  423.56   21.80
  -6  11  -5  487.05   20.50
   6 -11   5  436.16   20.80
   6 -11   5  418.56   21.90
  -7  11  -5  175.68   11.60
  -7  11  -5  144.59   13.70
   7 -11   5  167.88   12.30
   7 -11   5  165.98   11.60
   6  10  -5    1.80    2.10
   6  10  -5   -0.70    1.40
  -6 -10   5   -2.50    1.60
  -6 -10   5   -2.00    1.90
   5  10  -5    0.20    2.10
   5  10  -5    0.70    1.30
  -5 -10   5   -0.50    1.90
  -5 -10   5   -1.20    1.90
   4  10  -5   18.30    3.70
   4  10  -5   17.60    3.70
   4  10  -5   14.10    3.30
  -4 -10   5   10.90    3.50
  -4 -10   5   13.80    3.80
   3  10  -5  159.08   10.40
   3  10  -5  180.38   11.30
   3  10  -5  164.28   10.50
  -3 -10   5  168.98   12.10
  -3 -10   5  190.58   11.50
   2  10  -5  466.15   19.30
   2  10  -5  407.26   18.50
  -2 -10   5  398.36   19.50
  -2 -10   5  390.46   19.00
   1  10  -5  166.58    9.90
   1  10  -5  159.68   10.60
   1  10  -5  169.18    9.50
   1  10  -5  170.18   10.10
  -1 -10   5  164.88    7.90
  -1 -10   5  175.28    9.70
  -1 -10   5  152.98   10.20
  -1 -10   5  157.08   10.60
   0  10  -5  237.88   13.90
   0  10  -5  253.47   13.70
   0  10  -5  250.47   12.90
   0  10  -5  255.07   12.50
   0  10  -5  245.48   12.60
   0 -10   5  243.08   12.90
   0 -10   5  243.08   11.60
   0 -10   5  252.27   13.20
   0 -10   5  241.98   14.20
  -1  10  -5  657.23   25.80
  -1  10  -5  670.43   26.70
  -1  10  -5  648.74   24.60
  -1  10  -5  619.34   25.80
  -1  10  -5  660.83   27.80
   1 -10   5  672.93   24.50
   1 -10   5  680.93   25.20
   1 -10   5  668.33   26.20
   1 -10   5  642.74   23.80
   1 -10   5  686.43   25.70
  -2  10  -5  258.17   11.90
  -2  10  -5  261.37   13.40
  -2  10  -5  245.18   15.00
  -2  10  -5  275.77   14.10
  -2  10  -5  247.88   13.70
   2 -10   5  263.47   13.20
   2 -10   5  249.38   12.40
   2 -10   5  264.37   13.90
   2 -10   5  265.77   12.50
  -3  10  -5   59.89    5.90
  -3  10  -5   64.49    6.40
  -3  10  -5   59.29    4.60
  -3  10  -5   51.99    6.90
   3 -10   5   63.29    4.50
   3 -10   5   61.29    6.30
   3 -10   5   54.69    5.60
  -4  10  -5   63.29    8.60
  -4  10  -5   67.49    6.30
   4 -10   5   65.99    6.20
   4 -10   5   81.29    6.60
  -5  10  -5  214.58   12.20
  -5  10  -5  209.28   13.10
  -5  10  -5  198.18   14.30
   5 -10   5  217.58   13.50
   5 -10   5  216.18   12.30
  -6  10  -5   52.49    5.90
  -6  10  -5   39.10    7.30
   6 -10   5   43.40    5.90
   6 -10   5   39.70    5.90
  -7  10  -5  114.59    9.00
  -7  10  -5   97.49   10.40
   7 -10   5  117.79    9.10
   7 -10   5  103.49    9.60
  -8  10  -5  275.67   19.70
  -8  10  -5  304.37   16.10
   8 -10   5  317.67   22.40
   8 -10   5  313.87   17.10
   7   9  -5    6.30    2.50
   7   9  -5   -1.30    1.40
  -7  -9   5    1.60    1.80
  -7  -9   5    4.40    2.70
   6   9  -5    4.80    2.20
   6   9  -5    8.70    2.90
  -6  -9   5    6.50    2.90
  -6  -9   5    8.20    3.20
   5   9  -5   10.60    3.20
   5   9  -5    7.20    2.30
  -5  -9   5    4.00    2.50
  -5  -9   5    8.50    2.90
   4   9  -5   17.20    3.40
   4   9  -5   16.30    3.10
   4   9  -5   27.20    4.10
  -4  -9   5   20.40    4.00
  -4  -9   5   18.00    5.90
   3   9  -5   10.60    3.00
   3   9  -5   13.70    3.20
   3   9  -5    8.60    2.30
  -3  -9   5    9.20    2.80
  -3  -9   5   13.10    3.10
   2   9  -5  111.79    6.80
   2   9  -5  122.29    8.60
   2   9  -5  118.49    8.00
   2   9  -5  119.89    7.80
  -2  -9   5  117.69    8.50
  -2  -9   5  106.99    8.60
   1   9  -5  124.69    7.70
   1   9  -5  113.09   10.60
   1   9  -5  144.39    8.50
   1   9  -5  138.59    9.10
  -1  -9   5  140.69    9.20
  -1  -9   5  129.39    9.00
   0   9  -5  553.24   23.10
   0   9  -5  565.14   21.90
   0   9  -5  550.84   21.90
   0   9  -5  563.14   26.80
   0   9  -5  553.34   23.60
   0  -9   5  571.84   23.10
   0  -9   5  579.14   23.10
   0  -9   5  587.94   21.10
  -1   9  -5  707.93   28.90
  -1   9  -5  710.93   27.10
  -1   9  -5  739.83   27.90
  -1   9  -5  754.82   26.90
  -1   9  -5  691.73   25.70
   1  -9   5  728.53   27.00
   1  -9   5  738.93   27.00
   1  -9   5  686.23   24.30
   1  -9   5  724.13   27.90
   1  -9   5  728.43   25.50
  -2   9  -5  113.69    8.10
  -2   9  -5  126.79    9.50
  -2   9  -5  122.59    7.00
  -2   9  -5  116.49    8.20
   2  -9   5  129.19    8.30
   2  -9   5  115.39    7.20
   2  -9   5  127.59    7.60
   2  -9   5  112.99    5.80
  -3   9  -5  266.97   11.40
  -3   9  -5  264.67   15.40
  -3   9  -5  271.07   13.70
  -3   9  -5  271.27   14.00
   3  -9   5  273.97   14.00
   3  -9   5  267.17   12.50
   3  -9   5  274.37   13.30
  -4   9  -5  339.97   16.80
  -4   9  -5  330.47   18.40
  -4   9  -5  355.76   16.00
  -4   9  -5  333.07   12.50
   4  -9   5  331.67   15.70
   4  -9   5  323.77   12.90
   4  -9   5  323.17   16.50
  -5   9  -5  292.97   15.80
  -5   9  -5  294.67   17.90
  -5   9  -5  304.57   14.70
   5  -9   5  300.27   16.20
   5  -9   5  300.67   15.10
  -6   9  -5   13.60    3.40
  -6   9  -5   12.90    3.90
   6  -9   5   10.00    3.30
  -7   9  -5  118.59   11.30
  -7   9  -5  120.69    8.70
   7  -9   5  113.19    9.90
   7  -9   5  112.19    9.30
  -8   9  -5  123.99    9.90
  -8   9  -5  138.09   12.40
   8  -9   5  133.59   10.30
   8  -9   5  144.59   13.30
  -9   9  -5   27.20    8.50
  -9   9  -5   26.80    5.50
   9  -9   5   27.00    6.20
   9  -9   5   15.10    3.70
   8   8  -5   41.20    5.00
   8   8  -5   43.40    5.70
  -8  -8   5   40.30    5.90
  -8  -8   5   32.30    6.10
   7   8  -5   12.50    3.70
   7   8  -5   11.30    3.20
  -7  -8   5   11.90    3.90
  -7  -8   5    9.40    3.20
   6   8  -5    7.70    2.40
   6   8  -5    3.20    1.80
  -6  -8   5    7.20    2.50
  -6  -8   5    0.00    1.60
   5   8  -5   63.19    5.80
   5   8  -5   69.79    6.50
   5   8  -5   63.19    6.10
  -5  -8   5   70.49    6.60
  -5  -8   5   71.29    7.20
   4   8  -5    2.40    1.50
   4   8  -5    2.90    2.20
   4   8  -5    2.50    1.60
  -4  -8   5   -0.20    1.50
  -4  -8   5    2.70    2.10
   3   8  -5    0.80    1.50
   3   8  -5    0.60    1.00
  -3  -8   5    0.30    1.20
  -3  -8   5    0.90    1.20
   2   8  -5    6.80    1.60
   2   8  -5    4.60    2.10
   2   8  -5    5.90    1.90
   2   8  -5    4.80    1.80
  -2  -8   5    6.80    2.40
  -2  -8   5    4.80    1.90
   1   8  -5   10.10    2.30
   1   8  -5    8.80    2.00
   1   8  -5    7.10    1.90
   1   8  -5    9.60    2.50
  -1  -8   5    9.50    2.50
  -1  -8   5   12.10    2.70
   0   8  -5  398.36   17.90
   0   8  -5  388.66   17.40
   0   8  -5  378.76   16.10
   0   8  -5  391.86   16.10
   0   8  -5  388.96   16.20
   0  -8   5  419.66   18.30
   0  -8   5  423.36   15.90
  -1   8  -5  456.45   18.90
  -1   8  -5  551.54   23.30
  -1   8  -5  460.75   19.60
  -1   8  -5  477.45   20.70
  -1   8  -5  467.15   18.00
   1  -8   5  432.36   23.00
   1  -8   5  467.95   19.90
  -2   8  -5  143.89    7.30
  -2   8  -5  144.39    8.60
  -2   8  -5  125.19    9.30
  -2   8  -5  118.89    8.10
   2  -8   5  127.29    6.00
   2  -8   5  133.29    8.40
   2  -8   5  128.19    7.50
  -3   8  -5  715.83   26.60
  -3   8  -5  710.93   28.80
  -3   8  -5  690.73   26.90
  -3   8  -5  684.23   23.50
   3  -8   5  709.43   27.10
   3  -8   5  697.73   26.50
  -4   8  -5  782.52   32.40
  -4   8  -5  807.52   25.60
  -4   8  -5  787.12   29.20
  -4   8  -5  814.32   30.50
   4  -8   5  808.72   30.80
   4  -8   5  791.52   29.30
  -5   8  -5  132.49    8.50
  -5   8  -5  144.29   11.00
   5  -8   5  140.89    9.00
   5  -8   5  133.79    9.70
  -6   8  -5   41.50    6.20
  -6   8  -5   34.00    4.40
   6  -8   5   34.50    5.20
   6  -8   5   38.90    4.40
  -7   8  -5  173.68   10.20
  -7   8  -5  156.28   12.40
   7  -8   5  165.18   11.10
   7  -8   5  167.28   11.70
  -8   8  -5  108.09    9.90
  -8   8  -5   88.09    7.60
   8  -8   5  101.19    8.40
   8  -8   5  109.29    9.30
  -9   8  -5   35.00    8.30
  -9   8  -5   38.40    6.20
   9  -8   5   45.70    5.80
   9  -8   5   23.20    4.70
   9   7  -5   64.89    6.30
   9   7  -5   84.59    7.30
   8   7  -5    6.60    2.40
   8   7  -5   11.30    2.70
  -8  -7   5    6.60    3.10
  -8  -7   5    8.80    2.50
   7   7  -5    2.20    1.80
   7   7  -5    0.60    1.20
  -7  -7   5   -0.70    1.50
  -7  -7   5    0.20    1.50
   6   7  -5   37.80    4.50
   6   7  -5   39.60    4.80
  -6  -7   5   38.20    5.30
  -6  -7   5   42.10    5.50
   5   7  -5    1.30    1.20
   5   7  -5    0.70    1.00
   5   7  -5    1.00    1.00
  -5  -7   5    0.10    1.60
  -5  -7   5    2.00    1.50
   4   7  -5   40.90    4.60
   4   7  -5   37.10    4.10
   4   7  -5   43.50    3.90
  -4  -7   5   37.70    4.70
  -4  -7   5   37.60    5.00
   3   7  -5   -0.10    0.70
   3   7  -5    1.00    1.20
   3   7  -5    1.60    1.30
  -3  -7   5   -1.00    0.70
  -3  -7   5    1.60    1.10
  -3  -7   5    0.40    0.90
   2   7  -5   13.20    2.90
   2   7  -5   10.50    2.40
   2   7  -5   10.80    1.80
  -2  -7   5   10.60    1.90
   1   7  -5  159.48    9.30
   1   7  -5  150.58    7.70
   1   7  -5  152.28    7.70
   1   7  -5  159.88    8.60
  -1  -7   5  150.98    9.10
  -1  -7   5  160.88    7.40
   0   7  -5  103.89    6.30
   0   7  -5  125.89    7.00
   0   7  -5  121.49    8.00
   0   7  -5  123.59    7.80
   0  -7   5  123.59    6.70
   0  -7   5  125.69    9.50
  -1   7  -5   47.00    4.40
  -1   7  -5   44.90    3.40
  -1   7  -5   40.70    4.00
  -1   7  -5   41.20    3.60
   1  -7   5   44.90    4.00
   1  -7   5   40.90    3.40
  -2   7  -5  661.33   22.60
  -2   7  -5  641.04   26.60
  -2   7  -5  666.43   26.40
  -2   7  -5  659.53   24.60
   2  -7   5  667.13   24.70
   2  -7   5  667.23   23.60
  -3   7  -5 1237.58   44.00
  -3   7  -5 1237.48   38.60
  -3   7  -5 1229.18   41.50
   3  -7   5 1244.58   42.40
   3  -7   5 1245.88   41.00
  -4   7  -5  581.34   25.10
  -4   7  -5  537.35   18.80
  -4   7  -5  642.64   25.40
   4  -7   5  584.34   22.60
   4  -7   5  599.24   24.00
  -5   7  -5  246.68   14.50
  -5   7  -5  242.48   12.20
   5  -7   5  260.37   12.80
   5  -7   5  247.28   13.70
  -6   7  -5  491.15   23.10
  -6   7  -5  488.45   19.90
   6  -7   5  465.25   20.50
   6  -7   5  464.55   21.80
  -7   7  -5  197.78   11.20
  -7   7  -5  213.28   13.90
   7  -7   5  182.18   11.70
   7  -7   5  209.68   12.50
  -8   7  -5  105.19    7.90
  -8   7  -5   96.09    9.60
   8  -7   5  118.59    9.10
   8  -7   5   89.69    8.70
  -9   7  -5  173.28   10.80
  -9   7  -5  138.79   11.20
  -9   7  -5  170.68   13.20
   9  -7   5  174.78   12.30
  10   6  -5  264.27   16.30
  10   6  -5  316.77   14.90
 -10  -6   5  273.27   16.80
 -10  -6   5  287.07   24.90
   9   6  -5   13.10    3.00
   9   6  -5    7.80    3.20
  -9  -6   5   11.10    3.20
  -9  -6   5    8.50    2.80
   8   6  -5  103.49    8.40
  -8  -6   5  100.49    9.10
  -8  -6   5   99.09    8.60
   7   6  -5  251.17   12.70
   7   6  -5  246.78   12.70
  -7  -6   5  261.27   15.10
  -7  -6   5  247.88   17.70
   6   6  -5   38.20    4.30
   6   6  -5   50.39    4.60
  -6  -6   5   39.50    5.20
  -6  -6   5   34.70    5.10
   5   6  -5    8.30    2.20
   5   6  -5    9.00    2.40
   5   6  -5   10.30    2.30
  -5  -6   5    8.00    2.60
  -5  -6   5   11.10    3.00
   4   6  -5    1.60    1.10
   4   6  -5    2.10    1.10
   4   6  -5    2.90    0.90
  -4  -6   5    1.00    1.00
  -4  -6   5    1.30    1.10
   3   6  -5   74.29    4.20
   3   6  -5   90.89    9.30
   3   6  -5   80.19    4.80
   3   6  -5   75.89    5.70
  -3  -6   5   71.89    4.20
  -3  -6   5   83.39    3.90
  -3  -6   5   97.69    8.10
   2   6  -5    4.10    1.10
   2   6  -5    3.80    1.30
   2   6  -5    4.10    1.60
  -2  -6   5    4.50    1.00
  -2  -6   5    4.30    1.40
  -2  -6   5    5.40    1.30
   1   6  -5   28.80    2.90
   1   6  -5   27.00    4.00
   1   6  -5   29.90    2.50
  -1  -6   5   25.80    3.30
  -1  -6   5   25.50    2.20
  -1  -6   5   29.20    2.50
   0   6  -5    3.40    1.40
   0   6  -5    2.60    1.40
   0   6  -5    3.20    1.10
   0   6  -5    3.10    0.90
   0  -6   5    3.30    1.00
   0  -6   5    3.40    1.00
  -1   6  -5    2.00    0.90
  -1   6  -5   -1.00    0.50
  -1   6  -5    1.10    1.20
   1  -6   5    0.80    0.50
   1  -6   5    1.60    0.90
  -2   6  -5  724.13   27.70
  -2   6  -5  714.33   24.00
  -2   6  -5  741.13   26.20
   2  -6   5  702.23   24.90
   2  -6   5  780.82   28.60
  -3   6  -5  138.49    6.10
   3  -6   5  135.79    9.70
  -4   6  -5   35.90    3.70
  -4   6  -5   28.90    4.30
   4  -6   5   21.80    3.40
   4  -6   5   26.40    3.40
  -5   6  -5  281.07   13.30
  -5   6  -5  290.37   11.60
  -5   6  -5  305.27   15.90
   5  -6   5  319.17   15.30
   5  -6   5  299.87   14.00
  -6   6  -5  848.52   33.00
  -6   6  -5  787.42   27.00
  -6   6  -5  847.62   29.70
  -6   6  -5  787.02   30.70
   6  -6   5  824.72   30.50
   6  -6   5  813.32   31.80
  -7   6  -5  272.97   15.70
  -7   6  -5  263.27   13.20
  -7   6  -5  247.78   13.90
   7  -6   5  249.38   16.00
   7  -6   5  260.37   14.80
  -8   6  -5   63.19    8.00
  -8   6  -5   64.69    6.70
  -8   6  -5   63.49    6.40
   8  -6   5   57.39    6.20
   8  -6   5   63.39    7.10
  -9   6  -5  121.59   10.30
  -9   6  -5  145.69    9.90
  -9   6  -5  153.78   11.90
   9  -6   5  136.69   11.00
   9  -6   5  160.88   10.50
 -10   6  -5   13.00    4.10
 -10   6  -5   18.60    4.40
 -10   6  -5    8.50    4.20
  10  -6   5    7.50    3.20
  10   5  -5  179.08   12.80
  10   5  -5  209.28   11.20
 -10  -5   5  209.28   13.70
 -10  -5   5  188.28   13.00
 -10  -5   5  202.88   11.60
   9   5  -5    8.40    3.30
   9   5  -5   11.90    3.20
  -9  -5   5    9.90    3.00
  -9  -5   5   16.80    4.30
   8   5  -5  410.86   18.40
   8   5  -5  402.36   17.70
  -8  -5   5  401.56   22.80
  -8  -5   5  419.46   20.10
   7   5  -5  279.17   13.10
  -7  -5   5  262.67   14.90
  -7  -5   5  264.97   14.60
   6   5  -5   60.19    4.60
   6   5  -5   48.00    4.60
   6   5  -5   52.89    4.70
  -6  -5   5   52.99    5.40
  -6  -5   5   45.90    5.50
   5   5  -5   50.59    3.80
   5   5  -5   47.50    4.40
   5   5  -5   48.60    4.50
  -5  -5   5   45.80    5.00
  -5  -5   5   49.80    3.00
  -5  -5   5   47.40    5.20
   4   5  -5   17.70    3.30
   4   5  -5   14.40    1.80
   4   5  -5   16.50    2.40
   4   5  -5   17.20    1.70
  -4  -5   5   16.40    1.50
  -4  -5   5   16.20    5.20
   3   5  -5    8.20    2.80
   3   5  -5    7.70    1.30
   3   5  -5    3.20    1.20
  -3  -5   5    5.50    1.10
  -3  -5   5    4.50    1.80
   2   5  -5   46.90    3.90
   2   5  -5   54.59    4.50
  -2  -5   5   48.90    4.50
  -2  -5   5   49.00    3.20
   1   5  -5   83.09    5.60
   1   5  -5   74.59    4.90
   1   5  -5   78.79    4.00
  -1  -5   5   90.29    6.10
  -1  -5   5   79.59    3.90
  -1  -5   5   80.49    5.00
  -1  -5   5   76.89    4.50
   0   5  -5   38.80    3.70
   0   5  -5   39.20    3.70
   0   5  -5   39.10    3.20
   0  -5   5   38.40    2.80
   0  -5   5   35.20    2.40
   0  -5   5   37.80    3.20
  -1   5  -5   22.20    2.30
  -1   5  -5   28.00    3.20
  -1   5  -5   26.90    2.90
   1  -5   5   24.70    2.20
   1  -5   5   29.40    2.90
   1  -5   5   27.90    2.80
  -2   5  -5   99.09    5.50
  -2   5  -5   86.99    4.60
  -2   5  -5   98.29    6.80
  -2   5  -5   94.89    6.00
   2  -5   5   91.59    5.30
   2  -5   5  101.99    6.30
  -3   5  -5  145.39    7.80
  -3   5  -5  147.99    7.10
  -3   5  -5  153.38    6.00
   3  -5   5  139.59    8.30
   3  -5   5  149.19    7.70
  -4   5  -5  272.47   12.20
  -4   5  -5  262.57   14.80
  -4   5  -5  276.87   13.90
  -4   5  -5  277.77   11.00
   4  -5   5  275.77   13.00
   4  -5   5  263.67   13.10
  -5   5  -5  431.16   19.80
  -5   5  -5  513.55   19.20
  -5   5  -5  414.96   18.50
  -5   5  -5  463.75   16.60
   5  -5   5  460.85   19.70
   5  -5   5  441.16   18.40
  -6   5  -5  747.23   28.80
  -6   5  -5  734.83   26.60
  -6   5  -5  713.53   24.20
  -6   5  -5  640.44   26.40
   6  -5   5  706.73   27.90
   6  -5   5  694.13   26.70
  -7   5  -5  390.46   18.90
  -7   5  -5  369.86   14.70
  -7   5  -5  412.36   17.50
  -7   5  -5  350.36   17.30
   7  -5   5  360.36   17.10
   7  -5   5  368.86   18.30
  -8   5  -5  156.08   10.50
  -8   5  -5  159.78   11.00
  -8   5  -5  178.98   12.10
  -8   5  -5  163.88    8.70
   8  -5   5  191.78   12.30
   8  -5   5  172.98   10.90
  -9   5  -5  226.38   14.50
  -9   5  -5  300.87   21.00
   9  -5   5  269.37   14.50
   9  -5   5  249.88   15.40
 -10   5  -5  238.58   15.20
 -10   5  -5  190.18   16.80
 -10   5  -5  209.08   13.60
  10  -5   5  214.88   13.10
  10  -5   5  237.38   14.50
  11   4  -5  118.39    8.10
 -11  -4   5  131.69   10.60
 -11  -4   5  125.89   10.20
 -11  -4   5  125.99   13.60
  10   4  -5   73.89    5.90
 -10  -4   5   64.99    7.20
 -10  -4   5   69.79    6.30
 -10  -4   5   64.99    6.90
   9   4  -5  235.18   12.00
   9   4  -5  231.28    9.70
  -9  -4   5  229.78   13.90
  -9  -4   5  247.08   17.70
   8   4  -5  502.45   19.90
  -8  -4   5  493.05   22.10
  -8  -4   5  478.25   22.10
   7   4  -5  360.76   15.70
  -7  -4   5  359.26   17.70
  -7  -4   5  374.16   17.60
   6   4  -5  146.49    8.40
  -6  -4   5  148.49    9.50
  -6  -4   5  158.28   10.00
   5   4  -5  132.29    7.50
   5   4  -5  126.59    6.00
   5   4  -5  130.19    8.90
   5   4  -5  127.99    6.40
  -5  -4   5  125.59    8.60
  -5  -4   5  126.49    5.90
   4   4  -5  297.27   11.90
   4   4  -5  331.07   13.50
   4   4  -5  327.77   13.60
   4   4  -5  331.97   13.70
  -4  -4   5  343.27   16.60
  -4  -4   5  317.97   11.50
   3   4  -5    1.80    0.90
   3   4  -5    0.00    0.60
   3   4  -5   -0.30    0.50
   3   4  -5    0.50    0.50
  -3  -4   5    3.00    1.10
  -3  -4   5   -0.10    0.40
  -3  -4   5    0.00    0.50
   2   4  -5  103.29    5.40
   2   4  -5   98.99    5.20
   2   4  -5   99.89    5.70
   2   4  -5   91.99    5.80
  -2  -4   5  108.79    5.10
  -2  -4   5   96.59    6.30
  -2  -4   5   98.19    4.90
   1   4  -5   -0.30    0.70
   1   4  -5    0.20    0.60
  -1  -4   5    0.50    0.60
  -1  -4   5    1.30    0.50
  -1  -4   5   -0.30    0.60
   0   4  -5    0.90    0.80
   0   4  -5    1.70    0.60
   0   4  -5    1.00    0.80
   0   4  -5    1.20    0.60
   0  -4   5    1.00    0.40
   0  -4   5    1.10    0.40
   0  -4   5    1.20    0.80
  -1   4  -5  282.67   11.10
  -1   4  -5  265.47   10.10
  -1   4  -5  284.37   12.20
  -1   4  -5  255.67   11.10
   1  -4   5  275.47   11.40
   1  -4   5  269.17   10.30
  -2   4  -5   15.10    1.40
  -2   4  -5   13.90    1.90
  -2   4  -5   15.00    2.40
  -2   4  -5   11.80    2.20
   2  -4   5   14.30    1.80
   2  -4   5   14.50    2.10
  -3   4  -5    2.60    0.70
  -3   4  -5    2.90    1.10
  -3   4  -5    2.40    1.10
  -3   4  -5    1.70    0.80
  -3   4  -5    3.90    1.00
   3  -4   5    2.50    1.10
   3  -4   5    3.50    1.30
  -4   4  -5  188.98   10.40
  -4   4  -5  187.68   10.40
  -4   4  -5  187.68   10.30
  -4   4  -5  194.28    8.50
   4  -4   5  173.28   11.80
  -5   4  -5  481.05   20.00
  -5   4  -5  467.35   17.10
  -5   4  -5  457.55   19.10
   5  -4   5  471.05   19.70
   5  -4   5  457.05   18.50
  -6   4  -5  153.98    7.90
  -6   4  -5  150.28    9.70
  -6   4  -5  152.08    9.40
   6  -4   5  152.08    9.60
   6  -4   5  147.79    9.00
  -7   4  -5  144.79    9.80
  -7   4  -5  161.38    8.60
  -7   4  -5  169.38   10.70
   7  -4   5  161.78   10.60
   7  -4   5  172.08    9.80
  -8   4  -5  435.26   25.10
  -8   4  -5  396.06   16.10
  -8   4  -5  346.47   18.10
   8  -4   5  402.36   18.10
  -9   4  -5  203.48   10.70
  -9   4  -5  192.78   12.70
  -9   4  -5  217.98   13.30
   9  -4   5  216.68   12.30
   9  -4   5  190.48   12.50
 -10   4  -5  126.79   10.80
 -10   4  -5  104.69   11.20
  10  -4   5  119.79    9.20
  10  -4   5  135.49   10.30
  11   3  -5    7.80    2.20
 -11  -3   5    9.40    3.00
 -11  -3   5   14.40    3.90
 -11  -3   5   10.20    3.30
  10   3  -5    7.50    2.30
  10   3  -5    7.20    2.40
 -10  -3   5   10.20    3.20
 -10  -3   5   11.40    3.50
 -10  -3   5    8.00    3.10
   9   3  -5  526.05   20.70
  -9  -3   5  500.75   26.30
  -9  -3   5  553.14   23.60
   8   3  -5  135.09    6.40
   8   3  -5  136.59    8.10
  -8  -3   5  126.89    9.30
  -8  -3   5  131.19    9.30
   7   3  -5  332.37   14.20
   7   3  -5  316.97   11.80
  -7  -3   5  317.37   15.60
  -7  -3   5  345.97   16.30
   6   3  -5  423.26   17.40
   6   3  -5  422.06   16.10
   6   3  -5  409.36   16.50
   6   3  -5  415.66   14.20
  -6  -3   5  415.16   18.00
   5   3  -5  400.56   15.30
   5   3  -5  407.76   15.70
   5   3  -5  392.76   16.10
  -5  -3   5  388.26   14.30
  -5  -3   5  383.56   19.20
   4   3  -5  414.86   15.80
   4   3  -5  407.46   15.50
   4   3  -5  394.76   15.30
  -4  -3   5  405.46   14.20
  -4  -3   5  403.46   16.60
   3   3  -5   25.90    2.70
   3   3  -5   27.50    2.40
   3   3  -5   28.40    2.70
   3   3  -5   27.00    2.50
  -3  -3   5   31.40    3.20
  -3  -3   5   28.60    2.20
   2   3  -5  153.38    6.90
   2   3  -5  155.88    7.10
   2   3  -5  152.98    7.40
  -2  -3   5  167.28    6.90
  -2  -3   5  152.88    8.00
  -2  -3   5  159.18    7.40
   1   3  -5   12.40    1.60
   1   3  -5   14.50    1.80
   1   3  -5   13.00    1.40
   1   3  -5   13.90    1.90
   1   3  -5   14.30    1.20
  -1  -3   5   11.90    1.30
  -1  -3   5   13.40    1.10
  -1  -3   5   13.90    1.70
   0   3  -5    1.60    0.70
   0   3  -5    3.30    1.20
   0   3  -5    0.80    0.60
   0   3  -5    2.10    0.80
   0  -3   5    2.00    0.60
   0  -3   5    2.30    0.80
   0  -3   5    1.70    0.40
  -1   3  -5  182.38    6.40
  -1   3  -5  199.38    8.30
  -1   3  -5  185.98    8.80
  -1   3  -5  179.78    8.30
   1  -3   5  180.88    6.40
   1  -3   5  187.88    7.60
   1  -3   5  184.38    8.50
  -2   3  -5   40.30    3.60
  -2   3  -5   40.00    3.00
  -2   3  -5   37.70    3.40
   2  -3   5   35.40    2.90
   2  -3   5   32.80    3.20
  -3   3  -5    1.00    0.70
  -3   3  -5    0.30    0.70
  -3   3  -5    1.60    0.90
   3  -3   5    0.40    0.70
   3  -3   5    1.10    1.10
  -4   3  -5  369.56   13.70
  -4   3  -5  359.26   15.10
  -4   3  -5  335.97   18.90
   4  -3   5  324.27   17.40
   4  -3   5  348.07   15.10
  -5   3  -5  104.99    5.90
  -5   3  -5   88.59    6.50
  -5   3  -5   84.89    4.50
  -5   3  -5  106.49    7.00
   5  -3   5  101.79    7.00
   5  -3   5  101.69    6.50
  -6   3  -5    1.60    1.50
  -6   3  -5    0.50    1.20
  -6   3  -5    3.70    1.70
   6  -3   5   -0.40    1.80
   6  -3   5    1.10    1.20
  -7   3  -5  146.59    6.70
  -7   3  -5  133.99    9.30
  -7   3  -5  145.39    8.10
  -7   3  -5  136.29    9.10
   7  -3   5  141.79    9.40
   7  -3   5  140.49    8.80
  -8   3  -5  359.26   16.50
  -8   3  -5  295.27   16.20
  -8   3  -5  339.17   13.20
  -8   3  -5  317.47   14.30
   8  -3   5  332.97   16.10
   8  -3   5  309.07   15.40
  -9   3  -5  178.18   10.10
  -9   3  -5  154.38   11.30
  -9   3  -5  182.08   11.40
   9  -3   5  189.38   11.80
   9  -3   5  181.58   11.00
 -10   3  -5  105.79    9.70
 -10   3  -5   94.59    9.40
  10  -3   5  111.19    8.70
  10  -3   5  116.89    9.30
  11   2  -5   64.59    6.30
  11   2  -5   72.79    5.70
 -11  -2   5   73.79    7.20
 -11  -2   5   75.39    7.00
 -11  -2   5   63.29    7.10
  10   2  -5  150.68    8.30
  10   2  -5  132.59    7.70
 -10  -2   5  138.99    9.90
 -10  -2   5  149.59   10.20
 -10  -2   5  136.09   10.00
   9   2  -5  504.25   18.90
   9   2  -5  486.55   19.30
  -9  -2   5  475.55   21.40
  -9  -2   5  503.55   21.50
   8   2  -5  215.78   10.50
   8   2  -5  215.58    9.70
   8   2  -5  218.88   11.90
  -8  -2   5  219.18   12.10
  -8  -2   5  212.98   11.90
   7   2  -5  183.28    9.10
   7   2  -5  182.28   10.10
   7   2  -5  170.68    8.00
  -7  -2   5  191.38   12.60
  -7  -2   5  182.38   10.30
   6   2  -5  372.16   14.00
   6   2  -5  364.66   15.40
   6   2  -5  369.66   14.70
   6   2  -5  377.26   16.40
  -6  -2   5  371.46   16.00
   5   2  -5 1111.59   36.90
   5   2  -5 1116.59   35.40
   5   2  -5 1135.39   36.00
   5   2  -5 1104.59   34.60
  -5  -2   5 1122.99   37.40
  -5  -2   5 1100.99   35.50
   4   2  -5  998.90   32.30
   4   2  -5  976.60   31.60
   4   2  -5  984.20   31.50
   4   2  -5  968.50   30.20
  -4  -2   5 1021.90   30.00
  -4  -2   5  979.80   32.90
  -4  -2   5  950.20   32.40
  -4  -2   5  970.30   31.10
   3   2  -5  352.46   13.20
   3   2  -5  361.66   13.30
   3   2  -5  367.56   12.10
   3   2  -5  351.36   13.30
  -3  -2   5  353.26   12.80
  -3  -2   5  363.46   12.80
  -3  -2   5  350.86   14.10
   2   2  -5  693.23   20.90
   2   2  -5  708.93   23.60
   2   2  -5  696.63   22.40
   2   2  -5  710.23   22.70
   2   2  -5  693.43   23.40
  -2  -2   5  697.93   22.30
  -2  -2   5  671.03   21.00
  -2  -2   5  629.94   21.90
  -2  -2   5  671.43   21.90
   1   2  -5   55.99    3.50
   1   2  -5   59.19    3.90
   1   2  -5   57.49    3.20
  -1  -2   5   52.59    2.90
  -1  -2   5   49.10    2.70
  -1  -2   5   55.49    3.50
   0   2  -5   15.80    1.80
   0   2  -5   11.90    1.70
   0   2  -5   12.30    1.30
   0   2  -5   12.80    1.60
   0  -2   5   13.80    1.20
   0  -2   5   13.80    1.30
   0  -2   5   15.00    2.00
   0  -2   5   13.40    1.70
  -1   2  -5   99.89    4.30
  -1   2  -5  104.19    5.80
  -1   2  -5  109.39    5.50
   1  -2   5   98.09    4.30
   1  -2   5  101.79    5.50
   1  -2   5   98.59    4.90
  -2   2  -5   10.10    1.60
  -2   2  -5    9.40    1.90
  -2   2  -5   12.40    1.10
  -2   2  -5    6.90    1.50
   2  -2   5    9.10    1.80
   2  -2   5    7.30    1.40
   2  -2   5   11.40    2.40
  -3   2  -5   51.59    4.60
  -3   2  -5   50.09    3.00
  -3   2  -5   55.69    3.90
  -3   2  -5   53.99    4.20
   3  -2   5   52.99    3.80
   3  -2   5   52.59    4.20
  -4   2  -5  243.78   11.00
  -4   2  -5  228.18    8.70
  -4   2  -5  256.97   10.80
  -4   2  -5  248.08   12.10
   4  -2   5  253.27   11.40
  -5   2  -5    4.70    1.50
  -5   2  -5    3.40    1.10
  -5   2  -5    4.50    1.50
  -5   2  -5    4.10    1.40
   5  -2   5    3.80    1.40
   5  -2   5    6.40    2.00
  -6   2  -5   16.80    2.70
  -6   2  -5   14.40    2.90
  -6   2  -5   21.20    2.80
   6  -2   5   12.30    2.20
   6  -2   5   13.50    2.90
  -7   2  -5  154.88    8.90
  -7   2  -5  130.99    9.60
   7  -2   5  176.68    9.90
   7  -2   5  148.79    8.90
  -8   2  -5  125.99    8.40
  -8   2  -5  130.29    7.50
  -8   2  -5  112.19    9.00
  -8   2  -5  133.69   11.20
   8  -2   5  137.69    9.20
   8  -2   5  133.49    8.80
  -9   2  -5   89.79    7.20
  -9   2  -5   86.49    7.80
  -9   2  -5   88.69    6.90
   9  -2   5   90.59    7.20
   9  -2   5   78.49    7.80
  12   1  -5   75.69    7.80
 -12  -1   5   93.99    8.60
 -12  -1   5  110.49    9.40
 -12  -1   5   90.39    8.60
  11   1  -5  174.88    9.10
  11   1  -5  169.18   10.00
 -11  -1   5  157.18   11.20
 -11  -1   5  183.58   11.10
 -11  -1   5  184.78   12.30
  10   1  -5  188.28    9.50
  10   1  -5  193.98   10.20
 -10  -1   5  206.88   11.80
 -10  -1   5  197.38   16.80
 -10  -1   5  192.58   12.20
   9   1  -5   88.69    5.80
   9   1  -5   84.39    7.00
   9   1  -5   80.49    5.80
  -9  -1   5   85.59    6.90
  -9  -1   5   71.19    6.50
   8   1  -5   57.29    5.50
   8   1  -5   63.29    4.70
  -8  -1   5   58.69    5.50
  -8  -1   5   63.89    5.40
   7   1  -5   92.19    5.50
   7   1  -5   75.79    6.10
   7   1  -5   76.69    5.20
  -7  -1   5   79.99    7.20
   6   1  -5  686.43   23.50
   6   1  -5  696.63   24.90
   6   1  -5  714.83   23.70
  -6  -1   5  679.93   23.90
  -6  -1   5  664.23   22.20
  -6  -1   5  691.23   24.90
  -6  -1   5  677.43   24.30
   5   1  -5  649.74   23.00
   5   1  -5  663.83   22.20
  -5  -1   5  632.04   21.10
  -5  -1   5  643.94   23.10
  -5  -1   5  648.94   22.40
  -5  -1   5  644.54   21.10
   4   1  -5  113.09    6.20
   4   1  -5  112.19    5.30
  -4  -1   5  113.99    5.20
  -4  -1   5  114.99    5.90
  -4  -1   5  108.69    6.20
  -4  -1   5  108.59    5.00
   3   1  -5  892.81   28.10
   3   1  -5  839.62   27.20
   3   1  -5  853.61   27.30
  -3  -1   5  875.71   28.50
  -3  -1   5  860.01   27.50
  -3  -1   5  878.71   27.80
   2   1  -5  506.75   17.50
   2   1  -5  493.45   16.80
   2   1  -5  480.75   16.50
  -2  -1   5  496.05   17.30
  -2  -1   5  503.85   16.90
   1   1  -5  474.95   16.10
   1   1  -5  480.05   15.50
   1   1  -5  439.56   14.80
   1   1  -5  460.05   15.20
  -1  -1   5  462.65   15.40
  -1  -1   5  422.06   14.40
  -1  -1   5  448.86   15.70
  -1  -1   5  433.26   15.00
  -1  -1   5  433.36   14.90
   0   1  -5   37.00    2.90
   0   1  -5   35.10    2.50
   0  -1   5   35.70    2.90
   0  -1   5   41.30    3.20
   0  -1   5   35.40    2.50
   0  -1   5   37.90    2.90
   0  -1   5   36.90    2.50
  -1   1  -5   68.49    4.30
  -1   1  -5   73.39    4.30
   1  -1   5   64.59    4.00
   1  -1   5   61.29    3.50
   1  -1   5   65.79    3.80
   1  -1   5   57.49    3.90
  -2   1  -5   83.09    4.30
  -2   1  -5   83.49    5.10
  -2   1  -5   85.19    5.00
   2  -1   5   78.39    4.90
   2  -1   5   80.39    4.60
  -3   1  -5  656.23   24.80
  -3   1  -5  723.03   23.40
  -3   1  -5  728.43   24.60
   3  -1   5  736.73   24.80
   3  -1   5  711.93   23.70
  -4   1  -5    1.10    0.80
  -4   1  -5    0.80    0.90
  -4   1  -5   -0.80    0.50
  -4   1  -5    0.90    0.70
   4  -1   5    1.10    1.10
   4  -1   5   -0.90    0.70
  -5   1  -5    6.80    1.90
  -5   1  -5    9.60    1.90
  -5   1  -5    9.80    1.80
   5  -1   5    6.70    1.70
   5  -1   5    9.00    2.00
  -6   1  -5   53.49    4.40
  -6   1  -5   61.59    5.50
  -6   1  -5   53.29    4.90
   6  -1   5   61.49    5.10
   6  -1   5   53.99    4.70
  -7   1  -5  112.49    8.60
  -7   1  -5  139.79    7.80
  -7   1  -5  119.99    8.20
  -7   1  -5  134.99    7.10
   7  -1   5  117.59   10.60
   7  -1   5  131.29    8.30
  -8   1  -5   79.39    7.10
  -8   1  -5   79.49    7.00
  -8   1  -5   83.69    7.20
  -8   1  -5   94.39    6.60
   8  -1   5   83.49    7.00
   8  -1   5   82.39    7.20
  -9   1  -5   25.10    4.60
  -9   1  -5   35.00    4.90
  -9   1  -5   31.60    4.90
   9  -1   5   34.10    8.40
   9  -1   5   30.20    4.60
  12   0  -5   31.50    5.50
 -12   0   5   46.40    6.60
 -12   0   5   40.90    5.80
 -12   0   5   37.30    6.20
  11   0  -5  235.88   11.30
  11   0  -5  225.08   12.10
 -11   0   5  222.18   14.00
 -11   0   5  205.38   12.50
 -11   0   5  227.68   12.20
  10   0  -5  379.36   16.80
  10   0  -5  393.06   16.80
 -10   0   5  388.06   16.90
 -10   0   5  349.77   17.10
 -10   0   5  402.96   19.40
   9   0  -5   85.29    5.50
   9   0  -5   91.39    7.20
   9   0  -5   82.29    6.40
  -9   0   5   82.89    6.60
  -9   0   5   79.69    4.90
  -9   0   5   81.09    6.60
  -9   0   5   85.19    7.40
   8   0  -5   99.19    7.20
   8   0  -5   92.59    6.10
   8   0  -5   96.39    7.00
  -8   0   5   92.59    6.60
   7   0  -5  447.06   17.50
   7   0  -5  441.86   18.00
   7   0  -5  441.96   16.40
  -7   0   5  414.86   14.90
  -7   0   5  456.55   19.70
  -7   0   5  430.46   16.10
   6   0  -5  534.05   20.00
   6   0  -5  526.45   19.50
   6   0  -5  567.14   18.90
  -6   0   5  514.85   17.00
  -6   0   5  510.35   19.40
  -6   0   5  510.45   18.50
  -6   0   5  513.95   19.90
   5   0  -5   59.49    4.40
   5   0  -5   66.19    4.60
   5   0  -5   72.69    3.80
  -5   0   5   52.79    3.20
  -5   0   5   62.89    4.00
  -5   0   5   63.29    4.40
  -5   0   5   65.39    4.60
   4   0  -5  185.98    6.90
   4   0  -5  177.38    8.20
   4   0  -5  174.28    7.30
  -4   0   5  172.18    7.90
  -4   0   5  176.18    7.80
  -4   0   5  181.48    8.30
   3   0  -5 2411.36   73.19
   3   0  -5 2562.04   74.69
   3   0  -5 2446.46   73.09
   3   0  -5 2462.25   74.39
  -3   0   5 2472.15   74.49
  -3   0   5 2624.04   74.69
  -3   0   5 2458.75   74.19
  -3   0   5 2461.05   73.39
   2   0  -5  945.61   29.10
   2   0  -5  944.21   30.10
   2   0  -5  977.90   29.40
   2   0  -5  983.90   30.40
  -2   0   5  950.70   29.50
  -2   0   5  897.51   30.10
   1   0  -5  164.78    7.20
   1   0  -5  175.58    7.50
  -1   0   5  164.18    6.90
  -1   0   5  166.88    7.30
  -1   0   5  163.98    7.10
   0   0  -5  215.98    8.60
   0   0  -5  202.38    8.40
   0   0  -5  211.18    8.80
   0   0   5  192.68    8.10
   0   0   5  204.38    8.60
  -1   0  -5  763.12   24.70
  -1   0  -5  727.93   23.90
  -1   0  -5  778.12   24.50
   1   0   5  678.13   24.00
   1   0   5  700.53   23.80
  -2   0  -5   41.60    3.10
  -2   0  -5   39.20    3.30
  -2   0  -5   38.80    3.40
   2   0   5   32.70    3.00
   2   0   5   37.00    3.00
   2   0   5   44.30    2.80
  -3   0  -5   44.10    3.80
  -3   0  -5   42.30    3.80
  -3   0  -5   42.30    3.40
   3   0   5   46.50    3.60
   3   0   5   41.50    2.70
   3   0   5   40.60    3.50
  -4   0  -5  134.19    7.80
  -4   0  -5  143.29    7.30
  -4   0  -5  140.79    8.00
   4   0   5  137.29    7.30
   4   0   5  146.69    7.50
  -5   0  -5  181.68   10.10
  -5   0  -5  191.68   10.10
  -5   0  -5  192.68    9.30
   5   0   5  183.38    9.30
   5   0   5  187.98    9.30
  -6   0  -5  201.68   11.30
  -6   0  -5  220.08   10.60
  -6   0  -5  208.98   11.70
   6   0   5  217.38   10.90
   6   0   5  235.08   10.90
  -7   0  -5   54.99    4.90
  -7   0  -5   49.80    5.30
  -7   0  -5   45.20    5.10
   7   0   5   39.60    4.60
   7   0   5   47.00    4.90
  -8   0  -5    0.10    2.20
  -8   0  -5   -0.10    1.60
  -8   0  -5    3.30    2.20
   8   0   5    4.00    2.40
   8   0   5    2.60    1.90
  -9   0  -5   12.80    3.60
  -9   0  -5    9.70    3.80
   9   0   5   15.00    4.30
   9   0   5    7.90    3.00
  12  -1  -5   24.50    4.60
 -12   1   5   28.90    5.90
 -12   1   5   30.50    5.00
  11  -1  -5  174.68   11.00
  11  -1  -5  172.08   12.00
 -11   1   5  160.48    9.30
 -11   1   5  147.29   10.00
 -11   1   5  158.48   12.00
  10  -1  -5  234.48   12.80
  10  -1  -5  217.68   12.50
  10  -1  -5  231.38   10.40
 -10   1   5  228.58   12.70
 -10   1   5  205.38   11.70
   9  -1  -5  253.27   13.20
   9  -1  -5  249.08   12.90
  -9   1   5  254.97   11.80
  -9   1   5  239.58   12.00
  -9   1   5  242.88   14.10
   8  -1  -5  695.13   26.70
   8  -1  -5  722.63   24.50
   8  -1  -5  728.33   26.90
  -8   1   5  699.43   27.00
  -8   1   5  722.83   28.00
  -8   1   5  733.43   25.80
  -8   1   5  695.73   25.20
   7  -1  -5  715.43   26.70
   7  -1  -5  755.82   25.00
   7  -1  -5  741.93   26.80
  -7   1   5  736.93   25.60
  -7   1   5  727.43   25.90
   6  -1  -5  169.18    9.10
   6  -1  -5  174.38    8.90
  -6   1   5  157.28    8.30
  -6   1   5  169.18    8.00
   5  -1  -5  269.97   11.20
   5  -1  -5  281.57   11.80
  -5   1   5  276.17   11.70
  -5   1   5  274.97   10.90
  -5   1   5  288.67   12.40
   4  -1  -5  443.96   16.00
   4  -1  -5  428.06   15.60
  -4   1   5  423.56   16.10
  -4   1   5  415.16   16.20
  -4   1   5  432.96   15.50
  -4   1   5  434.56   14.90
   3  -1  -5  570.04   18.70
   3  -1  -5  538.45   18.90
   3  -1  -5  550.64   17.20
   3  -1  -5  525.65   18.20
  -3   1   5  552.34   19.30
  -3   1   5  508.65   18.90
  -3   1   5  541.25   17.90
  -3   1   5  545.15   18.60
   2  -1  -5  608.64   20.00
   2  -1  -5  568.84   19.50
   2  -1  -5  569.34   20.00
  -2   1   5  620.24   20.30
  -2   1   5  571.24   19.90
  -2   1   5  589.64   18.60
   1  -1  -5  525.05   18.80
   1  -1  -5  584.84   19.00
  -1   1   5  586.54   17.80
  -1   1   5  537.05   18.90
  -1   1   5  521.65   18.60
  -1   1   5  511.05   18.50
   0  -1  -5  786.02   25.40
   0  -1  -5  790.12   24.50
   0  -1  -5  741.13   25.00
   0   1   5  764.12   24.70
   0   1   5  717.83   24.70
   0   1   5  725.13   25.30
   0   1   5  752.72   24.30
  -1  -1  -5  334.87   13.30
  -1  -1  -5  323.77   12.80
  -1  -1  -5  338.67   12.60
   1   1   5  331.77   13.50
   1   1   5  335.87   12.50
   1   1   5  313.07   12.50
  -2  -1  -5  165.78    7.90
  -2  -1  -5  166.38    8.70
  -2  -1  -5  160.78    7.90
   2   1   5  158.38    7.40
   2   1   5  167.18    8.40
   2   1   5  164.08    8.90
  -3  -1  -5   98.49    6.90
  -3  -1  -5  106.59    6.70
  -3  -1  -5   96.99    6.10
   3   1   5   88.19    5.50
   3   1   5   93.49    5.40
  -4  -1  -5   16.50    2.70
  -4  -1  -5   22.40    3.10
   4   1   5   24.10    2.60
   4   1   5   24.90    2.90
  -5  -1  -5   66.29    5.20
  -5  -1  -5   54.89    5.30
  -5  -1  -5   59.89    5.50
   5   1   5   63.79    5.00
  -6  -1  -5  120.99    7.60
  -6  -1  -5  102.89    7.90
  -6  -1  -5  100.29    7.80
   6   1   5  111.29    7.20
  -7  -1  -5   29.60    4.60
  -7  -1  -5   26.30    4.40
  -7  -1  -5   42.00    5.10
   7   1   5   30.70    3.70
   7   1   5   24.10    4.10
  -8  -1  -5    6.40    2.70
  -8  -1  -5   11.50    3.40
  -8  -1  -5    8.60    2.80
   8   1   5   10.00    3.30
   8   1   5    1.70    3.20
  12  -2  -5   -1.70    2.90
  12  -2  -5    1.60    2.70
 -12   2   5    2.10    2.50
  11  -2  -5   73.99    7.10
  11  -2  -5   79.19    7.40
 -11   2   5   79.39    6.20
 -11   2   5   91.69    8.90
 -11   2   5   70.89    6.50
  10  -2  -5  107.19    8.60
 -10   2   5  101.79    7.30
 -10   2   5  103.69    7.00
 -10   2   5  112.89    9.90
 -10   2   5  106.39    6.60
   9  -2  -5  226.58   11.90
   9  -2  -5  199.78    9.90
   9  -2  -5  206.38   12.10
  -9   2   5  218.48   10.00
  -9   2   5  227.88   13.50
  -9   2   5  209.38   10.50
  -9   2   5  227.78   11.70
   8  -2  -5  667.63   25.40
   8  -2  -5  670.13   26.10
   8  -2  -5  687.63   23.30
  -8   2   5  659.53   27.30
  -8   2   5  661.03   24.00
  -8   2   5  685.23   25.30
  -8   2   5  672.93   23.70
   7  -2  -5  366.56   15.60
   7  -2  -5  361.56   16.40
  -7   2   5  373.26   14.10
  -7   2   5  356.36   16.80
   6  -2  -5  203.08   11.00
   6  -2  -5  222.68   10.70
  -6   2   5  211.58   10.60
  -6   2   5  220.68    8.90
  -5   2   5  464.65   17.40
  -5   2   5  450.85   17.80
  -5   2   5  447.26   18.10
   4  -2  -5  706.43   22.80
   4  -2  -5  679.73   23.30
  -4   2   5  662.13   23.90
  -4   2   5  666.43   23.40
  -4   2   5  649.64   23.80
   3  -2  -5   40.40    3.20
   3  -2  -5   39.20    3.00
  -3   2   5   31.60    3.10
  -3   2   5   35.40    3.20
  -3   2   5   35.90    3.40
   2  -2  -5   13.10    1.80
   2  -2  -5   14.20    1.80
  -2   2   5    9.90    2.00
  -2   2   5   10.90    1.70
  -2   2   5    8.60    1.80
   1  -2  -5  348.77   13.80
   1  -2  -5  362.46   13.60
   1  -2  -5  381.56   12.60
  -1   2   5  321.47   12.60
  -1   2   5  363.16   14.00
  -1   2   5  357.46   14.20
  -1   2   5  359.86   13.50
   0  -2  -5  700.93   24.50
   0  -2  -5  740.03   24.60
   0  -2  -5  755.62   24.70
   0   2   5  692.43   24.30
   0   2   5  692.93   25.00
   0   2   5  691.83   23.60
  -1  -2  -5   89.09    5.70
  -1  -2  -5   90.89    5.80
  -1  -2  -5   89.29    5.00
   1   2   5   95.59    6.30
   1   2   5   96.89    6.50
   1   2   5   90.79    5.00
  -2  -2  -5  319.87   14.20
  -2  -2  -5  325.07   13.90
  -2  -2  -5  347.57   13.50
   2   2   5  365.26   15.30
   2   2   5  340.67   12.60
   2   2   5  307.67   17.30
  -3  -2  -5  254.77   11.60
  -3  -2  -5  229.88   11.70
  -3  -2  -5  256.07   11.30
   3   2   5  235.88    9.90
   3   2   5  256.57   11.00
   3   2   5  239.38   12.30
  -4  -2  -5   46.10    4.30
  -4  -2  -5   35.00    4.20
  -4  -2  -5   39.40    4.20
   4   2   5   46.80    4.00
   4   2   5   38.60    3.30
   4   2   5   35.70    4.70
  -5  -2  -5    6.00    1.90
  -5  -2  -5    4.20    1.80
  -5  -2  -5    5.20    1.60
   5   2   5    3.60    1.60
   5   2   5    8.60    1.90
   5   2   5    4.10    1.50
  -6  -2  -5   26.60    4.20
  -6  -2  -5   27.50    4.20
  -6  -2  -5   29.20    4.50
   6   2   5   30.00    4.40
   6   2   5   39.70    3.90
  -7  -2  -5    0.10    2.10
  -7  -2  -5    0.40    1.90
  -7  -2  -5   -1.60    1.90
   7   2   5   -1.80    1.90
   7   2   5    0.30    1.50
  -8  -2  -5   62.09    6.80
  -8  -2  -5   56.19    7.70
  -8  -2  -5   67.19    7.10
   8   2   5   64.79    5.80
  12  -3  -5   18.20    4.50
  12  -3  -5   14.50    3.70
 -12   3   5   22.00    5.80
 -12   3   5    7.50    4.20
 -12   3   5   17.60    4.00
  11  -3  -5    5.20    2.00
  11  -3  -5    1.30    2.60
 -11   3   5    3.80    2.30
 -11   3   5   -1.40    2.30
 -11   3   5    1.30    2.40
  10  -3  -5   12.00    5.10
 -10   3   5    8.50    2.90
 -10   3   5    9.10    3.70
 -10   3   5   11.90    2.20
   9  -3  -5  191.88   11.00
   9  -3  -5  180.88   11.80
   9  -3  -5  199.68   12.30
  -9   3   5  170.68   12.50
  -9   3   5  185.98   10.60
  -9   3   5  197.98    9.40
   8  -3  -5  429.66   19.50
   8  -3  -5  450.35   18.40
  -8   3   5  427.16   18.70
  -8   3   5  461.95   16.20
  -8   3   5  379.86   14.80
  -8   3   5  434.26   20.30
   7  -3  -5  361.56   15.40
   7  -3  -5  354.66   16.70
  -7   3   5  377.86   13.20
  -7   3   5  311.07   12.30
  -7   3   5  379.26   17.70
  -7   3   5  366.46   16.40
   6  -3  -5  710.03   25.50
   6  -3  -5  721.23   27.40
  -6   3   5  710.13   27.40
  -6   3   5  714.73   27.60
   5  -3  -5  721.23   25.70
  -5   3   5  730.13   27.10
  -5   3   5  771.02   28.10
  -5   3   5  743.23   28.60
  -5   3   5  730.93   26.40
   4  -3  -5  724.53   24.20
   4  -3  -5  776.72   27.40
  -4   3   5  719.63   26.00
  -4   3   5  721.73   26.40
  -4   3   5  692.83   28.80
  -4   3   5  771.22   26.80
   3  -3  -5  129.99    6.40
   3  -3  -5  119.89    7.90
  -3   3   5  126.19    7.20
  -3   3   5  131.69    7.50
  -3   3   5  146.29    7.70
   2  -3  -5  228.98   11.60
   2  -3  -5  234.58   10.00
  -2   3   5  238.18   10.50
  -2   3   5  241.28   13.20
  -2   3   5  254.67   10.60
  -2   3   5  230.38   11.10
   1  -3  -5  694.13   27.60
   1  -3  -5  702.93   23.90
  -1   3   5  717.23   23.70
  -1   3   5  671.23   24.90
  -1   3   5  637.54   22.20
  -1   3   5  711.03   23.20
   0  -3  -5  339.97   14.60
   0  -3  -5  359.66   12.90
   0  -3  -5  345.77   14.30
   0   3   5  337.17   14.30
   0   3   5  367.26   13.70
   0   3   5  372.76   15.70
   0   3   5  366.66   12.80
   0   3   5  363.76   15.50
  -1  -3  -5   53.79    3.70
  -1  -3  -5   43.20    4.30
  -1  -3  -5   49.20    4.20
   1   3   5   51.09    3.70
   1   3   5   46.50    4.70
   1   3   5   51.89    4.30
  -2  -3  -5  188.98   10.20
  -2  -3  -5  196.18    9.20
  -2  -3  -5  185.78   10.00
   2   3   5  201.78   10.80
   2   3   5  192.48    8.40
   2   3   5  199.78    9.60
  -3  -3  -5  399.06   16.20
  -3  -3  -5  374.56   17.00
  -3  -3  -5  405.16   17.20
   3   3   5  406.06   16.10
   3   3   5  402.96   14.40
   3   3   5  404.66   17.80
  -4  -3  -5   86.09    6.30
  -4  -3  -5   86.49    6.70
  -4  -3  -5  104.69    7.30
   4   3   5   89.29    5.00
   4   3   5   95.19    6.20
   4   3   5   92.99    7.40
  -5  -3  -5   82.29    7.40
  -5  -3  -5   85.99    6.80
  -5  -3  -5   94.59    7.40
   5   3   5   85.19    4.90
   5   3   5   88.79    7.80
   5   3   5   86.59    6.30
  -6  -3  -5   33.50    4.40
  -6  -3  -5   31.60    4.30
  -6  -3  -5   17.90    4.00
   6   3   5   24.20    4.50
   6   3   5   22.40    3.70
  -7  -3  -5   -1.20    2.30
  -7  -3  -5   -0.70    1.80
   7   3   5   -1.90    1.70
   7   3   5   -2.50    2.40
  12  -4  -5    9.90    3.60
  12  -4  -5   13.10    3.60
 -12   4   5   11.80    4.00
 -12   4   5    4.80    5.10
 -12   4   5   17.90    5.50
  11  -4  -5   -1.70    1.90
  11  -4  -5   -1.70    2.50
 -11   4   5   -1.00    2.20
 -11   4   5   -2.50    3.00
  10  -4  -5   25.80    4.30
  10  -4  -5   21.80    4.50
  10  -4  -5   18.50    3.20
 -10   4   5   25.50    4.50
 -10   4   5   22.40    5.50
 -10   4   5   22.80    3.40
   9  -4  -5   45.40    5.80
   9  -4  -5   38.00    4.70
  -9   4   5   46.80    5.30
  -9   4   5   37.50    6.50
  -9   4   5   36.40    3.60
   8  -4  -5   52.69    6.00
   8  -4  -5   56.29    5.00
  -8   4   5   52.59    5.60
  -8   4   5   39.60    5.80
  -8   4   5   54.49    3.50
   7  -4  -5  143.49    8.30
   7  -4  -5  128.69    9.40
  -7   4   5  137.99   10.00
  -7   4   5  134.89    9.20
   6  -4  -5  510.45   21.40
   6  -4  -5  511.35   19.20
  -6   4   5  508.65   21.00
  -6   4   5  500.55   21.40
  -6   4   5  409.86   16.30
  -6   4   5  494.35   20.10
   5  -4  -5  896.71   31.40
  -5   4   5  905.81   33.30
  -5   4   5  942.41   34.30
  -5   4   5  933.81   33.60
   4  -4  -5  611.44   23.10
  -4   4   5  624.94   24.60
  -4   4   5  686.43   24.80
  -4   4   5  624.64   24.10
   3  -4  -5  556.44   19.40
   3  -4  -5  553.84   22.90
  -3   4   5  548.95   21.00
  -3   4   5  557.54   21.10
  -3   4   5  548.05   21.60
  -3   4   5  562.14   21.90
   2  -4  -5  663.53   24.60
   2  -4  -5  720.93   23.90
  -2   4   5  690.33   24.40
  -2   4   5  705.03   26.00
  -2   4   5  687.83   25.90
  -2   4   5  648.64   24.10
   1  -4  -5  197.08    9.40
   1  -4  -5  193.98    9.80
   1  -4  -5  186.68    7.90
  -1   4   5  197.08   11.40
  -1   4   5  181.38    8.00
  -1   4   5  202.08    9.30
  -1   4   5  205.48   10.60
  -1   4   5  200.78    9.00
   0  -4  -5   25.20    2.20
   0  -4  -5   22.20    2.90
   0  -4  -5   23.40    3.00
   0   4   5   23.10    3.20
   0   4   5   21.90    2.70
   0   4   5   20.50    3.20
  -1  -4  -5   81.39    4.90
  -1  -4  -5   76.19    6.00
  -1  -4  -5   73.79    5.70
   1   4   5   75.39    6.30
   1   4   5   80.09    6.50
   1   4   5   78.09    4.80
   1   4   5   74.19    5.60
  -2  -4  -5  143.89    8.80
  -2  -4  -5  134.79    8.70
   2   4   5  144.99    9.60
   2   4   5  149.39    9.40
   2   4   5  154.88    8.70
   2   4   5  152.08    7.20
  -3  -4  -5   55.99    5.40
  -3  -4  -5   51.99    5.20
  -3  -4  -5   69.89    5.20
   3   4   5   52.29    5.70
   3   4   5   60.09    4.30
   3   4   5   68.59    6.50
   3   4   5   62.79    5.40
  -4  -4  -5   63.29    5.50
  -4  -4  -5   55.69    5.50
  -4  -4  -5   60.89    6.30
   4   4   5   49.40    5.00
   4   4   5   48.90    5.80
   4   4   5   57.69    7.10
  -5  -4  -5   80.39    6.90
  -5  -4  -5   80.49    7.20
  -5  -4  -5   82.99    7.30
   5   4   5   70.49    6.20
   5   4   5   95.89    7.60
   5   4   5   81.19    7.50
  -6  -4  -5   50.29    5.80
  -6  -4  -5   52.09    6.40
  -6  -4  -5   43.00    5.80
   6   4   5   48.70    6.50
   6   4   5   50.89    6.30
   6   4   5   47.70    5.30
  -7  -4  -5    1.90    2.70
  -7  -4  -5    0.80    2.60
   7   4   5    0.60    2.30
   7   4   5    5.20    3.30
  11  -5  -5   45.60    6.10
  11  -5  -5   26.20    5.70
 -11   5   5   39.60    5.70
 -11   5   5   35.30    7.10
  10  -5  -5    9.70    3.40
 -10   5   5    8.70    3.50
 -10   5   5    7.10    3.40
   9  -5  -5   22.80    4.60
   9  -5  -5   21.00    3.90
  -9   5   5   31.90    4.70
  -9   5   5   19.80    4.60
   8  -5  -5    1.80    1.70
   8  -5  -5   -0.60    1.50
  -8   5   5    2.50    2.00
  -8   5   5    0.90    2.30
   7  -5  -5   71.19    7.20
   7  -5  -5   75.69    5.80
  -7   5   5   70.19    7.10
  -7   5   5   71.99    7.40
   6  -5  -5  160.18    8.90
   6  -5  -5  176.28   11.20
  -6   5   5  161.78    9.80
  -6   5   5  161.68   10.80
  -6   5   5  173.78   10.80
  -6   5   5  144.09    7.20
   5  -5  -5  409.76   17.30
  -5   5   5  432.26   19.50
  -5   5   5  434.06   18.80
  -5   5   5  431.06   19.50
   4  -5  -5  410.56   16.90
   4  -5  -5  409.86   15.20
  -4   5   5  420.76   18.60
  -4   5   5  392.06   18.20
  -4   5   5  402.26   18.00
   3  -5  -5  697.63   23.50
   3  -5  -5  667.13   24.80
  -3   5   5  657.23   27.90
  -3   5   5  665.13   26.40
  -3   5   5  686.63   26.40
   2  -5  -5 1167.18   40.20
   2  -5  -5 1223.38   39.30
  -2   5   5 1178.48   41.60
  -2   5   5 1236.18   40.10
  -2   5   5 1195.68   40.00
  -2   5   5 1204.38   42.20
   1  -5  -5  267.47   12.40
   1  -5  -5  279.47   13.20
  -1   5   5  280.27   14.10
  -1   5   5  287.87   12.50
  -1   5   5  297.87   12.60
  -1   5   5  289.17   14.60
  -1   5   5  261.07   10.60
   0  -5  -5   90.59    6.60
   0  -5  -5   79.49    5.90
   0   5   5   83.09    6.60
   0   5   5   83.39    5.50
   0   5   5   76.19    6.80
  -1  -5  -5  173.18   10.30
  -1  -5  -5  174.08    8.70
  -1  -5  -5  172.38   10.00
   1   5   5  189.68   11.50
   1   5   5  191.58    8.80
   1   5   5  185.48   10.70
  -2  -5  -5  113.19    6.70
  -2  -5  -5  121.09    8.40
  -2  -5  -5  106.89    7.90
   2   5   5  105.59    6.20
   2   5   5  120.99    8.50
   2   5   5  115.79    8.60
   2   5   5  106.29    7.60
  -3  -5  -5    5.70    2.10
  -3  -5  -5    6.40    1.90
   3   5   5    4.80    2.30
   3   5   5    7.60    2.60
   3   5   5    4.80    2.70
  -4  -5  -5   57.69    6.00
  -4  -5  -5   72.39    6.10
  -4  -5  -5   60.69    6.30
   4   5   5   78.59    6.80
   4   5   5   59.29    6.50
   4   5   5   62.79    5.90
  -5  -5  -5   84.19    7.70
  -5  -5  -5   92.09    7.40
  -5  -5  -5   91.29    8.00
   5   5   5   94.59    8.60
   5   5   5   82.89    7.80
   5   5   5   84.79    7.40
  -6  -5  -5   53.29    8.10
  -6  -5  -5   66.39    7.40
  -6  -5  -5   72.29    6.70
   6   5   5   61.79    5.90
   6   5   5   61.09    7.60
   6   5   5   71.69    8.70
  11  -6  -5   11.70    4.80
  11  -6  -5   10.90    3.50
 -11   6   5    7.80    4.30
 -11   6   5    6.60    3.20
  10  -6  -5   17.20    4.20
  10  -6  -5   30.30    4.60
 -10   6   5   20.20    5.20
 -10   6   5   15.00    4.70
   9  -6  -5   31.70    4.60
   9  -6  -5   27.90    5.60
  -9   6   5   36.00    6.60
  -9   6   5   33.80    6.30
   8  -6  -5   21.90    4.90
   8  -6  -5   26.30    6.50
  -8   6   5   26.40    5.60
   7  -6  -5   71.19    6.10
   7  -6  -5   68.29    7.40
  -7   6   5   71.09    7.10
  -7   6   5   76.59    7.70
  -7   6   5   73.59    7.50
   6  -6  -5  112.99    7.50
  -6   6   5  108.09    8.50
  -6   6   5  112.59    9.10
  -6   6   5  108.89    9.10
   5  -6  -5   32.50    3.70
   5  -6  -5   34.10    4.00
  -5   6   5   37.80    5.00
  -5   6   5   31.40    5.40
  -5   6   5   36.80    5.00
   4  -6  -5   56.49    4.20
   4  -6  -5   56.29    5.00
  -4   6   5   49.70    5.70
  -4   6   5   60.19    5.90
  -4   6   5   57.49    6.00
   3  -6  -5  532.65   19.60
   3  -6  -5  545.75   21.30
  -3   6   5  498.05   22.50
  -3   6   5  544.95   22.40
  -3   6   5  516.75   22.70
   2  -6  -5  760.42   29.10
   2  -6  -5  782.62   27.90
  -2   6   5  824.52   31.70
  -2   6   5  814.72   28.90
  -2   6   5  803.32   31.00
   1  -6  -5  122.39    8.40
   1  -6  -5  133.99    8.00
  -1   6   5  134.49    9.90
  -1   6   5  121.19    7.30
  -1   6   5  140.09    9.50
   0  -6  -5  451.75   19.10
   0  -6  -5  422.56   16.20
   0  -6  -5  469.75   20.10
   0   6   5  433.96   21.10
   0   6   5  473.35   17.90
   0   6   5  470.35   20.70
  -1  -6  -5  565.94   23.20
  -1  -6  -5  560.64   23.70
  -1  -6  -5  582.24   20.50
   1   6   5  553.54   24.20
   1   6   5  553.94   24.90
   1   6   5  589.94   20.60
  -2  -6  -5   57.29    4.70
  -2  -6  -5   52.29    5.50
  -2  -6  -5   53.09    5.60
   2   6   5   59.59    6.60
   2   6   5   49.60    6.50
  -3  -6  -5    6.00    2.20
  -3  -6  -5   11.50    3.00
  -3  -6  -5    7.50    2.70
   3   6   5   13.00    3.20
   3   6   5    5.60    2.20
   3   6   5    8.90    3.00
  -4  -6  -5   79.69    7.20
  -4  -6  -5   55.99    6.00
  -4  -6  -5   65.89    5.90
   4   6   5   58.79    6.50
   4   6   5   64.49    7.10
   4   6   5   59.29    6.80
  -5  -6  -5   19.90    4.10
  -5  -6  -5   13.20    3.10
   5   6   5   16.00    6.00
   5   6   5   18.50    6.50
   5   6   5   21.80    3.30
  10  -7  -5   30.50    6.20
  10  -7  -5   41.60    5.40
 -10   7   5   45.30    6.40
   9  -7  -5   75.09    7.80
   9  -7  -5   78.49    6.90
  -9   7   5   78.39    9.20
  -9   7   5   80.19    8.50
   8  -7  -5  137.79   11.10
   8  -7  -5  144.59   10.30
  -8   7   5  135.79   11.40
  -8   7   5  145.89   11.60
   7  -7  -5  130.49   10.90
  -7   7   5  112.89    9.50
  -7   7   5  141.99   10.90
  -7   7   5  125.49   11.00
   6  -7  -5   10.40    2.80
   6  -7  -5   12.50    3.70
  -6   7   5   12.60    4.00
  -6   7   5   10.30    3.40
  -6   7   5    9.20    3.50
   5  -7  -5   14.20    2.40
   5  -7  -5   16.40    3.30
  -5   7   5   18.70    4.20
  -5   7   5   13.00    4.10
  -5   7   5   19.00    4.20
   4  -7  -5  160.48    9.70
   4  -7  -5  159.98    8.10
  -4   7   5  155.08   11.00
  -4   7   5  160.08   11.30
  -4   7   5  163.68   10.80
   3  -7  -5  310.07   14.90
   3  -7  -5  303.67   13.30
  -3   7   5  293.27   15.10
  -3   7   5  329.37   17.10
  -3   7   5  303.27   16.50
   2  -7  -5  155.78    9.70
   2  -7  -5  139.29    8.40
  -2   7   5  132.39   10.50
  -2   7   5  141.59    9.00
  -2   7   5  143.29   10.70
   1  -7  -5  376.06   16.90
   1  -7  -5  390.16   18.50
  -1   7   5  393.26   22.60
  -1   7   5  375.76   15.70
  -1   7   5  396.96   19.50
   0  -7  -5  631.24   26.10
   0  -7  -5  622.04   25.10
   0  -7  -5  649.24   21.60
   0   7   5  634.34   28.30
   0   7   5  622.74   27.10
  -1  -7  -5  342.47   17.10
  -1  -7  -5  375.86   14.60
  -1  -7  -5  353.46   17.80
   1   7   5  390.56   18.80
   1   7   5  334.37   18.90
  -2  -7  -5  215.68   13.30
  -2  -7  -5  211.88   10.40
  -2  -7  -5  215.98   12.50
   2   7   5  203.08   13.80
   2   7   5  204.78   13.20
  -3  -7  -5  167.98   11.50
  -3  -7  -5  192.68   10.30
  -3  -7  -5  206.58   12.30
   3   7   5  183.98   13.10
   3   7   5  179.78   13.10
  -4  -7  -5   55.59    7.10
  -4  -7  -5   67.29    6.40
  -4  -7  -5   73.69    9.00
   4   7   5   60.99    7.80
   4   7   5   59.99    8.30
   9  -8  -5    0.70    2.90
  -9   8   5    7.00    3.30
  -9   8   5   -1.50    2.50
   8  -8  -5  107.69    9.90
   8  -8  -5   99.89    8.00
  -8   8   5   93.99   10.10
  -8   8   5  105.39   10.00
   7  -8  -5   27.90    5.40
   7  -8  -5   25.30    4.40
  -7   8   5   13.80    5.40
  -7   8   5   24.20    4.70
  -7   8   5   26.10    5.70
   6  -8  -5   21.70    5.40
   6  -8  -5   31.70    4.60
  -6   8   5   40.80    5.50
  -6   8   5   26.70    5.80
  -6   8   5   32.70    6.00
   5  -8  -5   22.40    4.00
   5  -8  -5   24.20    3.10
  -5   8   5   22.10    4.90
  -5   8   5   26.90    5.60
  -5   8   5   37.30    5.20
   4  -8  -5  123.79    8.60
   4  -8  -5  106.39    6.50
  -4   8   5  105.79    9.00
  -4   8   5  114.89    9.80
  -4   8   5  110.99   10.00
   3  -8  -5   10.30    2.90
   3  -8  -5   10.50    2.40
  -3   8   5    4.30    2.80
  -3   8   5    9.00    3.00
  -3   8   5    2.40    2.80
   2  -8  -5   14.20    2.90
   2  -8  -5   15.30    3.40
  -2   8   5   18.90    3.60
  -2   8   5   17.40    4.30
  -2   8   5    9.90    3.40
   1  -8  -5  401.16   18.80
   1  -8  -5  382.56   17.50
  -1   8   5  379.16   15.90
  -1   8   5  370.66   20.70
  -1   8   5  402.66   20.40
   0  -8  -5  232.48   13.20
   0  -8  -5  243.98   11.30
   0  -8  -5  249.88   14.30
   0   8   5  243.08   15.70
   0   8   5  253.57   15.30
  -1  -8  -5  157.28   11.00
  -1  -8  -5  145.69   10.40
   1   8   5  151.98   11.80
   1   8   5  158.98   12.40
  -2  -8  -5  202.48   13.20
  -2  -8  -5  185.88   12.30
  -2  -8  -5  205.18   10.40
   2   8   5  217.58   14.00
   2   8   5  203.58   14.20
  -3  -8  -5  137.79    8.90
  -3  -8  -5  154.28   11.30
  -3  -8  -5  120.89   10.10
   3   8   5  127.59   11.60
   3   8   5  152.68   12.20
   8  -9  -5   18.10    3.90
  -8   9   5   17.00    5.90
   7  -9  -5   24.80    4.50
   7  -9  -5   28.00    5.90
  -7   9   5   26.30    6.70
  -7   9   5   36.70    5.80
  -7   9   5   24.10    5.40
   6  -9  -5   62.49    6.50
   6  -9  -5   68.39    8.20
  -6   9   5   64.09    7.50
  -6   9   5   70.29    8.30
  -6   9   5   60.09    7.50
   5  -9  -5   81.09    7.20
  -5   9   5   81.29    9.00
  -5   9   5   65.09    8.00
  -5   9   5   81.49    8.50
   4  -9  -5  148.39    9.70
   4  -9  -5  138.39    7.80
  -4   9   5  130.79   10.90
  -4   9   5  149.59   11.80
  -4   9   5  123.39   10.70
   3  -9  -5   37.90    5.10
   3  -9  -5   29.10    4.00
  -3   9   5   21.00    4.70
  -3   9   5   23.50    5.70
  -3   9   5   36.70    6.20
   2  -9  -5   26.70    5.80
   2  -9  -5   34.30    4.60
  -2   9   5   28.20    5.50
  -2   9   5   29.70    6.30
  -2   9   5   28.20    5.00
   1  -9  -5  205.58   11.90
   1  -9  -5  198.98   12.70
  -1   9   5  204.88   14.20
  -1   9   5  209.98   14.70
   0  -9  -5   64.39    6.90
   0  -9  -5   60.59    6.00
   0   9   5   53.29    7.80
   0   9   5   54.59    8.10
  -1  -9  -5   80.89    7.40
   1   9   5   88.59    9.00
   1   9   5   60.99    8.60
   6 -10  -5   52.09    5.90
   6 -10  -5   31.40    6.40
  -6  10   5   34.30    6.80
  -6  10   5   49.90    8.50
  -6  10   5   34.90    7.40
   5 -10  -5  132.09   13.90
  -5  10   5  102.39   13.10
  -5  10   5  117.89   10.80
  -5  10   5  114.89   13.40
   4 -10  -5   20.50    3.60
   4 -10  -5   13.60    3.50
  -4  10   5   20.40    6.10
  -4  10   5   14.90    5.40
   3 -10  -5   61.69    6.80
   3 -10  -5   68.79    6.00
  -3  10   5   83.39    8.10
  -3  10   5   70.49    8.90
  -3  10   5   59.89   12.50
   2 -10  -5  242.38   13.00
  -2  10   5  240.38   16.30
   1  13  -6   15.20    5.20
   1  13  -6   12.80    3.70
   1  13  -6    2.60    3.50
  -1 -13   6   10.80    3.30
  -1 -13   6    7.40    3.10
  -1 -13   6   17.40    3.60
   0  13  -6   82.19    8.00
   0  13  -6   71.49    8.00
   0  13  -6   79.59    7.10
   0 -13   6   78.69    7.60
   0 -13   6   85.59    9.30
   0 -13   6   86.89    7.70
  -1  13  -6   46.20    6.90
  -1  13  -6   37.30    6.20
  -1  13  -6   39.40    6.30
  -1  13  -6   49.00    5.10
  -1  13  -6   36.70    6.40
   1 -13   6   53.19    4.90
   1 -13   6   42.60    5.40
   1 -13   6   47.10    5.80
  -2  13  -6   89.29    7.00
  -2  13  -6   98.69    8.80
  -2  13  -6   83.79    9.70
  -2  13  -6   83.79    8.20
   2 -13   6  117.79    7.40
   2 -13   6   97.09    7.50
   2 -13   6  102.19   10.00
  -3  13  -6  132.29   12.20
  -3  13  -6  145.19    8.90
  -3  13  -6  167.08   11.50
  -3  13  -6  165.48   12.00
   3 -13   6  136.29   10.70
   3 -13   6  186.68   12.80
   3 -13   6  154.58   14.60
  -4  13  -6   72.79    6.20
  -4  13  -6   86.59    8.60
   4 -13   6   72.99    8.00
   4 -13   6   78.59    7.60
   4  12  -6   -3.10    2.70
   4  12  -6    0.00    1.70
  -4 -12   6    1.00    2.20
  -4 -12   6    0.40    3.70
  -4 -12   6   -1.50    2.00
   3  12  -6   99.69    8.40
   3  12  -6   93.59    8.90
   3  12  -6   96.09    8.90
  -3 -12   6  101.69    8.70
  -3 -12   6   97.89    9.00
   2  12  -6    0.80    1.40
   2  12  -6   -0.40    2.60
   2  12  -6    1.10    2.00
  -2 -12   6   -3.20    1.70
  -2 -12   6    1.20    2.00
  -2 -12   6    0.80    2.00
   1  12  -6   11.10    3.10
   1  12  -6   14.80    4.30
   1  12  -6   10.20    2.90
  -1 -12   6    9.70    3.20
  -1 -12   6   17.40    3.00
  -1 -12   6   11.10    3.10
   0  12  -6    9.60    2.60
   0  12  -6    4.90    2.80
   0  12  -6    9.50    3.00
   0  12  -6    5.40    3.10
   0 -12   6    9.20    2.40
   0 -12   6   10.60    3.40
   0 -12   6   17.00    2.80
   0 -12   6   12.50    3.20
  -1  12  -6    0.30    2.40
  -1  12  -6   10.80    2.70
  -1  12  -6    7.30    2.30
  -1  12  -6   10.50    4.30
  -1  12  -6    7.00    3.30
   1 -12   6    2.70    2.30
   1 -12   6    7.70    2.80
   1 -12   6    5.30    2.20
   1 -12   6   10.10    2.80
  -2  12  -6  214.58   14.20
  -2  12  -6  194.68   12.80
  -2  12  -6  188.88   14.70
  -2  12  -6  204.98   12.90
   2 -12   6  208.48   11.10
   2 -12   6  219.58   11.70
   2 -12   6  192.08   12.00
   2 -12   6  226.18   12.70
  -3  12  -6  293.17   15.60
  -3  12  -6  253.77   12.20
  -3  12  -6  249.58   16.70
  -3  12  -6  265.37   15.40
   3 -12   6  267.17   15.00
   3 -12   6  258.47   14.90
   3 -12   6  248.98   13.60
  -4  12  -6   24.30    3.50
  -4  12  -6   24.70    5.40
  -4  12  -6   27.10    5.40
   4 -12   6   29.60    5.50
   4 -12   6   40.60    4.90
   4 -12   6   27.70    4.80
  -5  12  -6  249.78   14.10
  -5  12  -6  228.18   16.50
   5 -12   6  218.88   13.30
  -6  12  -6  246.28   14.20
  -6  12  -6  226.08   16.60
   6 -12   6  240.38   13.90
   6 -12   6  220.98   15.30
   5  11  -6    0.00    4.70
  -5 -11   6    0.40    2.10
  -5 -11   6    0.50    1.80
   4  11  -6   21.40    4.20
   4  11  -6   31.40    5.70
   4  11  -6   31.10    5.20
  -4 -11   6   27.90    5.60
  -4 -11   6   26.00    5.00
   3  11  -6   87.99    8.00
   3  11  -6   98.49    7.70
   3  11  -6   98.39    7.90
  -3 -11   6   89.59    8.40
  -3 -11   6   85.19    8.60
   2  11  -6    4.10    2.50
   2  11  -6    3.80    1.90
   2  11  -6    5.00    2.40
  -2 -11   6    1.70    2.90
  -2 -11   6    0.40    2.00
  -2 -11   6    4.60    1.80
   1  11  -6    4.80    2.40
   1  11  -6    5.20    2.20
   1  11  -6    2.80    2.20
  -1 -11   6    7.50    2.00
  -1 -11   6    1.80    1.60
  -1 -11   6    8.30    2.60
   0  11  -6   50.89    5.60
   0  11  -6   45.40    5.70
   0  11  -6   40.70    6.00
   0  11  -6   44.30    5.80
   0  11  -6   40.70    5.30
   0 -11   6   34.80    5.30
   0 -11   6   44.00    4.30
   0 -11   6   47.50    5.50
   0 -11   6   50.09    3.80
   0 -11   6   43.30    4.70
  -1  11  -6   26.20    7.70
  -1  11  -6   27.00    4.30
  -1  11  -6   30.40    3.90
  -1  11  -6   19.60    3.70
   1 -11   6   28.40    4.20
   1 -11   6   26.70    4.00
   1 -11   6   25.30    4.70
  -2  11  -6   44.60    5.70
  -2  11  -6   37.20    7.00
  -2  11  -6   49.80    6.40
  -2  11  -6   46.80    5.00
   2 -11   6   45.20    5.80
   2 -11   6   44.10    4.70
   2 -11   6   45.30    5.40
  -3  11  -6   77.39    5.90
  -3  11  -6   75.09    7.50
  -3  11  -6   82.49    8.90
  -3  11  -6   91.39    7.60
   3 -11   6   81.89    7.40
   3 -11   6   89.09    8.00
   3 -11   6   88.09    6.20
   3 -11   6   77.39    7.40
  -4  11  -6  104.29    6.00
  -4  11  -6  103.39    8.70
  -4  11  -6   92.89    9.90
   4 -11   6   83.49    8.10
   4 -11   6  106.99    7.90
  -5  11  -6  364.46   18.40
  -5  11  -6  362.06   20.90
   5 -11   6  342.47   18.30
   5 -11   6  351.66   17.50
  -6  11  -6  189.18   15.50
  -6  11  -6  198.58   17.00
   6 -11   6  188.18   11.80
   6 -11   6  173.78   12.70
  -7  11  -6  113.29   16.30
  -7  11  -6  134.99   10.50
   7 -11   6  136.29   16.20
   6  10  -6   17.40    3.70
   6  10  -6   16.20    4.10
  -6 -10   6   17.20    3.90
  -6 -10   6   10.60    3.50
   5  10  -6   10.70    2.50
   5  10  -6    6.80    2.50
   5  10  -6    9.00    2.70
  -5 -10   6    7.20    3.20
  -5 -10   6    8.40    2.40
   4  10  -6   39.80    4.80
   4  10  -6   31.20    4.40
   4  10  -6   32.40    4.50
  -4 -10   6   31.50    5.90
  -4 -10   6   26.00    5.00
   3  10  -6   15.60    3.70
   3  10  -6   14.10    3.20
   3  10  -6   11.70    2.80
  -3 -10   6   15.70    5.20
  -3 -10   6   18.40    3.80
   2  10  -6    2.50    1.80
   2  10  -6    2.10    1.60
  -2 -10   6    0.30    1.40
  -2 -10   6   -0.10    1.00
   1  10  -6   36.60    5.30
   1  10  -6   39.60    4.70
   1  10  -6   46.50    4.90
  -1 -10   6   43.00    5.70
  -1 -10   6   43.50    5.60
   0  10  -6   48.40    4.80
   0  10  -6   40.20    4.60
   0  10  -6   32.80    5.00
   0  10  -6   38.90    5.50
   0  10  -6   45.20    4.50
   0 -10   6   46.00    5.40
   0 -10   6   44.90    5.20
  -1  10  -6   17.50    3.40
  -1  10  -6   21.50    3.30
  -1  10  -6   19.50    4.50
  -1  10  -6   24.30    3.30
  -1  10  -6   20.60    4.20
   1 -10   6   18.10    3.40
   1 -10   6   21.40    3.80
   1 -10   6   14.20    2.90
  -2  10  -6    3.70    2.20
  -2  10  -6    5.20    1.50
  -2  10  -6    4.50    2.50
  -2  10  -6    4.40    1.90
   2 -10   6    6.40    2.10
   2 -10   6    4.70    1.80
   2 -10   6    5.40    2.00
   2 -10   6    4.40    1.50
  -3  10  -6    2.40    2.50
  -3  10  -6    1.90    2.20
   3 -10   6    1.00    2.00
   3 -10   6    0.00    1.40
   3 -10   6    2.70    1.10
  -4  10  -6   63.59    4.50
  -4  10  -6   58.79    7.20
  -4  10  -6   71.79    6.70
   4 -10   6   65.69    6.90
   4 -10   6   55.99    5.20
   4 -10   6   70.39    6.10
  -5  10  -6  158.58    7.10
  -5  10  -6  178.78   13.30
  -5  10  -6  159.08   10.90
   5 -10   6  174.28   11.90
   5 -10   6  179.68   10.70
  -6  10  -6  124.99   11.80
  -6  10  -6  140.99   10.10
   6 -10   6  151.18   10.30
   6 -10   6  148.49   11.20
  -7  10  -6   98.59   10.40
  -7  10  -6  102.19    8.70
   7 -10   6  119.09    9.20
   7 -10   6  112.09    9.90
  -8  10  -6  170.28   11.70
   8 -10   6  160.28   15.00
   7   9  -6   79.29    7.20
   7   9  -6   73.79    7.80
  -7  -9   6   72.09    8.10
  -7  -9   6   69.39    7.80
   6   9  -6  132.59    9.80
   6   9  -6  156.58    9.70
  -6  -9   6  149.19   11.10
  -6  -9   6  151.58   11.80
   5   9  -6  462.95   20.50
   5   9  -6  383.26   18.80
   5   9  -6  423.36   18.20
  -5  -9   6  439.76   21.90
  -5  -9   6  409.96   20.60
   4   9  -6  205.28   17.10
   4   9  -6  192.08   10.60
   4   9  -6  207.68   14.60
  -4  -9   6  201.38   13.90
  -4  -9   6  195.08   12.50
   3   9  -6    4.60    2.20
   3   9  -6    3.20    1.90
   3   9  -6    6.40    1.90
  -3  -9   6    3.90    2.00
  -3  -9   6    4.20    1.90
   2   9  -6   32.70    4.70
   2   9  -6   36.90    4.40
   2   9  -6   40.20    4.20
  -2  -9   6   36.60    5.30
  -2  -9   6   34.50    4.80
  -2  -9   6   41.70    3.20
   1   9  -6   29.30    5.60
   1   9  -6   33.70    4.00
   1   9  -6   40.90    5.00
  -1  -9   6   32.90    4.60
  -1  -9   6   39.70    4.80
  -1  -9   6   32.70    3.30
   0   9  -6   26.00    4.00
   0   9  -6   24.60    4.90
   0   9  -6   22.90    3.10
   0   9  -6   25.70    3.20
   0  -9   6   20.20    4.00
   0  -9   6   20.70    3.40
  -1   9  -6    9.50    3.00
  -1   9  -6    8.50    2.60
  -1   9  -6   12.20    2.30
   1  -9   6   11.20    2.50
   1  -9   6    7.10    2.50
   1  -9   6   15.70    2.10
  -2   9  -6   62.59    6.90
  -2   9  -6   71.59    6.40
  -2   9  -6   73.79    5.20
   2  -9   6   71.29    5.30
   2  -9   6   66.39    5.80
  -3   9  -6   16.40    2.50
  -3   9  -6   20.30    3.90
  -3   9  -6    8.90    3.40
   3  -9   6   15.70    3.90
   3  -9   6   13.50    2.50
  -4   9  -6   72.89    4.50
  -4   9  -6   79.09    8.10
  -4   9  -6   79.99    6.80
   4  -9   6   81.99    6.50
   4  -9   6   88.29    7.40
  -5   9  -6   71.79    8.60
  -5   9  -6   79.49    6.80
   5  -9   6   74.59    6.80
  -6   9  -6   76.49    8.40
  -6   9  -6   66.79    6.70
   6  -9   6   65.79    6.60
   6  -9   6   76.09    7.80
  -7   9  -6   90.89    9.80
  -7   9  -6  106.99    8.30
   7  -9   6   94.49    8.00
  -8   9  -6  221.38   15.70
   8  -9   6  214.58   14.20
   8  -9   6  197.38   12.80
   8   8  -6  176.48   11.30
   8   8  -6  169.18   11.70
  -8  -8   6  166.88   12.50
  -8  -8   6  181.78   13.30
   7   8  -6  153.38   10.50
   7   8  -6  183.58   10.30
  -7  -8   6  181.38   12.60
  -7  -8   6  168.18   12.70
   6   8  -6  397.96   18.70
   6   8  -6  409.16   17.30
   6   8  -6  432.66   19.30
  -6  -8   6  386.76   20.60
  -6  -8   6  398.06   20.10
   5   8  -6  757.12   27.10
   5   8  -6  709.43   29.00
   5   8  -6  765.02   29.00
  -5  -8   6  732.73   31.10
  -5  -8   6  762.72   30.60
   4   8  -6  172.98    9.20
   4   8  -6  185.28   11.00
   4   8  -6  164.98   10.00
  -4  -8   6  162.38   11.50
  -4  -8   6  172.18   11.30
   3   8  -6    6.70    1.90
   3   8  -6    8.20    2.20
   3   8  -6    8.60    2.80
  -3  -8   6    7.30    2.50
  -3  -8   6   10.80    2.90
   2   8  -6   99.89    6.20
   2   8  -6  102.79    7.10
   2   8  -6   92.59    7.50
  -2  -8   6  112.19    8.20
  -2  -8   6  107.39    5.90
   1   8  -6   52.09    4.20
   1   8  -6   54.79    4.70
   1   8  -6   47.20    5.00
  -1  -8   6   59.69    5.40
  -1  -8   6   46.90    4.00
   0   8  -6   32.50    3.30
   0   8  -6   29.70    4.20
   0   8  -6   33.70    4.20
   0   8  -6   27.80    3.30
   0  -8   6   32.90    3.70
   0  -8   6   30.40    4.20
  -1   8  -6    2.30    1.60
  -1   8  -6    3.20    1.40
  -1   8  -6    2.30    1.40
   1  -8   6    3.00    1.00
   1  -8   6    2.50    1.00
   1  -8   6    3.60    1.70
  -2   8  -6    2.50    1.00
  -2   8  -6    0.80    1.50
   2  -8   6    2.00    1.50
  -3   8  -6    0.40    1.80
  -3   8  -6    4.30    1.20
  -3   8  -6    2.00    1.50
   3  -8   6    0.70    1.10
   3  -8   6    2.20    1.90
  -4   8  -6   27.60    5.30
  -4   8  -6   31.50    2.60
  -4   8  -6   33.50    4.20
   4  -8   6   38.20    3.60
   4  -8   6   26.60    5.00
  -5   8  -6    5.30    2.30
  -5   8  -6   10.30    3.00
   5  -8   6    6.40    2.60
   5  -8   6    4.80    2.00
  -6   8  -6    9.70    2.80
   6  -8   6   11.30    3.40
   6  -8   6   10.80    3.10
  -7   8  -6  221.38   15.30
  -7   8  -6  204.68   12.30
   7  -8   6  215.08   12.90
   7  -8   6  233.88   13.70
  -8   8  -6  214.58   15.60
  -8   8  -6  229.08   13.60
   8  -8   6  212.88   13.20
   8  -8   6  243.38   14.80
  -9   8  -6  208.08   12.90
  -9   8  -6  191.18   14.80
   9  -8   6  200.98   13.20
   9  -8   6  193.08   14.20
   9   7  -6    4.70    3.00
   9   7  -6    6.50    2.40
  -9  -7   6    5.90    3.40
   8   7  -6   91.29    7.20
   8   7  -6   88.39    7.60
  -8  -7   6   77.39    8.60
  -8  -7   6   97.39    8.70
   7   7  -6  200.08   11.80
   7   7  -6  208.18   11.00
  -7  -7   6  207.88   13.70
  -7  -7   6  210.98   13.30
   6   7  -6  426.76   18.80
   6   7  -6  403.86   18.60
   6   7  -6  419.96   17.00
  -6  -7   6  424.36   21.00
  -6  -7   6  413.46   20.20
   5   7  -6  523.35   21.90
   5   7  -6  544.65   21.80
   5   7  -6  519.35   19.40
  -5  -7   6  532.95   24.00
  -5  -7   6  507.75   23.00
   4   7  -6  240.38   12.90
   4   7  -6  252.17   10.80
   4   7  -6  255.67   12.80
  -4  -7   6  256.17   13.80
  -4  -7   6  243.88   14.00
   3   7  -6  351.86   15.60
   3   7  -6  355.46   13.60
   3   7  -6  333.57   16.00
  -3  -7   6  343.37   16.70
  -3  -7   6  377.06   13.10
   2   7  -6  295.77   13.60
   2   7  -6  307.87   12.00
   2   7  -6  307.17   14.50
  -2  -7   6  314.87   15.00
  -2  -7   6  306.87   11.90
   1   7  -6   89.49    8.40
   1   7  -6   87.89    6.60
   1   7  -6   83.59    4.90
  -1  -7   6   76.09    4.90
   0   7  -6    1.30    1.50
   0   7  -6    3.50    1.70
   0   7  -6    4.00    1.60
   0  -7   6    2.80    1.10
   0  -7   6    2.90    1.10
  -1   7  -6    0.70    0.80
  -1   7  -6    0.90    1.00
  -1   7  -6   -0.90    1.10
   1  -7   6    0.30    0.80
  -2   7  -6    0.20    1.00
  -2   7  -6    0.10    1.30
  -2   7  -6    1.00    1.40
   2  -7   6   -1.40    0.80
   2  -7   6    0.80    0.80
  -3   7  -6    9.60    1.60
  -3   7  -6   10.00    2.30
  -3   7  -6    9.90    2.90
   3  -7   6    6.10    2.60
   3  -7   6    8.40    2.50
  -4   7  -6    3.90    1.70
  -4   7  -6    2.10    1.40
   4  -7   6    0.60    1.00
   4  -7   6    3.40    1.60
  -5   7  -6    5.00    2.40
  -5   7  -6    2.30    1.90
   5  -7   6    8.30    1.60
   5  -7   6    7.00    2.50
  -6   7  -6   13.20    4.10
  -6   7  -6   17.00    3.30
   6  -7   6   21.40    4.30
   6  -7   6   15.50    3.40
  -7   7  -6   61.09    6.90
   7  -7   6   76.99    7.40
   7  -7   6   81.49    7.00
  -8   7  -6   26.00    5.60
  -8   7  -6   25.10    5.30
   8  -7   6   28.40    5.70
   8  -7   6   29.40    4.50
  -9   7  -6   19.80    4.40
  -9   7  -6   14.60    3.60
  10   6  -6   93.19    9.10
  10   6  -6   94.89    7.70
 -10  -6   6   94.29    9.40
 -10  -6   6  106.39   10.20
   9   6  -6  180.18   11.10
   9   6  -6  183.68   11.30
  -9  -6   6  186.58   13.30
  -9  -6   6  186.18   12.80
   8   6  -6   51.79    8.90
   8   6  -6   56.19    5.30
  -8  -6   6   49.10    6.50
  -8  -6   6   62.59    6.90
   7   6  -6  303.27   14.70
   7   6  -6  327.47   15.30
  -7  -6   6  316.07   17.20
  -7  -6   6  303.47   17.80
   6   6  -6  496.45   20.60
   6   6  -6  495.75   20.70
   6   6  -6  535.05   19.00
  -6  -6   6  480.55   22.20
  -6  -6   6  491.15   22.90
   5   6  -6   57.09    5.30
   5   6  -6   48.30    3.90
   5   6  -6   47.00    4.80
  -5  -6   6   54.29    5.90
  -5  -6   6   46.80    5.30
   4   6  -6  452.85   16.40
   4   6  -6  462.55   19.00
   4   6  -6  491.15   19.70
  -4  -6   6  484.95   15.90
  -4  -6   6  467.55   20.40
   3   6  -6 1630.54   54.09
   3   6  -6 1559.04   52.79
  -3  -6   6 1701.33   50.09
  -3  -6   6 1727.43   55.09
   2   6  -6 1296.87   43.30
   2   6  -6 1279.27   42.30
  -2  -6   6 1290.37   43.90
  -2  -6   6 1316.67   40.50
   1   6  -6  116.29    7.40
   1   6  -6  117.19    6.70
  -1  -6   6  101.79    5.80
   0   6  -6  327.97   14.80
   0   6  -6  337.27   13.30
   0   6  -6  325.77   14.70
   0  -6   6  333.47   11.60
   0  -6   6  303.77   11.30
   0  -6   6  294.97   12.00
   0  -6   6  322.57   13.20
  -1   6  -6  298.07   14.40
  -1   6  -6  311.37   12.30
  -1   6  -6  310.47   13.70
   1  -6   6  301.67   13.20
  -2   6  -6   15.00    2.00
  -2   6  -6   17.10    3.10
   2  -6   6   16.80    2.70
   2  -6   6   14.80    2.10
  -3   6  -6   42.50    3.00
  -3   6  -6   39.70    4.80
   3  -6   6   46.30    4.40
   3  -6   6   36.20    3.40
  -4   6  -6   48.10    3.80
  -4   6  -6   47.00    5.40
  -4   6  -6   47.60    4.60
   4  -6   6   45.10    4.20
   4  -6   6   41.80    4.70
  -5   6  -6    0.90    1.30
  -5   6  -6    0.90    1.80
  -5   6  -6    1.70    1.50
   5  -6   6    0.10    1.30
   5  -6   6   -1.80    1.50
  -6   6  -6   76.79    6.50
  -6   6  -6   60.89    6.80
  -6   6  -6   72.99    5.00
  -6   6  -6   65.99    6.50
   6  -6   6   77.59    7.00
   6  -6   6   74.69    6.40
  -7   6  -6    3.80    2.80
  -7   6  -6    0.00    1.80
  -7   6  -6    3.70    2.80
   7  -6   6    0.30    2.40
   7  -6   6    0.30    1.90
  -8   6  -6    6.20    3.00
  -8   6  -6    6.30    3.10
  -8   6  -6    5.40    3.90
  -8   6  -6   11.90    3.50
   8  -6   6   10.40    2.50
   8  -6   6   17.80    4.50
  -9   6  -6    0.70    2.60
  -9   6  -6   -3.40    3.20
  -9   6  -6    1.00    3.20
   9  -6   6    4.30    3.50
   9  -6   6   -1.80    2.40
  10   5  -6  138.89    9.30
  10   5  -6  129.59   10.70
 -10  -5   6  142.59   11.30
 -10  -5   6  149.88   11.40
   9   5  -6  201.48   12.20
  -9  -5   6  218.08   13.80
  -9  -5   6  215.38   13.80
   8   5  -6   45.90    5.00
   8   5  -6   41.60    5.10
  -8  -5   6   41.40    5.80
  -8  -5   6   42.10    5.50
   7   5  -6  275.17   13.50
   7   5  -6  273.27   12.30
  -7  -5   6  271.77   14.90
  -7  -5   6  268.27   15.30
   6   5  -6   90.09    6.70
   6   5  -6  103.99    5.70
   6   5  -6   91.19    6.60
  -6  -5   6   91.59    7.60
  -6  -5   6   93.99    5.10
  -6  -5   6   97.19    8.00
   5   5  -6   19.90    3.00
   5   5  -6   20.80    3.50
  -5  -5   6   19.30    3.10
   4   5  -6  858.01   29.70
   4   5  -6  766.42   30.80
  -4  -5   6  858.71   31.00
  -4  -5   6  825.82   26.30
   3   5  -6  596.14   25.70
   3   5  -6  646.24   23.00
  -3  -5   6  622.94   24.20
  -3  -5   6  655.53   21.00
  -3  -5   6  641.34   20.90
   2   5  -6  519.35   19.90
   2   5  -6  529.45   20.70
   2   5  -6  539.95   19.20
  -2  -5   6  586.14   21.90
  -2  -5   6  559.44   18.90
   1   5  -6  240.38    9.70
   1   5  -6  251.67   10.80
   1   5  -6  253.47   11.50
  -1  -5   6  246.88   10.30
  -1  -5   6  244.28    8.30
   0   5  -6 1092.49   35.90
   0   5  -6 1042.40   33.80
   0   5  -6 1041.30   35.20
   0  -5   6 1047.50   34.40
   0  -5   6 1041.00   32.90
  -1   5  -6  344.77   13.10
  -1   5  -6  361.26   14.80
  -1   5  -6  343.97   15.20
   1  -5   6  358.56   14.50
  -2   5  -6    6.40    1.70
  -2   5  -6    5.20    1.30
  -2   5  -6   15.20    4.70
   2  -5   6    6.40    1.50
   2  -5   6    6.00    1.70
  -3   5  -6    2.30    1.20
  -3   5  -6    1.30    1.30
  -3   5  -6    3.70    0.80
  -3   5  -6    2.50    1.30
   3  -5   6    5.00    1.60
   3  -5   6    2.80    1.20
  -4   5  -6   77.99    6.60
  -4   5  -6   74.39    5.80
  -4   5  -6   79.19    5.20
   4  -5   6   73.79    5.40
   4  -5   6   71.49    6.20
  -5   5  -6  112.59    8.30
  -5   5  -6  113.99    7.70
  -5   5  -6  105.99    6.40
  -5   5  -6   99.49    7.50
   5  -5   6   99.49    7.70
   5  -5   6  107.39    7.20
  -6   5  -6   13.00    2.90
  -6   5  -6   15.10    2.70
  -6   5  -6   19.60    3.80
   6  -5   6   15.10    2.80
   6  -5   6   12.90    3.40
  -7   5  -6    0.00    2.40
  -7   5  -6    0.60    1.80
   7  -5   6    0.30    1.30
   7  -5   6    0.00    4.00
  -8   5  -6    6.70    3.20
  -8   5  -6    6.50    2.50
   8  -5   6    6.70    2.10
   8  -5   6    3.20    3.00
  -9   5  -6   53.09    6.50
  -9   5  -6   60.69    7.20
  -9   5  -6   59.79    7.30
   9  -5   6   52.59    7.50
   9  -5   6   68.19    7.30
  11   4  -6  107.09    7.60
 -11  -4   6  107.89    9.70
 -11  -4   6   93.69   12.00
 -11  -4   6   86.59    8.40
  10   4  -6  120.89   12.00
 -10  -4   6  123.29    9.90
 -10  -4   6  139.79   10.40
   9   4  -6  195.78   10.90
  -9  -4   6  191.88   12.60
  -9  -4   6  182.28   17.30
   8   4  -6  377.36   17.00
  -8  -4   6  406.26   19.50
  -8  -4   6  391.36   19.00
   7   4  -6  332.47   15.10
  -7  -4   6  344.67   17.20
  -7  -4   6  349.37   17.00
   6   4  -6   74.59    5.50
   6   4  -6   69.89    5.80
   6   4  -6   76.69    5.80
  -6  -4   6   79.29    6.60
  -6  -4   6   70.69    4.70
   5   4  -6  185.78    9.90
   5   4  -6  192.08   10.80
  -5  -4   6  192.08    8.30
  -5  -4   6  192.98   10.80
   4   4  -6  554.54   22.30
   4   4  -6  555.44   20.30
   4   4  -6  519.95   20.30
  -4  -4   6  531.55   22.70
  -4  -4   6  530.95   18.20
   3   4  -6  338.87   13.30
   3   4  -6  321.47   13.80
   3   4  -6  342.97   13.50
  -3  -4   6  297.67   12.00
  -3  -4   6  339.67   14.70
  -3  -4   6  353.56   12.40
   2   4  -6  335.07   13.80
   2   4  -6  330.07   13.20
   2   4  -6  324.97   12.70
  -2  -4   6  350.66   14.90
  -2  -4   6  343.87   12.70
   1   4  -6 1508.75   45.90
   1   4  -6 1487.15   45.00
   1   4  -6 1427.16   46.60
  -1  -4   6 1417.16   44.40
  -1  -4   6 1526.35   45.90
  -1  -4   6 1478.95   43.60
   0   4  -6 1352.96   42.40
   0   4  -6 1311.17   44.00
   0   4  -6 1377.46   41.50
   0   4  -6 1392.06   42.80
   0   4  -6 1384.56   44.10
   0  -4   6 1403.36   43.70
   0  -4   6 1446.96   41.80
   0  -4   6 1380.96   41.70
  -1   4  -6  274.37   11.80
  -1   4  -6  283.87   10.60
  -1   4  -6  255.57   12.10
  -1   4  -6  283.67   11.70
   1  -4   6  290.07   10.70
   1  -4   6  271.37   11.80
   1  -4   6  266.57    9.40
  -2   4  -6  494.15   18.10
  -2   4  -6  471.95   16.00
  -2   4  -6  452.15   18.50
  -2   4  -6  473.95   17.40
   2  -4   6  479.15   18.60
   2  -4   6  445.46   16.80
  -3   4  -6  375.96   14.30
  -3   4  -6  355.76   15.60
  -3   4  -6  352.46   15.00
  -3   4  -6  360.26   15.80
   3  -4   6  360.46   15.50
   3  -4   6  352.16   14.30
  -4   4  -6   32.10    3.80
  -4   4  -6   29.60    6.00
  -4   4  -6   33.80    3.80
  -4   4  -6   39.20    3.60
   4  -4   6   43.20    4.40
   4  -4   6   31.30    3.30
  -5   4  -6   15.20    2.70
  -5   4  -6   21.80    5.50
  -5   4  -6   15.00    3.00
   5  -4   6   19.60    2.60
   5  -4   6   15.80    3.20
  -6   4  -6    1.90    1.90
  -6   4  -6    0.50    1.50
  -6   4  -6    1.60    1.30
   6  -4   6   -2.10    1.10
  -7   4  -6   -1.40    1.50
  -7   4  -6    0.10    1.70
  -7   4  -6    0.70    1.50
   7  -4   6   -2.40    2.20
   7  -4   6    1.10    1.60
  -8   4  -6   57.89    6.60
  -8   4  -6   65.89    6.70
  -8   4  -6   65.39    5.50
   8  -4   6   54.09    6.50
   8  -4   6   71.79    6.60
  -9   4  -6   14.60    3.70
  -9   4  -6   27.90    5.20
  -9   4  -6   21.10    4.40
   9  -4   6   15.50    3.50
   9  -4   6   14.60    3.90
  11   3  -6    0.80    3.10
 -11  -3   6   10.60    3.60
 -11  -3   6    4.90    2.40
 -11  -3   6    9.80    3.20
  10   3  -6    9.60    2.60
 -10  -3   6    3.80    2.60
 -10  -3   6   10.30    3.50
   9   3  -6  145.09    8.80
   9   3  -6  127.39    6.70
  -9  -3   6  144.19   10.40
  -9  -3   6  124.69   13.90
   8   3  -6  587.24   24.00
   8   3  -6  604.94   22.70
   8   3  -6  556.54   19.70
  -8  -3   6  594.64   25.00
  -8  -3   6  580.24   24.40
   7   3  -6  186.78    7.70
   7   3  -6  183.98   10.60
   7   3  -6  181.08    9.50
  -7  -3   6  177.58   10.60
   6   3  -6  378.36   15.10
   6   3  -6  391.36   16.60
  -6  -3   6  372.56   14.80
  -6  -3   6  389.16   17.20
   5   3  -6 1327.17   42.20
   5   3  -6 1332.87   44.90
   5   3  -6 1331.07   43.20
  -5  -3   6 1266.47   41.10
  -5  -3   6 1307.77   44.00
   4   3  -6  350.86   14.10
   4   3  -6  367.76   14.20
   4   3  -6  346.37   14.20
  -4  -3   6  348.07   13.10
  -4  -3   6  357.86   15.20
   3   3  -6   76.59    4.70
   3   3  -6   64.69    4.60
   3   3  -6   69.79    4.60
  -3  -3   6   72.69    4.20
  -3  -3   6   70.99    5.20
   2   3  -6   58.49    4.20
   2   3  -6   58.49    3.80
   2   3  -6   61.99    4.10
   2   3  -6   54.99    3.90
  -2  -3   6   59.19    3.90
  -2  -3   6   60.09    2.80
   1   3  -6 1474.15   43.30
   1   3  -6 1413.76   44.60
   1   3  -6 1464.95   45.20
  -1  -3   6 1368.16   44.20
  -1  -3   6 1378.26   42.70
  -1  -3   6 1407.66   42.30
   0   3  -6  254.77    9.10
   0   3  -6  268.47   11.00
   0   3  -6  265.87   10.70
   0  -3   6  219.28   10.20
   0  -3   6  241.78    9.10
  -1   3  -6  579.04   20.30
  -1   3  -6  599.14   20.70
  -1   3  -6  570.14   18.00
   1  -3   6  536.75   20.30
   1  -3   6  571.44   19.20
  -2   3  -6 1180.58   35.80
  -2   3  -6 1212.78   39.70
  -2   3  -6 1234.38   38.60
  -2   3  -6 1239.18   39.40
   2  -3   6 1202.28   37.90
   2  -3   6 1121.29   39.00
  -3   3  -6  327.57   13.00
  -3   3  -6  308.47   10.60
  -3   3  -6  317.87   13.60
  -3   3  -6  303.27   13.60
   3  -3   6  304.17   13.60
   3  -3   6  324.17   12.90
  -4   3  -6  306.87   12.60
  -4   3  -6  301.37   13.40
  -4   3  -6  278.07   13.40
   4  -3   6  285.57   13.50
   4  -3   6  291.07   12.60
  -5   3  -6    8.90    1.50
  -5   3  -6    9.90    2.30
  -5   3  -6    8.10    2.00
  -5   3  -6    9.30    2.30
  -5   3  -6    5.20    1.40
   5  -3   6    4.90    1.40
   5  -3   6    7.50    2.00
  -6   3  -6    3.10    1.80
  -6   3  -6    1.60    1.10
  -6   3  -6    2.00    1.20
  -6   3  -6    3.80    1.60
   6  -3   6    1.50    1.40
   6  -3   6    2.30    1.90
  -7   3  -6    0.80    1.50
  -7   3  -6    1.20    1.60
  -7   3  -6    0.00    1.60
  -7   3  -6   -0.20    1.40
   7  -3   6    3.40    1.70
   7  -3   6   -1.70    1.90
  -8   3  -6  135.79    9.20
  -8   3  -6  127.89    9.80
  -8   3  -6  140.69    8.70
   8  -3   6  138.39    9.10
   8  -3   6  153.08    9.90
  -9   3  -6   38.50    5.70
  -9   3  -6   49.70    6.10
   9  -3   6   45.90    6.80
   9  -3   6   46.10    5.60
  11   2  -6   -1.00    1.80
  11   2  -6    0.90    2.60
 -11  -2   6   -1.80    2.10
 -11  -2   6    3.10    2.70
 -11  -2   6   -2.20    2.60
  10   2  -6    1.40    1.40
  10   2  -6    9.00    2.60
 -10  -2   6   -1.30    2.10
 -10  -2   6    2.80    1.90
   9   2  -6  124.89    6.90
   9   2  -6  121.49    7.70
   9   2  -6  120.59    8.80
  -9  -2   6  111.79    8.70
  -9  -2   6  126.89    8.90
   8   2  -6  229.18   11.30
   8   2  -6  236.48   10.30
   8   2  -6  241.78   12.90
  -8  -2   6  224.88   12.60
  -8  -2   6  242.28   13.10
   7   2  -6  258.67   12.80
   7   2  -6  255.67   10.70
   7   2  -6  253.67   15.20
  -7  -2   6  250.37   12.80
   6   2  -6  818.72   26.90
   6   2  -6  817.62   29.40
   6   2  -6  828.22   27.30
   6   2  -6  837.92   28.40
  -6  -2   6  811.52   29.60
  -6  -2   6  824.32   28.20
   5   2  -6 1854.31   57.29
   5   2  -6 1817.22   55.29
   5   2  -6 1780.42   55.79
  -5  -2   6 1824.62   57.39
  -5  -2   6 1773.42   55.49
  -5  -2   6 1747.93   53.79
   4   2  -6  518.15   18.20
   4   2  -6  489.95   18.40
   4   2  -6  504.55   17.80
  -4  -2   6  487.45   19.00
  -4  -2   6  500.05   17.70
   3   2  -6  268.47   11.10
   3   2  -6  276.07   11.00
  -3  -2   6  271.77   10.80
  -3  -2   6  281.57   12.10
   2   2  -6  704.13   24.00
   2   2  -6  729.03   22.90
   2   2  -6  672.33   23.00
  -2  -2   6  681.13   22.90
  -2  -2   6  653.33   21.60
   1   2  -6  556.14   19.10
   1   2  -6  518.95   18.30
   1   2  -6  520.55   17.40
   1   2  -6  546.55   17.70
  -1  -2   6  515.45   17.10
  -1  -2   6  532.95   18.40
  -1  -2   6  487.65   17.10
   0   2  -6   22.90    2.50
   0   2  -6   23.70    2.40
   0   2  -6   22.10    2.70
   0  -2   6   22.50    1.80
   0  -2   6   20.70    2.40
   0  -2   6   22.50    2.00
  -1   2  -6  580.14   19.80
  -1   2  -6  557.84   18.90
   1  -2   6  551.44   18.80
   1  -2   6  531.85   19.80
  -2   2  -6  830.82   27.70
  -2   2  -6  770.62   26.20
  -2   2  -6  824.02   27.10
   2  -2   6  790.72   27.40
   2  -2   6  780.42   26.40
  -3   2  -6  355.96   16.10
  -3   2  -6  329.67   13.70
  -3   2  -6  360.76   14.00
   3  -2   6  348.47   16.50
   3  -2   6  337.27   13.80
  -4   2  -6  386.96   15.50
  -4   2  -6  375.06   14.00
  -4   2  -6  420.96   16.00
  -4   2  -6  376.76   16.50
   4  -2   6  375.96   15.50
   4  -2   6  427.86   17.60
  -5   2  -6  171.98    7.80
  -5   2  -6  153.48    9.60
  -5   2  -6  175.58    9.20
  -5   2  -6  176.28    8.90
   5  -2   6  175.68    9.60
   5  -2   6  167.18    9.00
  -6   2  -6   76.79    6.90
  -6   2  -6   89.89    6.30
  -6   2  -6   95.09    5.50
   6  -2   6   84.99    6.30
   6  -2   6   88.29    6.50
  -7   2  -6   11.90    2.90
  -7   2  -6   10.90    2.70
  -7   2  -6   13.90    2.40
   7  -2   6    8.30    3.10
   7  -2   6    7.30    2.40
  -8   2  -6   18.80    3.80
  -8   2  -6   19.10    3.70
  -8   2  -6   18.30    3.30
   8  -2   6   20.40    3.80
  -9   2  -6   -1.10    2.60
  -9   2  -6    1.80    3.00
   9  -2   6   -0.80    3.50
  12   1  -6    1.10    3.30
 -12  -1   6   11.50    3.90
 -12  -1   6    3.40    2.50
 -12  -1   6    5.80    4.00
  11   1  -6    3.00    2.40
  11   1  -6    8.80    2.50
 -11  -1   6    9.20    3.40
 -11  -1   6    9.10    2.60
 -11  -1   6    9.10    2.90
  10   1  -6    0.30    1.90
  10   1  -6    0.20    1.50
  10   1  -6   -0.30    1.50
 -10  -1   6   -1.30    1.80
 -10  -1   6   -1.00    2.10
 -10  -1   6    1.50    1.80
   9   1  -6   25.00    3.40
   9   1  -6   25.10    4.50
   9   1  -6   17.70    3.10
  -9  -1   6   23.90    3.90
  -9  -1   6   21.60    4.00
   8   1  -6    3.90    1.40
   8   1  -6    3.70    1.70
  -8  -1   6    1.70    1.80
   7   1  -6  290.57   12.60
   7   1  -6  301.77   13.90
   7   1  -6  290.37   12.50
   6   1  -6  504.25   19.70
   6   1  -6  523.45   18.90
  -6  -1   6  506.35   19.60
  -6  -1   6  487.95   17.10
  -6  -1   6  484.35   17.40
  -6  -1   6  499.95   21.90
   5   1  -6  423.76   15.50
   5   1  -6  408.96   14.50
  -5  -1   6  406.16   14.70
  -5  -1   6  419.86   15.90
  -5  -1   6  407.46   16.20
  -5  -1   6  387.96   13.90
   4   1  -6  403.36   14.60
   4   1  -6  398.86   15.40
  -4  -1   6  421.66   14.80
  -4  -1   6  407.26   15.10
  -4  -1   6  383.16   13.60
  -4  -1   6  398.46   15.60
   3   1  -6  987.20   32.10
   3   1  -6  973.40   31.30
   3   1  -6  956.80   30.60
   3   1  -6  917.51   29.60
  -3  -1   6  964.00   31.20
  -3  -1   6  998.50   32.10
   2   1  -6  796.32   25.80
   2   1  -6  813.52   26.50
   2   1  -6  786.12   25.30
   2   1  -6  786.92   25.60
  -2  -1   6  749.82   25.00
  -2  -1   6  778.72   25.90
   1   1  -6  300.97   11.20
   1   1  -6  317.77   12.10
  -1  -1   6  290.27   11.70
  -1  -1   6  278.77   10.70
  -1  -1   6  283.27   10.50
   0   1  -6  353.16   12.90
   0   1  -6  377.16   14.00
   0  -1   6  370.76   13.10
   0  -1   6  346.87   12.80
   0  -1   6  339.07   13.50
  -1   1  -6   74.19    4.80
  -1   1  -6   73.99    4.80
  -1   1  -6   79.09    4.30
   1  -1   6   65.19    4.50
   1  -1   6   70.69    4.20
   1  -1   6   72.39    4.60
  -2   1  -6  147.49    7.80
  -2   1  -6  159.58    7.80
  -2   1  -6  144.19    6.70
   2  -1   6  138.59    7.40
  -3   1  -6  222.88   13.10
  -3   1  -6  228.08    9.40
  -3   1  -6  225.18   10.40
   3  -1   6  220.38    9.50
   3  -1   6  230.48   10.10
   3  -1   6  208.28   11.80
  -4   1  -6   88.69    6.10
  -4   1  -6   99.59    6.70
  -4   1  -6   93.59    5.50
   4  -1   6   94.89    6.10
   4  -1   6   92.79    6.30
  -5   1  -6  506.65   20.40
  -5   1  -6  523.95   20.60
  -5   1  -6  491.65   20.90
   5  -1   6  523.75   20.20
   5  -1   6  535.85   20.20
  -6   1  -6  124.59    7.00
  -6   1  -6  130.59    7.70
  -6   1  -6  128.29    8.40
  -6   1  -6  128.39    9.00
   6  -1   6  130.69    8.10
   6  -1   6  148.59    8.60
  -7   1  -6    1.50    1.90
  -7   1  -6    3.10    1.80
  -7   1  -6    5.90    2.30
   7  -1   6    0.70    2.60
   7  -1   6    2.60    2.10
  -8   1  -6   32.30    4.50
  -8   1  -6   25.50    4.70
  -8   1  -6   25.60    4.30
   8  -1   6   30.00    4.50
   8  -1   6   29.80    4.70
  -9   1  -6    1.40    2.40
  -9   1  -6   -2.80    2.30
  -9   1  -6   -4.90    4.10
   9  -1   6    1.70    2.80
   9  -1   6   -0.90    3.50
  12   0  -6   -1.70    2.60
 -12   0   6   -4.50    3.40
 -12   0   6    3.30    3.00
 -12   0   6    3.50    2.70
  11   0  -6    2.90    3.10
  11   0  -6    3.60    2.10
  11   0  -6    1.60    2.40
 -11   0   6    1.60    2.30
 -11   0   6    0.00    2.10
 -11   0   6   -0.90    2.50
  10   0  -6   62.99    6.60
  10   0  -6   57.19    6.10
  10   0  -6   70.39    5.10
 -10   0   6   70.49    5.90
 -10   0   6   59.99    6.00
 -10   0   6   47.60    9.10
   9   0  -6   38.10    3.90
   9   0  -6   46.00    5.30
   9   0  -6   32.30    4.20
  -9   0   6   36.90    4.50
  -9   0   6   38.10    4.80
  -9   0   6   38.00    3.60
   8   0  -6    1.60    1.30
   8   0  -6   -0.90    1.40
  -8   0   6    2.90    1.60
   7   0  -6   18.90    2.70
   7   0  -6   16.30    3.00
   7   0  -6   24.30    3.20
  -7   0   6   15.40    2.30
   6   0  -6  293.67   10.10
   6   0  -6  294.27   12.80
   6   0  -6  293.97   13.20
  -6   0   6  276.17    9.90
  -6   0   6  286.47   12.50
  -6   0   6  297.97   12.10
  -6   0   6  293.27   13.20
   5   0  -6   84.59    7.10
  -5   0   6   83.39    5.10
  -5   0   6   87.89    5.70
  -5   0   6   83.19    5.20
   4   0  -6  681.03   23.00
   4   0  -6  657.53   20.90
   4   0  -6  622.94   22.40
  -4   0   6  627.74   22.10
  -4   0   6  610.04   22.50
  -4   0   6  661.53   22.40
  -4   0   6  652.43   22.70
   3   0  -6 3097.29   94.19
   3   0  -6 2942.41   93.69
   3   0  -6 3236.58   94.69
   3   0  -6 3459.15   95.89
  -3   0   6 3176.48   94.09
  -3   0   6 3077.69   92.99
  -3   0   6 3137.99   94.39
   2   0  -6 2136.79   65.89
   2   0  -6 2270.67   64.89
   2   0  -6 2233.78   66.39
  -2   0   6 2202.88   66.09
  -2   0   6 2136.79   64.69
  -2   0   6 2146.59   65.09
  -2   0   6 2116.79   65.49
   1   0  -6  403.46   14.40
   1   0  -6  356.06   13.70
  -1   0   6  372.06   13.90
  -1   0   6  356.46   13.50
  -1   0   6  360.56   13.40
   0   0  -6  616.94   21.40
   0   0  -6  633.34   21.30
   0   0  -6  599.54   20.70
   0   0   6  631.34   20.80
   0   0   6  599.64   21.10
   0   0   6  588.94   20.90
  -1   0  -6  757.92   25.60
  -1   0  -6  804.22   26.30
  -1   0  -6  791.32   26.60
   1   0   6  754.62   25.30
   1   0   6  734.03   25.50
   1   0   6  780.62   26.00
   1   0   6  796.02   26.60
  -2   0  -6  293.17   15.90
  -2   0  -6  279.07   11.40
  -2   0  -6  290.07   12.30
   2   0   6  261.27   11.40
   2   0   6  260.07   11.30
  -3   0  -6  106.79    6.80
  -3   0  -6  108.59    6.80
  -3   0  -6  107.09    6.20
   3   0   6  101.99    5.10
   3   0   6  110.49    6.30
   3   0   6  110.69    6.30
  -4   0  -6   82.29    6.20
  -4   0  -6   80.89    5.50
  -4   0  -6   80.39    6.10
   4   0   6   83.89    5.70
   4   0   6   81.59    5.50
  -5   0  -6  466.15   19.90
  -5   0  -6  481.65   18.60
  -5   0  -6  450.55   19.50
   5   0   6  481.45   18.80
   5   0   6  467.55   18.40
  -6   0  -6   42.50    4.40
  -6   0  -6   38.40    5.50
  -6   0  -6   40.80    4.90
   6   0   6   41.10    4.30
  -7   0  -6   85.99    7.30
  -7   0  -6   98.89    6.80
  -7   0  -6   84.69    7.80
   7   0   6   82.39    7.00
   7   0   6   89.19    7.10
  -8   0  -6  237.18   14.60
  -8   0  -6  225.18   13.60
  -8   0  -6  283.87   15.70
   8   0   6  268.57   13.60
  12  -1  -6    0.90    2.60
  12  -1  -6    4.80    2.70
 -12   1   6   -2.20    2.60
  11  -1  -6    1.60    2.70
  11  -1  -6   -2.50    1.80
  11  -1  -6    4.40    3.60
 -11   1   6   -2.60    2.30
 -11   1   6    3.70    3.00
  10  -1  -6   64.09    5.00
  10  -1  -6   49.60    9.70
  10  -1  -6   47.10    6.20
 -10   1   6   57.99    6.90
 -10   1   6   56.99    5.60
 -10   1   6   53.49    4.90
 -10   1   6   67.49    5.90
   9  -1  -6    2.90    1.30
   9  -1  -6   -0.50    2.00
   9  -1  -6    3.10    1.40
  -9   1   6    0.10    2.00
  -9   1   6   -0.10    2.60
  -9   1   6    3.30    1.50
  -9   1   6    0.70    1.60
   8  -1  -6   -1.80    0.90
   8  -1  -6    0.00    1.10
  -8   1   6   -0.10    1.00
  -8   1   6   -1.60    1.00
   7  -1  -6    2.30    1.70
   7  -1  -6    6.10    1.80
  -7   1   6    4.50    1.40
  -7   1   6    3.40    1.60
   6  -1  -6   21.10    2.90
   6  -1  -6   25.00    5.40
  -6   1   6   18.10    3.10
  -6   1   6   22.80    2.40
  -6   1   6   22.50    3.00
   5  -1  -6    1.80    0.80
  -5   1   6   -0.40    0.70
  -5   1   6    1.00    0.90
  -5   1   6    1.20    0.80
   4  -1  -6  340.07   13.50
   4  -1  -6  350.86   13.40
  -4   1   6  323.77   13.60
  -4   1   6  325.17   12.70
  -4   1   6  326.87   13.50
  -4   1   6  314.27   12.40
   3  -1  -6  659.03   23.00
   3  -1  -6  679.93   22.90
  -3   1   6  659.63   23.20
  -3   1   6  620.74   21.80
  -3   1   6  653.53   22.00
  -3   1   6  717.13   24.10
  -3   1   6  661.43   22.50
   2  -1  -6  489.95   18.40
   2  -1  -6  533.45   18.50
  -2   1   6  510.05   16.80
  -2   1   6  532.25   18.70
  -2   1   6  508.75   18.30
   1  -1  -6  661.23   21.70
   1  -1  -6  593.44   21.30
  -1   1   6  601.14   21.50
  -1   1   6  601.74   21.30
  -1   1   6  584.34   21.10
  -1   1   6  642.94   20.40
   0  -1  -6 1455.85   46.00
   0  -1  -6 1459.65   46.30
   0  -1  -6 1494.25   45.40
   0   1   6 1458.95   45.90
   0   1   6 1477.65   45.60
   0   1   6 1421.26   46.40
  -1  -1  -6  745.63   26.60
  -1  -1  -6  759.22   26.10
  -1  -1  -6  772.42   25.90
   1   1   6  767.62   25.60
   1   1   6  752.32   25.80
   1   1   6  778.52   26.80
   1   1   6  770.32   24.50
  -2  -1  -6   58.49    4.40
  -2  -1  -6   54.89    5.00
  -2  -1  -6   55.59    4.70
   2   1   6   61.49    4.20
   2   1   6   54.79    4.20
  -3  -1  -6   80.39    6.00
  -3  -1  -6   89.69    5.80
   3   1   6   75.69    4.90
   3   1   6   76.99    5.30
   3   1   6   74.09    6.10
  -4  -1  -6   83.39    6.60
  -4  -1  -6   87.99    6.40
  -4  -1  -6   90.39    6.20
   4   1   6   78.29    5.40
   4   1   6   84.89    5.80
  -5  -1  -6   58.29    5.60
  -5  -1  -6   55.89    5.30
  -5  -1  -6   56.39    5.10
   5   1   6   59.69    4.80
   5   1   6   54.89    4.80
  -6  -1  -6   29.50    4.50
  -6  -1  -6   35.40    4.70
  -6  -1  -6   33.30    4.60
   6   1   6   37.70    4.40
   6   1   6   40.40    4.20
  -7  -1  -6  107.79    8.70
  -7  -1  -6  115.29   12.20
  -7  -1  -6   98.09    8.30
   7   1   6  120.79    8.10
   7   1   6  115.89    7.50
  -8  -1  -6   55.49    6.50
  -8  -1  -6   52.99    6.70
  -8  -1  -6   50.39    7.20
   8   1   6   50.19    5.90
  12  -2  -6   11.30    4.00
  12  -2  -6   15.20    3.90
 -12   2   6    9.30    3.30
 -12   2   6   12.10    4.40
  11  -2  -6   -1.80    2.60
  11  -2  -6    2.50    1.90
  11  -2  -6    4.80    2.90
 -11   2   6   -0.90    2.00
 -11   2   6    3.40    3.00
 -11   2   6    1.60    2.20
  10  -2  -6    4.00    1.70
 -10   2   6    4.40    1.50
 -10   2   6    0.20    1.70
 -10   2   6   -3.80    2.60
 -10   2   6   -0.40    1.90
   9  -2  -6   -1.50    1.50
   9  -2  -6    1.70    2.20
   9  -2  -6   -0.30    1.60
  -9   2   6    3.10    1.60
  -9   2   6    2.60    1.80
  -9   2   6    1.40    1.80
  -9   2   6   -1.50    2.60
   8  -2  -6   27.60    3.90
   8  -2  -6   32.70    4.10
  -8   2   6   35.80    3.90
  -8   2   6   33.70    3.50
  -8   2   6   39.40    5.10
   7  -2  -6   29.80    3.90
   7  -2  -6   33.20    3.90
  -7   2   6   39.20    4.00
  -7   2   6   36.30    4.70
  -7   2   6   34.20    3.20
   6  -2  -6   12.90    2.70
  -6   2   6   11.00    2.50
  -6   2   6   10.00    1.70
  -6   2   6   11.60    2.50
   5  -2  -6   79.59    5.10
  -5   2   6   76.99    4.00
  -5   2   6   76.19    5.90
  -5   2   6   76.59    5.30
   4  -2  -6  301.17   11.90
   4  -2  -6  290.37   12.40
  -4   2   6  280.87   15.50
  -4   2   6  278.47   12.10
  -4   2   6  277.67   12.70
   3  -2  -6   26.40    2.60
  -3   2   6   28.90    3.10
  -3   2   6   18.10    1.90
  -3   2   6   22.60    2.70
  -3   2   6   22.10    3.30
  -3   2   6   24.30    1.70
   2  -2  -6  105.89    8.70
   2  -2  -6  105.49    6.00
  -2   2   6  103.59    6.40
  -2   2   6  115.99    6.40
   1  -2  -6  995.30   31.70
  -1   2   6  940.41   32.10
  -1   2   6  959.10   32.10
  -1   2   6  876.21   29.70
  -1   2   6  977.60   31.40
   0  -2  -6 1195.98   39.20
   0  -2  -6 1260.27   39.60
   0  -2  -6 1274.77   38.10
   0   2   6 1164.28   38.30
   0   2   6 1130.19   43.30
   0   2   6 1192.28   39.20
  -1  -2  -6  421.26   15.70
  -1  -2  -6  412.26   20.80
  -1  -2  -6  392.46   16.50
   1   2   6  411.86   15.30
   1   2   6  426.76   16.30
  -2  -2  -6  391.36   17.10
  -2  -2  -6  439.26   17.30
  -2  -2  -6  426.86   16.50
   2   2   6  419.26   17.70
   2   2   6  412.56   15.50
   2   2   6  420.66   16.50
  -3  -2  -6  619.24   24.70
  -3  -2  -6  673.43   24.10
  -3  -2  -6  665.33   24.50
   3   2   6  630.34   23.30
   3   2   6  640.64   22.20
   3   2   6  657.03   25.50
  -4  -2  -6  280.47   13.50
  -4  -2  -6  286.97   13.70
  -4  -2  -6  271.17   14.00
   4   2   6  297.97   15.20
   4   2   6  282.77   14.70
   4   2   6  277.77   12.80
  -5  -2  -6    3.40    1.90
  -5  -2  -6    3.30    1.70
   5   2   6    1.30    2.30
   5   2   6   -0.30    1.80
   5   2   6    3.90    2.10
  -6  -2  -6   70.19    6.70
  -6  -2  -6   75.99    7.40
  -6  -2  -6   83.69   10.40
   6   2   6   72.39    5.30
   6   2   6   70.29    6.10
   6   2   6   80.39    7.80
  -7  -2  -6   72.39    7.40
  -7  -2  -6   84.19    7.80
  -7  -2  -6  100.49    8.20
   7   2   6   73.89    8.10
   7   2   6   82.39    6.90
  12  -3  -6   32.20    5.20
  12  -3  -6   24.70    4.80
 -12   3   6   15.70    6.10
 -12   3   6   26.40    5.00
 -12   3   6   39.90    6.20
  11  -3  -6    9.10    3.30
  11  -3  -6    9.80    4.20
 -11   3   6   15.00    4.60
 -11   3   6    7.40    3.30
 -11   3   6   11.10    3.20
  10  -3  -6  167.58   11.40
  10  -3  -6  151.48   10.70
  10  -3  -6  159.98    8.30
 -10   3   6  154.08   10.10
 -10   3   6  135.39   11.70
 -10   3   6  152.78    8.30
   9  -3  -6   -0.10    2.10
  -9   3   6   -3.90    2.50
  -9   3   6   -1.90    1.50
  -9   3   6    0.50    1.70
  -9   3   6   -0.10    1.40
   8  -3  -6   76.69    6.10
   8  -3  -6   63.39    6.30
  -8   3   6   66.79    6.00
  -8   3   6   65.29    7.10
   7  -3  -6  134.59    9.40
   7  -3  -6  140.89    8.40
  -7   3   6  130.99    9.70
  -7   3   6  122.29    8.40
   6  -3  -6   10.50    2.50
  -6   3   6   15.80    3.70
  -6   3   6   13.60    3.20
  -6   3   6   10.90    3.00
   5  -3  -6  116.59    7.10
  -5   3   6  113.99    7.60
  -5   3   6  121.99    8.20
  -5   3   6  117.09    7.30
  -5   3   6  111.19    7.80
   4  -3  -6  115.59    7.00
   4  -3  -6  124.09    6.50
  -4   3   6  112.89    7.70
  -4   3   6  103.69    8.10
  -4   3   6  116.19    7.70
  -4   3   6  125.09    7.90
   3  -3  -6    1.40    0.90
   3  -3  -6    0.80    0.80
  -3   3   6    1.40    1.30
  -3   3   6   -0.60    0.80
  -3   3   6    0.50    1.20
   2  -3  -6  211.68   11.10
   2  -3  -6  214.38    9.70
  -2   3   6  217.98   11.50
  -2   3   6  191.08   12.10
   1  -3  -6  467.55   15.80
   1  -3  -6  440.76   17.50
   1  -3  -6  444.86   17.20
  -1   3   6  438.56   16.30
  -1   3   6  428.56   18.10
  -1   3   6  404.66   15.40
  -1   3   6  459.75   17.10
  -1   3   6  476.25   19.10
   0  -3  -6  433.96   15.00
   0  -3  -6  409.46   16.70
   0  -3  -6  386.16   16.30
   0   3   6  398.76   17.50
   0   3   6  411.16   15.70
   0   3   6  403.16   16.60
   0   3   6  404.96   14.60
   0   3   6  388.76   17.50
  -1  -3  -6  348.87   15.20
  -1  -3  -6  360.36   13.80
  -1  -3  -6  327.77   14.90
   1   3   6  352.96   14.90
   1   3   6  329.37   13.50
   1   3   6  355.36   16.00
  -2  -3  -6  590.74   23.00
  -2  -3  -6  535.55   22.70
  -2  -3  -6  590.24   21.60
   2   3   6  606.64   22.40
   2   3   6  612.84   24.20
   2   3   6  602.94   20.90
  -3  -3  -6  740.83   26.10
  -3  -3  -6  707.83   27.00
  -3  -3  -6  654.23   26.90
   3   3   6  712.83   25.90
   3   3   6  700.03   27.80
   3   3   6  727.13   24.10
  -4  -3  -6  491.75   20.20
  -4  -3  -6  499.15   21.00
  -4  -3  -6  447.06   24.80
   4   3   6  516.85   18.10
   4   3   6  471.95   19.30
  -5  -3  -6   41.90    5.20
  -5  -3  -6   46.70    5.30
  -5  -3  -6   48.90    5.40
   5   3   6   35.70    4.50
   5   3   6   47.90    5.20
  -6  -3  -6   83.59    7.80
  -6  -3  -6   84.49    7.60
  -6  -3  -6   71.49    7.10
   6   3   6   83.29    7.60
   6   3   6   89.39    7.10
  -7  -3  -6   55.09    6.80
  -7  -3  -6   41.50    6.60
   7   3   6   40.20    6.50
   7   3   6   46.40    5.30
  11  -4  -6   93.69    9.30
  11  -4  -6   98.99    8.40
 -11   4   6   96.09    8.40
 -11   4   6   94.59    9.70
  10  -4  -6  165.08   10.70
  10  -4  -6  163.08   11.90
  10  -4  -6  144.49    8.20
 -10   4   6  142.09   12.20
 -10   4   6  159.48   10.90
   9  -4  -6    3.70    4.10
   9  -4  -6    1.50    2.00
  -9   4   6    1.40    2.00
  -9   4   6    4.20    1.70
  -9   4   6   -5.20    2.30
   8  -4  -6    0.90    1.90
   8  -4  -6   -1.50    1.40
  -8   4   6   -0.40    2.20
   7  -4  -6    3.00    1.60
   7  -4  -6    1.20    1.40
  -7   4   6    1.00    1.50
   6  -4  -6   33.40    3.80
  -6   4   6   31.50    4.70
  -6   4   6   29.60    4.30
  -6   4   6   35.30    4.20
   5  -4  -6  312.57   13.90
   5  -4  -6  291.37   12.50
  -5   4   6  309.17   15.20
  -5   4   6  305.47   14.40
  -5   4   6  322.27   15.60
  -5   4   6  297.87   14.60
   4  -4  -6   57.59    3.50
   4  -4  -6   61.89    5.00
   4  -4  -6   62.29    4.40
  -4   4   6   67.59    5.60
  -4   4   6   59.39    5.50
  -4   4   6   59.19    5.50
   3  -4  -6   -0.40    0.90
   3  -4  -6    0.80    1.00
  -3   4   6   -0.70    0.90
  -3   4   6    0.20    1.10
  -3   4   6    0.40    1.10
  -3   4   6   -1.20    1.10
   2  -4  -6  234.48   11.20
   2  -4  -6  222.48   10.70
  -2   4   6  224.48   12.00
  -2   4   6  232.28   10.90
  -2   4   6  231.88   12.20
  -2   4   6  235.08   11.20
   1  -4  -6   34.90    3.80
   1  -4  -6   36.80    3.50
  -1   4   6   35.20    4.30
  -1   4   6   35.30    4.50
  -1   4   6   33.20    4.10
  -1   4   6   30.70    3.40
  -1   4   6   31.40    3.20
   0  -4  -6    6.00    1.70
   0  -4  -6    7.90    1.60
   0  -4  -6    7.20    1.90
   0   4   6    8.00    1.90
   0   4   6    8.80    1.50
   0   4   6    4.40    2.00
   0   4   6    4.90    1.70
  -1  -4  -6  257.67   13.20
  -1  -4  -6  268.37   13.50
  -1  -4  -6  297.97   13.70
   1   4   6  285.67   13.50
   1   4   6  291.17   12.20
   1   4   6  264.37   14.30
   1   4   6  288.97   14.70
  -2  -4  -6  566.44   20.70
  -2  -4  -6  520.65   22.30
  -2  -4  -6  569.64   22.80
   2   4   6  557.24   20.00
   2   4   6  524.35   23.10
   2   4   6  536.75   23.50
   2   4   6  566.34   21.90
  -3  -4  -6  286.27   14.70
  -3  -4  -6  259.57   18.10
  -3  -4  -6  302.97   13.40
   3   4   6  281.87   13.50
   3   4   6  258.07   14.70
   3   4   6  285.47   11.90
  -4  -4  -6  125.49    8.30
  -4  -4  -6  120.19    9.10
  -4  -4  -6  119.89    9.00
   4   4   6  107.39    9.00
   4   4   6  122.29    6.90
   4   4   6  131.79    8.40
   4   4   6  135.29    9.70
  -5  -4  -6  232.68   13.20
  -5  -4  -6  202.18   11.80
  -5  -4  -6  204.18   12.90
   5   4   6  191.18   12.50
   5   4   6  218.08   13.40
   5   4   6  212.88   11.80
  -6  -4  -6  163.18   10.50
  -6  -4  -6  173.48   11.20
  -6  -4  -6  148.99   16.00
   6   4   6  157.38    9.70
   6   4   6  125.69   10.90
   6   4   6  163.58   13.40
  11  -5  -6  179.98   11.60
  11  -5  -6  193.68   13.60
 -11   5   6  168.38   19.90
 -11   5   6  171.28   12.10
  10  -5  -6   27.10    5.20
  10  -5  -6   35.20    5.00
 -10   5   6   29.30    5.20
 -10   5   6   46.90    6.40
   9  -5  -6   72.79    7.80
  -9   5   6   72.99    8.70
   8  -5  -6   68.69    8.70
   8  -5  -6   83.99    6.90
  -8   5   6   82.99    7.90
  -8   5   6   64.79    7.70
   7  -5  -6    2.80    2.10
   7  -5  -6    6.30    2.10
  -7   5   6    5.80    2.50
  -7   5   6    7.60    2.60
  -7   5   6    2.10    2.10
   6  -5  -6   43.90    4.40
   6  -5  -6   44.30    4.70
  -6   5   6   37.70    5.80
  -6   5   6   39.30    5.00
  -6   5   6   34.00    5.10
   5  -5  -6    1.00    1.20
   5  -5  -6    2.00    0.90
  -5   5   6   -2.10    1.70
  -5   5   6   -0.50    1.60
  -5   5   6    1.60    1.70
   4  -5  -6    0.20    1.00
  -4   5   6   -0.20    1.40
  -4   5   6    0.70    1.20
  -4   5   6   -1.80    1.60
   3  -5  -6  261.97   12.80
  -3   5   6  273.97   13.30
  -3   5   6  266.27   13.10
  -3   5   6  265.17   14.00
  -3   5   6  268.27   14.20
   2  -5  -6  112.09    7.60
   2  -5  -6  118.89    7.10
  -2   5   6  114.69    8.30
  -2   5   6   98.49    6.90
  -2   5   6  115.49    7.50
  -2   5   6  122.39    8.80
   1  -5  -6   69.69    6.00
   1  -5  -6   70.39    5.40
  -1   5   6   69.99    6.80
  -1   5   6   70.89    6.80
  -1   5   6   73.29    5.10
  -1   5   6   71.19    6.70
  -1   5   6   80.29    6.10
   0  -5  -6   35.70    4.30
   0  -5  -6   28.10    3.50
   0  -5  -6   36.70    3.10
   0   5   6   31.00    5.00
   0   5   6   28.10    4.50
   0   5   6   32.60    3.90
  -1  -5  -6   97.29    6.20
  -1  -5  -6   98.79    7.40
  -1  -5  -6  102.79    7.80
   1   5   6   96.29    8.40
   1   5   6  113.39    7.00
   1   5   6   89.79    8.10
  -2  -5  -6  199.08   13.10
  -2  -5  -6  197.58    9.60
  -2  -5  -6  175.68   11.40
   2   5   6  206.38   12.80
   2   5   6  184.78    9.20
   2   5   6  188.48   11.20
   2   5   6  158.38   11.20
  -3  -5  -6   76.39    6.80
  -3  -5  -6   83.39    6.30
  -3  -5  -6   74.49    7.00
   3   5   6   85.09    7.60
   3   5   6   70.99    6.20
   3   5   6   74.09    7.70
  -4  -5  -6  171.48   10.00
  -4  -5  -6  157.58   11.10
  -4  -5  -6  139.99   10.30
   4   5   6  137.59   10.90
   4   5   6  160.78   10.10
   4   5   6  160.68   11.30
  -5  -5  -6  424.36   19.00
  -5  -5  -6  422.26   20.30
   5   5   6  418.66   25.40
   5   5   6  388.96   18.60
   5   5   6  385.46   19.30
  11  -6  -6   79.49    7.40
  11  -6  -6   73.29    9.50
 -11   6   6   92.59   10.30
 -11   6   6   85.19    8.00
  10  -6  -6   10.10    3.40
  10  -6  -6    8.10    4.10
 -10   6   6   13.10    4.60
   9  -6  -6   80.19    8.70
   9  -6  -6   67.19    6.80
  -9   6   6   79.39    8.80
  -9   6   6   88.79    8.70
   8  -6  -6  118.89   10.30
  -8   6   6  115.59   10.30
  -8   6   6  132.59   10.50
   7  -6  -6  111.39    7.90
   7  -6  -6  107.59    9.80
  -7   6   6  117.59    9.10
  -7   6   6  115.49   11.70
  -7   6   6  110.79   13.30
   6  -6  -6    1.60    1.40
   6  -6  -6   -0.30    1.40
  -6   6   6    1.00    2.20
  -6   6   6   -3.50    1.90
  -6   6   6    2.00    2.50
   5  -6  -6   11.00    2.60
   5  -6  -6    8.10    2.50
  -5   6   6    8.00    2.50
  -5   6   6    8.40    2.60
  -5   6   6   12.50    3.80
   4  -6  -6   14.20    3.10
   4  -6  -6   20.80    3.40
  -4   6   6   14.20    3.70
  -4   6   6   16.00    3.80
  -4   6   6   14.10    3.80
   3  -6  -6  300.17   13.10
   3  -6  -6  307.07   14.60
  -3   6   6  307.27   16.30
  -3   6   6  295.17   14.70
  -3   6   6  300.77   16.10
   2  -6  -6   25.80    3.40
   2  -6  -6   15.90    3.20
  -2   6   6   22.60    3.60
  -2   6   6   30.60    4.30
  -2   6   6   26.20    4.90
  -2   6   6   15.60    4.20
   1  -6  -6  135.69    9.40
   1  -6  -6  151.08    8.90
  -1   6   6  150.68   10.50
  -1   6   6  134.29    7.60
  -1   6   6  157.68    9.00
  -1   6   6  142.19   10.80
   0  -6  -6   36.40    7.30
   0  -6  -6   38.40    4.50
   0  -6  -6   42.80    3.40
   0   6   6   39.50    4.70
   0   6   6   31.70    6.30
  -1  -6  -6  128.49    7.00
  -1  -6  -6  108.39    8.40
  -1  -6  -6  119.59    8.80
   1   6   6  113.79    9.80
   1   6   6  114.39    9.80
  -2  -6  -6   92.69    7.80
  -2  -6  -6  107.19    6.80
  -2  -6  -6  110.29    8.80
   2   6   6  111.49    7.10
   2   6   6  104.39   10.40
   2   6   6  115.09    9.30
  -3  -6  -6    6.30    2.70
  -3  -6  -6   10.30    2.60
   3   6   6    1.20    2.90
   3   6   6    4.20    2.60
  -4  -6  -6  114.19   13.50
  -4  -6  -6  121.99    8.20
  -4  -6  -6  111.49    9.10
   4   6   6  115.29    9.00
   4   6   6   97.49    9.20
  10  -7  -6   12.10    3.60
  10  -7  -6   14.20    4.00
 -10   7   6   17.90    5.10
 -10   7   6    6.30    3.60
   9  -7  -6   55.69    7.50
   9  -7  -6   49.20    6.00
  -9   7   6   50.39    7.20
  -9   7   6   47.30    6.60
   8  -7  -6  111.89    8.40
   8  -7  -6  107.39    9.90
  -8   7   6  100.69    9.80
  -8   7   6   95.49   10.30
   7  -7  -6   61.29    6.20
   7  -7  -6   73.79    7.80
  -7   7   6   60.29    7.70
  -7   7   6   55.09    7.70
  -7   7   6   67.19    7.00
   6  -7  -6   26.30    4.70
   6  -7  -6   28.80    3.10
  -6   7   6   28.20    5.20
  -6   7   6   25.80    5.40
  -6   7   6   45.10    5.90
   5  -7  -6   37.20    4.80
  -5   7   6   24.60    4.90
  -5   7   6   22.90    5.40
  -5   7   6   28.80    5.80
   4  -7  -6    1.80    1.50
  -4   7   6    3.10    2.50
  -4   7   6    1.50    3.10
  -4   7   6   -0.80    2.50
   3  -7  -6   43.10    5.20
   3  -7  -6   38.00    3.90
  -3   7   6   38.60    6.00
  -3   7   6   42.20    5.40
  -3   7   6   32.90    6.10
   2  -7  -6   37.50    4.30
   2  -7  -6   36.80    4.70
  -2   7   6   40.30    5.80
  -2   7   6   39.00    4.60
  -2   7   6   36.70    6.00
   1  -7  -6   61.79    6.40
  -1   7   6   62.49    5.30
  -1   7   6   57.29    7.20
  -1   7   6   46.80    6.80
   0  -7  -6  105.59    8.20
   0  -7  -6  112.69    8.50
   0  -7  -6  128.19    6.50
   0   7   6   99.29    9.40
   0   7   6   94.39    9.60
  -1  -7  -6  147.79   10.50
  -1  -7  -6  133.49    9.60
  -1  -7  -6  147.59    7.90
   1   7   6  135.79   11.10
   1   7   6  155.18   11.20
  -2  -7  -6   13.70    3.50
  -2  -7  -6   15.30    3.10
   2   7   6   11.10    3.30
   2   7   6    6.10    4.10
  -3  -7  -6   28.60    4.80
  -3  -7  -6   32.20    6.50
  -3  -7  -6   31.80    6.10
   3   7   6   26.30    5.00
   3   7   6   30.80    5.00
   9  -8  -6  223.88   15.90
   9  -8  -6  224.98   13.10
   8  -8  -6   41.20    6.20
   8  -8  -6   48.90    5.90
  -8   8   6   55.69    7.60
  -8   8   6   28.90    6.20
   7  -8  -6   23.50    4.40
   7  -8  -6   24.80    5.80
  -7   8   6   34.90    4.90
  -7   8   6   24.70    5.80
  -7   8   6   24.10    5.20
   6  -8  -6  164.08   10.80
  -6   8   6  153.68   12.70
  -6   8   6  165.78   12.20
  -6   8   6  156.88   11.90
   5  -8  -6   35.70    4.80
   5  -8  -6   27.60    3.70
  -5   8   6   49.60    6.60
  -5   8   6   28.60    5.70
  -5   8   6   28.70    5.90
   4  -8  -6    5.50    1.90
   4  -8  -6    5.10    2.70
  -4   8   6    8.50    3.00
  -4   8   6    5.90    3.30
   3  -8  -6   52.69    4.90
   3  -8  -6   42.30    5.30
  -3   8   6   50.69    5.80
  -3   8   6   45.40    7.00
  -3   8   6   45.30    6.80
   2  -8  -6    4.20    2.50
   2  -8  -6   -0.30    2.10
  -2   8   6   -3.30    2.40
  -2   8   6   -1.00    3.10
  -2   8   6    0.90    3.00
   1  -8  -6   13.50    2.90
   1  -8  -6   11.30    2.70
  -1   8   6    6.00    3.00
  -1   8   6   13.20    4.50
   0  -8  -6  206.78   12.70
   0  -8  -6  179.48   11.80
   0   8   6  200.88   14.20
   0   8   6  196.78   14.30
  -1  -8  -6   19.00    6.00
  -1  -8  -6    9.00    3.10
   1   8   6   10.20    4.20
   1   8   6   13.30    4.20
   7  -9  -6   24.10    5.80
   7  -9  -6   20.10    4.30
  -7   9   6   17.10    5.20
  -7   9   6   31.50    7.40
  -7   9   6   16.00    6.10
   6  -9  -6   59.89    7.90
  -6   9   6   70.09    8.40
  -6   9   6   49.90    7.30
  -6   9   6   73.39    9.00
   5  -9  -6   36.60    5.30
   5  -9  -6   36.30    5.60
  -5   9   6   46.20    7.00
  -5   9   6   26.60    6.50
   4  -9  -6   15.90    3.80
   4  -9  -6   15.50    3.10
  -4   9   6   11.40    4.90
  -4   9   6   10.20    5.00
  -4   9   6   18.50    4.40
   3  -9  -6    7.90    2.70
   3  -9  -6    7.60    2.70
  -3   9   6    6.10    3.40
  -3   9   6    6.10    4.70
  -3   9   6   12.00    4.00
   2  -9  -6   -2.90    2.90
   2  -9  -6   -2.00    1.70
  -2   9   6   -1.80    3.30
  -2   9   6   -4.80    3.40
   1  -9  -6   -0.50    2.00
   1  -9  -6    0.60    3.60
  -1   9   6    3.90    3.40
  -1   9   6    1.80    5.10
   2  13  -7  115.19   10.00
   2  13  -7  114.49   10.10
   2  13  -7  130.19    9.70
  -2 -13   7  112.69    9.00
  -2 -13   7  116.29    9.90
  -2 -13   7  115.59   10.20
   1  13  -7   12.00    4.30
   1  13  -7   14.30    3.40
   1  13  -7   15.50    6.50
  -1 -13   7   14.10    3.60
  -1 -13   7   15.40    3.30
  -1 -13   7   15.50    4.20
   0  13  -7   10.40    3.40
   0  13  -7   15.20    4.20
   0 -13   7   17.60    3.70
   0 -13   7   11.00    4.20
  -1  13  -7    7.30    3.60
  -1  13  -7   -0.60    2.90
   1 -13   7   -3.40    2.40
   1 -13   7    2.60    2.20
  -2  13  -7   39.90    5.10
  -2  13  -7   41.10    7.80
  -2  13  -7   41.20    6.30
   2 -13   7   35.50    5.20
   2 -13   7   45.80    5.30
   2 -13   7   52.79    6.60
   2 -13   7   29.40    5.90
  -3  13  -7   43.40    5.40
  -3  13  -7   54.99    6.50
   3 -13   7   57.99    6.60
   3 -13   7   48.40    8.80
   3 -13   7   42.30    6.60
  -4  13  -7   60.99    7.80
  -4  13  -7   56.09    8.00
  -4  13  -7   67.59    9.60
   4 -13   7   54.69    7.00
   4 -13   7   48.10    6.90
   4 -13   7   60.59    6.70
   4  12  -7  246.58   16.80
   4  12  -7  191.28   13.50
   4  12  -7  230.08   13.60
  -4 -12   7  209.48   14.20
  -4 -12   7  199.98   17.10
   3  12  -7  380.16   19.90
   3  12  -7  357.76   18.50
   3  12  -7  420.06   18.80
  -3 -12   7  367.96   19.90
  -3 -12   7  362.36   18.40
   2  12  -7  157.38   11.80
   2  12  -7  166.68   11.10
   2  12  -7  168.18   11.00
  -2 -12   7  165.48   12.10
  -2 -12   7  155.58   10.20
  -2 -12   7  161.48   11.90
   1  12  -7    9.90    2.80
   1  12  -7   12.10    3.20
   1  12  -7   10.50    2.90
  -1 -12   7    8.20    2.70
  -1 -12   7   13.20    3.80
  -1 -12   7    6.90    2.90
   0  12  -7   18.40    3.90
   0  12  -7   15.80    3.70
   0  12  -7   17.40    4.40
   0 -12   7   21.50    4.10
   0 -12   7   24.30    3.80
   0 -12   7   14.30    3.80
  -1  12  -7   49.70    6.10
  -1  12  -7   46.00    6.90
  -1  12  -7   50.59    5.10
   1 -12   7   48.50    5.50
   1 -12   7   31.70    4.90
  -2  12  -7   -3.50    2.40
  -2  12  -7   -0.70    3.70
  -2  12  -7   -2.30    2.30
   2 -12   7    2.90    2.40
   2 -12   7   -1.10    2.20
   2 -12   7    3.70    1.70
  -3  12  -7   14.00    4.10
  -3  12  -7   15.30    4.70
  -3  12  -7   17.40    3.10
   3 -12   7   13.30    3.00
   3 -12   7   16.40    4.10
  -4  12  -7    5.60    3.10
  -4  12  -7    4.40    3.10
  -4  12  -7   10.00    2.50
   4 -12   7   -1.70    2.90
   4 -12   7    0.60    2.00
   4 -12   7    7.20    2.40
  -5  12  -7   19.80    5.70
  -5  12  -7   29.30    5.60
   5 -12   7   33.50    6.20
   5 -12   7   32.80    5.30
  -6  12  -7    3.70    4.00
  -6  12  -7   -2.30    3.70
   6 -12   7    8.60    2.70
   6 -12   7    1.30    3.80
   5  11  -7   63.89    7.10
   5  11  -7   73.09    7.60
   5  11  -7   69.99    7.20
  -5 -11   7   57.19    7.60
  -5 -11   7   59.29    7.50
   4  11  -7  426.86   19.20
   4  11  -7  424.46   21.20
   4  11  -7  416.16   20.30
  -4 -11   7  457.05   22.90
  -4 -11   7  440.96   22.10
   3  11  -7  524.45   23.00
   3  11  -7  520.35   21.30
   3  11  -7  492.95   23.70
  -3 -11   7  520.25   24.90
  -3 -11   7  519.25   24.20
   2  11  -7  240.78   14.70
   2  11  -7  265.07   13.10
   2  11  -7  239.78   13.60
  -2 -11   7  247.18   14.80
  -2 -11   7  249.78   15.20
   1  11  -7  199.98   11.10
   1  11  -7  205.18   11.90
   1  11  -7  209.68   13.20
  -1 -11   7  185.88   12.10
  -1 -11   7  211.08   13.10
  -1 -11   7  202.28   10.80
   0  11  -7  168.98   10.20
   0  11  -7  185.38   11.10
   0  11  -7  185.68   12.10
   0 -11   7  177.88   11.80
   0 -11   7  190.48   10.20
   0 -11   7  171.58    9.30
   0 -11   7  187.38   12.20
  -1  11  -7  122.39    9.60
  -1  11  -7  122.89    8.20
  -1  11  -7  114.39   10.00
   1 -11   7  127.79    8.50
   1 -11   7  126.09    7.30
   1 -11   7  128.09    9.20
   1 -11   7  116.89    9.60
  -2  11  -7    1.00    2.30
  -2  11  -7    0.80    1.50
  -2  11  -7    1.80    2.70
   2 -11   7   -1.60    1.90
   2 -11   7   -0.50    2.40
  -3  11  -7    1.90    2.80
  -3  11  -7    2.80    3.20
  -3  11  -7    4.00    1.80
   3 -11   7    3.70    2.30
   3 -11   7    0.40    2.10
  -4  11  -7   25.10    3.10
  -4  11  -7   21.40    5.70
  -4  11  -7   21.60    4.60
   4 -11   7   23.80    4.00
   4 -11   7   18.60    4.30
  -5  11  -7   13.40    3.30
  -5  11  -7    3.20    3.00
   5 -11   7    8.40    2.90
   5 -11   7    4.50    2.90
  -6  11  -7    5.70    3.40
  -6  11  -7    5.50    3.20
   6 -11   7    5.80    3.20
   6 -11   7    3.90    2.30
  -7  11  -7   -2.30    4.10
  -7  11  -7    4.00    4.00
   7 -11   7    3.20    3.90
   7  10  -7  109.99    9.00
  -7 -10   7  119.29   10.50
   6  10  -7    5.80    3.30
   6  10  -7    7.90    2.80
  -6 -10   7   11.10    3.50
  -6 -10   7   14.50    3.70
   5  10  -7   78.09    7.30
   5  10  -7   85.59    7.80
   5  10  -7   80.29    6.80
  -5 -10   7   71.89    8.30
  -5 -10   7   82.79    8.40
   4  10  -7  248.78   14.80
   4  10  -7  248.68   12.40
   4  10  -7  265.77   14.30
  -4 -10   7  257.97   15.30
  -4 -10   7  269.57   16.20
   3  10  -7  197.18   11.90
   3  10  -7  209.08   10.70
   3  10  -7  190.08   12.40
  -3 -10   7  187.28   15.30
  -3 -10   7  210.78   15.20
   2  10  -7  175.58   11.80
   2  10  -7  227.58   15.40
  -2 -10   7  196.48   12.40
  -2 -10   7  201.28    9.10
  -2 -10   7  201.88   12.50
   1  10  -7  569.04   25.10
   1  10  -7  606.74   24.00
   1  10  -7  555.24   27.00
  -1 -10   7  601.44   23.00
  -1 -10   7  588.64   25.60
  -1 -10   7  609.14   25.80
   0  10  -7  621.14   26.60
   0  10  -7  642.54   26.40
   0  10  -7  651.43   23.60
   0  10  -7  623.64   24.30
   0 -10   7  603.44   25.80
   0 -10   7  581.64   23.90
   0 -10   7  609.04   26.30
   0 -10   7  615.54   23.50
  -1  10  -7  222.68   11.20
  -1  10  -7  222.38   13.10
  -1  10  -7  200.78   13.20
   1 -10   7  218.38   13.60
   1 -10   7  212.38   11.50
  -2  10  -7   57.39    6.90
  -2  10  -7   56.89    6.50
  -2  10  -7   52.79    4.90
   2 -10   7   68.39    5.20
   2 -10   7   65.49    6.20
  -3  10  -7   87.49    8.00
  -3  10  -7   86.39    5.80
  -3  10  -7   79.79    8.20
   3 -10   7  103.29    7.40
   3 -10   7   88.19    6.60
  -4  10  -7    3.60    2.10
  -4  10  -7    3.10    1.50
  -4  10  -7    4.60    2.60
   4 -10   7    0.10    1.60
   4 -10   7    0.80    2.30
  -5  10  -7   14.20    3.70
  -5  10  -7   12.80    3.90
   5 -10   7   14.40    3.40
   5 -10   7   16.50    4.60
  -6  10  -7    3.00    3.20
  -6  10  -7    5.00    2.90
   6 -10   7    7.30    3.00
   6 -10   7    0.70    2.00
  -7  10  -7    9.20    3.40
  -7  10  -7    3.70    3.00
   7 -10   7    3.80    2.70
   7 -10   7   14.80    4.00
   8   9  -7  260.27   20.40
  -8  -9   7  254.47   16.50
  -8  -9   7  252.87   16.50
   7   9  -7   82.29    7.50
   7   9  -7   91.19    7.60
  -7  -9   7   95.39    9.10
  -7  -9   7   92.89    9.30
   6   9  -7   95.99    8.50
   6   9  -7  101.99    7.50
   6   9  -7   97.39    8.20
  -6  -9   7  102.49    9.30
  -6  -9   7   86.79    9.10
   5   9  -7  325.77   16.30
   5   9  -7  337.67   16.80
  -5  -9   7  282.87   16.80
  -5  -9   7  321.57   18.20
   4   9  -7  182.98   13.40
  -4  -9   7  169.18   11.80
  -4  -9   7  175.28   13.60
   3   9  -7   50.69    5.70
   3   9  -7   55.99    4.40
   3   9  -7   51.59    5.40
  -3  -9   7   43.90    5.80
  -3  -9   7   48.60    3.50
  -3  -9   7   46.90    5.70
   2   9  -7  230.28   12.20
   2   9  -7  220.58   10.40
   2   9  -7  218.48   12.90
  -2  -9   7  217.48   13.20
  -2  -9   7  235.28   10.10
   1   9  -7  694.03   26.50
   1   9  -7  756.62   28.60
   1   9  -7  605.14   24.10
  -1  -9   7  740.63   25.20
  -1  -9   7  709.63   28.50
   0   9  -7  654.53   24.50
   0   9  -7  635.94   26.20
   0   9  -7  629.54   26.50
   0  -9   7  649.14   27.00
   0  -9   7  645.74   24.00
  -1   9  -7  336.97   17.40
  -1   9  -7  362.36   17.20
  -1   9  -7  359.06   15.10
   1  -9   7  304.57   13.40
   1  -9   7  353.96   13.70
   1  -9   7  350.26   15.60
  -2   9  -7  529.35   19.70
  -2   9  -7  501.65   22.20
  -2   9  -7  496.45   23.20
   2  -9   7  527.55   21.60
  -3   9  -7  297.67   15.20
  -3   9  -7  298.57   16.80
  -3   9  -7  297.07   12.40
   3  -9   7  295.87   15.20
  -4   9  -7   10.90    1.90
  -4   9  -7   10.20    3.00
  -4   9  -7   11.90    4.00
   4  -9   7    7.70    2.40
   4  -9   7   13.10    3.80
  -5   9  -7   -1.10    2.40
  -5   9  -7   -2.70    1.60
   5  -9   7    0.80    1.80
   5  -9   7    1.20    2.50
  -6   9  -7    8.80    3.30
  -6   9  -7    3.80    3.20
   6  -9   7    0.30    1.70
   6  -9   7    3.90    2.90
  -7   9  -7   -1.00    2.80
  -7   9  -7   -2.10    2.40
   7  -9   7    4.20    2.60
   7  -9   7    1.20    2.10
  -8   9  -7   39.20    7.30
  -8   9  -7   40.30    6.50
   8  -9   7   29.00    6.70
   8  -9   7   34.90    7.10
   8   8  -7  129.89    9.60
   8   8  -7  136.39    9.20
  -8  -8   7  140.79   11.80
  -8  -8   7  119.69   10.40
   7   8  -7   49.70    5.30
   7   8  -7   41.50    5.40
  -7  -8   7   51.79    6.70
  -7  -8   7   46.50    6.70
   6   8  -7  312.57   15.90
   6   8  -7  310.97   16.00
   6   8  -7  300.57   13.50
  -6  -8   7  310.47   18.00
  -6  -8   7  320.57   17.50
   5   8  -7  241.98   13.10
   5   8  -7  236.98   13.50
  -5  -8   7  244.98   14.50
  -5  -8   7  251.67   15.20
   4   8  -7   40.50    4.70
   4   8  -7   45.20    5.30
  -4  -8   7   39.20    5.60
  -4  -8   7   34.30    4.90
  -4  -8   7   37.20    2.70
   3   8  -7    0.60    1.80
   3   8  -7    1.50    1.40
  -3  -8   7    2.60    1.60
   2   8  -7  428.06   18.60
   2   8  -7  476.75   20.20
  -2  -8   7  443.06   20.30
  -2  -8   7  449.56   16.70
   1   8  -7  425.56   19.50
   1   8  -7  426.76   16.20
   1   8  -7  464.95   18.60
  -1  -8   7  449.56   18.60
  -1  -8   7  460.15   20.40
   0   8  -7  131.19    7.80
   0   8  -7  136.39    9.30
   0   8  -7  116.69    8.60
   0  -8   7  125.69    9.30
   0  -8   7  131.59    8.00
  -1   8  -7  279.27   14.80
  -1   8  -7  272.37   13.20
  -1   8  -7  276.67   14.10
   1  -8   7  279.17   10.50
   1  -8   7  272.17   13.00
   1  -8   7  267.37   11.20
  -2   8  -7  529.45   22.00
  -2   8  -7  535.15   23.30
   2  -8   7  521.55   21.40
   2  -8   7  521.25   19.60
  -3   8  -7  424.66   15.70
  -3   8  -7  408.76   20.10
  -3   8  -7  415.86   18.70
   3  -8   7  422.66   17.10
   3  -8   7  411.36   18.80
  -4   8  -7  112.69    8.20
  -4   8  -7  116.59    9.70
  -4   8  -7  122.89    5.90
   4  -8   7  129.49    8.10
   4  -8   7  111.49    8.90
  -5   8  -7  112.59    9.70
  -5   8  -7  120.49    8.70
   5  -8   7  103.89    7.50
   5  -8   7  115.79   12.00
  -6   8  -7   77.89    7.30
  -6   8  -7   72.19    8.10
   6  -8   7   82.99    7.40
   6  -8   7   65.49    6.30
  -7   8  -7   33.50    6.60
   7  -8   7   37.80    5.60
   7  -8   7   21.50    3.90
  -8   8  -7   75.59    8.50
  -8   8  -7   80.29    7.90
   8  -8   7   62.09    6.90
   8  -8   7   80.99    8.10
   9   7  -7   56.09    6.80
   9   7  -7   64.69    6.10
  -9  -7   7   68.19    7.40
  -9  -7   7   69.69   11.10
   8   7  -7    0.00    2.00
   8   7  -7    2.10    1.90
  -8  -7   7   -1.00    2.30
  -8  -7   7   -2.60    1.70
   7   7  -7  131.29    9.20
   7   7  -7  124.59    7.70
  -7  -7   7  118.09   10.30
  -7  -7   7  124.89    9.80
   6   7  -7  422.66   19.40
   6   7  -7  452.55   19.80
  -6  -7   7  450.15   21.30
  -6  -7   7  426.36   21.60
   5   7  -7  201.88   11.50
   5   7  -7  186.38   10.80
  -5  -7   7  178.48   12.30
  -5  -7   7  189.38   12.10
   4   7  -7  458.55   19.20
   4   7  -7  435.66   19.50
  -4  -7   7  447.86   15.80
  -4  -7   7  454.05   20.60
   3   7  -7  665.03   26.40
   3   7  -7  705.13   25.90
  -3  -7   7  689.63   22.80
  -3  -7   7  672.83   27.30
   2   7  -7  627.24   23.40
   2   7  -7  601.04   24.30
  -2  -7   7  606.14   21.50
  -2  -7   7  630.54   25.10
   1   7  -7   17.30    3.00
   1   7  -7   17.50    3.70
  -1  -7   7   16.90    2.40
  -1  -7   7   14.80    3.40
   0   7  -7  139.49    9.10
   0   7  -7  124.89    8.50
   0   7  -7  135.79    7.70
   0  -7   7  133.79    7.40
   0  -7   7  146.79    7.80
  -1   7  -7  508.65   19.00
  -1   7  -7  502.75   21.00
  -1   7  -7  523.15   21.80
   1  -7   7  511.35   20.70
   1  -7   7  513.55   20.30
  -2   7  -7  413.56   19.10
  -2   7  -7  411.46   18.00
  -2   7  -7  431.86   15.90
   2  -7   7  411.16   17.80
  -3   7  -7  719.73   29.00
  -3   7  -7  706.73   27.40
  -3   7  -7  716.13   24.00
   3  -7   7  733.73   25.90
   3  -7   7  710.13   27.60
  -4   7  -7  487.15   22.50
  -4   7  -7  475.05   16.60
  -4   7  -7  490.05   20.90
   4  -7   7  503.25   19.80
   4  -7   7  506.55   21.70
  -5   7  -7  303.67   17.00
  -5   7  -7  338.17   16.00
   5  -7   7  318.67   16.50
   5  -7   7  316.27   15.00
  -6   7  -7  131.89    9.30
  -6   7  -7  118.69    7.50
  -6   7  -7  109.39    9.60
   6  -7   7  130.39   10.00
   6  -7   7  123.09    9.30
  -7   7  -7   28.50    6.10
  -7   7  -7   24.10    3.80
  -7   7  -7   21.00    4.70
   7  -7   7   21.40    4.50
   7  -7   7   17.90    3.80
  -8   7  -7   36.40    5.80
  -8   7  -7   27.10    6.00
   8  -7   7   36.20    5.10
   8  -7   7   38.60    5.70
  10   6  -7    1.30    2.00
  10   6  -7    4.40    3.40
 -10  -6   7    5.30    2.30
 -10  -6   7    7.20    2.90
   9   6  -7    8.80    2.40
   9   6  -7    3.70    2.60
  -9  -6   7    4.20    3.10
  -9  -6   7    5.10    2.60
   8   6  -7    5.90    2.40
   8   6  -7    9.20    2.10
  -8  -6   7    4.50    2.70
  -8  -6   7    2.70    2.30
   7   6  -7   52.89    5.60
   7   6  -7   52.89    5.40
  -7  -6   7   53.19    6.60
  -7  -6   7   59.99    6.70
   6   6  -7  196.48   11.10
   6   6  -7  207.58   11.40
  -6  -6   7  209.58   13.20
  -6  -6   7  198.78    8.60
  -6  -6   7  200.58   12.40
   5   6  -7  266.77   13.20
   5   6  -7  255.67   12.90
  -5  -6   7  268.97   14.30
  -5  -6   7  256.47   10.30
   4   6  -7  447.46   18.70
   4   6  -7  474.25   19.40
  -4  -6   7  441.66   20.10
  -4  -6   7  452.45   15.90
   3   6  -7 1256.67   42.00
   3   6  -7 1222.78   41.00
  -3  -6   7 1174.08   42.40
  -3  -6   7 1252.27   38.60
   2   6  -7  504.35   21.90
   2   6  -7  416.46   20.70
  -2  -6   7  473.45   17.30
  -2  -6   7  494.35   21.50
   1   6  -7  112.29    6.40
   1   6  -7  145.39   11.80
   1   6  -7  138.79    7.90
  -1  -6   7  148.59    7.50
   0   6  -7  242.08   16.00
   0   6  -7  225.98   10.40
   0  -6   7  223.88    9.30
  -1   6  -7  402.36   15.10
  -1   6  -7  337.87   16.60
  -1   6  -7  390.86   17.60
   1  -6   7  402.66   16.40
   1  -6   7  409.66   14.60
  -2   6  -7  316.87   14.70
  -2   6  -7  307.47   12.30
  -2   6  -7  312.97   15.40
   2  -6   7  340.97   13.50
   2  -6   7  317.37   14.60
  -3   6  -7   25.10    2.50
  -3   6  -7   29.70    3.20
  -3   6  -7   28.80    4.10
  -3   6  -7   21.90    3.20
   3  -6   7   22.40    3.30
   3  -6   7   25.80    3.10
  -4   6  -7  475.85   18.70
  -4   6  -7  506.05   20.30
  -4   6  -7  483.55   21.50
   4  -6   7  473.25   19.10
   4  -6   7  455.45   20.30
  -5   6  -7  548.65   22.60
  -5   6  -7  577.04   23.50
  -5   6  -7  599.34   25.20
   5  -6   7  583.84   24.30
   5  -6   7  577.24   22.70
  -6   6  -7  129.29    9.10
  -6   6  -7  106.79    9.20
  -6   6  -7  121.79    7.50
   6  -6   7  116.09    9.00
  -7   6  -7  145.39   11.60
  -7   6  -7  110.19    9.30
  -7   6  -7  112.19   10.70
  -7   6  -7  133.59   10.50
   7  -6   7  126.39    9.80
   7  -6   7  121.69    8.90
  -8   6  -7   84.89    8.60
  -8   6  -7   71.19    6.80
  -8   6  -7   75.29    8.10
  -8   6  -7   70.39    7.60
   8  -6   7   82.39    7.30
   8  -6   7   90.39    8.10
  -9   6  -7    0.30    3.50
  -9   6  -7   -1.40    3.30
  -9   6  -7    0.20    3.90
   9  -6   7   11.50    5.70
  10   5  -7    3.80    2.60
  10   5  -7    4.70    3.40
 -10  -5   7   -0.20    2.10
 -10  -5   7    4.00    2.20
   9   5  -7   93.89    7.50
   9   5  -7   82.89    7.30
  -9  -5   7   81.69    7.90
  -9  -5   7   93.19    8.60
   8   5  -7   14.20    3.10
   8   5  -7   16.10    2.90
  -8  -5   7   16.10    3.90
  -8  -5   7   19.50    4.50
   7   5  -7   11.30    3.10
   7   5  -7   13.40    2.80
  -7  -5   7    9.10    2.80
  -7  -5   7   10.60    3.40
   6   5  -7   16.20    3.30
   6   5  -7   17.60    3.40
  -6  -5   7   13.90    2.00
  -6  -5   7   16.90    3.70
   5   5  -7  130.89    8.00
   5   5  -7  132.69    8.10
   5   5  -7  125.39    7.90
  -5  -5   7  123.59    8.80
  -5  -5   7  120.69    6.20
   4   5  -7  279.07   12.90
   4   5  -7  302.97   13.30
   4   5  -7  293.07   13.50
  -4  -5   7  302.87   11.40
  -4  -5   7  271.97   14.10
   3   5  -7  693.53   25.60
   3   5  -7  748.93   25.40
   3   5  -7  730.43   26.50
  -3  -5   7  730.93   24.10
  -3  -5   7  709.63   27.20
   2   5  -7  257.87   10.80
  -2  -5   7  258.37   10.90
  -2  -5   7  269.17   13.30
   1   5  -7  753.72   25.00
   1   5  -7  754.12   24.40
   1   5  -7  773.32   26.20
  -1  -5   7  776.22   23.80
  -1  -5   7  774.92   26.20
   0   5  -7  510.05   20.80
   0   5  -7  473.35   17.40
   0   5  -7  481.05   16.00
   0  -5   7  474.95   16.70
   0  -5   7  446.86   15.40
   0  -5   7  487.45   18.20
  -1   5  -7  603.34   21.30
  -1   5  -7  664.23   23.20
  -1   5  -7  628.74   24.00
  -1   5  -7  608.44   23.10
   1  -5   7  622.64   21.10
   1  -5   7  609.44   23.00
  -2   5  -7  235.78    9.70
  -2   5  -7  244.18   11.20
  -2   5  -7  246.28   13.50
  -2   5  -7  244.08   12.30
   2  -5   7  244.98   11.90
   2  -5   7  228.98   10.30
  -3   5  -7    1.70    1.70
  -3   5  -7    1.70    1.20
  -3   5  -7    6.10    1.70
  -3   5  -7    5.80    1.60
   3  -5   7    3.10    1.20
   3  -5   7    2.00    1.20
  -4   5  -7  497.65   20.50
  -4   5  -7  480.95   21.40
  -4   5  -7  494.55   21.10
   4  -5   7  477.25   20.60
   4  -5   7  510.45   19.50
  -5   5  -7  185.18    9.70
  -5   5  -7  169.68   10.70
  -5   5  -7  197.98   11.40
  -5   5  -7  164.68   10.60
   5  -5   7  190.18   11.10
   5  -5   7  173.98    9.90
  -6   5  -7   77.09    7.20
  -6   5  -7   83.09    7.30
  -6   5  -7   89.29    6.40
  -6   5  -7   76.09    7.40
   6  -5   7   99.89    7.70
   6  -5   7   89.39    6.90
  -7   5  -7  234.68   14.10
  -7   5  -7  279.37   14.90
  -7   5  -7  244.78   12.30
   7  -5   7  250.97   13.20
   7  -5   7  257.57   14.60
  -8   5  -7  141.39   10.80
  -8   5  -7  156.78    9.60
  -8   5  -7  143.19   10.90
  -8   5  -7  145.79   11.30
   8  -5   7  157.78   11.60
   8  -5   7  155.18    9.80
  -9   5  -7   29.30    5.90
  -9   5  -7   32.40    6.00
  -9   5  -7   23.00    4.40
   9  -5   7   41.10    6.10
   9  -5   7   22.60    4.20
  11   4  -7    6.90    3.00
 -11  -4   7    1.80    2.70
  10   4  -7    2.60    2.30
 -10  -4   7    9.50    3.50
 -10  -4   7    6.10    2.60
   9   4  -7   21.60    3.80
  -9  -4   7   26.20    4.40
   8   4  -7   18.20    3.60
  -8  -4   7   15.10    3.30
  -8  -4   7   13.50    3.30
   7   4  -7   30.20    3.90
   7   4  -7   34.20    3.60
   7   4  -7   32.50    4.10
  -7  -4   7   34.30    4.70
  -7  -4   7   30.80    3.30
   6   4  -7   40.20    4.50
   6   4  -7   42.40    4.20
   6   4  -7   49.60    4.60
  -6  -4   7   42.90    3.70
  -6  -4   7   43.60    4.80
   5   4  -7    3.20    1.50
   5   4  -7    7.30    2.30
  -5  -4   7    4.70    2.00
  -5  -4   7    7.20    1.60
   4   4  -7  194.38   10.90
   4   4  -7  197.18    9.80
   4   4  -7  187.88    9.40
  -4  -4   7  183.98   10.40
  -4  -4   7  191.48    8.40
   3   4  -7  256.07   11.80
   3   4  -7  255.47   11.20
  -3  -4   7  252.77   13.60
  -3  -4   7  271.67   10.70
   2   4  -7  385.46   15.20
   2   4  -7  412.96   16.20
   2   4  -7  393.36   14.80
  -2  -4   7  385.46   12.80
  -2  -4   7  413.46   15.10
   1   4  -7 1681.73   55.59
   1   4  -7 1858.01   54.89
   1   4  -7 1773.42   56.39
   1   4  -7 1801.82   53.69
  -1  -4   7 1733.43   52.89
  -1  -4   7 1779.72   54.99
   0   4  -7 1591.44   50.09
   0   4  -7 1681.43   48.70
   0   4  -7 1562.74   49.80
   0   4  -7 1550.04   47.20
   0  -4   7 1438.36   46.50
   0  -4   7 1550.04   49.30
  -1   4  -7  430.26   16.60
  -1   4  -7  403.76   13.50
  -1   4  -7  424.96   15.20
  -1   4  -7  454.25   20.00
   1  -4   7  375.06   13.30
   1  -4   7  400.26   14.80
   1  -4   7  409.76   19.40
  -2   4  -7  314.97   14.00
  -2   4  -7  321.67   13.40
  -2   4  -7  310.27   14.80
   2  -4   7  287.37   15.60
  -3   4  -7  662.43   24.20
  -3   4  -7  615.14   23.90
   3  -4   7  620.94   22.70
   3  -4   7  650.53   24.40
  -4   4  -7  313.87   11.10
  -4   4  -7  284.57   14.30
  -4   4  -7  314.87   13.50
  -4   4  -7  318.07   14.40
   4  -4   7  277.57   14.10
   4  -4   7  285.87   13.00
  -5   4  -7   24.40    3.40
  -5   4  -7   13.60    2.70
  -5   4  -7   14.50    3.20
   5  -4   7   20.10    3.80
   5  -4   7   15.40    2.90
  -6   4  -7  168.88   10.70
  -6   4  -7  177.98   10.60
  -6   4  -7  177.18    9.60
   6  -4   7  168.48   10.10
   6  -4   7  172.88   10.70
  -7   4  -7  269.17   13.10
  -7   4  -7  260.67   17.80
  -7   4  -7  248.78   14.70
   7  -4   7  283.57   15.00
   7  -4   7  292.77   14.00
  -8   4  -7   79.99    8.00
  -8   4  -7   89.59    7.50
  -8   4  -7   86.89    7.60
   8  -4   7  105.49    8.50
   8  -4   7   93.19    7.40
  -9   4  -7   62.79    7.50
  -9   4  -7   73.89    8.30
   9  -4   7   76.59    7.20
   9  -4   7   82.79    8.00
  11   3  -7   20.70    3.60
 -11  -3   7   21.90    4.60
 -11  -3   7   24.50    4.90
 -11  -3   7   19.60    4.30
  10   3  -7   17.80    2.90
  10   3  -7   20.10    3.80
 -10  -3   7   17.80    4.10
 -10  -3   7   21.00    4.60
   9   3  -7   -3.10    1.80
   9   3  -7    0.80    1.00
   9   3  -7    3.50    1.90
  -9  -3   7   -2.00    1.80
  -9  -3   7   -2.00    2.00
   8   3  -7   27.40    4.10
   8   3  -7   25.10    4.60
   8   3  -7   24.50    2.50
  -8  -3   7   19.90    4.20
  -8  -3   7   29.10    4.20
   7   3  -7    0.90    1.40
   7   3  -7    0.40    1.10
  -7  -3   7    2.00    1.50
  -7  -3   7    1.30    1.10
   6   3  -7    2.40    1.20
   6   3  -7    2.60    1.20
   6   3  -7    1.80    1.60
  -6  -3   7    2.70    1.20
  -6  -3   7    3.40    1.60
   5   3  -7   31.30    3.50
   5   3  -7   33.50    3.40
  -5  -3   7   36.80    3.20
  -5  -3   7   29.90    2.40
  -5  -3   7   32.00    3.70
   4   3  -7   27.30    3.60
   4   3  -7   28.40    3.10
   4   3  -7   28.60    3.10
  -4  -3   7   28.50    3.50
  -4  -3   7   28.80    2.70
   3   3  -7    3.60    1.30
   3   3  -7    5.20    1.50
   3   3  -7    3.80    1.20
  -3  -3   7    6.70    1.80
  -3  -3   7    5.80    1.50
   2   3  -7  137.69    6.70
   2   3  -7  144.99    8.10
   2   3  -7  119.59    6.90
  -2  -3   7  140.39    7.00
   1   3  -7  623.44   22.70
   1   3  -7  673.63   23.60
   1   3  -7  652.33   21.50
  -1  -3   7  661.63   21.10
  -1  -3   7  638.04   22.50
   0   3  -7 1350.76   42.70
   0   3  -7 1364.06   40.40
   0   3  -7 1274.57   42.30
   0  -3   7 1289.47   40.40
   0  -3   7 1304.47   42.10
  -1   3  -7  387.56   13.90
  -1   3  -7  405.06   15.60
   1  -3   7  377.96   17.30
   1  -3   7  379.26   13.10
   1  -3   7  369.16   14.00
  -2   3  -7  557.94   20.40
  -2   3  -7  523.05   17.70
   2  -3   7  558.84   20.80
   2  -3   7  544.55   19.40
  -3   3  -7  997.90   35.30
  -3   3  -7 1022.70   34.30
  -3   3  -7 1055.29   34.80
   3  -3   7 1020.20   35.30
   3  -3   7 1013.20   33.80
  -4   3  -7   33.80    3.70
  -4   3  -7   30.60    2.40
  -4   3  -7   32.30    3.90
  -4   3  -7   31.00    3.50
   4  -3   7   33.70    3.40
   4  -3   7   39.50    4.10
  -5   3  -7   85.39    6.00
  -5   3  -7   69.79    6.40
  -5   3  -7   82.29    6.80
  -5   3  -7   88.09    4.60
   5  -3   7   85.79    6.30
   5  -3   7   92.49    6.80
  -6   3  -7  149.88    8.80
  -6   3  -7  143.29    7.00
   6  -3   7  159.88    9.90
  -7   3  -7   97.19    5.80
  -7   3  -7   92.09    7.10
  -7   3  -7   94.29    8.30
  -7   3  -7   88.79    7.00
   7  -3   7   96.49    7.40
  -8   3  -7   42.30    6.00
  -8   3  -7   52.99    6.90
   8  -3   7   46.70    6.50
   8  -3   7   61.19    5.40
  11   2  -7  100.19    7.40
  11   2  -7  106.99    7.50
 -11  -2   7   97.49    9.00
 -11  -2   7  115.29    9.40
 -11  -2   7  102.79    8.90
  10   2  -7  148.99   10.30
  10   2  -7  155.98    9.40
  10   2  -7  140.49    9.10
 -10  -2   7  133.49   10.00
 -10  -2   7  147.49   10.60
   9   2  -7    1.60    2.40
   9   2  -7    0.90    1.40
   9   2  -7    1.90    1.20
  -9  -2   7    0.90    1.90
  -9  -2   7   -1.20    1.40
   8   2  -7   35.90    4.50
   8   2  -7   32.10    3.20
   8   2  -7   37.40    4.00
  -8  -2   7   38.50    4.20
   7   2  -7   55.19    5.30
   7   2  -7   51.99    4.60
   7   2  -7   52.49    3.90
   7   2  -7   56.59    4.20
  -7  -2   7   58.99    6.10
  -7  -2   7   60.99    5.50
   6   2  -7   -1.30    1.00
   6   2  -7    2.10    0.80
   6   2  -7    0.90    1.30
   6   2  -7    0.40    0.80
  -6  -2   7    2.70    1.10
  -6  -2   7    1.60    0.90
  -6  -2   7    1.00    0.90
   5   2  -7   15.80    1.70
   5   2  -7   17.80    2.60
   5   2  -7   15.70    2.60
   5   2  -7   15.00    2.50
   5   2  -7   19.30    2.50
  -5  -2   7   19.50    2.40
  -5  -2   7   20.30    2.90
  -5  -2   7   15.80    1.80
   4   2  -7    2.30    1.20
   4   2  -7    2.70    1.10
  -4  -2   7    3.10    1.30
  -4  -2   7    1.80    1.00
   3   2  -7    1.70    0.80
   3   2  -7    0.70    0.70
   3   2  -7    0.50    0.70
  -3  -2   7    1.50    0.80
  -3  -2   7    2.10    1.20
   2   2  -7  230.48   10.80
   2   2  -7  243.68   10.10
   2   2  -7  241.48    9.90
  -2  -2   7  220.18    9.90
  -2  -2   7  221.08    8.80
   1   2  -7  388.46   14.10
   1   2  -7  394.36   15.50
   1   2  -7  418.46   15.20
  -1  -2   7  375.26   14.80
  -1  -2   7  372.06   13.50
   0   2  -7  108.39    6.20
   0   2  -7  107.79    5.30
   0   2  -7  101.69    6.20
   0  -2   7   98.79    5.90
   0  -2   7   91.89    5.10
  -1   2  -7  206.48    9.80
  -1   2  -7  215.48    8.50
   1  -2   7  197.38    8.90
   1  -2   7  212.08    9.90
  -2   2  -7  878.11   30.20
  -2   2  -7  861.91   27.70
  -2   2  -7  892.01   29.60
   2  -2   7  834.92   29.50
   2  -2   7  818.42   28.30
  -3   2  -7 1102.19   37.70
  -3   2  -7 1154.48   37.10
  -3   2  -7 1109.69   34.80
   3  -2   7 1076.29   37.20
   3  -2   7 1084.09   36.20
  -4   2  -7  150.08    6.90
  -4   2  -7  143.69    8.20
  -4   2  -7  139.19    8.80
   4  -2   7  148.79    8.10
   4  -2   7  141.09    8.40
  -5   2  -7  441.26   20.20
  -5   2  -7  486.45   19.50
  -5   2  -7  489.55   17.60
   5  -2   7  495.45   19.40
   5  -2   7  487.55   19.90
  -6   2  -7  255.27   13.10
  -6   2  -7  253.57   11.60
  -6   2  -7  256.27   12.80
  -6   2  -7  231.58   13.60
   6  -2   7  276.67   13.20
   6  -2   7  257.97   12.70
  -7   2  -7   10.80    2.80
  -7   2  -7    8.50    2.70
  -7   2  -7    6.80    2.80
   7  -2   7   12.40    3.30
   7  -2   7    4.00    2.30
  -8   2  -7   40.40    5.30
  -8   2  -7   40.50    6.60
  -8   2  -7   44.40    5.70
   8  -2   7   28.20    4.70
   8  -2   7   54.69    6.60
  12   1  -7  100.19    8.90
 -12  -1   7   83.29    8.30
 -12  -1   7  115.29    9.90
 -12  -1   7   98.49    9.10
  11   1  -7  304.17   16.30
  11   1  -7  307.27   14.00
  11   1  -7  292.17   14.30
 -11  -1   7  282.87   16.70
 -11  -1   7  268.97   15.50
 -11  -1   7  321.97   16.00
  10   1  -7   74.09    6.00
  10   1  -7   58.09    5.60
  10   1  -7   74.69    7.10
 -10  -1   7   72.09    6.70
 -10  -1   7   65.29    6.50
   9   1  -7   56.59    5.10
   9   1  -7   61.89    6.30
   9   1  -7   55.09    4.90
  -9  -1   7   44.90    5.30
  -9  -1   7   56.39    5.50
   8   1  -7  157.78   10.00
   8   1  -7  150.38    8.50
   8   1  -7  154.28    9.00
  -8  -1   7  149.99    7.20
  -8  -1   7  164.88    9.60
   7   1  -7   62.69    5.40
   7   1  -7   60.19    4.80
   7   1  -7   62.69    5.00
  -7  -1   7   63.99    5.30
   6   1  -7   47.00    4.50
   6   1  -7   45.90    4.20
   6   1  -7   43.60    3.90
   6   1  -7   45.60    3.30
  -6  -1   7   46.00    4.70
  -6  -1   7   43.60    4.20
  -6  -1   7   46.70    3.60
   5   1  -7    2.60    1.20
  -5  -1   7    1.80    1.20
  -5  -1   7    3.30    1.20
  -5  -1   7    1.60    1.10
   4   1  -7    2.90    1.20
   4   1  -7    3.90    1.30
   4   1  -7    5.60    1.30
  -4  -1   7    2.20    1.00
  -4  -1   7    3.40    1.30
   3   1  -7  110.89    6.70
   3   1  -7  104.69    5.60
   3   1  -7  104.19    6.00
  -3  -1   7  105.89    6.10
   2   1  -7  190.88    8.20
   2   1  -7  184.88    9.00
   2   1  -7  178.08    8.20
  -2  -1   7  175.08    7.70
  -2  -1   7  162.88    8.30
   1   1  -7   30.70    2.70
   1   1  -7   27.10    2.90
  -1  -1   7   28.70    2.50
  -1  -1   7   24.40    2.60
  -1  -1   7   26.80    2.20
   0   1  -7   14.60    2.20
   0   1  -7   17.90    2.00
   0  -1   7   15.40    1.90
   0  -1   7   17.10    2.00
   0  -1   7   12.10    1.90
  -1   1  -7  594.24   20.10
  -1   1  -7  586.94   21.30
  -1   1  -7  628.44   21.80
   1  -1   7  555.14   21.00
   1  -1   7  560.24   20.30
  -2   1  -7  514.45   20.30
  -2   1  -7  536.65   21.70
  -2   1  -7  521.05   18.30
   2  -1   7  531.35   18.90
   2  -1   7  476.75   19.10
  -3   1  -7  318.87   12.40
  -3   1  -7  301.07   13.90
  -3   1  -7  297.37   13.50
   3  -1   7  311.37   14.00
   3  -1   7  309.57   13.10
  -4   1  -7  418.26   17.10
  -4   1  -7  388.06   16.90
  -4   1  -7  394.76   17.60
   4  -1   7  423.56   17.00
   4  -1   7  393.26   16.30
  -5   1  -7  527.95   22.00
  -5   1  -7  536.55   23.00
   5  -1   7  589.54   22.10
   5  -1   7  586.54   21.90
  -6   1  -7  277.57   12.30
  -6   1  -7  233.68   13.00
  -6   1  -7  258.57   14.40
   6  -1   7  264.07   13.00
   6  -1   7  260.87   13.10
  -7   1  -7   84.19    6.30
  -7   1  -7   71.49    7.10
  -7   1  -7   64.59    6.50
   7  -1   7   68.39    6.90
   7  -1   7   69.59    6.60
  -8   1  -7  107.99    8.30
  -8   1  -7   77.39    7.50
   8  -1   7   88.49    7.50
   8  -1   7  105.39    7.90
  12   0  -7  239.38   14.20
  12   0  -7  187.88   12.00
 -12   0   7  219.18   13.70
 -12   0   7  228.98   15.60
 -12   0   7  183.18   12.20
  11   0  -7  112.89    8.10
  11   0  -7  124.99    9.40
  11   0  -7  107.89    7.70
 -11   0   7  109.19    8.40
 -11   0   7  109.29   10.30
 -11   0   7  108.59    8.80
  10   0  -7   28.70    3.60
  10   0  -7   19.30    4.10
  10   0  -7   18.30    3.60
 -10   0   7   18.60    3.90
 -10   0   7   15.70    2.60
 -10   0   7   15.40    3.90
 -10   0   7   15.50    3.40
   9   0  -7  101.89    7.30
   9   0  -7   98.49    6.70
   9   0  -7  112.59    8.50
  -9   0   7  104.39    7.40
  -9   0   7   92.89    6.50
   8   0  -7  312.77   14.30
   8   0  -7  309.37   13.60
   8   0  -7  310.57   15.10
  -8   0   7  307.27   13.20
  -8   0   7  309.77   14.20
   7   0  -7   17.90    2.70
   7   0  -7   14.60    3.00
  -7   0   7   14.30    3.10
  -7   0   7   16.60    2.30
   6   0  -7    7.90    2.00
   6   0  -7   10.10    2.30
   6   0  -7   10.20    1.40
  -6   0   7   11.50    2.20
  -6   0   7   10.20    2.40
  -6   0   7    7.80    2.10
  -5   0   7    1.40    1.10
  -5   0   7    1.50    0.90
  -5   0   7    2.90    1.30
   4   0  -7   61.09    3.60
   4   0  -7   66.09    3.90
   4   0  -7   69.99    5.40
   4   0  -7   62.09    4.80
  -4   0   7   64.79    4.00
  -4   0   7   64.99    4.30
  -4   0   7   62.49    5.00
  -4   0   7   57.09    4.60
   3   0  -7  310.77   11.40
   3   0  -7  319.97   13.20
   3   0  -7  306.57   11.80
   3   0  -7  318.27   12.90
  -3   0   7  314.37   13.10
  -3   0   7  304.87   11.80
   2   0  -7   93.79    5.60
   2   0  -7   99.19    6.00
  -2   0   7   99.59    5.90
  -2   0   7   96.79    5.20
  -2   0   7   96.29    5.60
   1   0  -7   11.50    1.80
   1   0  -7   12.30    2.30
  -1   0   7    9.40    1.70
  -1   0   7    9.40    1.70
  -1   0   7    9.20    1.90
   0   0  -7   86.79    5.20
   0   0  -7   83.59    5.50
   0   0   7   80.19    5.20
   0   0   7   79.09    5.20
   0   0   7   89.29    6.60
  -1   0  -7  439.06   16.30
  -1   0  -7  442.46   16.80
  -1   0  -7  423.66   19.10
   1   0   7  445.66   17.90
   1   0   7  407.16   20.00
   1   0   7  413.76   15.80
   1   0   7  442.86   17.10
  -2   0  -7  229.78   12.40
  -2   0  -7  221.08   10.90
  -2   0  -7  236.98   10.60
   2   0   7  229.18   10.30
   2   0   7  228.58   10.40
   2   0   7  218.38    9.40
  -3   0  -7   59.99    5.10
  -3   0  -7   67.99    4.80
  -3   0  -7   53.49    4.90
   3   0   7   42.70    4.50
   3   0   7   57.59    4.60
  -4   0  -7  537.35   22.70
  -4   0  -7  600.74   23.40
  -4   0  -7  600.64   22.00
   4   0   7  598.54   21.90
   4   0   7  580.84   22.10
  -5   0  -7  360.16   17.30
  -5   0  -7  390.36   18.00
  -5   0  -7  386.56   16.40
   5   0   7  386.06   16.90
   5   0   7  399.36   16.40
  -6   0  -7  173.08   11.50
  -6   0  -7  198.88   10.80
  -6   0  -7  177.78   11.10
   6   0   7  179.98   10.40
   6   0   7  193.28   10.70
  -7   0  -7  225.88   13.70
  -7   0  -7  201.88   12.60
  -7   0  -7  253.57   12.40
   7   0   7  212.28   11.70
   7   0   7  207.28   11.80
  -8   0  -7   93.59    8.50
  -8   0  -7   98.39    8.90
  -8   0  -7  100.99    9.30
   8   0   7  105.89    8.40
   8   0   7  102.39    8.30
  12  -1  -7  161.68   11.40
  12  -1  -7  127.79   10.10
 -12   1   7  146.69   12.30
 -12   1   7  128.79    9.70
  11  -1  -7   39.90    6.00
  11  -1  -7   42.20    4.70
  11  -1  -7   33.40    5.60
 -11   1   7   46.10    6.40
 -11   1   7   36.40    5.40
 -11   1   7   33.60    4.90
  10  -1  -7  283.87   15.30
  10  -1  -7  283.77   14.90
  10  -1  -7  299.07   13.10
 -10   1   7  273.37   13.70
 -10   1   7  289.17   13.30
 -10   1   7  277.97   13.80
 -10   1   7  288.47   16.70
   9  -1  -7  336.37   16.20
   9  -1  -7  322.87   14.10
   9  -1  -7  345.77   16.20
  -9   1   7  317.47   14.50
  -9   1   7  314.57   17.20
  -9   1   7  337.87   19.60
   8  -1  -7  434.86   18.90
   8  -1  -7  447.36   19.00
  -8   1   7  421.96   17.80
  -8   1   7  421.76   17.10
   7  -1  -7   57.19    5.50
   7  -1  -7   58.09    5.40
  -7   1   7   51.89    4.80
  -7   1   7   63.09    5.70
  -7   1   7   56.39    4.50
   6  -1  -7   57.59    4.80
  -6   1   7   61.19    5.10
  -6   1   7   51.39    4.10
   5  -1  -7   42.90    3.90
   5  -1  -7   39.40    3.90
  -5   1   7   43.00    4.20
  -5   1   7   43.00    3.60
  -5   1   7   40.50    3.40
   4  -1  -7    6.80    1.70
   4  -1  -7    6.90    1.80
  -4   1   7    9.90    1.90
  -4   1   7    6.80    1.80
  -4   1   7    6.60    3.00
   3  -1  -7  148.39    7.90
   3  -1  -7  154.98    8.00
  -3   1   7  153.38    7.50
  -3   1   7  155.08    8.10
  -3   1   7  140.09    6.30
   2  -1  -7   20.20    2.50
  -2   1   7   21.70    2.40
   1  -1  -7   61.69    4.60
  -1   1   7   60.79    4.40
  -1   1   7   60.79    4.40
  -1   1   7   49.70    4.40
   0  -1  -7   61.89    4.40
   0  -1  -7   61.49    5.50
   0  -1  -7   59.49    4.40
   0   1   7   68.89    5.40
   0   1   7   70.59    5.00
   0   1   7   57.39    4.80
  -1  -1  -7   97.09    6.00
  -1  -1  -7   94.09    6.30
   1   1   7   92.19    5.90
   1   1   7   93.19    6.90
   1   1   7   90.19    5.00
  -2  -1  -7    4.30    1.10
  -2  -1  -7    3.70    1.60
  -2  -1  -7    3.70    1.50
   2   1   7    3.40    1.50
   2   1   7    3.50    1.80
   2   1   7    3.70    1.60
  -3  -1  -7    1.30    1.00
  -3  -1  -7   -0.50    1.00
  -3  -1  -7   -0.60    1.30
   3   1   7    2.90    1.60
   3   1   7   -2.40    1.10
  -4  -1  -7  224.68   12.60
  -4  -1  -7  259.17   12.40
  -4  -1  -7  236.48   12.50
   4   1   7  238.88   13.30
   4   1   7  247.98   11.90
   4   1   7  244.28   11.20
  -5  -1  -7  172.08   12.00
  -5  -1  -7  165.18   10.70
  -5  -1  -7  174.78   10.30
   5   1   7  170.18   11.40
   5   1   7  160.98    8.80
   5   1   7  176.58    9.90
  -6  -1  -7  129.59    9.20
  -6  -1  -7  132.89    9.30
  -6  -1  -7  107.49    8.90
   6   1   7  120.49    7.40
   6   1   7  119.99    9.80
   6   1   7  127.09    8.50
  -7  -1  -7  171.38   11.50
  -7  -1  -7  142.29   10.70
  -7  -1  -7  159.78   10.50
   7   1   7  159.28   12.10
   7   1   7  171.08   10.00
   7   1   7  135.39    9.20
  12  -2  -7   76.19    7.80
  12  -2  -7   68.19    7.90
 -12   2   7   76.89   12.90
 -12   2   7   61.19    7.00
  11  -2  -7   36.40    4.50
  11  -2  -7   48.80    6.30
  11  -2  -7   28.40    5.30
 -11   2   7   30.20    5.30
 -11   2   7   32.30    5.00
 -11   2   7   48.20    6.80
  10  -2  -7  214.58   10.60
  10  -2  -7  224.58   13.30
  10  -2  -7  217.78   13.00
 -10   2   7  212.78   11.10
 -10   2   7  232.18   12.00
 -10   2   7  226.18   11.70
 -10   2   7  216.38   14.80
   9  -2  -7  225.98   12.90
   9  -2  -7  219.18   12.50
   9  -2  -7  216.48   10.90
  -9   2   7  234.88   12.20
  -9   2   7  221.88   15.70
  -9   2   7  209.68   10.70
   8  -2  -7   82.69    6.70
   8  -2  -7   91.69    7.30
  -8   2   7   83.29    6.20
  -8   2   7   92.09    5.60
  -8   2   7   73.69    7.40
   7  -2  -7   36.10    4.50
   7  -2  -7   41.80    4.50
  -7   2   7   46.10    3.30
  -7   2   7   40.60    4.60
   6  -2  -7  441.86   18.10
  -6   2   7  419.56   18.60
  -6   2   7  434.26   18.40
   5  -2  -7  224.48   10.40
   5  -2  -7  208.48   10.50
  -5   2   7  215.78   10.40
  -5   2   7  214.98   11.30
  -5   2   7  209.58   11.00
   4  -2  -7    5.30    1.60
   4  -2  -7    9.20    2.00
   4  -2  -7    6.80    1.30
  -4   2   7    7.20    2.10
  -4   2   7    5.10    1.00
  -4   2   7    7.20    1.90
  -4   2   7    6.20    1.70
   3  -2  -7    1.00    1.00
   3  -2  -7    0.10    0.80
  -3   2   7    2.30    1.00
  -3   2   7   -0.40    0.90
  -3   2   7   -0.20    0.60
  -3   2   7    1.70    1.10
   2  -2  -7    8.30    1.90
   2  -2  -7    7.90    1.80
  -2   2   7    6.60    2.10
  -2   2   7   10.30    2.10
  -2   2   7   11.20    2.20
  -2   2   7    7.90    1.40
   1  -2  -7  134.99    7.80
   1  -2  -7  136.89    7.70
  -1   2   7  131.99    7.50
  -1   2   7  141.69    8.90
  -1   2   7  135.89    7.80
   0  -2  -7  213.58   10.80
   0  -2  -7  224.48   10.90
   0  -2  -7  241.48   10.20
   0   2   7  231.68   11.00
   0   2   7  230.88   10.60
   0   2   7  228.28   13.40
  -1  -2  -7   10.00    2.30
  -1  -2  -7   10.30    2.20
   1   2   7   11.90    2.10
   1   2   7   11.80    2.90
   1   2   7   10.10    1.90
  -2  -2  -7    7.50    2.00
  -2  -2  -7    9.40    2.10
  -2  -2  -7    7.30    2.30
   2   2   7    8.30    2.20
   2   2   7    5.80    2.00
   2   2   7    7.70    2.00
  -3  -2  -7  344.77   15.30
  -3  -2  -7  338.67   15.10
  -3  -2  -7  303.57   15.40
   3   2   7  342.97   14.70
   3   2   7  335.57   16.20
  -4  -2  -7  167.78   11.30
  -4  -2  -7  182.08   10.50
  -4  -2  -7  186.38   10.80
   4   2   7  190.08   16.50
   4   2   7  170.88    8.50
  -5  -2  -7   16.50    3.20
  -5  -2  -7    9.00    2.70
  -5  -2  -7   17.20    3.90
   5   2   7   16.00    3.10
   5   2   7   12.80    4.10
   5   2   7   13.90    3.00
  -6  -2  -7   93.29    8.10
  -6  -2  -7   91.69    7.60
  -6  -2  -7   73.09    7.70
   6   2   7   79.49    6.30
   6   2   7   81.59    8.50
   6   2   7   85.09    6.90
  -7  -2  -7  229.48   15.50
  -7  -2  -7  244.38   15.30
  -7  -2  -7  270.97   14.40
   7   2   7  217.68   15.60
   7   2   7  239.08   16.00
  11  -3  -7  131.09    9.80
  11  -3  -7  126.59   10.50
  11  -3  -7  108.69    7.10
 -11   3   7  120.49    8.00
 -11   3   7  135.69   11.40
 -11   3   7  124.49    9.10
  10  -3  -7  132.79    8.00
  10  -3  -7  130.79    9.50
  10  -3  -7  139.19   10.90
 -10   3   7  119.29   10.80
 -10   3   7  124.19    7.90
 -10   3   7  145.09    9.70
 -10   3   7  126.09   10.00
   9  -3  -7  114.29    9.20
   9  -3  -7  116.69    9.50
  -9   3   7  123.69    9.20
  -9   3   7  110.39   10.20
  -9   3   7  124.49    6.80
   8  -3  -7   44.00    4.80
   8  -3  -7   35.90    5.30
  -8   3   7   33.10    5.60
  -8   3   7   32.20    4.50
  -8   3   7   36.40    3.20
   7  -3  -7  320.47   15.20
   7  -3  -7  317.07   16.40
  -7   3   7  338.97   16.00
  -7   3   7  324.97   16.90
   6  -3  -7  343.77   14.70
   6  -3  -7  367.16   16.00
  -6   3   7  369.36   16.90
  -6   3   7  363.36   16.90
  -6   3   7  350.26   15.70
  -6   3   7  361.76   17.40
   5  -3  -7  174.78    9.60
   5  -3  -7  175.78    9.00
  -5   3   7  183.58   10.30
  -5   3   7  172.18   11.60
  -5   3   7  169.88   10.20
   4  -3  -7  157.08    9.90
   4  -3  -7  161.48    9.00
  -4   3   7  156.78    9.20
  -4   3   7  158.98    9.00
  -4   3   7  161.08    9.70
   3  -3  -7    1.00    0.90
   3  -3  -7    1.10    1.10
  -3   3   7   -1.10    1.10
  -3   3   7    0.50    1.20
  -3   3   7   -1.00    0.90
   2  -3  -7   90.09    5.90
   2  -3  -7   92.19    6.30
  -2   3   7   79.99    4.60
  -2   3   7  111.19    8.20
  -2   3   7   92.89    7.10
  -2   3   7   95.89    7.00
   1  -3  -7   69.09    5.20
   1  -3  -7   67.19    5.30
  -1   3   7   58.49    5.80
  -1   3   7   70.29    5.60
  -1   3   7   56.59    4.40
  -1   3   7   64.09    4.90
   0  -3  -7   73.29    5.80
   0  -3  -7   77.49    4.90
   0  -3  -7   78.69    5.90
   0   3   7   67.49    6.40
   0   3   7   73.99    6.40
   0   3   7   72.59    5.30
   0   3   7   77.29    6.00
   0   3   7   65.19    5.00
  -1  -3  -7    1.10    1.00
  -1  -3  -7    1.60    1.20
  -1  -3  -7    0.40    1.10
   1   3   7    0.50    1.50
   1   3   7   -2.80    1.20
  -2  -3  -7   61.29    5.50
  -2  -3  -7   67.69    5.20
  -2  -3  -7   62.99    5.70
   2   3   7   57.69    5.30
   2   3   7   62.09    4.70
   2   3   7   56.39    6.40
  -3  -3  -7   96.19    8.30
  -3  -3  -7   99.09    7.10
  -3  -3  -7  103.69    7.70
   3   3   7  101.79   10.60
   3   3   7  106.39    7.50
  -4  -3  -7   10.00    3.00
  -4  -3  -7   11.20    2.30
  -4  -3  -7    7.80    3.00
   4   3   7   11.10    2.50
   4   3   7   10.60    3.40
   4   3   7    9.60    2.80
  -5  -3  -7    0.80    2.00
  -5  -3  -7    4.70    2.80
  -5  -3  -7    3.30    2.30
   5   3   7    5.60    2.50
   5   3   7    3.40    2.70
   5   3   7    4.10    2.50
  -6  -3  -7   79.49    7.60
  -6  -3  -7   92.19    7.60
   6   3   7   88.79   10.70
   6   3   7   93.69    7.60
  11  -4  -7   64.29    8.30
  11  -4  -7   67.09    6.90
  11  -4  -7   72.59    7.20
 -11   4   7   67.79    8.50
 -11   4   7   77.09    7.60
  10  -4  -7   81.99    7.70
  10  -4  -7   82.29    8.50
 -10   4   7   90.09   12.50
 -10   4   7   91.29    9.10
   9  -4  -7   80.39    7.80
   9  -4  -7   62.89    6.40
  -9   4   7   63.09    8.10
  -9   4   7   63.09    6.90
   8  -4  -7   83.79    6.90
   8  -4  -7   67.89    7.40
  -8   4   7   73.99    7.40
  -8   4   7   67.69   10.30
   7  -4  -7  386.96   17.70
   7  -4  -7  409.86   19.90
  -7   4   7  409.66   20.40
  -7   4   7  404.26   18.30
  -7   4   7  415.16   19.50
   6  -4  -7  177.58    9.10
   6  -4  -7  178.78   10.30
  -6   4   7  178.68   10.70
  -6   4   7  185.38   12.20
  -6   4   7  191.48   11.60
   5  -4  -7  134.79    8.70
   5  -4  -7  152.08   11.00
  -5   4   7  146.09   10.00
  -5   4   7  142.39    9.60
  -5   4   7  136.99    8.90
  -5   4   7  147.39    9.50
   4  -4  -7  164.58    9.40
  -4   4   7  163.28    9.90
  -4   4   7  168.28   10.10
  -4   4   7  177.98   10.60
  -4   4   7  170.28   10.40
   3  -4  -7   74.69    5.30
   3  -4  -7   70.39    5.60
  -3   4   7   65.39    5.70
  -3   4   7   71.89    6.20
  -3   4   7   70.49    6.20
  -3   4   7   64.49    5.80
   2  -4  -7  165.48    9.00
   2  -4  -7  175.28    9.70
  -2   4   7  177.38   10.60
  -2   4   7  152.38    8.70
  -2   4   7  173.38   10.60
  -2   4   7  177.28    9.70
   1  -4  -7    8.40    2.20
   1  -4  -7    7.70    1.90
  -1   4   7   10.20    2.30
  -1   4   7   13.50    3.00
  -1   4   7    9.60    2.40
   0  -4  -7   10.70    1.80
   0  -4  -7   13.70    3.00
   0  -4  -7   15.60    3.00
   0   4   7   20.60    3.90
   0   4   7   17.80    3.10
   0   4   7   11.10    3.20
  -1  -4  -7    6.60    1.80
  -1  -4  -7    3.40    1.90
  -1  -4  -7    6.30    2.50
   1   4   7    1.20    2.30
   1   4   7    0.60    2.00
  -2  -4  -7  199.98   10.10
  -2  -4  -7  174.88   11.40
  -2  -4  -7  173.18   11.00
   2   4   7  177.78   10.60
   2   4   7  190.48   13.00
   2   4   7  179.18   12.00
  -3  -4  -7   19.10    3.40
  -3  -4  -7   29.10    4.20
  -3  -4  -7   21.50    4.00
   3   4   7   23.50    4.60
   3   4   7   19.90    3.60
   3   4   7   13.60    4.10
   3   4   7   31.00    4.60
  -4  -4  -7    1.00    2.80
  -4  -4  -7    8.40    2.20
  -4  -4  -7    1.90    2.40
   4   4   7    8.80    3.20
   4   4   7    5.90    3.00
   4   4   7   12.80    3.00
   4   4   7    8.30    3.00
  -5  -4  -7   46.60    6.60
  -5  -4  -7   61.69    6.20
   5   4   7   50.79    8.40
   5   4   7   46.10    5.60
  11  -5  -7  265.47   14.90
  11  -5  -7  269.47   17.60
 -11   5   7  268.57   15.60
 -11   5   7  238.68   17.20
  10  -5  -7  131.69    9.70
  10  -5  -7  144.39   11.60
 -10   5   7  135.79   11.10
 -10   5   7  122.29   12.00
   9  -5  -7   73.69    8.30
   9  -5  -7   83.39    7.40
  -9   5   7   74.19    8.70
  -9   5   7   66.09    7.40
   8  -5  -7  185.78   12.40
   8  -5  -7  190.08   13.00
  -8   5   7  175.08   13.30
  -8   5   7  203.78   14.70
   7  -5  -7  176.28   10.80
  -7   5   7  197.88   13.40
  -7   5   7  173.68   11.20
  -7   5   7  191.58   12.50
   6  -5  -7   65.59    5.90
   6  -5  -7   65.19    5.30
  -6   5   7   63.39    6.90
  -6   5   7   66.39    6.20
  -6   5   7   63.89    7.50
   5  -5  -7   86.59    6.90
   5  -5  -7   77.29    5.70
  -5   5   7   88.99    7.90
  -5   5   7   83.89    7.80
  -5   5   7   92.69    7.50
   4  -5  -7  321.27   13.70
   4  -5  -7  323.97   15.20
  -4   5   7  283.17   15.30
  -4   5   7  312.17   16.10
  -4   5   7  331.87   15.90
  -4   5   7  327.47   16.50
   3  -5  -7  279.27   13.90
   3  -5  -7  287.07   12.90
  -3   5   7  294.67   15.60
  -3   5   7  302.87   14.70
  -3   5   7  301.47   15.50
   2  -5  -7   10.90    2.30
   2  -5  -7   10.60    2.40
  -2   5   7    6.60    2.60
  -2   5   7   12.50    2.70
  -2   5   7   12.40    3.60
  -2   5   7    9.30    2.90
   1  -5  -7   66.29    5.80
   1  -5  -7   47.60    4.90
  -1   5   7   53.09    5.10
  -1   5   7   52.49    5.90
  -1   5   7   61.69    6.30
  -1   5   7   52.69    4.50
   0  -5  -7   95.49    7.40
   0  -5  -7   88.59    5.60
   0  -5  -7   80.89    6.80
   0   5   7   78.59    7.80
   0   5   7   93.29    8.20
   0   5   7   89.19    6.70
  -1  -5  -7   19.60    3.00
  -1  -5  -7   13.10    3.10
  -1  -5  -7   11.80    3.00
   1   5   7   12.60    2.80
   1   5   7   17.20    4.00
   1   5   7   15.40    3.90
  -2  -5  -7   52.49    5.00
  -2  -5  -7   47.30    5.70
  -2  -5  -7   55.79    6.10
   2   5   7   47.30    7.00
   2   5   7   44.00    5.50
   2   5   7   61.29    8.80
   2   5   7   50.59    9.20
  -3  -5  -7   15.90    3.10
  -3  -5  -7   16.70    3.80
  -3  -5  -7   10.40    2.50
   3   5   7   11.00    3.10
   3   5   7    5.10    3.60
   3   5   7    8.80    3.00
  -4  -5  -7   12.10    3.40
  -4  -5  -7   12.20    3.90
   4   5   7   17.20    4.40
   4   5   7   18.20    3.40
   4   5   7   10.70    4.00
  10  -6  -7   19.90    4.20
  10  -6  -7   18.10    4.60
 -10   6   7   28.00    6.90
 -10   6   7   40.50    6.90
   9  -6  -7  148.79   10.20
   9  -6  -7  152.28   12.10
  -9   6   7  163.08   12.50
  -9   6   7  141.79   12.40
   8  -6  -7  256.07   14.00
   8  -6  -7  243.08   16.00
  -8   6   7  251.27   15.80
  -8   6   7  246.38   16.90
   7  -6  -7   68.79    6.40
   7  -6  -7   56.29    7.10
   7  -6  -7   53.09    5.20
  -7   6   7   65.59    7.00
  -7   6   7   73.89    8.10
  -7   6   7   63.49    7.40
   6  -6  -7    7.50    3.10
   6  -6  -7   13.30    2.70
  -6   6   7   11.60    3.80
  -6   6   7    5.10    3.40
  -6   6   7   11.00    3.40
   5  -6  -7   50.99    4.50
  -5   6   7   51.29    6.30
  -5   6   7   63.29    6.60
  -5   6   7   48.30    5.70
   4  -6  -7  161.88    8.90
   4  -6  -7  162.78   12.90
  -4   6   7  167.38   14.20
  -4   6   7  163.28   10.80
  -4   6   7  174.28   11.70
   3  -6  -7   98.79    6.50
  -3   6   7   97.39    7.30
  -3   6   7   89.29    8.10
  -3   6   7   85.39    7.50
   2  -6  -7   36.60    4.30
   2  -6  -7   23.60    3.60
  -2   6   7   23.80    4.30
  -2   6   7   26.90    6.40
  -2   6   7   30.60    6.90
   1  -6  -7  351.46   16.50
   1  -6  -7  365.26   17.50
  -1   6   7  352.56   19.10
  -1   6   7  356.26   14.70
  -1   6   7  383.66   19.70
  -1   6   7  385.06   17.00
   0  -6  -7   16.20    3.20
   0  -6  -7   17.80    3.70
   0   6   7   17.20    4.30
   0   6   7   18.40    4.10
   0   6   7   25.70    4.10
  -1  -6  -7   10.00    3.00
  -1  -6  -7   12.50    3.20
  -1  -6  -7    9.80    2.30
   1   6   7    6.30    3.60
   1   6   7   12.40    4.10
   1   6   7   11.50    3.70
  -2  -6  -7   -1.20    1.90
  -2  -6  -7    2.00    2.20
  -2  -6  -7    2.70    2.20
   2   6   7    4.00    2.90
   2   6   7    2.50    3.40
  -3  -6  -7   -3.80    2.40
  -3  -6  -7   -3.50    2.30
  -3  -6  -7    3.80    3.00
   3   6   7    3.20    4.00
   9  -7  -7  321.77   16.70
   9  -7  -7  318.67   20.30
  -9   7   7  287.17   27.40
  -9   7   7  320.77   19.10
   8  -7  -7  101.29    8.80
   8  -7  -7  106.39   10.40
  -8   7   7   95.59   10.20
  -8   7   7  124.29   10.80
   7  -7  -7   97.49    8.20
   7  -7  -7   88.79    9.10
  -7   7   7   89.69   10.00
  -7   7   7  106.19    8.70
  -7   7   7   97.99    9.30
   6  -7  -7  141.19    9.70
   6  -7  -7  123.19    7.60
  -6   7   7  127.89   10.60
  -6   7   7  133.69   11.40
  -6   7   7  136.89   11.20
   5  -7  -7  143.09    9.60
   5  -7  -7  143.69    8.20
  -5   7   7  120.99   10.50
  -5   7   7  145.59   11.30
  -5   7   7  139.99   10.70
   4  -7  -7   95.39    7.60
   4  -7  -7   93.79   10.10
  -4   7   7   84.29    8.60
  -4   7   7   89.99    9.10
  -4   7   7   90.59    8.80
   3  -7  -7  111.19    7.60
   3  -7  -7  123.39    9.00
  -3   7   7  108.49    8.40
  -3   7   7  125.69   10.50
  -3   7   7  111.59   10.00
   2  -7  -7   67.69    7.00
   2  -7  -7   85.79    6.90
  -2   7   7   67.09    6.40
  -2   7   7   87.79    8.70
  -2   7   7   72.89    8.70
   1  -7  -7   93.69    7.50
   1  -7  -7   92.89    8.10
  -1   7   7   94.69    9.60
  -1   7   7   99.59    8.70
   0  -7  -7   30.50    4.90
   0  -7  -7   35.40    5.20
   0   7   7   28.00    5.40
   0   7   7   20.00    5.70
  -1  -7  -7   61.69    7.90
  -1  -7  -7   42.70    5.60
   1   7   7   61.29    8.00
   1   7   7   42.70    7.20
  -2  -7  -7   70.79    7.50
  -2  -7  -7   68.29    8.00
  -2  -7  -7   70.89    6.80
   2   7   7   48.40    7.70
   2   7   7   78.49    8.80
   8  -8  -7  122.49   11.60
   8  -8  -7  122.89    9.60
  -8   8   7  116.29   10.60
  -8   8   7  121.29   11.60
  -8   8   7  137.99   14.60
   7  -8  -7  118.09   11.60
   7  -8  -7  110.39    9.00
  -7   8   7   90.99   10.10
  -7   8   7  115.69    9.90
  -7   8   7  111.09   11.00
   6  -8  -7  301.07   15.80
  -6   8   7  291.37   17.30
  -6   8   7  277.37   18.00
   5  -8  -7  233.88   13.20
   5  -8  -7  219.58   11.30
  -5   8   7  202.48   14.50
  -5   8   7  240.48   15.90
  -5   8   7  235.08   15.10
   4  -8  -7   16.40    3.00
   4  -8  -7   30.40    4.50
  -4   8   7   16.40    4.20
  -4   8   7   21.70    4.60
  -3   8   7   19.50    5.50
  -3   8   7   24.60    4.90
  -3   8   7   24.50    5.10
   2  -8  -7   92.89    8.10
   2  -8  -7   75.09    7.00
  -2   8   7   90.59    9.60
  -2   8   7  101.39    9.90
   1  -8  -7   34.60    5.10
   1  -8  -7   20.60    3.80
  -1   8   7   29.20    6.60
  -1   8   7   24.50    5.60
   0  -8  -7   19.10    4.10
   0   8   7   18.00    5.20
  -6   9   7  248.98   16.50
  -6   9   7  270.67   17.80
  -6   9   7  229.88   16.10
  -5   9   7  181.98   14.60
  -5   9   7  140.69   13.00
  -5   9   7  170.88   13.90
   4  -9  -7   35.50    7.00
   4  -9  -7   45.90    5.10
  -4   9   7   53.69    8.20
  -4   9   7   35.50    6.60
   3  -9  -7   33.40    4.60
   3  -9  -7   29.60    4.90
  -3   9   7   21.60    6.10
  -3   9   7   27.40    6.90
   2  13  -8  129.99   14.30
   2  13  -8  108.89    9.80
   2  13  -8  106.59    9.20
  -2 -13   8  117.29   10.50
  -2 -13   8  101.09    8.70
  -2 -13   8  115.79   10.10
   1  13  -8   48.50    5.90
   1  13  -8   51.89    7.30
  -1 -13   8   71.69    7.40
  -1 -13   8   72.69    7.50
  -1 -13   8   70.89    8.30
   0  13  -8   74.79    7.30
   0  13  -8   61.49    6.40
   0 -13   8   60.79    7.20
   0 -13   8   48.30    7.20
   0 -13   8   58.39    5.90
  -1  13  -8  373.16   20.10
  -1  13  -8  363.06   17.40
   1 -13   8  355.96   18.00
   1 -13   8  410.46   19.20
   1 -13   8  359.56   19.80
  -2  13  -8  327.27   15.30
  -2  13  -8  296.57   17.70
   2 -13   8  328.17   16.00
   2 -13   8  327.57   18.20
   2 -13   8  299.57   16.60
  -3  13  -8  211.48   15.50
  -3  13  -8  237.48   14.60
  -3  13  -8  224.98   11.50
   3 -13   8  202.38   14.10
   3 -13   8  228.78   14.10
   3 -13   8  198.48   13.10
   4  12  -8   57.99    7.10
   4  12  -8   65.69    6.80
  -4 -12   8   64.99    9.60
  -4 -12   8   69.29    8.00
   3  12  -8  146.49   11.20
   3  12  -8  143.69   10.10
   3  12  -8  149.88   10.70
  -3 -12   8  157.88   11.60
   2  12  -8   36.00    5.60
   2  12  -8   39.60    5.00
   2  12  -8   29.50    5.70
  -2 -12   8   32.00    5.70
  -2 -12   8   41.80    5.90
   1  12  -8    4.00    2.40
   1  12  -8   11.30    3.50
   1  12  -8    0.20    2.60
  -1 -12   8    8.60    3.10
  -1 -12   8    4.20    3.00
  -1 -12   8    3.80    3.10
  -1 -12   8    5.80    2.00
   0  12  -8  131.79   10.70
   0  12  -8  125.09    8.50
   0 -12   8  118.89    8.50
   0 -12   8  107.49    9.70
   0 -12   8  122.19    8.50
   0 -12   8  127.99   14.50
  -1  12  -8  218.68   14.80
  -1  12  -8  243.88   12.50
  -1  12  -8  232.98   14.50
   1 -12   8  214.58   14.20
   1 -12   8  206.58   12.40
   1 -12   8  210.98   13.30
  -2  12  -8   78.09    8.30
  -2  12  -8   75.19    9.30
  -2  12  -8   64.99    8.00
   2 -12   8   73.89    8.20
   2 -12   8   56.99    7.00
   2 -12   8   70.09    7.20
   2 -12   8   78.59    5.70
  -3  12  -8   87.79    8.80
  -3  12  -8   86.39    8.90
  -3  12  -8   82.79    6.50
   3 -12   8   84.49    8.20
   3 -12   8   66.29    8.40
   3 -12   8   80.69    6.80
  -4  12  -8  228.78   11.20
  -4  12  -8  246.48   15.40
   4 -12   8  251.37   13.10
  -5  12  -8  274.07   15.80
  -5  12  -8  212.68   16.10
   5 -12   8  228.98   14.80
   5 -12   8  245.58   13.80
   5  11  -8    8.10    2.60
   5  11  -8   12.40    3.30
  -5 -11   8    9.20    3.40
  -5 -11   8   10.40    3.50
   4  11  -8  168.68    9.70
   4  11  -8  173.98   12.20
   4  11  -8  165.88   11.40
  -4 -11   8  175.48   12.50
  -4 -11   8  171.88   12.80
   3  11  -8  336.47   14.60
   3  11  -8  309.67   17.40
   3  11  -8  291.27   16.10
  -3 -11   8  318.57   18.10
  -3 -11   8  314.77   18.20
   2  11  -8  190.68   10.00
   2  11  -8  183.88   12.80
   2  11  -8  180.08   11.60
  -2 -11   8  190.18   13.10
  -2 -11   8  209.48   11.00
  -2 -11   8  185.28   13.20
   1  11  -8  113.89    8.10
   1  11  -8  103.29    6.80
   1  11  -8  103.19    9.20
  -1 -11   8   97.69   10.20
  -1 -11   8  104.69    6.90
  -1 -11   8  109.19    9.90
   0  11  -8  158.38   11.40
   0  11  -8  159.88   11.60
   0 -11   8  170.98   11.70
   0 -11   8  175.68   12.50
   0 -11   8  173.58    9.90
  -1  11  -8  126.49   10.40
  -1  11  -8  120.19    9.90
  -1  11  -8  137.09    8.80
   1 -11   8  133.39    7.30
   1 -11   8  135.89    9.20
   1 -11   8  123.29   10.20
  -2  11  -8   65.89    6.80
  -2  11  -8   70.49    5.90
  -2  11  -8   67.39    7.80
   2 -11   8   64.79    6.30
   2 -11   8   49.10    7.00
  -3  11  -8  138.19   10.60
  -3  11  -8  127.69   11.20
  -3  11  -8  128.19    7.90
   3 -11   8  134.09    9.90
   3 -11   8  135.79    8.40
  -4  11  -8  367.76   18.80
  -4  11  -8  353.86   14.30
  -4  11  -8  348.97   20.30
   4 -11   8  364.56   17.90
   4 -11   8  348.87   18.20
  -5  11  -8  295.57   18.70
  -5  11  -8  310.17   16.90
   5 -11   8  287.87   16.70
   5 -11   8  288.17   15.00
  -6  11  -8  194.28   13.10
   6 -11   8  183.78   11.70
   6 -11   8  170.18   15.10
   7  10  -8    0.40    2.20
  -7 -10   8    5.30    3.20
   6  10  -8    0.10    1.60
   6  10  -8    1.20    1.80
  -6 -10   8   -1.00    1.60
  -6 -10   8   -0.30    1.80
   5  10  -8   -0.20    1.70
   5  10  -8   -1.40    2.10
  -5 -10   8    2.00    2.10
  -5 -10   8   -1.90    2.00
   4  10  -8  219.68   13.40
   4  10  -8  192.78   12.50
  -4 -10   8  231.28   15.10
  -4 -10   8  210.68   14.00
   3  10  -8  109.99    8.30
   3  10  -8  101.19    8.70
  -3 -10   8  114.29   10.00
  -3 -10   8   99.19    9.00
  -3 -10   8  109.39    5.80
   2  10  -8  158.38   11.40
   2  10  -8  178.98   14.20
  -2 -10   8  170.58   12.30
  -2 -10   8  194.78   12.70
  -2 -10   8  186.68   10.00
   1  10  -8  255.47   21.30
   1  10  -8  276.07   14.20
  -1 -10   8  278.17   15.80
  -1 -10   8  294.27   13.10
   0  10  -8  420.46   18.40
   0  10  -8  425.56   20.40
   0 -10   8  427.96   18.00
   0 -10   8  413.26   20.60
  -1  10  -8  164.98   13.60
  -1  10  -8  166.78   11.50
  -1  10  -8  186.98   10.00
   1 -10   8  165.78   10.20
   1 -10   8  178.18   12.20
  -2  10  -8    7.90    2.70
  -2  10  -8    4.20    2.00
  -2  10  -8    5.40    2.80
   2 -10   8    9.90    2.70
   2 -10   8    8.60    2.40
  -3  10  -8  167.68    9.00
  -3  10  -8  174.68   12.00
  -3  10  -8  175.78   13.00
   3 -10   8  181.58   14.20
   3 -10   8  177.88   11.50
  -4  10  -8  162.88    8.20
  -4  10  -8  168.08   12.60
  -4  10  -8  174.18   13.40
   4 -10   8  167.48   11.30
   4 -10   8  165.78    9.90
  -5  10  -8   45.00    6.80
  -5  10  -8   44.20    6.20
   5 -10   8   34.70    4.80
   5 -10   8   35.90    5.50
  -6  10  -8  223.18   16.10
  -6  10  -8  245.98   14.70
   6 -10   8  230.08   14.70
   6 -10   8  240.68   13.60
  -7  10  -8  291.77   23.00
  -7  10  -8  290.87   16.90
   7 -10   8  295.37   15.90
   8   9  -8   -0.60    2.80
  -8  -9   8    5.10    2.40
  -8  -9   8   -0.80    2.10
   7   9  -8   43.80    5.80
   7   9  -8   48.50    6.00
  -7  -9   8   46.20    6.40
  -7  -9   8   50.69    6.90
   6   9  -8   12.90    2.70
   6   9  -8   10.60    3.20
  -6  -9   8   14.80    3.90
  -6  -9   8    8.50    3.50
   5   9  -8    8.50    2.40
   5   9  -8    8.40    2.60
  -5  -9   8    4.10    2.50
  -5  -9   8   12.70    3.20
   4   9  -8   32.40    5.80
   4   9  -8   24.70    4.50
  -4  -9   8   27.60    2.40
   3   9  -8    9.70    2.60
  -3  -9   8   17.60    4.50
   2   9  -8  280.47   15.30
   2   9  -8  293.17   14.50
  -2  -9   8  288.87   12.50
  -2  -9   8  288.87   15.90
   1   9  -8  406.46   19.20
   1   9  -8  381.86   17.40
  -1  -9   8  401.36   16.40
  -1  -9   8  392.96   19.50
   0   9  -8  291.37   15.40
   0   9  -8  282.37   13.70
   0  -9   8  300.47   16.40
   0  -9   8  283.77   13.40
  -1   9  -8  126.59    7.90
  -1   9  -8  126.99    9.80
  -1   9  -8  125.59    9.50
   1  -9   8  133.79    6.90
   1  -9   8  144.39    8.90
  -2   9  -8  208.68   12.70
  -2   9  -8  221.28   10.70
  -2   9  -8  211.58   13.40
   2  -9   8  223.38   10.50
   2  -9   8  223.38   12.40
  -3   9  -8  398.66   20.60
  -3   9  -8  443.76   20.10
  -3   9  -8  422.76   16.20
   3  -9   8  426.76   17.50
   3  -9   8  398.86   19.10
  -4   9  -8   84.99    8.00
  -4   9  -8   92.29    5.30
  -4   9  -8   98.09    9.50
   4  -9   8  104.99    8.50
   4  -9   8   93.39    6.80
  -5   9  -8   42.80    7.50
   5  -9   8   47.50    6.00
   5  -9   8   49.10    6.20
  -6   9  -8  143.59   10.40
  -6   9  -8  108.19   10.70
   6  -9   8  111.99    8.90
  -7   9  -8  137.49   11.00
  -7   9  -8  140.89   12.20
   7  -9   8  148.99   11.00
   7  -9   8  126.09    9.40
  -9  -8   8   46.10    6.70
  -9  -8   8   26.90    5.60
   8   8  -8   -1.40    1.60
  -8  -8   8    2.50    1.90
  -8  -8   8    2.30    2.40
   7   8  -8   38.70    5.40
   7   8  -8   52.79    5.70
  -7  -8   8   35.30    5.60
  -7  -8   8   41.00    6.70
   6   8  -8   88.49    7.80
   6   8  -8  100.79    8.20
  -6  -8   8  105.59    9.10
  -6  -8   8   89.29    9.20
   5   8  -8    3.10    1.40
   5   8  -8   -0.90    1.50
  -5  -8   8    1.70    1.50
  -5  -8   8    0.10    1.40
  -5  -8   8    2.20    0.90
   4   8  -8   11.30    3.10
   4   8  -8   10.00    3.20
  -4  -8   8   13.80    3.70
   3   8  -8    9.10    3.00
   3   8  -8    4.50    2.10
  -3  -8   8    5.40    2.00
  -3  -8   8    8.40    1.80
   2   8  -8    8.70    2.60
   2   8  -8   10.30    2.60
  -2  -8   8   14.50    2.50
  -2  -8   8   11.90    3.20
   1   8  -8  374.86   18.00
   1   8  -8  398.06   16.90
  -1  -8   8  407.96   19.50
  -1  -8   8  386.06   21.00
   0   8  -8  155.98   10.00
   0   8  -8  155.28    8.80
   0  -8   8  151.38    8.70
  -1   8  -8   89.29    7.10
  -1   8  -8   91.99    7.90
  -1   8  -8   92.89    6.20
   1  -8   8   92.19    6.90
   1  -8   8   98.19    5.60
  -2   8  -8  933.11   35.70
  -2   8  -8  912.81   34.60
  -2   8  -8  934.91   31.50
   2  -8   8  941.41   34.20
   2  -8   8  927.51   32.00
  -3   8  -8  263.97   11.10
  -3   8  -8  245.28   13.70
  -3   8  -8  264.97   15.20
   3  -8   8  258.87   12.00
   3  -8   8  247.58   13.70
  -4   8  -8   92.59    7.70
  -4   8  -8   84.79    4.90
  -4   8  -8   80.29    8.20
   4  -8   8   82.39    6.40
   4  -8   8   77.19    7.00
  -5   8  -8  108.99   14.10
  -5   8  -8  112.19    9.20
   5  -8   8  113.29    7.80
   5  -8   8  102.89    8.90
  -6   8  -8  106.09   10.10
  -6   8  -8  120.39    9.70
   6  -8   8  122.09    8.60
   6  -8   8  123.69    9.50
  -7   8  -8  104.19    9.40
  -7   8  -8   95.69    9.90
   7  -8   8   94.39    8.50
   7  -8   8  103.19    8.20
  -8   8  -8   68.99    8.10
  -8   8  -8   66.19    8.50
   8  -8   8   63.99    8.10
   8  -8   8   58.79    7.20
   9   7  -8   -1.10    1.80
  -9  -7   8    1.30    2.00
  -9  -7   8    3.20    2.10
   8   7  -8   22.10    4.20
  -8  -7   8   24.10    4.90
  -8  -7   8   23.30    5.30
   7   7  -8   35.00    4.70
   7   7  -8   28.30    6.30
  -7  -7   8   28.20    5.70
  -7  -7   8   27.60    4.70
   6   7  -8    0.20    1.70
   6   7  -8    1.30    1.70
  -6  -7   8    0.50    1.50
  -6  -7   8    2.50    1.20
  -6  -7   8   -0.80    1.80
   5   7  -8   12.40    3.50
   5   7  -8   14.10    3.30
  -5  -7   8   16.20    3.40
   4   7  -8    4.00    1.70
   4   7  -8    6.20    2.40
  -4  -7   8    7.60    2.80
   3   7  -8   13.60    2.80
   3   7  -8   11.30    3.10
  -3  -7   8   12.80    3.30
  -3  -7   8   15.00    2.10
   2   7  -8    8.60    2.40
   2   7  -8    9.80    3.00
  -2  -7   8    4.30    2.00
   1   7  -8   77.09    6.50
   1   7  -8   73.59    5.70
  -1  -7   8   79.09    5.50
   0   7  -8   44.60    4.90
   0  -7   8   46.10    4.30
  -1   7  -8  606.64   21.90
  -1   7  -8  554.74   23.50
  -1   7  -8  588.24   24.30
   1  -7   8  608.04   23.20
   1  -7   8  590.74   20.60
  -2   7  -8 1258.37   45.30
  -2   7  -8 1275.37   41.30
  -2   7  -8 1357.66   44.80
   2  -7   8 1245.28   43.80
   2  -7   8 1282.97   43.00
  -3   7  -8  117.99    9.20
  -3   7  -8  118.09    8.50
  -3   7  -8  127.69    6.60
   3  -7   8  119.39    8.40
   3  -7   8  129.79    7.50
  -4   7  -8  365.06   17.10
  -4   7  -8  350.96   18.00
  -4   7  -8  343.97   12.90
  -4   7  -8  336.37   15.30
   4  -7   8  333.47   16.80
   4  -7   8  323.77   15.00
  -5   7  -8  366.46   18.30
  -5   7  -8  363.26   18.00
  -5   7  -8  353.96   17.60
   5  -7   8  326.87   15.90
   5  -7   8  360.56   19.30
  -6   7  -8  162.78    9.90
  -6   7  -8  182.68   17.70
   6  -7   8  177.08   10.70
   6  -7   8  197.68   12.40
  -7   7  -8  105.59    9.60
  -7   7  -8  105.19    9.60
  -7   7  -8  105.69    7.80
   7  -7   8   87.89    8.30
   7  -7   8  100.99    8.10
  -8   7  -8  112.59    9.60
  -8   7  -8  111.49   10.20
   8  -7   8   80.89   11.30
  10   6  -8   25.10    4.20
 -10  -6   8   22.60    5.60
   9   6  -8  109.99    8.40
  -9  -6   8  105.79    9.90
  -9  -6   8  106.99    9.70
   8   6  -8  249.58   13.80
  -8  -6   8  257.57   16.10
  -8  -6   8  257.97   15.40
   7   6  -8    2.10    2.00
   7   6  -8    1.80    1.90
  -7  -6   8    4.80    1.50
  -7  -6   8    5.40    2.50
   6   6  -8    2.10    1.60
   6   6  -8    3.60    1.80
  -6  -6   8    7.70    2.50
  -6  -6   8    6.70    1.70
   5   6  -8   66.69    6.00
   5   6  -8   76.29    6.30
  -5  -6   8   71.89    6.80
  -5  -6   8   71.29    4.60
   4   6  -8  198.88   10.70
   4   6  -8  194.78   11.00
  -4  -6   8  204.68    8.90
  -4  -6   8  193.38   11.80
   3   6  -8    2.20    1.10
   3   6  -8    0.60    1.30
   3   6  -8    1.10    0.90
  -3  -6   8    1.30    1.20
  -3  -6   8   -0.50    0.70
   2   6  -8   -1.10    0.80
   2   6  -8    0.40    0.90
   2   6  -8    1.60    1.30
  -2  -6   8    1.40    1.50
  -2  -6   8    0.30    0.60
   1   6  -8   63.99    5.20
   1   6  -8   60.69    5.50
   1   6  -8   60.49    4.00
  -1  -6   8   71.89    3.50
  -1  -6   8   66.99    5.00
   0   6  -8   70.19    6.20
   0   6  -8   68.79    6.00
   0  -6   8   82.59    7.10
  -1   6  -8  392.56   15.20
  -1   6  -8  393.56   17.30
  -1   6  -8  392.16   17.70
   1  -6   8  385.36   14.50
   1  -6   8  388.36   16.60
  -2   6  -8   13.50    2.80
  -2   6  -8    9.70    2.70
  -2   6  -8   16.60    3.70
  -2   6  -8    9.40    1.90
   2  -6   8   10.30    2.30
   2  -6   8   10.20    2.00
  -3   6  -8   30.40    4.20
  -3   6  -8   39.90    4.20
  -3   6  -8   36.00    3.10
  -3   6  -8   41.90    4.90
   3  -6   8   24.60    3.80
   3  -6   8   39.60    3.80
  -4   6  -8  456.95   15.90
  -4   6  -8  452.35   20.40
  -4   6  -8  431.16   19.70
   4  -6   8  449.95   20.00
   4  -6   8  430.66   18.10
  -5   6  -8  574.54   22.60
  -5   6  -8  600.54   24.50
  -5   6  -8  571.34   24.80
   5  -6   8  528.65   22.10
   5  -6   8  552.84   24.10
  -6   6  -8  127.29    8.40
  -6   6  -8  112.19    9.70
   6  -6   8  122.19    9.60
   6  -6   8  136.89    8.80
  -7   6  -8   39.90    5.40
  -7   6  -8   41.30   11.00
  -7   6  -8   35.60    6.10
   7  -6   8   45.10    6.20
   7  -6   8   42.40    5.10
  -8   6  -8  115.69    9.90
  -8   6  -8  105.19   13.70
  -8   6  -8  117.99    9.70
  -8   6  -8  105.19    9.60
   8  -6   8  119.29   10.20
   8  -6   8  111.09    9.20
  10   5  -8   89.49    8.10
 -10  -5   8   95.89    9.40
 -10  -5   8  104.39    9.50
   9   5  -8  277.37   14.60
  -9  -5   8  296.87   17.30
  -9  -5   8  291.97   16.70
   8   5  -8  160.48    9.50
   8   5  -8  160.48   10.10
  -8  -5   8  167.68   17.00
  -8  -5   8  156.18   11.40
   7   5  -8   48.90    5.40
   7   5  -8   46.60    4.90
   7   5  -8   49.50    5.50
  -7  -5   8   57.19    5.60
  -7  -5   8   46.00    5.80
   6   5  -8   41.30    4.50
   6   5  -8   36.70    4.30
   6   5  -8   36.80    4.30
  -6  -5   8   37.50    5.10
  -6  -5   8   39.60    3.50
   5   5  -8   97.79    7.00
   5   5  -8  106.69    7.30
   5   5  -8  116.09    7.60
  -5  -5   8  103.69    8.00
  -5  -5   8  103.49    5.90
   4   5  -8    8.00    1.90
   4   5  -8   12.30    3.00
   4   5  -8    7.10    2.50
  -4  -5   8   10.00    1.90
  -4  -5   8   13.70    3.20
   3   5  -8   11.50    2.40
   3   5  -8   11.50    2.70
   3   5  -8    9.40    2.30
  -3  -5   8    9.40    2.60
  -3  -5   8   12.80    1.80
   2   5  -8    2.20    1.20
   2   5  -8    5.30    1.80
   2   5  -8    2.00    1.00
  -2  -5   8    1.60    1.10
   1   5  -8   12.10    1.70
   1   5  -8   12.60    2.80
   1   5  -8   11.90    2.70
  -1  -5   8   16.30    2.30
   0   5  -8   41.40    3.60
   0   5  -8   43.70    4.30
   0   5  -8   39.90    4.70
   0  -5   8   39.60    4.00
   0  -5   8   40.00    2.80
  -1   5  -8   32.70    3.20
  -1   5  -8   38.30    4.00
  -1   5  -8   32.30    3.70
   1  -5   8   32.10    3.60
   1  -5   8   27.60    2.70
  -2   5  -8    8.60    2.20
  -2   5  -8    8.10    2.40
  -2   5  -8    8.70    2.10
  -2   5  -8    8.80    1.60
   2  -5   8   14.20    2.00
   2  -5   8    7.80    1.70
  -3   5  -8  494.15   20.90
  -3   5  -8  497.75   17.50
  -3   5  -8  471.05   20.60
  -3   5  -8  520.65   22.40
   3  -5   8  492.45   18.90
   3  -5   8  520.55   21.00
  -4   5  -8  263.27   10.00
  -4   5  -8  249.38   12.40
  -4   5  -8  269.77   13.60
  -4   5  -8  234.68   13.20
   4  -5   8  246.58   13.40
   4  -5   8  257.47   12.20
  -5   5  -8  377.36   18.60
  -5   5  -8  366.76   18.10
  -5   5  -8  414.36   17.30
  -5   5  -8  408.96   18.40
   5  -5   8  381.36   16.80
   5  -5   8  368.56   18.10
  -6   5  -8  245.58   14.80
  -6   5  -8  263.17   14.60
  -6   5  -8  274.27   13.70
   6  -5   8  276.67   15.00
   6  -5   8  300.17   14.10
  -7   5  -8  155.88   10.30
  -7   5  -8  136.99   10.70
  -7   5  -8  148.29    9.60
  -7   5  -8  134.69   11.10
   7  -5   8  152.38    9.60
   7  -5   8  156.38   11.00
  -8   5  -8  216.58   15.00
  -8   5  -8  289.77   19.90
  -8   5  -8  281.27   14.60
  -8   5  -8  257.87   15.70
   8  -5   8  261.57   15.40
  11   4  -8   74.29    7.40
 -11  -4   8   79.69    8.60
 -11  -4   8   73.39    9.10
  10   4  -8  225.28   12.80
 -10  -4   8  214.88   14.40
 -10  -4   8  220.78   14.00
   9   4  -8  409.56   18.30
  -9  -4   8  388.16   21.20
  -9  -4   8  406.66   20.00
   8   4  -8  121.79    9.40
   8   4  -8  142.19    8.20
   8   4  -8  138.79    9.00
  -8  -4   8  139.99   10.10
   7   4  -8  166.38   10.10
   7   4  -8  169.38   10.50
   7   4  -8  178.58    9.40
  -7  -4   8  178.08   11.30
  -7  -4   8  175.08   10.40
   6   4  -8  227.38   11.90
   6   4  -8  245.68   12.50
   6   4  -8  253.67   13.90
  -6  -4   8  235.88   10.90
  -6  -4   8  246.28   13.20
   5   4  -8  175.78    9.50
   5   4  -8  169.38    9.60
   5   4  -8  182.38    9.60
  -5  -4   8  178.38   10.70
   4   4  -8    1.60    1.00
   4   4  -8    1.00    1.20
  -4  -4   8   -0.70    1.10
  -4  -4   8    1.30    1.00
   3   4  -8    4.40    1.40
   3   4  -8    4.80    1.50
   3   4  -8    2.00    1.10
  -3  -4   8    4.10    1.70
  -3  -4   8    4.10    1.30
   2   4  -8   15.10    3.90
   2   4  -8    8.40    1.70
   2   4  -8   11.20    2.00
  -2  -4   8   13.80    2.00
   1   4  -8    2.00    1.10
   1   4  -8   -0.10    0.70
   1   4  -8    3.00    1.30
   1   4  -8    0.70    0.70
  -1  -4   8    1.80    0.70
  -1  -4   8    3.50    1.20
   0   4  -8   33.30    3.60
   0   4  -8   31.00    3.60
   0  -4   8   36.40    2.60
   0  -4   8   29.50    3.20
   0  -4   8   29.10    2.40
  -1   4  -8    4.60    1.40
  -1   4  -8    3.70    1.30
  -1   4  -8    3.90    1.40
   1  -4   8    4.70    1.70
   1  -4   8    4.20    0.90
  -2   4  -8   22.20    3.00
  -2   4  -8   20.40    3.00
   2  -4   8   15.00    2.20
   2  -4   8   21.20    2.90
  -3   4  -8  339.27   16.40
  -3   4  -8  391.56   16.80
  -3   4  -8  391.76   16.30
   3  -4   8  392.06   17.00
   3  -4   8  381.06   15.40
  -4   4  -8  164.38    9.30
  -4   4  -8  165.98    9.70
  -4   4  -8  157.28   10.10
   4  -4   8  157.88    9.90
   4  -4   8  165.78    9.10
  -5   4  -8   73.09    6.10
  -5   4  -8   75.59    6.10
  -5   4  -8   71.89    6.80
   5  -4   8   74.39    5.90
   5  -4   8   83.29    6.80
  -6   4  -8  236.88   12.20
  -6   4  -8  191.68   12.70
  -6   4  -8  230.78   12.30
   6  -4   8  252.77   19.10
   6  -4   8  241.28   12.30
  -7   4  -8  247.68   15.20
  -7   4  -8  282.87   14.10
  -7   4  -8  294.07   14.30
   7  -4   8  290.67   15.70
   7  -4   8  283.17   14.30
  -8   4  -8  156.08   15.10
  -8   4  -8  161.48   10.60
  -8   4  -8  178.38   10.90
   8  -4   8  189.68   11.90
   8  -4   8  137.99   12.80
  11   3  -8   80.59    6.80
 -11  -3   8   66.59    7.60
 -11  -3   8   94.59    8.50
  10   3  -8  275.57   15.80
  10   3  -8  278.37   15.70
 -10  -3   8  253.07   15.30
 -10  -3   8  294.47   16.30
   9   3  -8  230.08   11.70
   9   3  -8  217.98   13.00
   9   3  -8  192.98    9.00
  -9  -3   8  205.98   13.10
  -9  -3   8  222.38   14.50
   8   3  -8  164.68   10.70
   8   3  -8  159.08    9.80
   8   3  -8  180.38   10.40
  -8  -3   8  178.68   11.20
   7   3  -8  512.35   20.50
   7   3  -8  530.25   21.50
   7   3  -8  509.25   21.50
  -7  -3   8  503.55   22.00
  -7  -3   8  503.85   19.90
   6   3  -8  461.25   19.50
   6   3  -8  484.75   18.50
   6   3  -8  479.45   19.10
   6   3  -8  492.65   17.30
  -6  -3   8  456.35   18.70
  -6  -3   8  486.05   20.50
   5   3  -8   43.60    4.10
   5   3  -8   44.30    4.20
   5   3  -8   34.20    3.90
   5   3  -8   36.80    3.60
   5   3  -8   39.80    2.40
  -5  -3   8   40.20    3.60
   4   3  -8   17.80    3.00
   4   3  -8   15.50    1.60
   4   3  -8   16.00    2.80
  -4  -3   8   17.50    2.60
   3   3  -8  141.89    7.60
   3   3  -8  142.99    7.80
  -3  -3   8  140.69    8.20
  -3  -3   8  149.79    8.90
   2   3  -8   49.60    4.70
   2   3  -8   48.60    3.80
   2   3  -8   50.89    4.30
  -2  -3   8   52.79    5.70
   1   3  -8    4.10    1.40
   1   3  -8    4.30    1.20
   1   3  -8    1.60    1.20
  -1  -3   8    2.10    1.10
  -1  -3   8    1.10    0.90
   0   3  -8    4.80    1.60
   0   3  -8    5.80    1.40
   0   3  -8    4.60    1.50
   0  -3   8    8.30    1.90
   0  -3   8    5.40    1.30
  -1   3  -8    6.90    1.90
  -1   3  -8    7.30    1.90
   1  -3   8    5.10    1.70
   1  -3   8    7.10    1.40
  -2   3  -8   17.40    2.60
  -2   3  -8   16.70    2.00
   2  -3   8   20.50    2.70
   2  -3   8   21.80    3.20
  -3   3  -8   67.79    5.70
  -3   3  -8   64.89    5.00
  -3   3  -8   66.09    5.30
   3  -3   8   65.39    5.40
   3  -3   8   76.19    5.20
  -4   3  -8   19.10    3.30
  -4   3  -8   29.70    2.10
  -4   3  -8   20.10    3.10
   4  -3   8   26.90    3.60
   4  -3   8   20.30    3.30
  -5   3  -8    1.50    1.90
  -5   3  -8    3.50    1.50
  -5   3  -8    4.60    1.70
   5  -3   8    5.90    2.50
   5  -3   8    1.60    1.80
  -6   3  -8  130.39    8.70
  -6   3  -8  115.69    9.10
  -6   3  -8  128.39    6.60
   6  -3   8  117.79    8.90
   6  -3   8  133.79    8.50
  -7   3  -8  292.07   18.00
  -7   3  -8  281.17   16.10
   7  -3   8  296.87   14.80
   7  -3   8  323.97   16.20
  -8   3  -8   77.69    8.10
  -8   3  -8   73.99    7.40
   8  -3   8   85.19    8.50
   8  -3   8  100.09    9.10
  11   2  -8  132.29   10.30
  11   2  -8  127.09    8.20
  11   2  -8  121.09    9.80
 -11  -2   8  111.99    9.60
 -11  -2   8  139.39   10.70
  10   2  -8  253.47   11.90
  10   2  -8  257.37   13.20
  10   2  -8  270.77   15.40
 -10  -2   8  274.97   15.60
 -10  -2   8  265.87   14.70
   9   2  -8  108.79    8.60
   9   2  -8  113.39    7.70
   9   2  -8   98.09    6.40
  -9  -2   8  107.29    8.40
   8   2  -8  208.48   12.30
   8   2  -8  219.28   10.20
   8   2  -8  223.08   11.40
  -8  -2   8  214.28   11.50
  -8  -2   8  217.68   12.20
   7   2  -8  424.76   18.90
   7   2  -8  429.46   16.30
   7   2  -8  439.56   17.90
   7   2  -8  437.26   16.60
  -7  -2   8  441.56   16.70
  -7  -2   8  441.06   19.10
  -7  -2   8  446.16   18.20
   6   2  -8  616.54   24.10
   6   2  -8  643.04   22.20
   6   2  -8  650.33   23.60
   6   2  -8  630.74   22.10
  -6  -2   8  614.84   22.70
  -6  -2   8  622.74   23.30
   5   2  -8  427.46   16.30
   5   2  -8  419.66   17.30
  -5  -2   8  420.76   15.90
  -5  -2   8  422.96   16.80
   4   2  -8  247.28   11.40
   4   2  -8  247.88   10.90
  -4  -2   8  241.98   11.00
  -4  -2   8  246.38   11.90
   3   2  -8  426.06   17.80
   3   2  -8  426.56   16.20
   3   2  -8  408.26   16.20
  -3  -2   8  427.86   17.10
   2   2  -8   29.70    3.00
   2   2  -8   21.50    2.60
   2   2  -8   22.00    3.50
  -2  -2   8   26.30    3.60
  -2  -2   8   25.10    2.40
   1   2  -8   12.50    2.60
   1   2  -8   14.80    2.00
   1   2  -8   14.80    1.90
  -1  -2   8   14.90    1.80
  -1  -2   8   14.20    2.10
   0   2  -8   16.50    1.90
   0   2  -8   15.60    2.40
   0  -2   8   14.90    2.00
   0  -2   8   17.70    2.30
   0  -2   8   15.40    1.90
  -1   2  -8    3.30    1.00
  -1   2  -8    1.90    1.30
   1  -2   8    3.10    1.20
   1  -2   8    1.10    1.30
  -2   2  -8  127.79    8.00
  -2   2  -8  132.99    6.40
  -2   2  -8  120.79    7.50
   2  -2   8  129.29    7.00
   2  -2   8  118.89    7.50
  -3   2  -8    0.40    1.20
  -3   2  -8    0.00    1.10
  -3   2  -8    0.60    1.00
   3  -2   8    0.70    1.00
   3  -2   8    2.10    1.10
  -4   2  -8    6.60    2.00
  -4   2  -8    6.20    2.20
  -4   2  -8    7.70    1.70
   4  -2   8    5.60    1.70
   4  -2   8    8.00    2.40
  -5   2  -8   23.30    3.50
  -5   2  -8   17.60    4.70
   5  -2   8   28.40    4.10
  -6   2  -8   59.99    5.90
  -6   2  -8   64.59    5.80
  -6   2  -8   55.59    6.20
   6  -2   8   58.69    5.90
   6  -2   8   64.79    5.90
  -7   2  -8  101.19    8.00
  -7   2  -8  100.19    8.90
  -7   2  -8  125.69    7.40
   7  -2   8  105.79    7.70
   7  -2   8  104.29    8.80
  -8   2  -8   30.50    4.90
   8  -2   8   50.29    6.70
   8  -2   8   41.60    5.40
  11   1  -8   51.09    6.50
  11   1  -8   61.19    6.00
  11   1  -8   58.39    6.80
 -11  -1   8   54.89    6.40
 -11  -1   8   49.70    6.80
 -11  -1   8   57.09    6.40
  10   1  -8   68.29    6.30
  10   1  -8   80.09    6.40
  10   1  -8   75.89    7.10
 -10  -1   8   74.39    7.40
 -10  -1   8   67.09    6.70
   9   1  -8   22.30    3.80
  -9  -1   8   19.50    3.70
   8   1  -8  303.67   15.20
   8   1  -8  294.77   13.70
   8   1  -8  303.97   13.60
  -8  -1   8  302.87   14.60
  -8  -1   8  303.67   14.80
   7   1  -8  222.88   12.10
   7   1  -8  226.38   11.20
   7   1  -8  222.48   10.90
  -7  -1   8  230.28   10.40
  -7  -1   8  232.48   11.90
  -7  -1   8  235.88   12.00
   6   1  -8  258.07   12.60
  -6  -1   8  235.48   11.90
  -6  -1   8  252.47   11.10
   5   1  -8  396.76   16.60
  -5  -1   8  393.56   16.50
  -5  -1   8  423.26   16.10
  -5  -1   8  400.46   16.60
   4   1  -8  292.47   13.50
   4   1  -8  282.37   11.60
   4   1  -8  276.57   12.60
  -4  -1   8  297.27   12.90
  -4  -1   8  294.07   13.00
   3   1  -8  837.82   29.80
   3   1  -8  774.32   26.80
  -3  -1   8  798.22   27.80
   2   1  -8  106.09    6.10
   2   1  -8  110.29    6.30
   2   1  -8  108.49    6.80
  -2  -1   8  109.99    5.90
  -2  -1   8  101.59    5.70
  -2  -1   8  105.29    6.30
   1   1  -8   14.80    2.10
   1   1  -8   14.10    2.30
  -1  -1   8   16.30    2.10
  -1  -1   8   11.30    1.70
  -1  -1   8   18.20    2.30
   0   1  -8   25.60    2.60
   0   1  -8   27.80    3.50
   0  -1   8   25.70    2.60
   0  -1   8   23.20    2.70
   0  -1   8   27.30    2.70
  -1   1  -8   94.99    6.40
  -1   1  -8   97.29    5.60
   1  -1   8   96.69    6.50
   1  -1   8   86.99    5.50
   1  -1   8   90.19    6.00
  -2   1  -8  120.59    6.40
  -2   1  -8  115.39    7.40
  -2   1  -8  106.79    7.00
   2  -1   8  116.59    6.70
   2  -1   8  112.59    7.00
  -3   1  -8    5.80    1.80
  -3   1  -8    3.60    1.60
  -3   1  -8   10.80    2.50
   3  -1   8    6.00    1.90
   3  -1   8    6.10    2.20
  -4   1  -8    2.80    1.80
  -4   1  -8    0.70    1.30
   4  -1   8    2.20    1.60
   4  -1   8   -1.30    1.20
  -5   1  -8   39.00    4.50
  -5   1  -8   36.40    4.60
  -5   1  -8   37.30    5.00
   5  -1   8   44.90    5.10
   5  -1   8   40.60    4.60
  -6   1  -8   76.89    6.00
  -6   1  -8   65.79    7.10
  -6   1  -8   63.69    6.50
   6  -1   8   74.09    6.60
   6  -1   8   79.39    6.80
  -7   1  -8   12.40    3.40
  -7   1  -8    1.90    3.50
  -7   1  -8    5.30    2.90
   7  -1   8    5.50    2.50
   7  -1   8   12.50    4.20
  12   0  -8  159.48   13.50
  12   0  -8  125.49    9.70
  12   0  -8  124.89   13.60
 -12   0   8  119.89    9.80
 -12   0   8  147.09   13.90
  11   0  -8  189.68   12.30
  11   0  -8  174.28   11.10
  11   0  -8  165.88   10.10
 -11   0   8  178.98   12.90
 -11   0   8  184.48   11.50
 -11   0   8  165.68   10.80
  10   0  -8   29.20    4.70
  10   0  -8   25.50    4.00
  10   0  -8   34.20    5.20
 -10   0   8   33.80    5.60
 -10   0   8   22.90    4.30
 -10   0   8   23.00    4.20
   9   0  -8   58.49    5.40
   9   0  -8   61.79    5.50
  -9   0   8   54.89    5.30
  -9   0   8   66.69    5.80
   8   0  -8  334.17   14.80
   8   0  -8  346.97   15.60
   8   0  -8  318.27   16.10
  -8   0   8  352.26   17.00
  -8   0   8  338.47   15.00
   7   0  -8  147.29    9.40
  -7   0   8  157.58    9.70
  -7   0   8  159.48   10.20
   6   0  -8   44.30    4.50
  -6   0   8   29.40    3.50
  -6   0   8   39.10    4.20
   5   0  -8  389.66   16.50
   5   0  -8  406.56   14.40
   5   0  -8  405.76   17.00
  -5   0   8  378.76   15.60
  -5   0   8  396.36   16.80
   4   0  -8 1322.77   43.70
   4   0  -8 1371.26   44.30
  -4   0   8 1393.36   44.90
  -4   0   8 1302.27   42.90
  -4   0   8 1323.27   43.90
  -4   0   8 1296.77   41.70
   3   0  -8  326.67   14.30
   3   0  -8  332.87   12.80
   3   0  -8  315.77   13.60
  -3   0   8  333.67   12.70
   2   0  -8   77.19    5.60
   2   0  -8   82.49    5.40
  -2   0   8   73.59    4.70
  -2   0   8   70.69    5.20
  -2   0   8   77.49    5.30
   1   0  -8  498.15   20.20
   1   0  -8  510.55   20.00
  -1   0   8  493.25   18.40
  -1   0   8  505.15   19.00
  -1   0   8  519.25   18.90
   0   0  -8  135.19    7.20
   0   0  -8  121.29    7.50
   0   0   8  130.49    9.80
   0   0   8  130.69    7.10
   0   0   8  128.39    7.20
  -1   0  -8    7.60    1.90
  -1   0  -8   11.30    1.50
   1   0   8    5.80    1.60
   1   0   8    6.10    1.40
   1   0   8    9.50    1.80
  -2   0  -8    4.00    1.40
  -2   0  -8    5.70    1.80
  -2   0  -8    5.70    1.80
   2   0   8    3.10    1.80
   2   0   8    5.00    2.60
   2   0   8    6.40    1.60
   2   0   8    5.10    1.90
  -3   0  -8    8.30    2.10
  -3   0  -8    7.70    2.10
  -3   0  -8    8.20    2.00
   3   0   8   11.00    1.90
   3   0   8    7.00    2.50
   3   0   8   10.30    2.50
  -4   0  -8   46.80    4.70
  -4   0  -8   48.00    5.20
  -4   0  -8   45.40    5.10
   4   0   8   48.70    4.60
   4   0   8   40.50    4.40
   4   0   8   47.50    5.70
  -5   0  -8  129.89    8.40
  -5   0  -8  117.49    8.70
  -5   0  -8  123.99    9.00
   5   0   8  121.69    8.10
   5   0   8  122.09    8.10
  -6   0  -8    3.90    2.60
  -6   0  -8   -0.30    1.90
  -6   0  -8   -0.90    2.60
   6   0   8    2.10    2.70
  -7   0  -8    6.40    5.30
  -7   0  -8    3.20    3.80
  -7   0  -8    4.70    2.70
   7   0   8   -2.30    3.60
   7   0   8    1.50    3.90
  12  -1  -8   67.19    8.40
 -12   1   8   79.29    9.00
 -12   1   8   61.89    7.40
  11  -1  -8  149.09    9.00
  11  -1  -8  144.59   10.30
  11  -1  -8  149.19   10.70
 -11   1   8  142.79    9.60
 -11   1   8  147.99    9.30
 -11   1   8  127.29   11.30
  10  -1  -8  169.28   11.60
  10  -1  -8  184.28   10.00
  10  -1  -8  174.48   11.70
 -10   1   8  180.48   10.20
 -10   1   8  174.28   12.90
 -10   1   8  176.68   10.30
   9  -1  -8  476.15   20.60
   9  -1  -8  482.05   19.20
  -9   1   8  439.76   18.70
  -9   1   8  477.75   19.80
   8  -1  -8  166.88   10.40
   8  -1  -8  166.78   10.60
  -8   1   8  183.98    9.40
  -8   1   8  179.88   10.10
   7  -1  -8  178.38   10.30
   7  -1  -8  183.08   10.60
  -7   1   8  174.88   10.70
  -7   1   8  172.18    8.80
  -7   1   8  165.38    9.60
   6  -1  -8  138.49    8.60
  -6   1   8  130.89    7.20
  -6   1   8  144.59    8.50
  -6   1   8  147.39    8.80
   5  -1  -8  350.76   15.20
   5  -1  -8  333.67   15.10
  -5   1   8  344.17   14.00
  -5   1   8  347.47   15.50
  -5   1   8  349.96   15.30
  -5   1   8  344.87   13.60
   4  -1  -8  715.23   23.60
   4  -1  -8  722.83   26.00
   4  -1  -8  686.13   25.70
  -4   1   8  759.22   27.00
  -4   1   8  692.23   24.80
  -4   1   8  713.93   26.30
  -4   1   8  702.03   24.30
   3  -1  -8   49.99    4.50
   3  -1  -8   44.80    4.20
  -3   1   8   50.49    4.10
  -3   1   8   48.50    4.80
  -3   1   8   49.00    4.50
   2  -1  -8  822.82   27.90
   2  -1  -8  771.02   27.30
  -2   1   8  756.82   27.00
  -2   1   8  754.82   27.40
   1  -1  -8  444.86   17.30
   1  -1  -8  445.76   17.60
  -1   1   8  433.96   17.50
  -1   1   8  423.76   17.20
  -1   1   8  436.56   17.60
   0  -1  -8  152.48    8.20
   0  -1  -8  149.09    8.40
   0   1   8  153.78    8.30
   0   1   8  155.08    9.20
   0   1   8  144.99    7.90
  -1  -1  -8  219.28   11.40
  -1  -1  -8  225.58   11.00
  -1  -1  -8  250.97   11.80
   1   1   8  232.38   10.60
   1   1   8  217.48    9.70
   1   1   8  228.58   11.50
   1   1   8  232.28   11.00
  -2  -1  -8   46.90    4.80
  -2  -1  -8   58.09    4.90
  -2  -1  -8   56.49    4.90
   2   1   8   52.59    4.60
   2   1   8   47.50    4.20
   2   1   8   56.49    5.20
  -3  -1  -8   -1.30    1.40
  -3  -1  -8   -1.10    1.40
  -3  -1  -8   -0.50    1.20
   3   1   8    1.00    1.80
   3   1   8   -0.10    1.40
   3   1   8    1.00    1.40
  -4  -1  -8   61.29    5.80
  -4  -1  -8   52.59    5.90
  -4  -1  -8   51.79    5.80
   4   1   8   58.79    4.90
   4   1   8   53.29    5.30
   4   1   8   53.29    6.70
  -5  -1  -8    3.40    2.60
  -5  -1  -8    9.40    2.70
  -5  -1  -8   11.30    2.90
   5   1   8    8.00    2.70
   5   1   8    1.80    2.70
   5   1   8   12.30    3.70
  -6  -1  -8    2.20    3.20
  -6  -1  -8   -0.50    2.10
  -6  -1  -8    1.20    2.50
   6   1   8    5.40    3.50
   6   1   8    2.80    2.70
   6   1   8    8.70    2.80
  11  -2  -8   33.30    5.90
  11  -2  -8   47.90    6.00
  11  -2  -8   35.20    4.90
 -11   2   8   38.40    6.60
 -11   2   8   32.70    5.40
 -11   2   8   37.90    5.20
  10  -2  -8  158.58   10.90
  10  -2  -8  155.08    9.30
  10  -2  -8  165.08   12.00
 -10   2   8  149.79   12.40
 -10   2   8  140.19    9.90
 -10   2   8  172.68    9.10
   9  -2  -8  284.77   15.30
   9  -2  -8  300.57   16.00
  -9   2   8  288.87   16.80
  -9   2   8  294.37   12.80
  -9   2   8  301.67   15.00
   8  -2  -8  116.39    9.10
   8  -2  -8  104.89    8.20
  -8   2   8  118.69    6.50
  -8   2   8  118.89    8.10
   7  -2  -8  223.98   12.20
  -7   2   8  233.08   12.20
  -7   2   8  226.98   12.90
  -7   2   8  216.48    9.50
   6  -2  -8  351.16   15.00
   6  -2  -8  317.97   15.00
  -6   2   8  323.17   12.30
  -6   2   8  327.87   15.80
  -6   2   8  315.77   14.20
  -6   2   8  324.97   15.40
   5  -2  -8  221.48   11.40
  -5   2   8  231.28   12.20
  -5   2   8  220.88   12.00
   4  -2  -8    0.60    1.10
   4  -2  -8    4.40    1.40
  -4   2   8    2.50    1.70
  -4   2   8    3.80    2.10
  -4   2   8    1.90    1.70
  -4   2   8    3.00    0.80
   3  -2  -8    2.20    1.20
   3  -2  -8    1.80    1.20
  -3   2   8    1.40    1.50
  -3   2   8    2.30    0.90
  -3   2   8    0.30    1.50
   2  -2  -8  595.14   22.40
   2  -2  -8  606.64   22.40
  -2   2   8  578.94   23.90
  -2   2   8  601.14   22.70
  -2   2   8  585.44   22.60
   1  -2  -8  192.48   10.20
   1  -2  -8  214.88   10.50
  -1   2   8  212.88   10.90
  -1   2   8  199.38   10.20
  -1   2   8  205.88   10.70
   0  -2  -8  218.58   13.90
   0  -2  -8  171.48    9.80
   0  -2  -8  174.98    9.60
   0   2   8  179.38    9.40
   0   2   8  170.78    9.60
   0   2   8  196.98   10.60
  -1  -2  -8  301.07   12.90
  -1  -2  -8  273.97   13.40
  -1  -2  -8  243.08   13.20
   1   2   8  295.27   12.70
   1   2   8  313.47   13.70
   1   2   8  298.97   14.30
  -2  -2  -8   71.09    6.40
  -2  -2  -8   75.49    6.30
  -2  -2  -8   80.99    6.00
   2   2   8   77.19    5.20
   2   2   8   76.49    6.00
   2   2   8   82.69    6.90
  -3  -2  -8    5.00    2.10
  -3  -2  -8    5.80    2.60
  -3  -2  -8    3.10    2.00
   3   2   8   -0.40    2.70
   3   2   8    0.40    1.80
   3   2   8    2.80    1.80
  -4  -2  -8   13.70    3.10
  -4  -2  -8    9.70    3.10
  -4  -2  -8    7.90    3.80
   4   2   8    9.80    3.30
   4   2   8   10.30    2.90
   4   2   8   13.80    2.80
  -5  -2  -8    0.80    2.90
  -5  -2  -8   10.60    2.90
  -5  -2  -8    5.30    2.40
   5   2   8    3.20    2.80
   5   2   8    6.90    2.70
   5   2   8    2.80    3.30
  -6  -2  -8   10.10    3.50
  -6  -2  -8   11.90    5.00
  -6  -2  -8   11.10    3.90
   6   2   8    8.70    3.60
  11  -3  -8    7.40    3.50
  11  -3  -8    1.80    2.60
  11  -3  -8    2.40    2.70
 -11   3   8   12.60    3.40
 -11   3   8    6.90    3.40
  10  -3  -8  144.09   10.60
  10  -3  -8  150.98   10.00
 -10   3   8  129.39   11.30
 -10   3   8  138.29    9.90
 -10   3   8  117.19    7.80
   9  -3  -8  237.78   16.10
   9  -3  -8  239.28   13.50
  -9   3   8  227.68   13.70
  -9   3   8  241.08   15.70
   8  -3  -8  209.18   13.20
   8  -3  -8  214.38   12.40
  -8   3   8  214.18   12.60
  -8   3   8  211.38   19.00
   7  -3  -8  297.57   15.00
  -7   3   8  318.97   16.50
  -7   3   8  310.07   16.90
  -7   3   8  326.37   16.10
   6  -3  -8  573.94   21.70
   6  -3  -8  541.45   22.50
  -6   3   8  571.84   22.40
  -6   3   8  547.25   23.40
  -6   3   8  554.54   24.20
  -6   3   8  551.94   23.70
   5  -3  -8  172.78   11.60
   5  -3  -8  159.98    9.60
  -5   3   8  176.58   10.60
  -5   3   8  167.18    9.70
  -5   3   8  172.38   10.50
   4  -3  -8   50.69    4.90
   4  -3  -8   58.29    4.90
  -4   3   8   59.59    5.40
  -4   3   8   51.99    5.60
  -4   3   8   42.20    4.60
   3  -3  -8  452.75   19.10
   3  -3  -8  460.15   18.50
  -3   3   8  467.45   19.60
  -3   3   8  478.05   19.60
  -3   3   8  481.35   20.80
   2  -3  -8  242.38   12.00
   2  -3  -8  241.08   11.60
  -2   3   8  240.18   13.30
  -2   3   8  245.68   12.10
  -2   3   8  230.58   12.40
   1  -3  -8  163.98    9.20
   1  -3  -8  160.08    9.20
  -1   3   8  168.78   10.00
  -1   3   8  153.28    8.10
  -1   3   8  143.59   10.30
  -1   3   8  165.98    9.00
   0  -3  -8   92.19    6.90
   0  -3  -8  103.09    7.40
   0  -3  -8  108.69    7.40
   0   3   8  100.19    6.70
   0   3   8  101.39    8.40
   0   3   8  102.39    8.00
   0   3   8  115.79    7.90
  -1  -3  -8  176.38   10.70
  -1  -3  -8  202.08    9.90
  -1  -3  -8  190.08   10.80
   1   3   8  193.38   11.50
   1   3   8  204.08   11.10
   1   3   8  171.38    9.40
  -2  -3  -8  305.27   15.90
  -2  -3  -8  347.67   15.20
  -2  -3  -8  327.07   15.90
   2   3   8  349.17   18.60
   2   3   8  331.27   15.60
   2   3   8  323.07   14.00
  -3  -3  -8   76.19    6.90
  -3  -3  -8   72.09    6.80
  -3  -3  -8   78.39    6.70
   3   3   8   72.59    5.50
   3   3   8   75.39    6.40
   3   3   8   82.29    7.70
  -4  -3  -8   91.79    7.50
  -4  -3  -8   74.39    7.20
  -4  -3  -8   85.19    7.30
   4   3   8   78.89    6.20
   4   3   8   87.49    7.00
   4   3   8   74.69    7.70
  -5  -3  -8   16.20    3.50
  -5  -3  -8   16.40    3.70
  -5  -3  -8   14.60    4.20
   5   3   8   13.20    4.90
   5   3   8   18.20    3.10
  11  -4  -8   10.20    2.80
  11  -4  -8    6.30    3.30
  11  -4  -8    9.90    4.60
 -11   4   8    7.10    3.70
 -11   4   8   11.70    4.40
  10  -4  -8    6.40    3.20
  10  -4  -8    7.70    3.60
 -10   4   8    9.30    3.80
 -10   4   8    3.60    3.50
   9  -4  -8   25.20    4.60
   9  -4  -8   25.80    4.90
  -9   4   8   25.90    5.70
  -9   4   8   26.40    5.40
   8  -4  -8   80.39    7.30
   8  -4  -8   87.09    8.60
  -8   4   8   80.89    7.80
  -8   4   8   84.69    9.00
   7  -4  -8  350.26   16.90
  -7   4   8  348.07   19.10
  -7   4   8  349.77   17.90
  -7   4   8  360.16   17.00
   6  -4  -8  396.06   18.20
  -6   4   8  413.96   18.70
  -6   4   8  415.26   19.60
  -6   4   8  426.76   20.70
  -6   4   8  410.76   19.60
   5  -4  -8  194.98   10.30
   5  -4  -8  193.68   11.00
  -5   4   8  197.58   11.30
  -5   4   8  195.08   12.20
  -5   4   8  196.38   11.70
  -5   4   8  182.38   11.90
   4  -4  -8  360.76   15.20
   4  -4  -8  337.57   15.70
  -4   4   8  330.67   16.50
  -4   4   8  343.57   17.40
  -4   4   8  330.17   16.30
  -4   4   8  358.86   16.70
   3  -4  -8  542.35   20.90
   3  -4  -8  535.35   21.70
  -3   4   8  535.75   22.00
  -3   4   8  524.05   23.30
  -3   4   8  520.75   24.00
  -3   4   8  533.25   22.60
   2  -4  -8    7.00    2.00
   2  -4  -8    8.20    2.20
  -2   4   8    5.20    2.20
  -2   4   8    8.90    2.20
  -2   4   8    9.70    3.00
  -2   4   8    4.40    1.90
   1  -4  -8   62.89    5.50
   1  -4  -8   66.59    5.80
  -1   4   8   51.99    6.30
  -1   4   8   59.59    6.50
  -1   4   8   60.49    5.40
  -1   4   8   63.79    4.70
   0  -4  -8  115.09    8.20
   0  -4  -8  132.79    7.20
   0  -4  -8  133.99    8.90
   0   4   8  122.89    9.40
   0   4   8  117.09    7.80
   0   4   8  100.69    9.00
  -1  -4  -8   74.19    6.70
  -1  -4  -8   81.89    5.80
  -1  -4  -8   62.09    6.40
   1   4   8   81.79    8.60
   1   4   8   64.39    5.80
   1   4   8   66.39    7.90
   1   4   8   69.49    6.50
  -2  -4  -8   49.10    6.10
  -2  -4  -8   53.89    6.20
  -2  -4  -8   66.39    5.80
   2   4   8   69.39    6.00
   2   4   8   54.49    5.10
   2   4   8   46.60    6.60
   2   4   8   60.49    7.10
  -3  -4  -8   79.09    9.70
  -3  -4  -8   55.99    6.50
  -3  -4  -8   49.20    5.70
   3   4   8   68.19    7.40
   3   4   8   64.29    5.80
   3   4   8   55.79    7.60
   3   4   8   67.59    6.30
  -4  -4  -8  153.08   10.90
  -4  -4  -8  154.68   10.20
  -4  -4  -8  122.19   10.50
   4   4   8  123.19   10.80
   4   4   8  146.79   11.20
   4   4   8  166.48    9.90
 -10   5   8   -5.40    2.90
 -10   5   8    2.20    3.30
   9  -5  -8   12.00    3.60
   9  -5  -8   12.60    3.60
  -9   5   8   14.30    3.60
  -9   5   8   12.30    4.20
   8  -5  -8   33.70    4.70
   8  -5  -8   26.20    5.10
  -8   5   8   42.80    5.50
  -8   5   8   23.80    6.20
   7  -5  -8   77.29    6.20
   7  -5  -8   71.39    6.90
  -7   5   8   97.49    8.70
  -7   5   8   70.69    8.40
   6  -5  -8  152.38    8.70
   6  -5  -8  156.58   10.20
  -6   5   8  150.78   11.10
  -6   5   8  135.19    9.90
  -6   5   8  139.19   11.20
   5  -5  -8  355.46   15.40
  -5   5   8  365.56   17.60
  -5   5   8  316.67   17.20
  -5   5   8  351.26   17.90
   4  -5  -8  454.35   21.30
   4  -5  -8  483.05   19.30
  -4   5   8  512.25   29.70
  -4   5   8  467.35   21.00
  -4   5   8  482.05   21.50
  -4   5   8  453.45   21.20
   3  -5  -8  456.15   18.50
   3  -5  -8  404.36   24.20
  -3   5   8  441.06   26.30
  -3   5   8  432.66   19.00
  -3   5   8  445.46   20.80
  -3   5   8  464.65   20.10
   2  -5  -8  108.19    8.40
   2  -5  -8  121.89    7.90
  -2   5   8  116.59    9.40
  -2   5   8  114.79    8.30
   1  -5  -8   63.89    5.70
   1  -5  -8   60.99    5.70
  -1   5   8   65.59    7.10
  -1   5   8   69.19    6.50
  -1   5   8   72.69    5.20
   0  -5  -8  137.29    8.00
   0  -5  -8  116.89    8.50
   0  -5  -8  114.99    8.80
   0   5   8  101.69    9.70
   0   5   8  117.99    8.00
   0   5   8  103.49    9.50
  -1  -5  -8   55.79    5.10
  -1  -5  -8   59.09    6.00
  -1  -5  -8   52.79    5.90
   1   5   8   66.49    6.60
   1   5   8   45.60    6.80
   1   5   8   41.30    5.30
  -2  -5  -8   17.30    3.60
  -2  -5  -8   24.80    4.50
   2   5   8   14.70    3.60
   2   5   8   13.20    5.00
   2   5   8   18.30    4.20
   2   5   8   23.80    4.80
  -3  -5  -8   69.69    6.40
  -3  -5  -8   76.29    7.20
  -3  -5  -8   63.29    7.90
   3   5   8   69.59    8.80
   3   5   8   57.89    7.50
   3   5   8   71.89    6.90
  10  -6  -8   -5.30    2.70
  10  -6  -8   -3.30    2.40
 -10   6   8    3.60    3.20
 -10   6   8    2.00    3.20
   9  -6  -8    4.50    2.50
   9  -6  -8    8.10    3.10
  -9   6   8   13.20    4.00
  -9   6   8    2.40    3.60
   8  -6  -8   41.20    5.40
   8  -6  -8   30.20    6.20
  -8   6   8   25.40    5.40
  -8   6   8   28.90    6.30
   7  -6  -8   27.30    5.20
  -7   6   8   37.30    5.50
  -7   6   8   27.50    6.30
  -7   6   8   21.30    4.80
   6  -6  -8    8.80    2.90
   6  -6  -8    8.40    2.50
  -6   6   8    5.70    3.60
  -6   6   8    5.00    3.20
   5  -6  -8  108.29    8.80
   5  -6  -8  116.89    8.60
  -5   6   8   95.99    8.80
  -5   6   8  100.09    8.80
  -5   6   8  103.29   10.00
   4  -6  -8  333.27   16.60
   4  -6  -8  338.87   15.20
  -4   6   8  328.07   17.80
  -4   6   8  329.17   17.10
  -4   6   8  340.27   18.80
   3  -6  -8  216.58   12.50
   3  -6  -8  223.38   11.60
  -3   6   8  223.48   12.20
  -3   6   8  211.28   14.00
  -3   6   8  226.48   13.10
  -3   6   8  215.18   14.10
   2  -6  -8  172.88   10.70
  -2   6   8  166.98   10.00
  -2   6   8  191.08   12.80
  -2   6   8  184.38   13.00
  -2   6   8  172.88   11.40
   1  -6  -8  288.17   15.20
   1  -6  -8  270.47   14.30
  -1   6   8  275.77   14.80
  -1   6   8  279.67   17.00
  -1   6   8  272.47   17.10
   0  -6  -8  247.48   13.50
   0  -6  -8  201.38   12.20
   0   6   8  208.88   12.20
   0   6   8  203.58   14.20
   0   6   8  233.78   14.80
  -1  -6  -8   36.20    5.30
  -1  -6  -8   43.30    6.10
   1   6   8   39.80    5.90
   1   6   8   42.50    7.30
   1   6   8   49.70    7.40
  -2  -6  -8   17.00    3.50
  -2  -6  -8   11.60    5.30
   2   6   8    7.50    3.90
   2   6   8   15.10    4.90
   9  -7  -8    7.50    3.70
   9  -7  -8    6.00    3.50
  -9   7   8    6.10    4.90
  -9   7   8   12.00    4.40
   8  -7  -8   44.40    9.30
   8  -7  -8   41.00    6.00
  -8   7   8   58.09    8.10
  -8   7   8   51.49    6.20
  -8   7   8   40.80    7.60
   7  -7  -8    1.40    2.00
  -7   7   8   -1.80    2.80
  -7   7   8   -0.70    2.50
   6  -7  -8   14.90    3.70
   6  -7  -8    8.00    2.70
  -6   7   8   22.70    5.40
  -6   7   8    2.00    3.70
  -6   7   8   10.40    3.80
   5  -7  -8  134.49    9.80
   5  -7  -8  140.99    8.50
  -5   7   8  141.99   11.50
  -5   7   8  140.99   11.00
  -5   7   8  102.09   10.90
   4  -7  -8  121.09    9.00
   4  -7  -8  112.59    7.90
  -4   7   8  121.29   11.00
  -4   7   8  119.39    9.60
  -4   7   8  137.59   10.70
   3  -7  -8   58.89    6.10
   3  -7  -8   67.49    6.00
  -3   7   8   62.79    6.90
  -3   7   8   62.19    8.00
  -3   7   8   61.79    7.80
   2  -7  -8  278.87   15.20
   2  -7  -8  271.97   14.20
  -2   7   8  284.47   17.50
  -2   7   8  275.17   17.40
   1  -7  -8  343.07   18.40
   1  -7  -8  405.26   19.10
  -1   7   8  375.66   21.20
  -1   7   8  387.36   21.00
   0  -7  -8  146.89   10.70
   0   7   8  168.38   13.10
   0   7   8  191.68   15.30
  -7   8   8    2.10    3.90
  -7   8   8    8.90    3.80
   6  -8  -8   36.80    5.60
  -6   8   8   29.60    7.80
  -6   8   8   24.30    5.90
  -6   8   8   29.50    5.90
   5  -8  -8   20.60    4.00
   5  -8  -8   19.90    4.40
  -5   8   8   14.90    4.10
  -5   8   8   17.80    4.70
   4  -8  -8    1.50    2.50
   4  -8  -8    3.80    2.70
  -4   8   8    9.90    6.10
  -4   8   8    3.50    5.00
  -4   8   8    0.40    3.80
   3  -8  -8   12.30    3.00
   3  -8  -8    4.20    4.90
  -3   8   8   11.50    4.60
   2  -8  -8  229.98   13.40
   2  -8  -8  204.98   12.20
  -2   8   8  199.58   15.30
  -2   8   8  190.58   20.70
   1  13  -9   30.50    5.00
   1  13  -9   42.70    6.60
  -1 -13   9   43.20    6.20
  -1 -13   9   43.80    5.70
   0  13  -9   44.70    5.50
   0  13  -9   44.00   13.00
   0 -13   9   40.90    9.40
   0 -13   9   43.00    6.40
   0 -13   9   39.40    5.90
  -1  13  -9   89.89    9.20
  -1  13  -9   98.99    8.10
   1 -13   9   82.29    8.80
   1 -13   9   85.89    8.00
   1 -13   9   99.49    8.60
  -2  13  -9   71.29    6.90
  -2  13  -9   74.39    8.70
  -2  13  -9   80.99    9.00
   2 -13   9   77.59    8.40
   2 -13   9   62.09    7.60
   4  12  -9   68.49    7.40
  -4 -12   9   74.89    9.20
  -4 -12   9   81.39   12.90
   3  12  -9    9.60    3.60
   3  12  -9    8.20    2.60
  -3 -12   9   10.90    3.90
   2  12  -9    2.40    2.20
   2  12  -9    2.80    2.60
  -2 -12   9    6.10    3.60
  -2 -12   9   10.90    3.90
   1  12  -9   25.90    5.40
   1  12  -9   19.30    4.00
  -1 -12   9   38.30    5.70
  -1 -12   9   16.70    4.20
  -1 -12   9   22.00    4.00
  -1 -12   9   25.40    3.90
   0  12  -9    3.30    2.40
   0  12  -9    1.50    2.00
   0 -12   9    4.50    2.10
   0 -12   9    0.30    2.00
   0 -12   9    3.60    2.70
  -1  12  -9  280.97   16.90
  -1  12  -9  296.67   14.90
   1 -12   9  296.87   15.50
   1 -12   9  299.87   17.80
   1 -12   9  290.77   16.40
  -2  12  -9   35.50    5.90
  -2  12  -9   45.00    6.60
   2 -12   9   49.50    6.10
   2 -12   9   47.50    5.60
   2 -12   9   46.10    7.30
   2 -12   9   50.29    5.20
  -3  12  -9   32.50    4.60
  -3  12  -9   32.10    6.20
   3 -12   9   23.90    4.90
   3 -12   9   40.80    4.30
  -4  12  -9  188.38   20.90
  -4  12  -9  216.98   14.50
   4 -12   9  202.08   17.40
   4 -12   9  210.18   11.60
   5  11  -9   91.89    9.20
   5  11  -9   91.79    8.90
  -5 -11   9   94.29    9.60
  -5 -11   9  100.59   10.20
   4  11  -9   35.50    5.30
   4  11  -9   25.00    4.50
  -4 -11   9   25.00    5.40
  -4 -11   9   27.80    6.10
   3  11  -9    1.70    1.90
   3  11  -9    2.30    1.90
  -3 -11   9    2.90    2.20
   2  11  -9   32.00    5.60
   2  11  -9   27.90    5.10
  -2 -11   9   28.10    3.60
  -2 -11   9   30.30    5.70
  -2 -11   9   22.80    4.60
   1  11  -9   41.00    6.10
   1  11  -9   48.80    5.50
  -1 -11   9   43.10    4.70
  -1 -11   9   36.80    6.60
   0  11  -9   12.80    3.80
   0 -11   9   14.60    3.90
   0 -11   9   17.00    3.70
  -1  11  -9   31.10    6.10
  -1  11  -9   28.80    4.20
   1 -11   9   30.40    4.10
   1 -11   9   22.30    5.10
  -2  11  -9   42.60    4.80
  -2  11  -9   44.50    6.30
  -2  11  -9   47.00    6.60
   2 -11   9   34.40    4.20
   2 -11   9   35.20    5.90
  -3  11  -9  180.68   12.70
  -3  11  -9  164.38    9.20
  -3  11  -9  177.98   13.00
   3 -11   9  155.48   11.40
   3 -11   9  173.78    9.70
  -4  11  -9  238.18   10.80
  -4  11  -9  243.28   16.20
  -4  11  -9  245.08   15.20
   4 -11   9  242.68   12.60
   4 -11   9  236.98   14.50
  -5  11  -9  168.88   12.20
  -5  11  -9  165.48   13.30
   5 -11   9  154.98   10.30
   5 -11   9  158.58   11.80
  -6  11  -9   51.29    8.00
  -6  11  -9   52.29    7.70
   6 -11   9   34.70    6.50
   6 -11   9   46.80    6.10
   7  10  -9    6.20    4.00
   7  10  -9    9.80    3.00
  -7 -10   9    7.00    3.40
   6  10  -9   55.99    6.60
   6  10  -9   55.09    6.20
  -6 -10   9   46.80    7.20
  -6 -10   9   44.60    6.70
   5  10  -9   42.40    5.30
   5  10  -9   38.60    5.60
  -5 -10   9   33.80    6.80
  -5 -10   9   50.19    6.70
   4  10  -9   14.40    3.60
   4  10  -9   16.00    4.20
  -4 -10   9   15.70    4.00
  -4 -10   9   18.50    4.80
   3  10  -9    5.60    2.50
   3  10  -9    3.80    2.30
  -3 -10   9    3.30    2.50
   2  10  -9  194.48   13.00
   2  10  -9  215.58   13.50
  -2 -10   9  215.18   15.10
  -2 -10   9  228.38   10.60
   1  10  -9   10.40    2.90
   1  10  -9   12.00    3.50
  -1 -10   9    9.80    3.40
  -1 -10   9   11.80    2.70
   0  10  -9   10.10    2.60
   0  10  -9    7.70    3.00
   0 -10   9    8.20    3.10
   0 -10   9    6.30    2.80
  -1  10  -9   47.50    6.30
  -1  10  -9   43.80    4.70
   1 -10   9   39.60    5.00
   1 -10   9   39.10    4.10
  -2  10  -9   34.50    6.00
  -2  10  -9   37.60    6.20
  -2  10  -9   42.90    4.50
   2 -10   9   39.80    5.40
  -3  10  -9   39.00    5.70
  -3  10  -9   35.50    6.60
  -3  10  -9   32.80    3.90
   3 -10   9   35.90    4.10
   3 -10   9   29.40    5.20
  -4  10  -9  128.99   11.10
  -4  10  -9  118.19    9.80
  -4  10  -9  118.89    6.90
   4 -10   9  120.69    9.00
   4 -10   9  109.79    8.10
  -5  10  -9   88.79    8.70
  -5  10  -9   77.29    9.00
   5 -10   9   82.19    8.20
   5 -10   9   88.69    7.40
  -6  10  -9   86.49    9.60
  -6  10  -9   97.09    8.70
   6 -10   9   88.09    9.60
   8   9  -9   71.69    7.70
  -8  -9   9   65.49    7.90
   7   9  -9  171.08   11.60
   7   9  -9  176.98   11.90
  -7  -9   9  177.28   13.80
  -7  -9   9  187.68   13.60
   6   9  -9  396.26   20.00
   6   9  -9  409.66   19.80
  -6  -9   9  409.76   22.50
  -6  -9   9  411.46   21.70
   5   9  -9   49.40    6.10
   5   9  -9   59.59    6.30
  -5  -9   9   57.39    4.00
  -5  -9   9   69.99    7.60
  -5  -9   9   63.39    7.90
   4   9  -9   28.80    3.20
   4   9  -9   15.20    4.10
  -4  -9   9   19.20    3.60
  -4  -9   9   17.30    4.50
   3   9  -9   50.39    5.70
   3   9  -9   54.59    6.40
  -3  -9   9   55.29    6.90
   2   9  -9   75.99    6.60
   2   9  -9   66.39    6.90
  -2  -9   9   60.99    7.10
  -2  -9   9   61.09    5.00
   1   9  -9    2.10    1.60
   1   9  -9    3.10    2.20
  -1  -9   9   -0.30    1.90
  -1  -9   9    2.40    1.40
   0   9  -9   47.70    5.70
   0   9  -9   40.40    4.50
   0  -9   9   46.60    4.70
  -1   9  -9  168.88   11.50
  -1   9  -9  167.58    9.50
   1  -9   9  172.58   10.30
   1  -9   9  174.18    8.30
  -2   9  -9    7.80    2.80
  -2   9  -9    5.40    2.10
  -2   9  -9    4.60    2.70
   2  -9   9    5.00    2.80
   2  -9   9    8.50    1.90
  -3   9  -9   24.80    5.00
  -3   9  -9   28.80    6.10
   3  -9   9   26.00    3.80
  -4   9  -9   39.40    6.30
  -4   9  -9   45.30    4.10
  -4   9  -9   55.19    5.60
   4  -9   9   53.79    6.10
   4  -9   9   37.50    4.70
  -5   9  -9   19.40    4.60
  -5   9  -9   21.70    5.60
   5  -9   9   26.30    5.90
   5  -9   9   32.00    4.50
  -6   9  -9  135.19   11.30
  -6   9  -9  140.69   11.80
   6  -9   9  133.69    9.40
  -7   9  -9  245.38   19.80
  -7   9  -9  229.28   15.20
   7  -9   9  220.78   14.50
   7  -9   9  243.88   15.10
  -9  -8   9   69.99    8.40
   8   8  -9  190.18   12.30
  -8  -8   9  193.68   13.60
  -8  -8   9  190.78   14.40
   7   8  -9  523.35   23.60
   7   8  -9  516.35   23.70
  -7  -8   9  560.64   27.20
  -7  -8   9  545.75   26.00
   6   8  -9  392.96   18.80
   6   8  -9  373.76   18.80
  -6  -8   9  397.96   20.60
  -6  -8   9  385.46   14.70
  -6  -8   9  403.66   21.60
   5   8  -9   51.99    6.10
   5   8  -9   57.19    6.20
  -5  -8   9   53.09    4.30
  -5  -8   9   54.49    7.60
   4   8  -9   90.29    7.70
   4   8  -9   88.59    7.40
  -4  -8   9   91.49    5.50
  -4  -8   9   84.89    8.10
   3   8  -9  179.38   11.60
   3   8  -9  186.78   11.00
  -3  -8   9  193.08   12.50
  -3  -8   9  187.58   12.50
   2   8  -9    6.70    2.30
   2   8  -9    3.80    1.60
  -2  -8   9    4.20    2.20
  -2  -8   9    7.10    1.70
   1   8  -9    0.80    1.00
   1   8  -9   -2.50    1.30
  -1  -8   9    2.50    1.30
  -1  -8   9    1.20    1.80
   0   8  -9   21.60    4.60
   0   8  -9   26.80    3.40
   0  -8   9   23.30    3.30
  -1   8  -9    7.30    1.90
  -1   8  -9    9.60    2.40
   1  -8   9    5.50    1.40
   1  -8   9    5.40    2.00
  -2   8  -9   10.70    3.30
  -2   8  -9    8.00    2.80
   2  -8   9    5.00    2.60
   2  -8   9    6.10    1.60
  -3   8  -9    0.50    2.40
   3  -8   9   -1.20    2.40
   3  -8   9   -2.10    1.10
  -4   8  -9   42.00    3.70
  -4   8  -9   35.70    9.60
  -4   8  -9   30.40    5.20
   4  -8   9   37.40    5.10
   4  -8   9   41.20    4.40
  -5   8  -9   17.80    5.20
   5  -8   9   14.70    3.20
   5  -8   9   23.50    4.40
  -6   8  -9  253.47   15.40
  -6   8  -9  253.67   15.70
   6  -8   9  224.18   12.80
   6  -8   9  252.87   15.10
  -7   8  -9  130.49   10.70
  -7   8  -9  104.59    9.70
   7  -8   9  116.39    8.80
   7  -8   9  116.79   11.00
   9   7  -9   67.99    7.10
  -9  -7   9   80.69    8.40
  -9  -7   9   68.79   11.10
   8   7  -9  200.08   12.30
   8   7  -9  237.88   13.60
  -8  -7   9  224.58   15.50
  -8  -7   9  207.78   14.30
   7   7  -9  382.26   18.30
   7   7  -9  375.16   24.60
  -7  -7   9  374.46   19.80
  -7  -7   9  340.97   17.60
  -7  -7   9  366.56   20.40
   6   7  -9  216.78   12.60
  -6  -7   9  223.58   17.70
   5   7  -9  316.77   16.00
   5   7  -9  302.27   15.40
  -5  -7   9  317.77   17.10
  -5  -7   9  319.57   12.90
   4   7  -9  358.96   17.40
   4   7  -9  352.26   16.60
  -4  -7   9  361.56   14.20
  -4  -7   9  382.36   18.70
   3   7  -9  168.88    9.80
   3   7  -9  163.58   10.50
  -3  -7   9  167.98   11.20
  -3  -7   9  172.48    9.50
   2   7  -9   17.70    3.80
   2   7  -9   17.20    3.40
  -2  -7   9   16.80    4.00
  -2  -7   9   20.50    2.80
   1   7  -9   41.80    4.90
   1   7  -9   33.30    4.20
  -1  -7   9   40.10    4.00
   0   7  -9    3.90    1.80
   0   7  -9    4.40    1.70
   0  -7   9    6.40    1.70
   0  -7   9    4.20    1.00
  -1   7  -9    7.10    2.50
  -1   7  -9    4.10    2.90
   1  -7   9    5.00    1.90
   1  -7   9    5.30    1.30
  -2   7  -9   53.89    4.60
  -2   7  -9   55.99    5.90
  -2   7  -9   54.09    5.90
   2  -7   9   55.89    4.40
   2  -7   9   57.09    5.90
  -3   7  -9    1.70    1.50
  -3   7  -9    4.30    2.20
  -3   7  -9    1.70    1.50
  -3   7  -9    2.30    1.80
   3  -7   9    0.50    1.90
   3  -7   9    0.00    1.10
  -4   7  -9    8.00    2.90
  -4   7  -9   12.50    2.20
  -4   7  -9   11.40    2.80
   4  -7   9   10.70    2.00
  -5   7  -9    6.60    3.00
  -5   7  -9   -0.80    2.20
  -5   7  -9    3.90    2.30
   5  -7   9    5.80    2.40
   5  -7   9    5.10    3.00
  -6   7  -9   49.60    5.90
  -6   7  -9   48.90    7.30
  -6   7  -9   49.20    6.90
   6  -7   9   56.19    6.50
   6  -7   9   54.09    5.70
  -7   7  -9    5.30    3.20
  -7   7  -9    3.00    3.40
  -7   7  -9   -1.40    4.10
   7  -7   9   -0.40    2.00
   7  -7   9    5.20    2.40
  10   6  -9   57.39    6.30
 -10  -6   9   66.39    8.10
 -10  -6   9   55.59    8.20
   9   6  -9  131.49    9.70
  -9  -6   9  101.09   10.30
  -9  -6   9  124.29   10.50
   8   6  -9  213.28   12.20
   8   6  -9  224.68   13.10
  -8  -6   9  226.78   14.30
  -8  -6   9  223.18   15.10
   7   6  -9  237.28   18.10
   7   6  -9  228.78   12.50
  -7  -6   9  224.38   14.40
   6   6  -9  118.89    8.20
   6   6  -9  122.59    8.60
  -6  -6   9  116.49    6.80
  -6  -6   9  130.99    9.90
   5   6  -9  580.04   23.20
   5   6  -9  583.14   23.80
   5   6  -9  589.34   23.60
  -5  -6   9  588.14   21.20
  -5  -6   9  602.34   25.60
   4   6  -9 1321.87   45.20
   4   6  -9 1360.86   46.00
   4   6  -9 1314.47   44.50
  -4  -6   9 1344.17   42.70
  -4  -6   9 1350.76   47.50
   3   6  -9  566.64   21.10
   3   6  -9  543.05   22.70
   3   6  -9  554.94   21.90
  -3  -6   9  574.34   24.30
  -3  -6   9  554.04   21.50
   2   6  -9   90.49    6.50
   2   6  -9   93.09    7.20
   2   6  -9   91.39    5.80
  -2  -6   9  103.39    6.30
  -2  -6   9   97.69    8.00
   1   6  -9  342.87   16.10
   1   6  -9  350.56   13.40
   1   6  -9  319.67   14.40
  -1  -6   9  359.56   14.90
   0   6  -9  256.17   13.00
   0   6  -9  219.08   14.80
   0  -6   9  224.08   11.50
   0  -6   9  233.18    9.40
  -1   6  -9   17.70    3.30
  -1   6  -9   15.60    2.40
  -1   6  -9   11.50    3.10
   1  -6   9   16.90    2.10
   1  -6   9   11.50    2.90
  -2   6  -9   10.00    2.90
  -2   6  -9   20.50    3.70
  -2   6  -9   16.90    2.60
   2  -6   9   17.00    2.40
   2  -6   9   10.30    2.80
  -3   6  -9   46.10    5.30
  -3   6  -9   48.60    5.40
  -3   6  -9   48.00    3.90
  -3   6  -9   50.69    5.20
   3  -6   9   53.29    4.30
   3  -6   9   47.90    5.40
  -4   6  -9   -0.60    1.70
  -4   6  -9    0.90    1.90
  -4   6  -9    2.80    1.40
  -4   6  -9   -4.70    2.00
   4  -6   9   -1.80    1.90
   4  -6   9    1.00    1.40
  -5   6  -9   17.10    4.10
  -5   6  -9   17.70    3.80
  -5   6  -9   17.60    3.40
   5  -6   9    8.60    2.40
   5  -6   9   14.10    3.50
  -6   6  -9    8.60    3.40
  -6   6  -9   13.00    3.50
  -6   6  -9   10.10    3.60
   6  -6   9    5.60    2.40
   6  -6   9    3.40    2.80
  -7   6  -9   27.10    5.10
  -7   6  -9   27.00    5.20
  -7   6  -9   21.60    4.90
   7  -6   9   25.10    4.20
   7  -6   9   27.00    5.20
  10   5  -9   51.49    6.00
 -10  -5   9   50.29    6.80
 -10  -5   9   46.50    6.70
   9   5  -9   95.39    8.10
  -9  -5   9   98.39    9.00
  -9  -5   9   95.29    9.70
   8   5  -9   91.89    7.90
   8   5  -9  104.69    7.50
  -8  -5   9   98.29    6.70
  -8  -5   9   96.29    8.60
   7   5  -9   29.30    4.50
   7   5  -9   32.30    4.00
   7   5  -9   31.90    4.50
  -7  -5   9   26.50    3.50
  -7  -5   9   29.10    4.50
   6   5  -9  129.29    8.80
   6   5  -9  105.19    8.00
   6   5  -9  133.79    8.50
  -6  -5   9  130.49    7.60
  -6  -5   9  132.19    9.60
   5   5  -9  443.06   18.80
   5   5  -9  452.45   18.80
   5   5  -9  430.16   18.40
  -5  -5   9  450.85   20.30
  -5  -5   9  423.36   18.50
   4   5  -9  383.56   16.70
   4   5  -9  364.66   15.80
   4   5  -9  364.86   16.00
  -4  -5   9  365.96   17.60
  -4  -5   9  376.76   15.00
   3   5  -9  266.37   13.00
   3   5  -9  272.97   12.50
   3   5  -9  268.57   12.00
  -3  -5   9  256.67   14.00
  -3  -5   9  248.08   12.70
   2   5  -9  524.85   19.00
   2   5  -9  503.95   20.80
   2   5  -9  502.65   19.80
  -2  -5   9  525.15   20.10
   1   5  -9  712.13   27.50
   1   5  -9  699.73   26.90
   1   5  -9  734.13   24.30
  -1  -5   9  724.33   26.00
   0   5  -9  163.18    7.30
   0   5  -9  158.18    9.70
   0   5  -9  169.18    9.90
   0   5  -9  173.78    8.80
   0  -5   9  153.78    8.80
   0  -5   9  164.48    7.40
  -1   5  -9    6.50    1.30
  -1   5  -9    4.60    1.80
  -1   5  -9    3.20    1.70
   1  -5   9    5.20    1.10
   1  -5   9    2.40    1.10
   1  -5   9    5.50    1.70
  -2   5  -9   13.50    2.30
  -2   5  -9   11.40    2.70
  -2   5  -9   13.10    3.00
   2  -5   9   17.30    2.40
   2  -5   9   17.60    2.60
  -3   5  -9    0.50    1.60
  -3   5  -9    1.50    1.50
  -3   5  -9    0.50    1.10
   3  -5   9   -2.40    1.30
   3  -5   9   -1.10    1.30
  -4   5  -9   43.90    4.70
  -4   5  -9   46.50    5.70
  -4   5  -9   52.99    3.80
  -4   5  -9   44.00    5.20
   4  -5   9   50.59    5.30
   4  -5   9   46.50    4.50
  -5   5  -9    6.70    2.20
  -5   5  -9    1.20    2.10
  -5   5  -9    1.40    2.00
   5  -5   9    0.50    1.70
   5  -5   9   -0.60    2.20
  -6   5  -9   25.90    5.10
  -6   5  -9   22.80    4.40
  -6   5  -9   22.20    4.30
  -6   5  -9   34.00    5.00
   6  -5   9   23.50    5.00
   6  -5   9   23.40    3.90
  -7   5  -9   20.80    4.20
  -7   5  -9   18.50    4.30
  -7   5  -9   21.10    4.80
  -7   5  -9   20.30    4.00
   7  -5   9   16.10    3.60
   7  -5   9   12.60    3.80
  11   4  -9   34.20    5.20
 -11  -4   9   51.09    7.20
 -11  -4   9   38.40    7.80
  10   4  -9  176.38   11.20
 -10  -4   9  175.38   13.20
 -10  -4   9  178.28   12.50
   9   4  -9  186.18   11.80
   9   4  -9  172.48   11.20
  -9  -4   9  164.88   12.50
  -9  -4   9  183.18   12.20
   8   4  -9  151.98    8.60
   8   4  -9  141.99   10.20
   8   4  -9  166.38   10.10
  -8  -4   9  149.09    8.90
  -8  -4   9  140.79   10.60
   7   4  -9   25.30    4.40
   7   4  -9   29.00    4.60
   7   4  -9   25.50    3.70
  -7  -4   9   24.90    4.20
  -7  -4   9   28.80    3.30
   6   4  -9  160.88    9.70
   6   4  -9  153.28    9.30
   6   4  -9  157.18    9.10
  -6  -4   9  161.28    8.70
  -6  -4   9  163.28   10.60
  -6  -4   9  163.08    7.10
   5   4  -9  456.55   19.00
   5   4  -9  450.15   18.60
   5   4  -9  489.35   21.70
  -5  -4   9  451.55   20.20
  -5  -4   9  446.06   17.60
   4   4  -9   55.29    4.90
   4   4  -9   50.29    4.60
   4   4  -9   48.80    4.50
  -4  -4   9   48.60    5.20
   3   4  -9  505.25   20.50
   3   4  -9  534.35   20.40
  -3  -4   9  535.15   22.30
   2   4  -9 1313.67   45.70
   2   4  -9 1293.47   47.30
   2   4  -9 1325.47   43.90
   2   4  -9 1352.46   43.00
  -2  -4   9 1414.46   44.30
   1   4  -9  469.95   19.40
   1   4  -9  494.05   20.30
   1   4  -9  519.45   17.80
  -1  -4   9  457.35   18.50
  -1  -4   9  472.65   16.60
   0   4  -9  246.18   12.60
   0   4  -9  236.58   12.00
   0   4  -9  257.07   10.10
   0  -4   9  240.18   10.00
   0  -4   9  233.88   11.50
  -1   4  -9  454.45   19.50
  -1   4  -9  461.35   19.40
   1  -4   9  495.35   19.80
   1  -4   9  451.55   19.00
  -2   4  -9  157.88    6.80
  -2   4  -9  157.98    9.50
  -2   4  -9  144.89    9.40
   2  -4   9  170.48    8.40
   2  -4   9  161.08    9.40
  -3   4  -9   31.00    3.90
  -3   4  -9   27.20    4.20
   3  -4   9   42.60    4.30
   3  -4   9   32.80    3.80
  -4   4  -9    5.20    1.80
  -4   4  -9    5.10    2.10
   4  -4   9    2.90    2.30
   4  -4   9    4.80    1.90
  -5   4  -9    5.30    2.40
  -5   4  -9    4.60    2.40
   5  -4   9   10.00    2.60
  -6   4  -9    0.30    2.20
  -6   4  -9   -0.80    1.70
   6  -4   9    0.30    1.80
   6  -4   9   -2.10    2.40
  -7   4  -9   62.99    7.50
  -7   4  -9   68.69    7.10
   7  -4   9   60.39    6.80
  11   3  -9    3.00    2.30
 -11  -3   9   -2.10    2.10
 -11  -3   9    0.50    2.70
  10   3  -9  177.98   11.80
  10   3  -9  167.68   10.60
 -10  -3   9  165.98   12.30
 -10  -3   9  152.78   11.50
   9   3  -9  125.19    9.60
   9   3  -9  140.99    8.90
   9   3  -9  125.29    6.80
   8   3  -9  186.38   11.20
   8   3  -9  169.08   10.20
   8   3  -9  171.68    8.30
   8   3  -9  195.08   13.50
  -8  -3   9  175.58   10.30
  -8  -3   9  190.08   11.80
   7   3  -9  209.48   12.10
   7   3  -9  228.18   10.70
   7   3  -9  219.68   11.60
  -7  -3   9  213.38    9.00
  -7  -3   9  214.98   12.20
  -7  -3   9  213.98   11.10
   6   3  -9  465.35   19.50
   6   3  -9  448.16   18.80
   6   3  -9  449.66   16.50
  -6  -3   9  443.16   18.70
  -6  -3   9  473.45   20.20
  -6  -3   9  457.15   18.30
   5   3  -9  224.08   11.50
   5   3  -9  236.58   11.90
   5   3  -9  247.68   12.00
  -5  -3   9  240.98   12.60
  -5  -3   9  231.98   11.10
   4   3  -9    1.30    0.90
   4   3  -9    1.60    1.40
  -4  -3   9    1.30    1.10
   3   3  -9  480.05   18.90
   3   3  -9  449.16   19.80
  -3  -3   9  493.15   18.60
   2   3  -9  584.54   20.10
   2   3  -9  544.35   20.90
   2   3  -9  531.95   21.90
  -2  -3   9  528.95   18.70
  -2  -3   9  537.35   20.30
   1   3  -9  272.37   11.30
   1   3  -9  269.47   13.20
  -1  -3   9  259.67   11.90
  -1  -3   9  252.07   10.40
   0   3  -9  427.66   15.40
   0   3  -9  407.16   17.60
   0   3  -9  382.06   17.00
   0  -3   9  425.66   17.00
   0  -3   9  415.56   15.30
  -1   3  -9  595.54   23.80
  -1   3  -9  596.34   23.70
  -1   3  -9  653.53   21.40
   1  -3   9  637.24   23.70
   1  -3   9  624.44   22.00
  -2   3  -9  396.76   17.50
  -2   3  -9  445.66   15.20
   2  -3   9  398.56   17.40
   2  -3   9  404.96   16.30
  -3   3  -9   53.99    3.90
  -3   3  -9   55.89    5.20
   3  -3   9   60.29    5.60
   3  -3   9   54.69    4.80
  -4   3  -9   14.30    3.00
  -4   3  -9   18.00    3.70
   4  -3   9    9.70    3.20
   4  -3   9   14.40    2.70
  -5   3  -9   18.80    3.50
  -5   3  -9   13.90    3.40
  -5   3  -9   16.70    2.60
   5  -3   9   15.00    3.00
   5  -3   9   22.50    3.90
  -6   3  -9   17.70    3.90
  -6   3  -9    7.90    3.00
  -6   3  -9   16.00    3.50
   6  -3   9   13.60    2.70
   6  -3   9   19.10    3.50
  -7   3  -9   37.60    5.40
  -7   3  -9   43.10    5.90
   7  -3   9   46.00    5.40
   7  -3   9   47.40    6.10
  11   2  -9    6.60    3.30
  11   2  -9   -0.60    2.20
 -11  -2   9    2.00    3.20
 -11  -2   9   -1.10    2.40
  10   2  -9   80.59    8.10
  10   2  -9   76.09    6.20
 -10  -2   9   70.09    8.00
 -10  -2   9   74.59    7.10
   9   2  -9   91.99    7.90
   9   2  -9   84.79    6.20
   9   2  -9   86.29    6.60
  -9  -2   9   75.49    7.30
   8   2  -9  102.99    6.50
   8   2  -9   95.49    6.90
   8   2  -9   96.79    8.20
  -8  -2   9  106.79    7.90
  -8  -2   9  103.49    7.90
  -8  -2   9   90.29    7.90
   7   2  -9  650.93   23.10
   7   2  -9  673.33   25.20
   7   2  -9  659.13   26.10
   7   2  -9  682.43   23.80
  -7  -2   9  671.73   26.00
  -7  -2   9  649.43   25.20
  -7  -2   9  636.04   23.30
   6   2  -9  737.13   28.20
   6   2  -9  772.02   27.90
   6   2  -9  770.82   26.40
  -6  -2   9  744.73   26.00
  -6  -2   9  752.62   27.70
  -6  -2   9  755.32   28.50
   5   2  -9   92.49    6.80
   5   2  -9  102.79    6.30
  -5  -2   9   94.89    6.70
  -5  -2   9   94.09    6.50
  -5  -2   9  100.09    6.40
   4   2  -9  422.56   16.50
   4   2  -9  415.36   18.30
   4   2  -9  418.66   17.10
  -4  -2   9  415.66   20.60
  -4  -2   9  403.56   16.80
   3   2  -9  332.17   14.10
   3   2  -9  342.37   14.20
   3   2  -9  339.47   15.50
  -3  -2   9  321.17   13.90
   2   2  -9   93.49    8.70
   2   2  -9   93.29    7.00
   2   2  -9   85.09    6.50
  -2  -2   9   87.69    5.20
  -2  -2   9   87.19    5.80
   1   2  -9  116.29    6.30
   1   2  -9  100.49    7.20
   1   2  -9   95.99    7.00
  -1  -2   9  101.29    5.30
  -1  -2   9  106.79    6.60
  -1  -2   9  109.79    5.90
   0   2  -9  374.16   16.80
   0   2  -9  397.46   16.70
   0   2  -9  433.06   15.60
   0  -2   9  403.36   15.40
   0  -2   9  395.66   16.50
   0  -2   9  408.96   15.30
  -1   2  -9  669.63   25.30
  -1   2  -9  704.93   23.20
   1  -2   9  650.43   24.60
   1  -2   9  651.13   23.50
  -2   2  -9  284.17   13.60
  -2   2  -9  304.47   11.90
   2  -2   9  269.77   12.40
   2  -2   9  282.17   13.40
  -3   2  -9  189.28   11.20
  -3   2  -9  195.68   11.00
  -3   2  -9  198.38    9.20
   3  -2   9  192.78   10.20
   3  -2   9  193.58   10.70
  -4   2  -9  270.87   11.10
  -4   2  -9  241.88   13.70
  -4   2  -9  237.88   13.00
   4  -2   9  272.07   13.40
   4  -2   9  264.67   14.30
  -5   2  -9   20.20    5.20
  -5   2  -9   19.80    3.90
  -5   2  -9   25.60    3.30
   5  -2   9   17.40    3.40
   5  -2   9   28.30    3.90
  -6   2  -9    9.20    3.00
  -6   2  -9   14.60    3.00
  -6   2  -9    8.20    2.70
   6  -2   9    9.50    3.30
   6  -2   9   14.90    3.10
  -7   2  -9   -1.50    2.00
  -7   2  -9    2.30    3.80
   7  -2   9   -1.90    3.50
   7  -2   9   -2.20    2.30
  11   1  -9    2.70    2.50
  11   1  -9    2.00    2.80
  11   1  -9   -0.30    2.40
 -11  -1   9    4.30    4.40
 -11  -1   9    5.50    3.00
  10   1  -9   40.20    5.80
  10   1  -9   35.20    4.50
  10   1  -9   27.40    4.50
 -10  -1   9   30.60    5.00
   9   1  -9   18.30    3.10
   9   1  -9   15.50    2.30
   9   1  -9    7.60    2.70
  -9  -1   9   12.60    2.60
  -9  -1   9   11.10    3.40
   8   1  -9  118.59    8.40
   8   1  -9  121.99    7.90
   8   1  -9  120.69    6.20
   8   1  -9  126.29    8.30
  -8  -1   9  119.09    8.30
  -8  -1   9  114.39    8.60
   7   1  -9  366.76   17.20
   7   1  -9  377.56   16.60
   7   1  -9  372.96   16.10
  -7  -1   9  386.46   16.80
  -7  -1   9  372.76   17.00
   6   1  -9   80.79    6.60
  -6  -1   9   93.79    6.80
  -6  -1   9   90.99    7.30
  -6  -1   9   83.19    6.40
   5   1  -9  159.98    9.40
   5   1  -9  164.48    8.20
  -5  -1   9  171.48    9.50
  -5  -1   9  156.58    9.10
  -5  -1   9  172.48    9.20
   4   1  -9 1172.48   37.50
   4   1  -9 1101.59   38.40
   4   1  -9 1167.68   39.80
  -4  -1   9 1161.18   39.00
  -4  -1   9 1120.69   38.70
   3   1  -9   58.89    5.90
   3   1  -9   66.59    5.70
   3   1  -9   64.59    4.80
  -3  -1   9   61.29    5.00
   2   1  -9  226.78   11.50
   2   1  -9  225.28   10.50
  -2  -1   9  214.58    9.20
  -2  -1   9  214.38   10.60
  -2  -1   9  221.88   10.10
   1   1  -9  166.78    9.50
   1   1  -9  177.08    8.70
  -1  -1   9  157.38    7.80
  -1  -1   9  169.28    8.90
  -1  -1   9  168.18    8.50
   0   1  -9  127.49    8.00
   0   1  -9  132.19    7.20
   0  -1   9  123.59    7.40
   0  -1   9  134.69    7.30
   0  -1   9  137.29    7.20
  -1   1  -9  148.79    8.90
  -1   1  -9  159.28    8.00
   1  -1   9  152.58    8.50
   1  -1   9  154.38    9.00
   1  -1   9  145.39    7.90
  -2   1  -9  111.09    7.70
  -2   1  -9  101.39    7.20
  -2   1  -9   98.19    7.20
   2  -1   9  114.59    7.50
   2  -1   9  101.19    6.90
   2  -1   9   99.19    6.60
  -3   1  -9  358.56   14.60
  -3   1  -9  324.37   15.80
  -3   1  -9  369.16   16.80
   3  -1   9  367.56   15.70
   3  -1   9  339.67   15.00
  -4   1  -9  248.68   11.50
  -4   1  -9  223.98   13.40
   4  -1   9  246.18   12.00
   4  -1   9  234.08   12.00
  -5   1  -9   99.99    8.40
  -5   1  -9  119.99    7.50
  -5   1  -9   90.89    7.60
   5  -1   9   98.19    7.80
   5  -1   9  119.39    7.90
  -6   1  -9   18.30    4.30
  -6   1  -9   17.90    4.30
  -6   1  -9   22.80    4.10
   6  -1   9   12.60    4.00
   6  -1   9   16.10    3.40
  -7   1  -9   27.40    5.60
   7  -1   9   36.70    5.30
  11   0  -9    8.70    3.70
  11   0  -9   11.60    3.70
  11   0  -9    8.20    3.30
 -11   0   9   14.30    3.40
 -11   0   9    6.80    3.90
 -11   0   9   13.80    3.40
  10   0  -9   -2.20    2.00
  10   0  -9    1.40    1.90
  10   0  -9    1.20    2.00
 -10   0   9   -1.80    1.90
 -10   0   9   -0.60    2.00
   9   0  -9   -1.20    1.50
   9   0  -9   -1.10    1.60
   9   0  -9   -0.10    1.80
  -9   0   9    1.90    1.80
  -9   0   9    0.20    1.70
   8   0  -9   29.70    4.10
   8   0  -9   30.30    4.30
  -8   0   9   29.80    4.40
  -8   0   9   30.30    3.90
  -8   0   9   25.90    3.60
   7   0  -9   61.89    5.80
   7   0  -9   63.99    6.10
  -7   0   9   67.29    6.20
  -7   0   9   72.89    5.60
  -7   0   9   66.29    5.40
   6   0  -9   69.19    6.00
   6   0  -9   81.89    5.40
  -6   0   9   77.99    6.00
  -6   0   9   69.79    5.60
  -6   0   9   77.09    6.40
   5   0  -9  559.24   22.70
   5   0  -9  560.64   22.30
  -5   0   9  590.34   22.80
  -5   0   9  565.74   20.00
  -5   0   9  590.84   22.60
  -5   0   9  564.34   21.40
   4   0  -9 1190.18   37.70
   4   0  -9 1133.99   39.50
   4   0  -9 1181.68   40.40
  -4   0   9 1198.08   39.20
  -4   0   9 1209.58   40.50
  -4   0   9 1153.18   39.80
  -4   0   9 1128.69   37.30
   3   0  -9  471.15   18.50
   3   0  -9  455.55   17.50
   3   0  -9  471.95   19.20
  -3   0   9  470.25   18.80
  -3   0   9  448.86   17.10
   2   0  -9  252.97   12.50
   2   0  -9  271.57   12.00
  -2   0   9  249.78   11.20
  -2   0   9  248.68   11.90
  -2   0   9  269.07   12.00
   1   0  -9  354.46   16.00
   1   0  -9  387.96   15.50
  -1   0   9  375.56   15.40
  -1   0   9  371.46   15.20
  -1   0   9  387.16   15.60
   0   0  -9  489.35   20.10
   0   0  -9  511.05   19.20
   0   0   9  471.15   19.00
   0   0   9  518.95   19.40
   0   0   9  513.55   19.50
  -1   0  -9  101.29    6.40
  -1   0  -9   94.99    6.90
   1   0   9  102.49    6.50
   1   0   9  104.59    7.00
   1   0   9  100.39    6.40
  -2   0  -9   77.39    6.20
  -2   0  -9   77.89    5.70
  -2   0  -9   70.69    6.00
   2   0   9   83.99    6.50
   2   0   9   70.59    5.50
   2   0   9   71.39    5.60
  -3   0  -9  180.68   11.10
  -3   0  -9  217.68   11.70
  -3   0  -9  211.88   10.70
   3   0   9  208.28   12.00
   3   0   9  184.68   12.80
   3   0   9  201.78   10.40
  -4   0  -9  133.69    9.30
  -4   0  -9  138.59    9.60
  -4   0  -9  132.49    8.40
   4   0   9  121.69    8.10
   4   0   9  135.29    8.50
   4   0   9  124.59    9.60
  -5   0  -9   97.69    8.60
  -5   0  -9  120.59    8.10
  -5   0  -9  105.79    8.30
   5   0   9   89.29    7.50
   5   0   9   99.39    9.20
   5   0   9  100.79    7.60
  -6   0  -9  158.78   11.40
  -6   0  -9  153.98   10.70
  -6   0  -9  145.49   10.60
   6   0   9  160.88   10.40
   6   0   9  139.19    9.40
   6   0   9  148.99   11.80
  11  -1  -9    7.60    3.10
  11  -1  -9    3.30    4.00
  11  -1  -9    2.40    3.20
 -11   1   9   -3.30    2.90
 -11   1   9    1.00    4.50
 -11   1   9    4.10    3.30
 -11   1   9   -2.30    3.30
  10  -1  -9    0.30    2.80
  10  -1  -9    3.20    2.30
  10  -1  -9    3.90    2.30
 -10   1   9    4.70    2.40
 -10   1   9    2.10    2.70
 -10   1   9    2.30    2.20
   9  -1  -9   -1.60    1.80
  -9   1   9    2.80    1.90
  -9   1   9   -1.50    1.40
   8  -1  -9    2.80    2.10
   8  -1  -9    3.90    2.30
  -8   1   9    3.60    1.80
  -8   1   9    2.30    2.00
  -8   1   9    6.40    2.30
   7  -1  -9    3.40    2.00
  -7   1   9    8.10    2.20
  -7   1   9    6.70    2.70
  -7   1   9    5.40    1.60
   6  -1  -9   44.60    4.70
   6  -1  -9   41.90    4.80
  -6   1   9   41.80    5.00
  -6   1   9   40.80    3.90
  -6   1   9   40.40    4.70
   5  -1  -9  150.58    9.10
   5  -1  -9  148.59    9.10
  -5   1   9  158.28    7.90
  -5   1   9  146.29    8.10
  -5   1   9  160.98    9.50
  -5   1   9  157.88    9.50
   4  -1  -9  130.19    8.30
   4  -1  -9  142.49    7.20
   4  -1  -9  144.49    8.70
  -4   1   9  142.19    8.70
  -4   1   9  137.19    7.80
  -4   1   9  138.29    7.60
  -4   1   9  153.68    9.50
   3  -1  -9  544.25   20.90
   3  -1  -9  528.05   21.10
  -3   1   9  542.85   22.30
  -3   1   9  507.05   20.90
  -3   1   9  519.65   20.10
   2  -1  -9  344.67   14.90
   2  -1  -9  347.07   15.40
  -2   1   9  347.57   15.20
   1  -1  -9  700.23   27.00
   1  -1  -9  754.52   26.70
  -1   1   9  736.93   26.60
  -1   1   9  749.62   27.00
   0  -1  -9  309.57   13.80
   0  -1  -9  297.87   14.30
   0   1   9  329.57   14.70
   0   1   9  325.27   14.30
   0   1   9  313.37   13.50
  -1  -1  -9    7.70    2.20
  -1  -1  -9   10.10    2.40
  -1  -1  -9    8.20    1.90
   1   1   9   10.60    2.60
   1   1   9   11.20    2.40
  -2  -1  -9   85.49    6.70
  -2  -1  -9  103.09    7.30
  -2  -1  -9   78.39    6.90
   2   1   9   94.29    6.80
   2   1   9   98.39    6.50
   2   1   9  100.39    7.70
  -3  -1  -9   68.99    5.90
  -3  -1  -9   60.39    6.30
  -3  -1  -9   65.79    5.90
   3   1   9   61.09    5.20
   3   1   9   70.79    5.90
  -4  -1  -9   91.59    7.80
  -4  -1  -9   78.79    7.40
  -4  -1  -9   86.89    7.20
   4   1   9   83.79    7.90
   4   1   9   86.59    6.90
   4   1   9   89.29    6.50
  -5  -1  -9   27.60    4.40
  -5  -1  -9   28.40    4.50
  -5  -1  -9   23.50    4.50
   5   1   9   20.90    4.70
   5   1   9   24.10    4.00
   5   1   9   34.90    5.10
  -6  -1  -9  125.49   10.00
  -6  -1  -9  134.29   12.70
   6   1   9  148.59    9.40
  11  -2  -9    7.00    3.60
  11  -2  -9    5.50    2.80
  11  -2  -9    2.10    2.60
 -11   2   9   -0.60    3.10
 -11   2   9    6.20    3.00
  10  -2  -9    5.50    2.50
  10  -2  -9    9.50    3.40
  10  -2  -9    6.50    3.20
 -10   2   9    7.10    2.80
 -10   2   9   11.20    3.90
 -10   2   9   12.70    4.00
   9  -2  -9   10.90    3.20
   9  -2  -9   19.70    4.30
  -9   2   9   21.70    4.10
  -9   2   9   17.90    4.40
   8  -2  -9    0.70    2.20
   8  -2  -9    2.20    1.80
  -8   2   9    3.90    2.40
  -8   2   9   -1.60    1.70
   7  -2  -9   11.60    3.00
  -7   2   9   16.50    3.30
  -7   2   9   17.60    2.70
  -7   2   9    9.90    3.20
   6  -2  -9   52.29    5.50
   6  -2  -9   59.89    5.20
  -6   2   9   51.39    5.10
  -6   2   9   61.09    7.00
  -6   2   9   42.00    5.20
   5  -2  -9   69.89    5.90
   5  -2  -9   79.19    6.20
  -5   2   9   67.49    4.10
  -5   2   9   73.29    6.30
  -5   2   9   80.19    6.80
  -5   2   9   77.49    6.00
   4  -2  -9    2.50    1.30
   4  -2  -9    1.70    1.40
   4  -2  -9    2.00    1.60
  -4   2   9    3.30    1.90
  -4   2   9    3.40    1.10
  -4   2   9    4.00    1.70
  -4   2   9    2.20    1.90
   3  -2  -9  210.48   10.90
   3  -2  -9  206.08   10.90
  -3   2   9  208.98   12.30
  -3   2   9  225.28   12.70
  -3   2   9  197.88   11.00
   2  -2  -9  526.55   21.10
   2  -2  -9  564.24   21.40
  -2   2   9  543.55   21.50
  -2   2   9  519.25   22.90
  -2   2   9  515.95   21.20
   1  -2  -9  418.56   18.20
   1  -2  -9  429.86   18.20
  -1   2   9  445.66   18.80
  -1   2   9  444.16   18.90
  -1   2   9  450.45   18.20
   0  -2  -9  144.19    9.10
   0  -2  -9  156.18    9.10
   0   2   9  147.39    8.50
   0   2   9  159.38    9.80
   0   2   9  167.28    9.50
  -1  -2  -9  264.67   13.20
  -1  -2  -9  242.58   13.20
  -1  -2  -9  290.87   13.10
   1   2   9  272.57   13.10
   1   2   9  255.47   12.30
   1   2   9  265.77   13.90
  -2  -2  -9  471.05   19.30
  -2  -2  -9  400.86   19.50
  -2  -2  -9  446.66   19.40
   2   2   9  429.26   17.70
   2   2   9  469.85   19.30
   2   2   9  475.25   21.70
  -3  -2  -9   60.59    6.60
  -3  -2  -9   53.49    7.60
  -3  -2  -9   50.39    5.70
   3   2   9   45.20    5.20
   3   2   9   64.69    6.60
   3   2   9   48.30    4.90
  -4  -2  -9   21.40    4.50
  -4  -2  -9   22.20    4.00
  -4  -2  -9   19.90    4.20
   4   2   9   27.30    4.00
   4   2   9   24.80    4.00
   4   2   9   34.40    4.90
  -5  -2  -9   66.19    6.80
  -5  -2  -9   51.39    6.70
   5   2   9   49.30    6.20
  11  -3  -9   44.00    5.90
  11  -3  -9   46.40    6.50
 -11   3   9   41.20    6.40
 -11   3   9   37.60    6.40
  10  -3  -9   -5.40    2.50
  10  -3  -9    4.40    2.60
 -10   3   9    3.80    2.70
 -10   3   9   -1.40    2.90
   9  -3  -9   31.80    5.30
   9  -3  -9   26.80    4.90
  -9   3   9   21.10    5.30
  -9   3   9   22.20    5.10
   8  -3  -9    7.10    2.60
   8  -3  -9   13.10    5.90
  -8   3   9   11.80    3.00
  -8   3   9   10.80    4.10
  -7   3   9    4.90    1.90
  -7   3   9   -1.20    2.60
  -7   3   9    1.80    2.30
   6  -3  -9   16.00    2.80
   6  -3  -9   16.10    3.30
  -6   3   9   24.70    3.70
  -6   3   9   21.20    4.30
  -6   3   9   14.40    4.00
  -6   3   9   11.10    3.80
   5  -3  -9   34.00    4.50
   5  -3  -9   33.60    3.90
  -5   3   9   28.40    4.90
  -5   3   9   31.80    4.30
  -5   3   9   36.10    5.00
   4  -3  -9   -2.40    1.30
   4  -3  -9    4.90    1.80
  -4   3   9   -1.30    1.40
  -4   3   9   -1.30    1.90
  -4   3   9    2.80    2.50
   3  -3  -9  100.29    7.00
   3  -3  -9  102.29    7.00
  -3   3   9   97.99    7.50
  -3   3   9  102.99    8.50
  -3   3   9   99.69    7.60
   2  -3  -9  248.68   12.40
   2  -3  -9  239.08   12.10
  -2   3   9  220.68   13.60
  -2   3   9  233.88   12.70
  -2   3   9  230.88   12.10
   1  -3  -9  135.69    8.60
   1  -3  -9  132.09    8.40
  -1   3   9  129.59    7.50
  -1   3   9  139.39    9.50
  -1   3   9  138.59    8.30
  -1   3   9  123.69    9.80
   0  -3  -9  180.58   10.90
   0  -3  -9  196.08   11.10
   0   3   9  199.28   10.80
   0   3   9  192.08   11.40
   0   3   9  199.98    8.50
   0   3   9  182.78   12.20
  -1  -3  -9  432.16   20.30
  -1  -3  -9  465.55   24.70
  -1  -3  -9  515.45   19.60
   1   3   9  505.55   20.70
   1   3   9  454.75   22.00
   1   3   9  446.46   18.90
  -2  -3  -9  414.56   20.80
  -2  -3  -9  501.75   20.40
  -2  -3  -9  501.95   21.40
   2   3   9  464.55   19.20
   2   3   9  485.95   20.90
   2   3   9  520.75   22.70
  -3  -3  -9  162.28   11.00
  -3  -3  -9  170.28   10.80
  -3  -3  -9  182.88   11.20
   3   3   9  182.58   10.90
   3   3   9  140.19    9.40
   3   3   9  190.58   12.00
  -4  -3  -9   62.99    6.90
  -4  -3  -9   63.39    6.50
   4   3   9   38.20    5.60
   4   3   9   57.29    6.40
   4   3   9   51.79    7.50
  10  -4  -9   -0.90    2.30
  10  -4  -9    0.50    2.50
 -10   4   9    2.20    2.90
 -10   4   9    0.00    3.30
   9  -4  -9   16.50    3.90
   9  -4  -9   13.30    3.60
  -9   4   9    9.60    3.90
  -9   4   9   13.50    4.10
   8  -4  -9    2.30    2.30
   8  -4  -9    2.00    2.70
  -8   4   9    0.20    3.50
  -8   4   9   -2.00    2.90
   7  -4  -9   39.90    4.80
   7  -4  -9   37.20    4.40
  -7   4   9   40.40    4.90
  -7   4   9   29.10    6.00
  -7   4   9   37.60    5.50
   6  -4  -9   70.99    5.50
   6  -4  -9   66.19    6.40
  -6   4   9   63.79    9.50
  -6   4   9   62.79    6.80
  -6   4   9   45.40    6.80
  -6   4   9   65.09    6.60
   5  -4  -9    0.90    2.60
  -5   4   9   -2.70    2.20
  -5   4   9   -3.20    2.50
  -5   4   9   -5.00    2.10
   4  -4  -9    4.40    1.80
   4  -4  -9    5.20    2.80
  -4   4   9   -1.50    2.20
  -4   4   9    5.10    2.50
  -4   4   9    1.30    2.30
  -4   4   9    3.70    2.80
   3  -4  -9   23.40    3.90
   3  -4  -9   17.60    4.60
  -3   4   9   23.90    4.20
  -3   4   9   27.60    4.60
  -3   4   9   17.10    3.70
   2  -4  -9    3.10    2.70
   2  -4  -9    7.50    2.20
  -2   4   9    6.20    2.70
  -2   4   9    5.40    2.00
  -2   4   9    7.60    2.80
  -2   4   9    4.70    2.60
   1  -4  -9   12.80    4.00
   1  -4  -9   13.60    2.90
  -1   4   9   10.40    3.50
  -1   4   9    9.30    3.10
  -1   4   9   11.90    2.60
  -1   4   9   11.30    3.10
   0  -4  -9  187.68   11.20
   0  -4  -9  198.58   11.50
   0   4   9  175.18   10.60
   0   4   9  196.38   12.60
   0   4   9  181.18   12.50
  -1  -4  -9  336.47   17.70
  -1  -4  -9  368.56   18.20
  -1  -4  -9  415.46   16.70
   1   4   9  352.36   16.50
   1   4   9  381.06   18.40
   1   4   9  392.76   19.40
   1   4   9  365.16   19.60
  -2  -4  -9   85.89    6.90
  -2  -4  -9   85.69    7.60
  -2  -4  -9   68.69    6.80
   2   4   9   68.29    8.10
   2   4   9   78.69    7.50
   2   4   9   50.29    6.90
   2   4   9   64.59    6.60
  -3  -4  -9  101.59    8.70
  -3  -4  -9  112.39    8.40
   3   4   9  111.79    9.80
   3   4   9   87.69   10.30
   3   4   9  117.79   10.30
   3   4   9  105.19    8.30
  10  -5  -9   12.10    5.60
  10  -5  -9    4.40    3.30
 -10   5   9   15.80    5.30
 -10   5   9   10.50    3.70
   9  -5  -9  133.09   10.10
   9  -5  -9  134.39   11.90
  -9   5   9  142.29   11.40
  -9   5   9  148.29   12.20
   8  -5  -9   -4.10    1.70
   8  -5  -9    0.10    1.80
  -8   5   9   -2.80    2.90
  -8   5   9    0.00    3.50
   7  -5  -9    9.20    2.90
   7  -5  -9   11.20    3.30
  -7   5   9   10.80    4.40
  -7   5   9   11.00    4.20
  -7   5   9   16.70    4.10
   6  -5  -9    9.40    3.20
   6  -5  -9   10.50    2.90
  -6   5   9   12.70    4.00
  -6   5   9    6.50    3.60
   5  -5  -9    4.30    1.60
   5  -5  -9    3.90    2.30
  -5   5   9    0.20    2.20
  -5   5   9    2.80    2.90
  -5   5   9    3.10    2.00
   4  -5  -9  108.09    8.00
   4  -5  -9  104.19    7.30
  -4   5   9   83.09    8.00
  -4   5   9  109.29    9.30
  -4   5   9   93.29    8.70
  -4   5   9  100.39   11.40
   3  -5  -9   21.80    4.10
  -3   5   9   24.10    4.60
  -3   5   9   24.10    5.50
  -3   5   9   26.30    4.30
   2  -5  -9    2.00    2.10
   2  -5  -9    0.00    2.10
  -2   5   9    1.00    2.70
  -2   5   9    1.10    2.70
  -2   5   9    1.60    2.70
  -2   5   9    1.60    2.40
   1  -5  -9   25.80    3.80
   1  -5  -9   42.70    5.40
  -1   5   9   39.00    5.50
  -1   5   9   31.40    5.30
  -1   5   9   32.90    5.30
   0  -5  -9   81.89    7.20
   0  -5  -9   88.29    7.60
   0   5   9   67.49    7.90
   0   5   9   74.89    8.60
   0   5   9   87.69    7.80
  -1  -5  -9   93.49    7.80
  -1  -5  -9   86.99    6.90
   1   5   9   91.29    9.10
   1   5   9   81.99    8.30
   1   5   9   90.09    8.80
  -2  -5  -9   28.00    6.20
   2   5   9   20.30    6.60
   2   5   9   15.90    4.80
   9  -6  -9  103.59   11.00
   9  -6  -9  109.59   10.40
  -9   6   9  118.89   11.40
   8  -6  -9    4.70    3.40
   8  -6  -9    8.10    3.30
  -8   6   9    1.70    4.50
  -8   6   9    4.40    3.10
  -8   6   9    6.30    3.30
  -7   6   9    3.50    4.00
  -7   6   9   14.50    3.60
  -7   6   9    5.00    3.90
   6  -6  -9   10.50    3.40
   6  -6  -9    6.00    3.00
  -6   6   9    9.00    3.50
  -6   6   9    8.10    3.60
  -6   6   9    8.90    3.60
   5  -6  -9   12.10    3.40
   5  -6  -9   20.20    3.80
  -5   6   9    9.60    3.40
  -5   6   9    7.00    4.60
  -5   6   9   15.50    4.60
   4  -6  -9   40.30    4.70
   4  -6  -9   45.00    4.80
  -4   6   9   28.00    5.40
  -4   6   9   47.40    6.80
  -4   6   9   43.30    6.20
  -4   6   9   25.90    5.20
   3  -6  -9    8.60    2.70
   3  -6  -9   11.00    2.90
  -3   6   9   10.30    3.10
  -3   6   9    5.10    3.80
  -3   6   9    8.80    3.80
  -3   6   9   11.10    3.50
   2  -6  -9   18.90    3.50
   2  -6  -9   20.70    3.90
  -2   6   9   14.00    4.80
  -2   6   9   20.10    6.90
  -2   6   9   22.20    4.40
   1  -6  -9   63.59    6.30
   1  -6  -9   52.89    6.20
  -1   6   9   61.59    7.80
  -1   6   9   51.39    7.30
  -1   6   9   58.79    7.20
   0  -6  -9   45.50    5.60
   0  -6  -9   42.40    5.90
   0   6   9   32.40    6.70
   0   6   9   31.70    5.50
   0   6   9   35.70    6.10
   1   6   9   16.10    4.30
   1   6   9   17.50    4.60
   7  -7  -9   53.19   10.50
  -7   7   9   43.70    7.20
  -7   7   9   25.00    6.30
  -7   7   9   29.70    5.20
   6  -7  -9   -1.50    2.40
   6  -7  -9   -3.10    2.40
  -6   7   9    1.90    4.60
  -6   7   9   -3.80    2.60
   5  -7  -9    3.20    3.80
   5  -7  -9    0.40    2.40
  -5   7   9   -2.00    3.00
  -5   7   9    3.00    2.90
  -5   7   9   -3.90    2.70
   4  -7  -9    8.30    3.80
   4  -7  -9   10.10    3.10
  -4   7   9    1.00    4.40
  -4   7   9    5.80    3.70
   3  -7  -9    3.70    2.50
   3  -7  -9    5.00    2.80
  -3   7   9    9.30    3.90
  -3   7   9    7.70    3.90
   2  -7  -9   23.30    4.20
  -2   7   9   24.20    8.50
  -2   7   9   21.20    5.20
   1  -7  -9   24.70    4.40
   1  -7  -9   26.30    4.70
  -1   7   9   24.30    6.00
  -1   7   9   11.50    5.70
   1  13 -10   34.30    5.40
   1  13 -10   42.10    6.40
  -1 -13  10   30.40    6.20
  -1 -13  10   31.40    6.00
   0  13 -10   17.50    4.70
   0  13 -10   20.10    4.40
   0 -13  10   19.70    4.50
   0 -13  10   23.10    4.80
   0 -13  10   22.60    4.60
  -1  13 -10   71.69    8.90
  -1  13 -10   81.09    7.30
   1 -13  10   80.09    7.90
   1 -13  10   69.99    8.10
   1 -13  10   83.79    9.00
   4  12 -10  338.27   18.30
  -4 -12  10  356.36   24.40
  -4 -12  10  314.27   21.80
   3  12 -10   25.20    4.90
  -3 -12  10   39.10    6.50
   2  12 -10   39.20    6.00
   2  12 -10   60.09    6.60
  -2 -12  10   52.49    7.00
  -2 -12  10   43.30    5.00
  -2 -12  10   52.49    7.30
   1  12 -10   59.29    7.20
   1  12 -10   66.89    6.80
  -1 -12  10   67.59    7.70
  -1 -12  10   73.39    6.10
  -1 -12  10   55.29    7.30
   0  12 -10   10.60    3.00
   0  12 -10   15.10    4.10
   0 -12  10    7.20    3.40
   0 -12  10   12.70    3.30
  -1  12 -10    6.60    3.00
  -1  12 -10    0.50    3.20
   1 -12  10    6.50    3.20
   1 -12  10   -0.20    2.50
  -2  12 -10   13.00    4.30
  -2  12 -10    8.40    2.90
   2 -12  10    1.90    2.20
   2 -12  10    4.80    2.80
   2 -12  10    5.20    2.60
  -3  12 -10   56.39    7.80
  -3  12 -10   65.39    6.70
  -4  12 -10   27.10    5.60
  -4  12 -10   18.20    5.50
   4 -12  10   17.30    3.40
   5  11 -10  411.36   28.80
  -5 -11  10  403.06   23.60
  -5 -11  10  397.66   22.80
   4  11 -10  382.26   20.40
   4  11 -10  361.16   18.90
  -4 -11  10  394.56   21.50
  -4 -11  10  385.46   22.00
   3  11 -10  178.48   11.60
   3  11 -10  159.48   11.90
  -3 -11  10  172.08   13.10
  -3 -11  10  168.18    9.20
  -3 -11  10  166.28   13.30
   2  11 -10  209.38   12.50
   2  11 -10  232.28   14.60
  -2 -11  10  224.98   11.30
  -2 -11  10  211.28   14.80
   1  11 -10  209.48   12.30
   1  11 -10  209.68   14.10
  -1 -11  10  210.48   11.40
  -1 -11  10  213.18   14.70
   0  11 -10   43.20    4.90
   0  11 -10   29.80    6.10
   0 -11  10   40.30    6.10
   0 -11  10   41.20    5.30
  -1  11 -10    5.40    2.60
  -1  11 -10    8.20    3.70
   1 -11  10   -0.90    2.10
   1 -11  10    2.70    2.70
   1 -11  10    3.60    1.60
  -2  11 -10   14.80    4.30
  -2  11 -10   11.80    3.30
   2 -11  10   13.70    2.20
   2 -11  10    7.00    3.10
  -3  11 -10   47.90    6.50
  -3  11 -10   39.40    5.10
  -3  11 -10   38.90    6.40
   3 -11  10   45.30    4.90
   3 -11  10   65.59    7.20
  -4  11 -10    5.40    3.30
  -4  11 -10    2.90    3.10
   4 -11  10    5.30    2.70
   4 -11  10    3.10    2.30
  -5  11 -10   -0.50    3.40
  -5  11 -10    8.60    4.10
   5 -11  10    1.40    2.30
   5 -11  10   -4.50    3.00
   7  10 -10   29.80    6.00
   7  10 -10   12.00    3.80
  -7 -10  10   17.20    4.50
   6  10 -10  100.19    8.40
   6  10 -10   96.99    9.00
  -6 -10  10  107.39   10.00
  -6 -10  10  102.89   10.80
   5  10 -10  174.68   11.80
   5  10 -10  160.48   11.90
  -5 -10  10  175.88   13.20
  -5 -10  10  192.58   14.40
   4  10 -10  126.49   10.40
   4  10 -10  131.09   10.00
  -4 -10  10  131.29    7.00
  -4 -10  10  117.69   10.70
   3  10 -10  291.97   15.60
   3  10 -10  299.77   16.70
  -3 -10  10  281.37   17.40
  -3 -10  10  301.87   13.00
   2  10 -10  501.35   24.10
   2  10 -10  543.65   23.10
  -2 -10  10  541.85   25.70
  -2 -10  10  531.65   20.80
   1  10 -10  445.16   22.00
   1  10 -10  449.76   20.30
  -1 -10  10  467.25   19.50
  -1 -10  10  449.95   23.10
   0  10 -10  126.09   10.60
   0  10 -10  134.99    9.00
   0 -10  10  128.69    6.20
   0 -10  10  138.19   11.60
   0 -10  10  145.09    9.20
  -1  10 -10   45.80    6.60
  -1  10 -10   35.80    5.10
   1 -10  10   48.20    3.80
   1 -10  10   52.79    6.10
  -2  10 -10  167.78    9.50
  -2  10 -10  143.99   11.30
   2 -10  10  159.88   10.90
  -3  10 -10   10.40    3.50
  -3  10 -10   13.60    3.70
  -3  10 -10    5.70    2.20
   3 -10  10    1.10    2.10
   3 -10  10    2.50    2.80
  -4  10 -10   -1.70    2.90
  -4  10 -10   -2.50    2.30
   4 -10  10   -3.70    1.80
   4 -10  10   -0.20    2.50
  -5  10 -10   41.90    7.10
  -5  10 -10   52.89    7.50
   5 -10  10   44.10    5.70
   5 -10  10   67.19    7.30
  -6  10 -10    5.60    4.30
  -6  10 -10   -2.00    3.80
   6 -10  10    1.30    2.40
   8   9 -10   25.00    5.40
   8   9 -10   32.30    6.00
  -8  -9  10   29.00    6.40
  -8  -9  10   34.70    6.40
   7   9 -10  126.49   10.20
   7   9 -10  138.79   10.50
  -7  -9  10  145.69   11.50
  -7  -9  10  137.89   12.20
   6   9 -10  188.28   12.10
   6   9 -10  188.18   12.60
  -6  -9  10  200.38   14.80
  -6  -9  10  167.28   12.90
   5   9 -10   68.19    6.10
   5   9 -10   61.69    7.00
  -5  -9  10   66.99    5.40
  -5  -9  10   47.90    6.50
   4   9 -10   47.70    5.90
   4   9 -10   49.30    5.90
  -4  -9  10   44.50    6.50
  -4  -9  10   53.69    4.20
   3   9 -10  317.67   22.40
   3   9 -10  376.26   18.70
  -3  -9  10  335.87   18.90
  -3  -9  10  348.37   14.50
   2   9 -10  470.75   20.70
  -2  -9  10  487.35   24.70
  -2  -9  10  485.95   19.30
   1   9 -10  374.26   21.30
   1   9 -10  423.66   18.70
  -1  -9  10  423.66   18.10
  -1  -9  10  446.06   22.30
   0   9 -10  481.45   24.60
   0   9 -10  470.55   19.90
   0  -9  10  491.95   20.60
   0  -9  10  470.85   19.90
  -1   9 -10  309.87   14.30
   1  -9  10  303.67   15.20
  -2   9 -10  331.97   14.60
  -2   9 -10  321.77   17.50
   2  -9  10  327.87   21.90
  -3   9 -10   -3.00    2.00
  -3   9 -10    2.00    2.30
   3  -9  10   -1.00    1.80
   3  -9  10   -1.20    1.30
  -4   9 -10    3.10    3.30
  -4   9 -10   -0.30    2.50
   4  -9  10   -0.30    1.80
   4  -9  10   -1.20    2.40
  -5   9 -10   33.90    6.20
  -5   9 -10   32.50    6.20
  -6   9 -10    5.00    3.90
   8   8 -10   31.70    4.70
   8   8 -10   32.10    5.60
  -8  -8  10   34.00    7.00
  -8  -8  10   38.10    5.80
   7   8 -10  151.98   10.80
   7   8 -10  140.49   10.40
  -7  -8  10  151.68   11.90
  -7  -8  10  154.78   12.80
   6   8 -10  144.69   10.60
   6   8 -10  156.28   10.60
  -6  -8  10  151.48   11.70
  -6  -8  10  143.19    8.40
   5   8 -10   -1.80    1.50
  -5  -8  10    1.20    1.00
   4   8 -10   12.60    3.30
  -4  -8  10   17.90    2.70
  -4  -8  10    8.40    3.80
   3   8 -10  395.96   18.70
   3   8 -10  408.26   19.80
  -3  -8  10  422.26   16.80
  -3  -8  10  450.55   21.30
   2   8 -10  224.78   13.50
   2   8 -10  225.28   12.50
  -2  -8  10  246.68   11.60
  -2  -8  10  243.18   15.10
   1   8 -10   76.59    7.10
   1   8 -10   81.29    6.50
  -1  -8  10   85.59    6.40
   0   8 -10  379.06   16.50
   0   8 -10  386.36   18.80
   0  -8  10  381.66   17.20
  -1   8 -10  541.35   21.10
  -1   8 -10  519.45   23.70
   1  -8  10  539.85   22.60
   1  -8  10  552.94   19.50
  -2   8 -10  286.17   13.00
  -2   8 -10  284.17   15.70
   2  -8  10  280.17   14.70
   2  -8  10  278.67   12.20
  -3   8 -10  116.29    9.70
  -3   8 -10  128.99    8.30
   3  -8  10  117.59    9.10
   3  -8  10  112.49    7.00
  -4   8 -10  174.38   12.40
  -4   8 -10  168.88    8.30
  -4   8 -10  164.48   12.10
   4  -8  10  170.98   11.80
   4  -8  10  169.38   13.60
  -5   8 -10   16.90    4.60
  -5   8 -10   15.70    4.30
   5  -8  10   16.40    3.10
   5  -8  10   10.80    3.20
  -6   8 -10   25.50    5.80
  -6   8 -10   25.00    5.40
   6  -8  10   30.80    4.70
   9   7 -10    6.30    2.60
  -9  -7  10    1.80    2.60
   8   7 -10  105.99    8.60
   8   7 -10   97.69    8.00
  -8  -7  10   85.89    9.40
  -8  -7  10  104.99    9.70
   7   7 -10  183.68   11.80
   7   7 -10  170.08   13.70
  -7  -7  10  194.58   13.20
  -7  -7  10  184.28    9.50
   6   7 -10  105.49    8.20
   6   7 -10   89.69    7.80
  -6  -7  10   89.69    5.90
  -6  -7  10   81.69    7.80
   5   7 -10  277.97   14.50
   5   7 -10  260.07   14.50
  -5  -7  10  276.17   12.10
  -5  -7  10  279.87   16.10
   4   7 -10  433.66   19.40
   4   7 -10  448.76   20.40
  -4  -7  10  441.56   21.50
  -4  -7  10  463.25   17.40
   3   7 -10  140.69   10.00
   3   7 -10  157.68    8.80
   3   7 -10  154.28    9.50
  -3  -7  10  162.18   11.30
  -3  -7  10  149.69    8.30
   2   7 -10   18.20    3.40
   2   7 -10   23.10    3.90
   2   7 -10   18.30    3.90
  -2  -7  10   23.60    4.90
  -2  -7  10   21.70    3.10
   1   7 -10  157.48   10.50
   1   7 -10  153.18    9.20
  -1  -7  10  157.68    9.00
   0   7 -10  482.25   18.90
   0   7 -10  445.36   20.70
   0  -7  10  454.45   16.30
   0  -7  10  465.45   19.50
  -1   7 -10  523.55   23.30
  -1   7 -10  550.64   20.90
   1  -7  10  519.85   22.20
   1  -7  10  564.14   19.70
  -2   7 -10  254.67   12.90
  -2   7 -10  261.87   14.60
  -2   7 -10  238.68   13.50
   2  -7  10  230.68   11.00
   2  -7  10  245.58   13.40
  -3   7 -10  586.54   25.10
  -3   7 -10  639.54   22.60
  -3   7 -10  610.04   26.90
   3  -7  10  599.74   22.90
  -4   7 -10  280.57   15.90
  -4   7 -10  301.47   12.10
  -4   7 -10  288.97   15.40
  -4   7 -10  291.37   16.10
   4  -7  10  279.47   15.40
   4  -7  10  265.77   14.40
  -5   7 -10   30.40    5.20
  -5   7 -10   38.20    6.30
  -5   7 -10   29.00    5.50
   5  -7  10   36.70    4.60
   5  -7  10   44.70    5.60
  -6   7 -10  130.49   10.40
  -6   7 -10  116.39   10.10
  -6   7 -10   88.69    9.20
   6  -7  10  125.49   10.10
   6  -7  10  100.69    8.00
  -7   7 -10    7.80    6.00
  -7   7 -10   12.50    4.10
  -7   7 -10   15.80    4.30
   7  -7  10    6.70    3.00
  10   6 -10    6.60    3.20
 -10  -6  10    5.70    4.50
 -10  -6  10    9.90    3.10
   9   6 -10   18.10    4.20
  -9  -6  10   29.90    5.10
  -9  -6  10   17.00    5.00
   8   6 -10   93.79    7.40
   8   6 -10   78.99    7.90
  -8  -6  10   89.39    8.80
  -8  -6  10   85.39    6.50
   7   6 -10   86.19    6.80
   7   6 -10   71.99    7.10
   7   6 -10   70.89    7.00
  -7  -6  10   81.99    8.30
  -7  -6  10   73.69    5.50
   6   6 -10   46.70    5.30
   6   6 -10   40.60    5.10
   6   6 -10   43.20    5.40
  -6  -6  10   34.10    5.10
  -6  -6  10   45.30    4.10
   5   6 -10  720.63   27.60
   5   6 -10  679.53   27.50
   5   6 -10  696.03   27.00
  -5  -6  10  725.13   29.60
  -5  -6  10  697.73   25.10
   4   6 -10  467.65   18.80
   4   6 -10  427.56   19.50
   4   6 -10  431.86   19.00
  -4  -6  10  447.46   21.00
  -4  -6  10  435.26   17.20
   3   6 -10  159.78   10.20
   3   6 -10  156.08    9.10
   3   6 -10  159.18    9.30
  -3  -6  10  150.08   10.90
  -3  -6  10  164.38    8.60
   2   6 -10  112.59    7.20
   2   6 -10  125.49    8.80
   2   6 -10  125.39    7.90
  -2  -6  10  117.69    7.40
   1   6 -10  246.18   12.00
   1   6 -10  258.07   10.80
   1   6 -10  237.08   13.10
  -1  -6  10  246.48   12.10
  -1  -6  10  234.48    9.50
   0   6 -10  273.17   14.60
   0   6 -10  275.97   11.10
   0   6 -10  288.47   14.90
   0   6 -10  294.87   13.10
   0  -6  10  291.27   13.80
  -1   6 -10  100.69    7.80
  -1   6 -10  103.19    8.00
  -1   6 -10  101.99    6.60
   1  -6  10   90.39    5.60
   1  -6  10  102.79    7.30
  -2   6 -10   94.39    7.50
  -2   6 -10   98.89    7.80
  -2   6 -10   86.09    6.30
   2  -6  10   89.49    7.10
   2  -6  10   85.59    5.70
  -3   6 -10  607.24   26.60
  -3   6 -10  710.33   27.80
  -3   6 -10  638.04   26.30
   3  -6  10  638.24   23.90
   3  -6  10  638.04   26.30
  -4   6 -10  274.77   16.40
  -4   6 -10  354.96   13.30
  -4   6 -10  323.27   16.60
   4  -6  10  349.07   17.40
   4  -6  10  310.17   16.30
  -5   6 -10  115.19    9.20
  -5   6 -10  109.19    9.80
   5  -6  10  106.99    8.10
   5  -6  10  117.89    9.40
  -6   6 -10  187.08   12.00
  -6   6 -10  189.98   13.40
  -6   6 -10  168.18   11.80
   6  -6  10  183.08   11.10
   6  -6  10  199.28   12.70
  -7   6 -10   24.30    5.30
  -7   6 -10   18.90    5.20
   7  -6  10   20.80    3.60
  10   5 -10   74.59    7.10
 -10  -5  10   49.80    7.40
 -10  -5  10   64.09    7.70
   9   5 -10   36.80    4.50
   9   5 -10   27.70    4.90
   9   5 -10   38.20    5.40
  -9  -5  10   41.00    5.80
   8   5 -10    5.00    2.50
   8   5 -10    5.70    2.40
   8   5 -10    9.90    3.30
  -8  -5  10    5.80    2.20
   7   5 -10   -0.10    1.70
   7   5 -10    0.90    1.60
   7   5 -10   -0.10    1.70
  -7  -5  10    0.60    1.60
  -7  -5  10    2.70    2.00
   6   5 -10   49.10    5.20
   6   5 -10   50.99    5.60
   6   5 -10   46.90    5.40
  -6  -5  10   45.30    4.30
  -6  -5  10   42.80    3.50
  -6  -5  10   50.39    5.80
   5   5 -10  261.87   13.10
   5   5 -10  252.37   13.00
   5   5 -10  231.78   12.50
  -5  -5  10  245.38   11.60
  -5  -5  10  254.17   14.40
   4   5 -10  145.59    8.70
   4   5 -10  151.58    9.10
   4   5 -10  140.09    9.10
  -4  -5  10  144.59    8.00
  -4  -5  10  149.09   10.30
   3   5 -10  251.47   12.50
   3   5 -10  254.77   13.00
   3   5 -10  249.18   15.70
  -3  -5  10  254.37   11.80
  -3  -5  10  261.87   14.50
   2   5 -10  306.77   13.10
   2   5 -10  302.47   14.00
   2   5 -10  287.57   14.50
  -2  -5  10  313.97   13.60
   1   5 -10  402.66   15.20
   1   5 -10  364.46   17.80
   1   5 -10  406.16   18.00
   1   5 -10  407.36   16.70
  -1  -5  10  374.86   14.00
  -1  -5  10  380.76   16.40
   0   5 -10  233.88   12.40
   0   5 -10  223.18   11.00
   0   5 -10  222.08    9.40
   0   5 -10  202.88   12.00
   0  -5  10  218.28   11.20
   0  -5  10  203.58    9.10
  -1   5 -10   25.70    4.10
  -1   5 -10   35.50    3.90
  -1   5 -10   24.50    4.40
  -1   5 -10   25.90    2.50
   1  -5  10   25.20    3.80
   1  -5  10   31.20    3.10
  -2   5 -10  101.89    8.00
  -2   5 -10   92.49    7.60
  -2   5 -10  108.29    7.00
   2  -5  10  109.39    7.90
   2  -5  10  106.59    6.40
  -3   5 -10  185.08   11.40
  -3   5 -10  202.68   10.00
  -3   5 -10  187.88   11.90
   3  -5  10  199.78   11.70
   3  -5  10  199.78   10.20
  -4   5 -10  175.38   11.10
  -4   5 -10  177.28    8.80
  -4   5 -10  173.08   11.90
   4  -5  10  174.88   11.40
   4  -5  10  163.88   13.90
  -5   5 -10  171.08   10.90
  -5   5 -10  159.08   11.60
   5  -5  10  166.88   10.00
   5  -5  10  158.98   11.20
  -6   5 -10  133.79    9.60
  -6   5 -10  130.39   10.50
   6  -5  10  132.89    8.90
   6  -5  10  141.19   10.40
  -7   5 -10  136.09   10.70
   7  -5  10  154.48   11.30
   7  -5  10  139.99    9.90
  10   4 -10   15.70    4.00
  10   4 -10   11.90    3.10
 -10  -4  10   10.90    3.20
 -10  -4  10    6.40    3.40
   9   4 -10   18.10    4.00
   9   4 -10   19.60    3.20
   9   4 -10   19.50    4.30
  -9  -4  10   23.20    4.50
   8   4 -10   13.70    2.70
   8   4 -10   14.50    3.40
  -8  -4  10    8.00    2.80
  -8  -4  10   15.70    3.30
   7   4 -10   21.30    4.00
   7   4 -10   24.00    4.00
   7   4 -10   20.60    4.10
  -7  -4  10   27.30    3.50
  -7  -4  10   28.70    4.40
   6   4 -10   33.80    4.50
   6   4 -10   33.40    4.10
   6   4 -10   37.00    4.90
  -6  -4  10   31.80    3.40
  -6  -4  10   37.30    5.00
  -6  -4  10   48.40    4.20
   5   4 -10   19.30    3.60
   5   4 -10   14.40    3.20
   5   4 -10   18.10    3.30
  -5  -4  10   15.00    3.20
  -5  -4  10   17.80    2.80
   4   4 -10  240.88   12.20
   4   4 -10  240.78   12.30
   4   4 -10  249.78   12.20
  -4  -4  10  252.87   11.70
  -4  -4  10  252.47   13.70
   3   4 -10  244.08   15.20
   3   4 -10  226.68   11.80
   3   4 -10  227.08   11.70
  -3  -4  10  230.28   11.00
   2   4 -10  914.31   32.10
   2   4 -10  830.62   32.70
  -2  -4  10  865.91   28.40
  -2  -4  10  898.71   30.80
   1   4 -10  659.73   25.60
   1   4 -10  630.44   26.10
   1   4 -10  700.53   23.60
  -1  -4  10  654.83   24.70
   0   4 -10   77.59    6.90
   0   4 -10   89.89    7.00
   0   4 -10   92.49    5.50
   0  -4  10   84.99    6.40
   0  -4  10   82.69    5.20
  -1   4 -10  410.26   14.50
  -1   4 -10  348.57   17.10
  -1   4 -10  351.96   17.10
   1  -4  10  394.36   15.10
   1  -4  10  375.06   16.70
  -2   4 -10  521.75   22.40
  -2   4 -10  532.75   18.20
  -2   4 -10  521.35   22.10
   2  -4  10  496.65   19.70
   2  -4  10  541.15   21.90
  -3   4 -10  106.49    5.20
  -3   4 -10   85.99    7.30
  -3   4 -10   86.99    7.70
   3  -4  10   89.99    7.50
   3  -4  10  101.89    6.80
  -4   4 -10   27.20    4.40
  -4   4 -10   23.50    4.80
   4  -4  10   28.60    5.20
   4  -4  10   30.40    4.20
  -5   4 -10  251.37   14.60
   5  -4  10  245.28   13.80
   5  -4  10  240.78   12.80
  -6   4 -10  162.48   11.80
  -6   4 -10  191.28   12.60
  -6   4 -10  171.78   11.30
   6  -4  10  175.58   11.70
   6  -4  10  177.68   10.70
  -7   4 -10   95.39    9.30
  -7   4 -10   84.59    9.20
  -7   4 -10   98.39    8.50
   7  -4  10  104.19    9.00
  11   3 -10   29.90    5.60
  11   3 -10   35.80    5.20
 -11  -3  10   18.60    4.30
 -11  -3  10   26.40    5.50
  10   3 -10    3.80    2.80
  10   3 -10   -3.30    2.10
 -10  -3  10   -2.70    2.40
   9   3 -10   -4.80    1.90
   9   3 -10    5.80    2.40
  -9  -3  10   -2.80    2.20
  -9  -3  10    1.20    2.20
   8   3 -10   53.69    4.40
   8   3 -10   56.19    5.50
   8   3 -10   52.69    4.80
   8   3 -10   52.49    6.00
  -8  -3  10   54.49    6.10
  -8  -3  10   46.00    5.30
   7   3 -10    2.20    1.80
   7   3 -10    4.90    1.00
   7   3 -10    0.40    2.00
   7   3 -10    3.80    1.60
  -7  -3  10    0.80    1.80
  -7  -3  10    2.20    1.80
   6   3 -10   12.50    2.70
   6   3 -10    8.60    2.30
   6   3 -10    8.30    2.40
  -6  -3  10    6.90    2.40
  -6  -3  10   10.20    2.50
  -6  -3  10   12.40    2.30
   5   3 -10   40.80    4.00
   5   3 -10   28.90    3.90
   5   3 -10   35.60    4.30
  -5  -3  10   41.20    3.90
  -5  -3  10   28.00    4.00
   4   3 -10   48.90    4.70
   4   3 -10   46.70    4.70
  -4  -3  10   52.69    5.50
  -4  -3  10   56.99    4.80
   3   3 -10   26.40    3.90
   3   3 -10   27.70    3.40
   3   3 -10   36.10    4.70
  -3  -3  10   28.90    3.40
   2   3 -10  578.54   20.40
   2   3 -10  534.55   21.00
   2   3 -10  498.25   21.80
  -2  -3  10  491.75   18.90
  -2  -3  10  524.65   20.30
   1   3 -10  391.06   16.60
   1   3 -10  390.76   15.30
   1   3 -10  335.67   16.80
  -1  -3  10  367.86   15.80
  -1  -3  10  377.56   14.40
   0   3 -10  233.78   12.40
   0   3 -10  226.48   12.60
   0   3 -10  254.07   10.90
   0  -3  10  232.48   10.50
   0  -3  10  236.98   11.90
   0  -3  10  264.07   10.60
  -1   3 -10  523.25   21.90
  -1   3 -10  543.75   19.10
  -1   3 -10  527.35   21.90
   1  -3  10  527.25   19.70
   1  -3  10  518.35   21.20
  -2   3 -10  233.38   12.70
  -2   3 -10  245.88   10.30
   2  -3  10  250.77   11.50
   2  -3  10  227.58   12.10
  -3   3 -10   63.39    6.00
  -3   3 -10   74.19    4.50
   3  -3  10   59.09    5.30
   3  -3  10   72.89    6.40
  -4   3 -10   26.60    4.10
  -4   3 -10   28.70    3.30
   4  -3  10   16.90    3.30
  -5   3 -10  170.68   12.10
  -5   3 -10  171.08   10.90
   5  -3  10  194.98   11.80
   5  -3  10  206.38   11.40
  -6   3 -10   73.29    7.90
  -6   3 -10   75.19    7.10
   6  -3  10   85.99    7.90
  11   2 -10   59.19    6.40
 -11  -2  10   48.90    6.80
 -11  -2  10   58.09    7.40
  10   2 -10    0.30    1.90
  10   2 -10   -2.70    2.20
 -10  -2  10    1.60    2.80
   9   2 -10    6.50    2.70
  -9  -2  10    0.60    1.80
  -9  -2  10    0.50    2.00
   8   2 -10   40.30    4.00
   8   2 -10   31.10    4.20
   8   2 -10   23.50    4.50
   8   2 -10   30.10    3.50
  -8  -2  10   37.00    3.70
  -8  -2  10   30.60    4.70
  -8  -2  10   33.60    4.70
   7   2 -10   10.90    2.60
   7   2 -10    9.80    2.60
   7   2 -10   19.60    3.90
  -7  -2  10   17.20    3.60
  -7  -2  10   13.80    2.80
  -7  -2  10   16.00    3.40
   6   2 -10    1.90    1.70
   6   2 -10    1.50    1.60
  -6  -2  10    0.90    1.40
  -6  -2  10    0.40    1.60
  -6  -2  10    1.30    1.50
   5   2 -10    2.90    1.80
   5   2 -10    2.40    1.50
  -5  -2  10    4.70    1.70
  -5  -2  10    1.70    1.50
   4   2 -10    5.10    1.80
   4   2 -10    3.60    1.40
   4   2 -10    6.40    2.20
  -4  -2  10    3.40    1.50
   3   2 -10  151.28    8.60
   3   2 -10  148.99    9.60
   3   2 -10  154.28    8.70
  -3  -2  10  141.99    8.40
   2   2 -10  117.49    7.30
   2   2 -10  105.09    9.70
   2   2 -10   97.89    7.70
  -2  -2  10  111.09    7.00
  -2  -2  10  116.59    7.10
   1   2 -10   25.80    3.60
   1   2 -10   32.40    3.30
   1   2 -10   26.10    3.40
  -1  -2  10   26.00    2.70
  -1  -2  10   33.00    3.20
  -1  -2  10   29.60    3.20
   0   2 -10  323.47   14.70
   0   2 -10  292.67   14.60
   0   2 -10  327.27   13.30
   0  -2  10  301.87   14.00
   0  -2  10  315.47   12.80
   0  -2  10  316.47   13.10
  -1   2 -10  508.65   22.10
  -1   2 -10  572.64   20.10
   1  -2  10  593.14   27.00
   1  -2  10  536.55   20.50
   1  -2  10  526.35   21.30
  -2   2 -10  340.87   13.70
  -2   2 -10  305.77   15.40
   2  -2  10  329.37   14.60
   2  -2  10  353.56   15.30
   2  -2  10  324.27   15.10
  -3   2 -10  169.98    9.40
  -3   2 -10  149.39    9.80
   3  -2  10  169.58   12.50
   3  -2  10  132.29    9.20
  -4   2 -10  304.97   12.50
  -4   2 -10  288.07   15.60
  -4   2 -10  273.37   14.60
   4  -2  10  263.87   16.80
   4  -2  10  302.27   14.10
  -5   2 -10  107.79    9.40
  -5   2 -10  107.39    8.70
  -5   2 -10  127.59    7.30
   5  -2  10  123.69    8.30
   5  -2  10  137.29    9.40
  -6   2 -10   14.20    3.90
  -6   2 -10   14.70    3.20
   6  -2  10   15.00    4.60
   6  -2  10   13.60    4.30
  11   1 -10   28.00    3.70
  11   1 -10   24.00    5.20
  11   1 -10   27.50    4.70
 -11  -1  10   24.30    5.10
 -11  -1  10   25.00    4.90
  10   1 -10   83.19    7.10
  10   1 -10   67.09    7.00
  10   1 -10   74.69    7.60
 -10  -1  10   64.79    7.60
   9   1 -10  132.39    8.70
   9   1 -10  117.99    9.50
   9   1 -10  109.69    8.00
  -9  -1  10  122.89    9.60
  -9  -1  10  122.89   10.70
  -9  -1  10  123.19    9.10
   8   1 -10   13.70    3.80
   8   1 -10   20.00    2.70
   8   1 -10   13.30    2.90
  -8  -1  10   17.50    2.90
  -8  -1  10   13.70    2.90
  -8  -1  10   10.80    3.10
   7   1 -10    2.50    1.40
   7   1 -10   -0.40    1.60
  -7  -1  10    2.20    1.50
  -7  -1  10    1.10    1.70
  -7  -1  10    1.30    1.30
   6   1 -10    3.10    2.00
  -6  -1  10    2.20    1.60
  -6  -1  10    4.10    1.80
  -6  -1  10   -2.60    2.20
   5   1 -10    4.20    1.90
   5   1 -10    4.40    1.70
   5   1 -10    3.90    1.50
  -5  -1  10    0.90    1.20
  -5  -1  10    1.00    1.40
   4   1 -10    3.20    1.40
   4   1 -10    0.10    1.10
   4   1 -10   -0.20    1.30
  -4  -1  10    0.80    1.30
  -4  -1  10    0.90    1.40
   3   1 -10   95.29    6.60
   3   1 -10   96.69    7.40
   3   1 -10   95.29    6.20
  -3  -1  10   97.99    6.70
   2   1 -10   27.20    3.60
   2   1 -10   34.20    4.10
   2   1 -10   30.90    3.70
  -2  -1  10   34.50    3.40
  -2  -1  10   35.40    3.60
  -2  -1  10   37.40    3.30
   1   1 -10   17.50    2.80
   1   1 -10   22.00    3.30
  -1  -1  10   17.00    2.70
  -1  -1  10   20.50    2.70
  -1  -1  10   22.00    2.50
   0   1 -10  355.86   16.90
   0   1 -10  412.16   15.90
   0  -1  10  361.36   15.90
   0  -1  10  404.56   16.00
   0  -1  10  394.86   15.80
  -1   1 -10  162.28    8.50
  -1   1 -10  132.29    9.10
   1  -1  10  157.68    8.70
   1  -1  10  170.98    9.50
   1  -1  10  177.68    9.10
  -2   1 -10  153.88    8.30
  -2   1 -10  137.39    9.20
   2  -1  10  140.59    9.20
   2  -1  10  140.39    8.50
   2  -1  10  144.09    8.70
  -3   1 -10  247.68   11.50
  -3   1 -10  230.48   12.90
  -3   1 -10  240.68   14.60
   3  -1  10  260.57   12.50
   3  -1  10  241.88   13.30
   3  -1  10  225.98   12.30
  -4   1 -10  539.65   23.90
  -4   1 -10  482.95   22.80
  -4   1 -10  593.64   21.40
   4  -1  10  591.34   24.50
   4  -1  10  570.64   22.60
   4  -1  10  488.05   25.70
  -5   1 -10   62.59    6.10
  -5   1 -10   61.69    6.40
  -5   1 -10   62.69    6.70
   5  -1  10   60.89    7.40
   5  -1  10   56.59    6.60
   5  -1  10   58.99    5.80
  -6   1 -10   60.79    6.60
  -6   1 -10   65.59    7.40
  -6   1 -10   61.59    7.50
   6  -1  10   60.29    5.90
   6  -1  10   59.49    6.80
  11   0 -10    5.00    2.80
  11   0 -10   -2.60    2.50
  11   0 -10    2.50    3.50
 -11   0  10   -0.20    3.30
 -11   0  10    0.40    3.10
  10   0 -10  180.48   11.10
  10   0 -10  202.68   11.90
  10   0 -10  196.38   12.80
 -10   0  10  200.18   11.10
 -10   0  10  171.78   11.00
   9   0 -10  167.88   10.80
   9   0 -10  158.58   10.60
   9   0 -10  157.68   11.30
  -9   0  10  174.28   10.20
  -9   0  10  190.38   10.20
   8   0 -10    1.70    2.00
   8   0 -10    1.00    1.60
  -8   0  10   -0.50    3.80
  -8   0  10    2.20    2.20
   7   0 -10   -1.50    1.30
  -7   0  10    1.50    1.40
  -7   0  10   -2.70    1.80
  -7   0  10    0.70    1.60
   6   0 -10   18.00    3.50
   6   0 -10   18.30    2.60
  -6   0  10   16.90    3.20
  -6   0  10   14.90    3.20
   5   0 -10   56.29    4.40
   5   0 -10   54.89    5.50
   5   0 -10   45.30    5.10
  -5   0  10   52.49    5.40
  -5   0  10   57.79    5.10
  -5   0  10   48.10    5.20
   4   0 -10   55.69    5.30
   4   0 -10   54.99    5.40
   4   0 -10   65.29    4.70
  -4   0  10   51.29    5.40
  -4   0  10   50.19    5.20
  -4   0  10   54.59    5.10
  -4   0  10   73.29    5.90
   3   0 -10   -0.20    1.00
   3   0 -10   -0.20    1.20
  -3   0  10   -0.10    1.10
  -3   0  10    0.10    1.30
   2   0 -10   14.80    2.70
   2   0 -10   14.50    2.90
  -2   0  10   13.80    2.60
  -2   0  10   15.10    3.00
  -2   0  10   14.80    2.70
   1   0 -10   80.89    6.50
   1   0 -10   78.49    5.80
  -1   0  10   87.69    6.00
  -1   0  10   90.79    6.20
  -1   0  10   85.69    6.10
   0   0 -10  176.48   10.50
   0   0 -10  195.88   10.00
   0   0  10  174.78    9.80
   0   0  10  194.58   10.20
   0   0  10  202.28   10.20
  -1   0 -10   12.50    2.70
  -1   0 -10   12.70    3.10
   1   0  10   16.10    2.90
   1   0  10   14.20    3.20
   1   0  10   10.90    2.90
  -2   0 -10  115.79    8.60
  -2   0 -10  143.19    9.40
  -2   0 -10  142.59    8.30
   2   0  10  141.29    8.40
   2   0  10  124.29    8.80
   2   0  10  131.69    8.20
  -3   0 -10  360.66   18.40
  -3   0 -10  370.26   15.80
  -3   0 -10  319.17   16.60
   3   0  10  342.97   15.60
   3   0  10  350.26   20.40
   3   0  10  361.06   16.10
  -4   0 -10  205.78   12.90
  -4   0 -10  241.98   12.10
  -4   0 -10  234.98   13.90
   4   0  10  247.28   12.60
   4   0  10  237.98   14.20
  -5   0 -10   75.29    7.60
  -5   0 -10   85.69    7.30
  -5   0 -10   84.79    7.30
   5   0  10   72.79    6.90
   5   0  10  104.89    9.10
  11  -1 -10  200.78   15.50
  11  -1 -10  165.58   12.40
  11  -1 -10  200.88   11.60
 -11   1  10  185.78   11.40
 -11   1  10  167.58   18.00
 -11   1  10  189.58   12.00
  10  -1 -10  283.27   16.00
  10  -1 -10  269.17   14.30
  10  -1 -10  282.67   15.60
 -10   1  10  250.57   16.70
 -10   1  10  284.87   14.40
 -10   1  10  266.37   13.30
   9  -1 -10  162.58   11.00
   9  -1 -10  138.79   10.60
  -9   1  10  153.38    8.80
  -9   1  10  153.08   10.20
   8  -1 -10   43.90    6.20
   8  -1 -10   48.30    5.70
  -8   1  10   41.70    5.90
  -8   1  10   40.30    4.50
  -8   1  10   36.30    5.60
   7  -1 -10   58.49    6.20
  -7   1  10   48.90    4.60
  -7   1  10   54.49    5.80
  -7   1  10   60.39    6.20
   6  -1 -10   58.39    4.00
   6  -1 -10   49.60    5.30
   6  -1 -10   50.69    5.40
  -6   1  10   47.80    4.30
  -6   1  10   59.79    5.60
  -6   1  10   58.89    6.20
   5  -1 -10   23.40    3.00
   5  -1 -10   14.50    3.10
   5  -1 -10   23.30    3.60
  -5   1  10   17.70    3.70
  -5   1  10   21.10    3.20
  -5   1  10   18.10    3.30
  -5   1  10   24.30    3.00
   4  -1 -10   32.00    4.10
   4  -1 -10   39.40    4.40
   4  -1 -10   36.20    3.70
  -4   1  10   31.20    5.50
  -4   1  10   33.30    4.60
  -4   1  10   31.50    3.80
   3  -1 -10    1.80    1.50
   3  -1 -10    0.10    1.60
   3  -1 -10    0.10    1.90
  -3   1  10    0.20    1.90
  -3   1  10    3.00    1.70
  -3   1  10    1.60    1.80
   2  -1 -10   15.50    2.90
   2  -1 -10   16.70    3.10
  -2   1  10   15.30    2.50
  -2   1  10   21.70    3.80
   1  -1 -10   12.00    2.80
   1  -1 -10   12.50    2.70
  -1   1  10   17.00    3.30
  -1   1  10   15.00    2.70
  -1   1  10   13.30    2.50
   0  -1 -10    0.30    1.30
   0   1  10   -0.90    1.40
   0   1  10   -1.90    1.50
  -1  -1 -10    0.60    1.30
  -1  -1 -10   -1.50    1.30
   1   1  10    0.60    1.90
   1   1  10   -1.20    1.90
  -2  -1 -10   39.80    4.70
  -2  -1 -10   46.10    5.10
  -2  -1 -10   45.10    5.10
   2   1  10   36.40    6.10
   2   1  10   40.30    4.50
   2   1  10   39.70    4.60
  -3  -1 -10  144.69    9.60
  -3  -1 -10  112.59    8.70
   3   1  10  133.59   10.00
   3   1  10  116.49    8.10
   3   1  10  130.69    8.70
  -4  -1 -10   62.79    6.60
  -4  -1 -10   50.69    6.70
  -4  -1 -10   48.80    6.20
   4   1  10   64.09    6.00
   4   1  10   79.29    7.60
  -5  -1 -10  109.79   10.50
  -5  -1 -10  143.49   10.00
  -5  -1 -10  119.49    9.90
   5   1  10  106.99    8.20
   5   1  10  135.69    9.30
  11  -2 -10  241.18   20.30
  11  -2 -10  248.88   13.50
  11  -2 -10  227.28   14.90
 -11   2  10  256.97   14.20
 -11   2  10  232.48   16.50
  10  -2 -10   64.79    7.00
  10  -2 -10   65.69    8.00
 -10   2  10   54.69    7.80
   9  -2 -10   46.00    6.00
   9  -2 -10   44.90    6.00
  -9   2  10   47.90    6.10
  -9   2  10   48.80    6.40
  -9   2  10   44.40    6.60
   8  -2 -10  113.49   10.10
   8  -2 -10  101.49    8.60
  -8   2  10  123.79    9.40
  -8   2  10  108.49    8.80
   7  -2 -10  216.38   12.80
  -7   2  10  225.08   13.60
  -7   2  10  246.48   13.70
   6  -2 -10   57.59    6.10
   6  -2 -10   58.59    5.80
  -6   2  10   56.89    5.30
  -6   2  10   55.69    6.50
  -6   2  10   52.79    6.10
   5  -2 -10    0.00    1.30
   5  -2 -10    2.60    1.70
  -5   2  10   -1.70    1.80
  -5   2  10   -0.10    1.50
  -5   2  10    0.90    1.50
  -5   2  10    5.60    2.20
   4  -2 -10    3.00    1.60
   4  -2 -10    1.70    1.20
  -4   2  10    2.50    2.00
  -4   2  10    1.00    2.00
  -4   2  10    0.30    1.40
  -4   2  10    3.40    1.60
   3  -2 -10    2.10    1.70
   3  -2 -10    2.70    1.70
  -3   2  10    0.70    2.00
  -3   2  10    4.40    2.20
  -3   2  10    0.70    1.70
   2  -2 -10   50.89    5.00
   2  -2 -10   54.89    5.30
  -2   2  10   51.49    5.30
  -2   2  10   46.50    5.20
  -2   2  10   45.90    5.90
   1  -2 -10   41.20    4.80
   1  -2 -10   43.40    4.80
  -1   2  10   44.80    5.00
  -1   2  10   50.59    5.20
  -1   2  10   42.70    5.20
   0  -2 -10    4.50    2.20
   0  -2 -10    6.30    2.50
   0   2  10    5.70    2.20
   0   2  10    1.00    2.60
   0   2  10    5.80    1.90
  -1  -2 -10   52.89    5.70
   1   2  10   54.49    7.70
   1   2  10   69.39    6.10
   1   2  10   56.99    5.60
  -2  -2 -10  110.89    8.80
  -2  -2 -10  132.79    8.90
  -2  -2 -10  149.69    9.60
   2   2  10  116.89    8.10
   2   2  10  127.89    9.90
   2   2  10  146.39    9.50
  -3  -2 -10   33.60    5.60
  -3  -2 -10   33.70    5.30
  -3  -2 -10   48.80    5.70
   3   2  10   46.40    4.50
   3   2  10   39.60    6.00
   3   2  10   24.60    4.60
  -4  -2 -10    3.60    2.50
  -4  -2 -10   -1.30    3.10
  -4  -2 -10    2.30    2.60
   4   2  10   -3.10    3.30
   4   2  10   -1.20    2.20
   4   2  10   -4.90    4.10
  10  -3 -10    4.10    2.80
  10  -3 -10    2.10    2.90
 -10   3  10    0.20    3.00
 -10   3  10    4.60    3.70
   9  -3 -10  127.69   10.90
   9  -3 -10  128.99    9.90
  -9   3  10  116.69    9.60
  -9   3  10  112.59   11.10
   8  -3 -10  212.88   13.30
  -8   3  10  230.38   13.50
  -8   3  10  202.08   14.60
   7  -3 -10  163.18   10.90
   7  -3 -10  173.28   10.90
  -7   3  10  181.68   12.00
  -7   3  10  175.08   10.30
  -7   3  10  169.48   11.90
  -7   3  10  163.68   12.20
   6  -3 -10  127.09    8.90
   6  -3 -10  128.19    9.40
  -6   3  10  113.69    9.80
  -6   3  10  149.29    9.20
  -6   3  10  138.19   10.30
   5  -3 -10   60.89    4.40
   5  -3 -10   54.19    5.90
   5  -3 -10   63.29    5.90
  -5   3  10   59.69    5.80
   4  -3 -10   32.60    4.50
  -4   3  10   31.70    4.70
  -4   3  10   42.10    4.50
   3  -3 -10    9.70    1.80
  -3   3  10    4.90    2.30
  -3   3  10    8.20    3.60
  -3   3  10    8.20    3.20
   2  -3 -10   12.80    3.70
   2  -3 -10   13.60    2.70
  -2   3  10    7.00    3.00
  -2   3  10    8.00    3.10
  -2   3  10    5.40    2.80
   1  -3 -10    0.30    2.00
   1  -3 -10    6.60    2.40
  -1   3  10    8.80    2.20
  -1   3  10    1.60    2.70
  -1   3  10    1.30    2.50
  -1   3  10    5.10    2.50
   0  -3 -10   -0.50    2.00
   0  -3 -10    0.20    1.60
   0   3  10   -4.80    2.10
   0   3  10   -4.50    2.10
   0   3  10   -5.00    2.20
   0   3  10   -0.30    1.90
  -1  -3 -10   28.10    4.60
  -1  -3 -10   31.50    4.90
   1   3  10   22.00    4.10
   1   3  10   12.50    4.20
   1   3  10   16.40    4.10
   1   3  10   20.90    4.00
  -2  -3 -10   17.00    4.10
  -2  -3 -10   16.80    3.90
   2   3  10   16.70    3.80
   2   3  10   12.60    3.60
   2   3  10    6.50    3.40
  -3  -3 -10   -1.50    2.40
  -3  -3 -10   -1.10    2.60
  -3  -3 -10    0.00    2.40
   3   3  10   -6.30    3.60
   3   3  10   -0.70    4.10
   3   3  10    4.70    3.00
   3   3  10    2.50    2.80
  10  -4 -10   45.50    6.70
 -10   4  10   42.30    7.80
 -10   4  10   54.39    7.50
   9  -4 -10  143.09   10.40
   9  -4 -10  145.39   12.20
  -9   4  10  151.88   11.50
  -9   4  10  123.89   11.40
   8  -4 -10  172.98   11.70
  -8   4  10  173.08   12.70
  -8   4  10  148.29   12.50
   7  -4 -10  118.19    9.60
   7  -4 -10  149.69    9.30
  -7   4  10  138.39   11.20
  -7   4  10  129.69    9.50
  -7   4  10  140.79   11.10
  -7   4  10  114.19   10.80
   6  -4 -10   93.59    7.60
   6  -4 -10   90.09    7.70
  -6   4  10   88.49    7.70
  -6   4  10   93.29    8.90
  -6   4  10   83.79    8.20
   5  -4 -10  139.29    9.40
   5  -4 -10  140.39    9.70
   5  -4 -10  121.59    7.20
  -5   4  10  129.49   10.20
  -5   4  10  135.69   10.70
  -5   4  10  152.18   10.20
  -5   4  10  157.68   11.40
   4  -4 -10  108.59    8.40
  -4   4  10  103.19    9.00
  -4   4  10  117.99    9.00
  -4   4  10  105.39   10.00
  -4   4  10  116.29    8.70
   3  -4 -10   20.90    5.30
   3  -4 -10   17.00    3.70
  -3   4  10   25.40    4.10
  -3   4  10   18.00    4.60
  -3   4  10   21.50    6.10
  -3   4  10   21.10    3.90
   2  -4 -10    5.80    2.40
   2  -4 -10    9.00    2.40
  -2   4  10    3.40    3.10
  -2   4  10    2.70    5.40
  -2   4  10   12.20    3.00
   1  -4 -10    7.60    2.70
   1  -4 -10    9.20    3.00
  -1   4  10   10.20    3.10
  -1   4  10   12.10    4.40
  -1   4  10   11.80    3.90
  -1   4  10    7.90    3.20
   0  -4 -10   17.60    3.80
   0  -4 -10   15.70    3.40
   0   4  10   20.10    4.10
   0   4  10   16.20    4.60
   0   4  10   12.90    4.40
  -1  -4 -10   13.80    3.30
  -1  -4 -10    8.70    3.40
   1   4  10   14.20    3.70
   1   4  10    6.70    4.00
   1   4  10   22.00    4.30
  -2  -4 -10   -4.00    2.40
  -2  -4 -10   -1.80    2.10
  -2  -4 -10    4.40    2.80
   2   4  10   -2.80    3.70
   2   4  10   -4.70    2.80
   2   4  10   -2.20    2.40
   2   4  10   -2.50    2.60
   9  -5 -10   34.50    8.40
  -9   5  10   35.10    6.60
   8  -5 -10  114.19    9.70
  -8   5  10  153.28   11.70
  -8   5  10  109.69   11.10
  -8   5  10  121.09   10.30
   7  -5 -10   80.99    6.90
   7  -5 -10   74.89    7.30
  -7   5  10   63.79    8.50
  -7   5  10   75.09    7.70
  -7   5  10   71.19    8.40
   6  -5 -10   58.39    6.30
   6  -5 -10   55.99    6.20
  -6   5  10   56.19    6.70
  -6   5  10   61.69    8.20
  -6   5  10   54.99    7.60
  -6   5  10   59.49    7.30
   5  -5 -10  281.47   15.20
   5  -5 -10  289.97   14.80
  -5   5  10  265.97   16.20
  -5   5  10  318.27   17.90
  -5   5  10  267.37   15.80
  -5   5  10  278.97   16.40
   4  -5 -10   80.19    7.00
   4  -5 -10   72.79    6.90
  -4   5  10   74.89    7.80
  -4   5  10   70.69    7.80
  -4   5  10   62.59    7.80
  -4   5  10   71.49    8.00
   3  -5 -10   31.20    4.70
   3  -5 -10   26.60    4.00
  -3   5  10   22.70    4.50
  -3   5  10   18.30    4.40
  -3   5  10   37.10    5.20
  -3   5  10   20.00    5.30
   2  -5 -10   33.40    5.00
   2  -5 -10   40.60    5.00
  -2   5  10   29.80    6.40
  -2   5  10   27.90    5.00
  -2   5  10   20.40    4.80
   1  -5 -10   53.99    6.10
   1  -5 -10   53.29    5.90
  -1   5  10   65.79    7.40
  -1   5  10   58.69    7.30
  -1   5  10   41.80    7.40
   0  -5 -10    6.80    2.90
   0  -5 -10    1.00    2.60
   0   5  10   10.40    3.40
   0   5  10    5.50    3.10
   0   5  10    6.00    5.60
  -1  -5 -10    8.40    2.90
  -1  -5 -10   12.80    3.80
   1   5  10   -4.20   10.10
   1   5  10   10.00    4.70
   1   5  10   14.90    7.70
   8  -6 -10   37.20    6.90
   8  -6 -10   43.00    6.30
  -8   6  10   60.69    8.30
  -8   6  10   29.60    6.60
  -8   6  10   42.50    6.40
   7  -6 -10   -1.10    2.80
  -7   6  10    9.00    2.90
  -7   6  10    4.60    6.50
   6  -6 -10   79.79    7.80
  -6   6  10   87.79    9.70
  -6   6  10   63.69    8.70
  -6   6  10   84.89    8.10
   5  -6 -10  117.99    8.60
   5  -6 -10  103.79    8.80
  -5   6  10  128.69   10.50
  -5   6  10  114.79   10.00
   4  -6 -10   20.20    4.20
   4  -6 -10   23.90    4.10
  -4   6  10   18.60    5.40
  -4   6  10   19.70    4.40
  -4   6  10   27.50    6.10
  -4   6  10   27.50    6.00
   3  -6 -10  131.39    9.40
   3  -6 -10  134.39   10.10
  -3   6  10  131.09   11.00
  -3   6  10  143.19   11.20
  -3   6  10  121.89   11.40
   2  -6 -10  127.79   10.60
  -2   6  10  110.99   10.20
  -2   6  10  123.39   10.90
  -2   6  10  112.69   12.90
   1  -6 -10   17.80    4.00
  -1   6  10    9.60    5.40
  -1   6  10   17.50    5.40
   3  12 -11    7.30    4.50
  -3 -12  11   10.50    5.60
   2  12 -11    3.70    2.40
  -2 -12  11    2.60    2.30
  -2 -12  11    5.10    2.60
   1  12 -11  146.29   12.00
   1  12 -11  154.98   10.80
  -1 -12  11  144.29    9.90
  -1 -12  11  168.78   13.20
   0  12 -11  250.57   13.70
   0  12 -11  224.78   15.40
   0 -12  11  205.58   15.50
   0 -12  11  233.28   13.10
  -1  12 -11    3.60    2.50
  -1  12 -11    2.60    2.70
   1 -12  11   -1.70    2.20
  -2  12 -11  159.48   10.10
  -2  12 -11  185.68   14.10
   2 -12  11  178.98   10.80
   2 -12  11  157.18   11.10
   2 -12  11  140.09   12.70
  -3  12 -11  281.67   17.10
   3 -12  11  286.47   13.60
   5  11 -11  115.39   11.00
   5  11 -11  113.39    9.90
  -5 -11  11  131.69   13.50
  -5 -11  11  110.49   16.20
   4  11 -11  109.19   10.10
   4  11 -11  117.59    9.80
  -4 -11  11  145.89   12.10
  -4 -11  11  148.89   10.30
   3  11 -11   87.49    8.10
   3  11 -11   86.79    8.50
  -3 -11  11   95.59    6.40
  -3 -11  11   94.29    9.70
   2  11 -11   94.79    8.70
   2  11 -11   74.39    7.30
  -2 -11  11   82.79    6.60
  -2 -11  11   82.79    8.70
   1  11 -11  113.39    8.90
   1  11 -11   94.99    9.30
  -1 -11  11  108.89   10.30
  -1 -11  11   97.19    9.20
   0  11 -11  120.39    8.80
   0  11 -11  108.39   10.00
   0 -11  11  103.39   10.60
   0 -11  11  105.89    8.70
  -1  11 -11   33.40    6.30
  -1  11 -11   19.70    4.90
   1 -11  11   27.60    4.60
   1 -11  11   16.90    4.70
  -2  11 -11  302.27   14.40
  -2  11 -11  295.47   17.90
   2 -11  11  305.77   16.40
   2 -11  11  285.27   12.80
  -3  11 -11  270.07   13.40
  -3  11 -11  290.07   17.50
   3 -11  11  258.47   15.50
   3 -11  11  295.17   13.60
  -4  11 -11  180.18   14.40
  -4  11 -11  186.58   13.60
   4 -11  11  175.58   10.40
   4 -11  11  143.09   14.80
   6  10 -11    9.10    4.80
   6  10 -11   14.20    4.30
  -6 -10  11   15.60    5.20
  -6 -10  11   16.50    5.70
   5  10 -11   64.39    7.10
   5  10 -11   63.09    7.50
  -5 -10  11   85.29    9.00
   4  10 -11   40.10    5.60
   4  10 -11   41.50    5.80
  -4 -10  11   50.69    4.20
  -4 -10  11   36.80    5.80
   3  10 -11  118.59    9.90
   3  10 -11   92.99    8.40
  -3 -10  11  100.19   10.00
  -3 -10  11   96.39    6.70
   2  10 -11  273.47   14.90
   2  10 -11  274.37   16.50
  -2 -10  11  294.47   13.90
  -2 -10  11  296.27   17.90
   1  10 -11  203.08   13.00
   1  10 -11  197.68   11.60
  -1 -10  11  193.28   11.10
  -1 -10  11  182.98   14.00
   0  10 -11   22.00    3.80
   0  10 -11   17.60    4.00
   0 -10  11   11.10    4.10
   0 -10  11   16.40    2.80
   0 -10  11   18.00    6.10
  -1  10 -11   61.39    7.60
  -1  10 -11   56.19    6.00
   1 -10  11   62.39    6.30
   1 -10  11   56.49    4.50
  -2  10 -11  137.49    8.90
  -2  10 -11  139.49   11.20
   2 -10  11  140.49    8.20
   2 -10  11  140.49   10.50
  -3  10 -11   85.09    6.60
  -3  10 -11   84.49    8.90
   3 -10  11   82.69    7.60
   3 -10  11   79.09    6.20
  -4  10 -11  107.69   10.30
  -4  10 -11  119.99   10.90
   4 -10  11  105.39    9.30
   4 -10  11  105.39    7.80
  -5  10 -11  236.78   16.10
  -5  10 -11  241.38   24.60
   5 -10  11  211.18   14.70
   7   9 -11    1.60    2.10
   7   9 -11    0.40    2.10
  -7  -9  11    3.90    2.50
  -7  -9  11    7.40    2.70
   6   9 -11    0.50    1.70
   6   9 -11   -1.40    1.80
  -6  -9  11    0.60    1.90
   5   9 -11    2.60    2.40
   5   9 -11    3.20    3.00
  -5  -9  11    2.80    2.30
  -5  -9  11    5.70    1.90
   4   9 -11   11.30    3.30
   4   9 -11   11.70    3.50
  -4  -9  11   19.80    2.60
  -4  -9  11   12.80    3.80
   3   9 -11  164.48   10.70
   3   9 -11  176.08   12.30
  -3  -9  11  176.78   12.90
  -3  -9  11  182.58    9.80
   2   9 -11  274.67   15.90
   2   9 -11  282.47   18.60
  -2  -9  11  307.37   14.00
  -2  -9  11  278.57   17.30
   1   9 -11   55.69    7.10
   1   9 -11   66.59    6.30
  -1  -9  11   66.39    8.10
  -1  -9  11   68.29    6.00
   0   9 -11   50.59    5.50
   0   9 -11   53.59    6.60
   0  -9  11   63.29    5.80
   0  -9  11   55.09    4.30
  -1   9 -11  355.26   19.30
  -1   9 -11  377.96   16.80
   1  -9  11  381.66   18.20
  -2   9 -11  115.79    7.30
  -2   9 -11   96.19    9.50
   2  -9  11   99.79    6.80
   2  -9  11  106.69    8.50
  -3   9 -11   58.09    7.50
  -3   9 -11   73.19    5.60
   3  -9  11   49.50    6.60
   3  -9  11   53.09    5.40
  -4   9 -11   85.29    9.30
   4  -9  11  103.39    8.70
   4  -9  11   81.59    6.60
  -5   9 -11   98.19    9.60
   5  -9  11   79.09    7.00
   8   8 -11   56.39    6.90
   8   8 -11   78.49    7.30
  -8  -8  11   67.19    9.20
  -8  -8  11   67.19    9.10
   7   8 -11   28.80    5.00
   7   8 -11   19.90    3.90
  -7  -8  11   29.50    5.00
  -7  -8  11   30.40    5.10
   6   8 -11   41.30    5.30
   6   8 -11   54.99    6.40
  -6  -8  11   48.80    4.40
  -6  -8  11   44.10    6.50
   5   8 -11   -1.50    1.90
   5   8 -11   -2.20    1.60
  -5  -8  11   -0.20    1.90
  -5  -8  11   -1.60    1.10
   4   8 -11   16.30    4.00
  -4  -8  11   16.50    2.90
  -4  -8  11   17.80    3.70
   3   8 -11   45.50    5.30
   3   8 -11   39.70    5.70
  -3  -8  11   44.80    4.40
   2   8 -11  132.39    9.00
   2   8 -11  113.69    9.50
  -2  -8  11  124.99    8.00
  -2  -8  11  122.89   10.90
   1   8 -11   23.70    4.70
   1   8 -11   26.40    4.10
  -1  -8  11   26.50    3.60
   0   8 -11  187.78   10.50
   0   8 -11  164.58   13.10
   0  -8  11  175.78   10.80
  -1   8 -11  405.36   17.40
  -1   8 -11  393.16   20.20
   1  -8  11  404.46   20.10
  -2   8 -11  122.89    7.80
  -2   8 -11  105.99    9.60
   2  -8  11  111.59    8.80
   2  -8  11  103.39    6.90
  -3   8 -11   78.29    5.70
  -3   8 -11   62.19    7.50
   3  -8  11   76.49    6.20
   3  -8  11   61.49    6.80
  -4   8 -11  113.29   10.20
  -4   8 -11  109.09    7.50
   4  -8  11  113.39    7.90
   4  -8  11  116.69    9.40
  -5   8 -11  110.99   10.10
  -5   8 -11   98.39   10.30
   5  -8  11  112.89    9.50
   5  -8  11  106.19    7.80
  -6   8 -11   85.29   12.50
   6  -8  11   63.29    9.20
   6  -8  11   72.69    8.00
   9   7 -11   54.09    6.90
   9   7 -11   65.89    6.70
  -9  -7  11   60.09   10.30
   8   7 -11   15.60    3.80
   8   7 -11   20.60    4.00
  -8  -7  11   19.90    3.60
  -8  -7  11   19.40    4.70
   7   7 -11   -1.60    1.90
   7   7 -11    1.20    2.00
  -7  -7  11    2.20    1.70
  -7  -7  11    3.20    2.80
   6   7 -11   -4.20    1.80
   6   7 -11   -1.10    1.70
  -6  -7  11   -1.60    1.70
  -6  -7  11    1.20    1.30
   5   7 -11   10.80    3.10
   5   7 -11   12.20    3.40
   5   7 -11    9.10    2.60
  -5  -7  11    6.30    2.00
  -5  -7  11    5.70    2.40
   4   7 -11    2.70    2.60
   4   7 -11   -0.90    1.60
   4   7 -11    4.00    1.60
  -4  -7  11    1.00    1.10
  -4  -7  11    1.70    1.80
   3   7 -11    2.90    2.10
   3   7 -11    5.60    2.10
   3   7 -11    2.60    2.60
  -3  -7  11    5.70    2.60
  -3  -7  11    3.20    1.50
   2   7 -11    2.30    1.50
   2   7 -11   -0.70    1.60
   2   7 -11   -3.80    2.00
  -2  -7  11   -1.90    1.40
  -2  -7  11    1.90    1.40
   1   7 -11  105.89    8.80
   1   7 -11  125.19    8.30
   1   7 -11  112.49    6.50
  -1  -7  11  116.39    7.90
   0   7 -11  509.95   20.20
   0   7 -11  481.95   22.30
   0  -7  11  497.25   21.00
   0  -7  11  468.55   20.50
  -1   7 -11  330.47   17.30
  -1   7 -11  355.06   15.10
   1  -7  11  322.07   13.30
   1  -7  11  316.77   16.10
  -2   7 -11  147.29   11.10
  -2   7 -11  178.98    9.50
  -2   7 -11  179.88   11.40
   2  -7  11  154.28   10.50
   2  -7  11  160.08    8.80
  -3   7 -11  160.78    8.70
  -3   7 -11  148.59   11.00
  -3   7 -11  160.48   11.40
   3  -7  11  156.58    8.70
   3  -7  11  162.08   10.60
  -4   7 -11  235.28   12.70
  -4   7 -11  223.68   14.90
  -4   7 -11  240.18   14.40
   4  -7  11  232.48   14.10
   4  -7  11  236.88   12.30
  -5   7 -11  137.69   11.50
  -5   7 -11  143.69   11.80
   5  -7  11  153.48   10.90
   5  -7  11  155.78    9.60
  -6   7 -11   38.00    6.40
  -6   7 -11   32.20    6.10
   6  -7  11   46.90    6.60
   6  -7  11   28.30    4.50
   9   6 -11   65.29    7.00
   9   6 -11   82.29    7.00
  -9  -6  11   76.29    8.40
   8   6 -11    4.80    3.00
   8   6 -11   11.10    3.50
   8   6 -11    7.90    3.30
  -8  -6  11    9.90    3.10
  -8  -6  11    8.20    3.00
   7   6 -11    1.40    2.40
   7   6 -11   -0.20    2.10
   7   6 -11    0.40    2.10
  -7  -6  11    2.80    1.80
  -7  -6  11    2.40    2.10
   6   6 -11   86.39    7.30
   6   6 -11   68.29    6.90
   6   6 -11   79.69    7.00
  -6  -6  11   86.89    6.10
   5   6 -11  339.47   16.70
   5   6 -11  354.26   16.90
   5   6 -11  328.67   16.10
  -5  -6  11  354.56   18.60
  -5  -6  11  341.17   14.80
   4   6 -11   25.60    3.90
   4   6 -11   28.00    4.30
   4   6 -11   36.70    4.00
  -4  -6  11   23.50    4.80
  -4  -6  11   27.20    3.40
   3   6 -11   34.90    4.10
   3   6 -11   36.00    4.50
   3   6 -11   31.90    5.20
  -3  -6  11   38.70    4.00
  -3  -6  11   38.40    5.60
   2   6 -11   63.69    5.70
   2   6 -11   66.19    5.20
   2   6 -11   56.59    6.10
  -2  -6  11   59.79    5.20
   1   6 -11  146.39    7.70
   1   6 -11  149.19    8.80
   1   6 -11  130.89    9.60
  -1  -6  11  133.59    8.50
  -1  -6  11  128.09    7.50
   0   6 -11   82.79    7.80
   0   6 -11   90.79    5.40
   0   6 -11   89.29    7.80
   0   6 -11   87.39    6.50
   0  -6  11   95.59    7.20
   0  -6  11   76.59    5.20
  -1   6 -11    1.00    1.90
  -1   6 -11   -0.20    1.90
  -1   6 -11    0.40    2.10
   1  -6  11    0.60    1.30
  -2   6 -11   29.60    4.40
  -2   6 -11   36.30    5.20
   2  -6  11   39.00    4.10
  -3   6 -11  528.05   19.40
  -3   6 -11  447.86   22.40
  -3   6 -11  466.75   22.20
   3  -6  11  504.05   19.80
   3  -6  11  501.45   22.20
  -4   6 -11  221.68   10.40
  -4   6 -11  208.68   13.40
  -4   6 -11  169.78   13.00
   4  -6  11  233.98   13.60
   4  -6  11  237.38   11.80
  -5   6 -11   26.10    5.00
  -5   6 -11   20.10    5.10
   5  -6  11   27.80    4.00
   5  -6  11   21.10    4.40
  -6   6 -11   56.39    7.60
  -6   6 -11   60.19    7.80
   6  -6  11   56.29    8.40
   6  -6  11   33.80    6.40
  10   5 -11  198.08   12.90
 -10  -5  11  182.28   13.90
 -10  -5  11  185.88   13.60
   9   5 -11   61.29    6.60
   9   5 -11   53.79    6.50
   9   5 -11   59.09    5.20
  -9  -5  11   50.99    5.40
  -9  -5  11   46.40    6.80
   8   5 -11   43.10    6.20
   8   5 -11   48.10    6.20
   8   5 -11   45.00    5.50
  -8  -5  11   50.19    6.10
  -8  -5  11   51.39    5.60
   7   5 -11   68.59    6.70
   7   5 -11   68.49    6.90
   7   5 -11   64.09    6.90
  -7  -5  11   86.99    6.50
   6   5 -11   67.29    6.30
   6   5 -11   65.99    6.50
   6   5 -11   57.79    5.70
  -6  -5  11   61.39    5.40
  -6  -5  11   53.79    6.40
   5   5 -11   42.70    5.10
   5   5 -11   37.30    4.60
   5   5 -11   33.50    4.90
  -5  -5  11   37.40    5.50
  -5  -5  11   46.70    4.50
   4   5 -11    2.80    1.90
   4   5 -11    2.10    1.90
   4   5 -11    2.90    1.70
  -4  -5  11   -0.60    1.40
  -4  -5  11    2.20    1.40
   3   5 -11   71.19    5.90
   3   5 -11   66.29    5.50
   3   5 -11   67.09    6.30
  -3  -5  11   59.99    5.10
  -3  -5  11   54.79    6.60
   2   5 -11    5.70    1.70
   2   5 -11    1.30    1.50
   2   5 -11    0.80    1.20
  -2  -5  11    0.70    1.40
   1   5 -11    3.00    1.40
   1   5 -11    3.50    1.60
   1   5 -11    5.30    1.90
   1   5 -11    4.50    2.60
  -1  -5  11    4.30    1.20
  -1  -5  11    2.90    2.00
   0   5 -11   -1.40    1.20
   0   5 -11    0.10    1.80
   0   5 -11   -1.70    1.60
   0  -5  11   -0.30    1.10
  -1   5 -11   36.70    3.50
  -1   5 -11   39.30    4.90
  -1   5 -11   26.10    4.20
  -1   5 -11   37.70    4.90
   1  -5  11   34.10    3.60
   1  -5  11   34.80    4.70
  -2   5 -11  179.28    9.70
  -2   5 -11  153.48   10.80
  -2   5 -11  147.89   10.80
   2  -5  11  166.58    9.00
   2  -5  11  155.88   10.20
  -3   5 -11  247.48   14.60
  -3   5 -11  302.77   13.20
  -3   5 -11  240.38   14.80
   3  -5  11  296.47   15.10
   3  -5  11  264.07   14.30
  -4   5 -11  109.29   13.50
  -4   5 -11   92.59    8.70
  -4   5 -11  107.09    9.80
   4  -5  11   92.09    7.20
   4  -5  11   94.09    7.80
  -5   5 -11  153.68   11.10
  -5   5 -11  151.78   11.70
   5  -5  11  146.59    9.60
   5  -5  11  178.28   11.50
  -6   5 -11  196.68   12.90
   6  -5  11  202.98   13.10
   6  -5  11  192.78   14.20
  10   4 -11  159.88   10.80
  10   4 -11  164.38   12.30
 -10  -4  11  163.08   12.10
   9   4 -11   83.39    8.00
   9   4 -11   89.29    8.20
   9   4 -11   86.89    6.20
  -9  -4  11   79.29    7.30
  -9  -4  11   84.89    8.60
   8   4 -11  105.19    8.90
   8   4 -11  108.29    7.50
   8   4 -11   97.69    8.20
  -8  -4  11  114.69    8.20
  -8  -4  11  101.69    9.30
   7   4 -11  298.97   14.00
  -7  -4  11  292.47   16.10
  -7  -4  11  297.17   14.40
  -7  -4  11  282.87   11.90
   6   4 -11   57.99    6.00
   6   4 -11   63.69    5.70
   6   4 -11   68.29    6.60
  -6  -4  11   59.89    5.30
  -6  -4  11   58.19    6.60
   5   4 -11   15.90    3.60
   5   4 -11   13.60    2.80
   5   4 -11   13.70    2.90
  -5  -4  11   11.60    2.90
  -5  -4  11   17.60    3.80
   4   4 -11   50.49    5.40
   4   4 -11   52.89    5.30
   4   4 -11   46.20    4.90
  -4  -4  11   45.30    5.70
  -4  -4  11   56.69    5.00
   3   4 -11   14.30    3.30
   3   4 -11    9.40    2.40
   3   4 -11    7.10    3.00
  -3  -4  11   10.60    2.40
   2   4 -11    6.00    2.00
   2   4 -11    1.80    1.70
  -2  -4  11    5.00    1.80
  -2  -4  11    4.50    1.40
   1   4 -11   11.80    3.20
   1   4 -11    6.90    2.60
   1   4 -11    6.00    2.20
  -1  -4  11    5.40    1.60
  -1  -4  11    5.90    2.50
   0   4 -11   28.30    4.30
   0   4 -11   22.60    4.50
   0   4 -11   30.30    3.50
   0  -4  11   32.30    3.20
   0  -4  11   30.00    4.00
  -1   4 -11    1.00    1.50
  -1   4 -11    4.00    2.00
  -1   4 -11    3.60    2.00
   1  -4  11    4.50    2.10
   1  -4  11    4.80    1.30
  -2   4 -11  189.08   12.60
  -2   4 -11  208.68    9.20
  -2   4 -11  195.08   12.00
   2  -4  11  193.18   11.50
   2  -4  11  199.58   10.40
  -3   4 -11   19.10    4.30
  -3   4 -11   31.80    3.50
  -3   4 -11   31.30    4.60
   3  -4  11   26.60    4.00
   3  -4  11   24.10    4.40
  -4   4 -11   60.89    7.00
  -4   4 -11   65.09    6.70
   4  -4  11   56.49    5.80
   4  -4  11   62.19    7.00
  -5   4 -11  172.98   11.80
  -5   4 -11  193.28   13.00
   5  -4  11  214.48   12.70
   5  -4  11  200.58   11.20
  -6   4 -11  165.88   12.60
  -6   4 -11  159.58   11.50
   6  -4  11  181.68   11.60
  10   3 -11  132.39    9.90
  10   3 -11  136.39   10.70
 -10  -3  11  125.39   10.30
   9   3 -11  169.28    9.00
   9   3 -11  179.38   12.30
   9   3 -11  167.38   11.10
  -9  -3  11  173.38   11.30
  -9  -3  11  176.38   11.70
   8   3 -11  316.37   16.40
   8   3 -11  349.37   17.70
   8   3 -11  346.67   14.20
   8   3 -11  341.27   14.80
  -8  -3  11  338.67   16.40
  -8  -3  11  332.67   14.30
  -8  -3  11  350.56   17.60
   7   3 -11  237.08   14.40
   7   3 -11  248.38   12.00
   7   3 -11  238.28   13.20
   7   3 -11  233.08   11.20
  -7  -3  11  246.58   12.90
  -7  -3  11  248.88   14.00
  -7  -3  11  251.77   11.20
   6   3 -11   26.80    4.60
   6   3 -11   28.50    4.20
   6   3 -11   23.60    4.10
  -6  -3  11   24.10    4.00
  -6  -3  11   23.60    4.30
  -6  -3  11   26.00    4.50
   5   3 -11    5.60    2.40
   5   3 -11   12.50    2.80
  -5  -3  11    4.30    2.10
  -5  -3  11    2.90    1.70
   4   3 -11  298.27   14.20
   4   3 -11  281.17   13.70
  -4  -3  11  289.77   15.30
  -4  -3  11  284.47   13.70
   3   3 -11    8.10    2.10
   3   3 -11    6.70    2.40
   3   3 -11    9.20    2.80
  -3  -3  11    8.80    2.30
   2   3 -11    1.70    1.40
   2   3 -11   -1.40    1.30
   2   3 -11    0.10    1.60
  -2  -3  11    1.00    1.10
  -2  -3  11    0.50    1.30
   1   3 -11   24.80    4.10
   1   3 -11   29.30    3.90
  -1  -3  11   34.20    3.90
  -1  -3  11   27.70    3.00
   0   3 -11    7.20    2.30
   0   3 -11    8.30    2.00
   0   3 -11    8.20    2.40
   0  -3  11    6.50    2.20
  -1   3 -11    0.40    1.90
  -1   3 -11   -1.40    1.40
  -1   3 -11    0.60    1.80
   1  -3  11    0.00    1.60
   1  -3  11    0.80    1.40
   1  -3  11   -2.30    1.90
  -2   3 -11   20.10    2.80
  -2   3 -11   18.20    3.80
   2  -3  11   16.00    2.70
   2  -3  11   13.70    3.50
  -3   3 -11   10.50    2.10
  -3   3 -11   11.90    3.00
   3  -3  11    4.50    2.40
   3  -3  11   11.10    3.10
  -4   3 -11   46.20    5.80
  -4   3 -11   51.29    6.90
   4  -3  11   46.40    6.10
   4  -3  11   50.29    5.50
  -5   3 -11   75.09    7.50
   5  -3  11   92.39    7.40
   5  -3  11  101.39    8.00
  11   2 -11   59.29    6.50
  11   2 -11   72.29    7.90
 -11  -2  11   56.19    7.20
  10   2 -11   72.59    6.80
  10   2 -11   73.99    7.40
  10   2 -11   79.49    7.40
 -10  -2  11   76.09    8.00
   9   2 -11  211.28   13.40
   9   2 -11  222.38   11.50
   9   2 -11  212.38   12.60
  -9  -2  11  225.38   13.30
  -9  -2  11  236.78   13.30
   8   2 -11  331.17   17.40
   8   2 -11  360.76   16.00
   8   2 -11  345.67   17.50
  -8  -2  11  367.46   15.50
  -8  -2  11  344.17   17.40
  -8  -2  11  345.57   21.70
   7   2 -11  220.78   14.10
   7   2 -11  206.28   12.40
   7   2 -11  208.48   12.30
  -7  -2  11  253.37   13.40
  -7  -2  11  245.68   13.20
  -7  -2  11  233.88   11.50
   6   2 -11  259.27   14.00
   6   2 -11  259.67   12.10
  -6  -2  11  240.98   13.10
  -6  -2  11  235.68   12.30
  -6  -2  11  268.97   13.80
   5   2 -11  215.48   12.50
   5   2 -11  194.48   11.40
  -5  -2  11  202.38   11.60
  -5  -2  11  199.78   11.40
   4   2 -11  162.08    9.80
   4   2 -11  162.98   11.00
   4   2 -11  172.88    9.60
  -4  -2  11  174.58   10.80
  -4  -2  11  169.28    9.80
   3   2 -11    5.80    2.40
   3   2 -11    0.60    1.40
   3   2 -11    7.40    2.10
  -3  -2  11    3.50    1.80
   2   2 -11    9.50    2.30
   2   2 -11    6.50    2.50
   2   2 -11   11.70    2.30
  -2  -2  11   10.90    2.00
  -2  -2  11    7.60    2.40
   1   2 -11   50.59    5.40
   1   2 -11   50.89    4.60
   1   2 -11   45.60    5.10
  -1  -2  11   57.29    4.60
  -1  -2  11   59.59    5.30
  -1  -2  11   60.99    4.10
   0   2 -11    1.60    1.60
   0   2 -11    6.30    2.10
   0   2 -11    3.70    1.70
   0  -2  11    3.60    1.80
   0  -2  11    2.60    2.00
   0  -2  11    3.90    1.70
  -1   2 -11    6.00    2.10
  -1   2 -11    5.90    1.90
   1  -2  11    7.80    1.90
   1  -2  11    6.90    2.20
  -2   2 -11   -0.20    1.60
  -2   2 -11    0.00    1.60
   2  -2  11   -2.40    2.00
   2  -2  11    2.50    1.90
   2  -2  11    0.30    1.60
  -3   2 -11   -1.80    2.10
  -3   2 -11   -2.10    1.70
   3  -2  11   -2.90    2.20
   3  -2  11   -3.30    1.50
   3  -2  11    1.20    2.50
  -4   2 -11   35.70    4.90
  -4   2 -11   20.00    4.30
   4  -2  11   35.10    4.10
   4  -2  11   21.60    4.20
   4  -2  11   29.70    5.00
  -5   2 -11   26.60    5.00
  -5   2 -11   32.60    5.60
  -5   2 -11   31.80    6.90
   5  -2  11   34.60    5.40
   5  -2  11   34.80    5.70
  11   1 -11   15.90    4.80
  11   1 -11   16.50    4.90
  11   1 -11   19.00    3.70
 -11  -1  11   21.30    4.90
  10   1 -11   76.49    7.30
  10   1 -11   57.59    7.70
  10   1 -11   78.79    7.90
   9   1 -11  162.08   10.70
   9   1 -11  159.28   11.50
   9   1 -11  171.68   10.70
  -9  -1  11  169.48   11.30
  -9  -1  11  161.98    9.60
  -9  -1  11  168.68   10.60
   8   1 -11   92.39    8.80
   8   1 -11  108.69    8.20
   8   1 -11  111.19    8.90
  -8  -1  11  107.79    8.60
  -8  -1  11  119.69    7.90
  -8  -1  11   96.19    7.70
   7   1 -11  138.39    7.50
  -7  -1  11  145.09    9.00
  -7  -1  11  143.29    9.30
  -7  -1  11  136.19    9.60
   6   1 -11  266.87   14.60
  -6  -1  11  305.97   14.50
  -6  -1  11  298.57   14.40
  -6  -1  11  290.17   14.90
   5   1 -11  363.66   18.30
   5   1 -11  380.16   16.00
   5   1 -11  354.46   17.10
  -5  -1  11  397.36   17.50
  -5  -1  11  398.96   17.80
  -5  -1  11  362.46   16.70
   4   1 -11  240.08   12.60
   4   1 -11  259.97   13.80
   4   1 -11  232.58   13.40
  -4  -1  11  227.78   12.40
  -4  -1  11  233.18   12.60
   3   1 -11  110.99    7.60
   3   1 -11   97.09    8.10
   3   1 -11  112.89    7.30
  -3  -1  11  108.29    7.70
   2   1 -11   48.80    5.30
   2   1 -11   55.19    5.20
   2   1 -11   53.09    5.00
  -2  -1  11   45.20    3.90
  -2  -1  11   51.19    4.60
  -2  -1  11   52.89    4.80
   1   1 -11    0.80    1.70
   1   1 -11   -1.40    1.20
   1   1 -11    0.30    1.30
  -1  -1  11    1.90    1.60
  -1  -1  11    0.40    1.40
  -1  -1  11   -2.30    1.20
   0   1 -11    8.10    1.70
   0   1 -11    6.60    2.00
   0  -1  11    6.50    2.10
   0  -1  11   10.80    2.80
   0  -1  11    7.50    1.80
  -1   1 -11    2.90    2.00
   1  -1  11   -0.50    2.00
   1  -1  11    2.70    1.90
   1  -1  11    3.50    1.70
  -2   1 -11   11.60    3.00
  -2   1 -11   15.80    3.10
   2  -1  11   16.50    3.40
   2  -1  11    9.70    2.50
   2  -1  11   11.10    3.30
  -3   1 -11   -0.40    2.10
  -3   1 -11    0.00    1.80
   3  -1  11   -1.50    2.40
   3  -1  11   -2.80    1.80
  -4   1 -11    2.80    3.20
  -4   1 -11    5.70    2.40
  -4   1 -11    4.30    2.40
   4  -1  11    9.50    3.40
   4  -1  11    6.30    3.30
  -5   1 -11   13.80    8.40
  -5   1 -11   24.40    5.70
   5  -1  11   26.30    5.10
   5  -1  11   20.40    4.40
   5  -1  11   19.10    4.90
  11   0 -11   49.90    7.30
  11   0 -11   39.80    5.70
  11   0 -11   55.39    7.60
 -11   0  11   39.30    6.00
  10   0 -11   12.90    4.20
  10   0 -11   17.20    3.80
  10   0 -11   23.80    4.90
 -10   0  11   13.50    3.90
 -10   0  11   16.50    4.40
   9   0 -11  147.69   10.50
   9   0 -11  139.59   10.30
   9   0 -11  115.59    9.50
  -9   0  11  146.79    9.80
  -9   0  11  151.88   11.00
  -9   0  11  139.59    9.00
   8   0 -11   58.09    6.60
   8   0 -11   62.79    6.90
  -8   0  11   70.19    7.10
  -8   0  11   70.39    6.10
  -8   0  11   76.59    6.20
   7   0 -11   34.30    4.90
  -7   0  11   26.00    4.70
  -7   0  11   25.90    4.70
  -7   0  11   33.10    4.10
   6   0 -11  411.46   19.60
   6   0 -11  451.45   17.80
   6   0 -11  357.86   18.10
  -6   0  11  402.46   18.60
  -6   0  11  402.66   17.40
  -6   0  11  402.16   19.10
   5   0 -11  607.34   25.70
   5   0 -11  595.04   24.90
  -5   0  11  621.34   25.60
  -5   0  11  632.04   23.70
  -5   0  11  612.94   25.30
   4   0 -11   80.79    7.20
   4   0 -11   93.99    8.40
   4   0 -11   89.69    6.80
  -4   0  11   80.39    6.60
  -4   0  11   74.89    5.40
  -4   0  11   79.39    6.90
  -4   0  11   74.59    7.20
   3   0 -11  122.29    9.00
   3   0 -11  129.59    7.90
   3   0 -11  139.19    8.80
  -3   0  11  141.59    8.90
  -3   0  11  116.29    7.50
   2   0 -11  298.27   15.40
   2   0 -11  327.77   14.90
   2   0 -11  329.17   14.60
  -2   0  11  320.87   14.70
  -2   0  11  295.57   13.70
  -2   0  11  317.67   15.00
   1   0 -11   23.80    3.50
   1   0 -11   20.80    3.90
  -1   0  11   21.30    3.40
  -1   0  11   22.30    3.60
  -1   0  11   27.10    3.90
   0   0 -11    3.70    1.90
   0   0  11    0.70    2.20
   0   0  11    3.00    1.80
   0   0  11    2.00    1.80
  -1   0 -11    0.40    1.90
  -1   0 -11    6.80    2.20
   1   0  11    5.20    2.10
   1   0  11    4.70    2.30
   1   0  11    3.10    2.50
  -2   0 -11   10.10    3.10
  -2   0 -11   12.40    3.40
   2   0  11   15.00    2.60
  -3   0 -11   38.70    5.80
  -3   0 -11   42.20    6.40
  -3   0 -11   41.40    5.30
   3   0  11   30.00    5.20
   3   0  11   43.00    4.60
   3   0  11   38.20    5.30
  -4   0 -11   10.30    2.90
  -4   0 -11   15.00    3.20
   4   0  11    3.20    3.30
   4   0  11   12.70    3.20
  10  -1 -11   99.29    8.80
  10  -1 -11   68.39    7.60
  10  -1 -11   78.49    8.30
 -10   1  11   88.09    7.60
 -10   1  11   69.89    7.90
   9  -1 -11   98.29    8.70
   9  -1 -11   95.09    9.00
  -9   1  11  112.99    8.80
  -9   1  11   91.09    7.40
  -9   1  11  101.79    9.20
   8  -1 -11   62.99    6.90
  -8   1  11   58.89    7.20
  -8   1  11   70.39    6.80
  -8   1  11   56.59    6.00
   7  -1 -11  104.79    8.80
  -7   1  11  112.89    9.60
  -7   1  11  133.09   10.00
  -7   1  11  136.29    9.20
   6  -1 -11  304.47   15.80
   6  -1 -11  348.97   19.20
   6  -1 -11  335.47   17.00
  -6   1  11  340.17   14.50
  -6   1  11  319.47   17.00
  -6   1  11  326.87   16.70
  -6   1  11  336.57   14.40
   5  -1 -11  164.18   10.70
   5  -1 -11  169.88   11.10
  -5   1  11  177.88    9.30
  -5   1  11  175.68    9.50
  -5   1  11  180.88   11.70
  -5   1  11  159.78   10.90
   4  -1 -11  168.68   10.30
   4  -1 -11  157.28    9.30
   4  -1 -11  168.18   10.70
  -4   1  11  165.68    9.40
  -4   1  11  156.48   11.10
  -4   1  11  167.78   10.70
   3  -1 -11  355.96   17.30
   3  -1 -11  374.16   15.70
   3  -1 -11  344.37   16.40
  -3   1  11  373.46   18.70
  -3   1  11  359.16   17.00
  -3   1  11  362.16   16.00
   2  -1 -11  263.27   14.10
   2  -1 -11  266.97   13.60
  -2   1  11  285.07   13.50
  -2   1  11  273.27   13.90
   1  -1 -11  121.99    8.10
   1  -1 -11   98.79   10.40
  -1   1  11  134.99    8.60
  -1   1  11  141.49    8.60
   0  -1 -11  119.29    8.20
   0  -1 -11  104.59    8.20
   0   1  11  139.39    8.90
   0   1  11  112.59    8.10
   0   1  11  118.59    8.50
  -1  -1 -11   49.30    5.60
   1   1  11   64.79    5.70
   1   1  11   52.99    5.30
   1   1  11   65.49    6.50
  -2  -1 -11    1.20    2.10
  -2  -1 -11    2.70    2.30
   2   1  11   -2.80    1.60
   2   1  11    0.30    2.10
   2   1  11   -0.20    2.20
  -3  -1 -11   16.80    4.20
  -3  -1 -11   22.20    4.10
   3   1  11   19.50    4.10
   3   1  11   12.80    3.50
   3   1  11   16.50    3.30
  -4  -1 -11   -3.20    2.10
  -4  -1 -11   -2.20    2.40
   4   1  11   -4.10    2.30
  10  -2 -11  138.49   13.50
  10  -2 -11  141.99   11.90
 -10   2  11  139.59   10.60
   9  -2 -11   36.80    6.40
   9  -2 -11   49.60    6.80
  -9   2  11   56.39    6.80
  -9   2  11   44.70    6.70
   8  -2 -11   88.99    8.10
  -8   2  11  108.39    9.20
   7  -2 -11  249.48   14.50
  -7   2  11  291.77   15.90
  -7   2  11  264.47   15.50
   6  -2 -11   18.90    4.10
   6  -2 -11   19.80    3.70
  -6   2  11   16.00    3.70
  -6   2  11   15.00    2.90
  -6   2  11   11.00    3.80
   5  -2 -11    1.10    1.90
  -5   2  11   -0.80    1.70
  -5   2  11   -4.50    2.20
  -5   2  11   -2.90    2.10
   4  -2 -11   93.19    7.80
   4  -2 -11   95.49    7.70
   4  -2 -11  100.79    6.60
  -4   2  11   92.89    6.60
  -4   2  11   98.09    8.70
  -4   2  11   95.59    7.10
   3  -2 -11  280.97   14.90
   3  -2 -11  272.87   14.50
  -3   2  11  281.67   16.10
  -3   2  11  302.17   14.60
  -3   2  11  293.87   15.90
   2  -2 -11  112.49    9.60
   2  -2 -11  111.29    8.20
  -2   2  11  111.39    8.40
  -2   2  11  106.79    8.40
  -2   2  11  113.99    9.60
   1  -2 -11  164.88   10.10
   1  -2 -11  149.88    9.90
  -1   2  11  167.28   10.70
  -1   2  11  145.19    9.90
  -1   2  11  164.18   11.50
   0  -2 -11  158.28   10.80
   0  -2 -11  172.88   10.50
   0   2  11  171.38   10.80
   0   2  11  175.68   12.90
  -1  -2 -11   36.30    5.00
  -1  -2 -11   30.50    4.40
   1   2  11   31.10    4.90
   1   2  11   34.80    5.50
   1   2  11   21.70    3.70
  -2  -2 -11    3.80    2.70
  -2  -2 -11   -0.20    2.10
   2   2  11    0.70    2.50
   2   2  11   -0.30    3.10
   2   2  11   -3.10    2.50
  -3  -2 -11    0.80    2.60
  -3  -2 -11    3.60    2.60
  -3  -2 -11    9.40    3.20
   3   2  11   -1.20    3.20
   3   2  11    2.30    2.40
   3   2  11    6.90    2.80
  10  -3 -11  211.08   14.70
  10  -3 -11  208.88   14.10
 -10   3  11  190.78   15.60
 -10   3  11  239.68   14.00
   9  -3 -11   48.20    6.50
   9  -3 -11   40.60    6.80
  -9   3  11   34.70    6.70
  -9   3  11   22.80    5.60
   8  -3 -11  205.08   13.20
  -8   3  11  195.98   13.30
  -8   3  11  188.98   14.10
  -8   3  11  208.58   14.00
   7  -3 -11  237.88   13.70
   7  -3 -11  245.58   14.10
  -7   3  11  252.87   15.30
  -7   3  11  242.18   15.10
  -7   3  11  210.18   14.60
  -7   3  11  214.38   12.50
   6  -3 -11   18.90    3.90
   6  -3 -11   20.10    4.00
  -6   3  11   18.30    4.90
  -6   3  11   19.70    3.80
  -6   3  11   17.80    4.30
  -6   3  11   19.00    4.80
   5  -3 -11   96.39    8.30
   5  -3 -11  111.79    7.20
   5  -3 -11  108.79    8.50
  -5   3  11  125.19   10.00
  -5   3  11  112.39    8.50
  -5   3  11  112.29    9.40
   4  -3 -11  165.38    9.00
   4  -3 -11  166.38   10.80
  -4   3  11  178.28   11.30
  -4   3  11  167.88   11.50
  -4   3  11  161.38   12.00
   3  -3 -11  198.18   11.80
   3  -3 -11  187.48   11.70
  -3   3  11  226.28   12.70
  -3   3  11  203.98   13.30
  -3   3  11  200.08   12.40
  -3   3  11  189.68   11.20
   2  -3 -11   33.10    4.40
   2  -3 -11   28.60    4.70
  -2   3  11   36.20    5.70
  -2   3  11   28.60    5.70
  -2   3  11   33.40    4.70
  -2   3  11   30.70    5.10
   1  -3 -11  126.09    9.20
   1  -3 -11  135.29    9.70
  -1   3  11  122.99   10.50
  -1   3  11  128.49    9.00
  -1   3  11  141.49   10.40
   0  -3 -11  226.88   13.00
   0  -3 -11  198.08   12.60
   0   3  11  216.78   14.40
   0   3  11  239.38   14.00
   0   3  11  207.48   12.10
  -1  -3 -11  112.39    9.20
  -1  -3 -11  126.89    9.20
   1   3  11  124.89    9.80
   1   3  11  116.69   10.60
   1   3  11  126.79    9.90
   1   3  11  105.19    8.70
  -2  -3 -11  103.79    8.80
   2   3  11   91.09    8.20
   2   3  11   98.39    8.50
   2   3  11   93.59   12.70
   2   3  11  116.59    9.30
   9  -4 -11   56.59    8.20
   9  -4 -11   63.59    7.70
  -9   4  11   65.29    8.20
   8  -4 -11  217.98   14.10
  -8   4  11  248.38   15.40
  -8   4  11  223.48   15.70
   7  -4 -11   83.79    8.10
   7  -4 -11   84.59    7.70
  -7   4  11   82.89    8.60
  -7   4  11  101.59    9.70
  -7   4  11   74.69    9.20
  -7   4  11   88.79    7.50
   6  -4 -11  102.49    8.80
   6  -4 -11  109.99    8.80
  -6   4  11  110.69    9.40
  -6   4  11  124.29   10.30
  -6   4  11  102.39    9.90
   5  -4 -11  270.67   14.70
   5  -4 -11  266.77   14.80
   5  -4 -11  288.57   16.70
  -5   4  11  243.98   19.40
  -5   4  11  267.27   16.60
  -5   4  11  228.18   15.10
  -5   4  11  329.17   23.20
   4  -4 -11  133.99    9.70
   4  -4 -11  132.09    9.50
  -4   4  11  138.09   10.20
  -4   4  11  132.19   10.10
  -4   4  11  124.89   10.40
  -4   4  11  112.29    9.90
   3  -4 -11   15.90    3.40
  -3   4  11   20.80    3.70
  -3   4  11   17.40    4.20
  -3   4  11   16.10    4.40
  -3   4  11   20.20    4.40
   2  -4 -11   38.10    5.20
   2  -4 -11   39.60    5.30
  -2   4  11   36.00    6.10
  -2   4  11   32.20    5.80
  -2   4  11   28.70    5.80
  -2   4  11   44.80    5.20
   1  -4 -11  116.69    9.30
   1  -4 -11  134.79    9.50
  -1   4  11  128.79   11.10
  -1   4  11  152.88   11.10
  -1   4  11  123.99    9.80
   0  -4 -11   29.20    4.70
   0   4  11   27.90    5.30
   0   4  11   29.40    6.00
   8  -5 -11   23.20    5.30
  -8   5  11   15.20    5.80
  -8   5  11   14.70    4.70
   7  -5 -11   62.49    9.30
  -7   5  11   69.29    9.60
  -7   5  11   66.89    7.10
  -7   5  11   58.89    7.00
   6  -5 -11  280.77   15.20
   6  -5 -11  271.37   15.70
  -6   5  11  264.77   16.90
  -6   5  11  289.47   18.00
  -6   5  11  274.17   15.90
  -6   5  11  275.27   16.90
   5  -5 -11  206.78   12.90
  -5   5  11  211.28   14.10
  -5   5  11  205.78   13.60
  -5   5  11  190.48   14.10
  -5   5  11  192.68   13.40
   4  -5 -11  150.98   10.40
   4  -5 -11  143.89   10.80
  -4   5  11  159.38   12.10
  -4   5  11  147.19   13.80
  -4   5  11  158.18   11.50
  -4   5  11  141.79   11.40
   3  -5 -11   33.10    4.70
  -3   5  11   17.50    4.40
  -3   5  11   19.30    5.90
  -3   5  11   24.90    5.70
  -2   5  11   97.99    9.20
  -2   5  11  115.59   10.00
   1  -5 -11   31.90    7.70
   1  -5 -11   44.70    5.80
  -1   5  11   26.50    5.10
  -1   5  11   38.90    6.40
  -1   5  11   28.90    6.60
   2  12 -12   13.30    4.00
   2  12 -12   14.80    4.20
  -2 -12  12   13.60    3.70
  -2 -12  12   11.90    5.50
   1  12 -12   25.90    6.00
   1  12 -12   28.60    5.10
  -1 -12  12   17.20    3.90
  -1 -12  12   31.50    7.00
   0  12 -12   71.79    7.20
   0  12 -12   63.79    8.30
   0 -12  12   52.69    8.60
   0 -12  12   61.59    6.50
  -1  12 -12   21.40    4.30
  -1  12 -12   26.00    6.10
   1 -12  12   25.50    4.60
   5  11 -12    9.20    2.90
   5  11 -12    4.10    2.80
  -5 -11  12    6.80    3.10
   4  11 -12    4.40    3.30
  -4 -11  12    5.40    2.50
   3  11 -12   81.19    7.90
   3  11 -12   94.59    8.70
  -3 -11  12   77.39    9.30
  -3 -11  12   89.39    6.50
   2  11 -12   12.00    3.80
   2  11 -12    7.60    3.10
  -2 -11  12   10.80    3.10
  -2 -11  12   13.00    4.20
   1  11 -12    4.70    3.00
   1  11 -12    2.40    2.90
  -1 -11  12    5.30    3.00
  -1 -11  12    0.70    2.30
   0  11 -12    1.10    2.60
   0  11 -12    0.70    2.60
   0 -11  12    5.70    2.80
   0 -11  12    0.20    2.70
  -1  11 -12   61.89    7.20
  -1  11 -12   72.99    8.60
   1 -11  12   67.99    7.20
  -2  11 -12   98.69   10.00
   2 -11  12   85.79    6.60
   2 -11  12  107.69    9.10
  -3  11 -12  160.78   20.10
   3 -11  12  167.48    9.30
   3 -11  12  143.89   15.30
   6  10 -12   75.39    7.90
   6  10 -12   67.79    9.30
   5  10 -12    2.70    2.50
   5  10 -12    3.20    2.60
  -5 -10  12    2.50    2.60
  -5 -10  12    0.20    2.00
   4  10 -12  114.09    9.50
   4  10 -12   98.79    9.30
  -4 -10  12  115.39    7.40
  -4 -10  12  116.19   10.80
   3  10 -12  131.89   10.10
   3  10 -12  126.99   10.90
  -3 -10  12  139.89    8.60
  -3 -10  12  152.98   12.10
   2  10 -12   10.40    3.30
   2  10 -12    8.10    3.00
  -2 -10  12    5.10    2.90
   1  10 -12    1.80    2.70
   1  10 -12    3.50    2.50
  -1 -10  12    5.40    2.20
  -1 -10  12   12.10    3.80
   0  10 -12   16.10    4.20
   0  10 -12    9.60    3.90
   0 -10  12   22.30    4.40
  -1  10 -12    0.10    2.90
  -1  10 -12    0.30    2.20
   1 -10  12    2.70    1.40
   1 -10  12    4.20    2.50
  -2  10 -12   73.59    7.10
  -2  10 -12   58.89    8.10
   2 -10  12   76.09    7.30
   2 -10  12   58.19    5.30
  -3  10 -12   26.50    5.00
  -3  10 -12   26.10    5.70
   3 -10  12   33.70    4.60
   3 -10  12   38.90    6.00
   4 -10  12   17.10    5.00
   4 -10  12   13.40    2.90
   7   9 -12  216.78   15.80
  -7  -9  12  210.28   16.60
   6   9 -12    3.60    2.80
   6   9 -12    1.90    2.70
  -6  -9  12    6.40    2.30
  -6  -9  12    7.60    3.10
   5   9 -12   35.90    5.70
   5   9 -12   51.89    6.30
  -5  -9  12   52.89    4.30
  -5  -9  12   47.50    6.30
   4   9 -12  102.09    8.60
   4   9 -12   98.79    8.80
  -4  -9  12   96.19    9.70
  -4  -9  12  101.99    7.10
   3   9 -12   26.90    5.50
   3   9 -12   18.00    4.10
  -3  -9  12   20.50    4.90
  -3  -9  12   24.50    3.60
   2   9 -12   42.80    4.90
   2   9 -12   30.00    5.80
  -2  -9  12   33.20    4.00
  -2  -9  12   28.30    6.00
   1   9 -12   84.79    8.20
  -1  -9  12   63.39    8.20
  -1  -9  12   78.89    8.50
   0   9 -12   88.49    7.60
   0   9 -12   99.59    8.80
   0  -9  12   86.19    5.10
   0  -9  12   74.89    7.20
  -1   9 -12   -5.10    2.20
  -1   9 -12   -4.30    2.20
   1  -9  12    0.80    2.50
   1  -9  12   -1.00    1.40
  -2   9 -12   41.40    6.20
  -2   9 -12   31.10    4.60
   2  -9  12   25.80    3.90
   2  -9  12   38.40    5.20
  -3   9 -12    2.90    2.80
  -3   9 -12   -2.20    3.00
   3  -9  12    4.90    2.80
   3  -9  12   -1.60    2.00
  -4   9 -12   19.00    5.20
   4  -9  12   14.40    3.10
   8   8 -12  441.86   23.40
   8   8 -12  435.76   21.10
  -8  -8  12  437.66   24.30
   7   8 -12  215.78   13.90
   7   8 -12  237.08   14.10
  -7  -8  12  222.38   15.40
  -7  -8  12  219.98   11.20
   6   8 -12   -2.10    2.10
   6   8 -12    1.40    2.40
  -6  -8  12    3.70    2.00
  -6  -8  12    1.40    2.50
   5   8 -12  360.66   18.00
   5   8 -12  351.16   18.00
  -5  -8  12  321.57   14.90
  -5  -8  12  345.57   19.80
   4   8 -12   75.59    7.20
   4   8 -12   70.69    7.30
  -4  -8  12   83.89    8.70
  -4  -8  12   78.89    5.90
   3   8 -12    8.30    3.10
   3   8 -12    0.70    2.80
  -3  -8  12    3.90    1.90
  -3  -8  12    4.00    2.20
   2   8 -12   22.20    4.30
   2   8 -12   12.50    4.00
  -2  -8  12   15.40    3.10
  -2  -8  12   11.30    3.60
   1   8 -12   37.30    5.50
   1   8 -12   32.90    5.00
  -1  -8  12   37.80    4.90
  -1  -8  12   41.40    4.00
   0   8 -12   43.70    5.20
   0   8 -12   35.60    5.20
   0  -8  12   35.10    5.10
   0  -8  12   32.30    3.80
  -1   8 -12    2.60    2.60
  -1   8 -12   -3.70    2.00
   1  -8  12   -0.90    1.50
   1  -8  12    0.30    2.00
  -2   8 -12   51.89    7.90
  -2   8 -12   63.29    6.70
   2  -8  12   71.09    5.50
   2  -8  12   70.49    7.50
  -3   8 -12    4.50    3.10
  -3   8 -12    2.70    3.10
   3  -8  12   -0.70    2.20
  -4   8 -12   36.80    6.40
  -4   8 -12   38.10    6.70
   4  -8  12   40.30    5.20
  -5   8 -12   77.69   14.30
  -5   8 -12   98.39   10.40
   5  -8  12  125.19    9.70
   9   7 -12  181.78   11.70
   9   7 -12  190.48   13.10
  -9  -7  12  199.88   14.20
   8   7 -12  176.38   11.40
   8   7 -12  165.18   11.90
  -8  -7  12  159.98    9.90
  -8  -7  12  166.98   12.80
   7   7 -12  157.28   10.90
   7   7 -12  147.99   10.60
  -7  -7  12  146.79   11.80
  -7  -7  12  142.39    9.00
   6   7 -12  258.67   14.30
   6   7 -12  244.48   14.30
   6   7 -12  252.17   14.60
  -6  -7  12  259.77   16.30
  -6  -7  12  248.88   12.50
   5   7 -12  270.87   14.90
   5   7 -12  288.87   19.60
   5   7 -12  272.17   14.50
  -5  -7  12  275.27   16.70
  -5  -7  12  268.07   12.90
   4   7 -12   31.80    5.60
   4   7 -12   37.90    4.80
   4   7 -12   26.70    4.70
  -4  -7  12   29.50    5.10
  -4  -7  12   28.10    3.80
   3   7 -12   34.90    5.50
   3   7 -12   36.70    4.70
   3   7 -12   35.50    5.20
  -3  -7  12   45.30    4.70
   2   7 -12   43.80    5.50
   2   7 -12   33.30    5.20
   2   7 -12   35.60    4.30
  -2  -7  12   37.60    3.10
  -2  -7  12   34.40    4.20
   1   7 -12    7.00    3.60
   1   7 -12    4.60    2.20
   1   7 -12    8.10    2.10
  -1  -7  12    5.30    2.50
   0   7 -12   -1.40    1.50
   0   7 -12    2.80    2.00
   0   7 -12    3.30    2.20
   0  -7  12    2.70    2.00
  -1   7 -12   36.80    6.20
  -1   7 -12   41.30    5.10
  -1   7 -12   26.40    5.20
   1  -7  12   39.80    4.00
   1  -7  12   40.30    5.20
  -2   7 -12   29.80    5.80
  -2   7 -12   42.40    6.00
  -2   7 -12   50.19    4.90
   2  -7  12   37.30    5.40
   2  -7  12   34.90    4.20
  -3   7 -12   -2.50    1.90
  -3   7 -12   -1.10    2.50
  -3   7 -12   -5.20    2.60
   3  -7  12   -2.80    1.60
   3  -7  12   -0.80    2.20
  -4   7 -12    0.50    3.00
  -4   7 -12   -1.50    3.30
   4  -7  12   -1.40    2.10
   4  -7  12    3.40    2.30
  -5   7 -12    0.20    4.00
   5  -7  12   -4.40    1.90
   5  -7  12   -0.90    4.20
   9   6 -12  166.98   11.80
   9   6 -12  177.48   10.50
   9   6 -12  138.79   11.50
  -9  -6  12  194.28   14.70
  -9  -6  12  181.28   13.20
   8   6 -12   59.79    6.50
   8   6 -12   62.79    6.80
   8   6 -12   48.50    6.50
  -8  -6  12   54.29    5.90
  -8  -6  12   57.29    7.10
   7   6 -12  173.98   11.10
   7   6 -12  171.78   11.50
   7   6 -12  161.58   11.40
  -7  -6  12  174.68   10.00
  -7  -6  12  162.68   12.50
   6   6 -12  714.53   29.60
   6   6 -12  741.53   29.60
  -6  -6  12  770.42   32.10
  -6  -6  12  741.93   27.90
   5   6 -12  473.05   21.20
   5   6 -12  448.56   20.50
   5   6 -12  455.55   20.40
  -5  -6  12  445.16   18.80
   4   6 -12  299.37   15.60
   4   6 -12  289.77   14.40
   4   6 -12  282.47   15.00
  -4  -6  12  294.37   17.00
  -4  -6  12  299.77   13.70
   3   6 -12  115.09    9.10
   3   6 -12  118.79    8.10
   3   6 -12  117.09    8.60
  -3  -6  12  118.89    7.70
  -3  -6  12  112.59   10.10
   2   6 -12  255.57   12.20
   2   6 -12  257.07   13.60
   2   6 -12  237.08   14.00
  -2  -6  12  244.48   12.50
   1   6 -12  120.19    8.70
   1   6 -12  118.89    9.50
  -1  -6  12  113.79    6.20
  -1  -6  12  126.29    8.60
   0   6 -12    0.50    1.70
   0   6 -12    2.00    2.70
   0   6 -12    0.20    1.80
   0   6 -12    2.90    2.20
   0  -6  12   -2.50    1.10
   0  -6  12    0.80    1.90
  -1   6 -12   77.39    7.10
  -1   6 -12   59.29    4.70
  -1   6 -12   65.39    5.90
  -1   6 -12   49.40    6.70
   1  -6  12   71.09    5.40
   1  -6  12   68.29    6.40
  -2   6 -12   17.80    3.60
  -2   6 -12   16.00    5.50
  -2   6 -12   18.10    4.20
   2  -6  12   12.60    3.70
  -3   6 -12    3.30    3.70
  -3   6 -12   10.10    2.80
  -3   6 -12    4.60    2.80
   3  -6  12   12.30    3.40
   3  -6  12    3.40    2.20
  -4   6 -12    3.40    2.80
  -4   6 -12   -0.40    2.60
  -4   6 -12    0.40    2.90
   4  -6  12    3.10    2.30
   4  -6  12   -1.40    2.50
  -5   6 -12   43.40    7.00
   5  -6  12   49.60    5.70
  10   5 -12   54.49    7.20
  10   5 -12   69.79    7.60
 -10  -5  12   61.59    8.20
   9   5 -12   42.10    6.10
   9   5 -12   29.30    5.40
   9   5 -12   45.50    4.80
  -9  -5  12   58.39    7.00
  -9  -5  12   46.60    5.60
   8   5 -12   30.20    4.50
   8   5 -12   35.10    5.80
   8   5 -12   27.80    5.60
  -8  -5  12   23.10    5.60
  -8  -5  12   15.70    4.20
   7   5 -12  114.59    8.50
   7   5 -12  104.89    8.60
   7   5 -12  116.79    9.30
  -7  -5  12  118.19    9.50
  -7  -5  12  112.09    7.20
  -7  -5  12  116.79    8.20
   6   5 -12  305.27   16.00
   6   5 -12  318.27   15.90
   6   5 -12  303.27   16.10
  -6  -5  12  308.57   14.70
  -6  -5  12  329.57   18.20
   5   5 -12   83.89    7.30
   5   5 -12   85.49    7.50
   5   5 -12   87.29   10.80
  -5  -5  12   94.49    6.60
  -5  -5  12   82.19    8.20
   4   5 -12  316.67   14.80
   4   5 -12  296.87   15.30
   4   5 -12  302.87   15.40
  -4  -5  12  296.87   16.70
  -4  -5  12  278.77   13.70
   3   5 -12  440.06   20.40
   3   5 -12  476.25   19.20
   3   5 -12  459.55   20.30
  -3  -5  12  437.16   18.70
  -3  -5  12  432.56   22.00
   2   5 -12  384.26   15.90
   2   5 -12  382.66   18.00
   2   5 -12  390.56   17.50
   2   5 -12  315.57   18.00
  -2  -5  12  337.77   15.80
  -2  -5  12  333.77   16.40
   1   5 -12  106.79    8.30
   1   5 -12  118.19    7.30
   1   5 -12  106.29    8.70
   1   5 -12   95.29    8.80
  -1  -5  12  104.39    6.10
  -1  -5  12  115.39    7.80
   0   5 -12    1.40    2.00
   0   5 -12    0.90    1.70
   0   5 -12    0.20    2.00
   0   5 -12   -4.60    2.10
   0  -5  12    0.30    1.80
   0  -5  12   -0.10    1.20
  -1   5 -12    6.10    2.10
  -1   5 -12    0.60    1.70
  -1   5 -12   -1.00    2.00
  -1   5 -12    2.60    1.90
   1  -5  12   -0.80    2.00
   1  -5  12   -2.90    1.40
  -2   5 -12    6.10    2.10
  -2   5 -12   -0.10    2.00
  -2   5 -12    2.20    2.00
  -2   5 -12    3.20    2.00
   2  -5  12    4.30    2.60
   2  -5  12    2.70    2.60
  -3   5 -12   -0.70    2.40
  -3   5 -12   -0.50    2.20
   3  -5  12    0.20    1.80
   3  -5  12   -0.30    2.50
  -4   5 -12    4.70    3.20
  -4   5 -12    2.10    2.40
   4  -5  12   -3.50    2.40
   4  -5  12    3.80    2.00
  -5   5 -12   18.00    6.50
  -5   5 -12    9.00    3.80
   5  -5  12   14.70    4.10
   5  -5  12   12.10    4.00
  10   4 -12   91.99    9.00
  10   4 -12   90.99    8.40
 -10  -4  12   95.99    9.00
   9   4 -12   48.50    5.60
   9   4 -12   47.80    5.70
   9   4 -12   39.10    4.60
  -9  -4  12   28.70    5.30
  -9  -4  12   27.50    5.80
   8   4 -12   38.00    4.70
   8   4 -12   33.10    5.70
   8   4 -12   27.90    4.90
  -8  -4  12   27.10    4.70
  -8  -4  12   35.60    5.90
   7   4 -12  128.69    8.60
   7   4 -12  117.39    9.00
   7   4 -12  119.29    9.30
  -7  -4  12  123.89   10.10
  -7  -4  12  133.19    8.80
  -7  -4  12  132.19   10.60
   6   4 -12  131.69    9.00
   6   4 -12  134.09    9.30
   6   4 -12  138.89   10.00
  -6  -4  12  130.39   10.30
  -6  -4  12  128.69    8.70
   5   4 -12   56.19    6.20
   5   4 -12   49.90    6.10
   5   4 -12   57.49    6.00
  -5  -4  12   68.99    7.10
  -5  -4  12   57.69    5.60
   4   4 -12  435.26   20.50
   4   4 -12  473.85   20.70
   4   4 -12  497.05   20.50
  -4  -4  12  473.85   19.80
  -4  -4  12  486.65   22.60
   3   4 -12  757.72   28.00
   3   4 -12  745.23   26.90
   3   4 -12  614.24   28.80
  -3  -4  12  668.93   26.20
   2   4 -12  239.18   11.60
   2   4 -12  220.38   12.70
   2   4 -12  198.78   13.10
  -2  -4  12  212.28   11.30
  -2  -4  12  201.18    9.70
   1   4 -12  181.98   12.20
   1   4 -12  162.98   10.90
   1   4 -12  206.18   10.30
  -1  -4  12  184.48   10.60
  -1  -4  12  195.78    9.30
   0   4 -12  297.17   15.80
   0   4 -12  272.77   16.00
   0   4 -12  319.37   15.30
   0  -4  12  291.37   14.60
   0  -4  12  320.67   13.40
   0  -4  12  315.97   12.40
  -1   4 -12  135.69    7.60
  -1   4 -12  122.69   11.60
  -1   4 -12  115.89    9.60
   1  -4  12  123.79    7.80
   1  -4  12  129.39    8.00
   1  -4  12  151.38    9.10
  -2   4 -12    3.70    2.60
  -2   4 -12   -0.40    2.00
   2  -4  12    0.70    2.40
   2  -4  12   -1.10    1.70
  -3   4 -12    0.40    2.00
  -3   4 -12    1.90    2.40
  -3   4 -12   -2.60    2.30
   3  -4  12    2.40    2.60
   3  -4  12   -2.00    2.00
  -4   4 -12   25.20    4.70
  -4   4 -12   31.70    6.10
   4  -4  12   32.30    4.80
   4  -4  12   35.70    5.70
  -5   4 -12    6.40    3.30
  -5   4 -12    3.70    3.40
   5  -4  12    4.90    3.00
   5  -4  12   10.30    3.90
  10   3 -12   61.49    6.70
 -10  -3  12   53.79    7.20
   9   3 -12   64.09    7.30
   9   3 -12   55.99    6.90
  -9  -3  12   53.79    6.80
  -9  -3  12   65.59    6.90
   8   3 -12  165.78    8.90
   8   3 -12  158.88    9.20
   8   3 -12  144.59   10.80
   8   3 -12  162.28   11.40
  -8  -3  12  162.58    8.90
  -8  -3  12  150.68   10.40
  -8  -3  12  163.68   12.00
   7   3 -12  152.68   10.60
   7   3 -12  136.29    8.80
   7   3 -12  154.08   10.90
   7   3 -12  168.28    9.40
  -7  -3  12  159.28    8.60
  -7  -3  12  158.78   10.90
   6   3 -12   31.40    3.90
   6   3 -12   22.90    4.50
   6   3 -12   21.00    5.40
  -6  -3  12   24.70    4.50
  -6  -3  12   26.80    3.90
  -6  -3  12   28.00    4.80
   5   3 -12   87.99    7.60
   5   3 -12   89.99    7.20
  -5  -3  12   83.59    7.20
  -5  -3  12  103.89    8.30
   4   3 -12  256.27   15.00
   4   3 -12  238.48   13.00
   4   3 -12  247.68   12.90
  -4  -3  12  241.08   12.70
  -4  -3  12  245.28   14.30
   3   3 -12  229.78   14.40
   3   3 -12  276.67   14.10
   3   3 -12  263.67   13.20
  -3  -3  12  271.97   13.20
   2   3 -12  231.88   11.50
   2   3 -12  211.28   12.00
   2   3 -12  186.58   12.60
  -2  -3  12  222.48   10.40
  -2  -3  12  211.68   11.40
   1   3 -12  218.08   12.30
   1   3 -12  192.18   12.60
   1   3 -12  227.78   11.10
  -1  -3  12  202.28   11.20
  -1  -3  12  204.18   10.30
   0   3 -12  583.24   23.50
   0   3 -12  553.34   20.70
   0   3 -12  455.55   22.90
   0  -3  12  521.45   20.40
   0  -3  12  515.15   21.90
   0  -3  12  548.15   19.70
  -1   3 -12  192.38   12.00
  -1   3 -12  196.18    9.70
  -1   3 -12  174.08   11.70
   1  -3  12  185.78   10.10
   1  -3  12  188.78   10.90
   1  -3  12  196.28    9.90
  -2   3 -12   42.80    5.90
  -2   3 -12   53.99    4.40
  -2   3 -12   36.70    5.10
   2  -3  12   53.99    6.30
   2  -3  12   46.30    5.80
   2  -3  12   58.99    5.30
  -3   3 -12   18.50    3.20
  -3   3 -12   22.00    3.80
  -3   3 -12   19.30    3.90
   3  -3  12   17.50    4.90
   3  -3  12   18.50    4.20
   3  -3  12   19.50    3.70
  -4   3 -12   24.80    4.70
   4  -3  12   22.70    3.90
   4  -3  12   18.30    4.50
   4  -3  12   22.50    4.50
  10   2 -12    1.30    2.30
  10   2 -12    1.20    2.70
 -10  -2  12   -6.30    3.10
   9   2 -12   57.99    7.00
   9   2 -12   58.49    6.10
   9   2 -12   66.29    7.30
  -9  -2  12   62.09    7.10
   8   2 -12  381.36   20.00
   8   2 -12  386.56   19.30
   8   2 -12  451.65   17.80
   8   2 -12  409.36   18.00
  -8  -2  12  403.86   17.60
  -8  -2  12  422.56   19.50
  -8  -2  12  422.66   19.80
   7   2 -12  166.28   11.30
   7   2 -12  182.08   11.90
   7   2 -12  164.58   11.30
  -7  -2  12  195.78   11.70
  -7  -2  12  195.78   11.80
  -7  -2  12  195.38   10.50
   6   2 -12   59.09    5.60
   6   2 -12   55.99    6.80
  -6  -2  12   65.89    6.30
  -6  -2  12   53.09    5.70
  -6  -2  12   59.39    8.10
   5   2 -12  255.97   12.60
   5   2 -12  227.88   13.10
   5   2 -12  239.68   14.40
  -5  -2  12  232.08   13.10
  -5  -2  12  237.18   13.20
   4   2 -12  132.39    8.50
   4   2 -12  115.19    9.60
   4   2 -12  141.89    9.40
  -4  -2  12  142.39    8.70
  -4  -2  12  132.89    9.60
   3   2 -12   14.30    3.50
   3   2 -12   10.10    3.00
   3   2 -12   12.70    2.60
  -3  -2  12   17.80    3.50
   2   2 -12  106.09    7.20
   2   2 -12  111.99    8.00
   2   2 -12   99.09    7.90
  -2  -2  12  101.39    7.50
  -2  -2  12   96.79    6.70
   1   2 -12  297.67   16.50
   1   2 -12  331.97   16.30
   1   2 -12  361.26   15.30
  -1  -2  12  344.37   14.80
  -1  -2  12  328.47   15.50
   0   2 -12  346.27   18.20
   0   2 -12  406.36   16.80
   0   2 -12  407.86   18.70
   0  -2  12  396.86   16.90
   0  -2  12  415.36   16.50
   0  -2  12  398.56   22.50
  -1   2 -12  123.59    9.30
  -1   2 -12  108.99    8.80
  -1   2 -12  116.59    7.60
   1  -2  12  136.19    7.80
   1  -2  12  131.19    8.20
   1  -2  12  112.79    8.30
  -2   2 -12  259.47   12.20
  -2   2 -12  219.18   13.60
   2  -2  12  244.18   12.60
   2  -2  12  259.87   12.90
   2  -2  12  246.18   13.20
  -3   2 -12  118.09    7.90
  -3   2 -12   97.99    8.70
   3  -2  12  136.29   10.00
   3  -2  12  118.29    8.80
   3  -2  12  122.19    8.50
  -4   2 -12    6.00    3.10
   4  -2  12    9.90    3.00
   4  -2  12    3.20    2.80
   4  -2  12   11.30    3.90
  10   1 -12   -8.40    3.50
  10   1 -12   -4.00    3.90
  10   1 -12   -0.80    2.50
 -10  -1  12    5.40    3.80
   9   1 -12  129.69   10.00
   9   1 -12  131.39   10.30
   9   1 -12  127.79    9.60
  -9  -1  12  121.99   10.00
  -9  -1  12  127.39    9.40
  -9  -1  12  135.29    9.00
   8   1 -12   70.09    7.10
   8   1 -12   68.29    7.40
  -8  -1  12   78.49    7.70
  -8  -1  12   69.69    6.50
  -8  -1  12   67.79    7.40
   7   1 -12   22.90    4.80
  -7  -1  12   31.60    4.70
  -7  -1  12   35.20    4.70
  -7  -1  12   26.70    4.40
   6   1 -12  215.78   13.90
   6   1 -12  246.98   13.40
  -6  -1  12  249.28   13.00
  -6  -1  12  231.78   13.10
  -6  -1  12  254.97   14.10
   5   1 -12  281.67   13.40
   5   1 -12  273.97   15.70
   5   1 -12  271.07   14.70
  -5  -1  12  285.77   14.30
  -5  -1  12  283.37   15.20
   4   1 -12   60.19    6.50
   4   1 -12   70.29    6.60
   4   1 -12   64.99    6.00
  -4  -1  12   70.39    6.10
  -4  -1  12   68.29    6.60
   3   1 -12   39.70    4.60
   3   1 -12   37.40    5.30
   3   1 -12   48.80    5.30
  -3  -1  12   43.40    4.80
   2   1 -12  150.88    9.10
   2   1 -12  117.79    9.30
   2   1 -12  131.89    9.00
  -2  -1  12  134.59    8.90
  -2  -1  12  131.59    8.40
  -2  -1  12  161.78    9.10
   1   1 -12  152.78    9.60
   1   1 -12  157.08    9.00
   1   1 -12  134.19    9.80
  -1  -1  12  147.69    8.40
  -1  -1  12  142.59   10.00
  -1  -1  12  143.49    8.90
   0   1 -12   40.60    5.10
   0   1 -12   41.40    5.00
   0  -1  12   50.29    5.00
   0  -1  12   42.80    5.00
   0  -1  12   44.80    5.40
  -1   1 -12  136.29   10.00
  -1   1 -12  166.88    9.60
   1  -1  12  151.38    9.60
   1  -1  12  149.49    9.40
   1  -1  12  179.78   10.20
  -2   1 -12  264.17   15.50
  -2   1 -12  306.97   14.20
   2  -1  12  302.87   15.00
   2  -1  12  335.37   18.20
   2  -1  12  298.07   14.70
  -3   1 -12  155.58    9.60
  -3   1 -12  130.69   10.70
   3  -1  12  144.69   10.60
   3  -1  12  131.79    9.40
   3  -1  12  157.78    9.90
  -4   1 -12   29.60    5.00
  -4   1 -12   23.30    4.90
   4  -1  12   26.30    5.10
   4  -1  12   40.20    6.20
  10   0 -12    5.10    2.80
  10   0 -12    7.10    3.60
 -10   0  12   -1.30    3.90
 -10   0  12    3.60    3.60
   9   0 -12   13.20    6.90
   9   0 -12    7.00    2.90
  -9   0  12    4.30    3.80
  -9   0  12   16.70    4.00
  -9   0  12   14.30    3.50
   8   0 -12    0.50    2.40
  -8   0  12   -3.40    2.50
  -8   0  12    1.70    2.50
  -8   0  12    4.20    2.60
   7   0 -12  103.89    9.00
  -7   0  12  145.29    8.40
  -7   0  12  124.59    9.90
  -7   0  12  122.39    9.60
   6   0 -12  253.77   13.20
   6   0 -12  266.17   14.90
   6   0 -12  284.47   18.10
  -6   0  12  285.57   14.90
  -6   0  12  299.37   14.00
  -6   0  12  278.07   15.20
   5   0 -12  320.87   17.30
   5   0 -12  333.37   14.80
   5   0 -12  320.87   18.30
  -5   0  12  336.67   17.30
  -5   0  12  340.77   15.40
  -5   0  12  335.97   17.00
   4   0 -12   95.09   10.30
   4   0 -12  128.99    7.40
   4   0 -12  103.39    8.20
  -4   0  12  111.09    8.90
  -4   0  12  106.59    8.00
  -4   0  12   99.69    8.20
   3   0 -12  178.88   13.30
   3   0 -12  192.78   11.00
   3   0 -12  207.48   10.80
  -3   0  12  179.78   15.70
  -3   0  12  152.58   12.50
   2   0 -12  251.27   12.90
   2   0 -12  236.58   13.90
   2   0 -12  260.97   13.20
  -2   0  12  244.28   12.10
  -2   0  12  262.17   19.00
   1   0 -12  160.08   10.00
   1   0 -12  139.49   10.20
  -1   0  12  161.18    9.50
  -1   0  12  194.88   10.80
  -1   0  12  174.48   10.50
   0   0 -12   56.59    5.30
   0   0 -12   42.30    5.30
   0   0  12   50.89    5.40
   0   0  12   62.69    5.70
   0   0  12   53.59    5.90
  -1   0 -12   63.09    6.70
   1   0  12   99.49    9.30
   1   0  12   90.39    7.40
   1   0  12   77.79    6.60
  -2   0 -12  111.19    8.40
  -2   0 -12  115.49    8.50
   2   0  12  128.09    8.80
   2   0  12  116.19    9.20
   2   0  12  106.89    8.20
  -3   0 -12   87.19    7.60
  -3   0 -12   78.99   11.80
   3   0  12   80.99    7.40
  10  -1 -12   11.30    4.50
  10  -1 -12   11.20    4.30
  10  -1 -12    8.50    2.80
 -10   1  12   11.30    3.60
   9  -1 -12    6.00    3.10
   9  -1 -12    2.10    2.90
  -9   1  12   17.20    4.00
  -9   1  12   -0.60    3.40
   8  -1 -12    2.90    2.10
  -8   1  12   -4.00    2.70
   7  -1 -12   32.70    5.10
  -7   1  12   38.40    5.20
  -7   1  12   25.90    5.40
  -7   1  12   30.40    5.60
   6  -1 -12   21.20    4.30
   6  -1 -12   25.90    4.70
  -6   1  12   18.90    4.00
  -6   1  12   18.50    4.30
  -6   1  12   18.10    3.00
  -6   1  12   22.40    5.20
   5  -1 -12  149.99    8.40
   5  -1 -12  136.89   11.00
   5  -1 -12  129.59    9.70
  -5   1  12  139.49   10.20
  -5   1  12  136.69    8.50
  -5   1  12  146.79    9.10
  -5   1  12  133.29   10.20
   4  -1 -12  140.29    9.40
   4  -1 -12  149.69    8.60
   4  -1 -12  126.19   12.40
  -4   1  12  148.69    8.70
  -4   1  12  139.09   10.80
  -4   1  12  133.59   10.00
  -4   1  12  120.49   10.10
   3  -1 -12  420.46   17.70
   3  -1 -12  384.66   18.20
   3  -1 -12  382.36   19.10
  -3   1  12  427.76   20.80
  -3   1  12  398.86   17.60
  -3   1  12  385.46   18.60
   2  -1 -12  188.18   12.00
   2  -1 -12  201.68   11.50
  -2   1  12  181.98   11.40
  -2   1  12  214.78   11.60
   1  -1 -12   74.29    7.30
   1  -1 -12   88.29    7.20
  -1   1  12   86.19    7.50
  -1   1  12  102.49    7.90
  -1   1  12   91.39    7.40
   0  -1 -12   40.70    4.80
   0  -1 -12   30.70    4.40
   0   1  12   52.89    5.70
   0   1  12   40.50    4.90
   0   1  12   41.10    8.70
  -1  -1 -12   26.30    6.00
  -1  -1 -12   22.20    4.30
   1   1  12   21.90    4.40
   1   1  12   34.30    5.00
   1   1  12   24.30    4.30
  -2  -1 -12   80.29    7.70
   2   1  12   81.29    7.40
   9  -2 -12    7.40    3.00
   9  -2 -12   10.90    5.30
  -9   2  12    7.30    4.20
  -9   2  12    7.40    3.80
   8  -2 -12    5.70    2.50
  -8   2  12   -6.80    3.00
   7  -2 -12    3.00    2.30
   7  -2 -12    6.10    5.10
  -7   2  12   13.60    3.80
  -7   2  12   -1.00    3.10
  -7   2  12    4.50    2.10
   6  -2 -12   -2.30    2.30
   6  -2 -12    9.00    3.50
   6  -2 -12   -1.90    2.10
  -6   2  12    1.80    2.20
  -6   2  12    5.70    4.30
  -6   2  12    5.20    2.30
   5  -2 -12   -3.80    2.00
   5  -2 -12    0.80    2.10
   5  -2 -12   -1.20    2.00
  -5   2  12    3.00    2.10
  -5   2  12   -0.10    2.50
  -5   2  12   -0.30    2.40
  -5   2  12   -0.60    2.20
   4  -2 -12  137.29    8.60
   4  -2 -12  135.69   10.00
   4  -2 -12  125.99    9.30
  -4   2  12  127.29    9.10
  -4   2  12  123.39    9.50
  -4   2  12  136.19   10.30
  -4   2  12  151.28   11.60
   3  -2 -12  269.97   15.10
   3  -2 -12  276.67   14.80
  -3   2  12  281.67   14.60
  -3   2  12  270.87   15.00
  -3   2  12  288.77   16.70
   2  -2 -12   94.89    8.20
   2  -2 -12  105.79    8.00
  -2   2  12   99.79    9.50
  -2   2  12  122.99    8.40
  -2   2  12  113.19    8.60
   1  -2 -12   82.29    7.20
   1  -2 -12   69.49    6.90
  -1   2  12   69.39    7.10
  -1   2  12   76.99    7.70
  -1   2  12   66.09    7.70
   0  -2 -12  175.78   11.00
   0  -2 -12  161.58   11.20
   0   2  12  162.78   12.40
   0   2  12  176.38   11.60
   0   2  12  175.08   11.20
   0   2  12  161.98   10.40
  -1  -2 -12  194.08   11.90
  -1  -2 -12  181.18   17.70
   1   2  12  206.08   12.50
   1   2  12  182.08   11.30
   9  -3 -12    2.00    3.00
   9  -3 -12   -0.80    3.40
  -9   3  12   -5.70    3.70
  -9   3  12    6.40    4.00
   8  -3 -12   -2.80    2.50
  -8   3  12   -0.60    3.00
  -8   3  12   -0.20    3.90
  -8   3  12   -7.60    3.20
   7  -3 -12    0.00    2.20
  -7   3  12    3.10    2.80
  -7   3  12   -4.00    3.20
   6  -3 -12    9.20    3.00
   6  -3 -12   15.40    3.80
  -6   3  12   13.90    4.50
  -6   3  12   14.30    3.60
  -6   3  12   14.60    3.10
  -6   3  12   15.30    4.50
   5  -3 -12    1.10    2.00
   5  -3 -12    1.40    2.60
  -5   3  12   -5.30    2.30
  -5   3  12    1.20    2.90
  -5   3  12    5.20    3.30
  -5   3  12   -3.20    2.60
   4  -3 -12   85.59    7.00
   4  -3 -12   93.29    8.00
   4  -3 -12   96.29    8.10
  -4   3  12   86.39    7.90
  -4   3  12   85.59    7.80
  -4   3  12   89.69    8.80
  -4   3  12   83.69    8.40
   3  -3 -12   23.70    4.40
   3  -3 -12   29.70    4.50
  -3   3  12   29.60    5.40
  -3   3  12   22.10    4.40
  -3   3  12   21.40    4.50
  -3   3  12   21.60    4.60
   2  -3 -12  104.59    8.20
   2  -3 -12  104.69    8.60
  -2   3  12   98.29    8.10
  -2   3  12  121.19   10.60
  -2   3  12   97.69    9.20
  -2   3  12   94.89    8.90
   1  -3 -12   93.09    8.40
   1  -3 -12  104.49    8.40
  -1   3  12   92.79    9.60
  -1   3  12   98.29    9.20
  -1   3  12   93.49    8.40
   0  -3 -12  236.18   16.70
   0  -3 -12  253.17   14.30
   0   3  12  232.88   13.80
   0   3  12  283.27   15.60
   7  -4 -12    0.40    3.10
   7  -4 -12   -0.20    2.80
  -7   4  12    5.20    2.90
  -7   4  12    1.90    3.40
  -7   4  12   14.60    4.50
   6  -4 -12    2.40    2.90
  -6   4  12    4.80    3.10
  -6   4  12   -0.90    2.80
  -6   4  12   -3.40    3.40
   5  -4 -12   -3.20    2.50
   5  -4 -12   -4.70    2.10
  -5   4  12    1.10    3.10
  -5   4  12    0.50    2.70
  -5   4  12   -5.60    2.90
  -5   4  12   -5.90    3.00
   4  -4 -12    1.50    2.20
   4  -4 -12    5.70    2.50
  -4   4  12   -1.90    3.30
  -4   4  12   -1.30    3.30
  -4   4  12    0.90    3.70
   3  -4 -12   -3.90    2.30
  -3   4  12    3.60    4.70
  -3   4  12   -4.90    2.90
  -3   4  12    2.00    2.50
  -3   4  12   -2.40    3.70
   2  -4 -12   24.30    4.50
  -2   4  12   19.00    4.50
  -2   4  12   35.20    5.80
  -2   4  12   13.40    4.70
   4  11 -13  138.29   11.60
   4  11 -13  138.89   10.90
  -4 -11  13  144.29    8.80
  -4 -11  13  149.99   13.10
   3  11 -13  142.59   15.30
   3  11 -13  141.69   11.10
  -3 -11  13  139.19   16.30
  -3 -11  13  142.39    9.10
   2  11 -13  154.98   11.20
  -2 -11  13  151.18   14.90
  -2 -11  13  158.28   10.20
   1  11 -13   13.10    4.60
   1  11 -13   23.70    4.40
  -1 -11  13   10.00    3.70
   0  11 -13   14.00    4.00
   0 -11  13   12.90    3.30
   0 -11  13    3.80    3.60
  -1  11 -13   27.50    4.90
  -1  11 -13   49.80    7.70
   5  10 -13  188.08   13.50
  -5 -10  13  180.18   16.90
   4  10 -13  239.18   15.80
   4  10 -13  239.08   14.80
  -4 -10  13  260.47   12.70
  -4 -10  13  262.97   17.00
   3  10 -13  408.96   20.30
   3  10 -13  411.66   21.80
  -3 -10  13  398.46   17.90
  -3 -10  13  396.16   22.50
   2  10 -13  209.58   13.50
   2  10 -13  231.78   15.30
  -2 -10  13  236.18   12.50
  -2 -10  13  220.78   16.00
   1  10 -13   50.39    7.10
   1  10 -13   61.59    7.40
  -1 -10  13   67.89    8.70
  -1 -10  13   60.09    6.30
   0  10 -13  131.29   11.70
   0  10 -13  147.79   10.50
   0 -10  13  156.58   10.50
  -1  10 -13   33.90    5.60
  -1  10 -13   35.30    6.60
   1 -10  13   43.30    5.50
   1 -10  13   32.90    4.20
  -2  10 -13    6.50    5.20
  -2  10 -13    1.70    5.30
   2 -10  13    2.10    2.20
   2 -10  13    3.60    3.00
  -3  10 -13    0.50    3.80
   3 -10  13    0.00    2.60
   3 -10  13    8.30    3.90
   7   9 -13   84.89    7.20
   7   9 -13   58.29    7.50
  -7  -9  13   72.79    8.80
  -7  -9  13   55.89    8.60
   6   9 -13   14.10    5.10
   6   9 -13   10.90    3.70
  -6  -9  13   17.40    3.70
  -6  -9  13   18.70    4.50
   5   9 -13   52.89    7.10
   5   9 -13   64.89    7.30
  -5  -9  13   78.99    8.80
   4   9 -13  240.38   15.40
   4   9 -13  250.97   15.00
  -4  -9  13  272.67   17.30
  -4  -9  13  255.67   12.90
   3   9 -13  302.57   16.30
   3   9 -13  312.67   17.90
  -3  -9  13  289.67   18.50
  -3  -9  13  296.07   14.50
   2   9 -13  254.87   14.40
   2   9 -13  234.08   15.50
  -2  -9  13  246.88   13.00
  -2  -9  13  232.18   16.90
   1   9 -13  394.86   20.90
   1   9 -13  391.56   18.50
  -1  -9  13  370.26   18.00
   0   9 -13  311.07   15.60
   0   9 -13  277.87   17.30
   0  -9  13  279.27   11.80
   0  -9  13  280.37   15.40
  -1   9 -13   93.49    9.60
  -1   9 -13  103.39    8.80
   1  -9  13   98.49    6.30
   1  -9  13   99.59    8.50
  -2   9 -13   -2.70    3.30
  -2   9 -13    7.50    3.70
   2  -9  13    2.50    2.10
   2  -9  13    6.20    3.10
  -3   9 -13   14.90    5.40
  -3   9 -13   20.90    8.30
   3  -9  13   12.10    3.00
   7   8 -13   18.00    4.00
   7   8 -13   17.60    4.40
  -7  -8  13   14.00    4.40
   6   8 -13    7.50    3.60
   6   8 -13   10.80    3.20
  -6  -8  13   10.80    3.40
   5   8 -13   14.20    4.20
   5   8 -13   19.00    4.40
  -5  -8  13   19.50    4.30
   4   8 -13  256.97   15.20
   4   8 -13  277.67   16.30
  -4  -8  13  280.67   17.60
   3   8 -13  106.19    9.90
   3   8 -13  110.19    9.20
  -3  -8  13  127.99   11.50
  -3  -8  13  115.19    8.00
   2   8 -13   56.59    7.00
   2   8 -13   56.79    6.10
  -2  -8  13   39.00    6.70
  -2  -8  13   51.79    5.50
   1   8 -13  395.46   21.00
   1   8 -13  403.86   19.30
  -1  -8  13  377.26   14.60
  -1  -8  13  399.56   18.30
   0   8 -13  368.76   17.60
   0   8 -13  346.87   19.30
   0  -8  13  351.16   14.20
   0  -8  13  350.66   17.40
  -1   8 -13  196.98   12.00
  -1   8 -13  174.18   13.20
   1  -8  13  194.48    9.60
   1  -8  13  197.78   12.50
  -2   8 -13   61.69    7.30
  -2   8 -13   57.59    7.80
   2  -8  13   78.89    7.30
   2  -8  13   63.79    5.40
  -3   8 -13  146.19   13.00
  -3   8 -13  198.78   11.80
   3  -8  13  172.78   10.10
  -4   8 -13   -0.70    3.60
  -4   8 -13   -1.20    4.60
   4  -8  13    1.90    2.20
   4  -8  13   -3.70    3.00
   8   7 -13   47.90    6.90
   8   7 -13   40.30    9.50
  -8  -7  13   68.89    6.40
  -8  -7  13   71.49    8.30
   7   7 -13   14.20    4.00
   7   7 -13   26.80    5.10
   7   7 -13   20.40    4.70
  -7  -7  13   30.90    4.20
  -7  -7  13   19.00    4.60
   6   7 -13  208.38   13.10
   6   7 -13  195.98   12.50
   6   7 -13  198.48   12.90
  -6  -7  13  205.18   14.50
   5   7 -13  113.09    9.70
   5   7 -13  149.69   10.60
   5   7 -13  152.38   11.60
  -5  -7  13  127.39   11.00
  -5  -7  13  134.69   12.30
   4   7 -13   41.30    5.60
   4   7 -13   48.70    6.10
   4   7 -13   39.90    6.10
  -4  -7  13   45.90    6.80
   3   7 -13   23.30    4.40
   3   7 -13   21.00    3.90
   3   7 -13   20.20    3.90
  -3  -7  13   17.90    4.70
  -3  -7  13   21.90    4.90
   2   7 -13  154.58   11.70
   2   7 -13  168.78    9.40
   2   7 -13  172.08   11.30
  -2  -7  13  140.89    7.30
  -2  -7  13  154.58    9.70
   1   7 -13  477.45   22.90
   1   7 -13  468.25   18.20
   1   7 -13  472.05   21.20
  -1  -7  13  432.76   20.10
   0   7 -13  182.08   13.00
   0   7 -13  196.78   11.90
   0   7 -13  190.68    9.10
   0  -7  13  180.98   11.40
  -1   7 -13  226.48   15.10
  -1   7 -13  224.18   14.90
  -1   7 -13  241.28   13.30
   1  -7  13  219.38   13.30
   1  -7  13  237.48   11.20
  -2   7 -13  283.17   17.70
  -2   7 -13  337.07   15.60
  -2   7 -13  284.17   17.70
   2  -7  13  335.37   17.10
   2  -7  13  306.37   14.20
  -3   7 -13  179.88   13.30
  -3   7 -13  180.78   13.80
  -3   7 -13  211.88   12.20
   3  -7  13  184.98   10.80
   3  -7  13  210.78   13.10
  -4   7 -13   44.10    7.40
  -4   7 -13   40.90    7.10
   4  -7  13   43.80    5.90
   9   6 -13   36.20    5.60
   9   6 -13   29.00    5.10
   9   6 -13   37.80    6.90
  -9  -6  13   28.00    8.30
  -9  -6  13   37.20    5.70
   8   6 -13   17.60    4.10
   8   6 -13   16.20    4.60
   8   6 -13    7.90    3.30
  -8  -6  13   16.20    3.60
  -8  -6  13   15.60    3.80
   7   6 -13   47.50    6.00
   7   6 -13   47.40    6.30
   7   6 -13   53.59    6.00
  -7  -6  13   54.39    5.70
  -7  -6  13   53.29    7.40
   6   6 -13  374.96   18.20
   6   6 -13  350.36   24.70
   6   6 -13  336.17   17.50
  -6  -6  13  319.07   17.70
  -6  -6  13  335.17   19.30
   5   6 -13  242.48   14.10
   5   6 -13  222.68   13.80
   5   6 -13  249.28   13.60
  -5  -6  13  249.38   15.50
   4   6 -13   23.70    4.00
   4   6 -13   24.60    4.90
   4   6 -13   24.10    4.70
  -4  -6  13   26.40    5.50
   3   6 -13   80.89    7.70
   3   6 -13   84.39    6.90
   3   6 -13   79.89    9.50
  -3  -6  13   86.99    9.20
   2   6 -13  298.87   13.80
   2   6 -13  258.47   18.90
   2   6 -13  264.77   15.50
  -2  -6  13  261.97   11.30
  -2  -6  13  299.77   14.50
   1   6 -13   79.79    8.40
   1   6 -13   81.59    8.40
   1   6 -13   91.09    8.00
   1   6 -13   86.49    7.70
  -1  -6  13   78.89    6.80
   0   6 -13   37.60    5.70
   0   6 -13   26.70    5.20
   0   6 -13   29.70    5.20
   0   6 -13   21.90    4.50
   0  -6  13   34.30    3.70
   0  -6  13   29.10    4.50
  -1   6 -13  257.87   13.70
  -1   6 -13  226.58   14.70
  -1   6 -13  235.08   14.50
   1  -6  13  242.88   13.70
   1  -6  13  240.68   11.60
  -2   6 -13  478.25   20.10
  -2   6 -13  397.06   21.80
  -2   6 -13  375.66   21.20
   2  -6  13  459.65   18.70
   2  -6  13  495.95   21.70
  -3   6 -13  132.59   11.00
  -3   6 -13  120.69   10.90
  -3   6 -13  126.49    9.80
   3  -6  13  129.29    9.80
   3  -6  13  121.89    8.60
  -4   6 -13  156.28   12.10
  -4   6 -13  174.98   13.00
   4  -6  13  177.38   10.60
   4  -6  13  142.19   14.50
   9   5 -13    2.40    3.60
   9   5 -13   -4.40    2.50
  -9  -5  13   -2.90    2.50
  -9  -5  13    3.00    2.70
   8   5 -13   -1.80    2.50
   8   5 -13   -0.90    2.40
   8   5 -13    7.90    3.10
  -8  -5  13    0.40    2.70
  -8  -5  13    4.20    2.40
   7   5 -13   30.70    5.10
   7   5 -13   26.40    5.20
   7   5 -13   41.60    5.80
  -7  -5  13   41.90    4.40
  -7  -5  13   36.80    4.80
  -7  -5  13   43.10    6.60
   6   5 -13   26.60    4.80
   6   5 -13   23.00    4.30
   6   5 -13   31.40    5.30
  -6  -5  13   27.70    4.90
   5   5 -13   92.79    8.10
   5   5 -13   83.79    7.80
   5   5 -13   94.49    8.00
  -5  -5  13   86.49   10.30
   4   5 -13   90.99    8.40
   4   5 -13   96.99    8.10
   4   5 -13  103.99    8.20
  -4  -5  13   97.59    9.40
   3   5 -13  174.28   10.20
   3   5 -13  140.89   10.40
  -3  -5  13  142.39   12.50
   2   5 -13  193.68   12.20
   2   5 -13  220.48   11.20
   2   5 -13  167.08   12.60
   2   5 -13  179.58   12.30
  -2  -5  13  201.58   11.30
   1   5 -13   13.90    3.20
   1   5 -13   10.90    4.00
   1   5 -13   11.90    3.80
   1   5 -13    2.20    2.80
  -1  -5  13    7.40    2.20
  -1  -5  13    8.50    2.90
   0   5 -13   48.50    6.00
   0   5 -13   49.30    6.40
   0  -5  13   53.59    4.90
   0  -5  13   46.60    5.20
  -1   5 -13   64.79    7.70
  -1   5 -13   68.69    7.80
   1  -5  13   77.39    6.20
   1  -5  13   76.49    7.30
  -2   5 -13  151.88   11.70
  -2   5 -13  170.88   11.90
  -2   5 -13  173.88   11.30
   2  -5  13  146.79    9.20
   2  -5  13  172.68   11.10
  -3   5 -13   91.09    8.90
  -3   5 -13   86.39    9.00
  -3   5 -13   90.99    9.00
   3  -5  13  103.69    8.40
   3  -5  13  111.19    7.70
  -4   5 -13  146.29   11.30
  -4   5 -13  143.79   12.00
   4  -5  13  146.59   10.90
   4  -5  13  145.99   16.40
   9   4 -13   28.50    5.50
   9   4 -13   47.10    5.20
   9   4 -13   42.20    6.10
  -9  -4  13   41.20    7.00
  -9  -4  13   42.50    6.60
   8   4 -13    9.40    2.90
   8   4 -13   -0.10    2.30
   8   4 -13    1.20    2.40
  -8  -4  13    0.10    2.30
  -8  -4  13   -5.40    2.90
   7   4 -13    7.10    4.10
   7   4 -13   10.20    2.60
   7   4 -13    4.60    2.80
   7   4 -13    8.20    2.50
  -7  -4  13    8.00    3.10
  -7  -4  13   13.90    2.80
  -7  -4  13   11.30    3.60
   6   4 -13   14.40    3.80
   6   4 -13   19.90    4.00
  -6  -4  13   19.00    3.80
  -6  -4  13   19.80    4.70
   5   4 -13   29.60    5.00
   5   4 -13   46.40    5.90
   5   4 -13   51.69    6.00
  -5  -4  13   45.50    6.30
  -5  -4  13   38.00    4.80
   4   4 -13  182.98   12.30
   4   4 -13  222.78   12.40
   4   4 -13  216.58   12.60
  -4  -4  13  210.08   12.80
  -4  -4  13  213.08   14.00
   3   4 -13  348.67   17.50
   3   4 -13  356.56   16.50
   3   4 -13  316.47   18.40
  -3  -4  13  338.17   16.80
   2   4 -13  128.29    8.60
   2   4 -13  133.59    9.90
   2   4 -13  114.49    9.90
  -2  -4  13  129.99    7.40
  -2  -4  13  138.49    8.80
   1   4 -13   65.69    7.40
   1   4 -13   72.19    6.10
  -1  -4  13   69.29    5.50
  -1  -4  13   76.59    6.40
   0   4 -13  388.06   15.70
   0   4 -13  344.17   18.20
   0   4 -13  316.57   18.40
   0  -4  13  360.56   15.10
   0  -4  13  353.56   16.80
  -1   4 -13  199.58   13.60
  -1   4 -13  246.38   11.20
  -1   4 -13  199.58   13.40
   1  -4  13  230.58   12.80
   1  -4  13  209.98   11.20
   1  -4  13  221.18   10.90
  -2   4 -13   49.50    6.10
  -2   4 -13   44.10    5.30
  -2   4 -13   42.00    5.90
   2  -4  13   49.99    5.20
   2  -4  13   49.99    5.80
   2  -4  13   51.79    5.90
  -3   4 -13   47.00    6.20
  -3   4 -13   41.60    6.00
   3  -4  13   38.00    5.30
   3  -4  13   47.80    6.10
   3  -4  13   35.40    5.20
  -4   4 -13  157.08   11.80
  -4   4 -13  189.98   13.40
   4  -4  13  170.48   16.30
   4  -4  13  161.68   11.80
   4  -4  13  195.88   11.60
  10   3 -13   16.50    5.00
 -10  -3  13   17.90    4.30
 -10  -3  13   21.00    4.90
   9   3 -13   12.00    3.20
   9   3 -13   18.30    4.80
  -9  -3  13   12.10    3.50
  -9  -3  13    8.20    3.20
   8   3 -13    0.10    2.30
   8   3 -13   -1.00    2.40
   8   3 -13    0.10    2.00
   8   3 -13    5.30    2.80
  -8  -3  13    7.40    2.60
  -8  -3  13    0.00    2.70
  -8  -3  13    4.70    2.10
   7   3 -13   -1.20    2.20
   7   3 -13   -0.10    2.30
   7   3 -13   -2.20    2.50
  -7  -3  13   -0.50    1.90
  -7  -3  13   -3.80    2.30
  -7  -3  13   -4.30    2.50
   6   3 -13    8.10    2.90
   6   3 -13   11.30    3.50
   6   3 -13   13.30    3.20
  -6  -3  13    8.50    3.20
  -6  -3  13    1.20    2.40
  -6  -3  13    8.10    3.00
   5   3 -13    1.70    2.50
   5   3 -13   -0.90    2.30
  -5  -3  13   -0.10    2.10
   4   3 -13   86.89    7.50
   4   3 -13   82.59    7.50
   4   3 -13   93.39    9.00
  -4  -3  13   75.29    7.60
  -4  -3  13   98.69    7.40
   3   3 -13  152.68   10.40
   3   3 -13  147.99   11.20
   3   3 -13  158.08    9.60
  -3  -3  13  165.38   10.00
   2   3 -13  101.79    8.50
   2   3 -13  104.59    7.70
  -2  -3  13  103.79    7.70
  -2  -3  13  114.49    7.10
   1   3 -13  233.18   12.00
   1   3 -13  197.88   13.40
  -1  -3  13  231.08   12.30
  -1  -3  13  229.38   11.30
   0   3 -13  219.78   13.10
   0   3 -13  190.18   13.20
   0   3 -13  244.38   11.60
   0  -3  13  221.48   11.80
   0  -3  13  219.08   12.30
   0  -3  13  226.08   10.70
  -1   3 -13   96.99    6.60
  -1   3 -13   78.19    8.00
  -1   3 -13   84.69    8.20
   1  -3  13   95.79    6.80
   1  -3  13   94.89    7.70
   1  -3  13   90.89    6.70
  -2   3 -13   14.30    3.20
  -2   3 -13   11.10    3.50
  -2   3 -13    6.00    2.60
   2  -3  13    6.60    2.80
   2  -3  13   12.20    3.10
   2  -3  13   12.50    2.90
  -3   3 -13   57.49    7.00
  -3   3 -13   61.09    7.20
   3  -3  13   76.99    6.60
   3  -3  13   66.99    6.90
   3  -3  13   65.39    7.00
  10   2 -13    4.10    3.30
  10   2 -13    2.30    3.30
 -10  -2  13    0.80    3.50
 -10  -2  13    1.00    3.50
   9   2 -13   11.20    4.30
   9   2 -13   17.30    4.00
   9   2 -13   17.20    4.30
  -9  -2  13   17.10    3.80
  -9  -2  13   13.70    4.90
  -9  -2  13   20.80    4.70
   8   2 -13   25.90    4.70
   8   2 -13   29.30    5.40
   8   2 -13   16.90    3.90
   8   2 -13   33.10    4.80
  -8  -2  13   39.80    4.50
  -8  -2  13   25.50    4.50
  -8  -2  13   24.90    4.00
   7   2 -13    0.40    2.10
   7   2 -13   -0.50    2.30
  -7  -2  13   -3.40    2.70
  -7  -2  13   -1.30    2.70
   6   2 -13   34.70    4.40
   6   2 -13   24.40    4.90
  -6  -2  13   20.10    4.50
  -6  -2  13   23.70    4.60
  -6  -2  13   22.70    4.80
   5   2 -13    2.30    2.70
   5   2 -13    1.60    2.40
   5   2 -13   -1.60    2.70
  -5  -2  13    0.70    2.20
  -5  -2  13    2.90    2.30
   4   2 -13    8.00    3.20
   4   2 -13    6.10    3.10
   4   2 -13    9.60    3.30
  -4  -2  13   11.20    3.70
  -4  -2  13   11.50    2.80
   3   2 -13   33.40    4.90
   3   2 -13   39.60    5.40
   3   2 -13   36.50    5.50
  -3  -2  13   36.60    4.70
   2   2 -13   30.80    5.10
   2   2 -13   30.00    4.70
   2   2 -13   39.50    5.00
  -2  -2  13   37.40    4.20
  -2  -2  13   36.80    4.50
   1   2 -13  200.08   12.20
   1   2 -13  197.18   10.80
   1   2 -13  153.28   11.40
  -1  -2  13  184.18   11.10
  -1  -2  13  158.88   11.80
  -1  -2  13  191.48    9.70
   0   2 -13  288.27   15.20
   0   2 -13  225.48   14.60
   0   2 -13  262.17   13.00
   0  -2  13  277.67   13.30
   0  -2  13  272.97   12.80
   0  -2  13  259.17   13.80
  -1   2 -13   78.09    6.80
  -1   2 -13   67.29    7.00
  -1   2 -13   82.09    7.70
   1  -2  13   69.49    6.70
   1  -2  13   76.39    6.40
   1  -2  13   66.19    6.50
  -2   2 -13   99.29    8.90
  -2   2 -13  116.69    8.50
  -2   2 -13  101.09    8.80
   2  -2  13  118.59    8.40
   2  -2  13  103.49    8.30
   2  -2  13  123.99    8.50
  -3   2 -13  175.98   10.30
  -3   2 -13  153.68   15.30
   3  -2  13  191.78   12.10
   3  -2  13  168.38   13.20
   3  -2  13  159.88   10.90
  10   1 -13   23.40    4.70
  10   1 -13   35.40    4.90
  10   1 -13   29.70    6.20
 -10  -1  13   28.20    6.00
   9   1 -13   19.20    4.60
   9   1 -13   12.00    4.30
   9   1 -13   18.20    5.20
  -9  -1  13   22.10    4.40
  -9  -1  13   21.70    4.90
  -9  -1  13   19.00    4.70
   8   1 -13   10.70    3.10
  -8  -1  13   13.10    3.40
  -8  -1  13    9.50    3.40
   7   1 -13   12.10    3.90
   7   1 -13   12.20    3.90
  -7  -1  13    7.00    3.70
  -7  -1  13   17.60    4.10
  -7  -1  13   14.80    4.10
   6   1 -13   20.90    4.00
   6   1 -13   19.10    4.40
  -6  -1  13   16.00    3.80
  -6  -1  13   11.40    5.00
  -6  -1  13   14.80    3.40
   5   1 -13    1.00    2.80
   5   1 -13    6.10    2.60
   5   1 -13    4.20    3.20
  -5  -1  13    9.20    4.00
  -5  -1  13   11.20    2.90
  -5  -1  13    7.60    3.00
   4   1 -13    2.10    1.90
   4   1 -13    3.90    2.50
  -4  -1  13   -2.70    1.80
  -4  -1  13   -2.20    1.70
   3   1 -13    2.40    2.20
   3   1 -13   -2.80    1.80
   3   1 -13    3.10    3.00
   2   1 -13    7.70    3.00
   2   1 -13   14.10    2.70
   2   1 -13   11.10    3.00
  -2  -1  13    4.50    2.90
  -2  -1  13   11.20    2.40
   1   1 -13  110.09    9.40
   1   1 -13  136.39    9.00
   1   1 -13  126.19    9.50
  -1  -1  13  141.69    8.40
  -1  -1  13  131.19    8.80
  -1  -1  13  140.49    9.50
   0   1 -13   74.89    7.10
   0   1 -13   78.39    7.20
   0   1 -13   61.89    7.00
   0  -1  13   84.09    6.90
   0  -1  13   79.39    7.00
   0  -1  13   64.19    6.20
  -1   1 -13   28.90    5.90
  -1   1 -13   25.40    4.60
   1  -1  13   21.20    4.70
   1  -1  13   22.80    4.20
  -2   1 -13  216.58   14.30
  -2   1 -13  273.67   12.90
   2  -1  13  254.97   13.40
   2  -1  13  244.68   13.60
   2  -1  13  265.87   14.40
   9   0 -13    1.90    3.10
  -9   0  13    2.70    3.10
  -9   0  13    0.90    3.00
   8   0 -13    1.30    2.80
  -8   0  13    0.70    3.30
  -8   0  13    2.10    2.70
  -8   0  13   -3.00    2.90
   7   0 -13   27.50    5.00
  -7   0  13   32.50    5.60
  -7   0  13   26.70    5.50
   6   0 -13   21.00    4.40
   6   0 -13   17.50    3.30
   6   0 -13   21.30    4.50
  -6   0  13   22.90    4.80
  -6   0  13   15.70    3.60
   5   0 -13    1.00    2.20
   5   0 -13   -3.30    2.20
   5   0 -13    1.90    2.90
  -5   0  13    2.50    2.40
  -5   0  13    7.10    2.40
  -5   0  13    7.90    3.30
   4   0 -13    4.30    2.70
   4   0 -13    6.90    2.90
   4   0 -13   13.10    3.50
  -4   0  13    6.40    3.40
  -4   0  13    1.90    2.90
  -4   0  13    7.40    3.40
  -4   0  13   -0.30    2.50
   3   0 -13    8.90    3.50
   3   0 -13   13.00    3.40
   3   0 -13    7.20    3.20
  -3   0  13   10.60    3.00
  -3   0  13   10.60    3.10
   2   0 -13   63.59    7.10
   2   0 -13   63.39    6.60
  -2   0  13   63.29    6.00
  -2   0  13   65.69    6.90
   1   0 -13   44.20    5.50
   1   0 -13   41.20    5.50
   1   0 -13   38.00    5.50
  -1   0  13   42.00    5.60
  -1   0  13   39.50    5.50
  -1   0  13   45.80    5.90
   0   0 -13   -0.40    2.30
   0   0  13   -5.70    2.50
   0   0  13   -1.70    2.00
   0   0  13    2.90    3.20
  -1   0 -13  133.29   10.80
  -1   0 -13  177.18   10.60
   1   0  13  155.28   10.20
   1   0  13  173.08   11.00
   1   0  13  178.58   11.20
  -2   0 -13  169.98   10.80
  -2   0 -13  129.39   10.70
   2   0  13  142.19    9.60
   2   0  13  164.58   11.10
   2   0  13  187.28   11.80
   9  -1 -13   23.60    5.50
   9  -1 -13   31.60    6.00
  -9   1  13   36.90    6.60
  -9   1  13   31.50    6.40
   8  -1 -13   36.50    6.40
  -8   1  13   39.30    6.60
   7  -1 -13   54.89    5.70
  -7   1  13   45.20    6.40
  -7   1  13   42.20    6.50
   6  -1 -13   10.20    3.30
   6  -1 -13    3.40    3.10
  -6   1  13    7.00    2.50
  -6   1  13    7.60    3.90
  -6   1  13   10.10    3.70
   5  -1 -13   28.70    4.90
   5  -1 -13   29.10    5.10
   5  -1 -13   32.00    4.90
  -5   1  13   25.90    3.90
  -5   1  13   34.00    5.60
  -5   1  13   27.30    4.80
   4  -1 -13   -3.20    2.10
   4  -1 -13    2.00    2.40
   4  -1 -13   -1.90    2.40
  -4   1  13   -3.50    2.90
  -4   1  13    0.80    2.80
  -4   1  13   -0.50    2.30
  -4   1  13   -3.30    2.50
   3  -1 -13    0.70    2.00
   3  -1 -13    4.90    2.50
   3  -1 -13    2.40    2.30
  -3   1  13   -2.10    2.50
  -3   1  13    3.10    2.70
  -3   1  13    1.90    2.60
   2  -1 -13    3.90    2.50
   2  -1 -13    2.60    2.50
   2  -1 -13    3.60    2.50
  -2   1  13    0.50    2.50
  -2   1  13   -3.20    2.60
  -2   1  13   -3.00    2.60
   1  -1 -13    8.20    3.40
  -1   1  13    8.20    3.50
  -1   1  13    9.70    4.00
   0  -1 -13    2.90    2.00
   0  -1 -13    0.30    2.30
   0   1  13   -5.30    2.50
  -1  -1 -13  138.29    9.50
   1   1  13  119.79    9.70
   1   1  13  111.59    8.80
   1   1  13  127.59    9.50
   8  -2 -13   89.79    8.40
  -8   2  13   96.79    9.60
  -8   2  13  102.79    9.80
   7  -2 -13   18.30    4.90
   7  -2 -13   10.20    3.60
  -7   2  13    3.50    3.80
  -7   2  13   15.40    3.90
  -7   2  13    6.50    3.10
   6  -2 -13   -2.60    2.50
   6  -2 -13    2.50    2.90
  -6   2  13    7.50    3.90
  -6   2  13    4.10    3.20
  -6   2  13    3.90    2.50
   5  -2 -13   19.90    3.90
   5  -2 -13   21.80    4.50
  -5   2  13   22.90    4.30
  -5   2  13   19.30    5.30
  -5   2  13   16.70    3.40
   4  -2 -13    0.60    2.40
   4  -2 -13    0.30    2.50
   4  -2 -13    5.00    2.40
  -4   2  13    1.80    3.10
  -4   2  13    3.20    2.40
   3  -2 -13    4.20    3.00
   3  -2 -13    4.30    5.00
   3  -2 -13    8.10    2.50
  -3   2  13    6.80    3.50
  -3   2  13   13.90    4.10
  -3   2  13    7.50    4.60
   2  -2 -13    0.80    2.50
  -2   2  13    0.80    3.00
  -2   2  13    1.00    2.70
  -2   2  13    6.80    3.10
   1  -2 -13   -0.10    2.20
   1  -2 -13    0.40    2.30
  -1   2  13   -3.70    2.90
  -1   2  13    7.20    3.10
   0  -2 -13   51.19    6.40
   0  -2 -13   36.50    6.00
   0   2  13   56.39    7.10
   0   2  13   54.39    7.30
   0   2  13   33.40    6.70
   7  -3 -13   43.30    6.40
   7  -3 -13   41.50    6.70
  -7   3  13   47.20    7.00
  -7   3  13   25.80    5.30
  -7   3  13   44.10    7.90
   6  -3 -13   52.69    6.70
   6  -3 -13   45.90    6.80
  -6   3  13   36.10    7.60
  -6   3  13   45.40    6.50
  -6   3  13   29.00    5.60
   5  -3 -13   24.10    4.60
  -5   3  13   26.00    5.80
  -5   3  13   25.00    7.10
  -5   3  13   39.50    6.10
   4  -3 -13    0.50    3.50
   4  -3 -13    7.50    3.20
  -4   3  13    0.20    3.70
  -4   3  13    3.20    3.20
  -4   3  13   -5.80    2.70
   3  -3 -13    6.30    3.10
  -3   3  13    2.60    3.20
  -3   3  13   -4.20    3.20
  -3   3  13   -2.00    3.80
  -3   3  13    2.60    3.20
   2  -3 -13    5.40    3.30
   2  -3 -13    1.50    3.50
  -2   3  13   11.50    3.50
  -2   3  13    1.90    3.70
   2  11 -14   32.10    5.90
   1  11 -14   24.60    6.80
  -1 -11  14   26.60    6.30
  -4 -10  14   73.09    8.60
  -4 -10  14   66.79    6.40
   3  10 -14  202.68   15.60
   3  10 -14  210.58   13.60
  -3 -10  14  194.18   11.60
   2  10 -14   17.90    5.00
   2  10 -14   17.40    4.70
  -2 -10  14   20.20    3.90
  -2 -10  14   17.40    6.00
   1  10 -14   13.40    5.30
   1  10 -14   17.60    4.20
  -1 -10  14   15.00    5.10
   0  10 -14   64.99    8.00
   0  10 -14   49.10   10.30
   0 -10  14   66.89    7.00
  -1  10 -14  128.79   11.90
  -1  10 -14  125.39   10.20
   1 -10  14  107.99    7.40
   6   9 -14   -4.00    1.90
   6   9 -14   -1.60    2.70
  -6  -9  14    0.30    2.50
  -6  -9  14   -4.70    2.10
   5   9 -14    5.10    3.20
   5   9 -14    1.30    3.00
  -5  -9  14    6.40    2.10
  -5  -9  14    4.90    3.40
   4   9 -14  117.69    9.90
   4   9 -14  117.99   10.00
  -4  -9  14  103.29   10.30
  -4  -9  14  104.99    8.10
   3   9 -14   86.99    8.60
   3   9 -14   90.29    9.30
  -3  -9  14   85.69    7.10
   2   9 -14   13.30    3.60
   2   9 -14    9.10    3.60
  -2  -9  14    6.30    2.80
  -2  -9  14    3.20    3.00
   1   9 -14  107.89    9.70
   1   9 -14   95.99    9.90
  -1  -9  14  102.29    8.20
   0   9 -14  167.98   11.50
   0   9 -14  138.39   11.70
   0  -9  14  144.39    8.00
   0  -9  14  144.29   10.20
  -1   9 -14   36.70    7.80
  -1   9 -14   64.59    7.10
   1  -9  14   60.59    6.70
  -2   9 -14   22.80    6.00
  -2   9 -14   15.80    5.20
   2  -9  14   20.70    5.20
   2  -9  14   20.20    3.60
   7   8 -14   19.80    4.40
   7   8 -14   22.40    3.80
  -7  -8  14   14.60    3.60
  -7  -8  14   16.30    4.20
   6   8 -14   28.40    5.40
   6   8 -14   36.50    5.60
  -6  -8  14   21.00    3.80
  -6  -8  14   39.40    6.00
   5   8 -14   -1.90    2.30
   5   8 -14    1.60    3.00
   5   8 -14    4.50    2.80
  -5  -8  14   -1.50    2.30
  -5  -8  14    1.80    1.90
   4   8 -14   27.40    4.60
   4   8 -14   20.40    4.60
   4   8 -14   20.90    4.70
  -4  -8  14   32.20    5.30
  -4  -8  14   25.00    4.10
   3   8 -14    2.70    2.90
   3   8 -14    0.90    2.80
   3   8 -14    0.00    2.70
  -3  -8  14    2.30    2.50
  -3  -8  14    1.20    2.40
   2   8 -14   51.19    7.00
   2   8 -14   44.10    5.80
   2   8 -14   47.80    6.90
  -2  -8  14   39.10    6.50
  -2  -8  14   54.39    5.30
   1   8 -14  122.49    9.90
   1   8 -14  118.79   10.70
  -1  -8  14  118.79    6.80
  -1  -8  14  125.59    9.10
   0   8 -14  127.69   11.30
   0   8 -14  131.49   10.40
   0  -8  14  124.79    9.50
   0  -8  14  122.79    7.20
  -1   8 -14   25.70    5.40
  -1   8 -14   24.20    5.40
   1  -8  14   34.20    4.30
  -2   8 -14   58.89   13.50
  -2   8 -14   85.39   13.70
   2  -8  14   88.19    6.70
   7   7 -14    2.00    2.50
   7   7 -14    4.80    3.40
   7   7 -14    6.70    3.10
  -7  -7  14    6.60    3.00
   6   7 -14   16.10    4.50
   6   7 -14   15.20    4.40
   6   7 -14   11.00    3.80
  -6  -7  14    9.80    2.90
  -6  -7  14   12.40    3.70
   5   7 -14   -4.90    2.80
   5   7 -14   -2.30    2.40
   5   7 -14   -1.00    1.90
  -5  -7  14    1.40    2.00
  -5  -7  14   -2.70    2.20
   4   7 -14   -5.10    2.80
   4   7 -14   -0.10    3.10
   4   7 -14   -3.60    2.10
  -4  -7  14    1.60    2.90
  -4  -7  14   -0.90    2.00
   3   7 -14   -2.70    2.60
   3   7 -14   -5.30    2.70
   3   7 -14   -2.40    2.40
  -3  -7  14   -3.30    1.80
  -3  -7  14    0.30    1.80
   2   7 -14  163.98    9.60
   2   7 -14  147.89   11.00
   2   7 -14  156.58   11.50
  -2  -7  14  151.78   10.00
  -2  -7  14  136.29    7.40
   1   7 -14  155.38   10.60
   1   7 -14  150.58   11.90
   1   7 -14  151.38    9.40
  -1  -7  14  134.69    7.70
  -1  -7  14  146.19   10.00
   0   7 -14  129.69   10.20
   0   7 -14  116.59   10.70
   0  -7  14  131.29    7.60
   0  -7  14  137.59    9.80
  -1   7 -14   34.20    6.50
  -1   7 -14   41.60    6.60
  -1   7 -14   39.40    5.40
   1  -7  14   42.10    5.10
  -2   7 -14  133.09   11.60
  -2   7 -14  117.99   11.10
  -2   7 -14  147.19   16.30
   2  -7  14  138.49    8.80
   2  -7  14  149.99   11.30
  -3   7 -14   97.29   10.10
  -3   7 -14  107.39   10.60
   3  -7  14  120.09    9.70
   3  -7  14   91.39    7.30
   8   6 -14   11.60    3.70
   8   6 -14    0.50    4.00
   8   6 -14   18.90    4.30
  -8  -6  14   11.70    4.00
  -8  -6  14   15.90    3.50
   7   6 -14  168.08   12.10
   7   6 -14  168.98   11.80
   7   6 -14  156.08   11.20
  -7  -6  14  165.88   12.80
  -7  -6  14  163.68   10.70
   6   6 -14   70.19    7.50
   6   6 -14   53.99    7.10
   6   6 -14   69.19    6.70
  -6  -6  14   57.99    6.00
  -6  -6  14   43.40    6.90
   5   6 -14   10.90    2.80
   5   6 -14   -0.10    2.30
   5   6 -14    3.60    2.60
  -5  -6  14    2.10    2.20
  -5  -6  14    5.50    2.70
   4   6 -14   27.90    4.90
   4   6 -14   32.00    5.30
   4   6 -14   30.30    5.20
  -4  -6  14   25.60    5.90
  -4  -6  14   28.20    4.40
   3   6 -14    7.30    3.00
   3   6 -14    5.80    3.20
   3   6 -14   10.20    3.30
  -3  -6  14   12.80    3.10
  -3  -6  14   13.70    4.00
   2   6 -14   31.00    6.20
   2   6 -14   27.80    4.80
   2   6 -14   40.30    5.60
  -2  -6  14   33.60    3.80
  -2  -6  14   23.90    4.60
   1   6 -14   19.60    4.60
   1   6 -14   21.50    4.60
   1   6 -14   21.60    3.70
   1   6 -14   18.40    4.00
  -1  -6  14   18.60    4.30
  -1  -6  14   22.10    3.30
   0   6 -14   -3.50    2.50
   0   6 -14   -0.90    2.90
   0   6 -14   -3.10    2.50
   0  -6  14   -3.90    1.80
  -1   6 -14   57.89    7.30
  -1   6 -14   61.89    7.60
  -1   6 -14   58.19    7.40
   1  -6  14   74.29    6.90
   1  -6  14   71.89    6.10
  -2   6 -14  328.37   22.00
  -2   6 -14  274.57   16.80
  -2   6 -14  248.88   16.50
   2  -6  14  298.77   14.00
   2  -6  14  293.47   15.70
   2  -6  14  248.78   13.50
  -3   6 -14   39.70    6.90
  -3   6 -14   43.70    7.00
  -3   6 -14   48.10    7.40
   3  -6  14   48.60    7.00
   8   5 -14  110.49    9.30
   8   5 -14  118.09    9.80
   8   5 -14  114.19    8.90
  -8  -5  14  105.09   10.00
  -8  -5  14  117.59    8.90
   7   5 -14   39.50    6.20
   7   5 -14   63.69    6.90
  -7  -5  14   36.40    5.30
  -7  -5  14   61.49    6.20
  -7  -5  14   50.29    7.40
   6   5 -14   21.80    6.90
   6   5 -14   11.10    4.10
   6   5 -14    9.50    3.20
  -6  -5  14   11.50    3.20
  -6  -5  14   10.80    3.90
   5   5 -14   30.20    5.20
   5   5 -14   18.50    3.90
  -5  -5  14   23.80    4.10
  -5  -5  14   16.80    4.30
   4   5 -14   37.00    6.30
   4   5 -14   34.40    5.80
   4   5 -14   38.40    5.90
  -4  -5  14   50.79    5.50
  -4  -5  14   42.50    6.80
   3   5 -14    2.50    3.10
   3   5 -14   -1.00    2.50
   3   5 -14    2.50    3.10
  -3  -5  14    1.40    1.90
   2   5 -14   -1.50    1.90
   2   5 -14    1.00    1.80
   2   5 -14    1.10    2.90
   2   5 -14    2.30    2.30
  -2  -5  14   -3.60    2.00
   1   5 -14    1.40    2.60
   1   5 -14    4.60    2.70
   1   5 -14   -2.60    2.70
  -1  -5  14    0.10    1.90
  -1  -5  14   -1.90    1.70
   0   5 -14   24.10    5.10
   0   5 -14   15.30    3.90
   0   5 -14   13.00    3.80
   0  -5  14   11.70    2.80
   0  -5  14   12.60    2.80
  -1   5 -14  113.99    9.90
  -1   5 -14  115.69   10.10
  -1   5 -14   95.89    9.60
   1  -5  14  122.19    7.90
   1  -5  14  120.19    8.50
  -2   5 -14   56.79    7.30
  -2   5 -14   66.19    7.30
  -2   5 -14   71.49    7.50
   2  -5  14   59.49    6.70
  -3   5 -14   41.40    8.90
  -3   5 -14   48.80    7.10
  -3   5 -14   31.20    5.40
   3  -5  14   39.90    7.30
   3  -5  14   31.70    5.20
   9   4 -14   88.09    9.50
   9   4 -14  101.59    9.60
  -9  -4  14  100.09    9.90
  -9  -4  14  117.79    8.90
   8   4 -14  191.58   13.50
   8   4 -14  210.88   11.70
   8   4 -14  191.28   12.90
  -8  -4  14  175.98   10.50
  -8  -4  14  189.88   13.30
   7   4 -14    7.00    3.30
   7   4 -14    0.30    2.50
   7   4 -14    5.50    2.70
  -7  -4  14    0.00    2.40
  -7  -4  14    2.30    2.40
   6   4 -14    4.50    3.10
   6   4 -14    4.00    2.90
   6   4 -14    3.90    2.60
  -6  -4  14    6.80    3.30
  -6  -4  14   -1.20    2.30
   5   4 -14    7.80    3.10
   5   4 -14   19.80    4.30
   5   4 -14   12.30    4.00
  -5  -4  14   20.80    4.10
  -5  -4  14   12.80    3.60
   4   4 -14   45.60    6.10
   4   4 -14   45.00    5.70
  -4  -4  14   46.20    5.60
  -4  -4  14   31.30    5.90
   3   4 -14   -4.40    2.90
   3   4 -14   -1.90    2.50
   3   4 -14   -0.20    2.00
  -3  -4  14    0.70    2.10
   2   4 -14   26.50    4.80
   2   4 -14   19.50    4.80
   2   4 -14   26.10    4.20
  -2  -4  14   25.80    4.10
  -2  -4  14   18.90    3.20
   1   4 -14   38.20    5.60
   1   4 -14   34.70    6.40
   1   4 -14   42.50    6.30
  -1  -4  14   56.39    8.40
  -1  -4  14   46.80    5.50
   0   4 -14   60.39    5.90
   0   4 -14   45.80    6.60
   0   4 -14   33.70    6.30
   0  -4  14   54.69    5.60
   0  -4  14   49.00    5.20
  -1   4 -14   30.00    5.50
  -1   4 -14   51.39    6.40
  -1   4 -14   45.30    5.80
   1  -4  14   32.00    4.80
   1  -4  14   34.50    4.90
   1  -4  14   32.80    5.40
  -2   4 -14   -2.50    3.00
   2  -4  14    1.80    2.30
   2  -4  14    0.60    3.80
   2  -4  14    2.80    3.20
   9   3 -14  222.28   15.30
  -9  -3  14  232.38   15.10
   8   3 -14   70.89    7.90
   8   3 -14   83.09    8.60
   8   3 -14   83.49    8.70
  -8  -3  14   94.89    9.20
  -8  -3  14   80.19    7.50
  -8  -3  14   83.49    8.20
   7   3 -14   11.70    3.50
   7   3 -14   13.50    3.80
   7   3 -14   13.70    3.70
  -7  -3  14   11.90    4.00
  -7  -3  14    8.80    3.80
  -7  -3  14   14.20    3.20
   6   3 -14   85.59    7.30
   6   3 -14   69.79    7.60
   6   3 -14   59.19    6.80
  -6  -3  14   62.39    7.20
  -6  -3  14   65.89    6.40
   5   3 -14   92.89    8.60
   5   3 -14   94.89    8.20
  -5  -3  14   90.09    8.60
  -5  -3  14  108.49    8.40
   4   3 -14   25.00    4.50
   4   3 -14   20.10    4.10
   4   3 -14   24.00    5.40
  -4  -3  14   16.80    4.70
  -4  -3  14   32.60    4.10
   3   3 -14    2.20    2.00
   3   3 -14   -0.40    2.50
  -3  -3  14    0.00    2.00
   2   3 -14   57.29    7.00
   2   3 -14   57.79    6.40
   2   3 -14   56.19    7.20
  -2  -3  14   65.39    6.20
  -2  -3  14   60.19    7.60
   1   3 -14   11.00    3.80
   1   3 -14   17.50    4.00
   1   3 -14   13.20    3.70
  -1  -3  14   17.30    3.40
  -1  -3  14   14.10    2.90
   0   3 -14   -1.60    2.00
   0   3 -14   -2.00    2.30
   0   3 -14    1.90    2.70
   0  -3  14   -0.30    2.20
   0  -3  14   -4.60    2.10
   0  -3  14    1.40    2.40
  -1   3 -14    9.10    3.00
  -1   3 -14    0.30    3.40
  -1   3 -14    3.80    2.90
   1  -3  14    2.20    2.70
   1  -3  14    0.20    2.30
  -2   3 -14   -7.00    4.30
   2  -3  14   -1.20    3.10
   2  -3  14   -2.90    2.60
   2  -3  14   -0.60    2.20
   9   2 -14  182.28   14.20
   9   2 -14  204.58   14.30
  -9  -2  14  210.48   13.60
   8   2 -14   60.19    8.60
   8   2 -14   64.79    7.30
   8   2 -14   55.09    7.30
  -8  -2  14   87.39    8.40
  -8  -2  14   63.09    7.30
  -8  -2  14   64.29    7.50
   7   2 -14  142.59   11.20
   7   2 -14  153.78   10.10
  -7  -2  14  168.88   11.80
  -7  -2  14  161.58   11.30
  -7  -2  14  170.68   10.90
   6   2 -14  114.99    8.90
   6   2 -14  120.59    9.80
  -6  -2  14  108.69    9.40
  -6  -2  14  129.39    9.80
  -6  -2  14  121.59    9.30
   5   2 -14   71.29    7.10
   5   2 -14   64.49    7.90
   5   2 -14   66.09    7.50
  -5  -2  14   62.29    7.10
  -5  -2  14   64.09    7.40
   4   2 -14   -0.90    2.50
   4   2 -14   -4.40    2.50
   4   2 -14   -1.90    2.50
  -4  -2  14   -4.20    2.80
  -4  -2  14    2.70    1.70
   3   2 -14   87.79    8.90
   3   2 -14   86.89    7.70
  -3  -2  14   97.79    7.80
   2   2 -14   16.50    3.70
   2   2 -14   15.70    4.90
   2   2 -14   16.90    4.20
  -2  -2  14   18.00    3.60
  -2  -2  14   19.60    4.30
   1   2 -14   10.80    3.60
  -1  -2  14    5.90    2.60
  -1  -2  14    6.10    2.40
  -1  -2  14   11.10    3.00
   0   2 -14   12.80    6.00
   0   2 -14   16.50    3.70
   0   2 -14   13.60    3.80
   0  -2  14   12.70    3.10
   0  -2  14   17.60    3.20
   0  -2  14   16.80    3.60
  -1   2 -14   -1.70    3.30
  -1   2 -14   -2.80    2.40
  -1   2 -14   -1.00    2.20
   1  -2  14   -2.30    2.80
   1  -2  14    1.40    3.60
   1  -2  14   -4.20    2.00
  -2   2 -14    4.10    2.80
  -2   2 -14    0.90    3.60
   2  -2  14   -5.30    3.60
   2  -2  14    2.80    2.30
   9   1 -14   46.30    7.10
   9   1 -14   38.40    7.00
  -9  -1  14   52.79    8.80
  -9  -1  14   38.00    6.70
  -9  -1  14   46.30    7.00
   8   1 -14   72.79    8.50
  -8  -1  14   74.89    9.70
  -8  -1  14   97.29    8.20
  -8  -1  14   91.99    8.90
   7   1 -14  216.08   14.40
  -7  -1  14  246.78   15.00
  -7  -1  14  238.98   14.50
  -7  -1  14  260.87   14.80
   6   1 -14  164.88   12.00
   6   1 -14  170.48   10.60
  -6  -1  14  167.08   11.90
  -6  -1  14  168.88   11.40
   5   1 -14  157.98    9.20
   5   1 -14  105.89   10.30
   5   1 -14  109.59    9.60
  -5  -1  14  139.69    9.80
  -5  -1  14  142.09    9.90
  -5  -1  14  119.59   10.30
   4   1 -14   51.09    6.50
   4   1 -14   45.50    6.40
   4   1 -14   48.70    5.90
  -4  -1  14   31.60    5.80
  -4  -1  14   51.29    6.00
   3   1 -14   71.89    7.40
   3   1 -14   78.19    7.30
   3   1 -14   60.59    7.40
  -3  -1  14   69.59    6.70
   2   1 -14   -2.60    2.50
   2   1 -14    7.30    2.50
   2   1 -14    2.00    2.30
  -2  -1  14    0.90    2.50
  -2  -1  14    4.60    2.40
   1   1 -14   -4.10    2.30
   1   1 -14   -5.20    2.40
  -1  -1  14    2.60    1.90
  -1  -1  14   -4.60    2.40
  -1  -1  14   -3.30    1.90
   0   1 -14   15.80    4.20
   0   1 -14   16.00    3.70
   0   1 -14   20.00    4.70
   0  -1  14   18.50    4.50
   0  -1  14   23.70    4.20
   0  -1  14   27.20    4.10
  -1   1 -14    3.50    3.40
  -1   1 -14   -0.60    2.20
   1  -1  14    1.40    2.40
   1  -1  14    0.10    2.60
   8   0 -14   39.70    6.80
  -8   0  14   69.39    8.00
  -8   0  14   51.59    7.00
   7   0 -14  214.28   14.30
  -7   0  14  216.28   14.10
  -7   0  14  254.07   15.00
   6   0 -14  161.18   11.80
   6   0 -14  167.58   13.10
  -6   0  14  173.38   12.60
  -6   0  14  175.98   12.50
  -6   0  14  183.08   11.40
   5   0 -14   72.89    8.20
   5   0 -14   82.39    7.70
   5   0 -14   91.89    7.10
  -5   0  14   81.29    7.80
  -5   0  14   61.49    7.80
  -5   0  14   84.39    7.90
   4   0 -14  137.99   11.00
   4   0 -14  141.89   10.20
   4   0 -14  156.78   10.00
  -4   0  14  126.79   10.60
  -4   0  14  150.18   10.70
  -4   0  14  139.09   11.20
   3   0 -14   81.29    8.40
   3   0 -14   99.09    7.90
   3   0 -14   81.59    7.90
  -3   0  14   92.99    9.00
  -3   0  14   99.69    8.50
  -3   0  14   93.79    7.70
   2   0 -14   18.50    4.40
   2   0 -14   17.50    4.10
   2   0 -14   17.90    4.10
  -2   0  14   17.30    4.30
  -2   0  14   18.20    3.90
   1   0 -14    4.80    3.00
   1   0 -14   -2.00    2.40
   1   0 -14   11.70    3.30
  -1   0  14    4.40    3.20
   0   0 -14   -1.20    2.90
   0   0 -14   -5.60    3.20
   0   0  14    3.70    3.40
   0   0  14    7.60    3.10
   0   0  14   -3.90    2.30
   7  -1 -14  111.69   11.10
  -7   1  14  131.49   10.50
  -7   1  14  130.29   10.90
   6  -1 -14   88.89    8.20
   6  -1 -14   80.39    8.60
  -6   1  14   86.89    9.10
  -6   1  14   93.49    9.30
   5  -1 -14  138.09    9.20
   5  -1 -14  117.19    9.80
  -5   1  14  135.79   10.90
  -5   1  14  136.09   10.80
  -5   1  14  124.19    9.30
   4  -1 -14  234.08   14.70
   4  -1 -14  209.58   13.90
   4  -1 -14  197.08   12.70
  -4   1  14  183.58   11.90
  -4   1  14  201.28   13.10
  -4   1  14  191.48   16.50
  -4   1  14  234.98   15.00
   3  -1 -14  120.79    8.40
   3  -1 -14   95.79    8.30
   3  -1 -14   91.99    8.70
  -3   1  14   96.69    9.70
  -3   1  14  100.09    8.30
  -3   1  14   98.59    8.10
   2  -1 -14   85.59   10.30
   2  -1 -14  104.59    8.80
   2  -1 -14   90.99    8.30
  -2   1  14  102.89    8.80
  -2   1  14  101.39    9.10
   1  -1 -14   72.79    7.50
   1  -1 -14   78.09    7.50
   1  -1 -14   62.59    7.30
  -1   1  14   67.99    8.00
  -1   1  14   61.69    7.80
  -1   1  14   81.09    7.60
   6  -2 -14    2.40    3.20
   6  -2 -14    8.80    3.40
  -6   2  14    9.50    3.50
  -6   2  14    0.20    3.70
   5  -2 -14  101.79    8.70
   5  -2 -14   92.09    9.00
  -5   2  14   62.19   10.40
  -5   2  14   98.49    9.80
   4  -2 -14  150.48    9.60
   4  -2 -14  131.99   11.40
   4  -2 -14  120.39   14.90
  -4   2  14  135.09   10.40
  -4   2  14  138.49   11.90
   3  -2 -14   57.19    6.20
   3  -2 -14   43.40    6.50
   3  -2 -14   58.69    7.50
  -3   2  14   49.60   10.30
  -3   2  14   45.50    7.40
  -3   2  14   39.80    7.10
   4   9 -15   18.70    7.10
  -4  -9  15   38.10    4.80
  -4  -9  15   26.10    5.50
   3   9 -15   51.79   10.40
   3   9 -15   64.79    7.70
  -3  -9  15   65.79    6.20
  -3  -9  15   52.99    8.90
   2   9 -15   75.49    8.60
  -2  -9  15   72.59    6.90
  -2  -9  15   46.10   11.10
   1   9 -15   27.30    7.30
   1   9 -15   32.80    5.80
   0   9 -15   -0.80    3.90
   0  -9  15   -3.40    2.50
   0  -9  15    0.20    2.80
   6   8 -15  147.29   12.00
   6   8 -15  161.38   12.10
   6   8 -15  161.88   11.90
  -6  -8  15  160.78   13.10
  -6  -8  15  137.69    9.60
   5   8 -15   82.19    8.30
  -5  -8  15   71.09   11.60
  -5  -8  15   77.59    6.70
   4   8 -15   -3.10    3.30
   4   8 -15    5.10    2.60
   4   8 -15    5.10    3.10
  -4  -8  15    1.10    2.60
  -4  -8  15    1.80    2.90
   3   8 -15   25.50    5.30
   3   8 -15   19.40    5.20
   3   8 -15   23.20    4.90
  -3  -8  15   22.70    5.40
  -3  -8  15   20.70    3.80
   2   8 -15   91.59    8.60
   2   8 -15   95.09    9.30
   2   8 -15   85.59    9.00
  -2  -8  15   92.69    7.50
  -2  -8  15   84.59   10.10
   1   8 -15    8.30    4.20
   1   8 -15   13.70    4.20
  -1  -8  15   19.10    3.90
  -1  -8  15   10.30    2.50
   0   8 -15   28.50    5.90
   0  -8  15   14.20    3.10
  -1   8 -15   53.79    7.20
   1  -8  15   61.19    8.00
   1  -8  15   56.99    5.60
   6   7 -15  146.09   10.50
   6   7 -15  117.69   13.80
   6   7 -15  115.89   10.10
  -6  -7  15  132.49   11.40
  -6  -7  15  115.09    8.70
   5   7 -15    7.30    3.70
   5   7 -15   12.80    4.10
   5   7 -15   13.10    4.00
  -5  -7  15    8.10    4.10
  -5  -7  15    8.00    3.80
   4   7 -15   48.80    7.00
   4   7 -15   35.60    6.00
   4   7 -15   40.20    6.10
  -4  -7  15   53.39    5.60
  -4  -7  15   55.49    7.80
   3   7 -15   36.30    6.00
   3   7 -15   34.50    6.40
   3   7 -15   51.49    7.10
  -3  -7  15   23.50    5.50
  -3  -7  15   43.30    5.10
   2   7 -15    1.10    3.50
   2   7 -15   -5.60    2.80
   2   7 -15    7.90    4.20
  -2  -7  15    9.10    3.10
  -2  -7  15   -1.30    2.10
   1   7 -15   15.10    3.90
   1   7 -15   11.20    4.60
  -1  -7  15   14.10    2.80
   0   7 -15   51.29    7.40
   0  -7  15   63.29    6.40
   0  -7  15   62.79    5.70
  -1   7 -15   16.10    4.20
  -1   7 -15   14.00    5.10
  -1   7 -15   28.30    6.00
   1  -7  15   12.80    3.20
   7   6 -15  354.86   19.20
   7   6 -15  350.46   18.50
   7   6 -15  361.26   18.90
  -7  -6  15  331.17   17.10
  -7  -6  15  363.16   20.50
   6   6 -15  232.98   15.10
   6   6 -15  265.27   15.60
   6   6 -15  247.78   15.20
  -6  -6  15  245.38   16.50
   5   6 -15   41.40    6.90
   5   6 -15   40.90    6.70
   5   6 -15   37.50    6.20
  -5  -6  15   45.10    5.40
  -5  -6  15   38.30    6.70
   4   6 -15  211.38   13.80
   4   6 -15  212.98   13.00
   4   6 -15  199.58   13.50
  -4  -6  15  183.78   14.50
  -4  -6  15  209.48   11.90
   3   6 -15   95.69    9.60
   3   6 -15  111.99   10.50
   3   6 -15  118.89    9.40
  -3  -6  15  109.79    8.30
  -3  -6  15  119.89   11.60
   2   6 -15   21.60    4.90
   2   6 -15   25.30    5.30
   2   6 -15   27.80    5.50
  -2  -6  15   31.40    4.50
  -2  -6  15   25.10    3.90
   1   6 -15   44.10    6.90
   1   6 -15   59.69    7.20
   1   6 -15   42.80    7.10
   1   6 -15   45.30    7.20
  -1  -6  15   57.49    8.10
   0   6 -15   32.40    6.30
   0   6 -15   22.00    5.20
   0   6 -15   16.30    4.40
   0  -6  15   20.30    3.70
  -1   6 -15   27.80    6.90
  -1   6 -15   29.20    4.90
   1  -6  15   21.20    3.60
   1  -6  15   23.30    4.80
   7   5 -15  112.79    9.80
   7   5 -15   98.49    8.70
  -7  -5  15   85.39    7.90
  -7  -5  15   97.49    9.60
   6   5 -15   68.79    7.70
   6   5 -15   87.79    8.20
   6   5 -15   70.09    8.10
  -6  -5  15   69.89    7.10
  -6  -5  15   67.29    8.60
   5   5 -15  200.58   13.30
   5   5 -15  168.38   12.70
   5   5 -15  221.78   13.70
  -5  -5  15  218.58   12.50
  -5  -5  15  199.78   14.30
   4   5 -15  299.87   16.80
   4   5 -15  285.87   15.70
   4   5 -15  250.67   16.00
  -4  -5  15  300.77   15.40
  -4  -5  15  276.87   17.90
   3   5 -15  145.89   10.80
   3   5 -15  123.29   10.50
   3   5 -15  166.88   11.60
  -3  -5  15  148.69    9.80
   2   5 -15   34.80    6.10
   2   5 -15   40.80    6.90
   2   5 -15   53.19    7.50
   2   5 -15   64.69    7.10
  -2  -5  15   56.59    5.50
   1   5 -15   -0.80    4.20
   1   5 -15   -1.70    2.60
   1   5 -15   -1.30    2.70
  -1  -5  15   -4.40    2.20
  -1  -5  15   -2.10    2.10
   0   5 -15    5.70    3.40
   0   5 -15   -1.50    4.50
   0   5 -15    4.60    3.30
   0  -5  15    5.90    3.20
   0  -5  15   -0.20    2.50
  -1   5 -15    0.60    3.10
  -1   5 -15    1.80    4.00
  -1   5 -15   -0.80    3.60
   1  -5  15    2.70    2.30
   1  -5  15    2.50    3.10
   8   4 -15   24.50    5.50
   8   4 -15   33.20    7.30
  -8  -4  15   29.00    5.70
  -8  -4  15   24.30    5.80
   7   4 -15   34.50    6.20
   7   4 -15   33.40    6.00
   7   4 -15   27.00    6.50
  -7  -4  15   37.90    5.60
  -7  -4  15   35.70    5.60
  -7  -4  15   28.80    6.10
   6   4 -15   63.69    7.20
   6   4 -15   48.00    6.50
   6   4 -15   44.80    6.50
  -6  -4  15   52.69    6.10
  -6  -4  15   44.20    6.30
  -6  -4  15   72.29    7.90
   5   4 -15  397.06   20.50
   5   4 -15  378.76   20.60
   5   4 -15  456.35   20.90
  -5  -4  15  420.56   21.90
  -5  -4  15  427.36   20.10
   4   4 -15  150.58   11.30
   4   4 -15  194.88   12.30
  -4  -4  15  150.18   12.90
  -4  -4  15  179.28   11.20
   3   4 -15  153.38   10.70
   3   4 -15  130.99   10.90
   3   4 -15  146.79   12.60
   2   4 -15  178.48   11.80
   2   4 -15  141.69   12.20
   2   4 -15  156.68   11.90
  -2  -4  15  176.18   10.80
  -2  -4  15  165.18    9.90
   1   4 -15  115.09   10.30
   1   4 -15   94.09    9.80
   1   4 -15  127.79    9.40
  -1  -4  15  118.39    8.20
  -1  -4  15  130.79    8.90
   0   4 -15  123.99   10.40
   0   4 -15  134.59    9.80
   0   4 -15   90.69   10.70
   0  -4  15  113.09    8.00
   0  -4  15  113.69    9.00
  -1   4 -15   -0.10    3.30
   1  -4  15   -1.00    2.70
   8   3 -15   15.00    5.00
   8   3 -15    7.60    4.40
  -8  -3  15   20.30    6.40
  -8  -3  15   11.70    5.10
  -8  -3  15   22.10    4.60
   7   3 -15   23.80    7.00
   7   3 -15   25.70    5.40
   7   3 -15   23.00    4.80
  -7  -3  15   20.10    4.80
  -7  -3  15   23.30    4.70
  -7  -3  15   12.00    5.00
   6   3 -15   49.50    6.90
   6   3 -15   84.49    8.30
   6   3 -15   79.49    8.20
  -6  -3  15   63.29    8.20
  -6  -3  15   60.89    6.90
  -6  -3  15   50.49    7.30
   5   3 -15  170.58   12.10
   5   3 -15  182.88   11.80
  -5  -3  15  184.98   11.80
  -5  -3  15  159.58   12.30
   4   3 -15  117.49    9.50
   4   3 -15   96.79    8.90
   4   3 -15   87.69    9.60
  -4  -3  15   92.49    9.90
   3   3 -15  108.39   10.60
   3   3 -15  132.69   10.60
   3   3 -15  122.59    9.90
  -3  -3  15  143.89    9.80
   2   3 -15  179.78   11.60
   2   3 -15  183.68   12.40
  -2  -3  15  185.98   11.00
  -2  -3  15  202.18   11.90
   1   3 -15  268.77   15.20
   1   3 -15  240.28   13.10
  -1  -3  15  226.98   12.50
  -1  -3  15  221.48   13.00
   0   3 -15  114.89    9.70
   0   3 -15  110.59   12.10
   0   3 -15  125.79    9.70
   8   2 -15   34.60    6.10
   8   2 -15   49.40    7.30
  -8  -2  15   55.59    7.00
  -8  -2  15   47.90    6.90
  -8  -2  15   53.99    8.50
   7   2 -15   49.00    7.00
  -7  -2  15   33.70    6.10
  -7  -2  15   50.99    7.70
   6   2 -15   87.39    7.50
   6   2 -15   68.99    8.10
  -6  -2  15   87.99    8.50
  -6  -2  15   66.29    7.60
  -6  -2  15   59.39    8.20
   5   2 -15   28.70    5.10
   5   2 -15   32.80    6.20
   5   2 -15   47.60    8.90
  -5  -2  15   42.50    6.50
  -5  -2  15   29.30    5.50
   4   2 -15   23.60    5.10
   4   2 -15   19.20    5.20
   4   2 -15   21.90    5.30
  -4  -2  15   10.30    4.20
  -4  -2  15   20.50    4.20
   3   2 -15   56.19    7.20
   3   2 -15   48.70    6.50
   3   2 -15   45.00    7.00
  -3  -2  15   59.59    6.40
   2   2 -15  276.37   15.20
   2   2 -15  255.97   14.50
  -2  -2  15  270.97   14.80
   1   2 -15  173.78   11.40
   0   2 -15   44.20    6.10
   0   2 -15   49.60    6.90
   0  -2  15   47.20    7.00
   0  -2  15   35.20    5.90
   7   1 -15   93.69   11.60
  -7  -1  15  103.29    8.90
  -7  -1  15   83.99   10.70
   6   1 -15  105.19   12.50
   6   1 -15   99.99    9.10
  -6  -1  15  100.69    9.30
  -6  -1  15   94.49   10.20
   5   1 -15   18.50    4.50
   5   1 -15   16.90    4.50
  -5  -1  15   17.90    4.40
  -5  -1  15    8.50    3.50
   4   1 -15   31.70    5.30
   4   1 -15   34.60    5.60
   4   1 -15   23.70    5.00
  -4  -1  15   44.80    6.50
  -4  -1  15   27.50    5.10
   3   1 -15   75.19    7.80
   3   1 -15   60.09    8.00
   3   1 -15   63.59    7.10
  -3  -1  15   67.59    7.10
   2   1 -15   52.69   10.30
   2   1 -15   74.59    7.00
   2   1 -15   74.79    7.10
   1   1 -15   63.39    6.90
   1   1 -15   46.80    6.60
  -1  -1  15   62.19    8.50
   6   0 -15   54.69    8.30
  -6   0  15   72.49    8.20
  -6   0  15   55.29    7.20
   5   0 -15   25.10    5.70
   5   0 -15   23.60    5.00
  -5   0  15   26.80    5.50
  -5   0  15   35.20    5.60
   4   0 -15  155.88    9.90
   4   0 -15  130.99   15.50
   4   0 -15  129.99   10.20
  -4   0  15  138.99   10.90
  -4   0  15  100.59   11.20
  -4   0  15  120.89   15.50
   3   0 -15  110.29   10.40
   3   0 -15  134.79    9.80
   3   0 -15  114.49    9.40
  -3   0  15  115.99   11.10
   3   8 -16   69.19   12.30
   3   8 -16   73.19   13.30
   3   8 -16   71.29    9.50
  -3  -8  16   67.59    9.60
  -3  -8  16   69.59   10.00
   2   8 -16  218.38   15.90
   5   7 -16    8.60    4.30
   5   7 -16   12.50    4.90
   5   7 -16   17.20    4.70
  -5  -7  16   13.20    5.40
   4   7 -16   10.90    5.40
   4   7 -16   11.40    4.50
   4   7 -16   27.10    7.70
  -4  -7  16   20.10    4.30
   3   7 -16  150.28   12.30
   3   7 -16  154.18   12.10
   3   7 -16  139.89   11.90
   2   7 -16  242.18   15.30
  -2  -7  16  258.87   14.60
  -2  -7  16  236.08   11.90
   1   7 -16   37.30    6.10
   1   7 -16   49.40    7.50
  -1  -7  16   44.50    6.10
  -1  -7  16   49.70    5.30
   5   6 -16   27.30    5.60
   5   6 -16   17.40    4.90
   5   6 -16   31.00    5.70
  -5  -6  16   24.10    5.40
  -5  -6  16   23.60    5.70
   4   6 -16   32.40    6.30
   4   6 -16   20.30    5.30
  -4  -6  16   29.50    6.10
  -4  -6  16   32.40    6.10
   3   6 -16  192.98   12.70
   3   6 -16  161.58   12.70
  -3  -6  16  175.38   14.60
   2   6 -16   28.60    5.70
   2   6 -16   33.50    5.90
   2   6 -16   17.50    4.80
  -2  -6  16   25.40    5.00
  -2  -6  16   40.30    5.40
   1   6 -16   -2.00    4.20
   1   6 -16   -4.00    3.20
   1   6 -16   -1.00    3.40
  -1  -6  16    6.40    2.90
   6   5 -16    4.40    3.70
   6   5 -16   10.70    4.80
   6   5 -16   15.30    4.70
  -6  -5  16   14.30    4.40
  -6  -5  16   16.70    4.10
   5   5 -16   42.20    7.50
   5   5 -16   69.69    8.30
   5   5 -16   66.09    8.20
  -5  -5  16   64.39    8.10
   4   5 -16   86.79    8.70
   4   5 -16   53.09    9.40
   4   5 -16   59.49    8.00
  -4  -5  16   73.49    9.90
  -4  -5  16   71.79    9.60
   3   5 -16   22.90    5.10
   3   5 -16   23.10    4.50
   3   5 -16   26.50    5.90
   2   5 -16    4.20    3.80
   2   5 -16    4.50    3.80
   2   5 -16   10.60    3.80
   2   5 -16    6.00    4.40
  -2  -5  16   -0.80    2.90
   1   5 -16   32.20    5.90
   1   5 -16   25.70    6.40
   1   5 -16   41.90    9.10
   1   5 -16   40.80    7.30
  -1  -5  16   23.50    4.00
   6   4 -16   13.60    4.60
   6   4 -16   19.60    4.60
   6   4 -16    2.60    3.60
  -6  -4  16   13.40    4.20
  -6  -4  16    9.50    3.70
  -6  -4  16    5.50    4.50
   5   4 -16   91.49    9.50
   5   4 -16   84.79    8.70
   5   4 -16   77.29    7.80
  -5  -4  16   72.29    9.00
  -5  -4  16   75.89    8.80
   4   4 -16  136.79   10.70
   4   4 -16  128.29   10.80
  -4  -4  16  124.09   11.30
   3   4 -16   20.30    4.70
   3   4 -16    7.10    4.00
   2   4 -16   59.99    8.40
   2   4 -16   51.19    7.40
  -2  -4  16   74.49    6.50
   6   3 -16    5.90    3.90
   6   3 -16   -2.20    3.40
   6   3 -16    0.30    2.40
  -6  -3  16    5.90    3.70
  -6  -3  16   -0.60    4.70
  -6  -3  16   -1.30    2.70
   5   3 -16   30.50    4.80
   5   3 -16   22.00    5.10
  -5  -3  16   18.60    5.60
   4   3 -16   48.40    7.80
   4   3 -16   35.30    5.90
   4   3 -16   31.90    5.80
  -4  -3  16   48.20    6.50
  -4  -3  16   30.90    6.60
   3   3 -16   49.20    6.90
   3   3 -16   45.60    7.00
  -3  -3  16   49.30    6.40
   2   3 -16   65.69   12.50
   2   3 -16   82.79    8.60
   2   3 -16   85.79    8.50
  -2  -3  16   86.89    7.90
   5   2 -16   -1.90    3.00
  -5  -2  16   -0.70    2.80
   4   2 -16    3.20    3.70
   4   2 -16    2.90    3.40
   4   2 -16    2.50    3.30
  -4  -2  16   -1.00    4.20
  -4  -2  16   10.10    3.20
   0   0   0    0.00    0.00

_computing_structure_solution     'SHELXT 2014/5 (Sheldrick, 2014)'
;
_shelx_hkl_checksum              16460
_publcif_info_exptl_table_max_cols 4
_publcif_info_exptl_table_use_headnotes n
_publcif_funding_html
;
;
loop_
_space_group_symop_operation_xyz
'x, y, z'
'-x, -y, -z'
loop_
_atom_site_label
_atom_site_type_symbol
_atom_site_fract_x
_atom_site_fract_y
_atom_site_fract_z
_atom_site_U_iso_or_equiv
_atom_site_adp_type
_atom_site_occupancy
_atom_site_site_symmetry_order
_atom_site_calc_flag
_atom_site_refinement_flags_posn
_atom_site_refinement_flags_adp
_atom_site_refinement_flags_occupancy
_atom_site_disorder_assembly
_atom_site_disorder_group
Pd1 Pd 0.52378(2) 0.47591(2) 0.83465(2) 0.01153(4) Uani 1 1 d . . . . .
Cl1 Cl 0.77529(5) 0.66278(5) 0.96242(4) 0.01689(8) Uani 1 1 d . . . . .
Cl2 Cl 0.40169(5) 0.65693(5) 0.78787(4) 0.01726(8) Uani 1 1 d . . . . .
N1 N 0.60720(18) 0.30033(16) 0.87338(14) 0.0122(3) Uani 1 1 d . . . . .
N2 N 0.30763(17) 0.29912(16) 0.72580(14) 0.0116(2) Uani 1 1 d . . . . .
C1 C 0.7620(2) 0.3010(2) 0.94095(18) 0.0150(3) Uani 1 1 d . . . . .
H1 H 0.852029 0.390212 0.971313 0.018 Uiso 1 1 calc R U . . .
C2 C 0.7957(2) 0.1744(2) 0.96841(18) 0.0165(3) Uani 1 1 d . . . . .
H2 H 0.907302 0.177743 1.016570 0.020 Uiso 1 1 calc R U . . .
C3 C 0.6653(2) 0.0438(2) 0.92504(18) 0.0163(3) Uani 1 1 d . . . . .
H3 H 0.685744 -0.042353 0.944745 0.020 Uiso 1 1 calc R U . . .
C4 C 0.5035(2) 0.0414(2) 0.85183(18) 0.0163(3) Uani 1 1 d . . . . .
H4 H 0.412085 -0.047532 0.818979 0.020 Uiso 1 1 calc R U . . .
C5 C 0.4786(2) 0.17042(19) 0.82795(17) 0.0140(3) Uani 1 1 d . . . . .
C6 C 0.3169(2) 0.1768(2) 0.74796(18) 0.0153(3) Uani 1 1 d . . . . .
H6 H 0.219878 0.092374 0.712684 0.018 Uiso 1 1 calc R U . . .
C7 C 0.1471(2) 0.30746(19) 0.64818(17) 0.0130(3) Uani 1 1 d . . . . .
C8 C 0.0491(2) 0.3658(2) 0.72295(18) 0.0165(3) Uani 1 1 d . . . . .
H8 H 0.090474 0.396005 0.816997 0.020 Uiso 1 1 calc R U . . .
C9 C -0.1088(2) 0.3800(2) 0.6607(2) 0.0190(3) Uani 1 1 d . . . . .
H9 H -0.176334 0.418861 0.711145 0.023 Uiso 1 1 calc R U . . .
C10 C -0.1655(2) 0.3364(2) 0.5240(2) 0.0195(3) Uani 1 1 d . . . . .
H10 H -0.273144 0.345395 0.479810 0.023 Uiso 1 1 calc R U . . .
C11 C -0.0660(2) 0.2796(2) 0.45080(18) 0.0174(3) Uani 1 1 d . . . . .
H11 H -0.108154 0.251134 0.357052 0.021 Uiso 1 1 calc R U . . .
C12 C 0.0941(2) 0.26217(19) 0.50909(17) 0.0133(3) Uani 1 1 d . . . . .
C13 C 0.1968(2) 0.1973(2) 0.42102(18) 0.0152(3) Uani 1 1 d . . . . .
C14 C 0.1065(3) 0.1730(3) 0.2762(2) 0.0258(4) Uani 1 1 d . . . . .
H14A H 0.084960 0.272309 0.276938 0.039 Uiso 1 1 calc R U . . .
H14B H -0.000312 0.092463 0.235373 0.039 Uiso 1 1 calc R U . . .
H14C H 0.177328 0.138555 0.223789 0.039 Uiso 1 1 calc R U . . .
C15 C 0.3694(3) 0.3122(2) 0.4739(2) 0.0255(4) Uani 1 1 d . . . . .
H15A H 0.355086 0.417102 0.485857 0.038 Uiso 1 1 calc R U . . .
H15B H 0.424751 0.275269 0.409164 0.038 Uiso 1 1 calc R U . . .
H15C H 0.438650 0.317721 0.560361 0.038 Uiso 1 1 calc R U . . .
C16 C 0.2203(3) 0.0365(2) 0.4139(2) 0.0232(4) Uani 1 1 d . . . . .
H16A H 0.269927 -0.009670 0.346675 0.035 Uiso 1 1 calc R U . . .
H16B H 0.111013 -0.033883 0.388471 0.035 Uiso 1 1 calc R U . . .
H16C H 0.294965 0.050576 0.502007 0.035 Uiso 1 1 calc R U . . .
loop_
_atom_site_aniso_label
_atom_site_aniso_U_11
_atom_site_aniso_U_22
_atom_site_aniso_U_33
_atom_site_aniso_U_23
_atom_site_aniso_U_13
_atom_site_aniso_U_12
Pd1 0.01172(6) 0.00917(6) 0.01389(6) 0.00616(5) 0.00371(4) 0.00201(4)
Cl1 0.01456(17) 0.01395(17) 0.01932(19) 0.00822(15) 0.00273(14) -0.00051(14)
Cl2 0.01913(19) 0.01147(16) 0.02123(19) 0.00920(15) 0.00439(15) 0.00476(14)
N1 0.0141(6) 0.0099(6) 0.0133(6) 0.0060(5) 0.0047(5) 0.0027(5)
N2 0.0114(6) 0.0106(6) 0.0131(6) 0.0057(5) 0.0043(5) 0.0028(5)
C1 0.0129(7) 0.0144(7) 0.0177(8) 0.0077(6) 0.0048(6) 0.0033(6)
C2 0.0162(8) 0.0169(8) 0.0187(8) 0.0099(6) 0.0059(6) 0.0068(6)
C3 0.0193(8) 0.0152(7) 0.0201(8) 0.0110(6) 0.0089(7) 0.0083(6)
C4 0.0163(8) 0.0135(7) 0.0215(8) 0.0099(6) 0.0070(6) 0.0042(6)
C5 0.0150(7) 0.0116(7) 0.0176(8) 0.0082(6) 0.0063(6) 0.0035(6)
C6 0.0132(7) 0.0128(7) 0.0182(8) 0.0071(6) 0.0041(6) 0.0012(6)
C7 0.0109(7) 0.0109(7) 0.0163(7) 0.0066(6) 0.0034(6) 0.0018(5)
C8 0.0172(8) 0.0164(7) 0.0170(8) 0.0073(6) 0.0071(6) 0.0055(6)
C9 0.0168(8) 0.0191(8) 0.0252(9) 0.0107(7) 0.0107(7) 0.0081(6)
C10 0.0134(7) 0.0235(9) 0.0260(9) 0.0145(7) 0.0074(7) 0.0070(7)
C11 0.0141(7) 0.0206(8) 0.0178(8) 0.0102(7) 0.0039(6) 0.0042(6)
C12 0.0124(7) 0.0117(7) 0.0156(7) 0.0063(6) 0.0049(6) 0.0018(6)
C13 0.0152(7) 0.0150(7) 0.0162(7) 0.0065(6) 0.0072(6) 0.0039(6)
C14 0.0304(10) 0.0329(10) 0.0198(9) 0.0134(8) 0.0120(8) 0.0141(9)
C15 0.0216(9) 0.0229(9) 0.0310(10) 0.0073(8) 0.0162(8) 0.0003(7)
C16 0.0288(10) 0.0171(8) 0.0273(10) 0.0095(7) 0.0143(8) 0.0091(7)
loop_
_atom_type_symbol
_atom_type_description
_atom_type_scat_dispersion_real
_atom_type_scat_dispersion_imag
_atom_type_scat_source
C C 0.0033 0.0016 'International Tables Vol C Tables 4.2.6.8 and 6.1.1.4'
H H 0.0000 0.0000 'International Tables Vol C Tables 4.2.6.8 and 6.1.1.4'
Cl Cl 0.1484 0.1585 'International Tables Vol C Tables 4.2.6.8 and 6.1.1.4'
N N 0.0061 0.0033 'International Tables Vol C Tables 4.2.6.8 and 6.1.1.4'
Pd Pd -0.9988 1.0072 'International Tables Vol C Tables 4.2.6.8 and 6.1.1.4'
loop_
_geom_angle_atom_site_label_1
_geom_angle_atom_site_label_2
_geom_angle_atom_site_label_3
_geom_angle
_geom_angle_site_symmetry_1
_geom_angle_site_symmetry_3
_geom_angle_publ_flag
N1 Pd1 N2 80.72(6) . . ?
N1 Pd1 Cl2 173.55(4) . . ?
N2 Pd1 Cl2 93.50(5) . . ?
N1 Pd1 Cl1 95.22(5) . . ?
N2 Pd1 Cl1 175.92(4) . . ?
Cl2 Pd1 Cl1 90.54(3) . . ?
C1 N1 C5 118.77(14) . . ?
C1 N1 Pd1 129.12(12) . . ?
C5 N1 Pd1 111.98(11) . . ?
C6 N2 C7 119.04(14) . . ?
C6 N2 Pd1 112.81(12) . . ?
C7 N2 Pd1 127.36(11) . . ?
N1 C1 C2 121.86(16) . . ?
N1 C1 H1 119.1 . . ?
C2 C1 H1 119.1 . . ?
C3 C2 C1 119.65(16) . . ?
C3 C2 H2 120.2 . . ?
C1 C2 H2 120.2 . . ?
C2 C3 C4 118.61(16) . . ?
C2 C3 H3 120.7 . . ?
C4 C3 H3 120.7 . . ?
C5 C4 C3 118.88(16) . . ?
C5 C4 H4 120.6 . . ?
C3 C4 H4 120.6 . . ?
N1 C5 C4 122.21(16) . . ?
N1 C5 C6 114.57(14) . . ?
C4 C5 C6 123.15(16) . . ?
N2 C6 C5 118.68(15) . . ?
N2 C6 H6 120.7 . . ?
C5 C6 H6 120.7 . . ?
C8 C7 C12 122.68(16) . . ?
C8 C7 N2 114.34(15) . . ?
C12 C7 N2 122.98(15) . . ?
C9 C8 C7 120.40(17) . . ?
C9 C8 H8 119.8 . . ?
C7 C8 H8 119.8 . . ?
C10 C9 C8 118.67(17) . . ?
C10 C9 H9 120.7 . . ?
C8 C9 H9 120.7 . . ?
C9 C10 C11 120.38(17) . . ?
C9 C10 H10 119.8 . . ?
C11 C10 H10 119.8 . . ?
C10 C11 C12 123.06(17) . . ?
C10 C11 H11 118.5 . . ?
C12 C11 H11 118.5 . . ?
C7 C12 C11 114.81(16) . . ?
C7 C12 C13 125.13(15) . . ?
C11 C12 C13 120.06(15) . . ?
C15 C13 C14 106.68(16) . . ?
C15 C13 C16 109.39(16) . . ?
C14 C13 C16 107.09(15) . . ?
C15 C13 C12 111.45(14) . . ?
C14 C13 C12 110.95(15) . . ?
C16 C13 C12 111.09(15) . . ?
C13 C14 H14A 109.5 . . ?
C13 C14 H14B 109.5 . . ?
H14A C14 H14B 109.5 . . ?
C13 C14 H14C 109.5 . . ?
H14A C14 H14C 109.5 . . ?
H14B C14 H14C 109.5 . . ?
C13 C15 H15A 109.5 . . ?
C13 C15 H15B 109.5 . . ?
H15A C15 H15B 109.5 . . ?
C13 C15 H15C 109.5 . . ?
H15A C15 H15C 109.5 . . ?
H15B C15 H15C 109.5 . . ?
C13 C16 H16A 109.5 . . ?
C13 C16 H16B 109.5 . . ?
H16A C16 H16B 109.5 . . ?
C13 C16 H16C 109.5 . . ?
H16A C16 H16C 109.5 . . ?
H16B C16 H16C 109.5 . . ?
loop_
_geom_bond_atom_site_label_1
_geom_bond_atom_site_label_2
_geom_bond_distance
_geom_bond_site_symmetry_2
_geom_bond_publ_flag
Pd1 N1 2.0383(15) . ?
Pd1 N2 2.0392(15) . ?
Pd1 Cl2 2.2694(7) . ?
Pd1 Cl1 2.2929(8) . ?
N1 C1 1.332(2) . ?
N1 C5 1.368(2) . ?
N2 C6 1.286(2) . ?
N2 C7 1.441(2) . ?
C1 C2 1.395(2) . ?
C1 H1 0.9500 . ?
C2 C3 1.386(2) . ?
C2 H2 0.9500 . ?
C3 C4 1.396(2) . ?
C3 H3 0.9500 . ?
C4 C5 1.380(2) . ?
C4 H4 0.9500 . ?
C5 C6 1.452(2) . ?
C6 H6 0.9500 . ?
C7 C8 1.395(2) . ?
C7 C12 1.406(2) . ?
C8 C9 1.389(2) . ?
C8 H8 0.9500 . ?
C9 C10 1.382(3) . ?
C9 H9 0.9500 . ?
C10 C11 1.391(3) . ?
C10 H10 0.9500 . ?
C11 C12 1.407(2) . ?
C11 H11 0.9500 . ?
C12 C13 1.543(2) . ?
C13 C15 1.535(3) . ?
C13 C14 1.536(3) . ?
C13 C16 1.539(3) . ?
C14 H14A 0.9800 . ?
C14 H14B 0.9800 . ?
C14 H14C 0.9800 . ?
C15 H15A 0.9800 . ?
C15 H15B 0.9800 . ?
C15 H15C 0.9800 . ?
C16 H16A 0.9800 . ?
C16 H16B 0.9800 . ?
C16 H16C 0.9800 . ?
loop_
_geom_torsion_atom_site_label_1
_geom_torsion_atom_site_label_2
_geom_torsion_atom_site_label_3
_geom_torsion_atom_site_label_4
_geom_torsion
_geom_torsion_site_symmetry_1
_geom_torsion_site_symmetry_2
_geom_torsion_site_symmetry_3
_geom_torsion_site_symmetry_4
_geom_torsion_publ_flag
C5 N1 C1 C2 -1.1(3) . . . . ?
Pd1 N1 C1 C2 174.38(13) . . . . ?
N1 C1 C2 C3 -0.2(3) . . . . ?
C1 C2 C3 C4 1.5(3) . . . . ?
C2 C3 C4 C5 -1.4(3) . . . . ?
C1 N1 C5 C4 1.1(3) . . . . ?
Pd1 N1 C5 C4 -175.08(14) . . . . ?
C1 N1 C5 C6 -176.12(15) . . . . ?
Pd1 N1 C5 C6 7.65(19) . . . . ?
C3 C4 C5 N1 0.1(3) . . . . ?
C3 C4 C5 C6 177.18(17) . . . . ?
C7 N2 C6 C5 -179.09(15) . . . . ?
Pd1 N2 C6 C5 -8.5(2) . . . . ?
N1 C5 C6 N2 0.6(2) . . . . ?
C4 C5 C6 N2 -176.67(17) . . . . ?
C6 N2 C7 C8 85.3(2) . . . . ?
Pd1 N2 C7 C8 -83.72(17) . . . . ?
C6 N2 C7 C12 -95.3(2) . . . . ?
Pd1 N2 C7 C12 95.70(18) . . . . ?
C12 C7 C8 C9 0.6(3) . . . . ?
N2 C7 C8 C9 -179.93(15) . . . . ?
C7 C8 C9 C10 -0.5(3) . . . . ?
C8 C9 C10 C11 0.0(3) . . . . ?
C9 C10 C11 C12 0.4(3) . . . . ?
C8 C7 C12 C11 -0.3(2) . . . . ?
N2 C7 C12 C11 -179.63(15) . . . . ?
C8 C7 C12 C13 179.85(16) . . . . ?
N2 C7 C12 C13 0.5(3) . . . . ?
C10 C11 C12 C7 -0.2(3) . . . . ?
C10 C11 C12 C13 179.66(16) . . . . ?
C7 C12 C13 C15 -56.6(2) . . . . ?
C11 C12 C13 C15 123.50(18) . . . . ?
C7 C12 C13 C14 -175.34(16) . . . . ?
C11 C12 C13 C14 4.8(2) . . . . ?
C7 C12 C13 C16 65.7(2) . . . . ?
C11 C12 C13 C16 -114.24(18) . . . . ?
loop_
_publcif_info_tables.block_id
_publcif_info_tables.reference_item
{93b66e02-be72-4bad-9aac-6360b3268abd} '_publcif_info_datablock.publ_exptl'
loop_
_publcif_info_cif.paper_type
EE
loop_
_publcif_info_datablock.id
_publcif_info_datablock.publ_exptl
_publcif_info_datablock.publ_geom
_publcif_info_datablock.structure
{93b66e02-be72-4bad-9aac-6360b3268abd} y y y
loop_
_publcif_info_exptl_table_extra_item
sin_theta_over_lambda_max
loop_
_publcif_info_exptl_table_header_item
?
