#------------------------------------------------------------------------------
#$Date: 2020-10-04 06:11:32 +0300 (Sun, 04 Oct 2020) $
#$Revision: 257064 $
#$URL: file:///home/coder/svn-repositories/cod/cif/4/51/80/4518035.cif $
#------------------------------------------------------------------------------
#
# This file is available in the Crystallography Open Database (COD),
# http://www.crystallography.net/
#
# All data on this site have been placed in the public domain by the
# contributors.
#
data_4518035
loop_
_publ_author_name
'Das Adhikari, Gopal Krushna'
'Chebolu, Rajesh'
'Ravikumar, Ponneri Chandrababu'
_publ_section_title
;
 Regio- and Stereoselective Synthesis of the Core Structure of
 Hexahydrobenzo[<i>c</i>]phenanthridine Alkaloids via Redox-Neutral
 Cp*Rh(III)-Catalyzed C-H/N-H Annulation of Cyclic Alkenes with
 Benzamides.
;
_journal_issue                   37
_journal_name_full               'ACS omega'
_journal_page_first              24033
_journal_page_last               24044
_journal_paper_doi               10.1021/acsomega.0c03434
_journal_volume                  5
_journal_year                    2020
_chemical_formula_moiety         '2(C19 H19 N O)'
_chemical_formula_sum            'C38 H38 N2 O2'
_chemical_formula_weight         554.70
_space_group_crystal_system      triclinic
_space_group_IT_number           2
_space_group_name_Hall           '-P 1'
_space_group_name_H-M_alt        'P -1'
_atom_sites_solution_hydrogens   geom
_atom_sites_solution_primary     dual
_audit_creation_date             2019-09-16
_audit_creation_method
;
Olex2 1.2
(compiled 2017.03.28 svn.r3405 for OlexSys, GUI svn.r5337)
;
_cell_angle_alpha                73.971(3)
_cell_angle_beta                 81.252(4)
_cell_angle_gamma                86.515(3)
_cell_formula_units_Z            1
_cell_length_a                   9.1117(4)
_cell_length_b                   9.1126(3)
_cell_length_c                   9.5279(4)
_cell_measurement_reflns_used    6901
_cell_measurement_temperature    293(2)
_cell_measurement_theta_max      30.9950
_cell_measurement_theta_min      3.7800
_cell_volume                     751.36(5)
_computing_cell_refinement       'CrysAlisPro 1.171.39.46b (Rigaku OD, 2018)'
_computing_data_collection       'CrysAlisPro 1.171.39.46b (Rigaku OD, 2018)'
_computing_data_reduction        'CrysAlisPro 1.171.39.46b (Rigaku OD, 2018)'
_computing_molecular_graphics    'Olex2 (Dolomanov et al., 2009)'
_computing_publication_material  'Olex2 (Dolomanov et al., 2009)'
_computing_structure_refinement  'ShelXL (Sheldrick, 2015)'
_computing_structure_solution    'ShelXT (Sheldrick, 2015)'
_diffrn_ambient_temperature      293(2)
_diffrn_detector                 'CCD plate'
_diffrn_detector_type            'Pilatus 200K'
_diffrn_measured_fraction_theta_full 0.997
_diffrn_measured_fraction_theta_max 0.807
_diffrn_measurement_details
;
List of Runs (angles in degrees, time in seconds):

  # Type    Start    End  Width  t~exp~   \w     \q     \k     \f   Frames
--------------------------------------------------------------------------
  1  \w    -13.00  45.00   0.50   45.67    --    5.13-106.00 117.00  116
  2  \w    -13.00  34.00   0.50   45.67    --   -5.59-106.00 117.00   94
  3  \w    -61.00   9.00   0.50   45.67    --    5.13 -38.00   0.00  140
  4  \w    -61.00   9.00   0.50   45.67    --    5.13 -38.00 120.00  140
  5  \w    -20.00  41.00   0.50   45.67    --    5.13 -99.00 -60.00  122
  6  \w    -61.00   1.00   0.50   45.67    --    5.13 -38.00-180.00  124
  7  \w    -61.00   9.00   0.50   45.67    --    5.13 -38.00-120.00  140
  8  \w     13.00  57.00   0.50   45.67    --    5.13  57.00-180.00   88
  9  \w    -19.00   7.00   0.50   45.67    --   -5.59 -99.00  30.00   52
 10  \w    -20.00   5.00   0.50   45.67    --   -5.59 -99.00  90.00   50
 11  \w    -18.00  17.00   0.50   45.67    --   -5.59 -99.00-150.00   70
 12  \w    -20.00   9.00   0.50   45.67    --   -5.59 -99.00 -60.00   58
 13  \w    -19.00   6.00   0.50   45.67    --   -5.59 -99.00 -90.00   50
;
_diffrn_measurement_device       'four-circle diffractometer'
_diffrn_measurement_device_type
'SuperNova, Dual, Cu at home/near, Pilatus 200K'
_diffrn_measurement_method       '\w scans'
_diffrn_orient_matrix_type
'CrysAlisPro convention (1999,Acta A55,543-557)'
_diffrn_orient_matrix_UB_11      -0.0335293000
_diffrn_orient_matrix_UB_12      -0.0084449000
_diffrn_orient_matrix_UB_13      0.0739475000
_diffrn_orient_matrix_UB_21      -0.0667062000
_diffrn_orient_matrix_UB_22      -0.0229625000
_diffrn_orient_matrix_UB_23      -0.0169219000
_diffrn_orient_matrix_UB_31      0.0251378000
_diffrn_orient_matrix_UB_32      -0.0772180000
_diffrn_orient_matrix_UB_33      0.0191464000
_diffrn_radiation_monochromator  mirror
_diffrn_radiation_probe          x-ray
_diffrn_radiation_type           MoK\a
_diffrn_radiation_wavelength     0.71073
_diffrn_reflns_av_R_equivalents  0.0455
_diffrn_reflns_av_unetI/netI     0.0337
_diffrn_reflns_Laue_measured_fraction_full 0.997
_diffrn_reflns_Laue_measured_fraction_max 0.807
_diffrn_reflns_limit_h_max       12
_diffrn_reflns_limit_h_min       -12
_diffrn_reflns_limit_k_max       12
_diffrn_reflns_limit_k_min       -12
_diffrn_reflns_limit_l_max       12
_diffrn_reflns_limit_l_min       -12
_diffrn_reflns_number            14692
_diffrn_reflns_point_group_measured_fraction_full 0.997
_diffrn_reflns_point_group_measured_fraction_max 0.807
_diffrn_reflns_theta_full        25.242
_diffrn_reflns_theta_max         31.009
_diffrn_reflns_theta_min         3.277
_diffrn_source                   'micro-focus sealed X-ray tube'
_diffrn_source_type              'SuperNova (Mo) X-ray Source'
_exptl_absorpt_coefficient_mu    0.075
_exptl_absorpt_correction_T_max  1.00000
_exptl_absorpt_correction_T_min  0.65905
_exptl_absorpt_correction_type   multi-scan
_exptl_absorpt_process_details
;
CrysAlisPro 1.171.39.46b (Rigaku Oxford Diffraction, 2018)
Empirical absorption correction using spherical harmonics,
 implemented in SCALE3 ABSPACK scaling algorithm.
;
_exptl_crystal_colour            colourless
_exptl_crystal_colour_primary    colourless
_exptl_crystal_density_diffrn    1.226
_exptl_crystal_description       cube
_exptl_crystal_F_000             296
_exptl_crystal_size_max          0.25
_exptl_crystal_size_mid          0.25
_exptl_crystal_size_min          0.25
_refine_diff_density_max         0.424
_refine_diff_density_min         -0.212
_refine_diff_density_rms         0.054
_refine_ls_extinction_method     none
_refine_ls_goodness_of_fit_ref   1.111
_refine_ls_hydrogen_treatment    constr
_refine_ls_matrix_type           full
_refine_ls_number_parameters     192
_refine_ls_number_reflns         3872
_refine_ls_number_restraints     0
_refine_ls_restrained_S_all      1.111
_refine_ls_R_factor_all          0.0855
_refine_ls_R_factor_gt           0.0650
_refine_ls_shift/su_max          0.000
_refine_ls_shift/su_mean         0.000
_refine_ls_structure_factor_coef Fsqd
_refine_ls_weighting_details
'w=1/[\s^2^(Fo^2^)+(0.1230P)^2^+0.0540P] where P=(Fo^2^+2Fc^2^)/3'
_refine_ls_weighting_scheme      calc
_refine_ls_wR_factor_gt          0.1924
_refine_ls_wR_factor_ref         0.2076
_reflns_Friedel_coverage         0.000
_reflns_number_gt                2810
_reflns_number_total             3872
_reflns_threshold_expression     'I > 2\s(I)'
_cod_data_source_file            ao0c03434_si_003.cif
_cod_data_source_block           pcr-gkd-ipr
_cod_depositor_comments
'Adding full bibliography for 4518035--4518036.cif.'
_cod_database_code               4518035
_shelx_shelxl_version_number     2016/6
_chemical_oxdiff_formula         'C38 H38 N2 O2 '
_shelx_space_group_comment
;
The symmetry employed for this shelxl refinement is uniquely defined
by the following loop, which should always be used as a source of
symmetry information in preference to the above space-group names.
They are only intended as comments.
;
_diffrn_oxdiff_ac3_digest_frames
;
013b89e44bf9c195308d4043b3aebdb53e000253284
;
_diffrn_oxdiff_ac3_digest_hkl
;
01033de693f4ee09ddeb4d1f74ab579f6d785a
;
_reflns_odcompleteness_completeness 99.70
_reflns_odcompleteness_iscentric 1
_reflns_odcompleteness_theta     27.04
_olex2_refinement_description
;
1. Fixed Uiso
 At 1.2 times of:
  All C(H) groups, All C(H,H) groups, All N(H) groups
 At 1.5 times of:
  All C(H,H,H) groups
2.a Ternary CH refined with riding coordinates:
 C008(H008), C00C(H00C), C00I(H00I)
2.b Secondary CH2 refined with riding coordinates:
 C00F(H00A,H00F)
2.c Aromatic/amide H refined with riding coordinates:
 N002(H002), C009(H009), C00B(H00B), C00D(H00D), C00E(H00E), C00G(H00G),
 C00H(H00H), C00J(H00J)
2.d Idealised Me refined as rotating group:
 C00K(H00K,H00L,H00M), C00L(H00N,H00O,H00P)
;
_shelx_res_file
;
TITL pcr-gkd-ipr_a.res in P-1
    pcr-gkd-ipr.res
    created by SHELXL-2016/6 at 22:30:32 on 16-Sep-2019
REM Old TITL PCR-GKD-IPR in P-1
REM SHELXT solution in P-1
REM R1 0.182, Rweak 0.005, Alpha 0.030, Orientation as input
REM Formula found by SHELXT: C19 N O
CELL 0.71073 9.1117 9.1126 9.5279 73.971 81.252 86.515
ZERR 1 0.0004 0.0003 0.0004 0.003 0.004 0.003
LATT 1
SFAC C H N O
UNIT 38 38 2 2

L.S. 20
PLAN  10
BOND $H
list 4
fmap 2
ACTA
OMIT 0 134
REM <olex2.extras>
REM <HklSrc "%.\\PCR-GKD-IPR.hkl">
REM </olex2.extras>

WGHT    0.123000    0.054000
FVAR       0.95177
O001  4    0.104044    0.031830    0.322165    11.00000    0.04575    0.06026 =
         0.06619   -0.02392   -0.00059   -0.01385
N002  3    0.179208    0.082556    0.517902    11.00000    0.03838    0.04359 =
         0.05550   -0.01491    0.00462   -0.00699
AFIX  43
H002  2    0.093945    0.054572    0.567835    11.00000   -1.20000
AFIX   0
C003  1    0.199122    0.080166    0.377090    11.00000    0.03729    0.03143 =
         0.05795   -0.01473   -0.00170   -0.00073
C004  1    0.341821    0.139747    0.286287    11.00000    0.03767    0.03302 =
         0.05367   -0.01579    0.00104    0.00126
C005  1    0.312104    0.396307    0.488725    11.00000    0.03661    0.04259 =
         0.04966   -0.02103   -0.00789   -0.00078
C006  1    0.437610    0.217549    0.339870    11.00000    0.03326    0.03330 =
         0.05254   -0.01410   -0.00139    0.00301
C007  1    0.204507    0.376413    0.612560    11.00000    0.04018    0.05387 =
         0.04922   -0.02427   -0.00647   -0.00021
C008  1    0.394143    0.245451    0.489188    11.00000    0.03323    0.04063 =
         0.05008   -0.01413   -0.00573   -0.00067
AFIX  13
H008  2    0.484632    0.243030    0.533820    11.00000   -1.20000
AFIX   0
C009  1    0.332978    0.537040    0.387460    11.00000    0.05526    0.04367 =
         0.05245   -0.01921   -0.00756   -0.00378
AFIX  43
H009  2    0.405065    0.549372    0.304974    11.00000   -1.20000
AFIX   0
C00A  1    0.606635    0.253269    0.109122    11.00000    0.04203    0.04024 =
         0.05744   -0.01487    0.00619    0.00309
C00B  1    0.569232    0.273612    0.250708    11.00000    0.03597    0.04091 =
         0.05804   -0.01728   -0.00179   -0.00182
AFIX  43
H00B  2    0.633592    0.325671    0.286093    11.00000   -1.20000
AFIX   0
C00C  1    0.286544    0.127540    0.596223    11.00000    0.04340    0.04222 =
         0.04897   -0.00909   -0.00346    0.00095
AFIX  13
H00C  2    0.341137    0.038195    0.648474    11.00000   -1.20000
AFIX   0
C00D  1    0.378337    0.119012    0.145622    11.00000    0.05114    0.04585 =
         0.06358   -0.02770    0.00157   -0.00537
AFIX  43
H00D  2    0.314264    0.066978    0.109885    11.00000   -1.20000
AFIX   0
C00E  1    0.509309    0.175341    0.058783    11.00000    0.05868    0.04880 =
         0.05525   -0.02494    0.00811   -0.00353
AFIX  43
H00E  2    0.532351    0.160624   -0.034924    11.00000   -1.20000
AFIX   0
C00F  1    0.204641    0.213206    0.704397    11.00000    0.05391    0.06188 =
         0.04779   -0.01738    0.00228   -0.00696
AFIX  23
H00A  2    0.104189    0.177025    0.739446    11.00000   -1.20000
H00F  2    0.256984    0.201470    0.788323    11.00000   -1.20000
AFIX   0
C00G  1    0.244315    0.660242    0.410854    11.00000    0.07323    0.04202 =
         0.06707   -0.02215   -0.02302    0.00651
AFIX  43
H00G  2    0.257238    0.755862    0.343601    11.00000   -1.20000
AFIX   0
C00H  1    0.116276    0.500808    0.634535    11.00000    0.04854    0.07313 =
         0.06571   -0.04335   -0.00440    0.00542
AFIX  43
H00H  2    0.043933    0.488969    0.716768    11.00000   -1.20000
AFIX   0
C00I  1    0.750757    0.314091    0.012464    11.00000    0.04820    0.05684 =
         0.05743   -0.01742    0.00827   -0.00245
AFIX  13
H00I  2    0.748109    0.296994   -0.084245    11.00000   -1.20000
AFIX   0
C00J  1    0.137147    0.641338    0.533462    11.00000    0.06025    0.05877 =
         0.08157   -0.04260   -0.02416    0.01763
AFIX  43
H00J  2    0.078449    0.724490    0.547872    11.00000   -1.20000
AFIX   0
C00K  1    0.762357    0.483385   -0.011793    11.00000    0.06650    0.05907 =
         0.07209   -0.01153    0.01341   -0.01320
AFIX 137
H00K  2    0.677368    0.534510   -0.053424    11.00000   -1.50000
H00L  2    0.851043    0.518978   -0.078206    11.00000   -1.50000
H00M  2    0.766067    0.504773    0.080763    11.00000   -1.50000
AFIX   0
C00L  1    0.883103    0.226514    0.071882    11.00000    0.04612    0.09055 =
         0.10147   -0.00149    0.01331    0.00850
AFIX 137
H00N  2    0.884505    0.232911    0.170563    11.00000   -1.50000
H00O  2    0.972289    0.269129    0.010501    11.00000   -1.50000
H00P  2    0.877164    0.121487    0.072586    11.00000   -1.50000
AFIX   0
HKLF 4




REM  pcr-gkd-ipr_a.res in P-1
REM R1 =  0.0650 for    2810 Fo > 4sig(Fo)  and  0.0855 for all    3872 data
REM    192 parameters refined using      0 restraints

END

WGHT      0.1235      0.0540

REM Highest difference peak  0.424,  deepest hole -0.212,  1-sigma level  0.054
Q1    1   0.7893  0.2999  0.0958  11.00000  0.05    0.42
Q2    1   0.5639  0.1715  0.1148  11.00000  0.05    0.38
Q3    1   0.6323  0.2266  0.1879  11.00000  0.05    0.35
Q4    1   0.3455  0.1803  0.5438  11.00000  0.05    0.30
Q5    1   0.3543  0.4719  0.4603  11.00000  0.05    0.29
Q6    1   0.2866  0.4640  0.4209  11.00000  0.05    0.29
Q7    1   0.3977  0.1398  0.3437  11.00000  0.05    0.29
Q8    1   0.1943  0.2928  0.6557  11.00000  0.05    0.27
Q9    1   0.2682  0.1177  0.3358  11.00000  0.05    0.26
Q10   1   0.8647  0.2199 -0.0328  11.00000  0.05    0.26
;
_shelx_res_checksum              81384
_shelx_hkl_file
;
   0   0  -2 1418.06   58.10
   0   0  -2 1523.13   58.16
   0   0   2 1449.74   58.11
   0   0   2 1487.56   58.17
   0   0  -3  943.04   35.05
   0   0   3  939.48   34.96
   0   0  -3  918.16   34.96
   0   0   3  900.06   35.05
   0   0  -4    3.34    0.47
   0   0  -4    3.72    0.40
   0   0   5  107.99    4.07
   0   0  -5   96.98    3.90
   0   0  -5   95.92    3.90
   0   0  -5   95.78    4.09
   0   0  -5   99.06    3.99
   0   0   6   43.55    1.92
   0   0  -6   36.09    1.70
   0   0  -6   40.78    1.87
   0   0  -6   44.00    1.78
   0   0  -6   34.90    1.92
   0   0   7    6.66    0.92
   0   0  -7    8.29    0.86
   0   0  -7    7.93    0.62
   0   0   7    6.91    0.50
   0   0   7    9.50    0.87
   0   0  -7    7.21    0.60
   0   0  -7    7.82    0.74
   0   0  -8   67.57    2.76
   0   0   8   59.04    2.93
   0   0  -8   58.55    2.78
   0   0   8   71.26    2.89
   0   0   8   51.19    2.38
   0   0  -9   25.11    1.62
   0   0   9   26.99    1.75
   0   0  -9   28.09    1.60
   0   0   9   21.09    1.11
   0   0 -10   17.81    1.53
   0   0  10   23.65    1.73
   0   0 -10   20.48    1.50
   0   0 -11    0.58    1.01
   0   0  11    0.56    1.15
   0   1 -11    7.19    0.78
   0  -1  11    7.67    1.21
   0   1 -11    6.65    1.27
   0   1 -10    1.84    0.61
   0   1 -10    1.92    0.60
   0  -1  10    1.23    0.88
   0  -1  10    1.39    0.92
   0   1  -9   13.26    1.19
   0   1  -9   15.80    1.22
   0  -1   9   17.51    1.41
   0   1  -9   14.07    1.04
   0   1  -9   14.85    1.03
   0  -1   8  101.83    4.32
   0   1  -8   97.52    4.34
   0   1  -8   92.05    4.19
   0  -1   8   92.17    4.47
   0   1  -8  106.88    4.36
   0   1  -7   15.91    1.06
   0  -1   7   17.61    0.94
   0   1  -7   16.86    1.17
   0  -1   7   20.23    1.10
   0   1  -6    1.92    0.53
   0  -1   6    2.11    0.56
   0  -1   6    2.32    0.45
   0   1  -6    2.11    0.45
   0  -1   6    2.29    0.38
   0   1  -5   89.04    3.96
   0   1  -5  115.82    4.02
   0  -1   5  112.15    4.05
   0  -1   5  102.13    3.94
   0  -1   5   81.45    4.00
   0  -1   5   86.14    3.84
   0   1  -5  105.80    3.94
   0  -1   4  141.03    5.22
   0  -1   4  122.94    5.10
   0   1  -4  134.53    5.22
   0  -1   4  133.23    5.24
   0  -1   4  132.07    5.15
   0  -1   3    1.83    0.27
   0  -1   3    2.13    0.25
   0   1  -3    1.31    0.18
   0   1  -3    1.61    0.30
   0   1  -3    1.68    0.18
   0   1  -2   38.54    1.54
   0   1  -2   36.88    1.61
   0  -1   2   34.70    1.53
   0   1  -2   44.71    1.58
   0   1  -2   38.39    1.52
   0  -1   2   32.13    1.51
   0  -1   2   40.17    1.55
   0  -1   2   43.12    1.57
   0  -1   2   39.90    1.57
   0   1  -2   34.25    1.52
   0   1  -1  602.14   23.36
   0  -1   1  575.20   23.36
   0  -1   1  647.36   23.37
   0   1  -1  583.29   23.37
   0  -1   1  634.02   23.37
   0  -1   1  616.83   23.35
   0   1  -1  675.28   23.35
   0   1  -1  612.60   23.37
   0   1   2 4430.87  168.55
   0   1   2 4335.75  168.56
   0  -1  -2 4999.23  168.57
   0  -1  -2 4374.44  168.55
   0   1   2 4329.94  168.60
   0  -1  -2 4359.49  168.65
   0  -1  -3  107.20    4.24
   0   1   3  100.17    4.14
   0   1   3  109.24    4.05
   0  -1  -3  101.78    4.18
   0  -1  -4  412.36   19.01
   0  -1  -4  455.67   19.01
   0   1   4  639.41   19.22
   0  -1  -4  572.06   19.24
   0  -1  -4  526.68   19.30
   0   1   4  675.96   19.10
   0   1   4  588.32   19.40
   0  -1  -5  497.70   18.09
   0  -1  -5  453.68   18.29
   0  -1  -5  460.79   18.37
   0  -1  -5  472.21   18.08
   0  -1  -6   62.40    2.69
   0  -1  -6   67.61    2.43
   0  -1  -6   54.84    2.41
   0  -1  -6   56.61    2.77
   0   1   7   13.15    1.15
   0  -1  -7   12.96    0.99
   0  -1  -7   12.38    1.06
   0  -1  -8    0.15    0.63
   0   1   8    0.05    0.79
   0   1   8   -0.51    0.70
   0  -1  -8   -0.43    0.75
   0  -1  -9   18.92    1.53
   0  -1  -9   21.37    1.49
   0   1   9   25.45    1.59
   0   1   9   21.19    1.79
   0  -1 -10    1.79    0.90
   0   1  10    1.43    0.90
   0   1  10    1.63    1.00
   0   1  10    0.83    0.35
   0  -1 -10    0.98    0.86
   0  -1 -11   -0.39    0.97
   0  -1 -11    0.51    0.95
   0   2 -11    2.86    1.17
   0   2 -11   -0.03    0.65
   0  -2  11    1.43    0.98
   0   2 -10   -0.54    0.66
   0  -2  10   -0.26    0.83
   0   2 -10    0.07    0.65
   0   2 -10    0.53    0.94
   0   2  -9    2.03    0.77
   0   2  -9    2.22    0.69
   0  -2   9   -0.33    0.90
   0   2  -9    1.79    0.74
   0   2  -8   16.78    1.26
   0  -2   8   16.18    1.38
   0   2  -8   17.98    1.24
   0   2  -8   22.28    1.26
   0   2  -8   22.20    1.27
   0  -2   8   23.47    1.46
   0  -2   8   20.44    1.33
   0  -2   7   17.91    1.14
   0   2  -7   16.57    1.16
   0   2  -7   17.87    1.07
   0   2  -7   14.61    1.05
   0  -2   6   92.40    4.11
   0  -2   6  108.80    4.17
   0   2  -6   92.07    4.05
   0   2  -6  106.40    4.09
   0   2  -5   -0.13    0.34
   0  -2   5    0.65    0.41
   0  -2   5    0.29    0.35
   0  -2   4    0.29    0.32
   0   2  -4   -0.01    0.23
   0   2  -4    0.04    0.23
   0   2  -4   -0.21    0.28
   0  -2   4   -0.12    0.32
   0  -2   3  287.28   11.88
   0   2  -3  335.96   12.09
   0   2  -3  349.46   11.98
   0   2  -3  317.29   11.92
   0  -2   3  341.68   11.97
   0   2  -3  276.23   11.85
   0  -2   3  333.87   11.99
   0   2  -3  289.13   11.90
   0  -2   3  348.00   11.94
   0   2  -2   12.35    0.53
   0   2  -2   12.26    0.78
   0   2  -2   12.86    0.64
   0   2  -2   11.08    0.65
   0   2  -2   13.05    0.68
   0  -2   2   12.38    0.63
   0  -2   2   13.09    0.69
   0   2  -2   11.31    0.67
   0  -2   1   28.96    1.22
   0   2  -1   27.31    1.21
   0  -2   1   25.75    1.20
   0   2  -1   25.48    1.19
   0  -2   1   28.22    1.15
   0   2  -1   25.22    1.18
   0   2  -1   25.07    1.11
   0  -2   0  415.82   15.80
   0  -2   0  426.39   15.80
   0  -2   0  397.66   15.68
   0   2   0  402.81   15.68
   0   2   0  454.84   15.73
   0   2   1 3346.03  113.74
   0  -2  -1 2916.13  113.72
   0  -2  -1 2880.86  113.76
   0  -2  -1 2977.19  113.72
   0  -2  -1 3046.46  113.78
   0   2   1 2932.64  113.74
   0  -2  -1 3037.87  113.65
   0  -2  -2   20.08    0.97
   0   2   2   17.97    0.99
   0  -2  -2   21.03    1.00
   0   2   2   19.54    0.98
   0   2   2   16.86    0.95
   0  -2  -2   23.99    0.95
   0  -2  -2   20.73    0.96
   0  -2  -3    5.96    0.46
   0  -2  -3    7.90    0.58
   0   2   3    8.32    0.55
   0   2   4  827.34   30.69
   0  -2  -4  828.83   30.68
   0   2   4  784.24   30.56
   0   2   4  788.53   30.56
   0   2   4  895.03   30.82
   0   2   5  829.81   32.77
   0   2   5  946.17   32.78
   0   2   5  813.99   32.69
   0  -2  -5  845.95   32.97
   0  -2  -5  878.51   33.04
   0  -2  -6    0.61    0.52
   0   2   6    1.34    0.68
   0  -2  -6    0.60    0.50
   0   2   6    1.06    0.43
   0  -2  -7   24.43    1.53
   0  -2  -7   23.56    1.42
   0  -2  -8    7.63    1.03
   0  -2  -8    9.86    0.99
   0   2   8   10.39    1.22
   0  -2  -9    2.40    0.86
   0  -2  -9    1.07    0.83
   0   2   9    1.88    1.09
   0  -2 -10    0.47    0.86
   0  -2 -10    0.55    0.87
   0   2  10   -0.21    1.06
   0  -2 -10   -0.45    0.84
   0   2  10    1.56    0.87
   0   2  11    1.47    0.30
   0  -2 -11    4.01    1.07
   0  -2 -11    2.52    1.01
   0   2  11    2.50    1.01
   0  -2 -12    0.26    1.06
   0   2  12    3.24    1.13
   0   3 -11   -0.21    0.78
   0   3 -11    1.55    1.17
   0   3 -10   -0.70    0.81
   0   3 -10    0.08    0.70
   0  -3  10    0.47    0.86
   0   3 -10    0.36    1.01
   0   3  -9    2.29    0.82
   0   3  -9    1.40    0.77
   0  -3   9    0.98    0.83
   0  -3   8    8.15    0.99
   0   3  -8    6.41    0.81
   0   3  -8    6.17    0.96
   0  -3   7    7.98    0.90
   0   3  -7    8.38    1.05
   0  -3   7   10.26    0.93
   0   3  -7   11.99    0.87
   0  -3   6    4.70    0.68
   0  -3   6    4.97    0.68
   0   3  -6    4.50    0.81
   0   3  -5   17.34    1.20
   0  -3   5   16.91    1.06
   0   3  -4   43.91    2.04
   0   3  -4   45.45    1.98
   0   3  -4   47.92    2.01
   0  -3   4   47.10    2.11
   0  -3   3  491.80   17.09
   0   3  -3  462.75   17.01
   0   3  -3  435.86   17.04
   0   3  -3  447.01   17.05
   0   3  -3  402.00   17.02
   0   3  -2   28.13    1.23
   0   3  -2   29.21    1.35
   0   3  -2   26.28    1.31
   0   3  -2   24.08    1.28
   0   3  -1  464.75   17.28
   0  -3   1  469.87   17.27
   0   3  -1  443.50   17.25
   0   3  -1  423.43   17.12
   0   3  -1  461.89   17.28
   0  -3   1  474.53   17.27
   0  -3   0  343.00   12.22
   0  -3   0  334.69   12.22
   0   3   0  299.15   12.03
   0   3   0  318.65   12.07
   0  -3  -1  242.47    9.36
   0   3   1  264.36    9.30
   0  -3  -1  247.80    9.38
   0  -3  -1  216.30    9.25
   0   3   1  244.89    9.28
   0  -3  -2   49.34    2.10
   0  -3  -2   45.70    2.09
   0   3   2   48.88    2.12
   0  -3  -2   43.30    2.08
   0   3   2   48.40    2.12
   0   3   2   48.61    2.01
   0   3   2   49.87    2.12
   0  -3  -2   50.96    2.05
   0   3   3    5.65    0.54
   0  -3  -3    6.79    0.51
   0   3   3    6.60    0.55
   0   3   3    6.02    0.57
   0  -3  -3    6.56    0.53
   0  -3  -3    6.30    0.59
   0   3   3    5.50    0.35
   0  -3  -4   12.06    0.90
   0   3   4   14.56    0.86
   0  -3  -4   10.99    0.76
   0   3   5   64.16    2.70
   0   3   5   66.23    2.71
   0   3   5   72.78    2.95
   0  -3  -5   82.10    3.21
   0  -3  -5   77.96    2.94
   0   3   5   95.79    3.04
   0   3   5   83.94    3.09
   0   3   6   70.07    2.57
   0  -3  -6   73.04    2.95
   0   3   6   76.87    2.61
   0  -3  -6   76.29    2.90
   0   3   6   82.16    2.83
   0  -3  -7   27.73    1.70
   0  -3  -7   32.73    1.83
   0   3   7   32.24    1.99
   0   3   7   29.45    1.59
   0  -3  -8    1.87    0.80
   0  -3  -8    1.02    0.77
   0  -3  -9   24.93    1.77
   0  -3  -9   24.35    1.73
   0   3   9   28.94    2.07
   0  -3 -10    0.82    0.81
   0  -3 -10    1.53    0.95
   0  -3 -10   -0.75    0.93
   0   3  10    0.53    1.06
   0  -3 -11   -0.25    0.92
   0   3  11    0.40    0.93
   0  -3 -11    0.69    0.98
   0  -3 -12    3.84    1.19
   0  -3 -12    3.32    1.22
   0   3  12    4.75    1.24
   0   4 -11    3.83    1.08
   0   4 -10    1.64    0.96
   0  -4  10   -0.11    0.90
   0  -4   9   15.32    1.33
   0   4  -9   13.90    1.28
   0   4  -9   12.07    1.34
   0   4  -9   10.88    1.25
   0  -4   8    3.12    0.91
   0   4  -8    6.86    1.09
   0  -4   7   20.07    1.44
   0  -4   7   21.29    1.39
   0   4  -7   21.26    1.56
   0  -4   6   12.60    0.98
   0   4  -6   11.25    1.16
   0   4  -5   69.36    2.90
   0   4  -5   53.18    2.46
   0  -4   5   53.78    2.54
   0   4  -5   58.09    2.46
   0   4  -4    9.68    0.75
   0  -4   4    7.51    0.70
   0   4  -4    9.49    0.67
   0   4  -4    6.70    0.66
   0   4  -4    8.73    0.72
   0   4  -3   32.62    1.59
   0   4  -3   32.99    1.61
   0  -4   3   31.15    1.59
   0  -4   3   29.44    1.54
   0   4  -3   34.53    1.50
   0   4  -3   29.67    1.57
   0   4  -3   32.32    1.77
   0   4  -2  189.48    7.10
   0   4  -2  178.35    6.90
   0   4  -2  167.66    7.04
   0   4  -2  174.57    7.04
   0   4  -1  543.20   22.00
   0   4  -1  582.60   22.19
   0   4  -1  620.79   22.22
   0  -4   1  588.70   22.21
   0   4  -1  610.41   22.25
   0  -4   0   56.12    2.26
   0   4   0   54.27    2.28
   0   4   0   57.35    2.36
   0  -4   0   60.59    2.55
   0  -4   0   58.79    2.52
   0   4   1   21.57    1.09
   0  -4  -1   21.92    1.25
   0   4   1   21.52    1.11
   0  -4  -1   22.58    1.23
   0   4   2    0.34    0.45
   0  -4  -2    0.40    0.43
   0  -4  -2    0.27    0.24
   0  -4  -2    0.57    0.49
   0   4   2    0.48    0.32
   0   4   3  998.86   34.03
   0   4   3  871.47   33.96
   0   4   3  876.35   33.95
   0  -4  -3  852.62   33.64
   0  -4  -3  979.12   33.97
   0  -4  -3  947.51   33.95
   0  -4  -4    5.42    0.47
   0  -4  -4    8.38    0.68
   0   4   4    7.95    0.75
   0   4   4    6.60    0.40
   0  -4  -4    7.72    0.75
   0   4   5    2.86    0.53
   0   4   5    1.75    0.52
   0  -4  -5    1.56    0.61
   0   4   5    2.57    0.56
   0  -4  -5    2.30    0.51
   0   4   6   12.78    1.19
   0   4   6   10.06    0.90
   0   4   6   10.84    0.55
   0  -4  -6   10.07    1.04
   0   4   6   14.46    0.56
   0   4   6   11.53    0.88
   0   4   6   11.88    0.95
   0   4   7    7.15    0.70
   0   4   7    5.61    0.81
   0   4   7    6.55    0.70
   0  -4  -7    6.52    0.94
   0   4   7    7.58    1.09
   0   4   8    9.92    1.35
   0  -4  -8   10.32    1.18
   0  -4  -9   25.46    1.83
   0  -4 -10    3.87    1.03
   0  -4 -11    0.60    0.98
   0  -4 -12    0.28    1.10
   0   5 -10    0.34    1.01
   0  -5   9    1.52    0.89
   0   5  -9    1.14    1.00
   0  -5   8   27.51    1.76
   0   5  -7   36.61    2.22
   0  -5   7   36.21    2.03
   0  -5   6    7.56    0.91
   0   5  -6    8.43    1.16
   0   5  -5   79.04    3.38
   0   5  -5   95.42    3.83
   0   5  -5   76.80    3.36
   0  -5   5   75.37    3.43
   0   5  -5   73.19    3.32
   0  -5   4    0.48    0.53
   0   5  -4   -0.03    0.50
   0   5  -4   -0.19    0.59
   0   5  -4   -0.03    0.56
   0   5  -4    0.18    0.44
   0   5  -3   26.80    1.50
   0   5  -3   26.27    1.30
   0   5  -3   27.52    1.68
   0   5  -3   26.77    1.48
   0   5  -3   26.27    1.37
   0  -5   3   24.20    1.34
   0  -5   3   23.69    1.45
   0   5  -3   24.31    1.44
   0  -5   2   59.26    2.62
   0   5  -2   61.63    2.79
   0   5  -2   60.77    2.82
   0  -5   2   66.38    2.85
   0   5  -2   56.92    2.76
   0   5  -2   62.38    2.57
   0   5  -1    6.48    0.74
   0   5  -1    6.83    0.78
   0   5  -1    5.46    0.70
   0   5  -1    6.91    0.54
   0  -5   0   71.68    2.98
   0   5   0   72.11    2.75
   0   5   0   62.40    2.62
   0  -5   0   61.83    2.59
   0  -5  -1  142.26    5.46
   0  -5  -1  135.12    5.67
   0   5   1  133.94    5.54
   0   5   1  139.97    5.50
   0   5   2    0.89    0.50
   0  -5  -2    1.57    0.44
   0  -5  -2    0.84    0.51
   0  -5  -2    1.00    0.22
   0   5   2    1.38    0.38
   0  -5  -3   57.28    2.66
   0   5   3   59.44    2.50
   0   5   3   55.20    2.64
   0  -5  -3   59.00    2.40
   0  -5  -4    6.39    0.40
   0   5   4    8.63    0.83
   0  -5  -4    6.89    0.75
   0  -5  -4    8.40    0.62
   0   5   4    7.69    0.87
   0   5   5   55.32    2.63
   0  -5  -5   44.87    2.33
   0  -5  -5   55.64    2.17
   0  -5  -5   46.47    2.47
   0  -5  -5   49.22    2.37
   0   5   5   54.00    2.48
   0  -5  -5   50.79    2.31
   0   5   6    9.16    1.09
   0  -5  -6    5.39    0.67
   0  -5  -6    9.60    0.84
   0  -5  -6   10.24    1.05
   0   5   6    9.94    0.97
   0  -5  -6    8.54    0.82
   0   5   7    5.29    0.33
   0  -5  -7    6.68    0.81
   0  -5  -7    5.85    0.77
   0   5   7    5.41    0.84
   0  -5  -7    5.91    0.97
   0   5   7    5.06    0.33
   0   5   7    5.87    1.10
   0  -5  -8   28.86    1.98
   0   5   8   32.05    1.88
   0   5   8   35.66    2.27
   0  -5  -8   30.05    1.83
   0  -5  -8   34.89    1.79
   0  -5  -9    4.77    0.97
   0  -5  -9    4.69    1.02
   0   5   9    5.08    1.22
   0  -5 -10    5.33    1.05
   0  -5 -10    5.89    0.99
   0  -5 -10    3.64    1.07
   0  -5 -11    1.52    0.92
   0  -5 -11    1.05    0.96
   0  -5 -11    1.65    1.06
   0  -5 -12    1.22    1.09
   0  -5 -12    0.51    1.10
   0  -6   9    0.30    1.05
   0  -6   8   18.92    1.56
   0  -6   7   23.73    1.60
   0  -6   6    2.00    0.71
   0   6  -6    2.93    1.13
   0   6  -5   18.61    1.23
   0   6  -5   16.31    1.25
   0  -6   5   16.48    1.24
   0   6  -5   20.85    1.70
   0   6  -4    0.94    0.57
   0   6  -4    1.15    0.63
   0   6  -4    0.64    0.57
   0  -6   4   -0.03    0.53
   0   6  -4    1.02    0.72
   0   6  -4    0.22    0.68
   0   6  -3  253.31    9.61
   0   6  -3  243.40    9.55
   0   6  -3  234.39    9.32
   0   6  -3  236.10    9.53
   0   6  -3  229.09    9.45
   0   6  -3  252.79    9.77
   0  -6   3  234.01    9.40
   0   6  -2   58.08    2.75
   0   6  -2   50.21    2.54
   0  -6   2   55.38    2.58
   0   6  -2   52.12    2.27
   0   6  -2   48.86    2.58
   0   6  -2   51.00    2.55
   0   6  -2   48.05    2.39
   0   6  -1   34.26    1.71
   0   6  -1   36.46    1.42
   0   6  -1   36.74    1.72
   0   6  -1   37.68    1.80
   0   6  -1   39.87    1.88
   0   6   0   11.67    0.79
   0  -6   0   13.16    1.07
   0   6   0   10.37    1.02
   0   6   0   10.14    1.03
   0   6   0   11.26    0.99
   0   6   1  100.42    4.11
   0   6   1   96.34    4.06
   0   6   1  111.49    3.91
   0   6   1  101.98    4.38
   0   6   1   86.31    4.15
   0  -6  -1  100.00    4.36
   0  -6  -1   91.83    4.01
   0  -6  -2   54.43    2.48
   0  -6  -2   47.37    2.20
   0   6   2   46.87    2.25
   0   6   2   48.93    2.26
   0   6   3   49.87    2.40
   0  -6  -3   48.61    2.43
   0  -6  -3   49.25    2.07
   0   6   3   48.88    2.46
   0   6   3   50.13    2.25
   0   6   3   48.83    2.45
   0  -6  -3   49.82    2.33
   0  -6  -4   13.22    1.00
   0   6   4   11.66    1.11
   0   6   4   12.12    1.04
   0  -6  -4   10.33    0.99
   0  -6  -4   12.61    0.77
   0  -6  -4   11.38    1.02
   0   6   5  172.19    6.16
   0   6   5  163.36    6.00
   0  -6  -5  144.15    5.87
   0  -6  -5  170.42    5.75
   0   6   5  173.83    6.04
   0   6   5  156.85    5.54
   0  -6  -5  172.94    5.92
   0   6   5  167.70    6.03
   0  -6  -6   39.94    2.02
   0   6   6   44.65    2.40
   0  -6  -6   47.98    2.38
   0   6   6   50.67    2.46
   0   6   6   49.57    2.66
   0  -6  -6   55.46    2.31
   0  -6  -6   54.46    2.43
   0   6   6   50.17    2.47
   0  -6  -7    0.05    0.80
   0   6   7    0.14    0.76
   0   6   7    0.84    0.77
   0  -6  -7   -0.33    0.63
   0   6   7    1.18    1.01
   0  -6  -7    0.19    0.66
   0  -6  -7    0.36    0.45
   0   6   7    0.63    0.71
   0  -6  -8    0.91    0.76
   0  -6  -8    2.13    0.75
   0   6   8    0.83    0.83
   0   6   8    0.62    0.74
   0   6   8    0.79    1.04
   0  -6  -8    0.86    0.91
   0   6   8    1.01    0.74
   0  -6  -9    0.97    0.81
   0  -6  -9    1.18    0.69
   0   6   9    1.05    0.86
   0  -6  -9    2.67    0.98
   0  -6  -9    1.13    0.83
   0  -6 -10    3.05    1.00
   0  -6 -10    2.26    1.07
   0  -6 -10    3.15    0.85
   0  -6 -11    1.92    0.86
   0  -6 -11    1.28    1.06
   0  -6 -11    2.70    0.98
   0  -7   8    0.45    1.01
   0  -7   7   11.67    1.26
   0  -7   6    0.66    0.74
   0  -7   5    0.17    0.67
   0   7  -4   12.97    1.00
   0   7  -4   12.20    1.04
   0   7  -4   12.46    1.19
   0   7  -4   10.29    1.11
   0  -7   4    9.20    0.99
   0   7  -4   12.20    1.12
   0   7  -3    9.33    1.10
   0   7  -3    9.39    1.08
   0   7  -3    9.94    1.10
   0   7  -3   10.37    1.29
   0   7  -3   10.97    0.89
   0   7  -3    8.23    0.90
   0   7  -2   54.20    2.67
   0   7  -2   43.55    2.42
   0   7  -2   48.41    2.63
   0   7  -2   53.23    2.31
   0   7  -2   55.22    2.82
   0  -7   2   51.46    2.65
   0   7  -2   53.27    2.66
   0   7  -1   14.80    1.39
   0   7  -1   14.57    1.29
   0   7  -1   13.51    1.26
   0   7  -1   14.67    0.96
   0   7  -1   12.81    1.22
   0   7   0   70.54    3.35
   0  -7   0   71.57    3.38
   0   7   0   72.57    3.41
   0   7   0   67.93    3.05
   0   7   0   69.27    3.40
   0   7   0   73.60    3.40
   0  -7  -1  166.06    6.38
   0   7   1  170.50    6.77
   0   7   1  166.50    6.45
   0   7   1  189.81    6.89
   0   7   1  148.42    6.22
   0  -7  -1  178.27    6.84
   0   7   1  166.77    6.47
   0   7   1  170.11    6.83
   0   7   1  156.05    6.58
   0   7   2   33.37    1.93
   0   7   2   29.58    1.86
   0  -7  -2   30.43    1.89
   0   7   2   30.42    1.63
   0  -7  -2   29.98    1.55
   0   7   2   32.86    1.69
   0   7   3   -0.04    0.66
   0  -7  -3    0.12    0.29
   0   7   3   -0.55    0.78
   0  -7  -3   -0.19    0.56
   0  -7  -3   -0.05    0.67
   0   7   3   -0.29    0.51
   0   7   3   -0.67    0.71
   0   7   4    3.27    0.86
   0  -7  -4    2.69    0.71
   0  -7  -4    2.70    0.80
   0   7   4    1.76    0.78
   0   7   4    3.03    0.86
   0  -7  -4    3.23    0.45
   0  -7  -5    7.93    0.77
   0   7   5    7.62    0.66
   0   7   5    7.79    1.10
   0  -7  -5    6.55    0.92
   0   7   5    7.99    1.11
   0  -7  -5    6.54    0.95
   0   7   5    8.36    1.05
   0  -7  -5    5.55    0.94
   0   7   6   80.31    3.19
   0   7   6   66.04    3.10
   0  -7  -6   78.15    3.02
   0  -7  -6   74.13    2.82
   0   7   6   79.92    3.34
   0   7   6   74.58    3.16
   0   7   7    1.74    0.88
   0   7   7    3.25    1.10
   0   7   7    1.34    0.86
   0  -7  -7    1.98    0.45
   0   7   7    2.76    0.92
   0  -7  -7    3.39    0.89
   0  -7  -7    2.51    0.72
   0  -7  -8    3.06    0.99
   0  -7  -8    4.02    0.63
   0  -7  -8    3.75    0.85
   0   7   8    3.84    0.98
   0   7   8    5.39    1.00
   0   7   8    3.83    1.28
   0   7   8    4.01    0.95
   0  -7  -8    4.65    0.98
   0  -7  -9    6.09    1.01
   0  -7  -9    5.80    1.23
   0   7   9    9.88    1.23
   0  -7  -9    6.46    1.07
   0  -7  -9    6.17    0.80
   0   7   9    8.25    1.06
   0   7   9    8.38    1.09
   0  -7 -10    0.75    0.77
   0  -7 -10    3.97    1.06
   0   7  10    2.99    0.98
   0  -7 -10    1.45    1.09
   0  -7 -11   -0.22    1.12
   0  -7 -11    0.54    1.01
   0  -8   8    3.57    1.22
   0  -8   7   -0.05    1.00
   0  -8   6    2.79    0.97
   0   8  -5    2.11    0.73
   0  -8   5    0.46    0.76
   0   8  -4    0.50    0.64
   0   8  -4    0.74    0.91
   0   8  -4    0.26    0.73
   0   8  -3   16.18    1.26
   0   8  -3   16.43    1.44
   0   8  -3   16.35    1.44
   0   8  -3   18.46    1.49
   0   8  -2    1.71    0.68
   0   8  -2    2.04    0.61
   0   8  -2    1.77    0.88
   0   8  -2    2.45    0.89
   0   8  -2    2.30    1.00
   0   8  -2    1.90    1.03
   0   8  -1    2.30    1.05
   0  -8   1    1.87    0.94
   0   8  -1    2.24    0.89
   0   8  -1    1.41    0.91
   0   8  -1    1.54    0.54
   0   8  -1    0.68    0.85
   0   8   0   61.97    3.14
   0   8   0   60.11    3.15
   0   8   0   61.17    3.12
   0   8   0   66.45    3.18
   0   8   0   57.77    2.72
   0   8   1   75.12    3.47
   0   8   1   67.13    3.41
   0   8   1   69.77    3.46
   0   8   1   60.40    3.13
   0   8   1   72.83    3.41
   0   8   1   70.59    3.05
   0  -8  -1   68.88    3.37
   0   8   2    7.03    0.86
   0   8   2    7.54    0.94
   0   8   2    5.57    0.77
   0   8   2    8.20    1.11
   0  -8  -2    6.40    0.77
   0  -8  -2    8.43    1.09
   0   8   2    7.71    1.12
   0   8   2    7.45    1.14
   0   8   3    4.39    1.10
   0   8   3    6.98    1.01
   0  -8  -3    4.76    0.77
   0  -8  -3    5.33    1.00
   0   8   3    4.86    0.83
   0   8   3    3.85    1.01
   0   8   3    5.02    0.79
   0   8   4   20.02    1.37
   0   8   4   21.15    1.29
   0  -8  -4   18.24    1.46
   0  -8  -4   19.12    1.34
   0   8   4   19.57    1.60
   0   8   4   19.57    1.46
   0  -8  -4   18.48    1.00
   0   8   5   80.99    3.59
   0  -8  -5   70.96    3.35
   0   8   5   71.94    3.57
   0  -8  -5   72.65    3.06
   0  -8  -5   66.64    3.41
   0   8   5   67.27    3.47
   0   8   5   73.45    3.27
   0  -8  -6   11.66    0.95
   0   8   6   13.62    1.33
   0   8   6   12.48    1.40
   0   8   6   13.64    1.44
   0   8   6   10.66    1.38
   0  -8  -6   13.45    1.29
   0  -8  -7    1.05    0.83
   0   8   7    0.91    0.98
   0   8   7    1.48    0.95
   0  -8  -7    0.45    0.70
   0   8   7    2.21    0.97
   0  -8  -7    0.11    0.89
   0   8   7    0.78    1.10
   0   8   8    0.90    0.87
   0   8   8    1.85    0.96
   0  -8  -8   -1.27    0.93
   0  -8  -8    0.63    0.71
   0   8   8    1.26    0.93
   0  -8  -8    1.01    0.38
   0   8   9    0.30    0.88
   0  -8  -9    0.50    0.81
   0   8   9   -0.85    1.00
   0   8   9    0.06    0.90
   0  -8  -9    0.29    0.51
   0  -8 -10    1.54    1.19
   0   8  10    3.66    1.13
   0  -8 -10    3.56    1.05
   0  -8 -11    1.52    1.05
   0   9  -4    1.17    0.80
   0   9  -3    6.62    0.98
   0   9  -3    6.86    1.13
   0   9  -3    5.23    1.16
   0   9  -2    6.35    1.15
   0   9  -2    6.55    1.17
   0   9  -2    7.11    1.18
   0   9  -2    6.83    0.97
   0   9  -1   -0.41    0.91
   0   9  -1    0.58    0.94
   0   9  -1   -1.16    0.78
   0   9  -1   -0.31    0.96
   0   9   0   -0.46    0.98
   0   9   0    1.06    1.04
   0   9   0    0.14    0.95
   0   9   0    0.98    0.81
   0   9   0    0.26    1.00
   0   9   1    9.51    0.90
   0   9   1    6.09    0.93
   0   9   1    9.52    1.26
   0  -9  -1    8.07    1.20
   0   9   1    7.04    1.16
   0   9   1    8.14    1.25
   0   9   1    9.15    1.25
   0  -9  -2   25.00    1.92
   0   9   2   31.07    1.99
   0   9   2   27.51    1.98
   0   9   2   27.71    1.57
   0   9   2   27.70    1.77
   0   9   2   28.53    2.04
   0   9   2   32.22    2.10
   0   9   3   28.44    1.95
   0  -9  -3   26.61    1.54
   0  -9  -3   23.97    1.85
   0   9   3   21.31    1.47
   0   9   3   27.80    2.00
   0   9   3   25.37    1.59
   0   9   3   28.77    1.81
   0   9   4   37.42    1.94
   0  -9  -4   35.01    2.20
   0   9   4   35.55    2.07
   0  -9  -4   33.30    1.95
   0   9   4   35.92    2.33
   0   9   4   36.04    2.06
   0   9   4   36.79    2.31
   0  -9  -5    2.00    0.51
   0   9   5    0.95    0.97
   0  -9  -5    2.22    0.85
   0   9   5    2.91    1.03
   0  -9  -6  148.83    6.53
   0   9   6  142.77    6.69
   0   9   6  169.77    6.82
   0  -9  -6  156.99    6.21
   0   9   6  155.13    6.74
   0   9   6  154.82    6.71
   0   9   7    0.19    0.97
   0  -9  -7   -0.06    0.88
   0   9   7    1.00    1.15
   0   9   7   -0.51    1.07
   0   9   7    0.64    0.96
   0  -9  -7    0.82    0.61
   0  -9  -8    2.30    0.76
   0   9   8    4.03    1.18
   0  -9  -8    3.70    1.10
   0   9   8    1.61    1.06
   0   9   8    3.04    1.04
   0  -9  -8    1.66    0.99
   0  -9  -9    0.46    0.84
   0   9   9    1.52    1.04
   0  -9  -9    2.10    1.03
   0   9   9    2.62    1.10
   0  -9 -10    1.66    0.99
   0  -9 -10    3.32    1.20
   0  -9 -11    2.73    1.09
   0  10  -3    1.43    0.92
   0  10  -3    0.83    1.14
   0  10  -3    1.92    1.04
   0  10  -2    1.04    1.06
   0  10  -2    0.38    1.06
   0  10  -2    0.44    0.80
   0  10  -1    1.82    1.11
   0  10  -1    1.81    1.04
   0  10  -1    3.37    0.95
   0  10   0   -0.29    0.83
   0  10   0    1.50    1.05
   0  10   0    0.87    1.04
   0  10   1    0.24    0.98
   0  10   1   -0.53    0.80
   0  10   1    1.62    1.09
   0  10   2   -0.26    0.80
   0  10   2    0.16    1.00
   0  10   2    0.32    1.00
   0  10   2    0.90    1.04
   0  10   3    4.88    0.85
   0  10   3    3.68    1.17
   0  10   3    4.77    1.10
   0  10   3    4.16    1.16
   0  10   4    1.29    0.71
   0 -10  -4    0.12    0.76
   0  10   4   -0.21    1.03
   0  10   4    0.98    1.06
   0 -10  -5   32.15    1.97
   0  10   5   37.13    2.32
   0 -10  -6   26.57    1.43
   0  10   6   31.10    2.12
   0 -10  -6   28.35    1.87
   0  10   6   31.38    2.17
   0  10   7   23.29    1.84
   0 -10  -7   19.42    1.27
   0  10   7   20.00    1.84
   0 -10  -7   20.42    1.65
   0 -10  -8    3.89    0.81
   0  10   8    3.30    1.17
   0  10   8    3.26    1.26
   0 -10  -8    3.06    1.17
   0 -10  -9    1.05    0.79
   0  10   9    2.52    1.24
   0 -10  -9    2.65    1.15
   0 -10 -10    1.93    0.92
   0 -10 -11    0.73    0.95
   0  11  -2    0.62    1.21
   0  11  -1   -0.55    1.20
   0  11  -1    0.66    1.14
   0  11   0    3.24    1.28
   0  11   0    1.43    1.18
   0  11   1   -0.40    1.12
   0  11   1    0.35    1.15
   0  11   2   -1.24    1.21
   0  11   2    0.79    1.13
   0  11   3    0.53    1.15
   0  11   3    1.13    1.15
   0  11   4    0.98    1.19
   0  11   4   -0.60    1.23
   0  11   4    0.32    1.14
   0  11   5    9.30    1.44
   0  11   6    5.68    1.34
   0 -11  -6    4.02    1.09
   0  11   6    2.52    1.27
   0 -11  -7   19.86    1.76
   0  11   7   25.70    2.06
   0  11   7   25.50    2.07
   0  11   8    1.31    1.31
   0 -11  -8    1.14    1.08
   0  12   4    2.00    1.37
  -1  12   4   16.33    1.75
  -1  11   8    1.21    1.29
  -1  11   7    0.42    1.29
  -1  11   6   29.81    2.40
  -1  11   6   32.09    2.24
  -1  11   5   29.95    2.15
  -1  11   4    8.01    1.36
  -1  11   4    8.20    1.53
  -1  11   4    7.17    1.09
  -1  11   3   -0.43    1.15
  -1  11   3    0.91    0.91
  -1  11   3    0.20    1.09
  -1  11   2    1.36    0.99
  -1  11   2    2.33    1.23
  -1  11   2    0.99    1.16
  -1  11   1    9.90    1.39
  -1  11   1   13.45    1.68
  -1  11   1   13.53    1.65
  -1  11   0    5.11    1.43
  -1  11   0    2.07    1.07
  -1  11   0    3.57    1.31
  -1  11  -1    3.40    1.38
  -1  11  -1    7.57    1.53
  -1  11  -2    1.95    1.28
  -1  11  -2    0.16    1.22
   1 -10 -11    0.80    0.97
  -1  10  10    1.28    1.24
   1 -10 -10    0.95    0.95
  -1  10   9    3.45    1.25
   1 -10  -9    2.53    0.89
  -1  10   8    3.40    1.34
   1 -10  -8    3.72    0.85
  -1  10   8    5.21    1.22
   1 -10  -7   12.56    1.07
  -1  10   7   12.22    1.62
  -1  10   7   16.15    1.57
  -1  10   6    5.36    1.38
   1 -10  -6    5.37    0.70
  -1  10   6    8.40    1.29
  -1  10   5   42.63    2.53
  -1  10   4    3.79    1.28
  -1  10   4    5.82    0.93
  -1  10   4    6.14    1.14
  -1  10   3    3.47    1.10
  -1  10   3    4.33    0.93
  -1  10   3    5.87    1.11
  -1  10   3    4.64    1.26
  -1  10   2    1.10    0.88
  -1  10   2    3.20    1.18
  -1  10   2    3.33    1.07
  -1  10   1    0.32    1.04
  -1  10   1   -0.47    0.90
  -1  10   1   -0.31    1.11
  -1  10   0    9.94    1.23
  -1  10   0    9.23    1.43
  -1  10   0    9.16    1.45
  -1  10  -1    3.11    1.21
  -1  10  -1    1.64    0.88
  -1  10  -1    2.16    1.17
  -1  10  -2   10.84    1.21
  -1  10  -2   10.15    1.46
  -1  10  -2    6.54    1.38
  -1  10  -3    2.62    1.19
  -1  10  -3    0.52    1.10
  -1  10  -3    0.11    0.85
   1  -9 -11    4.15    1.11
   1  -9 -10    1.71    0.93
  -1   9  10    1.06    1.07
  -1   9   9   -0.71    1.03
   1  -9  -9    0.36    0.79
   1  -9  -9   -0.53    1.00
  -1   9   9    0.06    1.01
  -1   9   8    1.83    1.07
   1  -9  -8    1.83    0.76
   1  -9  -8    2.64    1.01
  -1   9   8    2.12    0.98
  -1   9   7   11.29    1.47
   1  -9  -7   10.10    0.99
  -1   9   7   11.66    1.46
  -1   9   7   11.48    1.32
   1  -9  -7    9.90    1.22
  -1   9   6    5.83    1.31
   1  -9  -6    5.79    0.78
   1  -9  -6    4.90    1.02
  -1   9   6    7.66    1.16
  -1   9   6    6.86    1.30
  -1   9   6    7.48    1.35
  -1   9   5   30.44    1.93
  -1   9   5   30.23    1.97
  -1   9   5   28.27    2.00
   1  -9  -5   24.96    1.40
  -1   9   4    9.29    1.36
  -1   9   4   11.59    1.26
  -1   9   4   14.05    1.35
  -1   9   4   16.20    1.19
  -1   9   4   11.88    1.19
  -1   9   3    2.84    0.96
  -1   9   3    2.64    0.79
  -1   9   3    5.44    0.99
  -1   9   3    4.13    1.17
  -1   9   3    2.29    1.03
  -1   9   2    3.21    0.98
  -1   9   2    1.15    0.80
  -1   9   2    1.73    1.00
  -1   9   2    1.62    1.08
  -1   9   1   49.62    2.89
  -1   9   1   59.95    2.91
  -1   9   1   57.83    2.98
  -1   9   1   46.66    2.65
  -1   9   0    7.35    1.22
  -1   9   0    9.50    1.25
  -1   9   0    5.84    1.16
  -1   9   0    4.98    0.99
  -1   9   0    8.32    1.29
  -1   9  -1    4.92    1.20
  -1   9  -1    3.75    1.15
  -1   9  -2    3.98    1.16
  -1   9  -2    3.95    1.12
  -1   9  -2    1.83    0.78
  -1   9  -2    3.12    1.08
  -1   9  -3    1.04    1.09
  -1   9  -3   -0.47    0.94
  -1   9  -3    0.56    0.76
  -1   9  -4   15.39    1.32
  -1   9  -4   13.73    1.45
   1  -8 -11   -1.49    1.13
  -1   8  10    2.26    1.01
  -1   8  10    4.88    1.07
   1  -8 -10    2.37    1.06
   1  -8 -10    1.31    1.13
  -1   8  10    2.86    1.00
  -1   8   9    0.54    0.95
  -1   8   9    2.30    1.00
   1  -8  -9    1.23    0.53
   1  -8  -9   -0.15    0.88
  -1   8   9    2.67    1.07
   1  -8  -8   -0.51    0.87
  -1   8   8   -0.63    0.93
   1  -8  -8    0.67    0.38
   1  -8  -8    1.66    0.74
  -1   8   8    1.34    1.01
   1  -8  -7    1.59    0.89
  -1   8   7    2.15    1.09
  -1   8   7    0.62    0.90
  -1   8   7    1.24    0.93
   1  -8  -7    1.20    0.89
   1  -8  -7    2.47    0.72
  -1   8   7    2.57    1.19
  -1   8   6   32.96    2.17
  -1   8   6   32.26    2.16
  -1   8   6   40.56    2.36
  -1   8   6   35.93    2.09
   1  -8  -6   32.76    2.02
   1  -8  -6   33.27    1.78
  -1   8   5  203.90    7.57
  -1   8   5  193.66    7.45
   1  -8  -5  184.74    7.03
  -1   8   5  176.24    7.50
   1  -8  -5  161.56    7.22
  -1   8   5  149.39    7.01
  -1   8   5  191.72    7.16
  -1   8   4   -0.10    0.84
  -1   8   4    0.48    0.65
   1  -8  -4    0.42    0.42
  -1   8   4    0.56    0.89
   1  -8  -4    0.86    0.68
  -1   8   4   -0.86    0.92
  -1   8   4   -0.04    0.75
  -1   8   3   -0.20    0.82
  -1   8   3   -0.13    0.70
  -1   8   3   -0.06    0.96
  -1   8   3    1.07    0.74
  -1   8   3    0.22    0.75
  -1   8   3    0.68    0.91
  -1   8   2  126.90    5.55
  -1   8   2  124.06    5.21
  -1   8   2  131.90    5.57
  -1   8   2  127.24    5.36
  -1   8   2  116.38    5.07
  -1   8   2  130.81    5.38
  -1   8   1    4.12    1.03
  -1   8   1    3.33    0.83
  -1   8   1    5.66    1.12
  -1   8   1    4.98    0.70
  -1   8   1    3.79    0.64
  -1   8   1    5.99    1.04
  -1   8   0   -1.01    0.98
  -1   8   0   -1.42    1.00
  -1   8   0   -0.60    0.90
  -1   8   0    0.12    0.46
  -1   8  -1    2.75    1.01
  -1   8  -1    2.36    0.93
  -1   8  -1    2.79    0.55
  -1   8  -1    2.68    0.99
  -1   8  -1    0.74    0.95
  -1   8  -2    7.10    1.27
  -1   8  -2    5.85    0.92
  -1   8  -2    6.86    1.13
  -1   8  -2    6.83    1.10
  -1   8  -2    7.56    1.18
  -1   8  -3   41.55    2.26
  -1   8  -3   42.64    2.49
  -1   8  -3   45.68    2.53
  -1   8  -3   45.88    2.53
  -1   8  -4    4.20    0.82
  -1   8  -4    1.35    0.97
  -1   8  -4    3.36    1.01
  -1   8  -5    1.99    0.73
   1  -8   6    0.09    0.77
   1  -8   7    1.77    0.94
  -1   7  11    1.48    1.05
   1  -7 -11   -0.77    1.04
  -1   7  10   45.10    2.45
   1  -7 -10   42.85    2.60
  -1   7  10   48.38    2.34
  -1   7  10   44.51    2.32
   1  -7 -10   36.19    2.15
   1  -7 -10   42.69    2.40
   1  -7  -9   33.46    1.96
  -1   7   9   40.87    2.28
  -1   7   9   44.49    2.29
  -1   7   9   47.57    2.39
   1  -7  -9   45.65    2.49
   1  -7  -9   38.58    2.22
  -1   7   8   68.63    3.53
   1  -7  -8   71.50    3.60
   1  -7  -8   76.07    3.46
   1  -7  -8   79.46    3.64
  -1   7   8   81.20    3.62
  -1   7   8   86.79    4.04
  -1   7   8   66.34    3.52
  -1   7   7   11.12    1.23
   1  -7  -7    9.51    0.69
  -1   7   7   11.38    1.21
   1  -7  -7   12.12    1.07
  -1   7   7   16.64    1.56
  -1   7   7   11.85    1.25
   1  -7  -7    9.74    1.13
   1  -7  -6    6.23    0.92
  -1   7   6    4.95    1.17
  -1   7   6    3.38    1.01
   1  -7  -6    3.91    0.26
   1  -7  -6    6.76    0.75
  -1   7   6    4.86    0.93
   1  -7  -6    2.82    0.28
  -1   7   6    4.45    1.03
   1  -7  -5    0.14    0.69
  -1   7   5    0.33    0.91
   1  -7  -5    0.35    0.48
  -1   7   5   -0.91    0.86
  -1   7   5    0.54    0.55
   1  -7  -5   -0.34    0.69
  -1   7   5    0.37    0.47
  -1   7   5    0.94    0.72
  -1   7   5   -0.75    0.95
   1  -7  -4   -0.37    0.43
  -1   7   4    0.05    0.77
  -1   7   4    0.05    0.69
  -1   7   4    0.06    0.53
   1  -7  -4   -0.26    0.64
  -1   7   4    0.78    0.56
  -1   7   4   -0.19    0.60
  -1   7   3   -0.16    0.83
  -1   7   3    0.54    0.70
  -1   7   3   -0.15    0.56
  -1   7   3   -0.52    0.73
  -1   7   3    0.51    0.65
   1  -7  -3    0.29    0.57
   1  -7  -3   -0.07    0.33
  -1   7   3    0.71    0.69
  -1   7   2   47.11    2.33
  -1   7   2   44.72    2.45
  -1   7   2   51.22    2.57
  -1   7   2   44.05    2.26
  -1   7   2   48.52    2.38
  -1   7   1   28.97    1.76
  -1   7   1   23.03    1.48
  -1   7   1   22.01    1.00
  -1   7   1   23.21    1.32
  -1   7   1   25.20    1.64
  -1   7   1   24.60    1.26
  -1   7   1   28.86    1.64
  -1   7   0  316.47   12.15
  -1   7   0  348.01   12.61
  -1   7   0  328.46   12.21
  -1   7   0  312.28   12.14
  -1   7   0  350.60   12.73
  -1   7   0  322.35   12.62
  -1   7   0  305.14   11.98
  -1   7  -1   90.66    3.71
  -1   7  -1  105.61    4.43
  -1   7  -1  102.11    4.40
  -1   7  -1   99.57    3.91
  -1   7  -1  104.64    4.39
  -1   7  -1   93.56    3.96
  -1   7  -2  108.36    4.62
  -1   7  -2  100.45    4.06
  -1   7  -2   96.62    4.45
  -1   7  -2   92.81    4.27
  -1   7  -2  102.68    4.50
  -1   7  -2   96.81    4.48
  -1   7  -2   99.08    4.23
  -1   7  -3   12.96    0.89
  -1   7  -3   10.90    0.98
  -1   7  -3   12.33    1.26
  -1   7  -3   11.45    1.26
  -1   7  -3    9.63    1.15
  -1   7  -3   11.08    1.35
   1  -7   4   13.83    1.13
  -1   7  -4   17.61    1.23
  -1   7  -4   18.14    1.41
  -1   7  -4   17.01    1.42
  -1   7  -4   21.83    1.69
  -1   7  -4   17.23    1.43
  -1   7  -5   25.20    1.46
   1  -7   5   21.34    1.44
  -1   7  -5   21.34    1.55
  -1   7  -5   25.46    1.56
   1  -7   6    2.68    0.73
   1  -7   7    4.57    0.91
   1  -7   8    8.95    1.23
   1  -7   9   11.39    1.41
   1  -6 -11    2.37    0.98
   1  -6 -11    2.31    1.14
  -1   6  10   18.43    1.28
  -1   6  10   15.44    1.21
   1  -6 -10   17.51    1.48
   1  -6 -10   17.44    1.61
  -1   6  10   19.17    1.53
   1  -6  -9    6.61    1.03
   1  -6  -9    4.69    1.08
  -1   6   9    5.87    0.89
   1  -6  -9    4.55    0.99
  -1   6   9    4.34    0.96
  -1   6   9    6.22    0.94
   1  -6  -8   98.97    4.09
  -1   6   8  106.34    4.57
  -1   6   8   82.66    3.99
  -1   6   8   88.26    4.07
  -1   6   8   81.87    4.00
   1  -6  -8   86.35    4.06
   1  -6  -8  100.02    4.22
   1  -6  -7   37.82    1.91
  -1   6   7   30.69    1.92
   1  -6  -7   32.76    2.01
  -1   6   7   34.75    2.30
  -1   6   7   32.51    1.98
  -1   6   7   37.25    2.03
   1  -6  -7   37.79    2.03
   1  -6  -6   68.24    3.44
  -1   6   6   70.80    3.49
  -1   6   6   75.09    3.49
  -1   6   6   79.05    3.51
  -1   6   6   70.44    3.05
   1  -6  -6   78.52    3.34
   1  -6  -6   90.68    3.60
  -1   6   6   93.79    3.82
  -1   6   5    0.28    0.76
   1  -6  -5    0.24    0.61
   1  -6  -5    0.64    0.55
  -1   6   5   -0.26    0.85
   1  -6  -5    0.73    0.25
  -1   6   5    0.54    0.64
  -1   6   5    1.02    0.47
  -1   6   5    1.34    0.67
  -1   6   5    0.72    0.37
  -1   6   4    0.87    0.43
  -1   6   4    0.97    0.51
  -1   6   4    0.56    0.63
   1  -6  -4    1.46    0.42
  -1   6   4    0.63    0.73
   1  -6  -4    0.91    0.57
   1  -6  -3  110.06    4.70
  -1   6   3  120.47    4.71
   1  -6  -3  116.92    4.53
  -1   6   3  109.73    4.80
  -1   6   3  114.20    4.71
  -1   6   3  106.73    4.78
  -1   6   3  111.85    4.91
  -1   6   3  115.13    4.91
  -1   6   2   13.95    1.03
  -1   6   2   12.18    1.08
  -1   6   2   12.98    0.98
  -1   6   2   12.38    0.96
  -1   6   1   92.24    3.65
  -1   6   1   95.09    3.94
  -1   6   1   94.62    3.94
  -1   6   1   81.36    3.38
  -1   6   1   83.83    3.76
  -1   6   1   86.85    3.43
  -1   6   1   97.33    3.87
  -1   6   1   90.42    3.58
  -1   6   0  133.99    5.57
  -1   6   0  133.23    5.46
  -1   6   0  142.15    5.61
  -1   6   0  161.37    5.65
  -1   6   0  155.02    6.04
  -1   6   0  148.64    5.99
  -1   6   0  160.05    5.98
  -1   6  -1   23.97    1.10
  -1   6  -1   23.98    1.51
  -1   6  -1   21.70    1.42
  -1   6  -1   23.44    1.20
  -1   6  -1   24.03    1.51
  -1   6  -1   19.30    0.95
  -1   6  -1   20.24    0.93
  -1   6  -2    0.21    0.50
  -1   6  -2   -0.25    0.75
  -1   6  -2    0.14    0.69
  -1   6  -2   -1.78    0.85
  -1   6  -2   -0.02    0.39
  -1   6  -2   -0.66    0.72
  -1   6  -3    0.13    0.45
  -1   6  -3   -0.60    0.89
  -1   6  -3   -0.87    0.77
   1  -6   3   -0.05    0.46
  -1   6  -3    0.03    0.55
  -1   6  -3   -0.78    0.82
  -1   6  -3    0.22    0.81
  -1   6  -4    2.77    0.62
   1  -6   4    2.11    0.56
  -1   6  -4    3.53    0.61
  -1   6  -4    2.44    0.98
  -1   6  -4    2.94    0.79
  -1   6  -4    1.67    0.76
  -1   6  -4    2.19    0.82
  -1   6  -5    6.03    0.90
  -1   6  -5    6.30    0.83
   1  -6   5    6.01    0.76
  -1   6  -5    6.06    0.73
  -1   6  -6   18.46    1.58
   1  -6   6   14.45    1.17
   1  -6   7    1.04    0.79
  -1   6  -8    8.61    1.34
   1  -6   8    6.92    1.11
  -1   6  -9    6.55    1.30
   1  -6   9    6.26    1.19
   1  -5 -11    1.95    1.02
   1  -5 -11    1.22    1.04
   1  -5 -10    2.44    1.00
   1  -5 -10    1.52    0.91
   1  -5  -9   56.93    2.85
   1  -5  -9   53.58    2.90
  -1   5   9   56.02    3.20
  -1   5   9   57.06    2.79
  -1   5   8  155.20    6.20
   1  -5  -8  136.94    6.29
   1  -5  -8  144.07    6.20
  -1   5   8  160.41    6.64
   1  -5  -7   49.58    2.75
  -1   5   7   67.30    3.11
   1  -5  -7   54.69    2.67
  -1   5   7   57.65    2.73
  -1   5   6    3.17    0.27
   1  -5  -6    4.10    0.69
   1  -5  -6    2.75    0.71
  -1   5   6    3.92    0.94
  -1   5   6    3.00    0.69
   1  -5  -5    3.12    0.58
  -1   5   5    2.45    0.38
   1  -5  -5    1.63    0.61
  -1   5   5    2.84    0.62
  -1   5   5    1.38    0.72
   1  -5  -4    1.30    0.46
  -1   5   4    0.41    0.65
  -1   5   4    0.96    0.56
  -1   5   4    1.20    0.37
  -1   5   4    0.02    0.40
  -1   5   3   76.90    3.17
   1  -5  -3   74.72    3.08
  -1   5   3   75.36    3.21
  -1   5   3   71.60    3.33
  -1   5   3   77.18    3.29
  -1   5   2    0.06    0.41
  -1   5   2    0.05    0.46
   1  -5  -2    0.28    0.37
  -1   5   2    0.25    0.47
   1  -5  -2    0.09    0.25
  -1   5   1  185.09    7.11
  -1   5   1  174.38    6.88
  -1   5   1  186.39    6.95
  -1   5   1  175.44    7.19
  -1   5   1  197.95    7.26
  -1   5   0    0.82    0.32
  -1   5   0    0.28    0.55
  -1   5   0    0.87    0.34
  -1   5   0    1.15    0.23
  -1   5   0    1.04    0.29
  -1   5  -1    1.92    0.65
  -1   5  -1    4.24    0.71
  -1   5  -1    4.26    0.33
  -1   5  -1    3.95    0.39
   1  -5   2    3.31    0.45
  -1   5  -2    4.01    0.74
  -1   5  -2    3.79    0.52
  -1   5  -2    2.02    0.65
  -1   5  -2    3.80    0.43
  -1   5  -3    1.13    0.43
  -1   5  -3    1.27    0.76
  -1   5  -3    1.31    0.65
  -1   5  -3    0.95    0.58
  -1   5  -3    2.71    0.44
  -1   5  -3    0.91    0.59
   1  -5   3    1.26    0.41
  -1   5  -4   65.21    2.76
  -1   5  -4   68.36    3.15
  -1   5  -4   66.72    2.94
  -1   5  -4   70.21    2.86
  -1   5  -4   54.90    2.85
  -1   5  -4   60.25    2.91
   1  -5   4   64.27    2.79
  -1   5  -5   19.66    1.18
  -1   5  -5   16.57    1.24
  -1   5  -5   18.38    1.26
   1  -5   5   18.22    1.15
  -1   5  -6   21.39    1.56
   1  -5   6   14.95    1.15
   1  -5   7    0.37    0.63
  -1   5  -7   -0.60    0.97
  -1   5  -8   11.07    1.28
   1  -5   8    9.35    1.05
   1  -5   9    1.54    0.93
  -1   5  -9    1.88    1.02
   1  -5  10    0.93    0.94
  -1   5 -10    1.45    1.09
   1  -4 -12    9.38    1.43
  -1   4  11    1.76    0.96
   1  -4 -11    1.13    1.00
   1  -4 -11    1.11    0.97
   1  -4 -10    2.59    0.97
   1  -4  -9    3.76    0.96
   1  -4  -9    2.13    0.96
  -1   4   8    3.20    0.79
   1  -4  -8    3.69    0.89
  -1   4   8    3.40    0.64
  -1   4   8    2.75    0.62
   1  -4  -8    3.56    0.95
  -1   4   8    3.20    1.13
  -1   4   7   27.71    1.55
  -1   4   7   29.81    1.92
   1  -4  -7   24.37    1.66
   1  -4  -7   24.40    1.63
  -1   4   6   75.02    3.34
   1  -4  -6   77.54    3.32
   1  -4  -6   78.75    3.46
  -1   4   6   76.93    3.59
   1  -4  -6   72.72    3.43
  -1   4   5   36.26    1.52
   1  -4  -5   46.33    1.94
  -1   4   5   42.06    1.93
   1  -4  -5   45.76    2.03
   1  -4  -4 1008.32   38.83
  -1   4   4 1024.61   38.81
  -1   4   4 1010.69   38.54
   1  -4  -4 1061.33   38.82
  -1   4   3  303.65   10.62
   1  -4  -3  291.60   10.66
  -1   4   3  282.31   10.71
   1  -4  -3  271.64   10.63
  -1   4   3  291.89   10.68
  -1   4   3  254.43   10.48
  -1   4   3  250.74   10.47
  -1   4   2  145.50    5.72
  -1   4   2  155.58    5.81
  -1   4   2  145.76    5.87
  -1   4   2  157.71    5.88
  -1   4   2  143.57    5.85
   1  -4  -2  138.56    5.70
  -1   4   1   62.49    2.57
  -1   4   1   67.36    2.77
  -1   4   1   70.61    2.65
  -1   4   1   74.08    2.87
  -1   4   1   67.29    2.84
  -1   4   0    6.67    0.45
  -1   4   0    6.68    0.45
  -1   4   0    6.68    0.49
  -1   4   0    7.34    0.72
  -1   4   0    6.06    0.39
  -1   4  -1  227.14    8.83
  -1   4  -1  213.96    8.57
  -1   4  -2   11.08    0.62
   1  -4   2   10.15    0.63
  -1   4  -2    9.10    0.81
  -1   4  -2   11.86    0.90
  -1   4  -3    1.09    0.48
  -1   4  -3    0.15    0.44
  -1   4  -3    1.01    0.37
  -1   4  -3    0.76    0.52
  -1   4  -3    0.99    0.35
   1  -4   3    0.29    0.36
  -1   4  -4    2.95    0.54
  -1   4  -4    2.33    0.58
  -1   4  -4    3.83    0.49
   1  -4   4    2.62    0.44
  -1   4  -4    2.97    0.56
   1  -4   5    0.18    0.45
  -1   4  -5    0.86    0.53
  -1   4  -5    0.08    0.49
  -1   4  -6    4.87    0.62
   1  -4   6    3.60    0.66
  -1   4  -6    3.98    0.89
  -1   4  -6    5.01    0.60
  -1   4  -7   -0.56    0.81
   1  -4   7    0.25    0.60
  -1   4  -8    3.86    0.95
  -1   4  -8    4.17    0.95
   1  -4   8    5.05    0.88
   1  -4   9    6.04    1.01
  -1   4  -9    4.71    1.00
  -1   4  -9    4.40    1.00
   1  -4  10    1.29    0.92
  -1   4 -10    0.69    0.95
  -1   4 -11    0.40    0.92
   1  -3 -11    9.01    1.31
  -1   3  11    8.64    1.26
   1  -3 -11    8.05    1.26
  -1   3  10   -0.10    0.83
  -1   3  10    0.48    1.13
   1  -3 -10    0.88    0.88
   1  -3 -10    1.67    0.92
  -1   3   9   48.74    2.76
   1  -3  -9   40.59    2.41
   1  -3  -9   44.98    2.43
   1  -3  -9   43.69    2.43
   1  -3  -8    2.37    0.80
  -1   3   8    2.10    0.46
   1  -3  -8    1.22    0.76
  -1   3   8    3.41    0.47
   1  -3  -8    4.44    0.86
  -1   3   7    4.89    0.57
   1  -3  -7    4.98    0.80
  -1   3   7    4.84    0.70
  -1   3   7    4.05    0.54
  -1   3   7    3.81    0.94
   1  -3  -7    4.40    0.78
   1  -3  -7    3.63    0.78
   1  -3  -6    2.36    0.66
  -1   3   6    1.71    0.72
   1  -3  -6    1.34    0.28
   1  -3  -6    1.67    0.58
  -1   3   6    1.64    0.52
   1  -3  -6    1.42    0.58
  -1   3   6    2.25    0.45
  -1   3   6    1.74    0.48
   1  -3  -5   48.08    1.88
   1  -3  -5   45.66    2.19
  -1   3   5   46.78    2.09
   1  -3  -5   43.71    2.12
  -1   3   5   40.13    2.02
  -1   3   5   44.27    2.03
   1  -3  -4  402.51   14.88
   1  -3  -4  409.78   14.90
   1  -3  -4  389.45   14.94
  -1   3   3   17.06    0.83
  -1   3   3   21.25    1.07
  -1   3   3   15.98    1.01
   1  -3  -3   20.72    1.07
   1  -3  -3   20.33    1.01
   1  -3  -3   20.26    1.04
  -1   3   2  474.72   17.19
  -1   3   2  421.44   17.11
  -1   3   2  441.00   17.22
  -1   3   2  437.69   17.11
   1  -3  -2  478.12   17.19
  -1   3   2  468.90   17.26
  -1   3   2  449.94   17.22
  -1   3   2  431.30   17.18
  -1   3   2  451.61   17.09
   1  -3  -2  468.06   17.21
  -1   3   1  608.74   23.78
  -1   3   1  647.82   23.62
  -1   3   1  633.94   23.82
  -1   3   1  636.44   23.70
  -1   3   1  555.02   23.76
  -1   3   0 2947.78  110.38
  -1   3   0 2980.57  110.41
  -1   3   0 2829.31  110.38
  -1   3   0 2968.56  110.41
  -1   3   0 2984.88  110.54
  -1   3  -1   11.02    0.75
  -1   3  -1    9.60    0.51
  -1   3  -1   11.01    0.73
  -1   3  -2   40.39    1.75
  -1   3  -2   42.16    1.93
  -1   3  -2   44.58    1.85
  -1   3  -2   43.35    1.93
  -1   3  -3    4.08    0.53
  -1   3  -3    5.01    0.45
  -1   3  -3    4.99    0.44
   1  -3   3    4.16    0.41
  -1   3  -3    3.66    0.54
  -1   3  -3    2.54    0.33
  -1   3  -3    3.97    0.50
  -1   3  -4    2.02    0.42
  -1   3  -4    1.79    0.46
  -1   3  -4    1.89    0.40
  -1   3  -4    1.13    0.31
   1  -3   4    2.24    0.40
  -1   3  -5   12.76    1.05
  -1   3  -5   13.75    0.83
   1  -3   5   13.44    0.86
  -1   3  -5   13.13    0.83
  -1   3  -5   13.38    0.79
  -1   3  -6    1.30    0.38
  -1   3  -6    1.35    0.66
   1  -3   6    2.10    0.56
  -1   3  -6    2.55    0.47
  -1   3  -6    2.03    0.43
  -1   3  -7    3.21    0.74
  -1   3  -7    2.12    0.74
  -1   3  -7    3.77    0.57
   1  -3   7    2.77    0.63
  -1   3  -7    2.55    0.53
  -1   3  -8    0.77    0.68
   1  -3   8    0.19    0.66
  -1   3  -8    0.12    0.68
  -1   3  -9    0.97    0.70
   1  -3   9    0.09    0.81
  -1   3  -9    1.02    0.77
  -1   3 -10    1.68    0.82
  -1   3 -10    1.17    0.79
   1  -3  10    1.50    0.90
  -1   3 -11    1.43    0.84
   1  -3  11    0.83    0.99
   1  -2 -11    1.53    0.96
   1  -2 -11    0.72    0.98
  -1   2  11    0.92    0.92
   1  -2 -10   -0.88    0.86
  -1   2  10   -0.23    1.14
  -1   2  10    1.04    0.86
   1  -2 -10    1.08    0.88
   1  -2 -10    0.49    0.82
   1  -2  -9    2.17    0.86
   1  -2  -9    0.99    0.77
   1  -2  -9    1.10    0.86
  -1   2   9    0.47    1.05
  -1   2   9    1.79    0.78
   1  -2  -8   34.76    1.94
   1  -2  -8   32.09    1.86
  -1   2   8   33.44    1.86
  -1   2   8   36.75    2.18
   1  -2  -8   29.11    1.87
  -1   2   7   21.69    1.06
   1  -2  -7   25.13    1.53
   1  -2  -7   26.08    1.50
   1  -2  -7   25.29    1.47
  -1   2   7   25.26    1.08
  -1   2   6    0.34    0.30
   1  -2  -6   -0.11    0.52
   1  -2  -6    0.56    0.53
  -1   2   6    0.36    0.67
  -1   2   6    0.11    0.32
   1  -2  -6    0.03    0.51
   1  -2  -5    7.97    0.72
   1  -2  -5    5.90    0.71
  -1   2   5    8.72    0.60
  -1   2   5    6.49    0.53
  -1   2   5    7.29    0.64
  -1   2   4  129.71    4.89
   1  -2  -4  133.84    4.95
   1  -2  -4  134.94    4.98
  -1   2   4  123.01    4.82
   1  -2  -3  564.33   22.32
  -1   2   3  581.44   22.28
   1  -2  -3  612.99   22.31
   1  -2  -2   83.98    3.22
  -1   2   2   74.60    3.18
   1  -2  -2   86.98    3.19
  -1   2   2   87.41    3.20
   1  -2  -2   88.19    3.24
  -1   2   2   70.85    3.05
  -1   2   2   80.64    3.18
   1  -2  -1    7.89    0.38
   1  -2  -1    7.24    0.48
  -1   2   1    7.41    0.46
  -1   2   1    8.54    0.52
   1  -2  -1    8.62    0.54
  -1   2   1    8.11    0.48
  -1   2   1    7.34    0.49
   1  -2  -1    7.88    0.45
  -1   2   0 9989.27  364.13
   1  -2   0 9716.83  364.06
   1  -2   0 9393.55  364.13
  -1   2   0 9999.00  364.06
  -1   2   0 9390.71  364.04
  -1   2  -1 3052.81  110.98
  -1   2  -1 2925.14  110.83
   1  -2   1 2898.93  111.02
  -1   2  -2  223.35    8.37
  -1   2  -2  214.53    8.42
   1  -2   2  230.86    8.56
  -1   2  -2  210.29    8.46
   1  -2   3   76.40    3.02
   1  -2   3   78.93    3.16
  -1   2  -3   69.76    2.98
  -1   2  -3   64.18    2.93
  -1   2  -3   80.10    2.98
  -1   2  -3   73.56    2.98
  -1   2  -3   74.18    3.11
  -1   2  -3   80.03    3.01
  -1   2  -4   78.07    3.26
  -1   2  -4   76.87    3.29
   1  -2   4   85.27    3.34
  -1   2  -4   87.65    3.31
   1  -2   5   52.12    2.51
  -1   2  -5   62.86    2.52
  -1   2  -5   70.08    2.43
  -1   2  -5   48.95    2.37
  -1   2  -5   63.70    2.46
  -1   2  -6   30.48    1.38
  -1   2  -6   29.41    1.63
  -1   2  -6   35.68    1.56
   1  -2   6   39.99    1.71
  -1   2  -6   31.80    1.68
  -1   2  -6   33.99    1.39
  -1   2  -6   39.94    1.76
   1  -2   7   -0.19    0.55
  -1   2  -7    0.32    0.56
  -1   2  -7   -0.21    0.64
  -1   2  -7    0.14    0.48
  -1   2  -7    0.80    0.57
  -1   2  -8   -0.09    0.57
  -1   2  -8   -0.29    0.64
   1  -2   8    0.60    0.67
  -1   2  -8   -1.09    0.67
  -1   2  -8   -0.83    0.60
   1  -2   9    0.43    0.77
  -1   2  -9    0.84    0.66
  -1   2  -9    0.86    0.68
  -1   2 -10    0.18    0.64
  -1   2 -10    0.33    0.69
   1  -2  10   -1.61    0.95
   1  -2  11    2.12    1.04
  -1   2 -11    3.03    0.76
   1  -1 -11    9.27    1.39
  -1   1  11   14.91    1.40
   1  -1 -10    9.51    1.15
   1  -1 -10    6.86    1.16
  -1   1  10    7.27    1.05
  -1   1  10    8.16    1.37
   1  -1 -10    6.89    1.09
   1  -1  -9    2.04    0.85
  -1   1   9    1.83    0.81
   1  -1  -9    2.67    0.82
   1  -1  -9    0.98    0.82
  -1   1   9    1.93    1.08
  -1   1   8    0.87    0.73
   1  -1  -8    1.60    0.73
   1  -1  -8    0.18    0.75
  -1   1   8    1.10    0.95
   1  -1  -8    0.75    0.68
   1  -1  -7    9.84    0.55
   1  -1  -7   10.47    0.91
   1  -1  -7   10.45    0.56
  -1   1   7   13.75    1.00
   1  -1  -7    8.94    0.95
   1  -1  -7   11.41    0.98
  -1   1   7   12.98    1.22
   1  -1  -6   30.45    1.32
   1  -1  -6   29.80    1.67
   1  -1  -6   31.34    1.68
  -1   1   6   35.89    1.67
   1  -1  -6   28.91    1.58
   1  -1  -6   33.88    1.33
   1  -1  -5  582.65   19.91
  -1   1   5  459.49   19.93
   1  -1  -5  590.95   20.26
  -1   1   5  560.94   19.94
   1  -1  -5  536.55   20.22
   1  -1  -5  487.51   19.90
   1  -1  -4  615.61   22.42
   1  -1  -4  641.71   22.73
   1  -1  -4  645.58   22.71
  -1   1   4  618.34   22.76
  -1   1   3  242.84    9.59
   1  -1  -3  249.70    9.55
   1  -1  -3  242.66    9.54
  -1   1   3  251.56    9.50
   1  -1  -2  410.04   16.70
   1  -1  -2  469.60   16.71
  -1   1   2  439.27   16.66
  -1   1   1  130.12    5.60
   1  -1  -1  140.07    5.57
   1  -1  -1  150.24    5.65
   1  -1  -1  142.78    5.62
  -1   1   1  147.29    5.56
   1  -1  -1  151.95    5.62
  -1   1   1  171.93    5.57
   1  -1  -1  137.33    5.57
   1  -1   0  150.08    5.75
   1  -1   1 7905.57  308.14
   1  -1   1 8282.13  308.03
  -1   1  -1 8229.44  308.14
  -1   1  -1 8184.76  308.07
   1  -1   2  254.57    9.01
  -1   1  -2  239.66    8.97
  -1   1  -2  225.55    8.92
   1  -1   2  232.31    8.90
   1  -1   2  226.76    8.88
  -1   1  -3  115.56    4.87
  -1   1  -3  125.72    4.87
   1  -1   3  130.68    4.83
   1  -1   3  116.51    4.83
   1  -1   3  124.99    4.92
  -1   1  -3  126.75    4.76
  -1   1  -4  135.23    5.16
   1  -1   4  141.59    5.33
  -1   1  -4  121.56    5.09
   1  -1   4  140.84    5.21
  -1   1  -4  140.43    5.28
  -1   1  -5    1.48    0.42
   1  -1   5    1.92    0.53
  -1   1  -5    0.99    0.46
  -1   1  -5    1.59    0.43
   1  -1   5    2.05    0.36
  -1   1  -5    2.23    0.38
  -1   1  -5    1.50    0.23
  -1   1  -5    1.83    0.21
  -1   1  -6  101.80    4.60
  -1   1  -6  121.25    4.55
  -1   1  -7    3.84    0.71
  -1   1  -7    3.88    0.61
   1  -1   8    3.69    0.78
  -1   1  -8    1.68    0.80
  -1   1  -8    3.28    0.65
  -1   1  -8    3.25    0.62
  -1   1  -8    4.44    0.72
  -1   1  -9   47.88    2.35
  -1   1  -9   40.35    2.08
  -1   1  -9   38.87    2.07
   1  -1   9   49.61    2.27
   1  -1   9   52.26    2.40
  -1   1  -9   45.84    2.26
  -1   1 -10    5.80    0.74
  -1   1 -10    6.92    0.77
   1  -1  10    6.25    1.05
   1  -1  11    1.03    0.94
   1   0 -11   -1.01    1.10
   1   0 -10    1.98    0.97
  -1   0  10    0.05    0.81
  -1   0  10    0.59    0.53
  -1   0  10    0.79    1.06
   1   0 -10    2.07    0.87
   1   0  -9    4.71    1.00
  -1   0   9    3.88    0.56
  -1   0   9    4.40    0.88
   1   0  -9    5.00    0.86
  -1   0   9    4.86    1.13
   1   0  -8    2.16    0.73
   1   0  -8    1.92    0.80
   1   0  -8    1.79    0.74
   1   0  -8    1.55    0.48
  -1   0   8    3.32    0.78
  -1   0   8    2.93    0.98
   1   0  -8    2.07    0.43
   1   0  -7    2.99    0.45
   1   0  -7    4.04    0.67
  -1   0   7    5.51    0.76
   1   0  -7    2.62    0.76
   1   0  -7    4.14    0.72
  -1   0   7    5.92    0.91
   1   0  -7    3.10    0.46
   1   0  -6   10.07    0.77
  -1   0   6    9.48    0.81
   1   0  -6    8.93    0.83
   1   0  -6    9.31    0.63
   1   0  -5   23.59    1.31
   1   0  -5   25.73    1.26
   1   0  -5   23.82    1.17
  -1   0   5   29.42    1.38
   1   0  -4    1.18    0.32
  -1   0   4    2.93    0.40
   1   0  -4    0.97    0.40
   1   0  -4    0.96    0.36
  -1   0   3   46.19    1.86
  -1   0   3   43.68    1.91
   1   0  -3   41.79    1.89
   1   0  -3   41.71    1.86
   1   0  -2   17.41    0.88
  -1   0   2   16.55    0.82
  -1   0   2   17.70    0.87
   1   0   2  143.19    5.83
  -1   0  -2  155.03    5.85
  -1   0  -2  162.74    5.87
   1   0   2  163.47    5.89
  -1   0  -2  168.29    5.94
  -1   0  -2  136.10    5.86
   1   0   2  156.75    5.89
  -1   0  -3  218.75    7.83
  -1   0  -3  213.93    7.72
   1   0   3  187.55    7.68
  -1   0  -3  192.20    7.71
   1   0   3  186.54    7.73
   1   0   3  181.75    7.78
  -1   0  -3  237.82    7.74
  -1   0  -4   29.72    1.28
   1   0   4   28.03    1.30
  -1   0  -4   24.72    1.36
  -1   0  -5  216.27    8.67
  -1   0  -5  205.99    8.83
  -1   0  -5  244.40    8.75
   1   0   5  219.26    8.74
  -1   0  -5  235.76    8.69
  -1   0  -6    4.69    0.56
   1   0   6    4.19    0.58
  -1   0  -6    4.45    0.47
  -1   0  -6    4.37    0.68
  -1   0  -6    4.90    0.47
  -1   0  -7    3.16    0.60
  -1   0  -7    2.21    0.68
   1   0   7    2.24    0.73
  -1   0  -8   15.35    1.25
  -1   0  -8   15.90    1.13
   1   0   8   14.74    1.33
  -1   0  -9    2.05    0.53
  -1   0  -9    1.53    0.79
  -1   0  -9    1.45    0.49
  -1   0  -9    0.09    0.88
  -1   0 -10   -1.14    0.98
   1   0  10    0.54    0.89
   1   0  11    3.91    1.04
   1   1 -11    1.36    1.08
  -1  -1  11   -0.19    1.09
   1   1 -10    0.05    0.52
   1   1 -10   -0.29    0.50
   1   1 -10    1.27    0.98
  -1  -1  10    0.12    0.95
   1   1  -9   13.36    0.93
   1   1  -9   10.52    0.85
  -1  -1   9    9.55    1.26
  -1  -1   9    9.56    0.87
   1   1  -9   12.63    1.24
   1   1  -9   11.00    1.08
   1   1  -8    0.70    0.84
  -1  -1   8   -0.08    0.71
  -1  -1   8    0.37    0.62
   1   1  -8   -0.38    0.67
  -1  -1   8   -0.85    0.95
  -1  -1   8   -0.07    0.53
  -1  -1   7    0.64    0.65
   1   1  -7    0.72    0.56
  -1  -1   7    1.25    0.80
  -1  -1   7    0.86    0.46
  -1  -1   7    1.17    0.54
   1   1  -6    0.02    0.45
   1   1  -6    0.28    0.44
  -1  -1   6    0.22    0.38
  -1  -1   6    0.33    0.49
   1   1  -6   -0.24    0.43
   1   1  -5   34.14    1.43
  -1  -1   5   32.27    1.52
  -1  -1   5   34.65    1.48
  -1  -1   5   24.13    1.11
   1   1  -5   35.61    1.45
  -1  -1   4   27.78    1.31
   1   1  -4   37.65    1.54
  -1  -1   4   37.22    1.36
  -1  -1   4   30.67    1.48
  -1  -1   4   28.90    1.51
  -1  -1   3    2.98    0.33
  -1  -1   3    2.43    0.29
  -1  -1   3    2.11    0.25
   1   1  -2   24.52    1.19
  -1  -1   2   27.47    1.16
  -1  -1   2   26.73    1.14
  -1  -1   1  251.18    9.88
  -1  -1   1  262.47    9.87
  -1  -1   1  256.20    9.88
   1   1  -1  268.93    9.88
  -1  -1  -1 2257.03   84.94
   1   1   2  551.81   21.37
  -1  -1  -2  573.46   21.50
  -1  -1  -2  590.08   21.45
  -1  -1  -3   52.06    2.15
   1   1   3   55.58    2.16
  -1  -1  -3   50.64    2.15
   1   1   3   59.59    2.17
  -1  -1  -3   50.35    2.24
  -1  -1  -3   56.55    2.34
   1   1   3   56.72    2.25
   1   1   4    8.42    0.53
  -1  -1  -4    8.31    0.49
  -1  -1  -4    9.79    0.77
   1   1   4    8.96    0.59
   1   1   4   11.29    0.55
  -1  -1  -4    7.87    0.47
  -1  -1  -4    9.12    0.63
   1   1   4    9.55    0.74
  -1  -1  -5  245.85   10.04
  -1  -1  -5  244.11   10.04
  -1  -1  -5  272.01   10.39
  -1  -1  -6   63.57    3.15
  -1  -1  -6   73.20    3.09
   1   1   6   75.51    2.99
  -1  -1  -7   -0.12    0.62
  -1  -1  -7    0.22    0.52
   1   1   7    0.42    0.45
   1   1   7    0.22    0.63
  -1  -1  -8    2.32    0.80
  -1  -1  -8    1.64    0.66
   1   1   8   -0.30    0.75
   1   1   9   41.12    2.44
  -1  -1  -9   41.03    2.24
  -1  -1  -9   47.36    2.43
   1   1  10    0.60    1.02
  -1  -1 -10   -0.06    0.91
  -1  -1 -10   -0.43    0.85
  -1  -1 -11    2.63    1.04
   1   1  12    0.55    1.01
   1   2 -11    1.70    1.15
  -1  -2  10    2.40    0.90
   1   2 -10    1.50    0.69
   1   2 -10    0.86    0.62
  -1  -2  10    1.00    0.93
   1   2 -10    1.60    1.03
   1   2  -9    0.54    0.70
  -1  -2   9   -0.05    0.83
   1   2  -9    0.54    0.88
   1   2  -9    0.10    0.64
   1   2  -9    1.29    0.62
  -1  -2   8    4.31    0.98
   1   2  -8    6.09    0.85
  -1  -2   8    7.80    0.93
   1   2  -8    7.11    0.87
   1   2  -8    7.29    1.04
  -1  -2   8    5.92    0.78
   1   2  -7  116.50    4.99
   1   2  -7  136.76    4.99
   1   2  -7  111.19    5.09
  -1  -2   7  123.43    5.03
  -1  -2   7  112.19    4.92
  -1  -2   6   33.07    1.72
  -1  -2   6   41.59    1.87
  -1  -2   6   33.86    1.76
  -1  -2   5   67.74    2.72
  -1  -2   5   74.88    2.77
  -1  -2   5   65.01    2.68
  -1  -2   5   53.26    2.49
  -1  -2   5   62.19    2.71
   1   2  -4   74.60    3.20
  -1  -2   4   68.81    3.00
   1   2  -4   77.87    3.11
  -1  -2   4   79.13    3.13
  -1  -2   4   87.95    3.14
  -1  -2   4   71.40    3.07
  -1  -2   4   82.26    3.12
  -1  -2   4   65.27    2.98
  -1  -2   3    7.69    0.54
  -1  -2   3    5.51    0.48
  -1  -2   3    5.37    0.48
  -1  -2   3    5.94    0.50
  -1  -2   3    7.02    0.52
   1   2  -2   33.07    1.42
  -1  -2   2   36.43    1.45
  -1  -2   2   31.45    1.45
   1   2  -2   31.19    1.41
  -1  -2   2   30.57    1.44
  -1  -2   1  298.38   11.00
  -1  -2   1  280.06   10.97
   1   2  -1  278.19   10.93
   1   2  -1  281.30   10.88
  -1  -2   1  307.51   10.97
  -1  -2   1  281.97   10.97
  -1  -2   0  305.20   11.36
  -1  -2   0  293.19   11.34
  -1  -2   0  291.95   11.35
   1   2   1  104.95    4.24
   1   2   1  108.90    4.26
  -1  -2  -1  117.68    4.37
  -1  -2  -1  113.56    4.38
  -1  -2  -1  120.28    4.35
  -1  -2  -2   45.00    1.94
   1   2   2   41.29    1.87
  -1  -2  -2   46.74    1.95
  -1  -2  -2   49.01    2.01
   1   2   2   46.31    1.94
   1   2   2   44.09    1.92
  -1  -2  -2   53.07    1.90
   1   2   3    6.08    0.54
  -1  -2  -3    7.48    0.49
  -1  -2  -3    7.14    0.50
  -1  -2  -3    8.08    0.62
   1   2   4  132.10    4.68
  -1  -2  -4  112.28    4.52
  -1  -2  -4  120.07    4.74
  -1  -2  -4  106.69    4.53
  -1  -2  -5  138.27    5.50
  -1  -2  -5  149.31    5.32
  -1  -2  -5  139.35    5.60
   1   2   5  136.11    5.28
  -1  -2  -5  119.78    5.29
   1   2   5  138.04    5.29
  -1  -2  -6    0.32    0.28
  -1  -2  -6    0.58    0.54
   1   2   6   -0.04    0.63
  -1  -2  -6    0.13    0.53
   1   2   6    0.12    0.31
   1   2   7   79.43    3.23
  -1  -2  -7   77.16    3.41
  -1  -2  -7   58.93    3.23
   1   2   7   79.24    3.07
  -1  -2  -8    0.29    0.68
   1   2   8    0.22    0.43
   1   2   8    0.21    0.80
  -1  -2  -8    0.15    0.74
   1   2   9   16.50    1.52
  -1  -2  -9   12.45    1.26
  -1  -2  -9   16.68    1.43
  -1  -2 -10   17.29    1.47
  -1  -2 -10   17.81    1.60
   1   2  10   18.12    1.66
  -1  -2 -11    7.20    1.23
  -1  -2 -11    7.40    1.25
  -1  -2 -12    0.81    1.10
  -1  -3  10   -0.40    0.87
   1   3 -10   -1.59    0.78
   1   3 -10    1.37    1.08
   1   3 -10   -1.00    0.78
  -1  -3   9    3.59    0.91
   1   3  -9    2.09    0.98
   1   3  -9    1.28    0.78
   1   3  -8   51.17    2.58
   1   3  -8   50.67    2.44
   1   3  -8   46.37    2.59
  -1  -3   8   57.67    2.64
   1   3  -7    0.41    0.78
  -1  -3   7   -0.11    0.69
   1   3  -7   -1.00    0.86
  -1  -3   6    3.05    0.66
   1   3  -6    3.97    0.78
   1   3  -6    5.31    0.86
  -1  -3   6    3.05    0.64
  -1  -3   5   10.90    0.75
  -1  -3   5    8.50    0.78
   1   3  -5   10.41    0.82
   1   3  -5   11.00    0.99
  -1  -3   5    7.69    0.68
  -1  -3   5    9.00    0.82
   1   3  -4   27.51    1.42
  -1  -3   4   27.55    1.46
  -1  -3   4   29.56    1.31
  -1  -3   4   28.54    1.44
  -1  -3   4   26.91    1.37
  -1  -3   4   27.80    1.37
  -1  -3   3   56.73    2.21
  -1  -3   3   43.58    2.16
  -1  -3   3   51.63    2.23
  -1  -3   3   50.11    2.04
  -1  -3   3   49.85    2.23
   1   3  -3   49.88    2.16
   1   3  -2  360.77   14.21
   1   3  -2  358.21   14.29
   1   3  -2  355.71   14.27
   1   3  -2  386.13   14.28
  -1  -3   2  374.43   14.12
  -1  -3   1  288.18    9.99
   1   3  -1  287.36    9.96
  -1  -3   1  231.18    9.99
   1   3  -1  240.58    9.98
  -1  -3   1  275.25   10.07
   1   3  -1  275.92   10.05
   1   3  -1  261.90   10.01
   1   3  -1  242.57    9.84
   1   3   0  280.23   10.28
  -1  -3   0  275.09   10.37
  -1  -3   0  257.71   10.34
   1   3   0  263.22   10.33
   1   3   0  260.67   10.33
  -1  -3  -1  248.73    9.77
   1   3   1  248.11    9.65
   1   3   1  242.74    9.69
  -1  -3  -1  274.00    9.88
  -1  -3  -2  274.50   10.64
   1   3   2  292.88   10.65
   1   3   2  295.67   10.65
  -1  -3  -2  298.29   10.67
   1   3   2  270.31   10.64
   1   3   2  250.75   10.46
  -1  -3  -2  290.23   10.67
  -1  -3  -3  119.62    4.59
  -1  -3  -3  111.99    4.53
   1   3   3  111.88    4.54
   1   3   3  102.86    4.55
  -1  -3  -3  126.07    4.66
   1   3   4   39.77    1.88
  -1  -3  -4   42.43    1.96
  -1  -3  -4   38.73    1.75
  -1  -3  -4   36.42    1.79
  -1  -3  -4   43.38    1.82
  -1  -3  -5   17.40    1.18
   1   3   5   19.12    1.13
  -1  -3  -5   16.37    1.03
  -1  -3  -5   18.05    1.00
  -1  -3  -5   21.31    1.06
   1   3   6    3.64    0.36
  -1  -3  -6    3.53    0.47
  -1  -3  -6    3.37    0.46
   1   3   6    4.79    0.39
  -1  -3  -6    3.24    0.73
  -1  -3  -7   41.64    2.09
  -1  -3  -7   30.50    1.61
   1   3   7   39.28    1.60
   1   3   7   43.38    2.21
   1   3   8   26.76    1.48
   1   3   8   23.48    1.16
  -1  -3  -8   22.10    1.66
   1   3   9   24.64    1.93
  -1  -3  -9   22.31    1.77
   1   3   9   31.25    1.65
   1   3  10    9.14    0.61
   1   3  10   11.49    1.39
  -1  -3 -10   11.21    1.37
  -1  -3 -11    0.13    1.01
  -1  -3 -12    1.62    1.07
  -1  -3 -12    0.77    1.17
   1   3  12    1.37    1.06
   1   4 -10    0.68    0.87
  -1  -4  10    2.96    1.05
   1   4  -9    2.55    1.04
   1   4  -9    0.35    0.88
  -1  -4   9    0.81    0.86
  -1  -4   8   12.13    1.18
   1   4  -8   10.04    1.24
   1   4  -8   14.58    1.33
  -1  -4   7   67.85    3.10
   1   4  -7   64.93    3.09
  -1  -4   7   58.92    3.06
   1   4  -7   71.75    3.25
  -1  -4   6   15.33    1.15
   1   4  -6   18.58    1.38
  -1  -4   6   12.55    1.17
   1   4  -6   14.56    1.16
   1   4  -5    4.79    0.67
  -1  -4   5    3.24    0.66
   1   4  -5    3.55    0.89
   1   4  -5    3.01    0.64
  -1  -4   5    3.46    0.64
  -1  -4   5    3.35    0.42
   1   4  -4   24.06    1.25
  -1  -4   4   21.98    0.99
  -1  -4   4   24.72    1.33
   1   4  -4   25.00    1.30
  -1  -4   4   23.24    1.30
   1   4  -3  130.36    5.56
   1   4  -3  146.64    5.64
  -1  -4   3  151.18    5.76
  -1  -4   3  144.95    5.74
   1   4  -2  408.99   14.45
   1   4  -2  387.07   14.33
   1   4  -2  393.51   14.41
   1   4  -2  361.19   14.39
  -1  -4   2  393.04   14.49
   1   4  -2  341.46   14.22
   1   4  -1  149.84    5.47
   1   4  -1  146.87    5.42
  -1  -4   1  125.66    5.12
   1   4  -1  157.30    5.33
   1   4  -1  128.61    5.12
   1   4  -1  137.49    5.40
  -1  -4   0    2.02    0.54
  -1  -4   0    1.87    0.32
   1   4   0    2.25    0.41
  -1  -4   0    2.29    0.53
  -1  -4  -1  256.84    9.90
   1   4   1  244.91    9.73
  -1  -4  -1  265.60    9.93
  -1  -4  -2  144.21    5.97
   1   4   2  147.71    5.72
   1   4   2  151.77    5.81
  -1  -4  -2  146.44    6.00
   1   4   2  155.49    5.94
  -1  -4  -3    0.03    0.48
   1   4   3   -0.14    0.50
  -1  -4  -3    0.11    0.49
  -1  -4  -3    0.33    0.46
  -1  -4  -3    0.45    0.22
   1   4   3    0.21    0.39
   1   4   3    0.03    0.47
  -1  -4  -4   -0.05    0.27
  -1  -4  -4    0.20    0.47
   1   4   4   -0.10    0.49
  -1  -4  -4    0.48    0.47
  -1  -4  -4    0.03    0.40
  -1  -4  -5   -0.11    0.60
  -1  -4  -5    0.59    0.49
  -1  -4  -5    0.02    0.35
  -1  -4  -5   -0.08    0.38
   1   4   5   -0.07    0.49
   1   4   5   -0.05    0.46
  -1  -4  -6   31.98    1.54
  -1  -4  -6   26.54    1.50
  -1  -4  -6   26.20    1.49
  -1  -4  -6   28.91    1.74
   1   4   7    0.55    0.78
  -1  -4  -7    0.85    0.52
   1   4   7    0.81    0.31
  -1  -4  -7    0.29    0.72
   1   4   7    0.91    0.31
  -1  -4  -8    8.09    1.12
   1   4   8    9.30    1.24
   1   4   8    7.63    0.56
  -1  -4  -8    7.39    0.91
   1   4   9   -0.16    0.67
  -1  -4  -9    0.81    0.77
  -1  -4  -9   -0.55    0.93
   1   4  10    0.92    0.76
  -1  -4 -10    0.06    0.79
  -1  -4 -10   -0.07    0.95
  -1  -4 -11   -0.91    0.98
   1   4  11    0.07    0.46
  -1  -4 -11    0.70    1.06
  -1  -4 -12    3.14    1.21
   1   5 -10    1.37    1.07
  -1  -5   9    1.41    1.00
  -1  -5   8   -0.27    0.90
   1   5  -7   48.59    2.54
  -1  -5   7   42.77    2.31
   1   5  -7   36.90    2.19
   1   5  -6   25.06    1.54
  -1  -5   6   25.67    1.67
   1   5  -6   29.33    1.90
   1   5  -5    6.96    0.81
   1   5  -5    7.42    0.82
  -1  -5   5    7.63    0.89
  -1  -5   5    7.41    0.85
   1   5  -5    8.71    1.16
   1   5  -4    1.99    0.55
   1   5  -4    1.48    0.48
  -1  -5   4    1.14    0.66
   1   5  -4    2.57    0.58
  -1  -5   4    1.58    0.57
   1   5  -3    0.98    0.46
   1   5  -3    0.60    0.42
  -1  -5   3    0.93    0.64
   1   5  -3    2.03    0.50
   1   5  -3    0.72    0.56
  -1  -5   3    0.46    0.50
   1   5  -3    1.40    0.75
   1   5  -3    1.28    0.57
  -1  -5   3    0.68    0.57
   1   5  -2  179.60    6.55
   1   5  -2  173.79    6.67
   1   5  -2  180.74    6.74
  -1  -5   2  176.78    6.76
  -1  -5   2  174.63    6.74
   1   5  -2  148.73    6.36
   1   5  -2  169.73    6.67
  -1  -5   2  153.71    6.58
   1   5  -1  105.72    4.16
   1   5  -1  126.18    4.02
   1   5  -1  112.64    4.15
  -1  -5   1   88.25    3.70
   1   5  -1   95.02    3.69
   1   5  -1  107.63    4.11
  -1  -5   0    1.97    0.60
   1   5   0    1.20    0.49
  -1  -5   0    1.04    0.52
   1   5   0    1.07    0.42
   1   5   0    1.50    0.54
  -1  -5   0    0.94    0.30
   1   5   1  219.11    8.84
   1   5   1  221.82    8.89
  -1  -5  -1  216.67    8.82
  -1  -5  -1  245.82    9.09
   1   5   2  181.08    6.89
   1   5   2  196.39    7.07
  -1  -5  -2  182.28    7.26
  -1  -5  -2  169.94    6.87
   1   5   2  175.50    7.14
  -1  -5  -2  177.59    7.11
  -1  -5  -3    4.02    0.65
  -1  -5  -3    4.22    0.39
  -1  -5  -3    5.09    0.73
   1   5   3    3.63    0.62
  -1  -5  -4  195.30    7.67
  -1  -5  -4  217.18    7.60
  -1  -5  -4  201.02    7.71
  -1  -5  -4  175.38    7.34
   1   5   4  203.53    7.75
   1   5   5   54.95    2.18
  -1  -5  -5   44.06    2.05
  -1  -5  -5   49.52    1.92
  -1  -5  -5   45.74    1.75
  -1  -5  -5   48.22    2.01
  -1  -5  -5   44.58    1.97
   1   5   5   46.89    2.17
  -1  -5  -6  180.93    7.26
   1   5   6  183.61    7.22
  -1  -5  -6  177.23    6.96
  -1  -5  -6  168.31    7.06
  -1  -5  -6  169.93    7.02
  -1  -5  -6  180.20    7.09
   1   5   6  176.40    7.34
   1   5   7   24.52    1.51
  -1  -5  -7   15.94    1.44
  -1  -5  -7   17.45    1.28
   1   5   7   22.06    1.63
  -1  -5  -7   22.42    1.28
  -1  -5  -8   12.55    1.31
  -1  -5  -8   10.77    0.96
   1   5   8   14.78    1.47
  -1  -5  -8   11.81    1.01
  -1  -5  -9    1.65    0.74
  -1  -5  -9    2.49    0.98
   1   5   9    3.19    1.09
   1   5  10    2.15    0.83
  -1  -5 -10    0.88    0.77
  -1  -5 -10    1.74    1.09
  -1  -5 -11    1.44    0.91
  -1  -5 -11    2.91    1.17
   1   5  11    2.95    0.98
  -1  -5 -11    2.59    0.98
  -1  -5 -12   -0.53    1.12
  -1  -5 -12    1.07    1.01
  -1  -6   8    1.84    1.00
  -1  -6   7    1.78    0.88
   1   6  -6   33.51    2.19
  -1  -6   6   29.09    1.82
   1   6  -5    2.45    1.01
  -1  -6   5    2.21    0.74
   1   6  -5    2.70    0.76
   1   6  -4    0.58    0.50
  -1  -6   4    0.04    0.57
   1   6  -4    0.24    0.51
  -1  -6   4    1.09    0.77
   1   6  -4    0.09    0.59
   1   6  -3  106.93    4.65
   1   6  -3  107.27    4.61
   1   6  -3  109.21    4.58
  -1  -6   3  113.59    4.76
   1   6  -3  111.48    4.92
  -1  -6   3  102.55    4.59
   1   6  -3  112.19    4.51
   1   6  -3  109.26    4.34
   1   6  -2   11.99    0.84
  -1  -6   2   14.20    1.16
   1   6  -2   11.73    0.90
   1   6  -2   13.43    1.08
  -1  -6   2   12.51    1.11
   1   6  -2   10.14    0.99
   1   6  -2    8.75    0.56
  -1  -6   2   11.57    0.91
   1   6  -2   10.41    1.00
   1   6  -1    6.62    0.65
   1   6  -1    6.74    0.82
   1   6  -1    6.37    0.84
   1   6  -1    6.89    0.82
  -1  -6   0   10.26    0.63
   1   6   0   10.03    0.95
   1   6   0    9.55    0.76
   1   6   0   10.52    0.98
  -1  -6   0    9.38    0.96
  -1  -6   0    9.71    0.95
   1   6   0   10.42    0.91
  -1  -6  -1   54.78    2.38
  -1  -6  -1   54.10    2.67
   1   6   1   58.21    2.69
   1   6   1   51.39    2.44
   1   6   1   59.16    2.68
  -1  -6  -1   57.82    2.70
   1   6   1   56.46    2.50
  -1  -6  -2  109.96    4.59
  -1  -6  -2  111.03    4.83
  -1  -6  -2  116.68    4.82
   1   6   2  113.28    4.58
   1   6   2  112.52    4.34
   1   6   3   51.76    2.19
   1   6   3   54.30    2.48
  -1  -6  -3   49.68    2.43
  -1  -6  -3   48.35    2.03
   1   6   3   53.41    2.39
  -1  -6  -3   45.37    2.29
  -1  -6  -3   48.73    2.44
   1   6   3   46.75    2.41
  -1  -6  -4   10.14    0.68
  -1  -6  -4   11.00    0.86
  -1  -6  -4    8.61    0.89
  -1  -6  -4   10.61    0.96
   1   6   4    8.90    0.95
  -1  -6  -4   10.93    0.98
  -1  -6  -5   91.45    4.31
  -1  -6  -5   96.20    4.12
   1   6   5  100.52    4.46
  -1  -6  -5  111.70    4.28
   1   6   5  102.40    4.46
   1   6   5  105.95    4.39
  -1  -6  -5  102.56    3.96
  -1  -6  -5   94.38    4.33
  -1  -6  -6   88.90    3.82
  -1  -6  -6   81.49    3.68
  -1  -6  -6  104.79    3.99
   1   6   6   94.48    4.12
   1   6   6  101.82    4.27
   1   6   6   85.18    3.95
  -1  -6  -6   86.51    3.96
   1   6   6  100.70    4.05
  -1  -6  -7    6.64    0.81
   1   6   7    7.28    0.89
  -1  -6  -7    4.24    1.02
  -1  -6  -7    6.21    0.84
  -1  -6  -7    3.44    0.86
   1   6   7    5.90    1.11
  -1  -6  -7    3.85    0.69
   1   6   7    6.37    1.03
   1   6   7    5.95    0.88
  -1  -6  -8    1.80    0.70
  -1  -6  -8    2.40    0.76
   1   6   8    2.58    0.90
  -1  -6  -8    2.72    0.98
  -1  -6  -8    2.23    0.75
   1   6   8    1.21    0.98
  -1  -6  -9   28.84    1.85
   1   6   9   33.18    2.28
  -1  -6  -9   33.23    1.79
  -1  -6  -9   32.97    1.87
  -1  -6  -9   34.60    2.20
  -1  -6 -10   22.54    1.53
  -1  -6 -10   20.95    1.84
  -1  -6 -10   19.38    1.45
  -1  -6 -10   21.48    1.60
   1   6  11    1.61    0.76
  -1  -6 -11    0.15    1.07
  -1  -6 -11    0.79    0.84
  -1  -6 -11    1.59    1.03
   1   6  11    2.17    0.94
   1   6  12    0.36    1.07
  -1  -6 -12    1.78    1.13
  -1  -7   8   -0.60    1.05
  -1  -7   7    0.49    0.91
  -1  -7   6    3.81    0.94
  -1  -7   5    7.30    1.00
   1   7  -5    8.98    0.99
   1   7  -4    0.20    0.57
   1   7  -4    0.66    0.67
  -1  -7   4    0.99    0.82
  -1  -7   4    0.38    0.68
   1   7  -3    6.79    0.82
   1   7  -3    5.44    0.92
   1   7  -3    5.05    0.92
  -1  -7   3    4.85    0.82
   1   7  -3    6.71    1.26
  -1  -7   3    5.43    1.00
   1   7  -3    5.43    0.76
   1   7  -2   48.19    2.24
   1   7  -2   51.20    2.53
   1   7  -2   43.31    2.42
  -1  -7   2   49.65    2.58
   1   7  -2   49.48    2.68
   1   7  -2   46.76    2.35
   1   7  -2   48.84    2.50
  -1  -7   1    0.05    0.76
   1   7  -1   -0.84    0.78
   1   7  -1   -0.16    0.61
   1   7  -1    0.35    0.51
   1   7  -1    0.20    0.68
   1   7  -1   -1.26    0.78
  -1  -7   1   -0.45    0.79
   1   7   0   11.19    1.14
   1   7   0   10.72    1.14
   1   7   0   14.73    0.98
  -1  -7   0   10.28    0.64
   1   7   0   11.66    1.09
  -1  -7  -1  193.88    7.81
  -1  -7  -1  183.22    7.44
   1   7   1  203.71    7.84
  -1  -7  -1  196.94    7.86
   1   7   1  172.95    7.55
   1   7   1  199.37    7.89
   1   7   1  190.36    7.79
   1   7   1  195.40    7.57
  -1  -7  -2  124.06    4.85
   1   7   2  117.21    5.16
   1   7   2  115.96    4.88
   1   7   2  112.83    4.50
   1   7   2  133.94    5.17
  -1  -7  -2  124.76    5.11
  -1  -7  -2  119.57    5.12
   1   7   2  123.26    5.11
   1   7   2  120.99    4.87
   1   7   3   21.44    1.34
   1   7   3   19.26    1.14
  -1  -7  -3   18.41    0.86
  -1  -7  -3   17.66    1.38
   1   7   3   22.45    1.47
  -1  -7  -3   19.28    1.41
   1   7   3   23.07    1.49
  -1  -7  -3   22.43    1.31
  -1  -7  -4    7.68    0.96
  -1  -7  -4    8.36    0.94
   1   7   4    7.52    0.96
  -1  -7  -4    6.58    0.92
   1   7   4    8.45    0.99
  -1  -7  -4    7.28    0.58
  -1  -7  -5  115.93    4.75
  -1  -7  -5  119.80    4.97
   1   7   5  119.68    5.11
   1   7   5  114.70    5.11
   1   7   5  120.27    5.20
  -1  -7  -5  116.42    5.07
  -1  -7  -5  120.63    5.11
  -1  -7  -5  117.09    5.06
  -1  -7  -6  225.46    8.60
   1   7   6  269.23    9.40
  -1  -7  -6  293.21    9.31
  -1  -7  -6  278.05    9.12
   1   7   6  245.14    9.19
  -1  -7  -6  236.38    8.89
   1   7   6  272.96    9.35
   1   7   6  298.94    9.35
  -1  -7  -7   16.05    1.42
   1   7   7   19.89    1.47
   1   7   7   20.77    1.57
   1   7   7   20.51    1.66
  -1  -7  -7   20.49    1.46
  -1  -7  -7   18.74    1.07
   1   7   7   19.62    1.45
  -1  -7  -7   20.11    1.31
   1   7   8   40.48    2.53
  -1  -7  -8   41.40    2.20
   1   7   8   45.04    2.39
  -1  -7  -8   36.26    2.40
  -1  -7  -8   38.39    2.11
  -1  -7  -8   40.23    2.21
  -1  -7  -9   26.52    1.76
   1   7   9   31.28    1.94
  -1  -7  -9   31.06    2.08
  -1  -7  -9   23.88    1.53
  -1  -7  -9   30.30    1.80
  -1  -7 -10   40.96    2.31
  -1  -7 -10   40.72    2.59
  -1  -7 -10   38.74    2.11
   1   7  11   43.91    2.38
  -1  -7 -11   38.07    2.52
  -1  -7 -11   34.79    2.29
   1   7  11   34.79    2.14
  -1  -7 -12    8.88    1.39
  -1  -8   7   11.54    1.42
  -1  -8   6    6.73    1.14
  -1  -8   5   -1.40    0.92
   1   8  -4    0.76    0.68
   1   8  -3    6.04    0.88
  -1  -8   3    5.30    1.11
   1   8  -3    7.36    0.86
   1   8  -2   -0.05    0.79
   1   8  -2    0.29    0.73
   1   8  -2    0.86    0.61
  -1  -8   2   -0.06    0.93
   1   8  -2   -0.24    0.78
   1   8  -2   -0.18    0.64
   1   8  -2    2.08    1.11
   1   8  -1    0.05    0.82
   1   8  -1    0.52    0.72
   1   8  -1    0.43    0.78
  -1  -8   1   -1.06    0.94
   1   8  -1    0.23    0.57
   1   8  -1    0.06    0.98
   1   8  -1   -0.46    0.74
   1   8   0   32.04    2.01
   1   8   0   33.72    2.01
   1   8   0   29.68    1.68
   1   8   0   32.43    1.98
   1   8   1   20.74    1.02
   1   8   1   25.39    1.67
   1   8   1   22.75    1.68
   1   8   1   24.14    1.38
   1   8   1   16.96    1.32
  -1  -8  -1   23.33    1.67
   1   8   1   19.89    1.57
  -1  -8  -1   21.42    1.15
   1   8   2   22.40    1.67
   1   8   2   25.08    1.70
   1   8   2   20.51    1.58
   1   8   2   18.98    1.35
  -1  -8  -2   20.10    1.59
   1   8   2   21.20    1.35
  -1  -8  -2   21.03    1.29
   1   8   3  118.35    5.18
   1   8   3  116.33    4.82
   1   8   3  105.61    5.16
   1   8   3  123.05    5.19
  -1  -8  -3  114.09    5.13
  -1  -8  -3  119.74    4.93
   1   8   4   32.26    2.02
  -1  -8  -4   34.83    1.88
   1   8   4   33.40    1.95
  -1  -8  -4   31.08    1.97
  -1  -8  -4   30.59    1.40
   1   8   4   34.61    2.01
   1   8   5   14.79    1.46
  -1  -8  -5   17.18    1.42
  -1  -8  -5   21.93    1.54
  -1  -8  -5   19.26    1.05
   1   8   6   34.24    2.18
   1   8   6   43.34    2.29
  -1  -8  -6   36.84    2.14
   1   8   6   29.97    2.06
  -1  -8  -6   32.71    1.70
  -1  -8  -6   30.67    2.02
   1   8   6   38.59    2.19
   1   8   7  204.16    8.58
  -1  -8  -7  169.41    8.40
   1   8   7  226.34    8.59
   1   8   7  240.22    8.75
  -1  -8  -7  220.79    8.67
   1   8   7  217.50    8.75
  -1  -8  -7  192.39    8.23
  -1  -8  -7  217.28    8.46
   1   8   8    2.58    0.94
   1   8   8    3.91    1.08
  -1  -8  -8    1.16    0.72
  -1  -8  -8    0.49    0.41
  -1  -8  -8    1.10    0.83
  -1  -8  -8    1.36    0.84
   1   8   8    4.07    1.03
  -1  -8  -9   -0.83    0.98
   1   8   9    0.63    0.91
  -1  -8  -9    0.45    0.77
  -1  -8 -10   47.99    2.91
  -1  -8 -10   51.33    2.66
  -1  -8 -11    4.74    1.19
   1   8  11    7.02    1.23
   1   9  -4    1.30    0.77
   1   9  -3    0.62    0.74
  -1  -9   2   -0.72    1.03
   1   9  -2    0.92    0.84
   1   9  -2    0.20    0.69
   1   9  -2    0.92    0.94
   1   9  -2    0.73    0.93
   1   9  -1    2.67    0.99
  -1  -9   1    3.11    1.06
   1   9  -1    3.70    1.05
   1   9  -1    3.65    0.75
   1   9  -1    3.02    0.99
   1   9  -1    3.16    0.86
   1   9   0    0.51    0.72
   1   9   0    2.72    0.97
   1   9   0    1.73    0.65
   1   9   0    2.49    0.94
   1   9   0    2.46    0.94
   1   9   0    0.47    0.99
   1   9   1    2.43    0.96
  -1  -9  -1    2.48    1.00
   1   9   1    0.66    0.73
   1   9   1    1.57    0.99
   1   9   1    1.87    1.00
   1   9   1    1.50    0.69
   1   9   2   65.68    2.99
   1   9   2   65.60    3.31
  -1  -9  -2   71.66    3.41
   1   9   2   73.12    3.40
  -1  -9  -2   62.88    2.88
   1   9   2   57.87    3.01
   1   9   2   67.53    3.43
   1   9   3   48.94    2.43
  -1  -9  -3   55.56    2.85
  -1  -9  -3   47.84    2.44
   1   9   3   58.16    2.89
   1   9   3   54.13    2.82
   1   9   3   49.68    2.85
   1   9   3   48.01    2.49
  -1  -9  -4   29.21    2.00
   1   9   4   27.47    2.07
  -1  -9  -4   27.72    1.74
   1   9   4   31.93    2.07
   1   9   4   36.23    2.14
  -1  -9  -5   -0.13    0.94
  -1  -9  -5    0.24    0.41
  -1  -9  -5   -1.06    0.85
  -1  -9  -6   52.68    2.92
   1   9   6   51.37    2.93
  -1  -9  -6   48.22    2.35
   1   9   6   60.00    3.00
  -1  -9  -6   53.20    2.82
   1   9   6   55.81    2.92
   1   9   6   65.23    3.09
  -1  -9  -7    8.49    1.20
   1   9   7   10.34    1.34
   1   9   7    9.79    1.29
   1   9   7    6.84    1.33
  -1  -9  -7    9.67    0.91
  -1  -9  -7    6.88    1.18
   1   9   7   11.23    1.38
  -1  -9  -8    2.59    1.09
   1   9   8    2.23    1.09
   1   9   8    2.18    1.10
  -1  -9  -8    2.12    0.95
   1   9   8    3.00    1.12
  -1  -9  -8    2.29    0.77
  -1  -9  -9    2.93    0.84
   1   9   9    4.94    1.17
  -1  -9  -9    2.84    1.07
   1   9  10    2.50    1.19
   1   9  10    0.76    1.07
  -1  -9 -10   -0.29    0.86
  -1  -9 -10    0.15    1.12
  -1  -9 -11    4.35    1.14
   1   9  11    4.34    1.25
   1  10  -3    1.03    0.94
   1  10  -2   31.46    2.14
   1  10  -2   30.69    1.96
   1  10  -1    5.07    1.04
   1  10  -1    7.73    1.28
  -1 -10   1    5.47    1.36
   1  10  -1    5.06    1.18
   1  10   0   -0.07    0.97
  -1 -10   0   -0.07    1.07
   1  10   0   -0.35    1.02
   1  10   1   -0.30    0.96
   1  10   1    0.57    0.97
  -1 -10  -2    1.61    1.08
   1  10   2    1.57    1.01
   1  10   2    1.72    1.05
   1  10   3    2.30    1.06
  -1 -10  -3    2.02    1.08
   1  10   3    2.42    0.98
  -1 -10  -3    1.81    0.73
   1  10   3    1.18    0.98
   1  10   3    1.91    0.79
   1  10   4    1.88    1.09
   1  10   4    1.09    1.07
  -1 -10  -4    0.75    0.96
  -1 -10  -4    0.96    0.76
   1  10   4    1.34    0.76
  -1 -10  -5    1.83    1.05
  -1 -10  -5    2.07    0.90
  -1 -10  -6    2.54    0.51
   1  10   6    1.35    1.11
   1  10   6    2.13    1.15
  -1 -10  -6    1.96    1.06
   1  10   6    2.11    1.16
  -1 -10  -6    0.91    0.92
   1  10   7   12.22    1.49
   1  10   7   10.89    1.50
   1  10   7   12.35    1.54
  -1 -10  -7    9.62    1.29
  -1 -10  -7   12.30    1.43
  -1 -10  -7    9.68    0.92
  -1 -10  -8   34.63    2.32
   1  10   8   31.45    2.41
   1  10   8   43.50    2.54
  -1 -10  -8   35.49    1.88
  -1 -10  -9    6.54    0.97
  -1 -10  -9    6.29    1.33
   1  10   9    5.30    1.42
   1  10  10    3.73    1.29
  -1 -10 -10    3.64    0.97
  -1 -10 -11    4.96    1.06
   1  10  11    6.80    1.48
   1  11  -1    1.73    1.15
   1  11   0    0.83    1.15
   1  11   0    1.58    1.21
   1  11   0    1.46    1.02
   1  11   1    0.41    1.06
   1  11   1    2.39    1.20
   1  11   2    4.95    1.30
   1  11   2    4.49    1.27
  -1 -11  -2    4.15    1.30
   1  11   3    8.77    1.42
  -1 -11  -3    7.18    1.40
   1  11   3    8.96    1.48
   1  11   4    4.46    1.28
  -1 -11  -4    3.10    0.89
  -1 -11  -4    3.97    1.22
   1  11   4    4.75    1.34
  -1 -11  -5   -0.98    1.12
   1  11   5   -1.93    1.32
  -1 -11  -5    1.05    0.86
   1  11   6    1.39    1.25
   1  11   6   -0.09    1.19
  -1 -11  -6   -0.16    0.92
   1  11   6   -1.51    1.24
   1  11   7    3.95    1.38
  -1 -11  -7    3.05    1.09
   1  11   7    5.91    1.44
   1  11   7    5.43    1.40
  -1 -11  -8    0.64    1.08
   1  11   8   -0.52    1.29
   1  11   9    3.37    1.38
  -1 -12  -6    1.12    0.98
  -1 -12  -7    1.14    1.16
  -2  11   6    6.67    1.57
  -2  11   6   10.40    1.41
  -2  11   5    2.34    1.12
  -2  11   4   43.78    2.55
  -2  11   4   44.01    2.96
  -2  11   4   49.53    2.70
  -2  11   3   -0.44    1.22
  -2  11   3   -0.75    1.01
  -2  11   3   -0.06    0.99
  -2  11   2    3.41    1.18
  -2  11   2    3.83    1.34
  -2  11   1    5.16    1.40
  -2  11   1    1.10    1.23
  -2  11   0   -0.51    1.07
  -2  11   0    0.09    1.28
  -2  11   0   -0.45    1.24
  -2  11  -1    0.08    1.16
  -2  11  -1    0.90    1.29
  -2  11  -1    0.87    1.31
  -2  11  -2    1.11    1.21
   2 -10 -10    5.95    1.18
  -2  10  10    6.63    1.42
  -2  10   9    6.69    1.48
   2 -10  -9    7.05    1.04
  -2  10   8    6.90    1.29
  -2  10   8    5.44    1.48
   2 -10  -8    8.84    1.05
   2 -10  -7    3.52    0.79
  -2  10   7    5.90    1.17
  -2  10   7    3.92    1.33
   2 -10  -6    0.10    0.67
  -2  10   6    1.48    0.97
  -2  10   6    1.86    1.23
  -2  10   5   44.83    2.55
  -2  10   4    1.37    1.14
  -2  10   4   -0.46    0.89
  -2  10   4    1.30    0.85
  -2  10   3    1.20    0.93
  -2  10   3    1.44    1.12
  -2  10   3    1.27    0.83
  -2  10   2   -0.79    1.10
  -2  10   2    0.13    0.92
  -2  10   2    0.36    0.95
  -2  10   2   -0.17    0.91
  -2  10   1    0.98    0.96
  -2  10   1    0.08    1.05
  -2  10   0   36.75    2.33
  -2  10   0   38.61    2.52
  -2  10  -1    2.94    1.27
  -2  10  -1    3.09    1.21
  -2  10  -1    1.47    0.93
  -2  10  -1    1.79    1.07
  -2  10  -2    5.88    1.05
  -2  10  -2    6.91    1.42
  -2  10  -2    9.52    1.50
  -2  10  -3    2.44    1.26
  -2  10  -3    2.66    1.35
  -2  10  -3    2.04    0.93
  -2   9  10    0.70    1.10
   2  -9 -10    2.03    0.92
  -2   9   9    7.40    1.42
  -2   9   9    6.58    1.20
   2  -9  -9    8.55    1.10
  -2   9   8    1.34    1.17
   2  -9  -8    0.53    0.75
  -2   9   8    0.79    1.00
   2  -9  -7    0.04    0.67
  -2   9   7   -0.50    1.04
  -2   9   7    0.52    0.93
  -2   9   6    1.60    1.09
  -2   9   6    2.25    1.15
   2  -9  -6    0.92    0.65
  -2   9   6    2.50    0.96
  -2   9   5    5.31    1.28
   2  -9  -5    5.19    0.72
  -2   9   5    5.19    1.19
  -2   9   5    8.75    1.12
  -2   9   4   25.15    1.81
  -2   9   4   26.89    1.66
  -2   9   4   20.75    1.55
  -2   9   4   26.53    1.73
  -2   9   4   25.49    1.95
  -2   9   3    2.47    1.05
  -2   9   3    1.15    0.76
  -2   9   3    0.05    0.80
  -2   9   3    1.17    1.11
  -2   9   3    1.15    0.83
  -2   9   2   -1.40    0.91
  -2   9   2   -0.42    0.91
  -2   9   2    0.51    1.04
  -2   9   2    0.37    0.86
  -2   9   2    0.15    0.79
  -2   9   1    6.20    1.13
  -2   9   1    4.49    1.03
  -2   9   1    4.24    1.13
  -2   9   1    4.19    0.96
  -2   9   0   18.76    1.72
  -2   9   0   18.87    1.59
  -2   9   0   15.53    1.45
  -2   9   0   17.86    1.61
  -2   9  -1   40.18    2.47
  -2   9  -2    5.94    0.95
  -2   9  -2    6.98    1.24
  -2   9  -2    4.78    1.21
  -2   9  -3   11.25    1.42
  -2   9  -3   10.53    1.13
  -2   9  -3   11.20    1.43
  -2   9  -4    5.96    1.01
  -2   9  -5    2.73    0.86
   2  -8 -11    4.21    1.12
  -2   8  10    0.79    1.00
   2  -8 -10    0.49    0.88
   2  -8  -9    6.12    1.02
  -2   8   9    5.44    1.20
  -2   8   9    7.87    1.16
  -2   8   9    8.17    1.31
   2  -8  -8    0.09    0.70
  -2   8   8   -0.45    0.90
   2  -8  -8    0.28    0.33
   2  -8  -8    0.27    0.38
  -2   8   8   -0.38    1.01
   2  -8  -7   -0.42    0.93
  -2   8   7    0.53    1.09
   2  -8  -7    0.04    0.68
  -2   8   7   -0.38    0.95
  -2   8   7    0.31    1.03
  -2   8   7    0.54    0.84
  -2   8   6    0.67    0.78
   2  -8  -6    1.17    0.65
  -2   8   6    0.14    1.10
  -2   8   6    1.10    1.05
  -2   8   6    1.92    0.98
   2  -8  -5    0.58    0.59
  -2   8   5    1.55    0.91
  -2   8   5    1.95    1.06
  -2   8   5    0.15    0.82
  -2   8   5    0.85    1.01
  -2   8   5    0.99    0.61
   2  -8  -4   -0.47    0.55
  -2   8   4    1.12    0.70
  -2   8   4    0.82    0.65
  -2   8   4   -0.48    0.93
  -2   8   4    1.20    0.69
  -2   8   4    1.24    0.76
  -2   8   3    0.99    0.73
  -2   8   3   -0.37    0.83
  -2   8   3   -0.41    0.72
  -2   8   3   -0.14    0.76
  -2   8   3   -0.70    0.98
  -2   8   3   -0.39    0.89
  -2   8   2    6.65    0.67
  -2   8   2    6.23    0.91
  -2   8   2    5.68    0.95
  -2   8   2    5.57    0.98
  -2   8   2    7.65    1.02
  -2   8   2    7.59    1.20
  -2   8   2    6.74    1.15
  -2   8   1    4.15    1.08
  -2   8   1    5.07    1.03
  -2   8   1    5.92    1.00
  -2   8   1    5.07    0.93
  -2   8   0    0.82    0.94
  -2   8   0   -0.66    0.86
  -2   8   0    0.31    0.94
  -2   8   0    0.39    0.78
  -2   8  -1   10.70    1.27
  -2   8  -1   11.37    1.36
  -2   8  -1    9.67    1.22
  -2   8  -2   -1.51    1.03
  -2   8  -2   -0.23    0.67
  -2   8  -2   -0.77    0.92
  -2   8  -2   -0.06    0.88
  -2   8  -2    0.56    1.03
  -2   8  -3   -0.61    0.98
  -2   8  -3    0.31    0.67
  -2   8  -3   -0.30    1.04
  -2   8  -3    0.13    0.94
  -2   8  -4    0.89    0.97
  -2   8  -4    0.95    0.97
  -2   8  -4    0.73    0.69
  -2   8  -5    2.93    0.78
   2  -8   6    2.09    0.77
   2  -7 -11    1.26    1.07
   2  -7 -10    0.63    0.99
  -2   7  10    0.94    0.97
  -2   7  10    0.38    0.87
  -2   7  10    0.47    0.91
   2  -7  -9    3.03    0.95
  -2   7   9    4.17    0.99
  -2   7   9    1.97    0.97
  -2   7   9    1.27    0.95
   2  -7  -8   10.52    1.29
  -2   7   8    8.66    1.25
  -2   7   8   14.07    1.22
  -2   7   8   12.88    1.29
   2  -7  -8   10.61    1.10
   2  -7  -7    0.80    0.65
  -2   7   7    0.44    0.78
   2  -7  -7   -1.25    0.95
  -2   7   7    1.68    1.00
  -2   7   7    0.14    1.08
  -2   7   7    1.06    0.88
   2  -7  -6    5.34    0.78
   2  -7  -6    5.14    0.95
  -2   7   6    4.60    0.89
   2  -7  -6    4.64    0.39
  -2   7   6    7.07    1.20
  -2   7   6    5.53    1.01
  -2   7   6    7.84    1.12
   2  -7  -5    0.35    0.54
  -2   7   5    0.27    0.50
   2  -7  -5   -0.75    0.81
  -2   7   5    0.78    0.89
  -2   7   5    1.63    0.80
  -2   7   5    1.47    0.90
  -2   7   5    0.23    0.94
  -2   7   5    0.65    0.52
   2  -7  -4   -0.31    0.51
  -2   7   4    0.13    0.67
  -2   7   4    1.23    0.61
  -2   7   4    0.35    0.59
  -2   7   4   -0.40    0.86
  -2   7   4    0.84    0.57
   2  -7  -3    0.16    0.42
  -2   7   3    0.20    0.66
  -2   7   3   -0.13    0.59
  -2   7   3   -0.34    0.64
  -2   7   3   -0.38    0.65
  -2   7   3    0.39    0.80
  -2   7   3    0.69    0.86
  -2   7   3    0.71    0.84
  -2   7   2    0.04    0.67
  -2   7   2    0.74    0.47
  -2   7   2    0.59    0.83
  -2   7   2    0.05    0.66
  -2   7   2    0.10    0.79
  -2   7   2    0.35    0.69
  -2   7   2    0.58    0.68
  -2   7   1   11.08    0.75
  -2   7   1    9.21    1.00
  -2   7   1   10.95    0.73
  -2   7   1   12.43    1.16
  -2   7   1   11.50    0.95
  -2   7   1   10.20    0.56
  -2   7   1   12.47    1.29
  -2   7   1   11.52    1.23
  -2   7   0   99.52    4.28
  -2   7   0  100.65    4.41
  -2   7   0  116.46    4.34
  -2   7   0  111.12    4.91
  -2   7   0  111.39    4.83
  -2   7   0  116.74    4.82
  -2   7   0  115.46    4.40
  -2   7  -1   54.66    2.86
  -2   7  -1   52.60    2.45
  -2   7  -1   52.84    2.26
  -2   7  -1   57.50    2.30
  -2   7  -1   60.39    2.88
  -2   7  -1   50.71    2.27
  -2   7  -1   56.44    2.86
  -2   7  -2   18.38    1.52
  -2   7  -2   15.92    1.19
  -2   7  -2   19.91    1.58
  -2   7  -2   17.35    1.28
  -2   7  -2   21.54    1.05
  -2   7  -2   17.61    1.53
  -2   7  -3    1.77    0.65
  -2   7  -3    1.05    0.82
  -2   7  -3    1.83    0.85
  -2   7  -3    2.12    0.93
  -2   7  -3    1.75    0.62
  -2   7  -3    2.85    1.03
  -2   7  -4    4.01    1.00
  -2   7  -4    5.79    1.14
  -2   7  -4    3.99    1.01
  -2   7  -4    5.08    0.93
  -2   7  -4    4.59    0.99
  -2   7  -4    4.11    0.74
   2  -7   5    1.81    0.62
  -2   7  -5    1.73    0.85
  -2   7  -5    1.60    0.87
  -2   7  -5    2.44    0.66
  -2   7  -5    2.08    0.93
   2  -7   6    3.42    0.69
   2  -7   7    1.02    0.72
  -2   7  -7   -0.07    1.09
   2  -7   8    3.80    0.95
   2  -6 -11    5.40    1.17
  -2   6  11    5.48    1.15
  -2   6  10    1.28    0.77
   2  -6 -10   -0.96    0.91
  -2   6  10    0.35    0.71
  -2   6   9   15.11    1.32
  -2   6   9   13.86    1.29
  -2   6   9   16.15    1.39
   2  -6  -9   16.90    1.40
  -2   6   8   16.06    1.43
  -2   6   8   18.89    1.41
   2  -6  -8   19.87    1.53
  -2   6   8   21.33    1.85
   2  -6  -8   21.99    1.48
  -2   6   8   17.26    1.43
  -2   6   7   11.38    1.45
   2  -6  -7   11.55    1.18
  -2   6   7   10.50    1.12
  -2   6   7   12.00    1.11
  -2   6   7   11.40    1.27
   2  -6  -7   11.87    1.10
  -2   6   6   -0.91    0.82
   2  -6  -6   -0.18    0.60
  -2   6   6    0.08    0.26
  -2   6   6    0.05    0.85
   2  -6  -6   -0.69    0.78
  -2   6   6   -0.90    0.96
  -2   6   6    0.31    0.29
  -2   6   6   -0.38    0.74
  -2   6   5   -0.57    0.75
  -2   6   5    0.72    0.64
   2  -6  -5    0.03    0.52
  -2   6   5    0.11    0.85
  -2   6   5    1.01    0.73
  -2   6   5    0.32    0.39
   2  -6  -5    0.55    0.27
  -2   6   4  191.76    8.02
  -2   6   4  213.93    8.22
   2  -6  -4  213.73    7.76
  -2   6   4  218.32    8.35
   2  -6  -4  203.03    8.04
  -2   6   3    5.20    0.70
  -2   6   3    7.53    0.78
  -2   6   3    6.99    0.73
  -2   6   3    7.47    0.89
  -2   6   3    6.52    0.79
   2  -6  -3    6.51    0.62
  -2   6   3    7.33    0.95
  -2   6   3    6.21    0.90
  -2   6   2    6.26    0.84
  -2   6   2    7.62    0.80
  -2   6   2    6.51    0.91
  -2   6   2    6.39    0.74
  -2   6   2    5.72    0.79
  -2   6   2    5.95    0.71
  -2   6   2    6.49    0.59
  -2   6   1   60.36    2.49
  -2   6   1   68.96    3.09
  -2   6   1   61.75    2.74
  -2   6   1   62.10    2.59
  -2   6   1   58.24    2.87
  -2   6   1   64.18    2.60
  -2   6   1   69.12    2.91
  -2   6   1   64.09    2.99
  -2   6   0    1.29    0.48
  -2   6   0    1.30    0.73
  -2   6   0    0.85    0.75
  -2   6   0    0.12    0.67
  -2   6   0    0.82    0.37
  -2   6   0    1.51    0.42
  -2   6   0    0.57    0.35
  -2   6  -1   30.64    1.33
  -2   6  -1   27.94    1.35
  -2   6  -1   33.72    1.84
  -2   6  -1   32.55    1.53
  -2   6  -1   32.80    1.88
  -2   6  -1   30.21    1.78
  -2   6  -1   26.68    1.35
  -2   6  -2   43.49    1.61
  -2   6  -2   37.18    1.86
  -2   6  -2   30.16    1.43
  -2   6  -2   37.56    1.83
  -2   6  -2   40.77    2.11
  -2   6  -2   36.79    2.03
  -2   6  -2   42.01    2.11
  -2   6  -3    2.00    0.82
  -2   6  -3    2.00    0.85
  -2   6  -3    2.91    0.60
  -2   6  -3    2.49    0.84
   2  -6   3    1.47    0.46
  -2   6  -3    2.29    0.71
  -2   6  -3    2.18    0.49
  -2   6  -4    2.59    0.82
  -2   6  -4    3.02    0.82
  -2   6  -4    4.02    0.68
  -2   6  -4    4.22    0.99
  -2   6  -4    3.68    0.94
   2  -6   4    3.21    0.53
  -2   6  -4    2.75    0.80
  -2   6  -5   20.71    1.61
  -2   6  -5   24.28    1.48
   2  -6   5   21.26    1.29
  -2   6  -5   22.43    1.34
  -2   6  -5   25.75    1.61
  -2   6  -5   21.09    1.52
   2  -6   6    0.13    0.58
  -2   6  -6    0.84    0.93
  -2   6  -7   -1.06    1.00
   2  -6   7   -0.35    0.70
  -2   6  -8    1.02    1.03
   2  -6   8    1.25    0.84
  -2   6  -9    6.66    1.32
   2  -6   9    4.41    1.10
  -2   5  11   -0.23    0.97
  -2   5  10   -0.05    0.88
   2  -5 -10   -0.51    0.92
   2  -5  -9    1.27    0.87
  -2   5   9    1.29    0.67
   2  -5  -9    1.19    0.87
  -2   5   9    1.30    0.74
  -2   5   8    9.24    1.09
  -2   5   8   13.76    1.19
  -2   5   8   11.69    1.50
  -2   5   8   10.64    1.06
   2  -5  -8   12.02    1.20
   2  -5  -8   13.30    1.23
   2  -5  -7    4.71    0.88
  -2   5   7    3.69    0.90
  -2   5   7    4.21    0.83
   2  -5  -7    5.69    0.93
  -2   5   7    4.19    1.12
  -2   5   7    5.44    0.83
   2  -5  -7    7.01    0.96
   2  -5  -6   24.70    1.58
  -2   5   6   24.62    1.60
   2  -5  -6   26.49    1.59
  -2   5   6   26.75    1.82
  -2   5   6   25.22    1.53
  -2   5   6   23.76    1.49
   2  -5  -6   26.98    1.54
  -2   5   5   21.34    1.38
   2  -5  -5   21.98    1.35
   2  -5  -5   21.65    1.38
  -2   5   5   20.79    0.91
  -2   5   5   15.35    0.86
  -2   5   5   19.93    1.32
  -2   5   5   22.92    1.29
  -2   5   5   22.05    1.46
   2  -5  -5   21.00    1.22
   2  -5  -4  142.44    5.61
   2  -5  -4  154.01    5.48
  -2   5   4  149.52    5.56
  -2   5   4  135.65    5.63
   2  -5  -4  138.07    5.22
  -2   5   3  494.64   17.84
  -2   5   3  502.57   17.97
  -2   5   3  438.21   18.01
  -2   5   3  453.29   17.91
  -2   5   3  501.81   17.88
  -2   5   3  511.42   18.04
   2  -5  -3  446.97   17.62
  -2   5   3  441.07   18.04
  -2   5   3  403.82   17.75
   2  -5  -3  468.62   18.01
   2  -5  -3  520.51   17.83
  -2   5   2   11.37    0.94
   2  -5  -2   11.62    0.61
  -2   5   2   13.18    0.86
  -2   5   2   11.96    0.87
  -2   5   2   13.42    0.79
  -2   5   2   12.33    0.93
   2  -5  -2   12.05    0.73
  -2   5   1    8.60    0.71
  -2   5   1    7.20    0.76
  -2   5   1    7.95    0.46
  -2   5   1    7.41    0.69
  -2   5   1    9.24    0.79
  -2   5   1    6.65    0.55
  -2   5   0  706.51   26.77
  -2   5   0  706.87   26.86
  -2   5   0  705.33   26.88
  -2   5   0  713.36   26.81
  -2   5   0  705.51   27.06
  -2   5  -1    2.47    0.49
  -2   5  -1    1.74    0.62
  -2   5  -1    1.06    0.35
  -2   5  -1    1.46    0.30
  -2   5  -1    2.33    0.67
  -2   5  -1    0.85    0.63
  -2   5  -2    8.42    0.74
  -2   5  -2    7.98    0.89
  -2   5  -2    7.92    0.49
  -2   5  -2    8.43    0.55
  -2   5  -2    9.46    0.75
  -2   5  -2    7.77    0.91
  -2   5  -2    9.23    0.95
  -2   5  -3    0.81    0.66
  -2   5  -3    0.45    0.45
  -2   5  -3    0.50    0.69
  -2   5  -3    0.37    0.19
  -2   5  -3    0.44    0.17
  -2   5  -3   -0.45    0.61
   2  -5   3    0.87    0.37
  -2   5  -3    0.22    0.67
  -2   5  -4    0.92    0.70
   2  -5   4    0.96    0.43
  -2   5  -4    1.06    0.68
  -2   5  -4    0.06    0.47
  -2   5  -4   -0.19    0.77
  -2   5  -4    0.94    0.71
  -2   5  -4    0.08    0.63
  -2   5  -5   16.70    1.38
   2  -5   5   15.59    1.04
  -2   5  -5   15.94    1.20
  -2   5  -5   18.44    1.32
  -2   5  -5   17.80    1.16
  -2   5  -6    3.28    0.76
   2  -5   6    4.92    0.70
  -2   5  -6    4.22    0.98
  -2   5  -6    4.90    1.06
  -2   5  -7   12.59    1.33
  -2   5  -7   12.73    1.29
   2  -5   7   12.68    1.00
  -2   5  -7   14.09    1.46
  -2   5  -8    1.12    0.93
   2  -5   8    0.19    0.65
   2  -5   9    2.19    0.85
  -2   5  -9    3.14    1.08
  -2   5 -10    0.54    1.02
   2  -5  10    0.23    0.86
   2  -4 -11   -0.38    1.00
  -2   4  11    0.12    0.98
   2  -4 -10    3.72    1.05
  -2   4  10    5.10    1.02
   2  -4 -10    3.51    0.50
   2  -4  -9    0.21    0.40
  -2   4   9    0.24    0.57
   2  -4  -9   -0.06    0.81
  -2   4   9    0.23    0.78
   2  -4  -9   -0.35    0.87
  -2   4   8   37.69    2.35
   2  -4  -8   32.02    1.61
   2  -4  -8   39.63    2.12
   2  -4  -8   39.09    2.14
   2  -4  -8   36.37    2.00
   2  -4  -7    5.41    0.56
  -2   4   7    7.03    1.18
  -2   4   7    6.12    0.83
   2  -4  -7    6.12    0.94
   2  -4  -7    6.99    0.87
   2  -4  -7    7.27    0.94
   2  -4  -6    9.63    0.88
   2  -4  -6    9.44    0.97
  -2   4   6   11.57    1.16
   2  -4  -6   10.37    0.97
   2  -4  -6    9.52    0.67
  -2   4   6    8.42    0.84
  -2   4   5   29.46    1.47
   2  -4  -5   29.17    1.58
   2  -4  -5   27.71    1.54
  -2   4   5   27.44    1.65
   2  -4  -5   23.82    1.54
   2  -4  -4   76.54    3.41
  -2   4   4   73.12    3.04
  -2   4   4   78.26    3.45
   2  -4  -4   70.06    3.38
  -2   4   4   78.93    3.32
  -2   4   4   85.32    3.07
   2  -4  -3    0.28    0.23
  -2   4   3    0.59    0.42
  -2   4   3    0.30    0.45
   2  -4  -3   -0.03    0.47
  -2   4   3    0.13    0.55
  -2   4   3   -0.03    0.31
  -2   4   3   -0.08    0.33
  -2   4   2  167.07    6.89
  -2   4   2  179.98    6.85
   2  -4  -2  178.80    6.74
  -2   4   2  172.69    6.91
  -2   4   2  176.55    6.97
  -2   4   2  172.00    6.84
  -2   4   1  226.61    9.05
  -2   4   1  252.93    9.06
  -2   4   1  231.32    8.88
  -2   4   1  243.30    9.06
   2  -4  -1  210.15    8.90
  -2   4   1  251.48    8.97
  -2   4   0  998.63   38.50
  -2   4   0 1048.05   38.62
  -2   4   0 1026.99   38.62
  -2   4   0  990.96   38.74
  -2   4   0 1053.36   38.59
  -2   4  -1 1232.74   47.55
  -2   4  -1 1345.89   47.90
  -2   4  -1 1291.97   47.75
  -2   4  -2   19.87    1.09
   2  -4   2   18.84    0.93
  -2   4  -2   22.23    1.24
  -2   4  -2   17.78    1.12
  -2   4  -2   21.60    0.95
   2  -4   3   -0.05    0.31
  -2   4  -3    0.03    0.51
  -2   4  -3    0.64    0.49
  -2   4  -3   -0.09    0.38
  -2   4  -3    0.14    0.51
  -2   4  -4   29.20    1.62
  -2   4  -4   26.82    1.44
  -2   4  -4   25.19    1.19
  -2   4  -4   31.13    1.54
  -2   4  -4   27.29    1.55
  -2   4  -4   24.50    1.43
  -2   4  -4   27.38    1.34
   2  -4   4   23.45    1.25
  -2   4  -5   11.33    0.81
  -2   4  -5   10.46    0.92
  -2   4  -5    8.45    0.61
   2  -4   5    9.28    0.72
  -2   4  -5    8.84    0.86
  -2   4  -6    9.83    1.05
   2  -4   6    8.91    0.79
  -2   4  -6    9.11    1.03
  -2   4  -6    8.57    0.82
  -2   4  -6    8.33    0.68
  -2   4  -6   10.47    0.90
  -2   4  -7   18.08    1.42
  -2   4  -7   19.77    1.44
   2  -4   7   20.57    1.25
  -2   4  -8    1.46    0.87
  -2   4  -8    1.75    0.81
   2  -4   8    1.70    0.67
   2  -4   9    3.21    0.84
  -2   4  -9    3.51    1.03
  -2   4 -10    0.30    0.88
   2  -4  10    0.38    0.87
   2  -4  11    4.50    1.06
  -2   4 -11    3.47    1.03
   2  -3 -11    2.65    1.10
  -2   3  11    1.84    0.99
   2  -3 -10    1.01    0.93
  -2   3  10    1.84    0.93
  -2   3   9    0.18    0.42
  -2   3   9    0.41    0.39
  -2   3   9   -0.19    0.73
  -2   3   9   -0.07    1.14
   2  -3  -9    0.05    0.82
   2  -3  -9   -0.05    0.78
   2  -3  -8    2.13    0.85
  -2   3   8    1.15    0.51
  -2   3   8    0.75    0.52
   2  -3  -8    2.64    0.83
   2  -3  -8    2.69    0.87
  -2   3   8    2.89    0.78
   2  -3  -7   13.55    1.11
   2  -3  -7   11.71    1.08
  -2   3   7    9.80    0.84
  -2   3   7   12.21    0.87
  -2   3   7   10.39    1.25
   2  -3  -7   12.16    1.07
   2  -3  -6    5.06    0.73
   2  -3  -6    4.95    0.72
  -2   3   6    6.25    0.89
  -2   3   6    6.24    0.73
   2  -3  -6    5.39    0.76
  -2   3   6    5.16    0.65
   2  -3  -6    6.56    0.53
  -2   3   6    5.06    0.64
   2  -3  -5   78.96    3.30
   2  -3  -5   89.32    3.38
  -2   3   5   83.07    3.25
  -2   3   5   75.66    3.20
   2  -3  -5   64.76    3.04
   2  -3  -5   74.14    3.23
  -2   3   4  744.40   28.36
   2  -3  -4  752.44   28.43
  -2   3   4  692.35   28.37
   2  -3  -4  739.27   28.28
   2  -3  -4  817.99   28.44
  -2   3   3   23.03    1.19
   2  -3  -3   23.27    1.27
   2  -3  -3   20.54    1.11
  -2   3   3   24.19    0.98
  -2   3   3   22.12    1.15
   2  -3  -3   22.14    1.15
  -2   3   3   21.90    0.98
  -2   3   2  133.66    4.76
  -2   3   2  127.89    4.85
  -2   3   2  124.86    4.83
   2  -3  -2  112.48    4.72
   2  -3  -2  113.19    4.87
   2  -3  -2  126.78    4.93
  -2   3   2  134.67    4.92
  -2   3   2  106.99    4.72
  -2   3   2  131.13    4.84
  -2   3   1  403.99   15.82
  -2   3   1  409.22   15.83
  -2   3   1  420.87   15.87
  -2   3   1  427.82   15.82
  -2   3   1  415.58   15.91
  -2   3   0    0.71    0.27
  -2   3   0    0.64    0.14
   2  -3   0    1.41    0.42
  -2   3   0    0.42    0.34
  -2   3   0    0.70    0.27
  -2   3   0    0.06    0.30
  -2   3  -1 2251.57   85.56
  -2   3  -1 2272.39   85.36
   2  -3   1 2278.28   85.67
   2  -3   2   31.67    1.61
   2  -3   2   30.67    1.31
  -2   3  -2   33.51    1.45
  -2   3  -2   26.78    1.48
  -2   3  -2   34.31    1.55
   2  -3   3  298.78   11.25
  -2   3  -3  285.09   11.33
  -2   3  -3  313.38   11.44
  -2   3  -3  273.93   11.49
   2  -3   3  302.47   11.58
  -2   3  -4  242.12    9.12
   2  -3   4  254.40    9.24
  -2   3  -4  231.59    8.99
  -2   3  -4  231.34    8.97
  -2   3  -4  224.02    9.18
  -2   3  -4  202.86    8.88
   2  -3   4  244.51    8.90
  -2   3  -5   35.19    1.59
  -2   3  -5   33.44    1.61
  -2   3  -5   36.45    1.68
   2  -3   5   33.82    1.63
  -2   3  -5   33.03    1.65
  -2   3  -6   33.67    1.79
   2  -3   6   33.66    1.65
  -2   3  -6   34.56    1.81
  -2   3  -6   29.68    1.59
  -2   3  -6   34.42    1.62
   2  -3   6   33.20    1.71
  -2   3  -6   33.08    1.59
  -2   3  -6   33.03    1.50
   2  -3   7   13.28    1.00
  -2   3  -7   13.33    0.98
  -2   3  -7   12.02    0.85
  -2   3  -7   13.38    1.08
  -2   3  -7   12.41    1.09
   2  -3   7   12.57    1.03
   2  -3   8   -0.28    0.71
  -2   3  -8    0.66    0.70
  -2   3  -8    0.40    0.73
   2  -3   8    0.60    0.68
   2  -3   9    2.98    0.80
  -2   3  -9    3.28    0.84
   2  -3  10    1.34    0.83
  -2   3 -10    1.51    0.86
  -2   3 -11    0.18    0.79
   2  -3  11    0.05    0.88
  -2   2  11   -0.23    0.93
   2  -2 -11   -0.40    1.05
  -2   2  10    5.70    1.03
   2  -2 -10    5.02    1.07
  -2   2   9    0.97    0.79
   2  -2  -9    1.83    0.86
   2  -2  -9    0.55    0.80
  -2   2   9    0.56    1.06
  -2   2   8    4.58    1.09
   2  -2  -8    4.71    0.91
  -2   2   8    6.29    0.89
   2  -2  -8    4.72    0.85
  -2   2   8    3.97    0.44
  -2   2   8    5.03    0.46
  -2   2   7    2.61    0.72
  -2   2   7    2.08    0.45
   2  -2  -7    2.76    0.74
  -2   2   7    2.13    0.44
   2  -2  -7    5.41    0.78
   2  -2  -6   44.56    2.16
  -2   2   6   42.36    2.30
  -2   2   6   42.27    1.95
   2  -2  -6   48.66    2.23
  -2   2   6   46.85    2.13
   2  -2  -6   45.09    2.21
   2  -2  -5  189.45    7.25
  -2   2   5  188.58    7.14
  -2   2   5  169.49    7.02
   2  -2  -4  442.25   16.99
   2  -2  -3  212.23    9.35
  -2   2   3  190.73    9.30
   2  -2  -3  217.94    9.38
   2  -2  -2  125.62    5.29
  -2   2   2  130.72    5.27
   2  -2  -2  128.78    5.31
   2  -2  -2  137.16    5.32
   2  -2  -2  148.12    5.39
  -2   2   2  146.62    5.33
   2  -2  -1  276.77   11.52
  -2   2   1  325.01   11.51
  -2   2   1  311.99   11.50
   2  -2  -1  298.19   11.53
  -2   2   1  280.97   11.53
   2  -2  -1  327.72   11.62
  -2   2   1  301.25   11.51
   2  -2  -1  283.10   11.52
  -2   2   1  322.48   11.59
   2  -2  -1  303.24   11.61
   2  -2   0  571.62   20.65
  -2   2   0  550.17   20.63
  -2   2   0  510.96   20.62
  -2   2   0  544.93   20.61
  -2   2   0  555.40   20.55
   2  -2   0  553.69   20.68
  -2   2   0  521.74   20.61
   2  -2   1  561.64   20.70
   2  -2   1  534.38   20.66
  -2   2  -1  535.85   20.66
  -2   2  -2  320.78   12.37
   2  -2   2  344.31   12.57
  -2   2  -2  315.74   12.50
  -2   2  -3   11.70    0.65
   2  -2   3   11.31    0.62
  -2   2  -3   11.69    0.86
   2  -2   3   13.79    0.89
   2  -2   4   26.05    1.40
  -2   2  -4   26.51    1.06
  -2   2  -4   22.27    1.11
  -2   2  -4   19.13    1.17
   2  -2   4   25.67    1.15
  -2   2  -5    0.33    0.29
   2  -2   5    0.15    0.57
   2  -2   5    0.29    0.39
  -2   2  -5    0.81    0.37
  -2   2  -5    0.46    0.47
   2  -2   6   10.16    0.81
  -2   2  -6   10.79    0.88
  -2   2  -6   10.93    0.72
   2  -2   6   11.73    1.07
  -2   2  -6   10.01    0.72
  -2   2  -6   11.34    0.92
  -2   2  -6   14.72    0.99
   2  -2   6   11.41    0.82
  -2   2  -6   12.44    0.75
  -2   2  -7    0.64    0.57
  -2   2  -7    0.36    0.31
   2  -2   7    1.10    0.53
  -2   2  -7    1.24    0.46
   2  -2   7    1.11    0.56
  -2   2  -7    0.58    0.62
  -2   2  -7    1.07    0.62
  -2   2  -7    0.38    0.33
  -2   2  -8   15.54    1.11
  -2   2  -8   16.31    1.14
  -2   2  -8   13.84    1.13
   2  -2   8   12.41    1.04
   2  -2   8   16.88    1.17
   2  -2   9   11.70    1.09
   2  -2   9    9.42    1.01
  -2   2  -9   11.44    1.01
  -2   2  -9   11.51    1.05
  -2   2 -10    1.95    0.72
   2  -2  10    1.58    0.89
  -2   2 -10    2.39    0.74
  -2   2 -11    0.70    0.70
   2  -2  11    0.37    0.97
  -2   2 -11    0.37    0.66
  -2   1  11    4.29    1.10
   2  -1 -11    3.03    1.18
   2  -1 -10   -0.54    0.95
  -2   1  10   -0.26    0.84
  -2   1  10    0.75    1.19
   2  -1  -9   19.00    1.51
  -2   1   9   24.00    1.78
   2  -1  -9   15.75    1.35
  -2   1   9   19.89    1.43
   2  -1  -8    0.40    0.25
   2  -1  -8    0.05    0.24
   2  -1  -8    0.04    0.66
  -2   1   8   -0.08    0.69
   2  -1  -8    1.16    0.76
  -2   1   8    0.47    0.99
   2  -1  -7    7.05    0.95
  -2   1   7    5.23    0.44
   2  -1  -7    6.38    0.41
  -2   1   7    7.16    1.06
  -2   1   7    8.33    0.86
   2  -1  -7    7.43    0.41
   2  -1  -7    7.13    0.87
  -2   1   7    5.48    0.42
   2  -1  -6    5.37    0.75
  -2   1   6    7.86    0.73
  -2   1   6    4.23    0.42
   2  -1  -6    5.69    0.70
   2  -1  -6    4.96    0.35
   2  -1  -5    0.32    0.48
  -2   1   5    0.21    0.43
   2  -1  -5    0.15    0.21
  -2   1   4    8.90    0.65
   2  -1  -4    8.76    0.74
  -2   1   3  485.95   19.27
   2  -1  -3  536.91   19.37
  -2   1   2  647.54   25.06
   2  -1  -2  659.79   25.12
   2  -1  -2  689.36   25.14
   2  -1  -1  107.09    3.92
   2  -1  -1  104.03    3.92
   2  -1  -1  107.54    4.04
  -2   1   1   91.89    3.90
   2  -1  -1   93.42    3.93
   2  -1  -1  122.28    4.03
   2  -1  -1   98.73    3.99
   2  -1   0    3.64    0.33
   2  -1   0    2.82    0.18
  -2   1   0    3.03    0.19
   2  -1   0    3.62    0.33
  -2   1   0    3.43    0.29
  -2   1   0    3.15    0.31
   2  -1   0    3.01    0.24
   2  -1   0    4.54    0.37
   2  -1   0    4.13    0.39
  -2   1   0    3.00    0.28
   2  -1   1 1284.26   48.37
   2  -1   1 1297.87   48.37
  -2   1  -1 1262.86   48.41
   2  -1   1 1278.99   48.41
   2  -1   2  311.06   11.73
  -2   1  -2  292.88   11.59
  -2   1  -3  246.14    9.54
  -2   1  -3  238.07    9.38
  -2   1  -3  252.36    9.56
   2  -1   3  277.61    9.64
  -2   1  -4    4.71    0.53
  -2   1  -4    5.57    0.34
  -2   1  -4    4.00    0.55
  -2   1  -4    6.48    0.41
   2  -1   4    6.41    0.62
  -2   1  -5  269.90   10.38
  -2   1  -5  246.04   10.54
  -2   1  -6   97.88    3.69
   2  -1   6  101.69    3.71
   2  -1   6   94.01    3.54
  -2   1  -6  100.30    3.47
  -2   1  -7    0.57    0.19
  -2   1  -7    1.09    0.53
  -2   1  -7    1.56    0.50
   2  -1   7    0.90    0.46
  -2   1  -7    1.26    0.50
   2  -1   7    0.79    0.67
   2  -1   7    1.23    0.56
  -2   1  -7    1.38    0.67
  -2   1  -8   18.50    1.11
  -2   1  -8   18.05    1.31
   2  -1   8   17.96    1.25
   2  -1   8   16.08    1.11
  -2   1  -8   16.56    1.09
  -2   1  -8   15.09    1.12
   2  -1   9    0.29    0.73
  -2   1  -9    0.49    0.57
   2  -1   9   -0.50    0.62
  -2   1  -9    0.75    0.58
  -2   1  -9    1.26    0.84
  -2   1 -10    5.60    0.73
   2  -1  10    3.17    0.96
  -2   1 -10    4.67    0.73
   2  -1  11    1.56    0.93
   2   0 -11    4.76    1.24
  -2   0  11    6.78    1.26
   2   0 -10    2.07    1.01
   2   0 -10    1.96    0.43
  -2   0  10    3.38    0.64
  -2   0  10    1.49    1.20
  -2   0  10    0.98    0.88
   2   0 -10    2.94    0.45
   2   0  -9    0.98    0.84
   2   0  -9    0.49    0.77
  -2   0   9    0.09    0.76
   2   0  -9    0.34    0.39
  -2   0   9    1.48    1.08
   2   0  -9    0.33    0.41
   2   0  -8   27.34    1.27
  -2   0   8   30.08    1.90
   2   0  -8   23.32    1.24
   2   0  -8   27.66    1.62
  -2   0   8   29.11    1.66
   2   0  -8   25.46    1.69
  -2   0   7   96.27    4.35
  -2   0   7   98.73    4.51
   2   0  -7   99.44    4.27
   2   0  -7   85.73    4.37
   2   0  -7  115.88    4.12
   2   0  -6    1.05    0.57
   2   0  -6    2.08    0.51
  -2   0   6    0.95    0.51
  -2   0   6    2.41    0.73
   2   0  -6    2.06    0.43
   2   0  -5  209.67    8.41
  -2   0   5  231.16    8.56
   2   0  -5  216.88    8.52
   2   0  -5  218.91    8.63
  -2   0   4   32.31    1.51
   2   0  -4   30.25    1.56
  -2   0   3  614.57   21.12
   2   0  -3  576.26   21.10
   2   0  -2  229.75    8.17
  -2   0   2  197.96    8.15
   2   0  -2  211.14    8.23
   2   0  -1   39.91    1.74
  -2   0   1   41.87    1.74
   2   0  -1   47.50    1.80
   2   0  -1   43.18    1.74
   2   0   0 2538.96   94.63
  -2   0   0 2616.33   94.62
   2   0   0 2489.54   94.68
  -2   0   0 2465.54   94.64
   2   0   0 2449.72   94.62
   2   0   1 2550.76   94.25
   2   0   1 2463.16   94.21
   2   0   2 1336.27   52.84
   2   0   2 1341.97   52.84
  -2   0  -2 1430.40   52.87
  -2   0  -3   64.13    2.63
   2   0   3   65.06    2.67
   2   0   3   66.95    2.69
  -2   0  -3   65.52    2.64
   2   0   4   27.22    1.35
   2   0   4   29.12    1.23
  -2   0  -4   29.21    1.28
  -2   0  -4   25.34    1.40
   2   0   5  116.98    4.19
  -2   0  -5   93.59    4.03
  -2   0  -5   99.99    4.04
  -2   0  -5   98.18    4.23
  -2   0  -6   20.45    1.29
   2   0   6   19.01    1.17
  -2   0  -6   19.33    1.06
  -2   0  -7    0.28    0.50
  -2   0  -7    0.29    0.65
   2   0   7   -0.71    0.57
  -2   0  -8   33.87    1.96
  -2   0  -8   34.24    1.79
   2   0   8   34.47    1.87
   2   0   9   55.56    2.46
  -2   0  -9   49.60    2.54
   2   0   9   63.85    2.71
  -2   0  -9   42.94    2.65
  -2   0  -9   53.83    2.95
   2   0  10  137.97    5.40
  -2   0 -10  109.30    5.38
   2   0  11    6.47    1.16
   2   0  12    1.52    1.04
   2   1 -11    1.09    1.13
  -2  -1  10   -0.26    1.03
  -2  -1  10    0.21    0.68
   2   1 -10    0.28    0.51
   2   1 -10    0.05    0.55
  -2  -1  10    1.86    0.90
   2   1 -10    0.74    0.98
   2   1  -9    5.50    1.06
   2   1  -9    4.75    0.90
   2   1  -9    4.86    0.63
   2   1  -9    2.76    0.61
  -2  -1   9    4.51    0.75
  -2  -1   9    5.76    0.98
  -2  -1   9    5.07    1.11
   2   1  -8    1.86    0.85
  -2  -1   8    0.26    0.58
   2   1  -8    1.08    0.66
  -2  -1   8   -0.28    0.71
  -2  -1   8    0.45    0.76
  -2  -1   8    1.35    0.92
  -2  -1   7   22.78    1.46
   2   1  -7   16.83    1.47
  -2  -1   7   21.47    1.31
   2   1  -7   27.08    1.38
  -2  -1   7   21.08    1.58
   2   1  -6  204.56    8.84
   2   1  -6  231.50    8.71
   2   1  -6  230.31    8.77
  -2  -1   6  231.24    8.72
  -2  -1   6  211.32    8.48
  -2  -1   6  223.38    8.49
  -2  -1   6  242.60    8.86
  -2  -1   5   10.78    0.62
  -2  -1   5    9.86    0.61
  -2  -1   5   12.16    0.85
   2   1  -5   13.66    0.93
   2   1  -4  116.75    4.96
  -2  -1   4  110.09    4.94
   2   1  -3  385.45   14.31
  -2  -1   3  361.99   14.26
  -2  -1   2  122.59    4.73
  -2  -1   2  109.53    4.76
  -2  -1   2  125.33    4.82
   2   1  -2  132.17    4.83
  -2  -1   1 2685.63   91.76
   2   1  -1 2434.15   91.72
  -2  -1   1 2517.18   91.74
   2   1   0 1183.11   42.45
   2   1   0 1100.83   42.43
  -2  -1   0 1081.76   42.49
  -2  -1   0 1143.60   42.52
   2   1   1 1745.94   65.81
   2   1   2 8912.40  354.71
  -2  -1  -2 8813.18  354.70
  -2  -1  -3  801.44   29.79
   2   1   3  730.27   29.78
  -2  -1  -3  787.73   29.81
  -2  -1  -3  797.60   29.60
  -2  -1  -4    5.28    0.61
  -2  -1  -4    4.00    0.54
  -2  -1  -4    4.19    0.38
   2   1   4    4.11    0.42
   2   1   4    5.74    0.46
   2   1   5   50.91    2.22
   2   1   5   52.09    2.22
  -2  -1  -5   54.62    2.47
   2   1   5   51.42    2.23
  -2  -1  -6    1.01    0.26
  -2  -1  -6    1.02    0.26
   2   1   6    1.18    0.46
  -2  -1  -6    1.42    0.55
  -2  -1  -6   -0.13    0.48
  -2  -1  -6    0.59    0.61
   2   1   6    1.13    0.38
  -2  -1  -7    8.69    0.80
   2   1   7   10.78    0.80
  -2  -1  -7    6.47    0.43
  -2  -1  -7    5.49    0.41
  -2  -1  -7    8.90    0.96
  -2  -1  -8   -0.54    0.66
   2   1   8   -0.15    0.59
  -2  -1  -8   -0.19    0.79
   2   1   9    0.89    0.65
  -2  -1  -9   -0.37    0.82
  -2  -1  -9    0.31    0.84
  -2  -1 -10    1.38    1.03
  -2  -1 -10    3.66    1.10
   2   1  10    1.62    0.94
   2   1  11    5.59    1.11
  -2  -1 -11    4.91    1.25
   2   1  12   19.38    1.70
   2   2 -10    1.67    0.70
   2   2 -10    3.18    1.08
  -2  -2  10    1.95    1.07
   2   2  -9    3.86    0.75
  -2  -2   9    3.68    0.82
   2   2  -9    4.64    1.03
  -2  -2   9    5.80    1.05
   2   2  -8   20.16    1.49
  -2  -2   8   20.53    1.43
  -2  -2   8   18.65    1.31
  -2  -2   8   17.21    1.25
   2   2  -8   21.33    1.32
  -2  -2   8   18.93    1.50
   2   2  -8   15.35    1.23
  -2  -2   7  357.20   13.68
  -2  -2   7  348.75   13.62
   2   2  -7  361.97   13.59
   2   2  -7  379.17   13.64
  -2  -2   7  334.21   13.68
  -2  -2   7  317.42   13.54
   2   2  -7  349.15   13.75
  -2  -2   6   68.89    2.77
  -2  -2   6   66.32    2.71
  -2  -2   6   48.52    2.38
  -2  -2   6   59.41    2.44
  -2  -2   6   65.73    2.67
   2   2  -6   59.90    2.78
  -2  -2   5   40.29    1.84
  -2  -2   5   35.51    1.73
   2   2  -5   40.41    1.81
  -2  -2   5   35.47    1.75
  -2  -2   5   35.38    1.78
  -2  -2   5   31.05    1.61
   2   2  -5   35.98    1.84
  -2  -2   5   42.06    1.68
  -2  -2   4    2.21    0.43
   2   2  -4    2.01    0.49
  -2  -2   4    1.47    0.40
  -2  -2   4    1.84    0.42
  -2  -2   4    1.93    0.49
  -2  -2   4    2.05    0.40
  -2  -2   3   24.60    1.24
  -2  -2   3   27.94    1.30
  -2  -2   3   25.33    1.22
  -2  -2   3   25.70    1.23
   2   2  -3   29.17    1.32
  -2  -2   3   24.33    1.22
  -2  -2   2  723.97   26.33
  -2  -2   2  714.52   26.28
   2   2  -2  648.51   26.27
   2   2  -1  190.54    7.99
   2   2  -1  204.01    7.98
  -2  -2   0  301.84   11.55
  -2  -2   0  301.35   11.54
   2   2   1  342.18   14.29
  -2  -2  -1  425.06   14.36
  -2  -2  -2 2118.75   79.52
   2   2   2 2082.78   79.54
  -2  -2  -2 2127.09   79.52
   2   2   3  445.07   17.12
  -2  -2  -3  466.41   17.31
   2   2   3  406.68   17.27
  -2  -2  -4 1313.78   48.23
  -2  -2  -4 1364.91   48.45
  -2  -2  -4 1363.10   48.23
   2   2   5    6.24    0.41
   2   2   5    5.86    0.48
  -2  -2  -5    7.29    0.52
  -2  -2  -5    6.28    0.52
   2   2   5    7.30    0.50
  -2  -2  -5    6.91    0.79
   2   2   6    1.64    0.41
  -2  -2  -6    1.51    0.36
  -2  -2  -6    1.43    0.35
   2   2   6    1.73    0.50
   2   2   6    1.28    0.22
  -2  -2  -6    1.86    0.28
   2   2   6    1.34    0.36
  -2  -2  -6    0.97    0.62
   2   2   7   39.07    1.64
  -2  -2  -7   33.26    1.89
  -2  -2  -7   37.96    1.44
   2   2   7   36.40    1.55
  -2  -2  -7   31.63    1.42
   2   2   8    0.72    0.58
  -2  -2  -8    0.27    0.35
  -2  -2  -8   -0.10    0.73
   2   2   8    1.20    0.54
  -2  -2  -8    0.51    0.30
  -2  -2  -8    1.76    0.78
  -2  -2  -9    1.46    0.42
   2   2   9    1.87    0.62
  -2  -2  -9    1.65    0.90
  -2  -2  -9    1.82    0.90
  -2  -2 -10    0.02    0.41
  -2  -2 -10    0.31    0.90
  -2  -2 -10    0.93    0.91
  -2  -2 -11    0.77    0.45
  -2  -2 -11    0.89    1.11
  -2  -2 -12    0.28    1.16
   2   2  12    2.06    1.08
   2   3 -10   -0.12    1.00
   2   3 -10    1.17    0.79
  -2  -3  10    1.52    1.02
   2   3  -9    0.06    0.92
  -2  -3   9    0.38    0.87
   2   3  -9   -0.60    0.83
  -2  -3   9    0.35    0.81
   2   3  -8    4.88    0.98
  -2  -3   8    3.58    0.84
  -2  -3   8    3.37    0.85
   2   3  -8    4.11    0.88
   2   3  -8    5.53    0.82
   2   3  -7   69.03    3.01
  -2  -3   7   61.41    2.87
  -2  -3   7   54.72    2.84
   2   3  -7   60.61    2.94
  -2  -3   6    7.05    0.95
  -2  -3   6    6.47    0.86
  -2  -3   6    9.12    0.76
  -2  -3   6    7.36    0.73
   2   3  -6   12.19    1.13
   2   3  -6   10.23    1.03
  -2  -3   5   37.93    1.80
  -2  -3   5   29.70    1.73
   2   3  -5   35.66    1.89
  -2  -3   5   30.26    1.69
  -2  -3   5   36.96    1.68
   2   3  -5   35.32    1.73
  -2  -3   5   36.23    1.70
  -2  -3   5   28.58    1.58
   2   3  -5   35.87    1.77
  -2  -3   4   38.32    1.82
   2   3  -4   41.33    1.83
  -2  -3   4   33.92    1.80
  -2  -3   4   35.12    1.78
  -2  -3   4   36.36    1.72
  -2  -3   4   38.97    1.76
  -2  -3   4   40.35    1.81
   2   3  -4   35.99    1.79
  -2  -3   3   10.16    0.75
  -2  -3   3    9.81    0.75
  -2  -3   3   10.81    0.74
  -2  -3   3    7.67    0.59
  -2  -3   3    9.56    0.74
   2   3  -3   10.47    0.70
  -2  -3   2  818.35   31.15
  -2  -3   2  841.64   31.13
   2   3  -2  806.00   30.99
  -2  -3   1  891.29   34.92
  -2  -3   1  905.66   34.81
  -2  -3   1 1030.79   35.04
  -2  -3   1  885.37   34.98
  -2  -3   1  869.52   34.95
   2   3  -1 1006.08   34.91
   2   3  -1  908.55   34.79
  -2  -3   0  185.33    7.15
  -2  -3   0  195.20    7.18
  -2  -3   0  168.47    7.10
  -2  -3  -1    1.80    0.40
   2   3   1    0.68    0.16
  -2  -3  -1    0.81    0.37
  -2  -3  -1    1.66    0.39
   2   3   1    1.44    0.24
  -2  -3  -2  180.25    6.91
  -2  -3  -2  173.62    6.90
   2   3   2  174.63    6.87
  -2  -3  -2  166.45    6.87
   2   3   2  181.87    6.82
  -2  -3  -3  127.90    5.09
   2   3   3  112.63    4.93
  -2  -3  -3  139.21    5.04
  -2  -3  -3  127.17    5.00
   2   3   4    3.40    0.25
  -2  -3  -4    2.16    0.46
  -2  -3  -4    2.62    0.46
   2   3   4    2.17    0.39
  -2  -3  -4    2.77    0.60
  -2  -3  -5   26.04    1.34
   2   3   5   25.88    1.28
  -2  -3  -5   30.29    1.59
  -2  -3  -5   27.83    1.40
  -2  -3  -5   26.01    1.33
  -2  -3  -6   67.59    3.17
   2   3   6   87.69    3.12
  -2  -3  -6   69.52    3.44
  -2  -3  -6   68.20    3.16
   2   3   6   86.54    3.12
   2   3   6   72.38    3.12
  -2  -3  -7  176.83    7.26
   2   3   7  174.95    7.46
   2   3   7  168.97    7.02
   2   3   7  188.01    7.21
  -2  -3  -7  182.13    7.43
  -2  -3  -7  161.50    7.01
  -2  -3  -7  188.65    7.04
   2   3   7  165.54    6.94
   2   3   8   13.04    0.73
  -2  -3  -8   13.63    1.30
  -2  -3  -8   14.69    0.86
   2   3   8   16.00    0.92
   2   3   8   17.61    1.11
  -2  -3  -8   12.73    1.17
  -2  -3  -8   12.10    0.85
  -2  -3  -9    8.43    1.22
   2   3   9   10.60    0.93
  -2  -3  -9    6.15    1.01
  -2  -3 -10   -1.04    0.86
  -2  -3 -10    1.44    0.99
  -2  -3 -11    0.58    1.10
  -2  -3 -12    0.84    1.26
  -2  -4   9    1.27    0.90
   2   4  -9    2.34    1.01
   2   4  -8   -1.03    0.88
  -2  -4   8    0.35    0.76
   2   4  -8    0.57    0.93
   2   4  -7   -0.30    0.86
   2   4  -7    0.15    0.94
  -2  -4   7   -0.36    0.79
  -2  -4   7    0.36    0.58
   2   4  -6  166.46    6.35
  -2  -4   6  150.72    6.16
  -2  -4   6  160.31    5.94
  -2  -4   6  129.65    5.91
  -2  -4   6  136.12    6.12
   2   4  -6  151.98    6.10
  -2  -4   5   22.82    1.54
  -2  -4   5   24.11    1.44
   2   4  -5   27.28    1.50
  -2  -4   5   25.74    1.31
  -2  -4   5   27.11    1.47
   2   4  -5   26.47    1.70
  -2  -4   5   22.91    1.50
   2   4  -5   24.71    1.46
  -2  -4   4   89.87    4.04
   2   4  -4  105.41    4.24
  -2  -4   4  117.39    4.36
  -2  -4   4   99.57    4.27
  -2  -4   4  102.77    4.37
   2   4  -4  112.12    4.23
  -2  -4   3  130.68    5.07
  -2  -4   3  122.04    5.10
  -2  -4   3  104.67    4.76
   2   4  -3  129.07    4.95
   2   4  -3  140.26    5.00
  -2  -4   3  127.26    5.02
  -2  -4   3  136.25    5.12
   2   4  -3  121.60    4.88
  -2  -4   2   61.16    2.66
  -2  -4   2   58.94    2.73
   2   4  -2   64.84    2.62
   2   4  -2   62.30    2.63
  -2  -4   2   61.17    2.73
   2   4  -2   58.16    2.48
   2   4  -1  130.18    4.86
   2   4  -1  114.90    4.67
  -2  -4   1  122.49    5.01
  -2  -4   1  127.50    4.92
  -2  -4   0   37.67    1.78
  -2  -4   0   34.24    1.41
  -2  -4   0   37.07    1.75
  -2  -4  -1  528.91   19.23
   2   4   1  445.46   18.90
   2   4   1  453.99   18.94
  -2  -4  -1  564.41   19.19
  -2  -4  -1  533.64   18.85
  -2  -4  -2   88.83    3.88
  -2  -4  -2   93.09    3.88
   2   4   2   95.20    3.71
  -2  -4  -3   16.85    1.04
  -2  -4  -3   16.45    0.85
  -2  -4  -3   16.41    1.06
   2   4   3   18.03    0.87
  -2  -4  -3   15.62    0.82
  -2  -4  -3   12.98    0.97
  -2  -4  -4    1.48    0.35
  -2  -4  -4    2.05    0.51
  -2  -4  -4    1.64    0.38
  -2  -4  -4    1.69    0.57
  -2  -4  -4    0.29    0.46
  -2  -4  -5    0.63    0.46
   2   4   5    0.54    0.52
   2   4   5    1.32    0.44
  -2  -4  -5    0.84    0.48
  -2  -4  -5    0.46    0.59
  -2  -4  -5    1.43    0.44
   2   4   6  128.68    5.23
  -2  -4  -6  120.90    5.24
   2   4   6  127.60    5.52
  -2  -4  -6  146.04    5.60
  -2  -4  -6  130.93    5.28
  -2  -4  -7   -0.05    0.78
   2   4   7    0.10    0.35
  -2  -4  -7    0.03    0.59
  -2  -4  -7   -0.11    0.60
   2   4   7   -0.72    0.55
  -2  -4  -7    0.55    0.54
   2   4   7   -0.08    0.39
   2   4   7   -0.11    0.75
   2   4   8   17.60    1.67
   2   4   8   25.02    1.16
   2   4   8   24.81    1.24
   2   4   8   26.29    1.49
  -2  -4  -8   19.64    1.63
  -2  -4  -8   20.10    1.40
  -2  -4  -8   16.11    1.21
  -2  -4  -8   21.04    1.25
   2   4   8   22.00    1.17
   2   4   9   20.88    1.13
   2   4   9   27.59    1.52
  -2  -4  -9   19.93    1.65
  -2  -4  -9   21.00    1.49
   2   4  10    0.55    0.32
   2   4  10    0.69    0.69
  -2  -4 -10    0.54    0.96
  -2  -4 -10    0.66    0.78
  -2  -4 -11    0.37    0.89
  -2  -4 -11    1.73    1.15
  -2  -4 -12   -0.08    1.23
  -2  -5   9    3.58    1.19
  -2  -5   8    1.74    0.96
   2   5  -7   -0.72    1.11
  -2  -5   7   -0.11    0.88
   2   5  -6    1.75    1.04
  -2  -5   6   -0.49    0.90
   2   5  -6    3.36    0.82
  -2  -5   6    2.27    0.72
   2   5  -6    0.93    0.69
  -2  -5   5   14.20    1.14
   2   5  -5   13.57    1.08
  -2  -5   5   10.53    0.62
   2   5  -5   18.71    1.47
  -2  -5   5   13.89    1.12
  -2  -5   5   12.35    1.05
   2   5  -5   13.45    0.99
  -2  -5   4   12.14    1.05
  -2  -5   4   10.18    0.54
  -2  -5   4   14.77    1.13
   2   5  -4   15.15    0.98
   2   5  -4   10.13    0.83
   2   5  -3    3.15    0.48
  -2  -5   3    3.57    0.75
   2   5  -3    4.02    0.55
  -2  -5   3    4.26    0.84
   2   5  -3    3.08    0.62
  -2  -5   3    2.10    0.27
   2   5  -2  313.26   10.56
   2   5  -2  286.49   10.56
  -2  -5   2  285.75   10.70
  -2  -5   2  305.30   10.77
  -2  -5   1   94.75    3.99
   2   5  -1  120.04    4.22
   2   5  -1  116.16    4.32
   2   5  -1  110.98    4.25
   2   5  -1   96.49    3.92
   2   5   0   28.57    1.43
  -2  -5   0   25.42    1.29
  -2  -5   0   28.90    1.54
  -2  -5   0   30.90    1.62
  -2  -5  -1   79.93    3.36
  -2  -5  -1   72.23    3.26
  -2  -5  -1   72.18    3.11
   2   5   1   76.57    3.01
   2   5   1   69.23    3.01
   2   5   1   81.20    3.21
  -2  -5  -2  234.83    9.10
   2   5   2  215.14    8.75
   2   5   2  248.40    8.78
  -2  -5  -2  234.13    8.96
  -2  -5  -2  204.22    8.99
  -2  -5  -3  325.63   12.30
   2   5   3  309.61   12.04
  -2  -5  -3  315.11   12.35
  -2  -5  -4   26.49    1.32
  -2  -5  -4   31.77    1.44
  -2  -5  -4   29.14    1.63
  -2  -5  -4   30.72    1.57
   2   5   5  275.16   11.41
  -2  -5  -5  310.29   11.14
  -2  -5  -5  295.80   11.42
  -2  -5  -5  284.97   11.13
  -2  -5  -5  271.81   11.26
  -2  -5  -5  277.29   11.30
  -2  -5  -6   79.13    3.91
  -2  -5  -6   82.49    3.78
  -2  -5  -6   96.75    3.71
   2   5   6   92.62    3.93
   2   5   6   79.50    3.96
  -2  -5  -6   87.27    3.64
  -2  -5  -6   86.65    3.77
  -2  -5  -7  134.21    5.49
  -2  -5  -7  125.14    5.49
  -2  -5  -7  144.77    5.82
   2   5   7  130.78    5.81
   2   5   8    3.92    1.12
  -2  -5  -8    3.87    0.76
  -2  -5  -8    2.79    0.79
  -2  -5  -8    4.21    1.04
  -2  -5  -8    3.68    0.78
   2   5   8    3.40    0.49
   2   5   9    7.25    0.98
  -2  -5  -9    7.31    1.18
  -2  -5  -9    6.52    0.88
   2   5   9    4.54    1.22
  -2  -5 -10    1.81    0.81
   2   5  10    2.51    0.81
  -2  -5 -10    0.35    1.00
  -2  -5 -11    0.06    0.85
   2   5  11    0.64    0.44
   2   5  11    0.55    0.86
  -2  -5 -11    0.23    1.16
  -2  -5 -12    0.16    1.28
  -2  -6   8   -0.19    0.96
  -2  -6   7    1.26    0.89
   2   6  -6    3.34    1.17
  -2  -6   6    3.94    0.95
  -2  -6   6    4.13    0.85
   2   6  -5    3.96    1.18
  -2  -6   5    3.02    0.84
   2   6  -5    4.02    0.83
  -2  -6   5    2.58    0.84
  -2  -6   4    9.55    0.99
   2   6  -4    9.23    0.77
   2   6  -4   12.34    0.92
   2   6  -4    9.86    0.93
   2   6  -4   12.06    1.38
  -2  -6   4   12.63    1.16
  -2  -6   4   11.27    1.14
   2   6  -3   22.99    1.47
  -2  -6   3   26.18    1.67
   2   6  -3   26.61    1.47
  -2  -6   3   28.14    1.73
   2   6  -3   27.09    1.24
  -2  -6   3   25.88    1.54
   2   6  -2   15.48    0.98
   2   6  -2   10.34    0.64
  -2  -6   2   14.47    1.06
   2   6  -2   13.19    0.95
  -2  -6   2   17.99    1.34
  -2  -6   2   14.64    1.19
   2   6  -1   25.96    1.33
   2   6  -1   25.71    1.45
   2   6  -1   28.38    1.43
  -2  -6   1   20.89    1.07
  -2  -6   1   24.84    1.56
   2   6   0    7.20    0.83
   2   6   0    7.52    0.74
  -2  -6   0    6.93    0.89
   2   6   0    6.50    0.81
  -2  -6   0    6.10    0.55
   2   6   0    7.86    0.82
   2   6   1   40.78    1.98
   2   6   1   42.54    2.13
   2   6   1   44.56    2.12
   2   6   1   35.50    1.85
  -2  -6  -1   43.13    1.93
   2   6   1   42.71    1.81
  -2  -6  -1   48.96    2.23
  -2  -6  -1   42.86    2.23
   2   6   2   98.64    4.07
  -2  -6  -2   89.26    3.85
   2   6   2   89.69    3.65
  -2  -6  -2  102.30    4.12
  -2  -6  -2   97.57    4.06
   2   6   2   86.08    3.70
   2   6   3   35.73    1.87
   2   6   3   33.81    1.86
   2   6   3   33.49    1.80
  -2  -6  -3   30.40    1.72
   2   6   3   32.73    1.46
  -2  -6  -3   34.14    1.88
  -2  -6  -3   36.12    1.87
   2   6   4   17.08    1.21
  -2  -6  -4   14.40    1.17
  -2  -6  -4   16.75    1.19
  -2  -6  -4   16.53    1.24
  -2  -6  -5   16.88    1.32
  -2  -6  -5   17.18    1.26
   2   6   5   16.99    1.25
  -2  -6  -5   18.04    1.11
  -2  -6  -5   19.34    0.95
  -2  -6  -6   13.94    1.04
   2   6   6   12.17    1.07
   2   6   6   11.79    1.33
   2   6   6   12.43    1.26
  -2  -6  -6   11.26    0.85
  -2  -6  -6   14.54    1.22
  -2  -6  -6   14.56    1.16
   2   6   7  517.89   20.10
  -2  -6  -7  555.96   19.85
   2   6   7  572.57   20.02
  -2  -6  -7  484.81   19.97
  -2  -6  -7  523.10   19.70
  -2  -6  -7  487.77   19.80
   2   6   7  457.10   19.76
  -2  -6  -8    5.65    0.90
   2   6   8    5.11    0.85
  -2  -6  -8    4.44    0.81
  -2  -6  -8    3.39    1.02
  -2  -6  -8    6.05    0.90
  -2  -6  -8    4.98    0.81
   2   6   8    4.43    1.18
  -2  -6  -9   -0.60    0.96
  -2  -6  -9   -0.43    0.67
   2   6   9   -0.16    0.64
  -2  -6  -9   -0.59    0.73
  -2  -6  -9   -0.13    0.63
   2   6   9   -0.61    1.17
   2   6  10   14.37    1.35
  -2  -6 -10   11.76    1.13
  -2  -6 -10   11.55    1.18
   2   6  10   10.85    1.05
  -2  -6 -10   13.11    1.55
  -2  -6 -11    0.39    0.88
   2   6  11    0.43    0.85
  -2  -6 -11    0.24    1.19
   2   6  12    1.84    1.05
  -2  -6 -12    2.30    1.10
  -2  -7   7    2.28    0.99
  -2  -7   6    2.25    0.90
  -2  -7   5    5.57    1.03
  -2  -7   5    4.21    0.97
   2   7  -5    6.48    0.95
   2   7  -4    6.37    1.30
   2   7  -4    5.21    0.76
  -2  -7   4    3.24    0.83
   2   7  -4    4.65    0.81
  -2  -7   4    4.48    1.00
  -2  -7   3    5.24    1.02
  -2  -7   3    4.20    0.83
   2   7  -3    4.88    0.78
   2   7  -3    6.53    0.84
  -2  -7   3    4.12    0.98
  -2  -7   2    4.31    0.98
   2   7  -2    4.63    0.74
   2   7  -2    5.55    0.74
  -2  -7   2    5.36    1.06
   2   7  -1   29.83    1.53
   2   7  -1   30.09    1.68
   2   7  -1   32.12    1.64
  -2  -7   1   23.52    1.12
  -2  -7   1   33.48    1.91
  -2  -7   1   30.11    1.84
   2   7   0    1.77    0.79
   2   7   0    2.01    0.77
   2   7   0    2.45    0.75
   2   7   0    2.06    0.67
  -2  -7   0    1.81    0.45
   2   7   1    0.17    0.57
  -2  -7  -1   -0.62    0.84
  -2  -7  -1   -0.22    0.52
   2   7   1   -0.25    0.64
   2   7   1   -0.10    0.74
   2   7   1   -1.36    0.73
  -2  -7  -1   -0.30    0.74
   2   7   1    0.19    0.32
   2   7   1   -0.26    0.48
   2   7   2   34.91    1.96
   2   7   2   32.55    1.98
   2   7   2   37.08    1.53
   2   7   2   33.28    1.90
  -2  -7  -2   31.73    1.73
  -2  -7  -2   37.45    2.07
  -2  -7  -2   33.27    1.99
   2   7   2   34.91    1.82
   2   7   2   31.95    1.63
   2   7   3   39.26    2.05
   2   7   3   35.30    2.02
   2   7   3   39.37    1.68
  -2  -7  -3   37.05    1.88
  -2  -7  -3   42.56    2.13
   2   7   3   39.88    2.01
   2   7   3   39.51    1.54
  -2  -7  -3   37.31    2.02
  -2  -7  -3   30.19    1.43
  -2  -7  -4    0.51    0.82
  -2  -7  -4    0.44    0.71
  -2  -7  -4    0.67    0.39
   2   7   4    1.28    0.72
  -2  -7  -4   -0.21    0.68
   2   7   4    0.58    0.74
  -2  -7  -5    5.71    0.90
  -2  -7  -5    5.62    0.92
  -2  -7  -5    3.33    0.91
   2   7   5    4.93    0.86
  -2  -7  -6   86.98    3.42
  -2  -7  -6   90.43    3.66
   2   7   6   84.62    3.75
  -2  -7  -6   80.39    3.60
  -2  -7  -6   70.59    3.56
  -2  -7  -6   64.99    3.07
   2   7   6   82.06    3.62
   2   7   7    3.97    1.05
  -2  -7  -7    3.64    0.95
  -2  -7  -7    3.77    0.88
   2   7   7    4.15    0.91
  -2  -7  -7    3.79    0.59
  -2  -7  -7    3.14    0.88
   2   7   8   45.00    2.79
   2   7   8   44.89    2.47
   2   7   8   53.56    2.69
  -2  -7  -8   48.30    2.41
  -2  -7  -8   44.35    2.45
  -2  -7  -9    0.19    0.79
  -2  -7  -9   -0.04    0.73
   2   7   9    0.87    0.79
  -2  -7  -9    2.07    1.06
  -2  -7  -9    0.57    0.63
   2   7  10    3.52    0.89
  -2  -7 -10    2.80    0.98
  -2  -7 -10    4.95    0.95
   2   7  10    4.09    1.11
  -2  -7 -10    3.91    1.27
  -2  -7 -10    3.65    0.84
   2   7  11    8.94    1.04
  -2  -7 -11    7.44    1.23
  -2  -7 -11    9.20    1.16
   2   7  11    8.56    1.33
  -2  -7 -11   10.01    1.63
  -2  -7 -12    1.21    1.14
  -2  -8   6    3.09    1.08
  -2  -8   5   -1.20    0.99
  -2  -8   4    1.64    1.01
   2   8  -4    2.10    0.72
   2   8  -4    1.27    0.79
   2   8  -3    5.32    0.86
  -2  -8   3    5.24    1.13
   2   8  -3    4.69    0.86
   2   8  -2   19.42    1.35
  -2  -8   2   18.21    1.56
   2   8  -2   18.13    1.26
  -2  -8   2   16.78    1.55
   2   8  -1   30.66    1.64
   2   8  -1   29.77    1.72
  -2  -8   1   25.26    1.87
   2   8  -1   29.85    1.79
  -2  -8   1   23.10    1.83
   2   8   0    2.46    0.90
  -2  -8   0    2.40    0.46
   2   8   0    1.80    0.68
  -2  -8  -1   -0.11    0.91
   2   8   1   -0.06    0.57
  -2  -8  -1    0.86    0.55
   2   8   1    1.04    0.81
   2   8   1    1.56    0.83
   2   8   1    0.77    0.67
   2   8   1    0.46    0.38
   2   8   1    0.17    0.73
  -2  -8  -1   -0.06    0.82
   2   8   2   18.83    1.45
   2   8   2   16.00    1.42
   2   8   2   15.59    1.10
   2   8   2   17.09    1.40
  -2  -8  -2   19.47    1.53
  -2  -8  -2   15.40    1.14
   2   8   2   18.72    0.91
  -2  -8  -2   18.27    1.48
   2   8   2   15.88    1.23
  -2  -8  -3   -0.17    0.83
  -2  -8  -3    0.23    0.88
   2   8   3    0.15    0.51
   2   8   3    1.01    0.86
   2   8   3   -0.23    0.78
  -2  -8  -3    0.47    0.68
   2   8   3   -0.26    0.80
   2   8   4    0.40    0.82
  -2  -8  -4    0.72    0.87
  -2  -8  -4   -0.08    0.32
  -2  -8  -4    0.92    0.74
   2   8   4    0.62    0.83
  -2  -8  -4   -0.97    0.90
  -2  -8  -5    3.29    0.94
  -2  -8  -5    2.46    0.52
   2   8   5    2.44    0.89
  -2  -8  -5    2.88    0.83
  -2  -8  -5    2.42    0.93
  -2  -8  -6    1.08    0.85
  -2  -8  -6    0.87    0.58
   2   8   6    0.88    0.84
   2   8   6    0.25    1.00
  -2  -8  -6    1.78    0.91
  -2  -8  -6    0.95    0.83
  -2  -8  -7   11.89    1.05
   2   8   7   13.96    1.41
  -2  -8  -7   13.92    1.38
  -2  -8  -7   13.48    1.33
  -2  -8  -7   14.02    1.19
   2   8   7   17.26    1.56
  -2  -8  -7   16.09    1.39
  -2  -8  -8   22.76    1.47
   2   8   8   25.44    1.76
  -2  -8  -8   18.80    1.15
  -2  -8  -8   26.09    1.62
  -2  -8  -8   23.32    1.82
   2   8   8   26.56    1.87
  -2  -8  -8   26.53    1.74
  -2  -8  -9   -0.36    0.87
  -2  -8  -9    0.17    0.78
   2   8   9    0.06    0.91
  -2  -8  -9   -0.05    0.86
  -2  -8 -10    0.20    0.93
   2   8  10   -0.28    0.92
  -2  -8 -10   -1.57    1.32
   2   8  11   18.84    1.73
  -2  -8 -11   15.01    1.55
   2   8  11   14.53    1.43
   2   9  -4   -1.03    0.78
  -2  -9   4    1.25    1.13
   2   9  -3    0.51    0.76
  -2  -9   3    1.39    1.15
   2   9  -2    0.20    0.73
   2   9  -2    0.56    0.72
  -2  -9   2    0.07    1.05
   2   9  -1   19.40    1.38
  -2  -9   1   20.56    1.75
   2   9  -1   20.88    1.48
   2   9  -1   21.36    1.62
   2   9   0    0.64    0.83
   2   9   0    0.23    0.66
   2   9   0   -0.41    0.73
  -2  -9   0    0.19    1.01
  -2  -9   0    0.20    1.09
   2   9   1    5.28    0.93
   2   9   1    7.10    1.11
   2   9   1    6.05    1.03
   2   9   1    8.11    1.17
   2   9   1    3.59    0.81
  -2  -9  -1    4.41    1.10
  -2  -9  -1    5.94    0.65
   2   9   2   60.13    3.00
   2   9   2   72.75    3.38
   2   9   2   61.79    2.91
   2   9   2   74.53    3.33
  -2  -9  -2   67.66    3.34
  -2  -9  -2   59.90    2.89
   2   9   2   61.44    3.28
  -2  -9  -2   63.72    3.31
   2   9   3   94.40    4.16
   2   9   3   86.80    4.03
   2   9   3   88.15    4.12
  -2  -9  -3   82.03    3.75
   2   9   3   77.29    3.59
  -2  -9  -3   88.81    4.12
  -2  -9  -3   87.15    4.10
   2   9   3   85.84    3.83
   2   9   4   73.84    3.55
  -2  -9  -4   67.47    3.27
   2   9   4   70.28    3.46
  -2  -9  -4   71.41    3.55
  -2  -9  -4   66.13    3.48
  -2  -9  -5    4.76    1.09
   2   9   5    4.18    1.14
  -2  -9  -5    5.70    1.00
  -2  -9  -5    5.56    1.18
  -2  -9  -5    4.49    0.48
  -2  -9  -6   -0.11    0.52
   2   9   6   -1.27    1.20
   2   9   6   -0.48    0.99
  -2  -9  -6    1.02    0.95
  -2  -9  -6    0.44    0.92
  -2  -9  -7    3.95    0.71
   2   9   7    5.36    1.13
  -2  -9  -7    3.84    1.08
   2   9   7    4.12    1.16
  -2  -9  -7    3.65    1.12
  -2  -9  -8    2.24    0.76
   2   9   8    2.66    1.11
  -2  -9  -8    1.13    0.96
  -2  -9  -8    1.72    1.07
   2   9   8    0.61    0.99
  -2  -9  -8    0.94    0.86
  -2  -9  -9    3.33    0.86
   2   9   9    2.85    1.15
   2   9   9    3.07    1.11
  -2  -9  -9    1.83    0.94
  -2  -9  -9    3.16    1.03
  -2  -9  -9    3.81    1.25
  -2  -9 -10    0.76    0.88
  -2  -9 -10    2.30    1.25
   2   9  10    0.84    1.04
  -2  -9 -11    3.00    1.07
   2   9  11    1.84    1.06
  -2 -10   3    1.86    1.28
  -2 -10   2   26.28    2.10
   2  10  -2   23.85    1.74
   2  10  -1    5.11    1.02
   2  10  -1    5.89    1.12
  -2 -10   1    2.67    1.26
   2  10   0   14.41    1.40
   2  10   0   17.22    1.57
  -2 -10   0   16.09    1.68
   2  10   1    5.55    1.18
   2  10   1    5.70    0.95
   2  10   2    7.46    1.21
  -2 -10  -2    5.63    0.78
  -2 -10  -2    4.96    1.20
   2  10   2    5.35    0.92
   2  10   3    1.33    0.97
   2  10   3    2.78    1.06
  -2 -10  -3    1.30    0.77
  -2 -10  -3    0.36    0.97
   2  10   3    1.03    0.74
   2  10   4   13.89    1.44
  -2 -10  -4   10.90    1.17
  -2 -10  -4    9.63    1.42
   2  10   4   10.95    1.18
  -2 -10  -5   10.40    1.25
   2  10   5   13.41    1.58
  -2 -10  -5   11.18    1.49
   2  10   6    7.06    1.31
   2  10   6    7.89    1.42
  -2 -10  -6    8.76    1.37
  -2 -10  -6    8.37    1.25
  -2 -10  -6    7.20    0.62
  -2 -10  -7    0.88    0.59
   2  10   7   -0.39    1.13
  -2 -10  -7    1.62    1.14
  -2 -10  -7    0.19    1.04
   2  10   7   -0.08    1.10
  -2 -10  -8    2.43    1.12
  -2 -10  -8    1.70    0.70
   2  10   8    2.13    1.24
   2  10   8    1.53    1.24
  -2 -10  -8    1.38    1.21
  -2 -10  -9    0.37    1.17
  -2 -10  -9   -0.30    0.75
  -2 -10  -9    0.34    1.12
   2  10   9    0.23    1.14
  -2 -10 -10    1.84    0.86
   2  10  10    0.07    1.09
  -2 -10 -11   -0.40    0.98
  -2 -11   2    3.12    1.37
  -2 -11   1   40.87    2.76
  -2 -11   0    3.71    1.32
   2  11   0    3.60    1.13
   2  11   1    1.93    1.10
   2  11   2    5.21    1.21
  -2 -11  -2    4.73    1.36
  -2 -11  -3    0.32    1.17
  -2 -11  -3    0.83    0.72
   2  11   3    1.30    1.17
  -2 -11  -4    6.14    1.35
  -2 -11  -4    3.84    0.93
   2  11   5    3.80    1.28
  -2 -11  -5    4.67    1.31
  -2 -11  -5    4.17    0.99
   2  11   6    3.67    1.40
   2  11   6    2.55    1.26
  -2 -11  -6    2.45    1.24
  -2 -11  -6    2.69    1.05
   2  11   7   14.29    1.71
  -2 -11  -7   11.91    1.58
  -2 -11  -7   12.97    1.52
  -2 -11  -8   -0.68    1.16
   2  11   8    0.50    1.25
  -2 -11  -8    0.99    1.11
   2  11   9    0.42    1.27
   2  11  10   -0.79    1.30
  -2 -12  -5    4.15    1.02
  -2 -12  -6    2.37    1.03
  -2 -12  -7    6.80    1.27
  -3  11   6    3.96    1.19
  -3  11   5    1.09    1.04
  -3  11   4   18.83    1.70
  -3  11   4   20.48    2.09
  -3  11   3    8.87    1.37
  -3  11   3    6.50    1.55
  -3  11   2    2.95    1.36
  -3  11   2    1.18    1.17
  -3  11   2    2.38    1.15
  -3  11   1    5.49    1.49
  -3  11   1    2.26    1.34
  -3  11   0    5.85    1.34
   3 -10 -10    0.50    0.99
  -3  10  10   -1.01    1.39
   3 -10  -9    0.05    0.91
  -3  10   9    1.14    1.41
   3 -10  -8    0.33    0.83
  -3  10   8    0.41    1.33
   3 -10  -7    1.14    0.77
  -3  10   7    2.48    1.09
  -3  10   7    2.01    1.36
   3 -10  -6    0.84    0.73
  -3  10   6   -0.92    1.34
  -3  10   6    0.64    0.95
  -3  10   5    0.92    1.20
  -3  10   5    1.23    0.93
  -3  10   4    1.88    1.21
  -3  10   4    1.20    0.90
  -3  10   4    0.95    0.91
  -3  10   3    0.08    1.05
  -3  10   3    0.38    0.93
  -3  10   3    0.68    0.85
  -3  10   3   -0.48    0.90
  -3  10   2    0.28    0.99
  -3  10   2    2.80    1.01
  -3  10   2    1.97    1.15
  -3  10   1    1.72    1.09
  -3  10   1    3.89    1.15
  -3  10   0    3.83    1.23
  -3  10   0    4.67    1.14
  -3  10  -1    1.71    0.95
  -3  10  -1    1.75    1.21
  -3  10  -1    1.89    1.15
  -3  10  -2    0.08    1.18
  -3  10  -2    0.39    1.24
  -3  10  -2    0.28    0.86
  -3  10  -3    3.50    1.37
  -3  10  -3    4.10    1.01
   3  -9 -10    1.96    1.01
  -3   9  10    1.34    1.22
   3  -9  -9    0.42    0.92
  -3   9   9   -0.43    1.16
   3  -9  -8    4.14    0.94
  -3   9   8    6.00    1.08
  -3   9   8    3.72    1.27
   3  -9  -7    1.77    0.77
  -3   9   7    2.41    0.99
  -3   9   7    0.23    1.17
  -3   9   6    0.15    1.02
   3  -9  -6    0.23    0.65
  -3   9   6    1.72    0.91
   3  -9  -5    3.86    0.74
  -3   9   5    7.08    1.30
  -3   9   5    5.73    1.01
  -3   9   5    6.58    1.30
  -3   9   4    9.67    1.12
  -3   9   4    8.67    1.09
  -3   9   4    7.08    1.01
  -3   9   3    1.60    0.81
  -3   9   3    1.09    0.81
  -3   9   3    1.38    0.82
  -3   9   3    0.31    1.06
  -3   9   3    0.34    0.83
  -3   9   2    6.05    1.10
  -3   9   2    4.52    0.89
  -3   9   2    5.74    1.19
  -3   9   2    5.07    1.00
  -3   9   2    4.35    0.97
  -3   9   1   -0.57    0.94
  -3   9   1    0.39    0.90
  -3   9   1   -0.22    0.71
  -3   9   1    1.14    1.03
  -3   9   0    3.95    1.05
  -3   9   0    4.23    1.22
  -3   9   0    4.48    1.07
  -3   9  -1    9.21    1.35
  -3   9  -2    0.35    1.01
  -3   9  -2    0.87    0.78
  -3   9  -3    1.35    1.08
  -3   9  -3   -1.02    1.12
  -3   9  -3    0.40    0.77
  -3   9  -4    0.36    0.81
  -3   9  -5    1.15    0.81
   3  -8 -10    6.49    1.16
  -3   8  10    6.18    1.27
  -3   8   9   17.21    1.72
  -3   8   9   21.73    1.61
  -3   8   9   15.98    1.65
   3  -8  -9   18.83    1.56
   3  -8  -8    0.30    0.81
  -3   8   8    1.43    0.88
  -3   8   8    0.67    1.15
  -3   8   8   -0.20    1.01
   3  -8  -8   -0.03    0.40
   3  -8  -7    1.37    0.76
  -3   8   7    1.38    0.83
  -3   8   7    1.13    1.03
  -3   8   7    0.07    1.12
   3  -8  -7    1.32    0.34
   3  -8  -6    0.83    0.67
  -3   8   6    1.67    1.04
  -3   8   6    1.09    0.80
  -3   8   6    0.07    1.00
  -3   8   6    1.81    1.09
  -3   8   5   36.14    2.37
  -3   8   5   33.95    2.00
  -3   8   5   37.68    2.28
  -3   8   5   36.20    2.27
   3  -8  -5   35.25    1.87
   3  -8  -4    1.43    0.62
  -3   8   4    2.37    0.66
  -3   8   4    2.56    0.72
  -3   8   4    2.55    0.78
  -3   8   4    1.96    0.67
  -3   8   4    2.77    0.80
  -3   8   4    2.28    0.98
  -3   8   3    3.97    1.07
  -3   8   3    3.77    0.82
  -3   8   3    3.42    0.84
  -3   8   3    4.89    0.86
  -3   8   3    3.71    0.94
  -3   8   3    4.38    0.78
  -3   8   3    4.04    1.05
  -3   8   2    0.07    0.93
  -3   8   2    0.52    0.74
  -3   8   2    0.97    0.93
  -3   8   2    0.36    0.65
  -3   8   2    1.47    0.78
  -3   8   2   -0.05    0.76
  -3   8   2    0.28    0.80
  -3   8   1    0.23    0.80
  -3   8   1    0.07    0.86
  -3   8   1    1.21    0.78
  -3   8   1    1.04    0.68
  -3   8   1    1.75    0.92
  -3   8   0    6.57    1.20
  -3   8   0    4.17    1.04
  -3   8   0    3.69    0.97
  -3   8   0    4.48    0.99
  -3   8   0    4.44    0.79
  -3   8  -1    3.04    1.05
  -3   8  -1    2.12    1.00
  -3   8  -1    1.83    0.95
  -3   8  -2    0.05    0.67
  -3   8  -2   -0.13    0.95
  -3   8  -2   -0.81    1.03
  -3   8  -2    1.40    0.95
  -3   8  -3    0.88    0.96
  -3   8  -3   -0.07    0.93
  -3   8  -3   -0.40    0.65
  -3   8  -3    0.71    1.04
  -3   8  -4    6.27    0.89
  -3   8  -4    5.16    1.17
  -3   8  -4    4.75    1.15
  -3   8  -5   11.94    1.58
  -3   8  -5   15.87    1.21
   3  -7 -10    2.70    0.97
  -3   7  10    2.53    1.04
  -3   7  10    2.53    0.98
   3  -7  -9    1.27    0.86
  -3   7   9    0.72    0.89
  -3   7   9    1.54    1.04
  -3   7   9    0.28    0.97
  -3   7   8   26.21    1.65
  -3   7   8   21.27    1.67
   3  -7  -8   22.11    1.58
  -3   7   8   22.59    1.78
  -3   7   7    4.97    0.89
   3  -7  -7    5.42    0.91
  -3   7   7    4.86    1.09
  -3   7   7    4.46    1.09
  -3   7   7    5.95    1.31
   3  -7  -7    3.34    0.52
   3  -7  -6    0.89    0.67
  -3   7   6    0.73    0.86
  -3   7   6    1.08    0.98
  -3   7   6    1.40    0.76
   3  -7  -6    0.66    0.36
  -3   7   6   -0.53    0.99
   3  -7  -5    0.07    0.60
  -3   7   5   -0.85    0.98
  -3   7   5   -0.07    0.48
  -3   7   5   -0.06    0.85
  -3   7   5    0.30    0.69
  -3   7   5   -0.41    0.91
   3  -7  -5    0.18    0.29
  -3   7   4   15.55    1.14
  -3   7   4   15.12    1.02
  -3   7   4   15.87    1.25
  -3   7   4   19.08    1.25
  -3   7   4   16.50    1.42
  -3   7   4   14.73    1.01
   3  -7  -4   14.82    1.05
  -3   7   3  329.95   12.90
  -3   7   3  297.18   13.01
  -3   7   3  331.45   12.94
  -3   7   3  345.37   13.16
  -3   7   3  351.58   13.05
  -3   7   3  338.69   13.12
  -3   7   3  338.42   13.36
  -3   7   3  338.24   13.28
  -3   7   2    6.28    1.03
  -3   7   2    5.48    0.70
  -3   7   2    3.68    0.90
  -3   7   2    4.81    0.85
  -3   7   2    6.47    0.84
  -3   7   2    5.45    0.77
  -3   7   2    5.88    0.88
  -3   7   2    5.80    1.05
  -3   7   1    9.24    0.65
  -3   7   1    6.69    1.02
  -3   7   1   10.33    1.20
  -3   7   1   10.92    0.94
  -3   7   1   10.16    0.93
  -3   7   1   11.91    1.07
  -3   7   1   10.08    1.20
  -3   7   1   10.57    0.81
  -3   7   0  399.31   14.97
  -3   7   0  362.21   14.30
  -3   7   0  378.26   14.89
  -3   7   0  353.61   14.50
  -3   7   0  398.41   14.62
  -3   7   0  396.19   14.46
  -3   7   0  397.29   15.01
  -3   7   0  417.21   14.85
  -3   7   0  357.11   14.43
  -3   7  -1   64.84    3.31
  -3   7  -1   72.78    3.29
  -3   7  -1   69.71    2.99
  -3   7  -1   71.56    3.42
  -3   7  -1   62.50    2.84
  -3   7  -2   10.02    1.00
  -3   7  -2    9.70    1.24
  -3   7  -2    7.95    1.16
  -3   7  -2   12.91    1.26
  -3   7  -2    9.60    0.99
  -3   7  -3    2.16    1.05
  -3   7  -3    2.32    0.63
  -3   7  -3    2.83    0.95
  -3   7  -3    1.79    0.73
  -3   7  -3    3.44    0.96
  -3   7  -4    0.11    0.96
  -3   7  -4    0.57    0.94
  -3   7  -4   -0.24    0.58
  -3   7  -4    0.17    0.84
  -3   7  -4    0.60    0.72
   3  -7   5    0.24    0.52
  -3   7  -5    0.75    0.86
  -3   7  -5    0.71    0.97
  -3   7  -5    1.52    0.64
   3  -7   6    2.44    0.67
  -3   7  -7    1.40    1.15
   3  -7   7    0.33    0.65
  -3   6  11    4.85    1.21
  -3   6  10    3.25    0.90
   3  -6 -10    2.83    1.00
  -3   6  10    2.69    0.99
   3  -6  -9    3.16    0.94
  -3   6   9    0.91    0.85
  -3   6   9    1.14    0.87
  -3   6   9    2.06    0.88
  -3   6   8    9.64    1.08
  -3   6   8    8.14    1.12
  -3   6   8    8.93    1.14
   3  -6  -8   11.11    1.14
   3  -6  -7    3.77    0.80
  -3   6   7    2.25    0.93
   3  -6  -7    3.82    0.98
  -3   6   7    3.62    0.81
  -3   6   7    3.11    0.89
  -3   6   7    2.59    1.12
  -3   6   6   51.36    2.58
  -3   6   6   54.17    2.81
  -3   6   6   60.63    3.00
  -3   6   6   52.40    2.74
   3  -6  -6   53.48    2.78
   3  -6  -6   52.17    2.61
   3  -6  -5    0.58    0.61
  -3   6   5   -0.05    0.78
   3  -6  -5   -0.89    0.81
  -3   6   5    0.46    0.34
  -3   6   5    0.14    0.36
  -3   6   5   -0.31    0.67
  -3   6   5    0.58    0.86
   3  -6  -5    0.65    0.36
  -3   6   5    0.74    0.79
  -3   6   4   29.63    1.56
   3  -6  -4   29.87    1.54
  -3   6   4   23.29    1.34
  -3   6   4   26.93    1.34
  -3   6   4   27.26    1.57
  -3   6   4   29.04    1.51
   3  -6  -4   27.48    1.28
  -3   6   4   34.61    1.87
   3  -6  -3    2.36    0.53
  -3   6   3    2.80    0.76
  -3   6   3    3.51    0.68
  -3   6   3    3.61    0.68
  -3   6   3    4.44    0.76
  -3   6   3    3.14    0.57
  -3   6   3    3.45    0.57
  -3   6   3    3.57    0.67
   3  -6  -3    3.63    0.41
  -3   6   3    3.34    0.80
  -3   6   3    3.93    0.82
  -3   6   2    0.70    0.66
  -3   6   2    0.78    0.48
  -3   6   2    0.22    0.64
  -3   6   2   -0.23    0.56
  -3   6   2    0.49    0.51
  -3   6   2    0.30    0.65
  -3   6   2    0.38    0.66
  -3   6   2    0.87    0.55
  -3   6   1   59.20    2.74
  -3   6   1   63.49    2.65
  -3   6   1   63.24    2.58
  -3   6   1   57.33    2.81
  -3   6   1   60.17    2.64
  -3   6   1   59.05    2.82
  -3   6   1   54.57    2.33
  -3   6   1   60.77    2.46
  -3   6   1   49.06    2.29
  -3   6   0   -0.15    0.71
  -3   6   0    0.04    0.44
  -3   6   0    0.97    0.68
  -3   6   0    0.16    0.25
  -3   6   0   -0.60    0.48
  -3   6   0   -0.05    0.71
  -3   6   0    0.45    0.53
  -3   6   0    0.02    0.41
  -3   6  -1  111.18    4.82
  -3   6  -1  107.26    4.80
  -3   6  -1  138.22    5.22
  -3   6  -1  127.92    5.27
  -3   6  -1  121.79    5.20
  -3   6  -1  124.76    4.66
  -3   6  -1  127.65    4.97
  -3   6  -2  228.87    8.53
  -3   6  -2  209.32    8.31
  -3   6  -2  225.63    8.36
  -3   6  -2  233.15    8.59
  -3   6  -2  218.48    8.51
  -3   6  -3   45.59    2.43
  -3   6  -3   46.15    2.21
  -3   6  -3   46.54    2.31
  -3   6  -3   47.70    2.50
  -3   6  -3   42.14    2.40
  -3   6  -4   52.32    2.63
  -3   6  -4   53.97    2.62
  -3   6  -4   48.79    2.52
  -3   6  -4   51.39    2.36
  -3   6  -4   51.13    2.56
   3  -6   4   43.90    2.12
  -3   6  -5    1.19    0.81
  -3   6  -5    0.06    0.87
  -3   6  -5   -0.55    0.87
   3  -6   5    0.84    0.48
  -3   6  -5    1.15    0.54
  -3   6  -5    0.19    0.81
  -3   6  -5    0.41    0.75
  -3   6  -5   -0.55    0.79
   3  -6   6    0.95    0.54
  -3   6  -6    0.49    0.82
   3  -6   7    1.41    0.65
  -3   6  -7    1.25    1.01
   3  -6   8    0.08    0.74
  -3   6  -8    0.67    1.09
   3  -6   9   -0.76    0.89
  -3   5  11    0.41    1.01
  -3   5  10   -0.34    0.73
  -3   5  10    0.31    0.74
  -3   5  10    0.37    0.88
  -3   5   9    0.04    0.72
  -3   5   9    0.84    0.78
  -3   5   9    0.32    0.78
  -3   5   8   22.69    1.53
  -3   5   8   23.13    1.48
  -3   5   8   21.27    1.89
   3  -5  -8   21.10    1.68
  -3   5   8   23.03    1.50
   3  -5  -8   21.35    1.60
   3  -5  -8   22.86    1.61
  -3   5   7  175.26    7.46
   3  -5  -7  184.54    7.63
  -3   5   7  185.82    7.49
   3  -5  -7  169.62    7.61
  -3   5   7  166.11    7.50
  -3   5   7  216.62    7.94
   3  -5  -7  199.50    7.56
   3  -5  -6  272.45   12.07
  -3   5   6  304.15   12.03
  -3   5   6  325.54   11.99
  -3   5   6  307.50   12.23
   3  -5  -6  317.45   12.16
  -3   5   6  304.12   12.05
   3  -5  -6  297.90   11.98
   3  -5  -5  148.02    6.30
  -3   5   5  147.36    6.14
  -3   5   5  160.49    6.42
  -3   5   5  150.86    6.28
  -3   5   5  155.99    6.32
   3  -5  -5  148.75    6.20
  -3   5   4  305.36   11.61
   3  -5  -4  291.78   11.72
  -3   5   4  329.16   11.86
  -3   5   4  317.65   11.36
  -3   5   4  272.96   11.35
  -3   5   4  266.77   11.55
  -3   5   4  314.50   11.76
   3  -5  -4  287.72   11.38
   3  -5  -4  313.92   11.60
  -3   5   3  109.66    4.57
   3  -5  -3  115.96    4.56
  -3   5   3  113.38    4.80
  -3   5   3  133.81    4.96
  -3   5   3  107.19    4.70
  -3   5   3  123.13    4.76
  -3   5   3  100.60    4.57
   3  -5  -3  121.72    4.72
  -3   5   3  128.87    4.76
  -3   5   2   85.82    3.70
  -3   5   2   88.72    3.87
  -3   5   2   94.29    3.92
  -3   5   2   86.71    3.70
  -3   5   2   92.91    3.76
  -3   5   2   86.38    3.91
   3  -5  -2   91.26    3.62
  -3   5   2   85.14    3.81
   3  -5  -2   87.42    3.72
  -3   5   2   97.06    3.73
  -3   5   1    0.03    0.46
  -3   5   1   -0.04    0.38
  -3   5   1   -0.18    0.53
  -3   5   1    0.91    0.41
  -3   5   1   -0.24    0.48
   3  -5  -1    0.15    0.32
  -3   5   1    0.03    0.28
  -3   5   0   12.88    0.62
  -3   5   0   15.14    0.86
  -3   5   0   13.72    0.88
  -3   5   0   14.99    0.88
  -3   5   0   13.85    1.12
  -3   5   0   15.75    1.03
  -3   5   0   15.45    0.88
   3  -5   1  784.05   28.87
  -3   5  -1  771.43   28.82
  -3   5  -1  730.54   28.34
  -3   5  -1  788.81   28.66
  -3   5  -1  754.71   28.57
  -3   5  -1  793.02   28.78
  -3   5  -2  445.63   16.83
  -3   5  -2  424.13   16.68
  -3   5  -2  425.46   16.84
  -3   5  -2  440.62   16.75
  -3   5  -3    1.00    0.68
  -3   5  -3    0.23    0.60
  -3   5  -3    1.05    0.67
  -3   5  -3    0.75    0.69
  -3   5  -3   -0.33    0.47
   3  -5   3   -0.06    0.33
  -3   5  -4    0.51    0.73
  -3   5  -4    0.14    0.68
  -3   5  -4    0.36    0.66
   3  -5   4    0.09    0.39
  -3   5  -4    0.40    0.68
  -3   5  -4   -0.23    0.49
  -3   5  -4    0.48    0.73
  -3   5  -4    0.15    0.38
   3  -5   5   12.95    0.91
  -3   5  -5   12.35    1.08
  -3   5  -5   14.83    1.26
  -3   5  -5   14.03    1.25
  -3   5  -5   15.54    1.27
  -3   5  -5   14.16    1.19
   3  -5   6   10.79    0.84
  -3   5  -6    9.51    1.15
  -3   5  -6   12.05    1.25
  -3   5  -6    9.99    1.06
  -3   5  -7    2.47    0.95
   3  -5   7    1.82    0.58
   3  -5   8    0.69    0.63
  -3   5  -8    0.30    0.99
  -3   5  -9   -0.36    0.97
   3  -5   9    0.04    0.71
   3  -5  10    0.04    0.80
   3  -4 -11    0.54    1.03
  -3   4  11    2.47    0.99
   3  -4 -10    9.11    1.27
   3  -4 -10    7.72    0.76
  -3   4  10    7.06    0.79
  -3   4  10    8.23    1.13
  -3   4  10    7.88    0.77
   3  -4  -9    3.59    0.97
   3  -4  -9    4.10    0.62
  -3   4   9    4.06    0.92
   3  -4  -8    9.68    1.05
   3  -4  -8    9.74    0.79
  -3   4   8    9.54    0.98
   3  -4  -8    6.77    1.08
  -3   4   8    9.35    1.39
   3  -4  -7   43.77    2.07
  -3   4   7   46.33    2.26
   3  -4  -7   40.71    2.37
  -3   4   7   49.41    2.65
   3  -4  -7   48.77    2.38
   3  -4  -6   70.68    3.27
  -3   4   6   69.11    3.17
  -3   4   6   70.97    3.19
  -3   4   6   87.36    3.55
   3  -4  -6   59.51    3.22
   3  -4  -6   74.04    3.05
   3  -4  -5    6.77    0.83
   3  -4  -5    5.17    0.65
  -3   4   5    6.37    0.72
  -3   4   5    8.60    0.97
   3  -4  -5    7.24    0.86
  -3   4   5    6.16    0.79
   3  -4  -4    1.36    0.60
  -3   4   4    1.00    0.45
  -3   4   4    1.91    0.68
  -3   4   4    1.74    0.59
  -3   4   3  284.50   10.10
   3  -4  -3  236.74   10.12
  -3   4   3  257.67   10.07
  -3   4   3  280.69   10.40
  -3   4   3  257.78   10.21
   3  -4  -3  264.46   10.39
   3  -4  -3  262.69   10.13
  -3   4   3  268.82   10.26
  -3   4   2    0.09    0.46
   3  -4  -2    0.53    0.42
  -3   4   2    0.86    0.44
  -3   4   2    0.30    0.33
   3  -4  -2    0.70    0.32
  -3   4   2    0.26    0.38
  -3   4   2    0.58    0.50
  -3   4   2    0.02    0.31
   3  -4  -1    9.95    0.66
  -3   4   1    9.27    0.69
  -3   4   1    9.23    0.74
  -3   4   1   11.04    0.67
  -3   4   1   10.27    0.70
  -3   4   1    8.96    0.58
  -3   4   1    8.48    0.77
  -3   4   1    9.58    0.68
  -3   4   0    0.86    0.36
   3  -4   0    0.94    0.51
  -3   4   0    0.62    0.43
  -3   4   0    1.07    0.33
  -3   4   0    1.43    0.37
  -3   4   0    1.71    0.42
   3  -4   0    1.43    0.36
  -3   4  -1   18.76    1.13
  -3   4  -1   17.87    0.90
  -3   4  -1   16.10    1.07
  -3   4  -1   19.12    1.09
   3  -4   1   21.66    1.26
  -3   4  -2  420.43   17.12
  -3   4  -2  452.75   17.28
  -3   4  -2  459.77   17.26
   3  -4   2  477.57   17.41
   3  -4   3   59.96    2.50
  -3   4  -3   63.54    2.83
  -3   4  -3   67.47    2.85
  -3   4  -3   64.34    2.81
  -3   4  -3   59.11    2.64
  -3   4  -3   59.07    2.80
   3  -4   3   65.14    2.97
  -3   4  -4    8.97    0.89
   3  -4   4    8.31    0.60
  -3   4  -4    8.55    0.70
  -3   4  -4   11.18    0.94
  -3   4  -4    8.75    0.70
   3  -4   4   10.51    1.08
  -3   4  -4    9.63    0.93
  -3   4  -4    8.53    0.89
  -3   4  -5   23.07    1.44
  -3   4  -5   20.55    1.27
  -3   4  -5   22.54    1.00
  -3   4  -5   21.07    1.20
  -3   4  -5   22.61    1.49
  -3   4  -5   22.38    1.36
  -3   4  -5   21.10    1.35
   3  -4   5   19.25    1.10
   3  -4   5   22.13    1.59
  -3   4  -6    6.09    0.84
  -3   4  -6    5.67    1.00
   3  -4   6    6.01    0.65
  -3   4  -6    7.50    0.70
  -3   4  -6    6.12    0.89
  -3   4  -6    7.47    0.91
   3  -4   7   19.34    1.19
  -3   4  -7   21.27    1.54
  -3   4  -7   19.73    1.41
  -3   4  -7   17.73    1.59
  -3   4  -8    0.92    0.82
   3  -4   8    2.23    0.68
  -3   4  -8    1.04    0.86
  -3   4  -9    1.02    0.86
   3  -4   9    0.69    0.69
   3  -4  10    2.60    0.90
  -3   4 -10    1.90    0.93
  -3   4 -11    0.77    0.93
   3  -4  11    0.65    0.88
  -3   3  11    5.12    1.12
   3  -3 -11    4.88    1.18
   3  -3 -10    3.66    1.00
  -3   3  10    4.06    0.98
  -3   3   9    5.27    0.90
  -3   3   9    3.73    0.61
   3  -3  -9    4.04    0.93
  -3   3   9    7.18    1.35
  -3   3   9    5.12    0.64
  -3   3   8   18.15    1.28
   3  -3  -8   11.33    1.24
  -3   3   8   14.11    0.98
   3  -3  -8   16.32    1.34
   3  -3  -7    0.98    0.72
   3  -3  -7   -0.31    0.70
  -3   3   7   -1.07    0.71
  -3   3   7    0.06    0.91
   3  -3  -7   -0.80    0.68
   3  -3  -6   20.07    1.34
  -3   3   6   21.33    1.51
  -3   3   6   21.18    1.26
   3  -3  -6   19.63    1.29
   3  -3  -6   20.24    1.13
   3  -3  -6   19.48    1.35
  -3   3   5  225.83    8.20
   3  -3  -5  194.16    8.11
   3  -3  -5  195.95    8.27
  -3   3   5  196.20    8.40
   3  -3  -5  204.03    8.28
   3  -3  -5  235.30    8.36
  -3   3   4  151.79    5.71
   3  -3  -4  164.33    5.80
  -3   3   4  139.38    5.55
   3  -3  -4  142.40    5.60
   3  -3  -4  140.96    5.68
   3  -3  -4  121.90    5.37
  -3   3   4  151.07    5.64
   3  -3  -4  161.38    5.73
   3  -3  -3   33.12    1.70
  -3   3   3   34.57    1.59
  -3   3   3   36.42    1.68
   3  -3  -3   39.42    1.60
   3  -3  -3   40.17    1.88
   3  -3  -3   35.10    1.75
  -3   3   3   38.26    1.78
   3  -3  -2  292.03   11.23
  -3   3   2  283.56   11.05
  -3   3   2  289.92   11.00
   3  -3  -2  296.26   11.07
  -3   3   2  266.90   10.96
   3  -3  -2  277.68   11.05
  -3   3   2  295.16   11.01
  -3   3   2  303.14   11.20
   3  -3  -2  284.58   11.13
  -3   3   2  314.13   11.15
  -3   3   1 1326.74   47.47
  -3   3   1 1187.24   47.35
   3  -3  -1 1227.72   47.53
  -3   3   1 1322.45   47.64
  -3   3   1 1303.61   47.51
  -3   3   1 1246.46   47.50
  -3   3   1 1342.40   47.55
   3  -3   0   32.97    1.57
  -3   3   0   31.45    1.46
  -3   3   0   32.81    1.37
  -3   3   0   30.05    1.47
  -3   3   0   33.72    1.54
  -3   3   0   29.80    1.48
   3  -3   1 1270.69   46.56
  -3   3  -1 1185.71   46.47
  -3   3  -1 1230.29   46.25
   3  -3   2    8.14    0.41
   3  -3   2   10.73    0.88
  -3   3  -2    7.06    0.40
  -3   3  -2    7.58    0.56
  -3   3  -2    8.26    0.72
   3  -3   3    0.98    0.24
   3  -3   3    0.72    0.58
  -3   3  -3    1.57    0.35
  -3   3  -3    2.47    0.53
   3  -3   4   17.00    1.25
  -3   3  -4   17.82    1.16
  -3   3  -4   18.79    0.81
  -3   3  -4   18.38    1.23
   3  -3   4   18.70    0.93
  -3   3  -4   22.18    1.24
   3  -3   5    1.44    0.79
  -3   3  -5    0.78    0.63
   3  -3   5    0.58    0.38
  -3   3  -5    1.02    0.55
  -3   3  -5    0.61    0.28
  -3   3  -5    0.90    0.44
  -3   3  -5    1.21    0.53
   3  -3   6   58.87    2.83
  -3   3  -6   60.75    2.58
  -3   3  -6   53.43    2.24
  -3   3  -6   49.44    2.20
  -3   3  -6   57.72    2.48
  -3   3  -6   48.13    2.69
  -3   3  -6   50.37    2.38
  -3   3  -6   49.29    2.38
   3  -3   6   57.93    2.38
  -3   3  -7    0.93    0.71
  -3   3  -7    1.71    0.73
   3  -3   7    1.73    0.61
  -3   3  -7    0.50    0.80
  -3   3  -7    1.46    0.68
  -3   3  -8   11.49    1.39
   3  -3   8   11.37    1.05
  -3   3  -8   12.48    1.11
   3  -3   8   11.44    0.99
  -3   3  -8   13.49    1.14
  -3   3  -9    6.33    0.95
   3  -3   9    7.94    0.99
  -3   3  -9    6.96    0.97
  -3   3 -10    5.33    1.00
   3  -3  10    6.07    0.96
  -3   3 -11    1.22    0.84
   3  -3  11    0.78    0.87
   3  -2 -11    7.74    1.32
  -3   2  11   10.21    1.28
   3  -2 -10    3.98    1.07
  -3   2  10    3.00    0.93
  -3   2   9   17.30    0.89
  -3   2   9   23.00    1.48
  -3   2   9   22.60    1.82
  -3   2   9   18.34    0.89
   3  -2  -9   20.49    1.55
  -3   2   8   18.09    1.25
   3  -2  -8   16.54    1.26
  -3   2   8   16.44    1.51
  -3   2   8   11.61    0.89
  -3   2   8   13.23    0.86
   3  -2  -8   14.75    1.30
  -3   2   7   61.92    2.72
   3  -2  -7   65.19    2.79
  -3   2   7   50.29    2.47
   3  -2  -7   58.49    2.82
   3  -2  -6   23.67    1.44
  -3   2   6   25.82    1.46
   3  -2  -6   28.63    1.60
  -3   2   5   41.19    1.87
  -3   2   5   38.29    2.06
   3  -2  -5   37.04    1.97
   3  -2  -4   15.49    0.67
   3  -2  -4   18.17    1.00
  -3   2   4   20.28    0.95
   3  -2  -4   11.82    0.66
   3  -2  -4   19.44    1.05
   3  -2  -3   59.83    2.43
  -3   2   3   73.66    2.57
   3  -2  -3   52.93    2.41
   3  -2  -3   65.40    2.68
   3  -2  -3   71.98    2.73
   3  -2  -2   65.98    2.52
  -3   2   2   65.45    2.36
   3  -2  -2   70.48    2.61
   3  -2  -2   51.03    2.41
   3  -2  -2   48.58    2.34
   3  -2  -1   23.77    1.15
  -3   2   1   19.89    0.91
   3  -2  -1   21.18    1.07
  -3   2   1   23.32    1.08
  -3   2   0    8.01    0.53
   3  -2   0    6.97    0.56
  -3   2   0    7.59    0.53
  -3   2   0    8.85    0.56
  -3   2   0    6.90    0.59
   3  -2   0    8.46    0.58
  -3   2   0    6.34    0.50
   3  -2   1   46.84    2.15
  -3   2  -1   51.73    2.18
   3  -2   1   47.97    2.15
   3  -2   2  295.95   11.04
  -3   2  -2  296.50   11.03
   3  -2   2  320.89   11.05
   3  -2   2  282.67   10.70
  -3   2  -2  259.74   10.77
   3  -2   3  148.14    5.65
  -3   2  -3  149.08    5.95
  -3   2  -3  140.79    5.68
   3  -2   3  153.06    5.96
   3  -2   4    7.96    0.80
  -3   2  -4    7.39    0.65
  -3   2  -4    5.74    0.37
  -3   2  -4    6.23    0.72
   3  -2   4    7.44    0.51
   3  -2   5   61.28    2.66
  -3   2  -5   54.50    2.24
   3  -2   5   53.33    2.35
  -3   2  -5   48.83    2.18
  -3   2  -5   57.99    2.49
  -3   2  -5   53.74    2.61
   3  -2   5   58.56    2.35
  -3   2  -6   18.76    1.16
  -3   2  -6   16.56    0.90
   3  -2   6   19.56    1.33
  -3   2  -6   19.37    1.17
   3  -2   6   13.98    0.99
  -3   2  -6   14.83    0.96
  -3   2  -6   17.77    1.19
  -3   2  -6   16.19    1.30
   3  -2   6   19.96    1.07
  -3   2  -7   21.15    1.27
   3  -2   7   20.97    1.20
  -3   2  -7   17.28    1.19
   3  -2   7   16.12    1.11
  -3   2  -7   17.54    1.02
  -3   2  -7   20.01    1.34
  -3   2  -7   18.11    1.47
  -3   2  -7   19.80    1.05
   3  -2   7   18.67    1.49
  -3   2  -7   18.12    1.04
  -3   2  -8    0.93    0.85
  -3   2  -8    0.33    0.63
   3  -2   8    1.54    0.64
  -3   2  -8    0.54    0.73
  -3   2  -8    0.22    0.60
   3  -2   8    0.32    0.92
   3  -2   8    0.73    0.57
   3  -2   9    1.75    0.69
  -3   2  -9    2.61    0.71
   3  -2   9    4.66    0.81
  -3   2  -9    3.69    0.75
   3  -2  10    9.45    1.12
  -3   2 -10    8.23    0.98
  -3   2 -10   10.62    1.01
   3  -2  11    1.14    0.95
   3  -1 -11    6.72    1.28
   3  -1 -10    1.28    0.98
  -3   1  10    0.82    0.94
   3  -1  -9    9.14    1.20
  -3   1   9   11.27    1.15
  -3   1   9   11.77    1.46
  -3   1   8    2.57    0.42
   3  -1  -8    3.20    0.87
   3  -1  -8    2.89    0.29
   3  -1  -8    2.86    0.80
   3  -1  -8    2.92    0.28
  -3   1   8    2.29    0.79
  -3   1   8    3.88    1.11
  -3   1   8    3.00    0.39
   3  -1  -7   70.91    3.30
  -3   1   7   66.45    3.35
  -3   1   7   77.70    3.23
   3  -1  -7   70.04    2.79
   3  -1  -7   66.71    3.18
  -3   1   6  190.62    7.04
   3  -1  -6  172.62    6.71
   3  -1  -6  163.51    6.98
   3  -1  -6  177.66    7.12
  -3   1   5   51.52    2.38
   3  -1  -5   56.24    2.52
   3  -1  -4    0.45    0.47
  -3   1   4    0.09    0.36
   3  -1  -3  300.78   11.78
  -3   1   3  300.89   11.71
   3  -1  -3  316.81   11.82
  -3   1   2  217.15    8.67
   3  -1  -2  241.74    8.80
   3  -1  -2  224.91    8.71
   3  -1  -2  226.78    8.79
  -3   1   1  383.61   13.94
   3  -1  -1  364.21   14.06
  -3   1   1  374.95   14.05
   3  -1  -1  341.94   13.96
   3  -1  -1  349.78   14.04
   3  -1  -1  392.79   14.05
   3  -1   0  360.00   12.74
   3  -1   0  342.66   12.75
  -3   1   0  361.88   12.80
   3  -1   0  409.80   12.89
   3  -1   0  341.74   12.81
  -3   1   0  343.06   12.78
  -3   1   0  283.97   12.63
   3  -1   1   77.03    3.00
   3  -1   1   76.68    3.01
   3  -1   1   70.73    3.06
   3  -1   1   74.29    3.09
  -3   1  -1   67.82    3.02
  -3   1  -2   59.27    2.47
   3  -1   2   60.26    2.43
   3  -1   2   67.17    2.49
  -3   1  -2   53.36    2.23
   3  -1   2   54.35    2.49
   3  -1   3   16.73    0.96
   3  -1   3   18.34    0.99
   3  -1   3   14.51    0.76
   3  -1   4   28.12    1.29
   3  -1   4   30.92    1.52
   3  -1   5   56.48    2.33
  -3   1  -5   42.98    1.86
  -3   1  -5   54.34    2.29
   3  -1   5   53.64    2.06
   3  -1   6    1.93    0.69
  -3   1  -6    2.33    0.53
  -3   1  -6    1.98    0.68
   3  -1   6    2.10    0.44
  -3   1  -6    1.64    0.43
  -3   1  -6    2.38    0.64
  -3   1  -6    2.07    0.52
   3  -1   7    9.76    1.15
  -3   1  -7   11.78    0.91
  -3   1  -7   14.50    0.95
   3  -1   7   12.99    0.88
  -3   1  -7   14.63    0.89
  -3   1  -7   11.29    1.11
  -3   1  -7   11.25    1.13
   3  -1   7   13.87    1.01
   3  -1   8   -0.05    0.80
   3  -1   8    0.31    0.62
  -3   1  -8    1.08    0.55
  -3   1  -8    0.35    0.53
   3  -1   8    0.21    0.49
  -3   1  -8   -0.59    0.58
  -3   1  -8   -0.94    0.84
  -3   1  -8    0.56    0.84
  -3   1  -9    7.41    0.82
   3  -1   9    9.28    1.17
   3  -1   9    9.24    1.00
   3  -1   9    8.35    0.86
  -3   1  -9    5.66    1.19
  -3   1  -9    7.68    0.81
  -3   1  -9    7.43    1.09
   3  -1  10    9.58    1.15
   3  -1  11    5.24    1.09
   3  -1  12    2.33    1.07
  -3   0  10    9.80    1.47
   3   0 -10    8.61    1.27
  -3   0  10   11.54    1.23
   3   0 -10    6.57    0.56
   3   0  -9    1.56    0.91
   3   0  -9    2.19    0.45
   3   0  -9    2.35    0.46
  -3   0   9    2.64    0.91
  -3   0   9    4.13    1.17
   3   0  -8   19.53    0.99
   3   0  -8   14.21    1.24
  -3   0   8   14.60    1.47
  -3   0   8   16.87    1.35
   3   0  -8   15.19    1.37
   3   0  -7  146.33    6.14
  -3   0   7  152.43    6.38
  -3   0   7  164.33    6.26
   3   0  -7  150.84    5.95
   3   0  -7  140.64    6.27
   3   0  -6   17.16    1.11
  -3   0   6   15.11    1.25
  -3   0   6   16.16    1.12
   3   0  -6   14.93    1.20
   3   0  -5   61.87    2.77
   3   0  -5   57.92    2.66
  -3   0   5   62.84    2.82
  -3   0   5   61.11    2.70
  -3   0   4   12.34    0.85
   3   0  -4   15.44    0.99
  -3   0   3  414.56   16.12
   3   0  -3  430.64   16.19
  -3   0   2  511.87   20.30
   3   0  -2  520.48   20.29
  -3   0   1   33.24    1.51
   3   0  -1   40.01    1.52
   3   0  -1   34.90    1.55
   3   0  -1   34.25    1.58
  -3   0   0  422.18   16.52
   3   0   0  381.06   16.46
   3   0   0  501.27   16.63
  -3   0   0  485.06   16.51
   3   0   1    1.67    0.33
   3   0   1    1.24    0.33
   3   0   2    8.26    0.65
  -3   0  -2    9.30    0.59
   3   0   2    7.45    0.60
   3   0   2    9.55    0.58
   3   0   2    9.80    0.58
   3   0   3    3.06    0.43
   3   0   3    3.36    0.42
   3   0   3    2.35    0.28
   3   0   3    3.02    0.51
   3   0   3    2.83    0.23
   3   0   4   55.71    2.52
   3   0   4   64.85    2.59
   3   0   4   58.44    2.36
   3   0   5  113.32    4.66
   3   0   5  111.77    4.66
  -3   0  -5  100.39    4.72
   3   0   5  121.28    4.47
  -3   0  -6    1.23    0.55
   3   0   6    1.96    0.57
  -3   0  -6    1.91    0.68
   3   0   7    3.61    0.78
  -3   0  -7    2.70    0.73
  -3   0  -7    5.36    0.87
   3   0   8    0.65    0.46
  -3   0  -8   -0.53    0.85
  -3   0  -8   -0.10    0.83
   3   0   8   -0.04    0.80
  -3   0  -9   -0.27    0.93
   3   0   9    0.60    0.85
   3   0   9    0.97    0.54
  -3   0  -9   -0.70    0.93
  -3   0 -10    1.42    1.00
   3   0  10    2.14    0.90
   3   0  10    2.52    0.70
   3   0  11    5.48    1.12
   3   0  12    5.51    1.21
   3   1 -10    0.86    0.98
   3   1 -10    0.34    0.53
  -3  -1  10    0.41    0.91
  -3  -1  10   -0.49    1.13
   3   1  -9   -0.34    0.84
  -3  -1   9    0.51    0.67
  -3  -1   9   -0.10    0.80
   3   1  -9    0.41    0.54
  -3  -1   9   -0.69    1.13
   3   1  -8    0.95    0.81
   3   1  -8    0.55    0.69
  -3  -1   8    2.15    0.75
  -3  -1   8    0.66    0.91
  -3  -1   8    0.11    0.61
  -3  -1   7   46.75    2.07
  -3  -1   7   57.79    2.39
   3   1  -7   58.05    2.45
  -3  -1   7   56.65    2.61
  -3  -1   7   56.28    2.52
  -3  -1   7   41.73    2.04
   3   1  -7   53.02    2.59
  -3  -1   6  420.63   17.06
  -3  -1   6  492.22   17.37
  -3  -1   6  431.71   17.06
  -3  -1   6  502.28   17.26
  -3  -1   6  450.61   17.41
   3   1  -6  438.83   17.39
   3   1  -5    3.18    0.65
  -3  -1   5    4.16    0.61
  -3  -1   4   44.84    2.01
   3   1  -4   42.52    2.07
  -3  -1   3   82.08    3.40
   3   1  -3   81.87    3.42
  -3  -1   2  868.40   30.27
   3   1  -2  802.44   30.30
  -3  -1   2  834.06   30.31
  -3  -1   1 1367.39   47.67
   3   1  -1 1193.17   47.60
  -3  -1   1 1142.66   47.54
   3   1  -1 1370.25   47.67
  -3  -1   1 1383.02   47.66
   3   1   0    3.72    0.37
   3   1   0    7.75    0.49
  -3  -1   0    6.10    0.43
   3   1   0    3.53    0.30
  -3  -1   0    3.55    0.41
   3   1   1   49.04    2.12
   3   1   2   16.09    0.93
   3   1   2   15.05    0.80
   3   1   3   21.27    1.08
   3   1   3   23.13    1.22
   3   1   4   64.42    2.79
  -3  -1  -4   68.35    2.65
   3   1   4   67.10    2.78
   3   1   4   62.40    2.75
   3   1   4   68.09    2.99
  -3  -1  -4   71.26    3.01
  -3  -1  -4   68.51    2.75
   3   1   5   43.77    2.05
   3   1   5   44.28    2.03
   3   1   5   47.91    1.98
  -3  -1  -5   46.63    2.25
  -3  -1  -5   44.60    1.98
   3   1   6    3.30    0.43
  -3  -1  -6    2.77    0.44
   3   1   6    2.71    0.55
   3   1   6    2.87    0.56
  -3  -1  -6    2.90    0.62
  -3  -1  -6    3.08    0.69
   3   1   7    0.61    0.57
   3   1   7   -0.07    0.43
  -3  -1  -7    0.09    0.61
  -3  -1  -7    0.10    0.73
  -3  -1  -7   -0.69    0.47
  -3  -1  -8    4.23    0.43
   3   1   8    2.86    0.75
  -3  -1  -8    1.75    0.38
  -3  -1  -8    3.08    0.92
   3   1   9   -0.28    0.73
  -3  -1  -9   -0.23    0.91
  -3  -1 -10    0.61    0.98
  -3  -1 -11   -0.18    0.64
   3   1  11    0.86    1.01
  -3  -1 -11    0.47    1.10
   3   1  12    2.21    1.13
   3   2 -10    2.14    1.11
  -3  -2  10    1.78    1.01
   3   2  -9    4.47    1.05
   3   2  -9    3.70    0.79
  -3  -2   9    4.74    0.93
  -3  -2   9    5.66    1.03
  -3  -2   9    4.42    1.10
   3   2  -8    5.97    1.02
  -3  -2   8    5.70    0.93
   3   2  -8    7.37    0.89
  -3  -2   8    5.01    1.06
   3   2  -8    7.39    0.90
  -3  -2   8    6.17    0.91
  -3  -2   7    0.35    0.63
  -3  -2   7    0.49    0.43
   3   2  -7   -1.47    0.89
  -3  -2   7    0.57    0.49
   3   2  -7   -0.33    0.78
  -3  -2   7    0.56    0.72
  -3  -2   7    1.20    0.85
  -3  -2   7   -0.11    0.61
  -3  -2   6  241.92    9.62
  -3  -2   6  276.69    9.92
  -3  -2   6  259.92    9.81
  -3  -2   6  278.64    9.90
  -3  -2   6  221.21    9.59
   3   2  -6  244.14    9.87
  -3  -2   5  113.11    4.45
   3   2  -5  112.74    4.41
  -3  -2   5   98.18    4.24
  -3  -2   5  105.59    4.35
  -3  -2   5   97.90    4.23
   3   2  -5  110.35    4.44
   3   2  -4   -0.21    0.50
  -3  -2   4   -0.15    0.44
  -3  -2   4    0.05    0.37
  -3  -2   4    0.12    0.45
   3   2  -3    0.14    0.34
  -3  -2   3   -0.07    0.35
  -3  -2   3    0.38    0.33
  -3  -2   2  557.99   22.25
  -3  -2   2  592.91   22.16
   3   2  -2  593.31   22.20
  -3  -2   1  362.91   14.71
  -3  -2   1  395.61   14.65
   3   2  -1  389.59   14.66
  -3  -2   0   19.97    1.03
   3   2   1    2.89    0.40
   3   2   1    3.10    0.38
  -3  -2  -2  103.00    3.78
  -3  -2  -2   86.13    3.80
   3   2   2   91.51    3.84
  -3  -2  -3  641.87   23.99
   3   2   3  610.63   23.94
   3   2   3  604.84   24.10
  -3  -2  -3  690.95   24.15
   3   2   4    0.12    0.45
  -3  -2  -4    0.10    0.56
   3   2   5   15.33    0.85
   3   2   5   14.62    0.82
   3   2   5   13.36    0.90
  -3  -2  -5   13.15    1.05
  -3  -2  -6   47.35    2.13
   3   2   6   50.15    2.17
  -3  -2  -6   41.79    2.10
   3   2   6   55.87    2.27
  -3  -2  -6   50.71    2.49
   3   2   6   55.18    2.22
  -3  -2  -7    9.11    0.57
  -3  -2  -7    8.24    0.67
   3   2   7    6.48    0.79
   3   2   7    6.32    0.77
   3   2   7    9.51    0.80
  -3  -2  -7    8.69    0.99
  -3  -2  -7    6.68    0.62
  -3  -2  -8    3.08    0.42
  -3  -2  -8    2.41    0.49
   3   2   8    2.44    0.62
  -3  -2  -8    1.26    0.74
  -3  -2  -8    4.41    0.96
  -3  -2  -8    1.46    0.48
   3   2   8    3.10    0.65
  -3  -2  -9    0.59    0.40
  -3  -2  -9    0.17    0.80
   3   2   9   -0.07    0.68
  -3  -2  -9    1.53    1.03
  -3  -2 -10    2.32    0.45
  -3  -2 -10    1.09    0.86
  -3  -2 -10    0.71    1.05
  -3  -2 -11    0.85    0.43
  -3  -2 -11    0.91    1.12
   3   2  12    0.54    1.07
  -3  -2 -12    0.08    1.23
   3   3 -10    0.31    1.07
   3   3  -9    1.11    0.99
  -3  -3   9    2.15    0.93
  -3  -3   9    2.43    1.00
   3   3  -9    1.13    0.85
   3   3  -8    2.28    0.92
  -3  -3   8    1.68    0.82
   3   3  -8    0.50    0.80
  -3  -3   8    2.19    0.90
  -3  -3   7    1.70    0.52
   3   3  -7    0.40    0.79
   3   3  -7    0.05    0.88
  -3  -3   7    1.52    0.75
  -3  -3   7    2.84    0.72
  -3  -3   7    1.71    0.82
  -3  -3   7    1.25    0.51
  -3  -3   7    2.62    0.82
  -3  -3   6   29.26    1.77
   3   3  -6   28.10    1.81
  -3  -3   6   31.12    1.74
  -3  -3   6   32.39    1.71
   3   3  -6   31.81    1.73
  -3  -3   6   30.40    1.56
  -3  -3   6   27.27    1.58
   3   3  -6   29.78    1.75
  -3  -3   5    9.51    0.88
  -3  -3   5    9.86    0.96
   3   3  -5    8.99    0.93
  -3  -3   5    8.74    0.96
  -3  -3   5    7.85    0.86
  -3  -3   5    8.76    0.84
   3   3  -5   10.59    0.96
  -3  -3   4   73.14    3.04
   3   3  -4   66.72    2.94
  -3  -3   4   63.76    2.91
  -3  -3   4   65.16    2.86
  -3  -3   4   67.85    3.02
  -3  -3   4   67.86    2.95
  -3  -3   4   68.88    2.93
   3   3  -4   66.82    2.95
  -3  -3   3    0.57    0.48
   3   3  -3    2.18    0.43
  -3  -3   3    1.02    0.41
  -3  -3   3    0.92    0.44
  -3  -3   3    0.95    0.48
  -3  -3   2  555.09   23.04
  -3  -3   2  601.10   23.00
  -3  -3   2  610.50   23.11
   3   3  -2  600.96   22.97
  -3  -3   1  124.07    4.76
   3   3  -1  110.15    4.56
  -3  -3   1  124.78    4.61
  -3  -3   1  108.95    4.70
  -3  -3   0   46.19    2.02
  -3  -3   0   41.34    1.79
  -3  -3  -1    4.41    0.50
   3   3   1    3.39    0.40
   3   3   2  165.79    6.57
  -3  -3  -2  168.32    6.62
  -3  -3  -3   37.93    1.85
  -3  -3  -3   39.14    1.99
   3   3   3   46.07    1.92
  -3  -3  -4   44.35    1.85
   3   3   4   40.72    1.64
   3   3   4   32.86    1.81
  -3  -3  -4   37.12    1.79
  -3  -3  -4   37.06    1.93
  -3  -3  -5    2.03    0.45
  -3  -3  -5    2.68    0.70
  -3  -3  -5    1.66    0.45
  -3  -3  -6   22.59    1.23
   3   3   6   24.21    1.16
   3   3   6   24.30    1.34
  -3  -3  -6   22.27    1.51
  -3  -3  -6   18.89    1.18
  -3  -3  -7  266.79   10.33
   3   3   7  241.24   10.28
  -3  -3  -7  279.24   10.75
  -3  -3  -7  251.71   10.53
   3   3   7  237.47   10.25
  -3  -3  -7  287.90   10.34
   3   3   8   14.09    1.08
  -3  -3  -8   17.41    1.33
   3   3   8   21.17    1.27
  -3  -3  -8   20.27    1.58
   3   3   8   14.64    1.14
  -3  -3  -8   19.69    1.06
  -3  -3  -8   15.14    1.05
   3   3   9   30.81    1.65
  -3  -3  -9   29.40    2.09
  -3  -3  -9   29.57    1.91
   3   3   9   33.17    1.72
   3   3  10    0.35    0.68
  -3  -3 -10   -0.61    0.82
  -3  -3 -10    0.75    1.03
  -3  -3 -11    1.45    1.09
  -3  -3 -12    0.57    1.27
   3   4  -9   -0.21    0.99
  -3  -4   9   -0.26    0.99
   3   4  -8   -0.20    0.89
   3   4  -8    0.59    0.94
  -3  -4   8   -0.04    0.74
  -3  -4   8   -0.96    0.93
   3   4  -7   -1.48    0.80
   3   4  -7    0.38    0.94
  -3  -4   7    1.07    0.82
  -3  -4   7    0.42    0.58
  -3  -4   6    0.83    0.67
   3   4  -6    0.51    0.77
  -3  -4   6    1.91    0.75
   3   4  -6   -0.16    1.00
  -3  -4   6    1.30    0.81
  -3  -4   6    0.86    0.72
   3   4  -6    1.15    0.73
  -3  -4   5   13.03    0.92
  -3  -4   5    9.16    1.11
   3   4  -5   12.30    1.04
  -3  -4   5   11.21    1.12
  -3  -4   5    7.29    0.99
  -3  -4   5   12.11    0.99
  -3  -4   5   11.23    1.05
   3   4  -5   11.16    1.01
   3   4  -4    1.52    0.56
  -3  -4   4    1.54    0.67
  -3  -4   4    1.26    0.70
   3   4  -4    1.96    0.64
  -3  -4   4    1.92    0.53
  -3  -4   4    0.70    0.66
  -3  -4   4    2.04    0.70
  -3  -4   3   27.13    1.45
  -3  -4   3   25.04    1.47
   3   4  -3   22.47    1.35
  -3  -4   3   24.99    1.44
   3   4  -3   26.57    1.30
  -3  -4   2    5.27    0.60
   3   4  -2    5.97    0.59
  -3  -4   2    4.52    0.66
  -3  -4   2    4.98    0.70
   3   4  -2    4.68    0.47
  -3  -4   1  162.03    6.38
  -3  -4   1  177.94    6.68
   3   4  -1  157.69    6.35
  -3  -4   1  171.32    6.60
  -3  -4   0  103.60    4.29
  -3  -4   0  108.56    4.34
  -3  -4   0   98.93    4.02
  -3  -4   0  103.68    4.25
  -3  -4  -1    0.05    0.22
   3   4   1    0.04    0.16
  -3  -4  -1    0.06    0.44
  -3  -4  -1    0.03    0.41
  -3  -4  -1    0.18    0.44
   3   4   1    0.14    0.29
  -3  -4  -2  188.12    7.50
   3   4   2  199.45    7.36
  -3  -4  -2  191.77    7.49
  -3  -4  -2  170.50    7.42
  -3  -4  -3  197.42    7.70
   3   4   3  204.12    7.57
  -3  -4  -3  181.15    7.35
  -3  -4  -3  186.79    7.49
  -3  -4  -3  197.35    7.66
  -3  -4  -3  209.28    7.64
  -3  -4  -4    8.45    0.54
  -3  -4  -4   10.14    0.83
  -3  -4  -4    6.50    0.80
   3   4   4   11.24    0.73
  -3  -4  -4    8.37    0.69
  -3  -4  -4    8.30    0.77
   3   4   5    3.36    0.32
   3   4   5    3.70    0.48
  -3  -4  -5    3.79    0.62
  -3  -4  -5    2.93    0.60
  -3  -4  -5    3.47    0.74
  -3  -4  -6    5.70    0.70
   3   4   6    4.64    0.55
  -3  -4  -6    5.87    0.91
  -3  -4  -6    5.17    0.71
  -3  -4  -7  211.31    9.45
   3   4   7  239.87    9.32
  -3  -4  -7  242.65    9.83
  -3  -4  -7  246.30    9.62
  -3  -4  -7  242.70    9.48
  -3  -4  -8   64.75    3.29
   3   4   8   67.70    2.84
   3   4   8   59.58    2.76
   3   4   8   82.63    3.19
  -3  -4  -8   61.14    2.87
  -3  -4  -8   69.56    3.12
  -3  -4  -8   58.81    2.90
   3   4   9    0.92    0.71
  -3  -4  -9    1.53    0.81
  -3  -4  -9    2.86    1.04
   3   4  10    8.57    0.99
  -3  -4 -10    6.67    1.08
  -3  -4 -10    5.78    1.23
   3   4  11    9.94    1.11
  -3  -4 -11    4.36    1.29
  -3  -4 -12    1.09    1.32
  -3  -5   8    1.70    1.08
   3   5  -7    0.43    1.06
  -3  -5   7    1.48    0.96
  -3  -5   7    0.16    0.66
  -3  -5   7    0.23    0.54
   3   5  -6    3.36    1.13
  -3  -5   6    2.64    0.79
   3   5  -6    3.00    0.77
   3   5  -6    3.54    0.83
  -3  -5   6    2.43    0.75
  -3  -5   6    2.40    0.59
   3   5  -5   -0.03    0.59
  -3  -5   5    0.04    0.70
  -3  -5   5   -0.63    0.79
  -3  -5   5   -0.52    0.90
   3   5  -5    0.04    0.70
  -3  -5   5    0.10    0.50
   3   5  -4   15.77    1.12
  -3  -5   4   15.41    0.91
  -3  -5   4   13.35    1.27
  -3  -5   4   15.90    1.21
  -3  -5   4   16.31    1.25
   3   5  -4   15.05    0.99
  -3  -5   3   50.09    2.35
  -3  -5   3   56.53    2.81
   3   5  -3   61.93    2.65
  -3  -5   3   60.73    2.74
   3   5  -3   61.13    2.48
  -3  -5   3   63.19    2.83
   3   5  -2   -0.26    0.32
  -3  -5   2   -0.23    0.65
  -3  -5   2   -0.43    0.56
   3   5  -2    0.84    0.49
  -3  -5   2    0.53    0.65
   3   5  -1   12.59    0.85
  -3  -5   1    9.59    0.98
  -3  -5   0   12.96    0.68
   3   5   0   13.55    0.96
  -3  -5   0   13.33    1.07
  -3  -5   0   15.51    1.09
  -3  -5   0   13.48    1.06
  -3  -5  -1    0.49    0.22
  -3  -5  -1    0.52    0.54
  -3  -5  -1    0.73    0.56
   3   5   1    0.41    0.25
   3   5   1    0.95    0.34
  -3  -5  -1    0.59    0.42
  -3  -5  -2   84.04    3.36
   3   5   2   67.04    3.16
  -3  -5  -2   74.40    3.16
   3   5   2   72.05    3.04
  -3  -5  -2   71.39    3.25
   3   5   3  220.45    8.62
  -3  -5  -3  223.39    8.85
  -3  -5  -3  218.46    8.79
  -3  -5  -4    3.77    0.69
  -3  -5  -4    2.92    0.65
  -3  -5  -4    3.05    0.42
   3   5   4    2.96    0.49
  -3  -5  -4    3.42    0.47
  -3  -5  -5    2.29    0.68
  -3  -5  -5    3.76    0.48
  -3  -5  -5    3.02    0.68
  -3  -5  -5    4.03    0.54
  -3  -5  -5    3.17    0.73
  -3  -5  -6    7.09    0.87
  -3  -5  -6    7.97    1.05
  -3  -5  -6    6.64    0.84
  -3  -5  -7   22.35    1.69
  -3  -5  -7   20.17    1.36
  -3  -5  -7   20.40    1.38
  -3  -5  -7   21.01    1.44
   3   5   8  129.89    5.40
  -3  -5  -8  126.12    5.92
   3   5   8  136.67    5.43
  -3  -5  -8  134.54    5.73
  -3  -5  -8  133.40    5.66
  -3  -5  -8  129.79    5.62
   3   5   9    0.81    0.77
  -3  -5  -9   -0.05    0.73
  -3  -5  -9    0.14    0.93
  -3  -5  -9    0.25    0.67
   3   5  10    1.38    0.83
  -3  -5 -10    0.14    0.99
  -3  -5 -10   -0.72    0.81
   3   5  11    8.19    1.07
  -3  -5 -11    7.59    1.44
  -3  -5 -11    6.27    1.13
   3   5  12    0.32    0.94
  -3  -5 -12    0.52    1.29
  -3  -6   7    3.60    0.88
  -3  -6   7    4.52    1.08
  -3  -6   6    2.50    0.95
  -3  -6   6    3.88    0.91
  -3  -6   5    1.95    0.86
   3   6  -5    0.40    1.07
  -3  -6   5    1.01    0.77
   3   6  -5    2.15    0.79
  -3  -6   5    2.06    0.88
  -3  -6   4    0.61    0.77
  -3  -6   4    1.06    0.92
  -3  -6   4    1.12    0.70
   3   6  -4    1.19    0.69
  -3  -6   4    0.63    0.27
   3   6  -3    0.58    0.40
  -3  -6   3    0.48    0.78
   3   6  -3   -0.47    0.70
  -3  -6   3    0.64    0.82
  -3  -6   3    0.25    0.34
  -3  -6   2    1.23    0.75
   3   6  -2    0.47    0.31
   3   6  -2    1.47    0.57
  -3  -6   2    0.85    0.79
   3   6  -1    9.73    0.82
  -3  -6   1    7.76    0.95
  -3  -6   1    7.72    0.62
   3   6   0   -0.04    0.57
  -3  -6   0    0.50    0.41
  -3  -6  -1    0.22    0.65
   3   6   1    0.71    0.32
   3   6   1    1.16    0.54
   3   6   1    0.54    0.49
   3   6   1    0.79    0.38
  -3  -6  -1    0.37    0.66
  -3  -6  -1    0.76    0.50
   3   6   2    7.23    0.48
   3   6   2    8.25    0.63
  -3  -6  -2    7.32    0.77
   3   6   2    7.90    0.81
  -3  -6  -2    9.09    0.92
  -3  -6  -2    5.84    0.39
  -3  -6  -2    6.15    0.89
   3   6   2    7.87    0.80
  -3  -6  -3   14.80    1.18
  -3  -6  -3   16.39    1.14
   3   6   3   13.23    0.87
  -3  -6  -3   14.82    1.16
  -3  -6  -4    9.21    0.96
  -3  -6  -4    9.96    0.99
   3   6   4    7.96    0.66
  -3  -6  -4    9.54    0.96
  -3  -6  -5    8.88    0.70
  -3  -6  -5   10.54    1.02
  -3  -6  -5   10.45    0.75
   3   6   5    9.19    0.90
  -3  -6  -5   11.03    1.07
  -3  -6  -6   14.33    0.98
   3   6   6   11.84    1.03
  -3  -6  -6   12.93    1.15
  -3  -6  -6   12.29    1.19
   3   6   7  141.62    6.40
  -3  -6  -7  167.63    6.60
  -3  -6  -7  155.08    6.75
  -3  -6  -7  162.78    6.34
  -3  -6  -7  159.33    6.55
  -3  -6  -8    3.37    0.91
  -3  -6  -8    2.49    0.82
  -3  -6  -8    2.57    0.69
   3   6   8    3.04    0.70
   3   6   8    3.06    0.97
  -3  -6  -8    3.51    1.07
  -3  -6  -8    3.60    0.77
   3   6   9    1.13    0.64
   3   6   9    2.28    0.90
  -3  -6  -9    1.12    1.04
  -3  -6  -9    1.20    0.74
  -3  -6  -9    1.88    0.80
   3   6  10    6.28    1.10
  -3  -6 -10    6.42    1.29
  -3  -6 -10    5.75    0.99
   3   6  11    0.05    0.92
  -3  -6 -11   -1.38    1.23
  -3  -6 -11   -0.06    0.91
   3   6  12    5.69    1.17
  -3  -7   7    3.35    1.12
  -3  -7   6   12.01    1.28
  -3  -7   6   10.72    1.30
  -3  -7   5    5.61    1.05
  -3  -7   5    6.59    1.14
  -3  -7   4    1.25    0.92
  -3  -7   4    1.31    0.81
   3   7  -4    2.24    0.78
  -3  -7   4    1.99    0.95
  -3  -7   3    2.14    0.93
  -3  -7   3    1.71    0.99
  -3  -7   3    1.48    0.76
   3   7  -3    1.79    0.74
  -3  -7   2    0.74    0.97
  -3  -7   2    1.52    0.86
   3   7  -2    1.23    0.68
  -3  -7   2    0.18    0.30
   3   7  -1   92.24    3.76
  -3  -7   1   76.37    3.44
  -3  -7   1   96.91    4.09
  -3  -7   1   97.89    4.06
   3   7   0   11.07    1.04
  -3  -7   0   10.94    0.81
   3   7   1   10.14    0.94
   3   7   1    9.13    0.68
   3   7   1   10.66    1.00
  -3  -7  -1    7.83    0.82
   3   7   1    9.73    0.73
  -3  -7  -1    9.07    1.10
  -3  -7  -1   10.51    1.15
  -3  -7  -2    2.56    0.82
   3   7   2    2.16    0.42
   3   7   2    2.65    0.66
   3   7   2    2.35    0.72
  -3  -7  -2    1.53    0.85
   3   7   2    2.49    0.47
  -3  -7  -2    3.00    0.69
  -3  -7  -3   45.73    2.22
   3   7   3   39.50    1.91
   3   7   3   46.37    2.30
  -3  -7  -3   41.46    2.28
  -3  -7  -3   43.98    2.35
  -3  -7  -4   14.15    1.28
  -3  -7  -4   14.93    1.24
   3   7   4   14.96    0.90
  -3  -7  -4   15.76    1.37
   3   7   5   12.34    1.17
  -3  -7  -5   14.55    1.30
  -3  -7  -5   18.93    1.39
  -3  -7  -5   16.10    1.34
  -3  -7  -6    3.64    0.92
   3   7   6    3.53    0.84
  -3  -7  -6    3.80    0.65
  -3  -7  -6    2.71    0.89
  -3  -7  -6    2.07    0.98
  -3  -7  -6    2.84    0.50
  -3  -7  -7   -0.89    0.87
  -3  -7  -7   -0.64    0.81
  -3  -7  -7   -0.29    0.67
   3   7   7   -0.32    0.74
  -3  -7  -8    0.15    0.83
  -3  -7  -8    0.97    0.92
   3   7   8    0.85    0.70
  -3  -7  -8    0.45    0.66
  -3  -7  -8    1.47    0.60
  -3  -7  -9    8.51    0.99
   3   7   9    8.42    0.98
  -3  -7  -9   10.09    1.01
  -3  -7  -9    9.30    1.15
  -3  -7  -9    7.85    1.28
   3   7   9   10.96    1.26
  -3  -7 -10    6.41    0.98
   3   7  10    7.73    0.95
   3   7  10   10.30    1.29
  -3  -7 -10    8.68    1.43
  -3  -7 -10    7.79    1.02
   3   7  11    3.65    1.17
  -3  -7 -11    4.11    1.38
  -3  -7 -11    2.20    0.96
   3   7  11    2.45    0.70
  -3  -8   6    3.23    1.19
  -3  -8   6    3.97    1.18
  -3  -8   5    3.36    1.10
  -3  -8   5    4.20    1.17
  -3  -8   4    0.87    1.03
  -3  -8   3    0.80    0.99
   3   8  -3    0.26    0.76
  -3  -8   3    0.31    0.98
  -3  -8   2    6.85    1.19
  -3  -8   2    6.70    1.21
   3   8  -2    7.22    0.92
  -3  -8   1    2.58    1.03
  -3  -8   1    2.81    1.10
   3   8  -1    3.07    0.80
  -3  -8   1    0.97    0.38
   3   8   0   53.99    2.49
  -3  -8   0   44.42    2.15
  -3  -8   0   55.65    2.83
   3   8   1    2.65    0.80
  -3  -8  -1    2.07    0.93
   3   8   1    0.81    0.53
   3   8   1    1.44    0.73
  -3  -8  -1    2.64    0.65
   3   8   1    2.18    0.52
   3   8   2   69.99    3.09
   3   8   2   57.51    2.76
   3   8   2   68.61    3.24
  -3  -8  -2   64.02    2.97
   3   8   2   66.29    2.79
  -3  -8  -2   77.94    3.44
  -3  -8  -2   69.90    3.34
   3   8   3   58.43    2.78
  -3  -8  -3   45.77    2.48
  -3  -8  -3   53.72    2.81
  -3  -8  -3   48.92    2.75
   3   8   3   51.28    2.56
  -3  -8  -4   50.31    2.45
  -3  -8  -4   55.13    2.67
  -3  -8  -4   48.02    2.56
  -3  -8  -4   42.78    1.90
  -3  -8  -5    3.56    0.98
  -3  -8  -5    3.17    0.95
   3   8   5    5.27    0.96
  -3  -8  -5    3.97    0.95
  -3  -8  -6    9.30    1.17
  -3  -8  -6    7.80    1.21
   3   8   6    7.37    1.05
  -3  -8  -6    7.13    1.10
  -3  -8  -7   19.46    1.30
   3   8   7   18.61    1.69
  -3  -8  -7   18.78    1.60
   3   8   7   15.61    1.43
  -3  -8  -7   19.27    1.57
  -3  -8  -7   19.35    1.59
  -3  -8  -8   -0.11    0.91
   3   8   8    0.05    0.81
  -3  -8  -8    0.20    1.01
  -3  -8  -8   -0.06    0.87
  -3  -8  -8    0.32    0.72
  -3  -8  -9    4.10    0.94
   3   8   9    1.84    0.85
  -3  -8  -9    4.79    1.09
  -3  -8  -9    3.72    0.70
  -3  -8 -10    6.71    1.06
   3   8  10    6.74    1.05
   3   8  10    8.25    1.29
  -3  -8 -11   16.87    1.57
   3   8  11   15.74    1.35
   3   8  11   17.86    1.72
  -3  -9   5    4.72    1.29
  -3  -9   4    1.05    1.18
  -3  -9   3    0.21    1.07
  -3  -9   2    0.91    1.08
   3   9  -1   49.26    2.53
  -3  -9   1   50.79    2.90
   3   9   0   -0.04    0.73
  -3  -9   0    0.27    0.49
  -3  -9   0    0.76    1.08
   3   9   1    0.47    0.82
   3   9   1    1.55    0.81
  -3  -9  -1    0.57    0.59
  -3  -9  -2    2.61    1.03
  -3  -9  -2    1.10    1.05
  -3  -9  -2    1.18    0.67
   3   9   2    1.26    0.83
   3   9   2    2.60    0.92
  -3  -9  -3   11.32    1.36
  -3  -9  -3   11.34    1.42
   3   9   3   11.40    1.30
  -3  -9  -3   10.00    1.07
   3   9   3   10.40    1.20
  -3  -9  -4   84.68    4.09
  -3  -9  -4   99.43    4.47
  -3  -9  -4   93.29    4.39
   3   9   4   94.83    4.18
   3   9   5   74.06    3.31
  -3  -9  -5   62.08    3.05
  -3  -9  -5   67.05    3.28
  -3  -9  -5   73.72    3.33
  -3  -9  -5   55.01    2.47
   3   9   6   36.11    2.23
  -3  -9  -6   34.92    2.16
  -3  -9  -6   39.49    2.35
  -3  -9  -6   34.81    1.70
  -3  -9  -7    2.38    0.69
   3   9   7    1.63    0.94
   3   9   7    2.67    1.19
  -3  -9  -7    2.36    1.02
  -3  -9  -7    3.90    1.08
  -3  -9  -8    0.53    0.72
   3   9   8    0.19    0.93
   3   9   8    0.15    1.07
  -3  -9  -8    0.07    1.00
  -3  -9  -8    0.26    1.03
  -3  -9  -9    5.39    0.96
   3   9   9    8.35    1.18
  -3  -9  -9    6.50    1.02
  -3  -9  -9    9.14    1.32
  -3  -9  -9    7.44    1.38
   3   9  10    2.01    0.99
  -3  -9 -10    2.28    0.94
  -3  -9 -10    4.83    1.42
  -3  -9 -11    5.77    1.18
  -3 -10   4    5.39    1.40
  -3 -10   3    4.01    1.40
  -3 -10   2   10.13    1.54
  -3 -10   1   20.86    1.89
  -3 -10   0   53.38    3.14
   3  10   1    1.46    0.89
  -3 -10  -1   -0.05    0.56
   3  10   2    0.76    0.86
  -3 -10  -2    1.27    0.72
  -3 -10  -2    0.07    1.09
   3  10   3   24.11    1.91
  -3 -10  -3   23.01    1.54
  -3 -10  -3   26.17    1.99
  -3 -10  -4    4.28    1.01
  -3 -10  -4    5.58    1.25
   3  10   5   -0.07    0.97
  -3 -10  -5    0.32    0.95
  -3 -10  -5   -2.04    1.18
  -3 -10  -6    0.80    0.42
   3  10   6    1.70    1.02
  -3 -10  -6    0.36    0.99
  -3 -10  -6   -0.29    1.09
  -3 -10  -7    2.81    0.63
   3  10   7    3.58    1.15
   3  10   7    4.00    1.35
  -3 -10  -7    6.14    1.24
  -3 -10  -7    4.60    1.18
   3  10   8   28.65    2.08
  -3 -10  -8   32.02    2.16
   3  10   8   31.53    2.24
  -3 -10  -8   24.02    2.01
  -3 -10  -8   23.59    1.51
  -3 -10  -9    2.61    0.85
   3  10   9    2.97    1.14
  -3 -10  -9    2.78    1.24
  -3 -10  -9    4.25    1.30
  -3 -10 -10    1.28    0.89
   3  10  10    0.46    1.10
  -3 -11   1   10.06    1.70
   3  11   0   13.04    1.41
  -3 -11   0   15.73    1.81
   3  11   1    1.31    0.99
  -3 -11  -1    0.75    1.24
  -3 -11  -2    3.46    0.77
   3  11   2    4.45    1.15
  -3 -11  -2    5.33    1.44
   3  11   3    0.54    1.08
  -3 -11  -3    1.01    0.79
  -3 -11  -3   -0.24    1.13
  -3 -11  -4    0.81    0.90
  -3 -11  -4    0.32    1.17
   3  11   5   13.34    1.58
  -3 -11  -5   10.59    1.30
  -3 -11  -5   10.06    1.54
   3  11   6   12.68    1.58
  -3 -11  -6    8.06    1.50
  -3 -11  -6   10.88    1.47
   3  11   7    0.39    1.15
  -3 -11  -7   -0.16    1.21
  -3 -11  -7   -1.28    1.21
   3  11   8    1.17    1.21
  -3 -11  -8    0.59    1.27
   3  11   9    1.30    1.19
   3  11  10    7.80    1.50
  -3 -12  -5    0.05    0.94
  -3 -12  -6    0.52    1.10
  -3 -12  -7   -0.13    1.09
  -4  11   3    0.29    1.03
  -4  11   2   -0.22    1.14
  -4  11   2   -0.08    1.16
  -4  11   1   -2.37    1.25
  -4  11   1   -1.43    1.06
   4 -10  -9    5.47    1.12
   4 -10  -8    6.74    1.07
  -4  10   8    4.48    1.53
   4 -10  -7    1.44    0.84
  -4  10   7    2.23    1.36
  -4  10   7    1.89    0.98
  -4  10   6    1.56    1.27
  -4  10   6   -0.05    0.93
  -4  10   5    0.37    0.97
  -4  10   5    2.27    1.30
  -4  10   4    0.64    0.94
  -4  10   4    0.60    0.87
  -4  10   3    1.91    1.01
  -4  10   3    2.02    0.98
  -4  10   3    2.11    1.30
  -4  10   2   10.08    1.35
  -4  10   2    8.21    1.28
  -4  10   2    9.66    1.55
  -4  10   2    9.46    1.20
  -4  10   1    2.11    1.06
  -4  10   1    3.05    1.22
  -4  10   1    0.95    1.16
  -4  10   1    2.95    1.06
  -4  10   0   14.40    1.60
  -4  10   0   12.31    1.59
  -4  10   0   14.04    1.71
  -4  10   0   18.63    1.60
  -4  10  -1    6.06    1.39
  -4  10  -1    6.07    1.27
  -4  10  -1    7.66    1.42
  -4  10  -1    5.42    1.10
  -4  10  -2    5.33    1.09
  -4  10  -2    5.48    1.41
  -4  10  -2    5.87    1.40
  -4  10  -3    1.20    1.33
  -4   9  10    0.80    1.24
   4  -9  -9    2.66    1.03
  -4   9   9    0.69    1.23
   4  -9  -8    0.99    0.89
  -4   9   8    3.25    1.03
  -4   9   8    2.07    1.27
   4  -9  -7    8.29    1.09
  -4   9   7    8.93    1.51
  -4   9   7   10.13    1.17
   4  -9  -6    7.97    1.04
  -4   9   6    8.55    1.50
  -4   9   6    8.66    1.10
  -4   9   5    0.50    1.21
  -4   9   5    0.39    0.87
  -4   9   5    1.59    1.19
  -4   9   4    0.59    0.87
  -4   9   4    1.00    0.79
  -4   9   4    1.10    0.81
  -4   9   3   33.78    1.90
  -4   9   3   35.42    1.95
  -4   9   3   34.21    2.09
  -4   9   3   35.30    2.42
  -4   9   3   32.05    2.12
  -4   9   2    5.84    1.28
  -4   9   2    3.22    1.14
  -4   9   2    4.52    0.90
  -4   9   2    4.21    1.00
  -4   9   2    4.45    0.91
  -4   9   2    4.45    0.85
  -4   9   1    5.14    1.27
  -4   9   1    3.28    1.03
  -4   9   1    6.94    1.04
  -4   9   1    4.02    1.19
  -4   9   1    5.96    1.00
  -4   9   0   11.87    1.29
  -4   9   0    9.42    1.35
  -4   9   0    9.64    1.45
  -4   9  -1   14.51    1.62
  -4   9  -1   18.75    1.61
  -4   9  -1   16.33    1.71
  -4   9  -2    5.66    1.06
  -4   9  -2    9.26    1.35
  -4   9  -2    7.42    1.43
  -4   9  -3    0.07    1.16
  -4   9  -3    0.07    1.11
  -4   9  -3   -0.60    0.80
  -4   9  -4    0.70    0.82
  -4   8  10   -0.06    1.14
   4  -8  -9    1.78    0.97
  -4   8   9    3.28    1.19
   4  -8  -8   -0.68    0.89
  -4   8   8    0.64    1.10
  -4   8   8    1.52    0.91
   4  -8  -8    0.20    0.52
  -4   8   7   19.48    1.82
  -4   8   7   21.15    1.45
   4  -8  -7   15.21    0.95
   4  -8  -7   16.92    1.41
   4  -8  -6   -0.13    0.69
  -4   8   6   -0.53    1.10
  -4   8   6    0.33    1.02
  -4   8   6    0.23    0.75
   4  -8  -6    0.11    0.36
   4  -8  -5    7.01    0.91
  -4   8   5    7.64    1.31
  -4   8   5    6.38    0.93
  -4   8   5    8.91    1.42
  -4   8   5    8.74    1.34
  -4   8   4   12.20    0.99
  -4   8   4   12.20    1.10
  -4   8   4   12.16    1.19
  -4   8   4   11.50    1.10
  -4   8   4   10.08    1.32
  -4   8   3    0.52    0.95
  -4   8   3    0.64    0.96
  -4   8   3    0.36    0.75
  -4   8   3    0.11    0.86
  -4   8   3    0.64    0.68
  -4   8   3    0.53    0.64
  -4   8   3    0.62    0.67
  -4   8   3    0.10    0.83
  -4   8   2   33.41    1.87
  -4   8   2   31.58    1.98
  -4   8   2   37.06    1.85
  -4   8   2   34.89    1.96
  -4   8   2   32.66    2.10
  -4   8   2   33.03    1.87
  -4   8   2   29.24    2.12
  -4   8   2   36.51    2.22
  -4   8   1   18.54    1.38
  -4   8   1   17.85    1.50
  -4   8   1   19.42    1.39
  -4   8   1   21.82    1.29
  -4   8   1   17.60    1.60
  -4   8   1   19.50    1.62
  -4   8   1   18.16    1.58
  -4   8   0    8.29    1.22
  -4   8   0    6.70    1.20
  -4   8   0    6.22    1.10
  -4   8   0    8.56    1.07
  -4   8   0    7.80    1.06
  -4   8  -1   65.57    3.17
  -4   8  -1   67.91    3.14
  -4   8  -1   59.05    3.35
  -4   8  -1   56.09    3.17
  -4   8  -2    0.31    0.99
  -4   8  -2   -0.29    1.05
  -4   8  -2    0.24    0.90
  -4   8  -2    1.01    0.76
  -4   8  -3   24.59    1.55
  -4   8  -3   24.08    1.85
  -4   8  -3   26.26    1.99
  -4   8  -3   21.33    1.79
  -4   8  -4    3.08    0.80
  -4   8  -4    2.63    1.11
  -4   8  -4    1.71    1.12
  -4   8  -5    6.42    1.29
  -4   8  -5    5.22    0.89
   4  -7 -10    1.09    1.06
  -4   7  10   -0.11    0.98
  -4   7  10   -0.17    0.98
   4  -7  -9    1.95    0.97
  -4   7   9    0.66    0.86
  -4   7   9    0.06    1.09
  -4   7   9    1.43    1.00
   4  -7  -8    6.56    1.06
  -4   7   8    5.40    1.14
  -4   7   8    7.84    1.29
  -4   7   8    6.55    0.94
   4  -7  -8    5.48    0.72
  -4   7   7   19.04    1.43
   4  -7  -7   18.39    1.13
  -4   7   7   23.37    1.80
  -4   7   7   19.53    1.60
   4  -7  -7   19.32    1.47
  -4   7   6   21.13    1.39
  -4   7   6   21.89    1.76
   4  -7  -6   18.72    1.11
  -4   7   6   19.20    1.68
  -4   7   6   20.52    1.66
   4  -7  -6   21.21    1.67
   4  -7  -6   19.38    1.41
  -4   7   5   10.33    1.26
  -4   7   5    9.73    0.95
  -4   7   5    9.39    1.25
   4  -7  -5    8.99    0.71
   4  -7  -5    9.42    0.98
  -4   7   5    9.76    1.26
  -4   7   4   12.44    1.10
  -4   7   4   13.26    1.15
  -4   7   4   12.30    1.27
  -4   7   4   13.32    1.06
   4  -7  -4   10.89    0.73
  -4   7   4   11.63    0.88
   4  -7  -4   11.35    1.02
  -4   7   4   10.56    0.86
  -4   7   3   52.71    2.67
  -4   7   3   64.01    2.62
  -4   7   3   52.66    2.49
  -4   7   3   60.05    2.82
  -4   7   3   61.16    2.64
  -4   7   3   58.20    2.82
   4  -7  -3   48.56    2.30
  -4   7   3   49.09    2.84
  -4   7   3   55.46    2.90
  -4   7   3   59.53    2.61
  -4   7   2    2.71    0.92
  -4   7   2    2.25    0.70
  -4   7   2    0.97    0.67
  -4   7   2    1.59    0.84
  -4   7   2    1.29    0.65
  -4   7   2    2.28    0.63
  -4   7   2    1.11    0.75
  -4   7   2    1.88    0.83
  -4   7   2    1.98    0.91
  -4   7   1   -0.54    0.79
  -4   7   1   -0.28    0.57
  -4   7   1   -0.67    0.80
  -4   7   1   -0.40    0.68
  -4   7   1   -0.94    0.87
  -4   7   1   -0.27    0.68
  -4   7   1    0.06    0.56
  -4   7   1    0.26    0.73
  -4   7   1   -0.06    0.81
  -4   7   0   -0.24    0.82
  -4   7   0    0.11    0.57
  -4   7   0    0.34    0.78
  -4   7   0   -0.13    0.71
  -4   7   0   -0.24    0.52
  -4   7   0   -0.06    0.78
  -4   7   0    0.99    0.74
  -4   7   0    0.35    0.62
  -4   7   0   -0.11    0.86
  -4   7  -1    4.47    0.70
  -4   7  -1    4.79    1.00
  -4   7  -1    4.55    0.93
  -4   7  -1    6.32    0.96
  -4   7  -1    4.84    0.66
  -4   7  -1    5.44    1.05
  -4   7  -2   71.21    3.25
  -4   7  -2   64.85    3.05
  -4   7  -2   66.65    3.33
  -4   7  -2   63.85    3.25
  -4   7  -2   63.30    3.17
  -4   7  -3   14.66    1.36
  -4   7  -3   14.40    1.13
  -4   7  -3   15.84    1.41
  -4   7  -3   15.14    1.49
  -4   7  -3   13.93    1.41
  -4   7  -4    2.37    0.99
  -4   7  -4    3.48    1.07
  -4   7  -4    2.88    1.01
  -4   7  -4    3.55    0.73
  -4   7  -5    0.26    0.94
  -4   7  -5    1.74    0.67
  -4   7  -5    1.66    1.01
   4  -7   6   -0.12    0.54
   4  -6 -10    1.80    1.00
  -4   6  10    1.15    0.95
  -4   6  10    1.77    0.97
   4  -6  -9    1.23    0.88
  -4   6   9    1.01    0.95
  -4   6   9    0.86    0.83
  -4   6   9    2.29    0.98
   4  -6  -8    0.50    0.84
  -4   6   8    1.00    0.95
  -4   6   8    1.37    0.76
  -4   6   8    1.53    0.86
   4  -6  -7    0.55    0.78
  -4   6   7    0.80    0.87
  -4   6   7   -0.43    0.70
  -4   6   7   -0.50    1.07
  -4   6   7   -0.54    0.88
   4  -6  -6   20.19    1.60
  -4   6   6   24.77    1.50
  -4   6   6   25.83    1.83
  -4   6   6   22.36    1.65
   4  -6  -6   21.90    1.24
  -4   6   6   21.95    1.62
  -4   6   6   21.68    1.34
   4  -6  -6   24.09    1.53
  -4   6   5   11.76    1.29
   4  -6  -5   10.73    1.25
   4  -6  -5   12.40    1.08
  -4   6   5   11.70    1.01
  -4   6   5   11.97    1.25
   4  -6  -5   10.97    0.81
  -4   6   4   45.68    2.24
  -4   6   4   42.27    1.94
  -4   6   4   43.39    1.94
  -4   6   4   41.69    2.10
  -4   6   4   46.06    2.44
  -4   6   4   47.30    2.42
   4  -6  -4   44.01    1.99
   4  -6  -4   41.70    2.16
  -4   6   3   44.55    2.21
  -4   6   3   39.38    2.02
  -4   6   3   44.36    2.29
  -4   6   3   43.16    2.12
  -4   6   3   49.88    2.42
   4  -6  -3   45.03    2.00
  -4   6   3   43.37    2.03
   4  -6  -3   43.71    2.15
  -4   6   3   48.50    2.21
  -4   6   2   46.84    2.05
  -4   6   2   39.18    2.19
  -4   6   2   39.00    2.08
  -4   6   2   43.21    1.95
  -4   6   2   38.46    2.22
   4  -6  -2   36.19    1.81
  -4   6   2   38.40    1.91
  -4   6   2   40.78    2.12
  -4   6   2   39.99    1.97
  -4   6   1   58.13    2.53
  -4   6   1   69.96    2.94
  -4   6   1   66.58    3.08
  -4   6   1   62.20    3.10
  -4   6   1   69.89    2.98
  -4   6   1   77.21    2.86
  -4   6   1   64.47    3.14
   4  -6  -1   70.86    2.85
  -4   6   1   68.44    2.95
  -4   6   1   69.06    2.86
  -4   6   0   -0.27    0.54
  -4   6   0   -0.05    0.68
  -4   6   0    0.64    0.63
  -4   6   0   -1.81    0.84
  -4   6   0    0.37    0.62
  -4   6   0   -0.34    0.47
  -4   6   0    0.68    0.78
  -4   6   0   -0.11    0.54
  -4   6   0   -0.78    0.52
  -4   6  -1   25.10    1.52
  -4   6  -1   20.11    1.25
  -4   6  -1   23.07    1.20
  -4   6  -1   23.47    1.63
  -4   6  -1   22.94    1.39
  -4   6  -1   23.20    1.31
  -4   6  -1   26.83    1.54
  -4   6  -2  250.99    9.78
  -4   6  -2  263.53    9.71
  -4   6  -2  234.99    9.53
  -4   6  -2  238.67    9.28
  -4   6  -2  240.92    9.68
  -4   6  -2  248.92    9.61
  -4   6  -2  222.71    9.44
  -4   6  -3   54.53    2.75
  -4   6  -3   53.36    2.52
  -4   6  -3   54.09    2.70
  -4   6  -3   54.65    2.80
  -4   6  -3   55.30    2.79
  -4   6  -3   57.38    2.80
  -4   6  -4    0.62    0.83
  -4   6  -4   -0.37    0.81
  -4   6  -4   -0.61    0.83
  -4   6  -4   -0.27    0.56
  -4   6  -4   -0.56    0.79
  -4   6  -4    0.98    0.86
  -4   6  -5    2.30    0.90
   4  -6   5    1.58    0.47
  -4   6  -5    2.39    0.59
  -4   6  -5    0.29    0.88
  -4   6  -5    1.04    0.85
   4  -6   6    0.59    0.50
  -4   6  -6    1.90    0.96
  -4   6  -7    4.22    1.23
   4  -6   7    2.34    0.62
  -4   6  -8    2.15    1.08
   4  -6   8    1.42    0.71
  -4   5  10   11.56    1.24
  -4   5  10    9.93    1.06
  -4   5   9    3.46    0.91
  -4   5   9    2.28    0.85
  -4   5   9    2.27    0.86
  -4   5   8    0.09    0.78
  -4   5   8   -0.59    0.82
  -4   5   8    0.04    0.70
  -4   5   7    0.78    0.82
   4  -5  -7   -0.54    0.86
   4  -5  -7   -0.40    0.82
  -4   5   7    0.30    0.69
  -4   5   7   -0.79    1.05
  -4   5   7   -0.18    0.81
  -4   5   6    1.21    0.85
   4  -5  -6    0.23    0.78
   4  -5  -6    1.53    0.86
  -4   5   6    0.40    0.64
  -4   5   6    0.06    0.96
   4  -5  -5    4.52    0.85
   4  -5  -5    4.93    0.89
  -4   5   5    6.63    0.79
  -4   5   5    4.96    0.94
   4  -5  -5    3.14    0.92
  -4   5   5    5.80    0.88
  -4   5   5    4.87    0.69
   4  -5  -5    6.24    0.67
  -4   5   5    7.29    1.13
   4  -5  -4    5.23    0.77
  -4   5   4    7.37    0.87
  -4   5   4    5.47    0.61
   4  -5  -4    6.11    0.92
  -4   5   4    7.64    0.75
  -4   5   4    5.77    0.90
  -4   5   4    8.23    1.04
   4  -5  -4    6.67    0.64
   4  -5  -3    0.28    0.50
  -4   5   3    0.23    0.57
   4  -5  -3   -0.83    0.57
  -4   5   3    1.12    0.58
  -4   5   3    0.46    0.39
  -4   5   3    0.21    0.46
  -4   5   3   -0.02    0.37
  -4   5   3    0.36    0.69
   4  -5  -3    1.68    0.48
  -4   5   3    0.14    0.39
  -4   5   2   29.44    1.47
  -4   5   2   29.29    1.27
  -4   5   2   28.68    1.68
  -4   5   2   26.65    1.46
  -4   5   2   29.09    1.64
  -4   5   2   30.92    1.48
   4  -5  -2   31.47    1.49
  -4   5   2   28.44    1.62
   4  -5  -2   28.94    1.59
  -4   5   2   30.71    1.58
  -4   5   1   49.82    2.07
  -4   5   1   49.77    2.22
   4  -5  -1   48.92    2.31
  -4   5   1   50.00    2.16
  -4   5   1   45.76    2.33
  -4   5   1   53.04    2.36
  -4   5   1   55.98    2.24
  -4   5   1   42.11    1.81
   4  -5  -1   48.56    2.13
  -4   5   1   47.02    2.17
  -4   5   0   68.92    3.14
  -4   5   0   71.03    3.06
  -4   5   0   63.88    2.97
  -4   5   0   62.70    3.18
  -4   5   0   71.64    2.83
   4  -5   0   70.14    3.00
  -4   5   0   68.13    2.92
  -4   5   0   66.75    2.94
  -4   5  -1   44.31    2.01
  -4   5  -1   37.51    1.92
   4  -5   1   34.74    2.07
  -4   5  -1   40.36    1.68
  -4   5  -1   35.99    2.02
  -4   5  -1   35.32    1.88
  -4   5  -1   36.73    1.84
  -4   5  -2  159.62    6.12
  -4   5  -2  144.31    6.04
  -4   5  -2  146.56    5.69
  -4   5  -2  136.02    6.07
  -4   5  -2  148.93    6.06
   4  -5   2  149.25    6.26
  -4   5  -3   19.36    1.39
  -4   5  -3   22.64    1.40
   4  -5   3   22.57    1.58
  -4   5  -3   19.96    1.15
  -4   5  -3   17.72    0.89
  -4   5  -3   22.21    1.45
  -4   5  -3   20.88    1.43
   4  -5   4   36.61    1.78
  -4   5  -4   45.25    2.26
  -4   5  -4   42.78    2.27
  -4   5  -4   44.77    2.31
  -4   5  -4   53.81    2.40
  -4   5  -4   46.06    2.04
   4  -5   4   45.86    2.53
  -4   5  -5    1.84    0.82
  -4   5  -5    1.25    0.83
   4  -5   5    1.57    0.45
  -4   5  -5    1.62    0.77
   4  -5   5    2.33    0.99
  -4   5  -5    0.78    0.78
  -4   5  -5    2.29    0.80
  -4   5  -6    5.25    0.92
   4  -5   6    4.12    0.60
  -4   5  -6    4.82    1.02
  -4   5  -7    0.68    0.87
   4  -5   7    0.89    0.53
   4  -5   8   -0.03    0.57
  -4   5  -8   -0.46    0.89
  -4   5  -9    1.62    0.97
   4  -5   9    2.09    0.72
   4  -4 -10    1.18    0.94
  -4   4  10    1.61    0.93
   4  -4  -9    0.42    0.60
   4  -4  -9    0.23    0.82
  -4   4   9    0.04    0.76
  -4   4   9    0.03    0.69
  -4   4   9    0.79    0.77
  -4   4   8    3.40    0.80
   4  -4  -8    1.87    0.79
   4  -4  -8    3.34    0.68
   4  -4  -8    3.09    0.93
  -4   4   8    2.86    0.78
  -4   4   8    2.93    1.15
  -4   4   8    3.14    0.78
   4  -4  -7   14.95    1.10
  -4   4   7   17.30    1.21
   4  -4  -7   15.47    1.32
   4  -4  -7   12.91    1.30
  -4   4   7   18.40    1.59
  -4   4   7   19.75    1.33
   4  -4  -6   10.07    0.93
  -4   4   6   10.77    0.98
  -4   4   6   15.52    1.41
  -4   4   6   11.63    1.07
   4  -4  -6   11.96    1.17
  -4   4   5    3.18    0.83
  -4   4   5    3.09    0.61
  -4   4   5    2.39    0.94
   4  -4  -5    2.67    0.82
   4  -4  -5    1.28    0.60
  -4   4   4   31.84    1.70
   4  -4  -4   28.14    1.40
  -4   4   4   27.05    1.43
   4  -4  -4   28.24    1.58
  -4   4   4   35.66    1.83
   4  -4  -4   31.59    1.76
   4  -4  -4   32.70    1.52
  -4   4   3   12.21    0.75
   4  -4  -3   12.60    1.06
  -4   4   3   15.31    1.01
  -4   4   3   12.56    0.87
   4  -4  -3   13.38    0.84
  -4   4   3   14.11    1.04
   4  -4  -3   12.65    0.97
   4  -4  -3   12.52    0.83
  -4   4   3   13.38    0.98
  -4   4   2  166.50    6.67
  -4   4   2  168.85    6.78
  -4   4   2  162.57    6.77
  -4   4   2  192.64    6.84
   4  -4  -2  166.00    6.88
  -4   4   2  176.04    6.99
   4  -4  -2  181.47    6.88
  -4   4   2  190.60    6.95
  -4   4   1  155.98    6.41
   4  -4  -1  175.97    6.79
  -4   4   1  174.32    6.67
  -4   4   1  181.58    6.85
  -4   4   1  172.80    6.57
   4  -4  -1  183.78    6.74
  -4   4   1  180.95    6.69
  -4   4   1  176.70    6.73
  -4   4   0   77.54    3.40
  -4   4   0   76.00    3.25
  -4   4   0   80.49    3.27
  -4   4   0   76.42    3.07
  -4   4   0   70.66    3.19
   4  -4   0   80.94    3.30
  -4   4   0   75.95    3.24
  -4   4  -1    8.77    0.77
  -4   4  -1    7.62    0.73
  -4   4  -1    7.74    0.47
   4  -4   1    7.13    0.83
   4  -4   1    8.45    0.77
  -4   4  -1    7.44    0.71
  -4   4  -1    7.22    0.68
  -4   4  -2   75.38    3.21
  -4   4  -2   77.58    3.33
   4  -4   2   74.52    3.48
  -4   4  -2   83.79    3.43
  -4   4  -2   75.90    2.97
  -4   4  -2   80.82    3.41
  -4   4  -3    1.03    0.62
   4  -4   3    1.13    0.72
  -4   4  -3    0.73    0.55
  -4   4  -3    1.25    0.41
  -4   4  -3    1.59    0.67
   4  -4   3    0.71    0.23
   4  -4   4   18.82    0.95
  -4   4  -4   22.11    1.41
  -4   4  -4   22.98    1.37
  -4   4  -4   22.11    1.14
  -4   4  -4   21.87    1.35
  -4   4  -4   20.44    1.40
   4  -4   4   21.30    1.53
  -4   4  -5   -0.08    0.69
  -4   4  -5    0.18    0.69
   4  -4   5    0.66    0.92
   4  -4   5    0.34    0.37
  -4   4  -5    0.07    0.67
  -4   4  -5    0.05    0.72
  -4   4  -5   -0.12    0.57
   4  -4   6    2.03    1.02
   4  -4   6    0.41    0.44
  -4   4  -6    0.94    0.70
  -4   4  -6    0.52    0.85
   4  -4   7   66.32    2.94
  -4   4  -7   70.57    3.28
  -4   4  -7   74.28    3.30
  -4   4  -7   64.04    3.42
   4  -4   8   16.20    1.10
  -4   4  -8   15.85    1.34
   4  -4   9   13.35    1.08
  -4   4  -9   13.81    1.32
  -4   4 -10    7.10    1.14
   4  -4  10    7.48    1.00
   4  -3 -10   15.71    1.15
  -4   3  10   16.45    1.46
   4  -3 -10   19.25    1.62
   4  -3  -9    3.68    1.00
  -4   3   9    4.10    0.90
   4  -3  -8    1.36    0.79
   4  -3  -8    0.88    0.76
   4  -3  -8    1.95    0.88
  -4   3   8    1.41    0.74
   4  -3  -7   31.37    1.60
   4  -3  -7   28.36    1.81
  -4   3   7   27.80    1.98
  -4   3   7   31.19    1.70
   4  -3  -7   30.51    1.80
   4  -3  -7   29.06    1.86
   4  -3  -6   65.08    2.77
  -4   3   6   58.16    2.78
  -4   3   6   66.47    3.16
   4  -3  -6   61.94    2.95
   4  -3  -6   62.40    2.95
   4  -3  -6   59.67    2.93
  -4   3   5   27.32    1.52
   4  -3  -5   20.45    1.05
  -4   3   5   25.26    1.32
   4  -3  -5   29.61    1.57
  -4   3   5   29.51    1.69
   4  -3  -5   23.90    1.46
   4  -3  -5   25.46    1.35
   4  -3  -5   25.63    1.51
  -4   3   4   22.90    1.35
   4  -3  -4   16.42    0.97
  -4   3   4   21.66    1.12
   4  -3  -4   22.38    1.37
   4  -3  -4   25.17    1.26
  -4   3   4   22.56    1.40
   4  -3  -4   23.93    1.32
   4  -3  -3   17.19    0.90
   4  -3  -3   16.82    1.14
   4  -3  -3   17.33    0.99
  -4   3   3   17.46    0.89
   4  -3  -3   15.44    1.06
   4  -3  -3   16.30    1.07
  -4   3   3   15.63    1.08
   4  -3  -2  101.81    4.06
  -4   3   2  104.80    3.94
   4  -3  -2   95.61    4.09
   4  -3  -2   98.24    4.23
   4  -3  -2   90.75    4.12
  -4   3   2  105.08    4.16
  -4   3   1    2.88    0.48
  -4   3   1    2.43    0.25
   4  -3  -1    2.28    0.43
  -4   3   1    2.47    0.38
   4  -3  -1    2.52    0.47
  -4   3   1    2.53    0.39
  -4   3   1    3.16    0.55
  -4   3   0   20.84    1.08
  -4   3   0   20.49    1.07
   4  -3   0   20.80    1.17
  -4   3   0   18.57    1.07
  -4   3   0   19.12    1.09
   4  -3   1   32.77    1.61
  -4   3  -1   29.53    1.49
  -4   3  -1   29.85    1.48
  -4   3  -1   29.07    1.52
   4  -3   2   31.13    1.69
  -4   3  -2   29.41    1.40
  -4   3  -2   34.46    1.68
   4  -3   3    3.37    0.28
   4  -3   3    3.00    0.73
  -4   3  -3    3.72    0.40
  -4   3  -3    3.21    0.65
  -4   3  -4    1.41    0.56
   4  -3   4    1.29    0.72
   4  -3   4    1.75    0.31
  -4   3  -4    1.82    0.66
  -4   3  -4    0.58    0.53
  -4   3  -5    0.22    0.62
  -4   3  -5    0.67    0.59
   4  -3   5    1.53    0.83
   4  -3   5    0.16    0.37
  -4   3  -5    0.05    0.69
  -4   3  -5   -0.35    0.62
   4  -3   6    2.63    0.93
  -4   3  -6    1.72    0.47
  -4   3  -6    2.37    0.65
   4  -3   6    2.37    0.49
  -4   3  -6    0.77    0.78
  -4   3  -6    1.45    0.72
  -4   3  -7    1.04    0.72
   4  -3   7   -0.19    0.99
  -4   3  -7    0.74    0.72
   4  -3   7    0.72    0.53
  -4   3  -7    1.50    0.87
  -4   3  -7    1.23    0.78
  -4   3  -8    0.97    0.73
   4  -3   8    1.51    1.09
  -4   3  -8    2.94    0.80
   4  -3   8    2.34    0.65
  -4   3  -9    1.59    0.81
   4  -3   9    0.97    0.72
  -4   3 -10    1.86    0.88
   4  -3  10    0.59    0.80
   4  -3  11    0.82    0.83
  -4   2  10   13.89    1.35
   4  -2 -10   10.80    1.34
  -4   2   9    0.76    0.50
  -4   2   9    1.04    0.56
   4  -2  -9    0.23    0.85
  -4   2   9   -0.69    0.79
   4  -2  -8   -0.16    0.72
  -4   2   8   -0.30    0.73
   4  -2  -8    0.24    0.76
  -4   2   8    0.06    1.03
   4  -2  -7   58.05    3.05
  -4   2   7   67.29    3.05
   4  -2  -7   77.15    3.27
   4  -2  -6   97.26    3.05
   4  -2  -6  103.09    3.65
   4  -2  -6   98.12    3.62
  -4   2   6  102.22    3.55
   4  -2  -6   97.86    3.68
  -4   2   5   39.20    1.96
   4  -2  -5   36.69    1.48
   4  -2  -5   41.80    1.90
  -4   2   5   45.46    2.07
   4  -2  -5   39.00    1.85
  -4   2   5   36.93    1.75
   4  -2  -5   29.39    1.45
   4  -2  -5   45.10    1.96
   4  -2  -4    0.95    0.52
   4  -2  -4    1.04    0.27
   4  -2  -4    2.25    0.57
   4  -2  -4    1.16    0.27
  -4   2   4    0.95    0.43
   4  -2  -4    1.17    0.49
  -4   2   4    1.67    0.58
  -4   2   3   11.38    0.69
   4  -2  -3   12.16    0.89
   4  -2  -3    9.02    0.60
   4  -2  -3   10.40    0.60
   4  -2  -3   12.85    0.89
   4  -2  -2    3.75    0.52
   4  -2  -2    3.79    0.55
   4  -2  -2    4.03    0.43
  -4   2   2    4.50    0.39
   4  -2  -2    5.26    0.44
  -4   2   1  403.79   14.19
   4  -2  -1  393.26   14.46
   4  -2  -1  333.63   14.26
   4  -2  -1  352.83   14.39
   4  -2   0   90.51    3.83
   4  -2   0   91.55    3.69
   4  -2   0   86.96    3.57
  -4   2   0   95.64    3.73
   4  -2   1  174.56    6.48
   4  -2   1  152.83    6.23
  -4   2  -1  162.76    6.49
   4  -2   1  184.75    6.51
   4  -2   2    0.06    0.47
  -4   2  -2    0.10    0.21
  -4   2  -2    0.10    0.46
   4  -2   2    0.03    0.45
   4  -2   3    9.02    0.90
   4  -2   3    9.74    0.86
  -4   2  -3   10.25    0.56
  -4   2  -3   11.37    0.89
  -4   2  -4   28.46    1.46
  -4   2  -4   27.57    1.42
  -4   2  -4   25.50    1.56
   4  -2   4   27.52    1.58
   4  -2   5   85.24    3.51
  -4   2  -5   82.27    3.88
   4  -2   5   93.41    3.91
  -4   2  -5   87.25    3.70
  -4   2  -6   37.86    1.93
   4  -2   6   41.06    2.13
  -4   2  -6   31.69    1.50
   4  -2   6   33.54    1.69
  -4   2  -6   33.99    1.80
  -4   2  -6   34.93    2.02
   4  -2   6   40.45    1.71
  -4   2  -7   -0.11    0.57
   4  -2   7   -0.70    0.93
  -4   2  -7    0.52    0.58
   4  -2   7   -0.12    0.51
   4  -2   7    0.06    0.53
  -4   2  -7    0.77    0.78
  -4   2  -7    0.31    0.72
  -4   2  -8    0.04    0.61
   4  -2   8   -0.06    0.95
  -4   2  -8    0.04    0.57
   4  -2   8   -0.80    0.60
   4  -2   8    0.23    0.61
  -4   2  -8   -0.60    0.88
  -4   2  -8   -0.43    0.85
  -4   2  -9    1.34    0.65
  -4   2  -9    1.62    0.72
   4  -2   9   -0.64    1.08
   4  -2   9   -0.30    0.68
   4  -2   9    0.55    0.68
   4  -2  10    1.04    0.79
   4  -2  11   -0.94    0.88
   4  -1 -10    0.72    1.00
  -4   1  10    2.35    0.98
   4  -1  -9    8.58    1.22
  -4   1   9    9.04    1.13
  -4   1   9    7.99    0.60
  -4   1   9    6.74    0.52
  -4   1   9   10.99    1.47
   4  -1  -8    0.05    0.81
   4  -1  -8    0.41    0.27
  -4   1   8    0.78    0.48
  -4   1   8   -0.19    0.75
   4  -1  -8    0.23    0.75
  -4   1   8    0.31    0.92
   4  -1  -7    0.43    0.72
   4  -1  -7    0.35    0.34
  -4   1   7   -0.32    0.69
   4  -1  -7    1.06    0.68
  -4   1   7    0.50    0.90
  -4   1   6  604.18   23.94
   4  -1  -6  604.08   23.91
  -4   1   6  674.46   24.21
   4  -1  -6  636.50   24.06
  -4   1   5   16.43    1.07
   4  -1  -5   16.92    1.08
   4  -1  -5   17.09    1.17
   4  -1  -4   24.46    1.37
  -4   1   4   24.65    1.44
   4  -1  -4   25.18    1.32
  -4   1   4   29.61    1.36
   4  -1  -4   23.00    1.42
   4  -1  -3  171.58    6.58
  -4   1   3  157.86    6.45
   4  -1  -3  168.26    6.61
  -4   1   2   31.97    1.41
   4  -1  -2   29.37    1.54
   4  -1  -2   31.81    1.55
   4  -1  -1  299.62   11.55
   4  -1  -1  314.03   11.38
   4  -1  -1  298.01   11.56
   4  -1  -1  333.43   11.60
   4  -1  -1  314.77   11.57
   4  -1   0  137.46    5.67
   4  -1   0  176.45    5.99
   4  -1   0  157.60    5.81
   4  -1   0  156.78    5.81
   4  -1   0  156.57    5.94
  -4   1   0  149.44    5.88
  -4   1   0  136.97    5.71
   4  -1   1  244.40   10.09
   4  -1   1  271.24   10.26
   4  -1   1  283.15   10.39
   4  -1   1  299.79   10.32
   4  -1   1  262.95   10.40
  -4   1  -1  280.19   10.35
  -4   1  -2   43.32    1.74
   4  -1   2   47.17    2.03
   4  -1   2   43.74    2.00
   4  -1   2   47.22    2.14
   4  -1   3   38.89    1.80
   4  -1   3   38.60    1.79
   4  -1   3   33.06    1.84
   4  -1   4    3.11    0.59
   4  -1   4    3.31    0.59
   4  -1   4    3.23    0.36
   4  -1   5    1.44    0.59
   4  -1   5    1.41    0.34
  -4   1  -5    1.41    0.58
  -4   1  -6   11.34    0.97
   4  -1   6   11.90    1.15
  -4   1  -6   12.46    0.88
   4  -1   6   11.48    0.78
  -4   1  -6   13.24    1.10
  -4   1  -6   13.91    1.15
   4  -1   7   25.94    1.38
  -4   1  -7   25.74    1.73
   4  -1   7   33.09    1.85
  -4   1  -7   28.30    1.80
   4  -1   8    4.78    1.12
   4  -1   8    4.44    0.65
  -4   1  -8    4.84    1.03
  -4   1  -8    5.78    1.03
   4  -1   8    7.21    0.83
   4  -1   9   -0.52    0.96
   4  -1   9    0.40    0.56
   4  -1   9    2.55    0.78
  -4   1  -9   -0.39    0.99
   4  -1  10    1.46    1.07
   4  -1  10    2.07    0.75
   4  -1  10    3.08    0.89
  -4   1 -11    0.35    0.84
   4  -1  11   -0.20    0.91
   4  -1  12   -0.75    0.98
   4   0 -10    0.52    0.97
  -4   0  10    0.47    0.95
   4   0  -9   -0.12    0.92
   4   0  -9    0.94    0.43
  -4   0   9    1.63    0.84
  -4   0   9    0.27    1.07
   4   0  -8   -0.38    0.85
  -4   0   8    0.46    0.71
   4   0  -8    1.31    0.72
  -4   0   8    0.18    0.97
   4   0  -8   -0.04    0.48
   4   0  -7   10.10    0.77
   4   0  -7    8.95    0.92
  -4   0   7   10.91    0.98
  -4   0   7    8.02    1.14
   4   0  -7    8.83    1.07
   4   0  -6  103.72    4.53
  -4   0   6  104.47    4.71
  -4   0   6  106.49    4.56
   4   0  -6  119.62    4.71
  -4   0   5  462.63   19.00
  -4   0   5  510.64   19.13
   4   0  -5  491.24   19.01
   4   0  -5  526.23   19.13
  -4   0   4   61.29    2.99
  -4   0   4   67.19    2.89
   4   0  -4   74.42    3.03
  -4   0   3   52.73    2.38
   4   0  -3   57.81    2.49
   4   0  -2  140.62    6.08
   4   0  -2  153.00    6.16
  -4   0   1  646.96   24.80
   4   0  -1  656.56   24.84
   4   0  -1  667.75   24.92
   4   0  -1  646.70   24.88
   4   0   0  379.47   13.46
  -4   0   0  331.10   13.28
   4   0   1    3.87    0.49
   4   0   1    4.32    0.54
   4   0   2  121.98    4.78
   4   0   2  115.85    4.69
   4   0   2  117.85    4.69
   4   0   2  114.70    4.85
   4   0   3  395.87   13.60
   4   0   3  411.42   13.63
   4   0   3  384.51   13.75
   4   0   4    0.33    0.49
   4   0   4    0.63    0.42
   4   0   4    0.82    0.23
   4   0   4    1.00    0.27
   4   0   4    0.84    0.57
   4   0   5  111.23    4.46
   4   0   5  113.32    4.46
   4   0   5   97.42    4.18
   4   0   5  110.93    4.16
   4   0   6    4.09    0.71
   4   0   6    2.57    0.38
  -4   0  -6    2.83    0.68
  -4   0  -6    3.19    0.74
   4   0   7   16.55    0.97
  -4   0  -7   18.06    1.41
  -4   0  -7   17.57    1.35
   4   0   7   17.24    1.30
  -4   0  -8    0.28    0.66
   4   0   8    1.64    0.89
   4   0   8    2.29    0.51
  -4   0  -8    1.95    0.85
  -4   0  -8    1.96    0.90
   4   0   9    0.15    0.96
  -4   0  -9   -0.56    0.71
   4   0   9    1.98    0.58
  -4   0  -9    0.94    0.95
  -4   0  -9    1.43    1.00
   4   0  10   14.31    1.30
  -4   0 -10   13.79    1.15
   4   0  10   14.91    1.11
  -4   0 -10   11.61    1.48
  -4   0 -11    6.48    0.94
   4   0  11   12.46    1.31
   4   0  12    3.22    1.10
   4   1 -10    2.63    1.11
   4   1  -9    1.97    0.98
   4   1  -9    2.21    0.64
  -4  -1   9    2.43    0.93
  -4  -1   9    2.85    1.19
   4   1  -8    3.34    0.95
  -4  -1   8    1.34    0.46
  -4  -1   8    3.80    0.87
  -4  -1   8    2.62    1.00
  -4  -1   8    1.73    0.49
   4   1  -7    0.48    0.74
  -4  -1   7    0.33    0.45
  -4  -1   7    0.28    0.56
  -4  -1   7    1.01    0.71
  -4  -1   7    0.53    0.46
   4   1  -7    1.35    0.70
  -4  -1   7    0.54    0.86
   4   1  -6    0.88    0.68
  -4  -1   6    0.12    0.62
  -4  -1   6   -0.06    0.53
  -4  -1   6    0.54    0.79
  -4  -1   5   21.55    1.33
  -4  -1   5   22.23    1.21
  -4  -1   5   20.37    1.39
   4   1  -5   22.77    1.31
   4   1  -5   23.69    1.40
   4   1  -4    4.24    0.61
  -4  -1   4    4.32    0.60
  -4  -1   4    5.04    0.52
   4   1  -4    4.47    0.60
  -4  -1   3  253.63    8.77
   4   1  -3  233.37    8.71
   4   1  -3  222.80    8.77
  -4  -1   2  182.64    7.29
  -4  -1   2  185.76    7.15
   4   1  -2  186.51    7.30
  -4  -1   1 1539.04   59.37
   4   1  -1 1467.23   59.31
   4   1  -1 1587.96   59.31
  -4  -1   1 1634.63   59.24
   4   1  -1 1614.45   59.39
  -4  -1   1 1564.26   59.39
   4   1   0   55.11    2.35
   4   1   0   57.11    2.52
  -4  -1   0   61.76    2.48
  -4  -1   0   59.04    2.45
  -4  -1  -1    8.95    0.53
   4   1   1    9.66    0.72
   4   1   2   53.56    2.36
   4   1   2   57.52    2.50
   4   1   3  611.48   23.11
   4   1   3  598.79   23.23
   4   1   4  589.32   22.85
   4   1   4  601.14   22.87
   4   1   4  616.22   23.06
  -4  -1  -5    1.89    0.42
  -4  -1  -5    1.25    0.27
   4   1   5    0.85    0.37
  -4  -1  -5    1.41    0.59
   4   1   5    1.00    0.49
   4   1   5    1.62    0.49
  -4  -1  -5    0.90    0.55
   4   1   6    4.87    0.71
   4   1   6    4.50    0.65
   4   1   6    4.22    0.50
  -4  -1  -6    4.55    0.78
  -4  -1  -6    4.63    0.55
  -4  -1  -6    4.60    0.83
   4   1   7  260.64    9.96
   4   1   7  255.56    9.75
  -4  -1  -7  246.07   10.22
  -4  -1  -7  228.97   10.09
   4   1   7  257.37    9.96
   4   1   8    3.54    0.85
  -4  -1  -8    2.11    0.98
   4   1   9    4.66    0.95
  -4  -1  -9    3.33    1.09
  -4  -1 -10    9.95    0.90
   4   1  10   10.70    0.90
  -4  -1 -10    8.57    1.41
  -4  -1 -11   10.51    0.95
  -4  -1 -11   10.38    1.52
   4   1  12   15.30    1.55
   4   2 -10    1.57    1.08
   4   2  -9    1.75    0.99
  -4  -2   9    0.88    0.95
   4   2  -9    1.27    0.77
  -4  -2   9    1.52    0.87
  -4  -2   9    0.31    1.15
  -4  -2   8    0.55    0.46
   4   2  -8    1.16    0.86
  -4  -2   8    1.12    0.51
   4   2  -8    0.70    0.73
  -4  -2   8    0.83    0.74
  -4  -2   8    0.85    0.82
  -4  -2   8    0.06    0.98
   4   2  -7    1.99    0.79
   4   2  -7    0.15    0.73
  -4  -2   7    0.54    0.54
  -4  -2   7    0.80    0.72
  -4  -2   7    0.83    0.67
  -4  -2   7    0.32    0.54
  -4  -2   7    2.37    0.90
  -4  -2   6   48.10    2.28
  -4  -2   6   40.47    2.02
  -4  -2   6   45.68    2.16
  -4  -2   6   43.60    2.33
   4   2  -6   50.20    2.28
  -4  -2   6   37.40    1.99
  -4  -2   5   58.02    2.76
   4   2  -5   65.67    2.75
  -4  -2   5   59.67    2.67
  -4  -2   5   55.12    2.71
   4   2  -5   57.76    2.75
  -4  -2   4   47.69    2.30
   4   2  -4   50.06    2.27
  -4  -2   4   48.11    2.22
   4   2  -4   51.30    2.35
  -4  -2   3   73.95    3.04
  -4  -2   3   67.73    2.90
   4   2  -3   66.58    2.98
  -4  -2   2   25.81    1.35
  -4  -2   2   26.46    1.22
   4   2  -2   23.37    1.27
  -4  -2   1   43.06    1.95
  -4  -2   1   42.48    1.82
   4   2  -1   42.18    1.90
   4   2   0    0.05    0.21
   4   2   0    0.49    0.18
   4   2   0    0.18    0.35
   4   2   1  100.66    4.11
   4   2   1  120.95    4.40
   4   2   1  113.98    4.34
   4   2   2  908.39   32.76
  -4  -2  -2  821.23   32.68
   4   2   3 2070.75   79.59
  -4  -2  -3 2116.88   79.59
   4   2   3 2167.71   79.78
   4   2   4  665.18   24.97
  -4  -2  -4  666.29   24.94
   4   2   4  625.60   25.14
   4   2   5  289.78   10.79
   4   2   5  292.81   10.80
  -4  -2  -5  273.49   10.70
   4   2   5  276.40   10.83
  -4  -2  -5  308.76   11.14
   4   2   6    4.60    0.61
   4   2   6    4.13    0.60
   4   2   6    3.21    0.58
  -4  -2  -6    1.88    0.79
   4   2   7   81.72    3.41
   4   2   7   75.95    3.35
   4   2   7   78.49    3.30
  -4  -2  -7   70.83    3.65
  -4  -2  -8   80.81    3.61
  -4  -2  -8   83.72    4.11
  -4  -2  -8   83.41    4.01
   4   2   8   93.20    3.82
   4   2   8   85.89    3.77
  -4  -2  -8   77.65    3.59
   4   2   9   -0.49    0.73
   4   2   9    0.18    0.59
  -4  -2  -9    1.29    0.85
  -4  -2  -9    0.07    1.03
  -4  -2 -10    1.85    1.13
  -4  -2 -11    1.05    1.23
  -4  -2 -12    5.99    1.44
   4   3  -9   -1.53    1.08
  -4  -3   9   -0.11    1.02
  -4  -3   9    0.30    0.98
  -4  -3   8    1.53    0.56
   4   3  -8    2.16    0.91
   4   3  -8    2.23    0.88
  -4  -3   8    2.35    0.92
  -4  -3   8    1.91    0.89
  -4  -3   8    0.90    0.54
  -4  -3   8    1.63    1.00
   4   3  -7    3.75    0.84
  -4  -3   7    1.66    0.62
  -4  -3   7    1.76    0.84
  -4  -3   7    2.71    0.67
  -4  -3   7    2.40    0.80
   4   3  -7    2.67    0.90
  -4  -3   7    3.25    0.89
  -4  -3   6   10.78    1.13
  -4  -3   6   11.43    1.03
  -4  -3   6   11.27    1.02
  -4  -3   6   11.98    1.08
  -4  -3   6   11.02    1.08
   4   3  -6   10.95    1.07
  -4  -3   6   11.13    0.99
   4   3  -6   11.36    1.05
  -4  -3   5   53.98    2.57
  -4  -3   5   50.70    2.40
   4   3  -5   45.92    2.40
  -4  -3   5   52.23    2.48
  -4  -3   5   49.74    2.38
  -4  -3   5   48.14    2.34
   4   3  -5   52.09    2.42
  -4  -3   4   38.36    1.88
  -4  -3   4   36.83    2.02
   4   3  -4   42.78    1.92
  -4  -3   4   35.83    1.85
  -4  -3   4   36.64    1.84
  -4  -3   4   36.04    1.92
   4   3  -4   36.49    1.89
   4   3  -3    0.03    0.43
  -4  -3   3    0.17    0.48
  -4  -3   3   -0.19    0.44
   4   3  -3   -0.14    0.46
   4   3  -2   -0.04    0.36
  -4  -3   2    0.47    0.42
   4   3  -1    7.83    0.59
  -4  -3   1    6.93    0.63
  -4  -3   1    9.32    0.72
  -4  -3   0    0.30    0.32
   4   3   0    0.23    0.25
   4   3   0    0.39    0.33
  -4  -3  -1   12.61    0.79
   4   3   1   11.65    0.77
  -4  -3  -1    9.95    0.68
  -4  -3  -2    0.24    0.42
   4   3   2   -0.47    0.40
  -4  -3  -3  110.90    4.73
   4   3   3  124.47    4.85
  -4  -3  -4  167.73    6.68
   4   3   4  165.13    6.57
   4   3   4  171.85    6.80
  -4  -3  -4  172.16    6.94
  -4  -3  -5  259.22   10.82
   4   3   5  253.16   10.74
   4   3   5  288.84   10.51
  -4  -3  -6  123.74    4.84
  -4  -3  -6  105.72    4.78
  -4  -3  -6  109.79    5.11
  -4  -3  -6  113.93    4.98
   4   3   7    3.76    0.69
   4   3   7    3.79    0.69
  -4  -3  -7    3.09    0.70
   4   3   7    4.63    0.73
  -4  -3  -7    3.81    0.71
  -4  -3  -7    4.61    0.87
  -4  -3  -7    5.08    1.02
   4   3   8  278.51   10.40
   4   3   8  261.90   10.36
   4   3   8  271.88   10.41
  -4  -3  -8  273.61   10.82
  -4  -3  -8  296.48   10.71
  -4  -3  -8  270.22   10.32
   4   3   9   18.60    1.30
   4   3   9   25.65    1.39
  -4  -3  -9   15.97    1.64
  -4  -3  -9   18.34    1.54
   4   3  10    1.37    0.68
  -4  -3 -10    0.32    0.85
  -4  -3 -10    1.11    1.12
  -4  -3 -11    6.70    1.42
  -4  -3 -12    2.75    1.36
   4   4  -8    5.98    1.15
  -4  -4   8    4.68    1.16
  -4  -4   7   -0.41    0.68
   4   4  -7    0.93    0.76
  -4  -4   7    0.24    0.74
  -4  -4   7   -0.51    0.89
  -4  -4   7    0.89    0.92
   4   4  -7    0.56    0.98
  -4  -4   7    0.73    0.86
  -4  -4   6   15.28    1.42
   4   4  -6   18.09    1.32
  -4  -4   6   18.89    1.43
  -4  -4   6   16.68    1.31
  -4  -4   6   18.61    1.24
  -4  -4   6   13.18    1.15
   4   4  -6   14.32    1.21
  -4  -4   6   18.23    1.29
  -4  -4   5    0.27    0.73
   4   4  -5    0.31    0.65
  -4  -4   5    0.33    0.70
  -4  -4   5    0.29    0.84
  -4  -4   5    1.47    0.78
  -4  -4   5    0.32    0.65
   4   4  -5    1.22    0.71
  -4  -4   4   64.83    3.11
  -4  -4   4   66.92    3.09
   4   4  -4   66.90    3.00
  -4  -4   4   71.77    3.18
  -4  -4   4   61.67    3.03
   4   4  -4   68.43    2.97
  -4  -4   3   89.53    3.75
  -4  -4   3   80.90    3.68
   4   4  -3   84.52    3.63
   4   4  -3   88.01    3.54
  -4  -4   3   77.91    3.63
  -4  -4   2   66.68    2.98
  -4  -4   2   67.46    2.86
   4   4  -2   72.71    2.95
  -4  -4   2   61.75    2.97
  -4  -4   2   69.61    3.09
   4   4  -2   61.81    2.79
  -4  -4   2   70.60    3.01
  -4  -4   1   26.04    1.41
  -4  -4   1   19.95    1.27
  -4  -4   1   21.15    1.14
  -4  -4   0  113.02    4.40
  -4  -4   0  108.70    4.44
  -4  -4   0  106.86    4.38
  -4  -4   0   96.80    4.13
  -4  -4  -1   65.21    2.74
  -4  -4  -1   63.02    2.72
  -4  -4  -1   65.91    2.76
   4   4   1   58.20    2.60
  -4  -4  -1   54.58    2.47
  -4  -4  -2    6.34    0.71
  -4  -4  -2    5.25    0.67
  -4  -4  -2    4.92    0.65
   4   4   2    5.05    0.57
  -4  -4  -3   88.20    3.59
  -4  -4  -3   86.27    3.59
  -4  -4  -3   83.65    3.57
   4   4   3   74.73    3.49
  -4  -4  -4  273.42   10.73
  -4  -4  -4  277.99   10.73
  -4  -4  -4  290.48   10.89
   4   4   4  257.43   10.70
  -4  -4  -5    5.67    0.72
  -4  -4  -5    6.25    0.73
  -4  -4  -5    7.06    0.87
   4   4   5    4.08    0.66
   4   4   5    6.07    0.51
  -4  -4  -6   13.53    1.29
  -4  -4  -6   13.43    1.12
  -4  -4  -6   14.59    1.09
  -4  -4  -6   16.63    1.09
   4   4   7   94.66    4.03
  -4  -4  -7   89.15    4.26
  -4  -4  -7   85.25    4.01
  -4  -4  -7   85.51    3.91
  -4  -4  -7   98.84    3.96
  -4  -4  -8    7.68    0.93
  -4  -4  -8    6.33    0.90
   4   4   8    6.38    0.85
   4   4   8    9.95    1.02
  -4  -4  -8    8.42    1.06
   4   4   8    6.96    0.83
  -4  -4  -8    6.76    1.26
   4   4   9   -0.09    0.58
   4   4   9   -0.25    0.70
  -4  -4  -9    0.75    0.82
  -4  -4  -9   -0.21    0.98
   4   4  10   16.97    1.26
  -4  -4 -10   15.08    1.69
  -4  -4 -10   14.34    1.45
   4   4  11    2.48    0.84
  -4  -4 -11    0.65    1.17
  -4  -4 -12   12.33    1.71
   4   5  -7   11.93    1.51
  -4  -5   7   12.11    1.46
  -4  -5   7   13.52    1.19
  -4  -5   7   12.49    1.15
  -4  -5   6    1.77    0.85
  -4  -5   6    1.16    0.78
  -4  -5   6    1.72    0.96
  -4  -5   5   23.87    1.67
   4   5  -5   24.77    1.56
  -4  -5   5   19.90    1.66
  -4  -5   5   23.60    1.54
   4   5  -5   25.99    1.47
  -4  -5   5   24.64    1.63
  -4  -5   4   54.11    2.65
  -4  -5   4   55.10    2.70
  -4  -5   4   52.14    2.74
   4   5  -4   55.43    2.53
  -4  -5   4   49.59    2.31
  -4  -5   4   52.05    2.63
   4   5  -4   50.52    2.40
   4   5  -3    1.21    0.52
  -4  -5   3    0.31    0.78
  -4  -5   3    0.66    0.65
  -4  -5   3   -0.08    0.79
  -4  -5   3    0.05    0.80
   4   5  -3   -0.11    0.69
   4   5  -2   90.15    3.67
   4   5  -2   93.75    3.78
  -4  -5   2   87.99    3.93
   4   5  -2   79.48    3.55
  -4  -5   2   91.50    3.91
  -4  -5   2   89.66    3.88
  -4  -5   1   62.15    2.68
   4   5  -1   68.87    2.88
  -4  -5   1   62.38    3.02
   4   5  -1   64.76    2.77
  -4  -5   1   61.91    2.96
   4   5   0   50.59    2.17
  -4  -5   0   43.58    2.18
  -4  -5   0   47.14    2.27
   4   5   0   38.89    1.93
  -4  -5   0   40.36    1.83
   4   5   1  186.70    4.75
  -4  -5  -1  178.77    4.88
  -4  -5  -1  184.15    4.92
   4   5   1  176.86    4.60
  -4  -5  -1  181.51    4.82
  -4  -5  -2  168.72    7.20
  -4  -5  -2  178.17    7.23
   4   5   2  175.67    7.04
  -4  -5  -2  180.59    6.90
  -4  -5  -2  179.02    7.16
  -4  -5  -3  126.63    5.86
   4   5   3  148.95    5.79
  -4  -5  -3  150.86    5.90
  -4  -5  -4   41.17    1.96
  -4  -5  -4   33.50    1.51
   4   5   4   36.99    1.81
  -4  -5  -4   39.17    1.92
  -4  -5  -5    1.63    0.36
  -4  -5  -5    0.74    0.64
  -4  -5  -5    0.87    0.63
   4   5   5    0.89    0.52
  -4  -5  -5    1.85    0.75
   4   5   6    0.96    0.34
  -4  -5  -6    0.99    0.71
  -4  -5  -6    1.71    0.72
  -4  -5  -6    0.69    0.56
  -4  -5  -6    2.12    0.87
  -4  -5  -7   -0.12    0.72
  -4  -5  -7    0.43    0.69
   4   5   7   -1.46    0.90
  -4  -5  -7    0.21    0.68
  -4  -5  -7    0.50    0.88
  -4  -5  -8   28.36    1.75
   4   5   8   33.92    1.89
  -4  -5  -8   32.55    2.14
  -4  -5  -8   30.49    1.83
  -4  -5  -8   26.14    1.67
   4   5   9   39.32    2.01
  -4  -5  -9   34.52    2.29
  -4  -5  -9   28.69    1.92
  -4  -5  -9   28.59    1.82
   4   5  10    5.36    1.01
  -4  -5 -10    3.30    1.27
   4   5  11   12.62    1.26
  -4  -5 -11   13.56    1.72
   4   5  12    1.16    0.94
  -4  -6   7   -0.27    0.99
  -4  -6   7    0.43    0.85
  -4  -6   6   -0.05    0.90
  -4  -6   6    0.66    0.91
  -4  -6   6    0.48    0.85
  -4  -6   5    4.73    0.99
  -4  -6   5    3.68    0.62
  -4  -6   5    5.87    1.07
  -4  -6   4    4.53    0.98
  -4  -6   4    2.22    0.92
  -4  -6   4    4.27    0.98
   4   6  -4    2.96    0.80
  -4  -6   4    4.11    0.60
  -4  -6   3    6.63    1.00
  -4  -6   3    6.48    1.08
  -4  -6   3    6.62    0.61
   4   6  -3    7.51    0.91
  -4  -6   3    7.15    1.10
  -4  -6   2   14.37    1.38
   4   6  -2   13.42    1.13
   4   6  -2   18.54    1.10
  -4  -6   2   15.01    1.32
  -4  -6   1   27.50    1.75
   4   6  -1   26.73    1.53
   4   6  -1   25.16    1.42
  -4  -6   1   24.39    1.68
  -4  -6   1   26.13    1.69
  -4  -6   0  134.65    5.40
   4   6   0  144.95    5.81
   4   6   0  145.74    5.68
   4   6   1   40.84    1.93
  -4  -6  -1   40.24    2.09
   4   6   1   33.04    1.47
  -4  -6  -1   33.10    1.79
   4   6   1   38.12    1.75
  -4  -6  -1   38.05    2.02
  -4  -6  -1   33.64    1.51
  -4  -6  -2   -0.31    0.34
  -4  -6  -2    1.19    0.72
   4   6   2    0.12    0.60
  -4  -6  -2   -0.05    0.68
   4   6   2    0.83    0.49
  -4  -6  -2   -0.58    0.54
  -4  -6  -3    5.56    0.88
  -4  -6  -3    6.32    0.93
   4   6   3    5.85    0.68
  -4  -6  -3    5.04    0.82
  -4  -6  -4    4.17    0.81
  -4  -6  -4    4.39    0.85
   4   6   4    3.10    0.57
  -4  -6  -4    4.28    0.80
  -4  -6  -5   27.08    1.66
  -4  -6  -5   26.06    1.24
   4   6   5   21.50    1.38
  -4  -6  -5   26.43    1.65
  -4  -6  -6   47.40    2.67
  -4  -6  -6   54.64    2.37
  -4  -6  -6   57.40    2.70
  -4  -6  -7   26.57    1.82
  -4  -6  -7   32.28    1.53
   4   6   7   33.10    2.01
  -4  -6  -7   31.95    2.13
  -4  -6  -7   28.38    1.64
  -4  -6  -7   25.62    1.75
  -4  -6  -8   10.17    0.86
  -4  -6  -8    8.07    1.15
   4   6   8   10.04    1.18
  -4  -6  -8   11.96    1.05
  -4  -6  -8    9.59    1.09
  -4  -6  -8    9.09    1.32
  -4  -6  -9   -0.47    0.81
   4   6   9    1.15    0.87
  -4  -6  -9   -0.38    1.05
  -4  -6  -9    0.51    0.76
   4   6  10    3.86    1.04
  -4  -6 -10    4.33    1.32
  -4  -6 -10    4.58    1.01
   4   6  11    0.22    0.94
  -4  -6 -11    0.33    1.18
  -4  -6 -11   -0.19    0.95
   4   6  12    1.24    0.98
  -4  -7   6   -0.14    1.05
  -4  -7   6    0.75    1.06
  -4  -7   5   -0.63    1.00
  -4  -7   5    0.85    0.95
  -4  -7   5    0.35    1.03
  -4  -7   4    2.79    1.10
  -4  -7   4    3.59    1.03
  -4  -7   4    2.51    0.92
  -4  -7   3    0.18    0.91
   4   7  -3    0.65    0.60
   4   7  -3    0.52    0.76
  -4  -7   3    0.60    0.40
  -4  -7   3    0.76    0.91
  -4  -7   3    0.37    0.37
   4   7  -2   18.79    1.31
   4   7  -2   16.24    1.18
  -4  -7   2   14.49    0.93
  -4  -7   2   18.51    1.46
  -4  -7   2   17.41    1.51
   4   7  -1   20.54    1.35
   4   7  -1   18.83    1.25
  -4  -7   1   16.97    1.07
  -4  -7   1   18.46    1.50
  -4  -7   1   17.72    1.59
   4   7   0    7.88    0.94
   4   7   0    5.98    0.78
  -4  -7   0    5.44    0.72
   4   7   1   61.38    2.48
  -4  -7  -1   47.63    2.58
   4   7   1   41.28    1.94
  -4  -7  -1   42.80    2.23
   4   7   1   50.22    2.19
  -4  -7  -1   47.81    2.54
  -4  -7  -2    0.26    0.26
   4   7   2   -0.28    0.68
   4   7   2   -0.06    0.49
  -4  -7  -2    0.32    0.65
  -4  -7  -2   -1.06    0.87
  -4  -7  -2   -0.93    0.87
  -4  -7  -3   50.56    2.58
  -4  -7  -3   45.32    2.37
   4   7   3   61.97    2.28
  -4  -7  -3   54.07    2.54
  -4  -7  -3   39.08    1.91
   4   7   3   48.56    2.41
   4   7   4    2.12    0.71
  -4  -7  -4    1.43    0.82
   4   7   4    0.76    0.52
  -4  -7  -4    1.60    0.87
  -4  -7  -4    2.62    0.81
  -4  -7  -5    2.05    0.86
   4   7   5    1.29    0.67
   4   7   5    0.06    0.51
  -4  -7  -5    0.22    0.82
  -4  -7  -5    0.23    0.84
  -4  -7  -6   14.66    0.97
   4   7   6   13.55    1.13
  -4  -7  -6   13.38    1.44
  -4  -7  -6   14.88    1.28
  -4  -7  -6   14.20    1.38
  -4  -7  -7    0.93    0.83
  -4  -7  -7    0.70    0.59
   4   7   7    1.60    0.70
  -4  -7  -7   -0.51    0.90
  -4  -7  -7    1.80    0.57
  -4  -7  -8    7.20    1.11
  -4  -7  -8    6.61    1.05
  -4  -7  -8    5.24    0.82
   4   7   8    5.92    0.82
   4   7   8    5.56    1.11
  -4  -7  -8    6.17    0.82
  -4  -7  -9   12.33    1.10
   4   7   9   14.01    1.42
  -4  -7  -9   13.23    1.12
  -4  -7  -9   11.22    1.56
  -4  -7  -9   11.10    1.29
  -4  -7 -10    1.18    0.75
   4   7  10   -0.12    1.00
  -4  -7 -10   -0.25    1.17
  -4  -7 -10   -0.20    0.76
   4   7  11    4.14    1.12
  -4  -7 -11    4.26    1.41
  -4  -7 -11    1.39    0.99
  -4  -8   5   19.22    1.76
  -4  -8   5   21.43    1.81
  -4  -8   5   20.19    1.75
  -4  -8   4   -0.19    1.06
  -4  -8   4    1.71    1.11
  -4  -8   3    1.31    1.04
  -4  -8   3   -0.28    1.09
   4   8  -3    0.13    0.68
  -4  -8   2    3.43    1.17
  -4  -8   2    5.09    1.14
   4   8  -2    2.01    0.72
  -4  -8   2    1.50    0.44
   4   8  -1   16.77    1.30
   4   8  -1   13.54    1.14
  -4  -8   1   12.85    0.92
  -4  -8   1   14.13    1.52
  -4  -8   1   16.88    1.59
   4   8   0  273.33   10.38
   4   8   0  254.76   10.30
  -4  -8   0  233.90   10.08
   4   8   0  280.43   10.23
  -4  -8   0  264.29   10.61
   4   8   1   16.95    1.31
  -4  -8  -1   10.15    1.38
  -4  -8  -1   13.53    1.10
   4   8   1   12.83    0.99
   4   8   2    3.59    0.86
  -4  -8  -2    3.65    1.08
  -4  -8  -2    1.52    0.95
   4   8   2    2.22    0.58
  -4  -8  -2    0.90    0.76
   4   8   3    6.97    0.98
  -4  -8  -3    4.71    1.10
  -4  -8  -3    6.25    1.07
   4   8   3    8.26    0.77
  -4  -8  -3    6.28    0.93
  -4  -8  -3    4.51    0.30
  -4  -8  -4    0.06    0.87
  -4  -8  -4    0.39    0.96
  -4  -8  -4    0.57    0.85
   4   8   5   27.68    1.67
  -4  -8  -5   23.50    1.76
  -4  -8  -5   24.23    1.76
  -4  -8  -5   24.51    1.85
   4   8   6   17.18    1.37
  -4  -8  -6   19.03    1.56
  -4  -8  -6   19.70    1.59
  -4  -8  -6   19.32    1.62
   4   8   7   18.89    1.39
  -4  -8  -7   20.35    1.68
  -4  -8  -7   17.33    1.59
  -4  -8  -7   16.86    1.55
   4   8   8   24.81    1.59
  -4  -8  -8   21.57    1.43
  -4  -8  -8   24.36    1.95
  -4  -8  -8   22.62    1.35
  -4  -8  -8   26.43    1.88
  -4  -8  -8   23.39    1.76
  -4  -8  -9    1.86    1.05
  -4  -8  -9    3.11    0.89
   4   8   9    4.01    0.88
   4   8   9    5.28    1.21
  -4  -8  -9    3.49    0.75
  -4  -8 -10    0.78    0.84
   4   8  10    2.39    1.07
   4   8  11    0.07    1.06
  -4  -9   5   -0.77    1.25
  -4  -9   4    0.94    1.20
   4   9  -3    5.29    0.93
  -4  -9   3    8.28    1.46
  -4  -9   2    0.81    1.14
   4   9  -2    0.63    0.78
   4   9  -1   36.46    1.86
  -4  -9   1   24.43    1.26
  -4  -9   1   35.36    2.22
   4   9   0   25.23    1.61
  -4  -9   0   21.08    1.29
  -4  -9   0   27.81    1.96
   4   9   1   31.76    1.88
   4   9   1   26.85    1.71
  -4  -9  -1   23.67    1.50
  -4  -9  -2    3.80    1.07
   4   9   2    3.64    0.94
  -4  -9  -2    3.63    0.82
   4   9   3   10.02    1.13
  -4  -9  -3    9.85    1.35
   4   9   3   11.47    1.25
  -4  -9  -3    9.75    1.11
  -4  -9  -4   -0.14    0.98
   4   9   4    0.11    0.86
  -4  -9  -4   -0.36    0.92
  -4  -9  -5   20.27    1.10
   4   9   5   27.53    1.76
  -4  -9  -5   23.89    1.75
  -4  -9  -5   25.20    1.89
   4   9   6   13.32    1.30
  -4  -9  -6   12.10    1.41
  -4  -9  -6   12.86    1.44
  -4  -9  -7    1.60    1.07
   4   9   7    1.28    0.88
  -4  -9  -7   -0.47    1.02
  -4  -9  -8    1.08    1.06
   4   9   8    0.39    0.86
  -4  -9  -8    1.98    1.17
   4   9   9    7.19    1.05
   4   9   9    6.69    1.36
  -4  -9  -9    5.94    1.35
  -4  -9  -9    4.22    1.23
  -4  -9 -11   -0.21    1.03
  -4 -10   4    1.91    1.40
  -4 -10   3    0.16    1.31
   4  10  -2    1.45    0.88
  -4 -10   2    1.93    1.26
   4  10  -1    0.27    0.84
  -4 -10   1    0.88    1.24
   4  10   0    2.49    0.92
  -4 -10   0    3.02    1.29
   4  10   1   68.51    3.10
  -4 -10  -1   54.32    2.64
  -4 -10  -2    6.75    1.37
  -4 -10  -2    5.03    0.88
  -4 -10  -3    2.28    1.13
  -4 -10  -3    1.24    0.83
  -4 -10  -4   55.74    2.92
  -4 -10  -4   61.10    3.29
   4  10   5   68.84    3.32
  -4 -10  -5   56.98    3.13
  -4 -10  -5   64.11    3.43
  -4 -10  -6    7.10    1.35
   4  10   6    8.51    1.26
  -4 -10  -6    6.75    1.25
  -4 -10  -6    6.43    0.62
  -4 -10  -7    1.09    0.62
   4  10   7    1.79    1.03
  -4 -10  -7    0.87    1.11
  -4 -10  -7    0.91    1.11
  -4 -10  -8    1.75    0.74
   4  10   8    3.46    1.07
   4  10   8    3.26    1.40
  -4 -10  -8    2.17    1.16
  -4 -10  -8    2.24    1.20
  -4 -10  -9    2.52    0.89
   4  10   9    4.66    1.13
  -4 -10  -9    4.05    1.34
  -4 -10  -9    4.86    1.34
   4  10  10    1.21    0.94
   4  11   1    1.57    0.98
  -4 -11  -1    0.77    1.31
  -4 -11  -3    0.65    0.84
  -4 -11  -3    2.12    1.25
  -4 -11  -4    0.30    0.90
  -4 -11  -4    1.34    1.23
   4  11   5    8.37    1.28
  -4 -11  -5    4.88    1.14
  -4 -11  -5    6.65    1.42
   4  11   6    6.52    1.26
  -4 -11  -6    4.55    1.17
  -4 -11  -6    4.64    1.41
   4  11   7    7.86    1.31
  -4 -11  -7    5.66    1.37
   4  11   8    0.49    1.06
  -4 -11  -8    0.15    1.24
   4  11   9    3.40    1.20
  -4 -12  -6    1.33    1.19
  -4 -12  -7    0.21    1.19
   5 -10  -8    1.95    1.02
  -5  10   5    0.96    1.40
  -5  10   4   11.52    1.43
  -5  10   3    2.05    1.34
  -5  10   3    1.02    1.04
  -5  10   3    0.15    1.11
  -5  10   2   11.22    1.70
  -5  10   2   12.70    1.49
  -5  10   2   11.62    1.56
  -5  10   1    3.45    1.33
  -5  10   1    3.42    1.10
  -5  10   1    2.63    1.31
  -5  10   1    4.18    1.13
  -5  10   0    1.61    1.28
  -5  10   0   -0.08    1.09
  -5  10   0    1.44    1.08
  -5  10   0   -0.59    1.25
  -5  10  -1    2.62    1.18
  -5  10  -1   -0.35    1.00
  -5  10  -1    0.79    1.28
  -5  10  -2    0.78    0.95
  -5   9   9    1.79    1.34
   5  -9  -8    0.34    0.90
  -5   9   8   -0.25    1.36
   5  -9  -7    4.31    1.02
  -5   9   7    6.85    1.12
  -5   9   7    4.70    1.55
  -5   9   6   28.15    1.80
  -5   9   6   33.23    2.43
   5  -9  -6   24.49    1.79
  -5   9   5    4.95    1.40
  -5   9   5    2.82    0.87
  -5   9   4    5.53    1.10
  -5   9   4    5.03    0.91
  -5   9   3   11.90    1.62
  -5   9   3   15.58    1.40
  -5   9   3   15.84    1.52
  -5   9   2    1.47    1.12
  -5   9   2   -0.05    0.78
  -5   9   2   -0.94    1.03
  -5   9   2    0.91    0.95
  -5   9   1    0.65    1.08
  -5   9   1   -0.07    0.93
  -5   9   1   -0.31    1.13
  -5   9   1    0.06    0.89
  -5   9   0    4.26    1.29
  -5   9   0    4.53    1.16
  -5   9   0    5.84    1.27
  -5   9   0    3.90    1.04
  -5   9  -1    9.91    1.53
  -5   9  -1    7.03    1.35
  -5   9  -1    8.83    1.25
  -5   9  -1    8.16    1.42
  -5   9  -2   27.04    2.26
  -5   9  -2   39.95    2.31
  -5   9  -2   30.62    2.31
  -5   9  -2   33.56    1.99
  -5   9  -2   26.32    2.27
  -5   9  -3    1.69    1.27
  -5   9  -3    0.95    1.16
  -5   9  -3    1.27    0.86
   5  -8  -9    3.40    1.12
  -5   8   9    2.13    1.27
   5  -8  -8    1.33    0.95
  -5   8   8    0.48    1.21
  -5   8   7   14.27    1.72
   5  -8  -7   10.08    0.88
   5  -8  -7   12.76    1.29
  -5   8   6   13.04    1.64
  -5   8   6   15.85    1.26
   5  -8  -6   12.04    0.89
   5  -8  -6   10.66    1.22
   5  -8  -5    1.84    0.77
  -5   8   5    3.55    1.18
  -5   8   5    3.85    0.82
   5  -8  -5    2.65    0.51
  -5   8   4    2.51    0.91
  -5   8   4    1.00    0.67
   5  -8  -4    0.76    0.43
  -5   8   4    1.34    0.99
  -5   8   3    1.81    1.03
  -5   8   3    0.14    0.62
  -5   8   3    0.91    0.88
  -5   8   3    1.25    0.66
  -5   8   3    3.17    1.04
  -5   8   3    1.10    0.81
  -5   8   2    4.05    1.10
  -5   8   2    3.89    0.92
  -5   8   2    3.07    0.79
  -5   8   2    1.50    0.97
  -5   8   2    2.56    0.76
  -5   8   2    3.54    0.73
  -5   8   1   23.28    1.55
  -5   8   1   22.89    1.49
  -5   8   1   21.33    1.66
  -5   8   1   18.20    1.71
  -5   8   1   20.86    1.73
  -5   8   0    9.52    1.32
  -5   8   0   11.30    1.20
  -5   8   0    8.60    1.21
  -5   8   0   10.34    1.07
  -5   8   0    8.74    1.29
  -5   8  -1   17.87    1.68
  -5   8  -1   24.71    1.69
  -5   8  -1   22.29    1.85
  -5   8  -1   21.24    1.79
  -5   8  -2   12.29    1.45
  -5   8  -2   12.97    1.41
  -5   8  -2   12.00    1.17
  -5   8  -2   12.80    1.45
  -5   8  -3   26.46    1.93
  -5   8  -3   21.26    1.47
  -5   8  -3   20.07    1.86
  -5   8  -4    0.73    1.17
  -5   8  -4    1.79    1.15
  -5   8  -4    0.87    0.77
  -5   8  -5    4.83    0.87
   5  -7  -9    2.21    1.04
  -5   7   9    3.43    1.24
   5  -7  -9    2.27    0.73
   5  -7  -8    1.50    0.94
  -5   7   8    3.16    1.21
   5  -7  -8    3.02    0.69
   5  -7  -7    4.78    1.01
  -5   7   7    7.30    1.26
   5  -7  -7    3.59    0.70
  -5   7   7    6.18    1.31
   5  -7  -6   -0.70    0.80
  -5   7   6    0.54    1.04
  -5   7   6    1.35    0.75
   5  -7  -6   -0.49    0.54
  -5   7   6   -0.32    1.01
  -5   7   5   27.00    1.68
  -5   7   5   24.16    1.52
  -5   7   5   24.18    1.90
   5  -7  -5   23.99    1.37
  -5   7   5   25.16    1.88
  -5   7   5   23.22    1.83
   5  -7  -5   23.14    1.59
   5  -7  -4    3.89    0.81
  -5   7   4    5.03    0.95
  -5   7   4    6.60    0.96
  -5   7   4    5.82    0.79
  -5   7   4    4.25    1.06
  -5   7   4    4.52    1.10
   5  -7  -4    4.14    0.63
  -5   7   3   35.68    1.90
  -5   7   3   29.99    1.62
  -5   7   3   29.38    1.61
  -5   7   3   33.05    1.96
  -5   7   3   32.83    1.67
  -5   7   3   30.39    1.99
   5  -7  -3   27.57    1.53
  -5   7   3   34.85    1.86
  -5   7   2    6.86    0.87
  -5   7   2    5.83    0.94
  -5   7   2    4.95    1.00
  -5   7   2    7.14    0.87
  -5   7   2    6.85    0.73
   5  -7  -2    6.68    0.73
  -5   7   2    9.99    1.20
  -5   7   2    7.06    1.05
  -5   7   2    6.41    0.81
  -5   7   1    0.30    0.63
  -5   7   1    0.12    0.66
  -5   7   1   -0.74    0.89
  -5   7   1    0.47    0.69
  -5   7   1   -0.17    0.79
  -5   7   1    0.66    0.53
  -5   7   1    0.53    0.85
  -5   7   1    0.63    0.75
  -5   7   0   23.06    1.66
  -5   7   0   26.92    1.60
  -5   7   0   22.69    1.48
  -5   7   0   20.79    1.68
  -5   7   0   20.87    1.38
  -5   7   0   24.60    1.72
  -5   7   0   23.57    1.42
  -5   7  -1   17.56    1.55
  -5   7  -1   22.44    1.53
  -5   7  -1   18.74    1.37
  -5   7  -1   17.66    1.57
  -5   7  -1   19.47    1.56
  -5   7  -2   42.57    2.66
  -5   7  -2   56.91    2.71
  -5   7  -2   52.17    2.56
  -5   7  -2   46.01    2.39
  -5   7  -2   46.16    2.62
  -5   7  -3   13.42    1.41
  -5   7  -3   13.85    1.08
  -5   7  -3   13.65    1.39
  -5   7  -3   12.52    1.33
  -5   7  -4    0.62    0.95
  -5   7  -4   -0.06    0.96
  -5   7  -4    0.49    0.64
  -5   7  -4    0.58    0.97
  -5   7  -5    0.46    1.05
  -5   7  -5    0.53    1.06
  -5   7  -5    0.89    0.64
  -5   7  -6    0.61    1.03
  -5   6   9   12.19    1.26
  -5   6   9   14.83    1.49
  -5   6   9   10.86    1.33
   5  -6  -9   12.68    1.41
   5  -6  -8   -0.87    0.85
  -5   6   8    0.67    0.93
  -5   6   8   -0.53    0.75
  -5   6   8   -1.03    0.98
  -5   6   7    7.46    1.19
   5  -6  -7    5.85    1.04
  -5   6   7    7.85    0.87
  -5   6   7    6.81    1.14
   5  -6  -7    4.31    0.80
   5  -6  -6    3.71    0.89
  -5   6   6    3.09    0.69
  -5   6   6    5.15    1.07
  -5   6   6    5.10    1.20
   5  -6  -6    4.42    0.70
   5  -6  -5    0.23    0.70
  -5   6   5    1.30    0.85
   5  -6  -5    0.24    0.85
  -5   6   5    0.41    0.52
  -5   6   5    0.96    0.94
  -5   6   5    2.48    1.08
   5  -6  -5   -0.41    0.56
  -5   6   4    9.48    1.05
   5  -6  -4    6.23    0.91
  -5   6   4    8.90    0.71
  -5   6   4    8.12    0.86
  -5   6   4    7.48    1.10
   5  -6  -4    8.52    0.80
  -5   6   4    8.00    1.21
  -5   6   3   31.77    1.40
  -5   6   3   28.87    1.53
  -5   6   3   26.39    1.49
  -5   6   3   29.23    1.82
  -5   6   3   33.82    1.64
  -5   6   3   34.02    1.93
   5  -6  -3   33.14    1.64
  -5   6   3   30.38    1.74
   5  -6  -2   47.25    2.36
  -5   6   2   41.88    1.89
  -5   6   2   46.27    2.20
  -5   6   2   49.70    2.23
  -5   6   2   43.81    2.49
  -5   6   2   51.26    2.47
  -5   6   2   51.53    2.17
  -5   6   2   45.22    2.49
   5  -6  -2   49.29    2.23
  -5   6   2   55.70    2.49
  -5   6   2   52.43    2.35
  -5   6   1  164.80    6.37
  -5   6   1  154.99    6.10
   5  -6  -1  161.70    6.31
  -5   6   1  144.69    6.13
  -5   6   1  150.62    5.92
  -5   6   1  146.20    6.31
   5  -6  -1  129.09    5.99
  -5   6   1  135.94    6.31
  -5   6   1  157.86    6.12
  -5   6   1  155.70    6.10
  -5   6   0   14.12    1.27
   5  -6   0   15.54    1.37
  -5   6   0   17.16    1.17
  -5   6   0   10.98    1.25
  -5   6   0   13.57    1.08
  -5   6   0   16.18    0.87
  -5   6   0   13.75    1.27
  -5   6   0   15.08    1.13
  -5   6   0   13.96    1.01
  -5   6   0   13.41    1.09
  -5   6  -1    0.50    0.59
  -5   6  -1    0.67    0.78
  -5   6  -1    0.80    0.76
  -5   6  -1    0.25    0.69
  -5   6  -1    0.15    0.77
  -5   6  -1    0.54    0.34
  -5   6  -1    0.25    0.59
  -5   6  -2    2.13    0.71
  -5   6  -2    1.26    0.86
  -5   6  -2    0.63    0.77
   5  -6   2    1.72    0.99
  -5   6  -2    1.97    0.80
  -5   6  -2    0.61    0.63
  -5   6  -2    1.38    0.84
  -5   6  -2    1.30    0.73
   5  -6   3    5.16    1.13
  -5   6  -3    4.92    0.72
  -5   6  -3    5.33    0.96
  -5   6  -3    5.02    0.95
  -5   6  -3    5.67    1.05
  -5   6  -3    4.52    0.90
  -5   6  -4   39.01    2.22
  -5   6  -4   35.84    2.11
   5  -6   4   35.67    2.37
  -5   6  -4   34.26    2.12
  -5   6  -4   34.64    2.14
  -5   6  -4   38.21    1.88
  -5   6  -5    2.13    0.92
  -5   6  -5    2.62    0.94
  -5   6  -5    1.28    0.57
  -5   6  -5    3.03    0.99
  -5   6  -6    1.49    0.94
   5  -6   6    0.20    0.42
  -5   5  10   23.95    1.74
  -5   5   9    2.57    0.93
  -5   5   9    4.89    1.09
   5  -5  -9    3.21    0.84
  -5   5   9    4.70    0.97
  -5   5   8    1.68    0.90
   5  -5  -8   -0.12    0.68
  -5   5   8    1.07    0.73
  -5   5   8    0.70    0.86
  -5   5   7   40.59    2.04
   5  -5  -7   33.27    2.23
  -5   5   7   43.03    2.28
  -5   5   6   20.57    1.31
   5  -5  -6   23.67    1.68
  -5   5   6   24.31    1.86
   5  -5  -6   20.75    1.59
  -5   5   6   20.36    1.53
   5  -5  -6   22.86    1.38
   5  -5  -6   24.45    1.62
   5  -5  -5    6.96    0.99
  -5   5   5    7.59    0.74
  -5   5   5    7.66    1.01
   5  -5  -5    6.69    1.06
  -5   5   5    6.23    1.00
   5  -5  -5    4.00    0.97
   5  -5  -5    7.83    0.80
  -5   5   5    4.90    1.15
   5  -5  -4   44.55    2.37
  -5   5   4   59.08    2.35
   5  -5  -4   54.48    2.80
  -5   5   4   60.95    2.83
   5  -5  -4   44.40    2.58
   5  -5  -4   55.34    2.48
   5  -5  -4   52.08    2.58
  -5   5   4   61.72    2.69
   5  -5  -3   22.09    1.36
  -5   5   3   21.08    1.11
  -5   5   3   28.07    1.55
  -5   5   3   25.43    1.61
   5  -5  -3   24.07    1.36
   5  -5  -3   22.68    1.45
  -5   5   3   23.94    1.46
  -5   5   2   49.02    2.00
   5  -5  -2   48.77    2.35
  -5   5   2   40.49    2.16
  -5   5   2   51.02    2.51
  -5   5   2   51.77    2.23
  -5   5   2   50.51    2.45
  -5   5   2   51.90    2.22
   5  -5  -2   49.17    2.32
  -5   5   2   57.00    2.41
  -5   5   1    2.45    0.65
  -5   5   1    2.43    0.56
  -5   5   1    2.89    0.71
   5  -5  -1    2.58    0.76
  -5   5   1    2.24    0.76
  -5   5   1    2.48    0.57
  -5   5   1    2.48    0.47
   5  -5  -1    2.03    0.62
  -5   5   0    2.90    0.63
  -5   5   0    3.54    0.79
   5  -5   0    3.91    0.87
  -5   5   0    2.98    0.62
  -5   5   0    3.36    0.77
  -5   5   0    2.65    0.65
  -5   5   0    3.18    0.43
   5  -5   0    2.74    0.64
  -5   5   0    3.10    0.60
  -5   5  -1    3.17    0.65
  -5   5  -1    4.96    0.86
  -5   5  -1    4.44    0.75
  -5   5  -1    5.71    0.78
   5  -5   1    4.70    0.79
  -5   5  -1    4.08    0.72
  -5   5  -2   34.46    2.05
   5  -5   2   35.27    2.11
  -5   5  -2   38.30    1.97
  -5   5  -2   32.87    1.73
  -5   5  -2   37.65    1.96
  -5   5  -2   35.60    1.88
  -5   5  -2   38.60    1.97
  -5   5  -3  103.62    4.84
   5  -5   3  118.79    4.99
  -5   5  -3  114.77    4.76
  -5   5  -3  118.68    4.75
  -5   5  -3   99.44    4.43
  -5   5  -3  108.91    4.76
  -5   5  -4   80.51    3.47
  -5   5  -4   71.33    3.37
   5  -5   4   72.34    3.67
  -5   5  -4   74.63    3.12
  -5   5  -4   65.08    3.32
  -5   5  -4   70.93    3.45
   5  -5   5   14.58    0.87
   5  -5   5   24.82    1.83
  -5   5  -5   19.78    1.43
  -5   5  -5   22.27    1.48
  -5   5  -5   20.48    1.45
  -5   5  -5   20.23    1.61
  -5   5  -6    2.51    0.88
   5  -5   6    2.62    1.21
   5  -5   6    1.46    0.46
  -5   5  -6    1.57    0.96
   5  -5   7    1.28    0.54
   5  -5   8    3.17    0.63
  -5   5  -8    4.02    1.05
  -5   4  10   14.64    1.44
  -5   4   9    0.69    0.78
   5  -4  -9   -0.13    0.95
  -5   4   9    0.05    0.79
   5  -4  -9   -0.23    0.71
  -5   4   9    0.12    0.75
   5  -4  -8    5.72    1.08
   5  -4  -8    6.57    0.86
  -5   4   8    6.30    0.92
  -5   4   8    6.48    0.93
   5  -4  -7   13.17    1.32
   5  -4  -7   14.79    1.15
  -5   4   7   13.39    1.11
  -5   4   7   15.43    1.53
  -5   4   7   12.57    1.23
   5  -4  -7   14.21    1.32
   5  -4  -6   10.72    1.06
  -5   4   6   11.99    0.97
   5  -4  -6   13.35    1.32
  -5   4   6   13.89    1.52
  -5   4   5  285.00   10.15
   5  -4  -5  279.39   10.03
   5  -4  -5  294.37   10.25
  -5   4   5  284.61   10.31
   5  -4  -5  254.63   10.04
  -5   4   5  257.82    9.81
   5  -4  -4  179.64    7.07
   5  -4  -4  166.66    6.69
   5  -4  -4  160.09    6.90
  -5   4   4  187.51    7.10
   5  -4  -4  159.53    6.87
   5  -4  -4  175.30    6.83
  -5   4   4  159.31    6.66
  -5   4   4  189.69    7.02
  -5   4   3   97.97    4.07
   5  -4  -3   98.91    4.20
   5  -4  -3  105.66    4.49
  -5   4   3  112.01    4.41
  -5   4   3  107.26    4.47
   5  -4  -3   90.95    4.26
   5  -4  -3  106.49    4.30
  -5   4   3  106.76    4.36
  -5   4   2    0.52    0.55
  -5   4   2    0.45    0.52
   5  -4  -2    0.03    0.51
  -5   4   2    0.35    0.27
   5  -4  -2    0.33    0.47
  -5   4   1   11.45    0.59
  -5   4   1   15.37    1.04
  -5   4   1   13.32    0.85
  -5   4   1   14.76    1.11
   5  -4  -1   13.52    1.00
  -5   4   1   13.52    0.87
   5  -4  -1   16.50    1.05
  -5   4   1   14.65    1.01
  -5   4   0   38.58    2.03
  -5   4   0   38.37    1.86
  -5   4   0   39.20    2.05
  -5   4   0   37.09    1.85
   5  -4   0   40.69    1.98
  -5   4   0   39.60    1.88
  -5   4   0   40.76    1.93
  -5   4  -1    0.83    0.52
  -5   4  -1    0.76    0.57
  -5   4  -1    1.80    0.52
  -5   4  -1    0.31    0.49
   5  -4   1    1.46    0.59
  -5   4  -1    0.34    0.51
  -5   4  -2   14.42    1.16
  -5   4  -2   12.06    0.84
  -5   4  -2   13.22    1.00
   5  -4   2   15.26    1.17
  -5   4  -2   13.18    1.07
   5  -4   2   14.91    1.22
  -5   4  -2   14.05    1.04
  -5   4  -3   49.43    2.53
  -5   4  -3   44.69    2.33
  -5   4  -3   52.36    2.41
   5  -4   3   55.65    2.65
  -5   4  -3   46.08    2.12
  -5   4  -3   49.69    2.46
   5  -4   4   35.41    1.52
  -5   4  -4   37.74    2.17
   5  -4   4   39.12    2.23
  -5   4  -4   36.12    1.96
  -5   4  -4   39.66    2.03
  -5   4  -4   38.75    1.71
  -5   4  -4   40.20    2.15
  -5   4  -5    4.70    0.81
   5  -4   5    5.06    1.09
  -5   4  -5    6.00    0.89
   5  -4   5    3.69    0.43
  -5   4  -5    4.73    1.01
   5  -4   6    0.27    1.00
   5  -4   6    0.73    0.39
  -5   4  -6    0.12    0.90
  -5   4  -7    2.26    0.88
   5  -4   7    2.88    1.25
   5  -4   7    1.46    0.50
  -5   4  -8    1.53    0.87
   5  -4   8   -0.15    1.24
   5  -4   8    0.54    0.55
  -5   4  -9   -0.05    0.86
   5  -4   9    1.07    0.64
   5  -3 -10    4.29    1.17
  -5   3  10    3.89    1.12
  -5   3   9    6.89    0.94
   5  -3  -9    8.78    0.94
   5  -3  -9    9.17    1.23
  -5   3   9   10.77    1.17
  -5   3   9    8.26    0.96
   5  -3  -8    0.40    0.78
   5  -3  -8    1.24    0.66
  -5   3   8    0.55    0.68
  -5   3   8   -0.09    0.74
   5  -3  -7    4.64    0.93
   5  -3  -7    5.01    0.76
   5  -3  -7    4.32    0.95
  -5   3   7    4.87    0.81
   5  -3  -7    5.12    0.93
   5  -3  -6  421.66   12.99
  -5   3   6  441.41   12.98
   5  -3  -6  416.26   13.23
  -5   3   6  442.66   13.46
   5  -3  -6  446.02   13.26
  -5   3   5  270.59   10.70
   5  -3  -5  250.90   10.51
  -5   3   5  277.54   10.46
   5  -3  -5  250.45   10.25
   5  -3  -5  291.68   10.79
  -5   3   5  287.76   10.82
   5  -3  -5  291.35   10.73
  -5   3   4   61.36    2.86
   5  -3  -4   65.80    2.80
   5  -3  -4   78.98    3.26
   5  -3  -4   73.27    3.09
  -5   3   4   74.65    3.22
   5  -3  -4   60.66    2.99
   5  -3  -4   67.58    3.11
  -5   3   4   72.26    3.15
  -5   3   3   25.41    1.26
   5  -3  -3   27.62    1.53
   5  -3  -3   23.81    1.28
   5  -3  -3   28.97    1.61
  -5   3   3   28.19    1.58
   5  -3  -3   26.42    1.43
   5  -3  -3   28.19    1.47
   5  -3  -3   25.50    1.30
   5  -3  -3   25.09    1.48
  -5   3   3   29.35    1.54
   5  -3  -2    0.61    0.49
  -5   3   2    0.28    0.49
   5  -3  -2    0.28    0.43
  -5   3   2    0.42    0.47
   5  -3  -2    0.19    0.43
  -5   3   2    0.13    0.30
   5  -3  -2   -0.03    0.45
  -5   3   1   28.68    1.31
   5  -3  -1   34.06    1.75
   5  -3  -1   30.42    1.55
  -5   3   1   32.17    1.68
   5  -3  -1   30.39    1.47
   5  -3  -1   33.27    1.65
  -5   3   1   31.72    1.60
  -5   3   0   -0.09    0.45
  -5   3   0   -0.51    0.51
   5  -3   0    0.12    0.35
   5  -3   0    0.44    0.49
  -5   3   0    0.64    0.43
  -5   3   0    0.73    0.48
   5  -3   1   22.38    1.38
  -5   3  -1   24.77    1.28
  -5   3  -1   23.41    1.26
   5  -3   1   25.41    1.43
  -5   3  -1   23.03    1.34
  -5   3  -1   22.87    1.33
   5  -3   2   29.71    1.65
  -5   3  -2   31.04    1.51
  -5   3  -2   29.94    1.48
  -5   3  -2   29.46    1.62
  -5   3  -2   24.36    1.26
  -5   3  -2   28.11    1.56
  -5   3  -3    2.37    0.64
  -5   3  -3    1.87    0.56
   5  -3   3    2.42    0.76
  -5   3  -3    1.35    0.53
  -5   3  -3    1.71    0.34
   5  -3   3    1.43    0.17
  -5   3  -3    1.10    0.67
  -5   3  -4   -0.32    0.56
   5  -3   4   -0.10    0.68
  -5   3  -4   -0.31    0.56
   5  -3   4   -0.10    0.26
  -5   3  -4    0.05    0.66
   5  -3   5   34.02    2.06
  -5   3  -5   34.52    1.80
  -5   3  -5   34.27    1.78
  -5   3  -5   32.23    1.98
   5  -3   5   30.67    1.43
  -5   3  -6    4.73    0.92
   5  -3   6    5.16    0.57
   5  -3   6    4.98    1.13
  -5   3  -6    6.76    1.03
  -5   3  -6    4.41    0.86
   5  -3   7    1.16    1.05
  -5   3  -7    0.81    0.71
   5  -3   7    0.98    0.53
  -5   3  -7    2.18    0.99
  -5   3  -7    1.94    0.85
  -5   3  -7    1.21    0.73
  -5   3  -8   13.27    1.16
   5  -3   8   12.45    1.61
   5  -3   8   10.38    0.94
  -5   3  -9    2.96    1.12
   5  -3   9    5.44    1.45
   5  -3   9    4.82    0.82
  -5   3  -9    5.03    0.93
  -5   3 -10   -0.74    1.15
   5  -3  10   -0.12    0.82
  -5   3 -11   -0.21    1.16
   5  -3  11    0.25    0.81
   5  -2 -10    0.06    0.99
  -5   2  10    2.09    0.97
   5  -2  -9    0.36    0.86
  -5   2   9    1.51    0.85
   5  -2  -8    2.87    0.89
  -5   2   8    1.70    0.80
  -5   2   8    4.43    1.16
   5  -2  -7   10.38    0.55
  -5   2   7   17.01    1.15
   5  -2  -7   11.63    0.53
   5  -2  -7   14.50    1.19
   5  -2  -7   11.53    1.11
  -5   2   7   12.66    1.39
   5  -2  -7   13.67    1.24
  -5   2   6   44.95    2.09
   5  -2  -6   37.97    1.67
   5  -2  -6   41.69    1.68
   5  -2  -6   40.23    2.18
   5  -2  -6   38.72    2.11
   5  -2  -6   37.45    2.22
  -5   2   5  449.12   17.44
   5  -2  -5  495.37   17.02
   5  -2  -5  460.02   17.42
  -5   2   5  497.96   17.28
  -5   2   5  449.55   17.48
   5  -2  -5  447.87   17.44
  -5   2   4   93.15    4.15
   5  -2  -4  109.88    4.06
   5  -2  -4  100.86    4.03
   5  -2  -4  101.57    4.39
  -5   2   4   99.54    4.40
   5  -2  -4  100.12    4.35
  -5   2   4  103.74    4.40
  -5   2   3  114.97    4.70
   5  -2  -3  123.32    4.67
   5  -2  -3  122.56    4.96
   5  -2  -3  119.89    4.69
   5  -2  -3  111.26    4.90
  -5   2   3  110.12    4.87
  -5   2   2  409.40   16.50
   5  -2  -2  449.53   16.56
   5  -2  -2  427.52   16.57
   5  -2  -2  472.86   16.81
   5  -2  -2  431.24   16.73
  -5   2   1   65.98    3.00
   5  -2  -1   91.58    3.39
   5  -2  -1   80.68    3.16
   5  -2  -1   78.61    3.15
   5  -2  -1   73.61    3.08
   5  -2   0  262.94    9.32
   5  -2   0  245.79    8.98
  -5   2   0  247.25    9.17
   5  -2   1  343.72   11.57
   5  -2   1  320.99   11.54
   5  -2   1  312.32   11.27
  -5   2  -1  327.98   11.59
  -5   2  -1  342.02   11.60
   5  -2   2    1.22    0.50
   5  -2   2    1.20    0.51
  -5   2  -2    1.07    0.23
   5  -2   2    1.12    0.19
  -5   2  -2    0.56    0.51
   5  -2   3  219.57    8.43
   5  -2   3  188.18    8.43
  -5   2  -3  213.55    8.48
  -5   2  -3  219.02    8.45
   5  -2   4   49.68    2.50
  -5   2  -4   53.01    2.34
  -5   2  -4   45.21    2.51
  -5   2  -4   54.62    2.39
  -5   2  -5   11.90    0.93
  -5   2  -5   12.13    0.90
  -5   2  -5   11.26    1.13
   5  -2   5   11.48    1.13
  -5   2  -5    8.83    0.99
  -5   2  -6    0.56    0.70
   5  -2   6    0.95    0.47
   5  -2   6    1.51    0.84
  -5   2  -6    0.34    0.76
  -5   2  -6    0.42    0.76
  -5   2  -7   10.63    0.95
  -5   2  -7    7.32    1.05
  -5   2  -7    8.83    0.88
   5  -2   7    8.69    1.25
  -5   2  -7   10.44    1.26
   5  -2   7    9.86    0.82
  -5   2  -7    7.80    1.08
  -5   2  -8   -1.28    0.93
   5  -2   8    1.01    1.04
   5  -2   8    1.05    0.64
  -5   2  -8    1.38    0.94
  -5   2  -9   -1.07    0.94
   5  -2   9   -1.40    1.21
   5  -2   9   -0.56    0.67
  -5   2 -10   -0.87    0.94
   5  -2  10    0.29    1.20
   5  -2  10    1.02    0.77
  -5   2 -11    0.66    0.97
   5  -2  11   -0.62    0.86
   5  -2  12   -0.40    0.96
   5  -1 -10   11.24    1.40
  -5   1  10   12.35    1.35
   5  -1  -9    1.02    0.88
  -5   1   9    2.50    0.92
   5  -1  -8    0.28    0.80
   5  -1  -8    0.33    0.37
  -5   1   8    0.90    0.78
  -5   1   8    1.22    1.06
   5  -1  -7    5.41    0.92
  -5   1   7    5.87    0.84
   5  -1  -7    3.03    0.80
  -5   1   7    4.32    1.11
  -5   1   6   22.40    1.40
   5  -1  -6   23.05    1.50
   5  -1  -6   23.96    1.45
  -5   1   6   23.72    1.70
   5  -1  -6   23.13    1.55
  -5   1   5   11.79    1.13
  -5   1   5   14.47    1.01
   5  -1  -5   10.94    1.02
   5  -1  -5   10.24    0.96
   5  -1  -5   13.15    1.13
  -5   1   4    8.70    0.74
  -5   1   4   10.67    0.94
   5  -1  -4    7.76    0.82
   5  -1  -4    8.26    0.86
  -5   1   4    9.06    0.91
  -5   1   3   78.37    3.25
   5  -1  -3   72.20    3.35
   5  -1  -3   88.63    3.45
  -5   1   3   72.34    3.37
  -5   1   2   12.82    0.81
   5  -1  -2   12.51    0.93
   5  -1  -2   13.80    0.96
   5  -1  -2   14.93    0.95
  -5   1   1  345.11   12.39
   5  -1  -1  324.18   12.54
   5  -1  -1  310.31   12.31
   5  -1  -1  312.88   12.54
   5  -1   0   30.94    1.35
   5  -1   0   32.66    1.65
   5  -1   0   33.37    1.65
   5  -1   1   39.73    1.86
   5  -1   1   48.27    2.07
   5  -1   1   50.50    2.10
   5  -1   1   55.92    2.26
   5  -1   1   51.32    2.26
  -5   1  -1   44.62    2.12
   5  -1   2   38.75    1.77
   5  -1   2   41.53    1.79
   5  -1   2   35.17    1.87
   5  -1   2   33.01    1.52
  -5   1  -3   85.46    3.77
   5  -1   3   94.43    3.81
   5  -1   3   85.63    3.73
   5  -1   3   88.30    3.88
   5  -1   4  120.52    5.04
   5  -1   4  124.94    5.07
   5  -1   4  118.31    5.20
  -5   1  -4  120.50    5.15
  -5   1  -5   33.52    1.81
   5  -1   5   36.76    1.88
   5  -1   5   32.33    1.84
  -5   1  -5   33.77    1.94
  -5   1  -6    8.15    0.89
   5  -1   6    7.69    1.00
   5  -1   6    6.75    0.60
  -5   1  -6    7.13    0.95
  -5   1  -6    7.57    1.03
  -5   1  -7   86.90    3.85
   5  -1   7   97.79    4.10
   5  -1   7   76.24    3.58
  -5   1  -7   91.80    4.05
  -5   1  -7  101.47    4.18
   5  -1   8    2.10    1.03
  -5   1  -8    3.45    0.84
   5  -1   8    2.66    0.63
  -5   1  -8    3.94    0.99
  -5   1  -8    3.34    1.04
  -5   1  -9   -0.52    0.84
   5  -1   9   -0.93    1.13
   5  -1   9   -0.13    0.59
   5  -1   9    1.36    0.76
  -5   1  -9    0.56    1.08
   5  -1  10    0.22    0.67
  -5   1 -10   -0.64    0.84
   5  -1  10    1.76    1.16
   5  -1  10    0.66    0.84
  -5   1 -11    0.35    0.83
   5  -1  11    1.98    0.93
   5  -1  12    0.10    0.95
  -5   0   9    0.05    0.50
   5   0  -9   -0.60    0.91
  -5   0   9   -1.06    0.92
   5   0  -8    0.93    0.86
   5   0  -8    0.57    0.52
  -5   0   8    0.75    0.78
  -5   0   8    0.68    1.02
  -5   0   7   24.81    1.57
   5   0  -7   22.22    1.47
  -5   0   7   20.67    1.72
   5   0  -7   27.99    1.69
  -5   0   6    9.42    0.95
   5   0  -6    9.96    0.95
  -5   0   6    9.57    1.10
   5   0  -6    9.75    1.04
  -5   0   5   13.01    1.00
  -5   0   5   14.40    1.17
   5   0  -5    9.95    0.99
   5   0  -5   13.81    1.12
   5   0  -4   -0.04    0.56
  -5   0   4    0.83    0.68
   5   0  -4    1.36    0.53
  -5   0   4    0.67    0.51
   5   0  -3   -0.03    0.45
  -5   0   3   -0.10    0.53
   5   0  -3    0.40    0.46
  -5   0   3    0.03    0.38
  -5   0   2   23.76    1.35
   5   0  -2   28.23    1.42
   5   0  -2   29.50    1.44
  -5   0   2   26.48    1.43
  -5   0   1   42.37    2.04
   5   0  -1   48.13    2.01
   5   0  -1   50.11    2.12
   5   0  -1   55.44    2.26
   5   0  -1   42.48    2.13
   5   0   0    7.40    0.52
  -5   0   0    6.21    0.56
   5   0   0    7.13    0.69
   5   0   1   12.94    0.76
   5   0   1   14.79    0.94
  -5   0  -1   12.77    0.81
   5   0   1   16.08    1.02
   5   0   2    1.04    0.32
   5   0   2    1.41    0.48
   5   0   2    1.46    0.40
   5   0   2    1.34    0.36
   5   0   2    1.69    0.54
   5   0   3  243.05    9.72
   5   0   3  230.56    9.61
   5   0   3  258.41    9.67
   5   0   3  261.43    9.86
   5   0   4    5.12    0.64
   5   0   4    4.03    0.34
   5   0   4    4.98    0.67
   5   0   4    4.01    0.40
   5   0   4    4.54    0.72
   5   0   5    0.29    0.58
   5   0   5    0.03    0.50
   5   0   5    0.09    0.26
   5   0   5    0.09    0.26
   5   0   5    0.62    0.66
  -5   0  -5    0.19    0.58
  -5   0  -6    1.07    0.57
   5   0   6    0.45    0.67
   5   0   6    1.37    0.67
   5   0   6    0.94    0.35
   5   0   6    1.62    0.31
  -5   0  -6    1.43    0.72
  -5   0  -6    1.28    0.74
   5   0   7    3.97    0.90
  -5   0  -7    4.12    0.73
   5   0   7    2.64    0.50
  -5   0  -7    2.14    0.83
  -5   0  -7    4.37    1.00
  -5   0  -8   98.84    3.82
   5   0   8   98.72    4.04
   5   0   8   76.84    3.53
  -5   0  -8   72.72    4.00
  -5   0  -8   86.72    4.08
  -5   0  -9    0.16    0.74
   5   0   9    0.11    1.00
   5   0   9    0.12    0.57
  -5   0  -9    1.19    1.11
  -5   0 -10   -0.04    0.74
   5   0  10   -0.06    1.03
   5   0  10    0.07    0.62
  -5   0 -10    0.35    1.11
  -5   0 -11    4.08    0.91
   5   0  11    3.91    1.05
   5   0  12    2.19    1.10
   5   1  -9   -0.42    0.95
  -5  -1   9   -0.59    0.96
   5   1  -8    5.77    1.01
   5   1  -8    5.70    0.82
  -5  -1   8    5.12    0.69
  -5  -1   8    4.19    0.69
  -5  -1   8    8.55    1.10
  -5  -1   8    7.32    1.17
  -5  -1   7   13.93    1.21
  -5  -1   7   13.76    1.08
   5   1  -7   13.17    1.12
  -5  -1   7   11.83    1.31
   5   1  -7   12.40    1.23
  -5  -1   6   12.19    1.13
  -5  -1   6   14.26    0.99
  -5  -1   6   11.93    1.17
   5   1  -6   11.25    1.14
  -5  -1   5   15.48    1.12
  -5  -1   5   16.28    1.01
  -5  -1   5   13.03    1.15
   5   1  -5   14.73    1.17
   5   1  -4    3.02    0.66
  -5  -1   4    2.57    0.62
  -5  -1   4    4.50    0.53
  -5  -1   3   77.25    3.21
   5   1  -3   67.71    3.10
  -5  -1   3   74.10    3.04
   5   1  -3   77.95    3.24
  -5  -1   2   66.51    3.07
   5   1  -2   70.92    3.02
  -5  -1   2   73.17    2.94
   5   1  -2   76.77    3.11
  -5  -1   1   43.22    2.08
   5   1  -1   44.77    2.04
  -5  -1   1   47.11    1.93
   5   1  -1   51.10    2.24
   5   1  -1   49.50    2.18
   5   1   0   83.16    3.55
  -5  -1  -1    3.78    0.40
   5   1   1    4.71    0.59
   5   1   2   39.29    1.83
   5   1   2   39.41    1.96
   5   1   2   36.65    1.75
   5   1   3  147.58    6.17
   5   1   3  161.98    6.34
   5   1   4  248.39    9.49
   5   1   4  246.71    9.48
   5   1   4  227.20    9.66
   5   1   5   19.63    1.17
   5   1   5   17.63    1.13
   5   1   5   17.78    0.99
   5   1   5   19.01    1.34
  -5  -1  -5   18.02    1.28
   5   1   6   -0.14    0.64
  -5  -1  -6   -0.03    0.30
   5   1   6   -0.14    0.60
   5   1   6    0.34    0.39
  -5  -1  -6    0.15    0.64
  -5  -1  -6   -0.26    0.73
   5   1   7   23.74    1.46
   5   1   7   19.96    1.40
   5   1   7   23.88    1.16
  -5  -1  -7   19.28    1.63
  -5  -1  -7   21.43    1.61
   5   1   8   99.11    4.36
   5   1   8   89.31    3.99
   5   1   8  111.57    4.05
  -5  -1  -8   86.50    4.54
  -5  -1  -8  103.16    4.15
  -5  -1  -9   30.18    1.63
   5   1   9   34.53    2.06
   5   1   9   30.66    1.55
  -5  -1  -9   27.77    2.09
  -5  -1 -10    1.10    0.64
   5   1  10    1.13    0.58
  -5  -1 -10    0.22    1.13
   5   1  10    0.78    0.97
  -5  -1 -11    0.90    0.68
  -5  -1 -11    1.94    1.32
   5   1  12    1.72    1.10
   5   2  -9    0.59    0.98
  -5  -2   9   -2.42    1.39
  -5  -2   9   -0.54    0.96
   5   2  -8    2.32    0.96
  -5  -2   8    1.40    0.65
   5   2  -8    2.12    0.86
  -5  -2   8    0.65    0.84
  -5  -2   8    0.75    1.01
  -5  -2   8    0.24    0.65
   5   2  -7    6.15    1.01
  -5  -2   7    8.58    1.02
  -5  -2   7    6.64    0.81
  -5  -2   7    5.35    0.78
  -5  -2   7    7.31    0.93
  -5  -2   7    7.36    1.12
   5   2  -6    0.05    0.68
  -5  -2   6    0.09    0.65
  -5  -2   6   -0.11    0.61
  -5  -2   6   -0.09    0.76
   5   2  -5    0.45    0.68
  -5  -2   5    0.13    0.66
  -5  -2   5    0.57    0.55
   5   2  -5    0.43    0.64
  -5  -2   5    0.85    0.66
  -5  -2   4   30.71    1.72
  -5  -2   4   30.77    1.75
   5   2  -4   31.92    1.64
  -5  -2   4   30.04    1.55
   5   2  -4   30.39    1.69
  -5  -2   3   31.89    1.71
  -5  -2   3   40.70    1.77
   5   2  -3   29.74    1.57
  -5  -2   3   26.99    1.47
   5   2  -3   30.40    1.63
   5   2  -2   -0.38    0.39
  -5  -2   2    0.75    0.51
  -5  -2   2    0.73    0.46
  -5  -2   2    0.04    0.30
   5   2  -2    0.40    0.40
   5   2  -1   41.67    1.75
  -5  -2   1   37.22    1.89
   5   2   0  128.65    5.28
   5   2   1   25.85    1.43
  -5  -2  -2   84.41    3.22
   5   2   2   77.35    3.15
   5   2   3  179.32    6.98
   5   2   3  170.70    7.12
   5   2   4  231.07    9.59
   5   2   4  239.63    9.78
  -5  -2  -4  232.53    9.71
   5   2   5    0.21    0.44
  -5  -2  -5    0.33    0.38
   5   2   5    0.60    0.44
   5   2   5    0.87    0.64
   5   2   6   30.96    1.59
   5   2   6   29.39    1.54
  -5  -2  -6   28.51    1.84
   5   2   6   29.95    1.59
   5   2   7   20.82    1.35
   5   2   7   21.31    1.22
  -5  -2  -7   17.77    1.57
   5   2   7   21.59    1.36
   5   2   8   21.35    1.50
   5   2   8   22.99    1.47
   5   2   8   24.24    1.34
  -5  -2  -8   20.96    1.79
  -5  -2  -8   19.87    1.66
   5   2   9   40.97    2.34
  -5  -2  -9   38.37    2.62
  -5  -2  -9   38.74    2.54
  -5  -2 -10    3.24    1.23
  -5  -2 -11    0.16    1.21
  -5  -2 -12    5.66    1.61
  -5  -3   8   22.24    1.74
   5   3  -8   19.68    1.63
  -5  -3   8   19.00    1.66
  -5  -3   8   22.39    1.75
  -5  -3   8   19.34    1.26
   5   3  -8   18.46    1.62
  -5  -3   7   30.34    1.88
  -5  -3   7   27.49    1.60
  -5  -3   7   25.85    1.76
  -5  -3   7   25.24    1.77
  -5  -3   7   25.94    1.57
   5   3  -7   24.88    1.76
   5   3  -6    0.64    0.73
  -5  -3   6    0.38    0.75
  -5  -3   6    0.65    0.82
  -5  -3   6   -0.21    0.65
  -5  -3   6    0.53    0.66
   5   3  -6    0.68    0.73
  -5  -3   6    0.44    0.79
  -5  -3   6    0.30    0.68
   5   3  -5    0.52    0.70
  -5  -3   5    1.77    0.79
  -5  -3   5    0.57    0.59
  -5  -3   5    1.48    0.72
  -5  -3   5    0.89    0.71
   5   3  -5    0.62    0.71
  -5  -3   5    0.40    0.67
  -5  -3   4   36.86    1.94
   5   3  -4   36.09    1.83
  -5  -3   4   32.89    1.75
   5   3  -4   32.95    1.82
  -5  -3   3    9.73    0.96
  -5  -3   3    9.47    0.94
   5   3  -3   10.84    0.89
  -5  -3   3    9.05    0.79
   5   3  -3    9.69    0.87
  -5  -3   2    5.22    0.67
   5   3  -2    5.20    0.60
   5   3  -2    5.83    0.64
   5   3  -1    6.83    0.65
   5   3  -1    5.15    0.43
  -5  -3   1    5.55    0.69
   5   3   0   56.52    2.41
   5   3   0   47.76    2.08
   5   3   0   55.23    2.15
   5   3   0   60.62    2.47
   5   3   1    1.89    0.28
   5   3   1    1.74    0.50
   5   3   1    2.39    0.50
  -5  -3  -2   61.97    2.50
   5   3   2   56.96    2.56
   5   3   2   48.23    2.47
  -5  -3  -3   12.23    0.87
   5   3   3   10.55    0.91
   5   3   4    2.59    0.49
  -5  -3  -4    2.75    0.54
   5   3   4    2.52    0.59
   5   3   5   12.88    0.88
   5   3   5   13.41    1.07
  -5  -3  -5   12.55    1.18
  -5  -3  -5   11.99    0.88
   5   3   6   23.63    1.64
  -5  -3  -6   24.04    1.71
  -5  -3  -6   27.21    1.63
   5   3   7    2.11    0.65
   5   3   7    2.37    0.69
  -5  -3  -7    2.17    0.81
   5   3   7    0.93    0.59
  -5  -3  -7    0.88    0.93
   5   3   8   63.52    2.68
   5   3   8   56.07    2.64
  -5  -3  -8   47.85    2.54
   5   3   8   63.82    2.67
  -5  -3  -8   55.91    3.04
  -5  -3  -8   55.63    2.90
  -5  -3  -8   49.22    2.54
   5   3   9    3.82    0.83
   5   3   9    3.07    0.82
   5   3   9    2.45    0.74
  -5  -3  -9    3.67    1.00
  -5  -3  -9    3.51    1.19
   5   3  10    1.92    0.70
  -5  -3 -10    1.44    1.20
  -5  -3 -11    1.10    1.25
  -5  -3 -12   -1.23    1.35
   5   4  -8   17.70    1.70
   5   4  -7    0.83    0.86
  -5  -4   7   -0.40    0.75
  -5  -4   7   -0.19    1.01
  -5  -4   7    0.20    0.84
  -5  -4   7    0.88    0.84
  -5  -4   6    1.85    0.87
   5   4  -6    2.09    0.78
  -5  -4   6    1.84    0.79
  -5  -4   6    1.59    0.85
  -5  -4   6    1.56    0.87
  -5  -4   6    1.84    0.82
   5   4  -5    3.10    0.82
  -5  -4   5    6.14    0.98
  -5  -4   5    3.79    0.88
  -5  -4   5    5.02    0.97
   5   4  -5    4.24    0.86
  -5  -4   5    4.72    0.90
  -5  -4   5    4.15    0.78
  -5  -4   4  108.67    4.32
   5   4  -4   99.21    4.10
  -5  -4   4   92.06    4.23
  -5  -4   4   90.49    4.13
  -5  -4   4   95.38    4.00
   5   4  -4   89.18    4.02
  -5  -4   4   88.93    4.09
   5   4  -3   -0.47    0.59
  -5  -4   3    0.50    0.68
  -5  -4   3    1.54    0.75
   5   4  -3    0.39    0.66
  -5  -4   3    0.71    0.71
  -5  -4   2   55.10    2.73
   5   4  -2   69.94    2.73
  -5  -4   2   63.58    2.85
  -5  -4   2   57.58    2.76
   5   4  -2   50.48    2.56
  -5  -4   2   60.34    2.78
   5   4  -1    7.27    0.73
  -5  -4   1    5.39    0.75
  -5  -4   1    6.88    0.81
   5   4   0  108.46    4.03
   5   4   0   87.94    3.59
  -5  -4   0  110.44    4.13
   5   4   0   96.20    3.99
   5   4   1   57.41    2.44
  -5  -4  -1   56.13    2.51
   5   4   1   45.36    2.16
   5   4   1   56.29    2.41
   5   4   2    0.17    0.50
  -5  -4  -2    0.40    0.50
   5   4   2   -0.27    0.49
  -5  -4  -3   30.76    1.68
   5   4   3   32.03    1.67
  -5  -4  -3   28.92    1.57
  -5  -4  -4    1.95    0.60
   5   4   4    3.54    0.67
  -5  -4  -4    2.07    0.57
   5   4   5    0.23    0.42
   5   4   5   -0.21    0.56
  -5  -4  -5   -0.65    0.56
  -5  -4  -5    0.10    0.66
  -5  -4  -6   11.77    1.04
   5   4   6   11.86    0.85
  -5  -4  -6   11.92    1.02
   5   4   6   11.38    1.12
  -5  -4  -6   13.37    1.28
  -5  -4  -6   11.54    1.04
  -5  -4  -7    4.58    0.81
   5   4   7    2.29    0.80
  -5  -4  -7    2.08    0.81
  -5  -4  -7    2.74    1.00
  -5  -4  -7    2.63    0.72
   5   4   8    0.93    0.64
  -5  -4  -8    0.79    0.74
   5   4   8   -0.30    0.63
   5   4   8    1.34    0.76
  -5  -4  -8    0.44    0.82
  -5  -4  -8    1.75    0.79
  -5  -4  -8    1.08    1.03
   5   4   9    0.57    0.66
   5   4   9    1.25    0.73
  -5  -4  -9    0.18    0.82
  -5  -4  -9    1.23    1.13
   5   4  10   20.47    1.44
  -5  -4 -10   17.33    1.87
  -5  -4 -10   19.81    1.69
   5   4  11    2.43    0.82
  -5  -4 -11    1.83    1.34
   5   4  12    4.82    1.00
  -5  -5   7    3.39    0.94
  -5  -5   6    0.31    0.82
  -5  -5   6    0.50    0.89
  -5  -5   6    0.70    0.92
  -5  -5   6    0.87    0.77
  -5  -5   5    2.98    0.91
  -5  -5   5    3.14    0.88
  -5  -5   5    3.80    1.04
  -5  -5   5    3.38    0.76
  -5  -5   5    3.16    0.97
   5   5  -4   -0.10    0.59
  -5  -5   4   -0.35    0.74
  -5  -5   4   -0.19    0.81
  -5  -5   4   -0.70    0.91
  -5  -5   4    0.28    0.83
   5   5  -4    0.28    0.71
   5   5  -3    5.18    0.73
  -5  -5   3    5.93    0.99
   5   5  -3    7.64    0.93
  -5  -5   3    8.07    1.08
  -5  -5   3    9.22    1.07
  -5  -5   2    3.70    0.89
  -5  -5   2    5.45    0.96
  -5  -5   2    6.16    0.98
  -5  -5   2    6.07    0.94
   5   5  -2    6.71    0.83
  -5  -5   1    2.84    0.79
   5   5  -1    1.44    0.66
  -5  -5   1    2.44    0.78
   5   5  -1    1.64    0.48
   5   5   0   92.65    3.75
  -5  -5   0   77.45    3.75
  -5  -5   0   88.44    3.85
   5   5   0   76.79    3.48
   5   5   0   89.28    3.70
  -5  -5   0   87.41    3.52
  -5  -5  -1   59.79    2.76
   5   5   1   67.91    2.76
  -5  -5  -1   58.59    2.80
  -5  -5  -1   58.13    2.76
   5   5   1   62.98    2.66
  -5  -5  -1   48.74    2.42
  -5  -5  -2    9.35    0.92
  -5  -5  -2    8.49    0.94
  -5  -5  -2    9.43    0.91
   5   5   2    7.90    0.78
  -5  -5  -2    6.55    0.62
   5   5   2    7.70    0.86
  -5  -5  -3    7.49    0.85
  -5  -5  -3    4.70    0.81
  -5  -5  -3    3.79    0.75
   5   5   3    3.79    0.69
  -5  -5  -4    2.15    0.63
  -5  -5  -4    1.87    0.69
   5   5   4    2.28    0.63
  -5  -5  -4    2.76    0.57
  -5  -5  -5    3.15    0.39
  -5  -5  -5    3.26    0.80
   5   5   5    3.83    0.71
  -5  -5  -5    4.51    0.82
  -5  -5  -5    3.19    0.65
  -5  -5  -5    2.10    0.80
   5   5   6   16.46    0.96
  -5  -5  -6   15.95    1.29
  -5  -5  -6   14.18    1.41
   5   5   6   16.82    1.26
  -5  -5  -6   16.71    1.21
  -5  -5  -6   16.79    1.27
  -5  -5  -7   16.18    1.35
   5   5   7   15.76    1.38
  -5  -5  -7   17.27    1.57
  -5  -5  -7   18.27    1.31
  -5  -5  -7   14.81    1.26
  -5  -5  -8   -0.09    0.80
  -5  -5  -8    0.57    0.74
   5   5   8   -0.29    0.80
  -5  -5  -8    0.10    0.69
  -5  -5  -8    1.49    1.07
   5   5   9    2.77    0.69
   5   5   9    2.95    0.91
  -5  -5  -9    2.36    0.93
  -5  -5  -9    1.19    1.10
   5   5  10    1.79    0.83
  -5  -5 -10    0.57    0.99
  -5  -5 -10    0.08    1.15
   5   5  11    1.37    0.92
  -5  -5 -11    0.36    1.33
   5   5  12    1.76    0.95
  -5  -6   6    0.50    1.01
  -5  -6   6   -0.10    0.91
  -5  -6   5    7.53    1.12
  -5  -6   5    7.16    1.26
  -5  -6   4   11.96    1.42
  -5  -6   4   11.48    1.35
  -5  -6   4   11.84    1.29
  -5  -6   4   12.84    1.25
  -5  -6   3   23.02    1.69
   5   6  -3   23.79    1.51
  -5  -6   3   20.48    1.66
  -5  -6   3   19.53    1.57
  -5  -6   3   20.17    1.57
  -5  -6   2    3.19    0.98
  -5  -6   2    5.26    1.08
   5   6  -2    4.70    0.64
   5   6  -2    5.35    0.82
   5   6  -1   46.12    2.20
  -5  -6   1   44.06    2.39
  -5  -6   1   43.43    2.40
   5   6  -1   37.19    2.00
  -5  -6   1   42.54    2.33
   5   6   0  281.14   10.56
  -5  -6   0  268.02   10.71
   5   6   0  265.65   10.36
   5   6   0  265.53   10.47
  -5  -6   0  254.82   10.23
   5   6   1   76.65    3.47
  -5  -6  -1   78.06    3.64
  -5  -6  -1   79.85    3.66
   5   6   1   79.45    3.32
   5   6   1   80.07    3.40
  -5  -6  -1   74.14    3.57
  -5  -6  -1   72.97    3.13
  -5  -6  -2    2.46    0.87
  -5  -6  -2    1.48    0.45
   5   6   2    2.83    0.70
  -5  -6  -2    1.48    0.90
  -5  -6  -2    4.10    0.86
   5   6   2    2.10    0.63
   5   6   3   -1.10    0.76
  -5  -6  -3    0.85    0.76
   5   6   3    0.46    0.57
  -5  -6  -3   -0.23    0.68
  -5  -6  -3   -0.05    0.71
  -5  -6  -4    4.54    0.90
   5   6   4    4.99    0.74
  -5  -6  -4    6.42    0.96
  -5  -6  -4    5.76    0.94
  -5  -6  -5    8.89    1.06
  -5  -6  -5    9.66    1.12
   5   6   5    8.25    0.90
  -5  -6  -5   10.21    0.88
  -5  -6  -6   25.11    1.70
  -5  -6  -6   24.90    1.26
   5   6   6   26.52    1.59
  -5  -6  -6   25.58    1.48
  -5  -6  -6   23.06    1.65
  -5  -6  -7    2.48    0.88
  -5  -6  -7    3.64    0.92
  -5  -6  -7    2.36    0.53
  -5  -6  -7    3.23    0.73
  -5  -6  -7    1.27    0.92
  -5  -6  -8    1.71    0.86
  -5  -6  -8    1.97    0.55
   5   6   8    0.39    0.85
  -5  -6  -8    1.25    0.72
  -5  -6  -8    1.35    1.06
  -5  -6  -8    0.73    0.90
   5   6   9    4.11    0.99
  -5  -6  -9    2.81    0.98
  -5  -6  -9    2.60    0.89
  -5  -6  -9    0.73    1.17
   5   6  10    3.22    1.02
  -5  -6 -10    2.74    1.31
  -5  -6 -10    3.01    0.97
   5   6  11    0.06    1.00
  -5  -6 -11    3.02    1.41
   5   6  12    2.05    1.02
  -5  -7   6    0.12    1.06
  -5  -7   5    1.21    1.16
  -5  -7   5    1.79    1.08
  -5  -7   5    0.07    1.01
  -5  -7   4    4.01    1.15
  -5  -7   4    3.73    0.64
  -5  -7   4    4.07    1.17
  -5  -7   3   -0.65    0.93
  -5  -7   3    1.52    1.07
   5   7  -2    5.00    0.72
   5   7  -2    5.68    0.90
  -5  -7   2    2.81    1.02
  -5  -7   2    5.04    1.12
  -5  -7   1   -0.74    1.01
  -5  -7   1    0.29    0.94
   5   7  -1    0.39    0.73
   5   7  -1   -0.04    0.57
   5   7   0   23.56    1.54
   5   7   0   22.86    1.35
   5   7   0   20.40    1.38
  -5  -7   0   20.23    1.65
   5   7   1  392.32   14.03
  -5  -7  -1  364.61   14.19
   5   7   1  390.62   13.87
  -5  -7  -1  339.53   13.87
   5   7   1  389.54   13.88
  -5  -7  -1  361.08   14.10
  -5  -7  -1  321.24   13.52
  -5  -7  -2    2.26    0.45
  -5  -7  -2    2.87    0.96
  -5  -7  -2    1.77    0.88
   5   7   2    2.39    0.84
   5   7   2    0.95    0.66
  -5  -7  -2    2.03    0.75
  -5  -7  -3   10.80    1.22
  -5  -7  -3   13.76    1.20
   5   7   3   11.02    1.00
  -5  -7  -3   13.71    1.29
  -5  -7  -3   10.68    0.73
   5   7   3   10.61    1.15
  -5  -7  -4   15.50    1.41
  -5  -7  -4   16.03    1.36
   5   7   4   14.82    1.15
  -5  -7  -4   14.65    1.35
  -5  -7  -5    5.58    1.13
  -5  -7  -5    5.80    1.07
   5   7   5    5.41    0.80
  -5  -7  -5    5.57    1.07
  -5  -7  -6   17.91    1.58
  -5  -7  -6   19.71    1.67
   5   7   6   20.22    1.38
  -5  -7  -6   19.25    1.56
  -5  -7  -7   13.15    1.40
  -5  -7  -7   13.86    0.94
  -5  -7  -7   14.16    1.08
  -5  -7  -7   13.65    1.35
  -5  -7  -8    6.70    1.08
  -5  -7  -8    4.90    0.77
   5   7   8    3.76    1.09
  -5  -7  -8    5.09    1.12
  -5  -7  -8    5.09    0.83
  -5  -7  -9   34.50    1.93
   5   7   9   43.10    2.43
  -5  -7  -9   44.55    2.68
  -5  -7  -9   36.38    2.11
  -5  -7  -9   36.89    2.32
  -5  -7 -10    1.01    0.76
   5   7  10    1.82    1.03
  -5  -7 -10    0.70    1.26
  -5  -7 -10    0.62    0.85
   5   7  11    2.12    1.10
  -5  -8   5    0.14    1.15
  -5  -8   4   -0.82    1.09
  -5  -8   3    0.56    1.10
  -5  -8   2   -0.22    1.11
   5   8  -2    0.65    0.66
  -5  -8   2    0.41    0.54
  -5  -8   1    0.12    0.98
   5   8  -1    0.41    0.64
  -5  -8   1   -0.14    1.15
  -5  -8   1    0.42    0.59
  -5  -8   0   17.51    1.65
   5   8   0   19.44    1.40
   5   8   0   17.75    1.24
  -5  -8   0   12.96    1.14
   5   8   0   19.09    1.25
  -5  -8   0   16.45    1.56
   5   8   1   39.00    2.11
   5   8   1   38.71    1.92
  -5  -8  -1   25.88    1.78
   5   8   1   33.34    1.81
   5   8   2   46.17    2.07
  -5  -8  -2   40.52    2.23
  -5  -8  -2   37.15    1.90
   5   8   2   34.73    1.76
  -5  -8  -2   44.41    2.22
  -5  -8  -3    0.43    0.36
   5   8   3    0.83    0.80
  -5  -8  -3    0.80    0.91
  -5  -8  -3    0.33    0.93
  -5  -8  -3    0.36    0.85
  -5  -8  -4    0.43    0.41
   5   8   4   -0.21    0.80
  -5  -8  -4    0.06    0.92
  -5  -8  -4    0.46    0.92
  -5  -8  -4    0.57    0.84
  -5  -8  -5   49.65    2.77
  -5  -8  -5   46.88    2.68
  -5  -8  -5   46.83    2.66
  -5  -8  -6   -0.12    0.94
  -5  -8  -6   -0.14    1.06
  -5  -8  -6    0.27    0.95
  -5  -8  -7    0.97    0.96
  -5  -8  -7    1.36    1.06
  -5  -8  -7    0.07    1.07
  -5  -8  -8    2.05    0.66
  -5  -8  -8    6.02    1.29
   5   8   8    4.92    1.24
  -5  -8  -8    3.96    1.26
  -5  -8  -8    4.06    0.71
  -5  -8  -9    2.16    1.07
  -5  -8  -9   -0.32    0.73
   5   8   9    0.56    1.08
  -5  -8  -9    0.36    0.69
   5   8  10    2.99    1.18
  -5  -9   4    1.29    1.31
  -5  -9   3    1.76    1.25
   5   9  -2    1.88    0.81
  -5  -9   2    2.16    1.20
  -5  -9   1    0.53    1.18
   5   9  -1    1.64    0.79
  -5  -9   1    1.45    0.62
  -5  -9   0    0.91    1.18
   5   9   0    2.27    0.80
  -5  -9   0    1.81    0.71
   5   9   1   -0.09    0.72
  -5  -9  -1    0.97    0.73
  -5  -9  -2   18.24    1.41
  -5  -9  -2   19.20    1.77
  -5  -9  -3   -0.15    1.06
  -5  -9  -3    0.41    0.84
  -5  -9  -4    4.92    1.13
  -5  -9  -4    5.16    0.46
  -5  -9  -5   64.10    3.35
  -5  -9  -5   68.02    3.59
  -5  -9  -6   30.27    2.18
  -5  -9  -6   34.73    2.35
  -5  -9  -7    1.80    1.08
  -5  -9  -7    2.63    1.20
  -5  -9  -8    0.77    1.11
   5   9   8   -0.08    1.22
  -5  -9  -8    1.43    1.24
  -5  -9  -9    0.63    1.05
   5   9   9   -0.08    1.14
  -5  -9  -9   -0.17    1.24
  -5 -10   2    4.64    1.46
  -5 -10   1    0.08    1.29
   5  10  -1    0.57    0.84
   5  10   0    0.67    0.84
  -5 -10   0   -0.40    1.19
  -5 -10  -1    0.88    1.23
   5  10   1    0.46    0.84
  -5 -10  -1    0.39    0.76
   5  10   2    3.53    0.97
  -5 -10  -2    4.03    0.94
  -5 -10  -2    2.72    1.26
  -5 -10  -3    2.30    1.18
  -5 -10  -3    0.15    0.90
  -5 -10  -4    6.85    1.36
  -5 -10  -4    4.15    1.10
  -5 -10  -5    6.43    1.38
  -5 -10  -5    5.60    1.22
  -5 -10  -6    4.42    1.28
  -5 -10  -6    6.18    1.29
  -5 -10  -7   16.09    1.74
  -5 -10  -7   17.02    1.75
  -5 -10  -8    7.27    1.41
  -5 -10  -8    5.12    1.38
  -5 -10  -9    4.16    1.35
   5  11   1    1.48    0.97
   5  11   2    1.93    0.98
  -5 -11  -3    0.89    0.89
  -5 -11  -4    2.98    1.08
  -5 -11  -5    6.24    1.27
  -5 -11  -6   11.48    1.54
  -5 -11  -7    3.68    1.28
  -5 -12  -6    0.99    1.18
  -6  10   2   12.84    1.51
  -6  10   1    1.30    1.13
  -6  10   0    4.15    1.13
   6  -9  -7    0.85    0.99
  -6   9   6    0.47    1.38
  -6   9   5    2.55    1.37
  -6   9   4    1.23    1.00
  -6   9   3    2.66    1.31
  -6   9   3    4.07    1.17
  -6   9   2    0.49    1.12
  -6   9   2   -0.46    1.04
  -6   9   2    1.38    0.94
  -6   9   1    0.48    1.09
  -6   9   1    0.05    0.80
  -6   9   1    1.15    1.20
  -6   9   1    0.92    1.00
  -6   9   0    3.11    1.17
  -6   9   0    2.74    1.13
  -6   9   0    5.23    1.03
  -6   9   0    5.14    1.30
  -6   9  -1    0.08    1.15
  -6   9  -1    0.60    0.94
  -6   9  -1   -0.08    1.14
  -6   9  -1    0.79    1.14
  -6   9  -2    6.16    1.41
  -6   9  -2    6.39    1.41
  -6   9  -2    4.44    1.19
  -6   9  -3   13.90    1.81
  -6   8   9    5.06    1.65
   6  -8  -8   -1.05    1.01
  -6   8   8    0.86    1.39
   6  -8  -7   10.35    1.26
  -6   8   7    8.55    1.59
   6  -8  -6    2.67    0.99
  -6   8   6    2.41    1.33
   6  -8  -6    2.20    0.69
   6  -8  -5   11.03    0.95
  -6   8   5   15.91    1.68
  -6   8   4    2.52    0.99
   6  -8  -4    1.78    0.58
  -6   8   3    2.09    0.98
  -6   8   3    5.17    1.17
   6  -8  -3    3.06    0.66
  -6   8   2   16.79    1.42
  -6   8   2   12.92    1.13
  -6   8   2   12.98    1.46
  -6   8   1    6.71    1.16
  -6   8   1    7.79    0.98
  -6   8   1    6.97    1.31
  -6   8   1    8.28    1.01
  -6   8   0   18.54    1.67
  -6   8   0   18.57    1.41
  -6   8   0   17.59    1.70
  -6   8  -1    0.78    1.03
  -6   8  -1    1.81    1.08
  -6   8  -1    1.06    0.83
  -6   8  -1    0.31    1.03
  -6   8  -2    7.99    1.29
  -6   8  -2    6.76    1.29
  -6   8  -2    7.23    1.15
  -6   8  -2    7.22    1.37
  -6   8  -2    5.57    0.97
  -6   8  -3    7.16    1.33
  -6   8  -3    6.62    1.35
  -6   8  -3    8.80    1.26
  -6   8  -4    3.68    1.26
  -6   8  -4    3.77    1.32
  -6   8  -4    2.88    1.10
  -6   7   9    1.75    1.36
   6  -7  -8    1.95    1.05
  -6   7   8   -0.30    1.22
   6  -7  -8   -0.31    0.71
   6  -7  -7    0.35    0.91
  -6   7   7    0.37    1.19
   6  -7  -7   -0.04    0.67
   6  -7  -6    2.99    0.99
   6  -7  -6    2.77    0.72
  -6   7   5   10.27    1.29
   6  -7  -5   10.53    0.99
   6  -7  -5   10.43    1.19
  -6   7   4    1.60    0.92
  -6   7   4    0.91    1.08
   6  -7  -4    0.85    0.63
  -6   7   3    2.42    0.90
  -6   7   3    2.79    0.88
  -6   7   3    2.73    1.05
   6  -7  -3    2.00    0.65
  -6   7   2   14.79    1.25
  -6   7   2   11.64    1.00
  -6   7   2   12.20    0.96
  -6   7   2   11.27    1.29
  -6   7   2   10.99    1.24
   6  -7  -2   10.00    0.94
  -6   7   2   12.79    1.18
  -6   7   1    7.84    1.11
  -6   7   1    8.45    0.92
  -6   7   1    7.27    0.88
   6  -7  -1    7.26    1.14
  -6   7   1    5.76    1.11
  -6   7   1    5.70    0.98
   6  -7  -1    7.46    0.91
  -6   7   1    8.56    0.94
  -6   7   0    1.72    0.74
  -6   7   0    1.39    0.88
  -6   7   0    1.15    0.71
   6  -7   0    2.20    1.00
  -6   7   0    0.54    0.93
  -6   7   0    0.96    0.73
  -6   7  -1   -0.07    0.92
  -6   7  -1    0.14    0.68
   6  -7   1    1.66    1.04
  -6   7  -1    0.07    0.94
  -6   7  -1    0.63    0.78
  -6   7  -2    6.14    1.12
  -6   7  -2    5.31    0.98
  -6   7  -2    3.74    0.78
  -6   7  -3   16.73    1.62
  -6   7  -3   17.88    1.50
  -6   7  -3   17.93    1.24
  -6   7  -4    1.84    1.04
  -6   7  -4    1.64    1.11
  -6   7  -4    1.81    0.95
  -6   7  -5    0.75    1.14
  -6   7  -5    2.41    0.98
  -6   6   9    8.14    1.42
   6  -6  -9   11.55    1.15
  -6   6   8   10.53    1.37
   6  -6  -8   10.54    1.31
   6  -6  -8   11.14    1.08
  -6   6   8    8.71    1.35
   6  -6  -7    3.70    0.97
  -6   6   7    3.31    1.11
   6  -6  -7    3.95    0.82
  -6   6   6   84.46    4.22
   6  -6  -6   90.22    3.92
   6  -6  -6   91.68    4.17
  -6   6   5    9.65    1.23
  -6   6   5    9.80    1.26
   6  -6  -5    9.73    0.98
  -6   6   5   10.80    1.43
   6  -6  -5    9.26    1.13
   6  -6  -4    6.32    0.97
  -6   6   4    6.82    1.06
  -6   6   4    4.13    1.04
   6  -6  -4    7.91    0.86
  -6   6   4    7.30    1.21
  -6   6   3    0.71    0.77
   6  -6  -3    0.20    0.72
  -6   6   3    0.43    0.78
  -6   6   3    0.05    0.87
   6  -6  -3   -0.19    0.61
  -6   6   2    1.55    0.78
   6  -6  -2    1.24    0.83
  -6   6   2    2.75    0.88
  -6   6   2    1.21    0.85
   6  -6  -2    1.40    0.67
  -6   6   1   10.30    1.11
  -6   6   1    9.57    0.90
  -6   6   1    8.35    0.85
   6  -6  -1    8.47    1.10
  -6   6   1    9.11    1.22
   6  -6  -1    8.33    0.94
  -6   6   1    7.48    1.00
  -6   6   1   11.49    1.04
  -6   6   0    1.30    0.73
   6  -6   0    2.94    0.95
  -6   6   0    0.36    0.85
  -6   6   0    1.62    0.84
  -6   6   0    0.78    0.64
   6  -6   0    1.83    0.73
  -6   6   0    2.29    0.63
  -6   6   0    1.55    0.67
  -6   6  -1   -0.47    0.71
  -6   6  -1   -0.61    0.78
  -6   6  -1    0.17    0.68
   6  -6   1   -0.60    1.01
  -6   6  -1    0.72    0.89
  -6   6  -1    1.10    0.74
  -6   6  -1    0.61    0.64
  -6   6  -2    1.77    0.69
  -6   6  -2    0.88    0.86
  -6   6  -2    1.19    0.73
  -6   6  -2    2.55    0.81
  -6   6  -2    0.62    0.59
  -6   6  -2    1.44    0.84
  -6   6  -2    0.91    0.74
  -6   6  -3    0.47    0.74
  -6   6  -3   -0.46    0.90
  -6   6  -3   -1.38    0.82
   6  -6   3    1.01    1.10
  -6   6  -3    0.98    0.82
  -6   6  -3    0.06    0.53
  -6   6  -3    0.52    0.83
  -6   6  -3    0.66    0.80
  -6   6  -4    9.68    1.16
   6  -6   4   12.54    1.55
  -6   6  -4   10.51    0.90
  -6   6  -4    9.07    1.27
  -6   6  -4   11.01    1.28
  -6   6  -4   14.85    1.39
  -6   6  -5    0.34    0.87
   6  -6   5   -1.30    1.27
  -6   6  -5   -0.26    0.92
  -6   6  -6    2.15    0.97
  -6   6  -7    2.27    1.27
  -6   5   9   11.27    1.36
   6  -5  -8    0.05    0.80
  -6   5   8    0.65    0.81
  -6   5   8    0.22    0.99
   6  -5  -7    0.14    0.75
  -6   5   7    1.25    0.73
  -6   5   7    0.54    0.91
   6  -5  -7    0.53    0.70
  -6   5   6   46.91    2.49
  -6   5   6   44.97    2.14
   6  -5  -6   36.81    2.35
  -6   5   6   40.51    2.41
   6  -5  -6   45.50    2.27
   6  -5  -6   46.73    2.47
  -6   5   5  151.15    5.87
  -6   5   5  135.17    5.45
   6  -5  -5  151.70    6.02
  -6   5   5  147.06    6.00
   6  -5  -5  129.56    5.72
   6  -5  -5  147.57    5.64
   6  -5  -5  139.55    5.78
  -6   5   4   56.10    2.41
   6  -5  -4   52.27    2.51
  -6   5   4   62.24    2.96
   6  -5  -4   52.24    2.72
   6  -5  -4   56.81    2.66
   6  -5  -4   50.77    2.74
  -6   5   4   58.62    2.81
  -6   5   3    0.43    0.75
   6  -5  -3    0.25    0.67
  -6   5   3    0.72    0.71
  -6   5   3    0.12    0.38
   6  -5  -3   -0.99    0.78
  -6   5   3   -0.10    0.79
   6  -5  -3   -0.40    0.60
   6  -5  -2   67.01    3.28
  -6   5   2   70.58    3.42
  -6   5   2   80.78    3.44
   6  -5  -2   72.05    3.31
  -6   5   2   75.47    3.33
  -6   5   1    2.51    0.77
  -6   5   1    1.89    0.86
   6  -5  -1    3.37    0.87
   6  -5  -1    3.22    0.74
  -6   5   0   -0.04    0.65
  -6   5   0    0.25    0.70
  -6   5   0   -1.29    0.83
   6  -5   0    0.40    0.78
  -6   5   0   -0.03    0.52
   6  -5   0    0.08    0.64
  -6   5   0   -0.03    0.57
  -6   5   0    0.20    0.55
  -6   5  -1    2.12    0.71
  -6   5  -1    0.75    0.59
  -6   5  -1    0.81    0.82
  -6   5  -1    1.34    0.62
   6  -5   1    2.20    0.72
  -6   5  -1    2.04    0.76
  -6   5  -1    1.40    0.61
  -6   5  -2    0.41    0.69
  -6   5  -2   -0.29    0.73
  -6   5  -2    1.31    0.66
  -6   5  -2   -0.12    0.65
  -6   5  -2    0.27    0.51
  -6   5  -2   -0.31    0.71
  -6   5  -3    1.60    0.84
  -6   5  -3    1.91    0.76
   6  -5   3    2.11    0.99
  -6   5  -3    2.92    0.80
  -6   5  -3    1.46    0.50
  -6   5  -3    0.59    0.77
   6  -5   4   13.64    1.44
  -6   5  -4   10.11    1.23
  -6   5  -4   13.44    1.18
  -6   5  -4   11.12    1.14
  -6   5  -4   11.00    0.84
  -6   5  -4   13.68    1.34
  -6   5  -5    3.19    0.87
   6  -5   5    1.79    1.19
  -6   5  -5    1.78    0.85
  -6   5  -5    2.76    0.95
  -6   5  -6   -0.71    1.05
  -6   5  -6    1.02    0.84
   6  -5   6   -0.16    1.21
   6  -5   6    0.77    0.33
  -6   5  -7   -0.45    1.08
   6  -5   7    1.78    1.38
   6  -5   7   -0.09    0.48
  -6   5  -8    4.47    1.30
  -6   5  -8    3.90    1.04
   6  -4  -9    8.40    1.34
   6  -4  -9   10.89    1.19
  -6   4   9   12.85    1.26
   6  -4  -8   -1.05    0.97
   6  -4  -8    1.04    0.78
  -6   4   8    0.05    0.78
  -6   4   8    1.51    0.93
   6  -4  -7    6.46    1.08
   6  -4  -7    4.26    0.86
  -6   4   7    5.15    0.85
  -6   4   6    5.09    1.06
   6  -4  -6    4.45    0.52
   6  -4  -6    4.20    1.02
   6  -4  -6    3.81    0.85
  -6   4   6    5.73    0.77
   6  -4  -6    5.14    0.98
  -6   4   6    5.37    1.22
  -6   4   5  273.24   10.82
   6  -4  -5  254.23   10.68
  -6   4   5  268.73   10.49
   6  -4  -5  274.45   10.41
   6  -4  -5  278.01   10.88
  -6   4   5  292.27   10.97
   6  -4  -5  240.70   10.66
   6  -4  -5  271.79   10.65
  -6   4   4    9.70    0.81
   6  -4  -4    8.44    1.11
   6  -4  -4    8.88    0.86
   6  -4  -4    6.36    1.28
  -6   4   4   11.69    1.25
   6  -4  -4   10.22    1.05
   6  -4  -4   11.02    1.02
  -6   4   4   12.11    1.23
  -6   4   3   36.75    1.64
   6  -4  -3   34.90    2.01
   6  -4  -3   30.02    1.75
  -6   4   3   41.62    2.12
   6  -4  -3   36.45    1.88
   6  -4  -3   33.55    1.90
  -6   4   3   38.51    2.03
  -6   4   2   18.64    0.93
   6  -4  -2   17.14    1.17
  -6   4   2   16.15    1.28
   6  -4  -2   16.32    1.17
   6  -4  -2   18.10    1.27
  -6   4   2   21.07    1.31
   6  -4  -1   35.57    1.85
  -6   4   1   28.92    1.88
   6  -4  -1   34.19    1.88
  -6   4   1   35.42    1.87
   6  -4   0  126.53    5.16
  -6   4   0  103.56    5.13
  -6   4   0  134.37    5.24
   6  -4   0  128.37    5.20
  -6   4   0  120.03    5.03
  -6   4   0  118.34    5.08
  -6   4  -1    1.26    0.63
  -6   4  -1    2.21    0.72
  -6   4  -1    1.67    0.61
  -6   4  -1    2.01    0.58
   6  -4   1    1.76    0.69
  -6   4  -1    1.75    0.63
  -6   4  -2    7.70    0.89
  -6   4  -2    8.11    1.00
  -6   4  -2    6.06    0.80
  -6   4  -2    6.84    0.81
   6  -4   2    8.25    1.02
  -6   4  -2    5.89    0.59
  -6   4  -2    8.08    0.93
   6  -4   2    6.79    0.92
  -6   4  -3    4.67    0.93
   6  -4   3    4.10    0.96
  -6   4  -3    4.70    0.52
  -6   4  -3    3.19    0.76
  -6   4  -3    3.76    0.77
  -6   4  -3    3.94    0.84
  -6   4  -4   41.63    2.39
   6  -4   4   46.41    2.56
  -6   4  -4   45.12    2.25
  -6   4  -4   42.86    2.22
  -6   4  -4   41.22    1.88
  -6   4  -4   43.33    2.42
   6  -4   5    3.49    0.34
  -6   4  -5    6.64    0.91
   6  -4   5    3.95    1.08
  -6   4  -5    6.36    0.88
  -6   4  -5    4.23    0.99
  -6   4  -6    2.79    1.03
  -6   4  -6    4.43    0.89
   6  -4   6    3.44    1.13
   6  -4   6    3.00    0.42
  -6   4  -6    2.93    1.02
  -6   4  -7    2.95    1.08
   6  -4   7    1.49    1.25
   6  -4   7    2.81    0.50
  -6   4  -8    2.75    1.17
  -6   4  -8    3.70    0.95
   6  -4   8    3.79    1.42
   6  -4   8    4.01    0.61
  -6   4  -9    3.77    1.23
   6  -4   9    3.15    1.53
   6  -3  -9    0.80    1.05
   6  -3  -9    1.27    0.77
  -6   3   9    1.79    0.90
   6  -3  -8    5.41    1.11
   6  -3  -8    5.78    0.91
  -6   3   8    6.26    0.91
   6  -3  -7    1.20    0.83
   6  -3  -7    1.47    0.74
  -6   3   7    0.81    0.68
   6  -3  -6    3.58    0.87
  -6   3   6    4.34    0.98
   6  -3  -6    3.55    1.00
   6  -3  -6    2.47    0.45
  -6   3   6    2.60    0.68
   6  -3  -6    4.16    0.89
   6  -3  -6    2.77    0.75
  -6   3   6    4.69    1.09
  -6   3   5   14.03    1.38
  -6   3   5   13.21    1.02
   6  -3  -5   14.45    1.23
   6  -3  -5   12.56    0.89
   6  -3  -5   18.68    1.47
  -6   3   5   14.15    1.43
   6  -3  -5   14.55    1.21
   6  -3  -5   16.70    1.36
  -6   3   4  153.56    6.14
   6  -3  -4  158.70    6.39
   6  -3  -4  155.80    6.08
   6  -3  -4  140.06    6.07
   6  -3  -4  156.51    6.47
  -6   3   4  164.65    6.52
   6  -3  -4  153.86    6.28
   6  -3  -4  156.88    6.34
   6  -3  -4  153.52    6.41
  -6   3   4  156.43    6.45
  -6   3   3   85.60    3.48
   6  -3  -3   91.95    3.80
   6  -3  -3   80.26    3.49
   6  -3  -3   71.91    3.48
   6  -3  -3   86.79    3.87
   6  -3  -3   82.78    3.61
   6  -3  -3   99.24    3.78
   6  -3  -3   76.85    3.70
  -6   3   3   98.01    3.84
  -6   3   2    3.16    0.65
   6  -3  -2    1.96    0.58
   6  -3  -2    2.88    0.60
  -6   3   2    1.68    0.44
   6  -3  -2    2.03    0.54
   6  -3  -2    1.69    0.65
   6  -3  -1  134.34    5.30
   6  -3  -1  125.37    5.06
   6  -3  -1  125.93    5.08
   6  -3  -1  136.55    5.26
  -6   3   1  127.67    5.17
  -6   3   1  112.88    4.82
   6  -3   0   27.61    1.55
   6  -3   0   28.12    1.56
   6  -3   0   26.09    1.36
   6  -3   0   30.95    1.69
  -6   3   0   29.16    1.54
  -6   3   0   30.20    1.62
  -6   3  -1   75.79    3.11
   6  -3   1   65.25    3.08
  -6   3  -1   64.43    2.97
  -6   3  -1   58.74    2.92
  -6   3  -2   -0.27    0.59
   6  -3   2    0.22    0.65
  -6   3  -2   -0.10    0.29
   6  -3   2   -0.38    0.64
  -6   3  -2    0.25    0.60
  -6   3  -3   -0.14    0.66
   6  -3   3    0.10    0.71
  -6   3  -3    0.44    0.29
  -6   3  -3   -0.05    0.63
   6  -3   4   16.45    0.77
   6  -3   4   18.46    1.46
  -6   3  -4   18.09    1.21
  -6   3  -4   19.03    1.45
  -6   3  -4   17.51    1.22
  -6   3  -5    1.08    0.63
   6  -3   5    2.39    0.97
  -6   3  -5    0.37    0.59
   6  -3   5    0.48    0.32
  -6   3  -5    0.17    0.79
  -6   3  -6   13.26    1.26
   6  -3   6   16.15    1.53
   6  -3   6   10.93    0.74
  -6   3  -6   14.03    1.12
  -6   3  -6   12.02    1.33
  -6   3  -7   16.79    1.48
   6  -3   7   19.02    1.71
   6  -3   7   14.78    0.96
  -6   3  -8    3.48    1.07
   6  -3   8    4.32    1.32
   6  -3   8    2.85    0.69
  -6   3  -9    5.21    1.21
   6  -3   9    7.17    1.57
   6  -3   9    3.64    0.80
  -6   3 -10    1.35    1.11
   6  -3  10    3.77    1.52
   6  -3  10    2.09    0.83
  -6   3 -11    1.39    1.17
   6  -2  -9   -0.07    0.98
  -6   2   9   -0.53    0.87
   6  -2  -8    2.39    0.95
  -6   2   8    3.90    0.88
   6  -2  -7    1.08    0.81
   6  -2  -7    0.54    0.31
   6  -2  -7    1.33    0.81
   6  -2  -7    1.05    0.33
  -6   2   7    1.77    0.72
   6  -2  -6   -0.82    0.76
   6  -2  -6    0.56    0.37
   6  -2  -6   -0.41    0.76
   6  -2  -6    0.18    0.36
  -6   2   6    0.19    0.59
  -6   2   5  164.34    6.40
  -6   2   5  147.23    6.10
   6  -2  -5  156.46    5.90
   6  -2  -5  133.36    5.89
   6  -2  -5  162.49    6.39
  -6   2   5  180.43    6.50
   6  -2  -5  140.88    6.31
  -6   2   4    0.18    0.76
   6  -2  -4   -0.04    0.62
   6  -2  -4    0.06    0.42
   6  -2  -4    0.14    0.80
   6  -2  -4   -0.48    0.44
  -6   2   4   -0.20    0.53
   6  -2  -4   -0.71    0.62
  -6   2   4   -0.92    0.91
  -6   2   3   22.23    1.12
   6  -2  -3   19.05    1.06
   6  -2  -3   17.84    1.32
   6  -2  -3   18.37    1.14
   6  -2  -3   17.38    1.07
   6  -2  -3   19.82    1.29
   6  -2  -3   17.50    1.28
  -6   2   3   22.12    1.37
   6  -2  -2    0.89    0.62
  -6   2   2    2.03    0.62
   6  -2  -2    1.98    0.48
  -6   2   2    1.64    0.47
   6  -2  -2    1.68    0.49
   6  -2  -2    1.95    0.50
  -6   2   1    0.14    0.53
   6  -2  -1   -0.08    0.59
   6  -2  -1    0.39    0.48
  -6   2   1    0.08    0.32
  -6   2   1   -0.34    0.55
   6  -2  -1   -0.27    0.47
   6  -2  -1    0.47    0.33
   6  -2   0  150.80    6.07
   6  -2   0  149.98    5.63
  -6   2   0  139.27    5.99
   6  -2   0  133.98    5.70
  -6   2   0  161.78    6.00
  -6   2  -1   -0.52    0.57
  -6   2  -1   -0.48    0.58
   6  -2   1    0.03    0.47
   6  -2   1    0.08    0.21
   6  -2   1    0.17    0.29
  -6   2  -1    0.54    0.55
   6  -2   2   61.52    2.31
   6  -2   2   67.64    2.76
   6  -2   2   64.01    2.75
  -6   2  -2   57.04    2.32
   6  -2   2   52.90    2.30
  -6   2  -2   66.54    2.81
  -6   2  -3  117.64    4.54
   6  -2   3  100.48    4.45
   6  -2   3  100.26    4.47
  -6   2  -3  106.06    4.52
   6  -2   3  101.99    4.05
   6  -2   4   17.85    1.32
   6  -2   4   15.12    1.34
  -6   2  -4   17.97    1.35
  -6   2  -5    0.96    0.68
   6  -2   5    1.05    0.81
  -6   2  -5    0.45    0.78
  -6   2  -6    6.68    1.00
   6  -2   6    7.99    1.15
  -6   2  -6    6.64    1.05
  -6   2  -7    8.81    1.12
   6  -2   7   11.48    0.83
   6  -2   7    8.87    1.32
  -6   2  -7    8.91    1.24
  -6   2  -7    8.02    1.15
  -6   2  -8   36.51    2.22
   6  -2   8   45.31    2.58
   6  -2   8   38.57    1.93
  -6   2  -8   35.76    2.33
   6  -2   9    1.45    1.26
   6  -2   9    1.86    0.76
  -6   2  -9    0.80    0.94
  -6   2 -10    0.24    0.96
   6  -2  10   -1.13    1.33
   6  -2  10   -0.07    0.75
  -6   2 -11    0.06    1.04
   6  -2  11    0.12    0.81
   6  -1  -9    3.12    1.15
  -6   1   9    2.94    0.99
   6  -1  -8    1.17    0.92
   6  -1  -8    1.57    0.36
   6  -1  -8    2.19    0.51
   6  -1  -8    0.98    0.33
  -6   1   8    2.84    0.89
   6  -1  -7    5.95    1.05
   6  -1  -7    6.72    0.97
  -6   1   7    4.48    0.85
  -6   1   7    5.81    1.19
   6  -1  -6    0.46    0.74
   6  -1  -6    0.09    0.73
  -6   1   6    0.93    0.66
   6  -1  -6    1.11    0.69
  -6   1   6    0.82    0.90
   6  -1  -5    5.91    0.93
  -6   1   5    7.45    0.82
  -6   1   5    6.67    1.01
   6  -1  -5    6.94    0.92
  -6   1   4   30.01    1.67
   6  -1  -4   32.25    1.84
   6  -1  -4   36.59    1.93
  -6   1   4   36.01    1.93
  -6   1   3    8.74    0.80
   6  -1  -3   10.36    0.79
   6  -1  -3   12.23    1.00
   6  -1  -3   11.91    0.87
   6  -1  -3   10.09    0.92
  -6   1   3   10.92    0.99
  -6   1   2   59.88    2.67
   6  -1  -2   65.02    2.84
   6  -1  -2   58.53    2.66
   6  -1  -2   66.94    2.89
  -6   1   2   63.18    2.84
   6  -1  -1   68.91    2.77
   6  -1  -1   60.29    2.43
   6  -1  -1   57.28    2.51
   6  -1  -1   56.63    2.50
   6  -1  -1   55.32    2.70
  -6   1   1   62.76    2.70
  -6   1   1   52.31    2.46
   6  -1   0  156.84    6.05
   6  -1   0  146.29    6.36
   6  -1   0  162.84    6.41
   6  -1   1   -0.08    0.55
   6  -1   1    0.14    0.44
   6  -1   1    0.03    0.44
   6  -1   1    0.27    0.28
   6  -1   1   -0.09    0.53
  -6   1  -1    0.66    0.46
   6  -1   2    1.47    0.60
   6  -1   2    1.46    0.53
   6  -1   2    1.47    0.32
   6  -1   2    1.43    0.53
   6  -1   2    2.01    0.66
  -6   1  -2    1.19    0.53
   6  -1   3   12.99    1.04
   6  -1   3   12.69    0.98
   6  -1   3   12.87    1.10
  -6   1  -3   12.28    1.06
   6  -1   4  105.51    4.46
   6  -1   4   97.26    4.42
   6  -1   4  103.52    4.61
  -6   1  -4  111.52    4.61
  -6   1  -5    0.54    0.62
   6  -1   5    1.49    0.73
   6  -1   5    0.36    0.64
   6  -1   5    1.40    0.81
  -6   1  -5    0.16    0.72
  -6   1  -6    5.61    0.84
   6  -1   6    4.58    0.90
  -6   1  -6    4.42    0.89
  -6   1  -7   24.33    1.61
   6  -1   7   25.93    1.80
  -6   1  -7   23.73    1.76
  -6   1  -7   26.86    1.86
  -6   1  -8    2.28    0.86
   6  -1   8    3.08    1.15
  -6   1  -8    2.24    1.12
  -6   1  -9   19.26    1.45
   6  -1   9   16.68    1.74
   6  -1   9   17.73    1.25
   6  -1   9   13.24    1.12
  -6   1  -9   21.09    1.80
  -6   1 -10    1.53    0.89
   6  -1  10    0.65    1.19
   6  -1  10    0.66    0.69
   6  -1  10    0.45    0.81
  -6   1 -11    1.02    0.86
   6  -1  11    0.92    0.90
   6  -1  12    1.39    1.00
   6   0  -9   10.64    1.40
  -6   0   9    9.98    1.32
   6   0  -8   -0.31    0.97
  -6   0   8   -0.27    0.86
  -6   0   7   19.18    1.44
   6   0  -7   17.06    1.36
  -6   0   7   19.62    1.68
   6   0  -7   18.50    1.53
   6   0  -6    3.31    0.86
   6   0  -6    3.21    0.75
  -6   0   6    3.03    0.79
   6   0  -6    4.00    0.78
  -6   0   6    2.72    0.94
   6   0  -5   -1.24    0.71
   6   0  -5    0.43    0.64
  -6   0   5   -0.11    0.59
   6   0  -5    0.04    0.67
  -6   0   5    0.37    0.78
  -6   0   4   13.36    1.08
   6   0  -4   17.75    1.10
   6   0  -4   15.34    1.13
   6   0  -4   16.25    1.21
   6   0  -3    1.81    0.55
  -6   0   3    1.42    0.65
   6   0  -3    1.76    0.60
  -6   0   3    1.38    0.59
   6   0  -3    2.03    0.51
  -6   0   2   31.39    1.55
   6   0  -2   29.67    1.46
   6   0  -2   30.07    1.58
   6   0  -2   28.95    1.66
   6   0  -2   29.27    1.63
  -6   0   2   30.89    1.63
   6   0  -1   40.46    1.94
  -6   0   1   39.49    1.87
  -6   0   1   32.75    1.73
  -6   0   0   30.28    1.49
  -6   0   0   30.26    1.24
   6   0   0   31.62    1.70
  -6   0   0   31.31    1.60
   6   0   1   73.49    2.95
   6   0   1   78.17    3.21
  -6   0  -1   59.86    3.00
   6   0   1   82.97    3.33
   6   0   2    3.94    0.45
   6   0   2    3.63    0.55
   6   0   2    2.98    0.52
   6   0   2    4.37    0.69
   6   0   2    3.49    0.70
   6   0   3  182.17    7.23
   6   0   3  172.01    7.08
   6   0   3  175.74    7.10
   6   0   3  177.68    7.30
  -6   0  -3  180.27    7.23
   6   0   4   73.60    3.50
   6   0   4   82.99    3.75
  -6   0  -4   83.30    3.69
   6   0   4   89.13    3.62
   6   0   5   47.07    2.29
   6   0   5   43.09    2.21
   6   0   5   44.27    1.83
   6   0   5   45.17    2.43
  -6   0  -5   43.72    2.37
   6   0   6   14.09    1.20
   6   0   6   14.12    1.15
   6   0   6   10.49    0.73
   6   0   6   15.22    0.68
  -6   0  -6   13.75    1.28
   6   0   7    0.05    0.81
   6   0   7    1.49    0.84
   6   0   7   -0.23    0.43
  -6   0  -7    1.06    0.84
  -6   0  -7   -0.96    0.65
  -6   0  -7   -0.41    0.93
  -6   0  -8    3.97    0.82
   6   0   8    3.97    1.03
   6   0   8    3.03    0.58
  -6   0  -8    5.07    1.13
  -6   0  -8    2.34    1.12
  -6   0  -9   46.67    2.32
   6   0   9   41.04    2.09
  -6   0  -9   57.10    2.94
   6   0   9   46.74    2.64
  -6   0 -10    2.23    0.78
   6   0  10    1.29    1.21
   6   0  10    0.61    0.63
  -6   0 -10    1.07    1.27
  -6   0 -11    1.52    0.78
   6   0  11    1.57    0.96
   6   0  12    5.27    1.16
   6   1  -9    2.29    1.11
  -6  -1   8   28.71    1.80
   6   1  -8   21.94    1.77
   6   1  -7    2.44    0.91
  -6  -1   7    2.21    0.82
  -6  -1   7    2.95    0.76
  -6  -1   7    2.44    1.05
   6   1  -6    7.49    1.05
  -6  -1   6    7.56    0.99
  -6  -1   6    8.67    0.87
  -6  -1   6    7.88    1.11
  -6  -1   5   12.01    1.22
  -6  -1   5   13.40    1.15
   6   1  -5   11.57    1.02
  -6  -1   5   15.00    0.96
  -6  -1   5   11.97    1.15
   6   1  -5   10.11    1.11
   6   1  -4    4.21    0.77
  -6  -1   4    3.54    0.86
   6   1  -4    5.57    0.73
  -6  -1   4    3.64    0.76
  -6  -1   4    5.65    0.60
   6   1  -4    4.73    0.71
  -6  -1   3   41.14    2.04
   6   1  -3   46.92    1.98
   6   1  -3   39.27    1.96
  -6  -1   3   38.61    1.82
   6   1  -3   37.66    2.02
  -6  -1   2   14.93    1.08
   6   1  -2   18.56    1.06
   6   1  -2   16.97    1.07
  -6  -1   2   18.25    0.93
   6   1  -2   17.03    1.20
   6   1  -2   17.97    1.15
   6   1  -1   14.56    0.89
   6   1  -1   12.09    0.86
  -6  -1   1   14.44    0.74
   6   1  -1   12.80    1.00
  -6  -1   1   16.33    0.99
   6   1   0   34.89    1.83
  -6  -1  -1   57.39    2.57
   6   1   1   72.82    2.93
  -6  -1  -1   62.77    2.76
   6   1   2    2.68    0.57
  -6  -1  -2    1.19    0.37
   6   1   2    1.36    0.58
   6   1   3    6.70    0.81
  -6  -1  -3    6.42    0.76
   6   1   3    5.63    0.79
   6   1   4   35.25    1.69
   6   1   4   33.72    1.66
   6   1   4   30.51    1.76
   6   1   4   32.42    1.88
  -6  -1  -4   29.55    1.77
   6   1   5    2.17    0.65
   6   1   5    3.27    0.68
   6   1   5    2.34    0.28
   6   1   5    3.01    0.74
  -6  -1  -5    2.85    0.73
   6   1   6   12.52    1.14
   6   1   6   15.08    1.20
  -6  -1  -6   13.47    0.83
   6   1   6   14.53    0.74
   6   1   6   14.40    0.87
   6   1   6   16.36    1.37
  -6  -1  -6   13.47    1.27
   6   1   7   41.27    2.04
   6   1   7   35.43    1.94
   6   1   7   33.50    1.53
   6   1   7   32.97    1.57
  -6  -1  -7   29.30    2.12
  -6  -1  -7   37.59    2.18
   6   1   8   44.37    2.40
   6   1   8   44.85    2.41
   6   1   8   42.79    1.99
   6   1   8   50.86    1.99
  -6  -1  -8   41.42    2.62
  -6  -1  -8   38.25    2.52
   6   1   9   28.20    1.88
   6   1   9   23.61    1.34
  -6  -1  -9   27.54    2.09
   6   1  10    2.44    1.11
   6   1  10    2.94    0.68
  -6  -1 -10    1.83    1.25
   6   1  11    0.03    0.69
  -6  -1 -11   -0.58    1.36
   6   2  -9    0.51    1.05
  -6  -2   8   36.10    2.19
  -6  -2   8   28.81    1.78
  -6  -2   8   28.51    2.13
   6   2  -8   35.85    2.17
  -6  -2   7   20.80    1.39
  -6  -2   7   20.59    1.64
  -6  -2   7   18.35    1.34
  -6  -2   7   23.13    1.73
   6   2  -7   21.99    1.61
   6   2  -6    0.20    0.75
  -6  -2   6   -0.26    0.81
  -6  -2   6    0.27    0.65
  -6  -2   6    0.24    0.79
   6   2  -5    0.09    0.67
  -6  -2   5    0.10    0.79
  -6  -2   5   -0.03    0.55
  -6  -2   5   -0.51    0.71
   6   2  -4    0.08    0.63
  -6  -2   4    1.13    0.74
  -6  -2   4    0.52    0.70
  -6  -2   4    0.37    0.49
   6   2  -3    1.11    0.58
  -6  -2   3    1.13    0.69
   6   2  -3    1.73    0.52
  -6  -2   3    2.33    0.65
  -6  -2   3    1.57    0.46
   6   2  -2    0.51    0.51
  -6  -2   2   -0.38    0.58
  -6  -2   2    0.17    0.50
   6   2  -2    0.67    0.45
  -6  -2   2    0.02    0.38
   6   2  -1   26.00    1.30
   6   2  -1   25.51    1.53
  -6  -2   1   28.41    1.47
  -6  -2   1   27.56    1.51
   6   2   0   30.72    1.68
   6   2   1  184.84    7.44
   6   2   1  191.76    7.61
  -6  -2  -2    8.45    0.58
   6   2   2   15.06    1.06
  -6  -2  -2   13.07    0.93
   6   2   3    0.32    0.52
   6   2   3    0.32    0.59
  -6  -2  -3   -0.08    0.50
   6   2   4   77.90    3.38
   6   2   4   76.95    3.52
  -6  -2  -4   75.07    3.45
   6   2   5  106.46    4.86
   6   2   5  131.29    4.89
   6   2   5  122.93    4.85
  -6  -2  -5  114.57    4.73
   6   2   5  107.99    5.03
   6   2   6  108.65    4.26
   6   2   6  101.18    4.25
  -6  -2  -6   93.67    4.05
   6   2   6   94.11    4.12
   6   2   6  102.76    4.55
  -6  -2  -6  100.84    4.60
   6   2   7    9.03    0.95
   6   2   7    8.42    0.99
   6   2   7    9.66    0.82
  -6  -2  -7    6.44    1.18
   6   2   8   -0.86    0.84
   6   2   8   -0.30    0.70
   6   2   8   -0.47    0.60
  -6  -2  -8    0.29    1.03
   6   2   9    1.27    0.83
   6   2   9    0.45    0.83
   6   2   9    1.14    0.54
  -6  -2  -9    0.16    1.11
   6   2  10    2.44    1.02
   6   2  10    1.70    0.56
  -6  -2 -10    4.13    1.29
   6   2  11    0.38    0.59
  -6  -2 -11   -0.35    1.40
   6   3  -8    3.78    1.16
   6   3  -7    0.79    0.90
  -6  -3   7    2.17    0.87
  -6  -3   7    2.53    1.08
  -6  -3   7    1.53    0.95
  -6  -3   7    3.96    1.09
   6   3  -6    0.67    0.78
  -6  -3   6    1.07    0.77
  -6  -3   6    1.04    0.87
  -6  -3   6    0.48    0.70
  -6  -3   6    1.35    0.75
  -6  -3   6    0.98    0.85
   6   3  -5   -0.17    0.69
  -6  -3   5   -0.84    0.78
  -6  -3   5    0.15    0.65
   6   3  -5   -0.34    0.71
  -6  -3   5   -0.29    0.67
  -6  -3   4   42.26    2.24
   6   3  -4   43.16    2.10
  -6  -3   4   39.45    2.03
   6   3  -4   39.22    2.10
  -6  -3   3   48.29    2.68
  -6  -3   3   60.43    2.75
   6   3  -3   59.93    2.64
   6   3  -3   56.76    2.62
   6   3  -2   23.02    1.18
   6   3  -2   25.97    1.41
  -6  -3   2   22.16    1.40
  -6  -3   2   20.10    1.42
  -6  -3   1    4.21    0.66
   6   3  -1    4.77    0.48
  -6  -3   1    4.98    0.73
   6   3  -1    4.61    0.76
   6   3   0   48.22    2.36
  -6  -3   0   48.25    2.24
  -6  -3  -1   -0.03    0.47
   6   3   1   -0.41    0.53
  -6  -3  -2    1.35    0.51
   6   3   2    1.89    0.25
   6   3   2    2.73    0.63
  -6  -3  -3    0.11    0.20
  -6  -3  -3    0.71    0.51
   6   3   3   -0.32    0.61
   6   3   4   92.64    3.88
  -6  -3  -4   90.02    3.91
   6   3   4   92.11    4.08
   6   3   5  148.55    5.83
  -6  -3  -5  144.54    5.81
   6   3   5  131.88    5.99
  -6  -3  -6   84.38    3.58
   6   3   6   80.49    3.88
  -6  -3  -6   77.07    3.99
  -6  -3  -6   90.69    3.86
   6   3   7   20.03    1.31
   6   3   7   20.11    1.31
   6   3   7   19.18    1.28
  -6  -3  -7   17.15    1.56
  -6  -3  -7   20.06    1.56
   6   3   8    2.82    0.81
   6   3   8    4.64    0.88
   6   3   8    5.21    0.79
  -6  -3  -8    2.52    1.00
  -6  -3  -8    5.63    1.17
   6   3   9   -0.05    0.80
   6   3   9   -0.30    0.74
   6   3   9   -0.14    0.65
  -6  -3  -9    1.81    0.98
  -6  -3  -9    1.28    1.10
   6   3  10    0.36    0.64
  -6  -3 -10    0.43    1.21
   6   3  11    0.28    0.68
  -6  -3 -11    0.09    1.33
  -6  -4   7   -0.20    0.98
  -6  -4   7   -0.37    0.99
   6   4  -6    0.28    0.81
  -6  -4   6   -0.92    0.86
  -6  -4   6    0.05    0.88
  -6  -4   6   -0.20    0.92
  -6  -4   6    0.74    0.87
   6   4  -5    3.30    0.79
  -6  -4   5    4.11    0.94
  -6  -4   5    4.85    0.97
  -6  -4   5    3.49    0.94
  -6  -4   5    2.64    0.85
  -6  -4   5    3.36    0.81
  -6  -4   4   50.72    2.57
  -6  -4   4   54.82    2.63
   6   4  -4   53.85    2.52
  -6  -4   4   48.45    2.54
  -6  -4   4   51.63    2.64
   6   4  -4   45.01    2.44
   6   4  -3    5.59    0.84
  -6  -4   3    7.36    0.96
   6   4  -3    9.38    0.95
  -6  -4   3    7.00    1.00
   6   4  -2   34.01    1.86
  -6  -4   2   37.91    2.03
  -6  -4   2   33.31    1.98
  -6  -4   2   38.66    1.92
  -6  -4   1    0.03    0.59
   6   4  -1    0.20    0.35
  -6  -4   1    0.26    0.66
   6   4  -1   -0.17    0.60
   6   4  -1   -0.99    0.70
   6   4   0  195.56    8.13
  -6  -4   0  209.64    8.25
   6   4   0  192.50    8.19
  -6  -4   0  215.37    8.08
   6   4   1  178.24    6.39
  -6  -4  -1  184.43    6.48
   6   4   1  167.26    6.42
  -6  -4  -2   -0.54    0.55
  -6  -4  -2    0.33    0.64
   6   4   2   -0.37    0.33
   6   4   2   -0.04    0.55
  -6  -4  -3   -0.23    0.58
   6   4   3    0.27    0.57
  -6  -4  -4    1.52    0.65
   6   4   4    1.94    0.68
  -6  -4  -4    1.44    0.58
   6   4   5   47.84    2.32
  -6  -4  -5   50.50    2.45
   6   4   5   55.53    2.62
  -6  -4  -5   51.19    2.50
   6   4   6  144.85    6.21
   6   4   6  149.39    6.54
  -6  -4  -6  162.12    6.72
  -6  -4  -6  174.05    6.55
  -6  -4  -7  123.73    5.13
  -6  -4  -7  112.30    5.08
   6   4   7  114.79    5.12
  -6  -4  -7  120.24    5.51
  -6  -4  -7  132.48    5.28
   6   4   8   24.27    1.51
   6   4   8   23.52    1.50
  -6  -4  -8   21.88    1.54
   6   4   8   28.09    1.64
  -6  -4  -8   27.75    2.01
  -6  -4  -8   22.12    1.68
  -6  -4  -8   25.13    1.59
   6   4   9    0.35    0.76
   6   4   9    0.81    0.75
  -6  -4  -9   -0.59    0.93
  -6  -4  -9    0.25    1.16
   6   4  10   13.95    1.24
  -6  -4 -10   14.47    1.81
   6   4  11    0.87    0.76
  -6  -4 -11    0.09    1.31
   6   4  12    1.09    0.84
  -6  -5   6    1.18    1.01
  -6  -5   6    0.78    1.00
  -6  -5   6    1.41    1.07
  -6  -5   5   10.61    1.20
  -6  -5   5    8.12    1.23
  -6  -5   5    7.42    1.20
  -6  -5   5    7.96    0.98
   6   5  -4    0.89    0.64
  -6  -5   4    1.61    0.82
  -6  -5   4    0.24    0.89
  -6  -5   4    1.33    0.92
  -6  -5   4    1.97    0.97
   6   5  -3   -0.37    0.64
  -6  -5   3    0.16    0.79
  -6  -5   3   -0.41    0.88
  -6  -5   3    0.39    0.83
   6   5  -3   -0.98    0.78
  -6  -5   2  108.00    4.58
   6   5  -2  111.85    4.65
  -6  -5   2   99.00    4.73
  -6  -5   2  116.61    4.91
  -6  -5   2  111.93    4.82
  -6  -5   2  105.90    4.76
  -6  -5   1   38.50    2.14
   6   5  -1   43.65    2.08
  -6  -5   1   40.82    2.22
  -6  -5   1   34.47    2.09
   6   5  -1   36.70    2.06
  -6  -5   1   37.95    1.94
   6   5   0    9.02    0.99
  -6  -5   0   10.58    1.13
   6   5   0   10.82    0.76
   6   5   0    9.15    1.00
  -6  -5  -1  698.53   26.42
   6   5   1  697.98   26.33
  -6  -5  -1  662.33   26.43
  -6  -5  -1  677.55   26.41
   6   5   1  688.15   26.33
   6   5   2  140.15    5.44
  -6  -5  -2  140.60    5.55
  -6  -5  -3   49.90    2.39
  -6  -5  -3   46.01    2.40
   6   5   3   40.20    2.27
   6   5   3   45.17    2.33
  -6  -5  -4    8.11    0.98
  -6  -5  -4    8.26    1.01
  -6  -5  -4    5.90    0.94
   6   5   4    7.75    0.95
  -6  -5  -5    4.17    0.84
  -6  -5  -5    4.79    0.91
   6   5   5    4.36    0.82
  -6  -5  -5    4.04    0.72
  -6  -5  -5    3.24    0.97
   6   5   6    0.60    0.59
  -6  -5  -6    0.90    0.77
  -6  -5  -6    0.60    0.77
   6   5   6    0.61    0.73
  -6  -5  -6    1.30    0.71
  -6  -5  -6    0.13    0.83
  -6  -5  -7    0.28    0.75
  -6  -5  -7    0.24    0.80
  -6  -5  -7   -0.15    0.74
  -6  -5  -7    0.36    0.95
  -6  -5  -8    2.64    0.85
   6   5   8    1.99    0.90
  -6  -5  -8    1.43    0.83
  -6  -5  -8    2.88    1.17
  -6  -5  -8    2.78    0.93
   6   5   9    9.16    0.99
   6   5   9   11.54    1.19
  -6  -5  -9    9.90    1.21
  -6  -5  -9    8.20    1.53
   6   5  10   12.41    1.22
  -6  -5 -10    3.27    1.47
   6   5  11    7.94    1.13
  -6  -5 -11    5.67    1.60
   6   5  12    8.12    1.12
  -6  -6   6   -0.48    1.13
  -6  -6   5    5.63    1.21
  -6  -6   5    6.02    1.18
  -6  -6   5    5.54    1.22
  -6  -6   4    6.18    1.22
  -6  -6   4    5.61    1.10
  -6  -6   4    5.42    1.14
  -6  -6   4    5.85    0.81
  -6  -6   3    0.24    0.83
  -6  -6   3   -0.23    0.95
  -6  -6   3    0.67    1.00
   6   6  -2   15.12    1.21
  -6  -6   2   14.44    1.45
  -6  -6   2   12.00    1.33
  -6  -6   1    2.63    0.93
  -6  -6   1    1.72    0.92
  -6  -6   1    2.16    0.90
   6   6  -1    1.79    0.74
   6   6  -1    2.17    0.52
   6   6  -1    1.96    0.75
  -6  -6   0    0.77    0.90
   6   6   0    0.93    0.76
   6   6   0    1.93    0.56
   6   6   0    2.72    0.74
   6   6   1   36.40    1.87
  -6  -6  -1   27.63    1.91
  -6  -6  -1   30.46    1.97
   6   6   1   29.12    1.51
   6   6   1   28.46    1.72
  -6  -6  -1   28.55    1.87
   6   6   2  106.86    4.47
  -6  -6  -2  103.23    4.58
  -6  -6  -2  102.53    4.60
   6   6   2   98.46    4.19
   6   6   2   95.70    4.38
  -6  -6  -2  104.29    4.56
  -6  -6  -3   34.47    2.10
  -6  -6  -3   34.19    2.12
   6   6   3   34.83    1.98
  -6  -6  -3   37.50    2.09
   6   6   3   37.32    2.03
  -6  -6  -4   27.28    1.75
  -6  -6  -4   24.90    1.79
   6   6   4   25.84    1.65
  -6  -6  -4   27.89    1.74
  -6  -6  -5  106.02    4.65
   6   6   5   95.02    4.48
  -6  -6  -5  107.72    4.59
  -6  -6  -6    0.11    0.94
  -6  -6  -6    0.04    0.33
  -6  -6  -6    0.47    0.85
   6   6   6    0.63    0.70
  -6  -6  -6    0.53    0.64
  -6  -6  -7    0.70    0.44
  -6  -6  -7    0.32    0.83
  -6  -6  -7   -0.17    0.87
  -6  -6  -7    0.40    0.69
  -6  -6  -7    0.38    1.02
  -6  -6  -8    0.47    0.49
  -6  -6  -8    0.54    0.90
  -6  -6  -8    0.57    0.93
   6   6   8    0.52    0.90
  -6  -6  -8   -0.45    0.76
  -6  -6  -8    1.31    1.10
  -6  -6  -9    1.25    1.02
   6   6   9    0.52    0.69
   6   6   9   -0.28    0.90
  -6  -6  -9    0.39    0.87
  -6  -6  -9    1.38    1.28
   6   6  10    9.19    1.24
  -6  -6 -10    9.03    1.69
   6   6  11    6.63    1.21
   6   6  12    1.70    1.05
  -6  -7   5    3.90    1.30
  -6  -7   4    1.07    1.20
  -6  -7   3    4.14    1.19
  -6  -7   3    6.27    1.26
  -6  -7   2    0.73    1.05
  -6  -7   2   -0.06    1.01
  -6  -7   1    6.07    1.22
  -6  -7   1    3.65    1.12
   6   7  -1    4.69    0.69
   6   7  -1    5.50    0.92
   6   7   0   10.37    1.07
  -6  -7   0    8.98    1.31
  -6  -7   0    8.40    1.27
   6   7   0   11.83    0.95
   6   7   0   10.81    1.08
  -6  -7  -1    5.45    0.64
  -6  -7  -1    5.65    1.12
   6   7   1    7.17    1.03
   6   7   1    7.11    0.74
  -6  -7  -1    5.57    1.19
   6   7   1    6.94    0.92
   6   7   2   34.01    1.88
  -6  -7  -2   28.38    2.00
   6   7   2   28.24    1.58
  -6  -7  -2   29.83    1.86
   6   7   2   26.78    1.71
  -6  -7  -2   31.54    1.99
   6   7   3   32.38    1.94
  -6  -7  -3   34.73    2.16
  -6  -7  -3   32.98    2.04
   6   7   3   34.74    1.93
  -6  -7  -3   33.30    2.09
   6   7   4    6.47    1.01
  -6  -7  -4    8.48    1.17
  -6  -7  -4    6.93    1.14
   6   7   4    9.31    1.01
  -6  -7  -4    5.77    1.06
  -6  -7  -5    3.76    1.02
  -6  -7  -5    3.53    1.07
   6   7   5    3.96    0.84
  -6  -7  -5    4.14    1.10
  -6  -7  -6   16.72    1.52
  -6  -7  -6   16.93    1.63
   6   7   6   13.74    1.25
  -6  -7  -6   15.04    1.45
  -6  -7  -7    6.46    1.19
  -6  -7  -7    6.86    1.18
  -6  -7  -7    8.00    0.91
  -6  -7  -8    6.60    1.26
  -6  -7  -8    7.76    1.24
  -6  -7  -8    7.12    0.76
   6   7   8    7.76    1.25
  -6  -7  -8    9.33    1.04
  -6  -7  -9    0.30    0.61
   6   7   9    1.79    1.10
  -6  -7  -9   -0.51    1.06
  -6  -7  -9   -0.36    1.28
  -6  -7  -9    0.45    0.80
   6   7  10    2.22    1.12
  -6  -7 -10    1.86    1.42
  -6  -7 -10    1.41    0.94
   6   7  11    1.44    1.10
  -6  -8   5   -0.63    1.19
  -6  -8   4   -0.07    1.25
  -6  -8   3    1.01    1.26
  -6  -8   2    0.99    1.26
  -6  -8   2    1.28    0.70
   6   8  -1    1.07    0.65
  -6  -8   1    0.52    1.15
   6   8  -1    0.41    0.76
  -6  -8   1    0.45    0.70
  -6  -8   0   -2.10    1.21
   6   8   0    0.23    0.62
   6   8   0    0.29    0.72
  -6  -8   0    0.29    0.73
   6   8   1   14.30    1.06
  -6  -8  -1    9.91    1.09
   6   8   1   12.54    1.16
  -6  -8  -2   -0.17    0.42
  -6  -8  -2   -0.07    1.00
   6   8   2   -1.05    0.70
   6   8   2   -0.83    0.70
  -6  -8  -2   -0.46    0.78
  -6  -8  -3    0.77    0.44
  -6  -8  -3    0.49    0.99
  -6  -8  -3   -0.17    0.87
  -6  -8  -4    2.50    1.07
  -6  -8  -4    4.66    1.07
  -6  -8  -5    6.42    1.22
  -6  -8  -5    6.03    1.23
  -6  -8  -6   18.42    1.73
  -6  -8  -6   21.10    1.80
  -6  -8  -7    0.84    1.07
  -6  -8  -7    0.08    1.10
  -6  -8  -8   -0.22    1.12
  -6  -8  -8   -0.85    1.27
  -6  -8  -8    0.36    0.69
  -6  -8  -9    6.56    1.38
   6   8   9    7.39    1.33
  -6  -8  -9    6.83    0.98
   6   8  10   17.35    1.72
  -6  -9   4    5.09    1.49
  -6  -9   3    4.35    1.39
  -6  -9   2    1.23    1.29
   6   9  -1    0.43    0.72
  -6  -9   1   -0.33    1.24
   6   9   0    1.59    0.78
  -6  -9   0    0.08    1.25
  -6  -9   0    1.18    0.79
   6   9   1    3.27    0.81
  -6  -9  -1    3.99    0.94
  -6  -9  -2   16.06    1.70
   6   9   2   17.12    1.29
  -6  -9  -2   13.17    1.33
  -6  -9  -3    3.45    0.40
  -6  -9  -3    4.96    1.32
  -6  -9  -3    4.78    1.04
  -6  -9  -4    1.16    0.44
  -6  -9  -4    0.94    1.14
  -6  -9  -4    2.98    1.08
  -6  -9  -5   -0.63    1.25
  -6  -9  -5    0.84    1.10
  -6  -9  -6   -0.64    1.20
  -6  -9  -6    1.55    1.11
  -6  -9  -7    0.64    1.18
  -6  -9  -7   -1.04    1.25
  -6  -9  -8    1.81    1.22
  -6  -9  -8    1.94    1.29
  -6  -9  -9    1.97    1.24
   6   9   9    2.28    1.30
   6  10  -1   13.29    1.25
  -6 -10   0    7.09    1.52
   6  10   0    8.43    1.08
   6  10   1   27.23    1.70
  -6 -10  -1   20.69    1.56
  -6 -10  -1   24.59    2.15
   6  10   2    2.39    0.90
  -6 -10  -2    0.90    0.94
  -6 -10  -3    2.63    1.31
  -6 -10  -3    0.62    0.99
  -6 -10  -4    1.74    1.34
  -6 -10  -4    0.56    1.08
  -6 -10  -5    0.95    1.23
  -6 -10  -5    1.92    1.18
  -6 -10  -6    1.86    1.32
  -6 -10  -6   -0.81    1.21
  -6 -10  -7    1.25    1.31
  -6 -10  -7    1.58    1.32
  -6 -10  -8    1.36    1.37
   6  11   2    9.85    1.26
   6  11   3    8.09    1.23
  -6 -11  -4    0.60    1.06
  -6 -11  -5    0.13    1.14
  -6 -11  -6   16.82    1.81
  -6 -11  -7   29.05    2.30
  -7   9   1    6.90    1.29
  -7   9   0    0.69    1.03
  -7   9   0    2.65    0.94
  -7   9  -1    6.88    1.18
  -7   8   7   -0.60    1.34
  -7   8   6    8.99    1.59
   7  -8  -4   10.58    1.01
  -7   8   3    1.75    1.01
   7  -8  -3    0.15    0.65
  -7   8   2    0.96    1.10
   7  -8  -2    1.15    0.74
  -7   8   1    1.74    0.97
  -7   8   1    0.80    0.75
  -7   8   1   -0.55    1.09
  -7   8   0   -0.28    0.97
  -7   8   0    0.64    0.79
  -7   8   0    0.25    1.10
  -7   8  -1   10.00    1.19
  -7   8  -1    9.17    1.45
  -7   8  -1    9.77    1.41
  -7   8  -2    2.52    1.22
  -7   8  -2    3.06    0.99
  -7   8  -2    2.55    1.23
  -7   8  -3    4.36    1.28
  -7   8  -3    5.06    1.14
  -7   8  -4    1.32    1.20
  -7   7   9    2.54    1.41
  -7   7   8    4.79    1.47
   7  -7  -7   15.58    1.29
   7  -7  -7   16.69    1.58
   7  -7  -6    8.21    1.26
   7  -7  -6    6.33    0.98
   7  -7  -5  102.06    4.49
   7  -7  -4    8.42    1.02
  -7   7   3    2.04    1.00
  -7   7   3    4.26    1.03
   7  -7  -3    3.32    0.79
  -7   7   2    1.21    0.91
   7  -7  -2    1.21    0.98
  -7   7   2    1.67    0.97
  -7   7   2    1.33    0.98
   7  -7  -2    1.33    0.72
  -7   7   1    0.37    0.84
   7  -7  -1   -0.18    0.96
  -7   7   1    1.01    1.01
   7  -7  -1   -0.05    0.71
  -7   7   0    4.02    1.03
  -7   7   0    3.75    0.82
   7  -7   0    4.76    1.18
  -7   7   0    3.19    1.13
  -7   7   0    2.76    0.79
  -7   7  -1    0.27    0.89
  -7   7  -1    1.54    0.78
   7  -7   1    1.57    1.13
  -7   7  -1    0.96    1.01
  -7   7  -2    0.44    1.00
  -7   7  -2   -0.36    0.83
   7  -7   2   -0.31    1.18
  -7   7  -2   -0.16    1.10
  -7   7  -3    1.23    1.07
  -7   7  -3    2.51    0.96
  -7   7  -4    1.05    1.08
  -7   7  -4    0.47    0.95
   7  -7   4    2.08    1.37
  -7   6   9   -0.14    1.23
   7  -6  -8    0.46    0.85
   7  -6  -7   -0.18    0.95
   7  -6  -7    0.85    0.82
   7  -6  -6    1.39    0.95
   7  -6  -6    2.21    0.84
   7  -6  -5   14.27    1.22
   7  -6  -5   14.24    1.46
   7  -6  -4   46.30    2.40
   7  -6  -4   46.32    2.47
  -7   6   4   50.99    2.68
   7  -6  -3   67.70    3.21
  -7   6   3   70.19    3.37
  -7   6   3   71.22    3.45
   7  -6  -3   64.81    3.21
  -7   6   3   67.15    3.31
  -7   6   2    9.45    1.13
   7  -6  -2    8.27    1.11
  -7   6   2    9.32    1.23
  -7   6   2   11.20    1.24
   7  -6  -2    8.26    1.06
   7  -6  -1   76.40    3.54
  -7   6   1   68.55    3.64
  -7   6   1   74.05    3.47
   7  -6  -1   69.74    3.42
  -7   6   1   79.68    3.47
  -7   6   0    1.15    0.81
   7  -6   0    1.55    0.93
  -7   6   0   -1.14    1.03
  -7   6   0    1.66    0.86
   7  -6   0   -0.99    0.78
  -7   6  -1   -0.05    0.77
  -7   6  -1    1.37    0.84
  -7   6  -1    0.78    0.68
   7  -6   1   -1.63    1.04
  -7   6  -1    0.20    0.98
  -7   6  -1    1.49    0.68
   7  -6   1    0.22    0.80
  -7   6  -2    0.37    0.80
  -7   6  -2    0.20    0.88
  -7   6  -2    0.37    0.73
  -7   6  -2    1.23    0.99
  -7   6  -3    5.07    0.94
  -7   6  -3    4.79    1.11
  -7   6  -3    5.68    0.98
  -7   6  -4    6.88    1.25
  -7   6  -4    6.71    1.04
   7  -6   4    7.14    1.46
  -7   6  -5    0.57    0.88
   7  -6   5   -0.09    1.28
  -7   6  -6    0.81    1.16
  -7   6  -6    2.16    1.00
  -7   5   9   12.16    1.52
   7  -5  -9   14.96    1.40
   7  -5  -8    2.92    1.01
   7  -5  -8    5.35    0.99
   7  -5  -7    0.43    0.88
  -7   5   7    1.09    1.09
   7  -5  -7    0.55    0.75
   7  -5  -6    0.52    0.86
   7  -5  -6    0.77    0.74
   7  -5  -5    3.05    0.98
   7  -5  -5    3.17    0.68
   7  -5  -5    2.23    0.92
   7  -5  -5    2.60    0.80
   7  -5  -4   81.31    3.60
  -7   5   4   91.82    4.04
   7  -5  -4   76.58    3.72
   7  -5  -4   85.04    3.77
   7  -5  -4   72.78    3.82
  -7   5   4   89.88    3.96
  -7   5   3   -1.51    0.96
   7  -5  -3    0.86    0.76
   7  -5  -3    0.47    0.72
  -7   5   3    0.61    0.89
   7  -5  -3   -0.05    0.72
   7  -5  -2   26.38    1.59
  -7   5   2   21.49    1.61
   7  -5  -2   20.59    1.52
  -7   5   2   24.14    1.59
  -7   5   1    0.46    0.75
   7  -5  -1    0.34    0.82
   7  -5  -1    0.10    0.71
  -7   5   0    0.22    0.77
   7  -5   0    1.49    0.87
   7  -5   0    0.87    0.77
  -7   5  -1  105.52    4.41
   7  -5   1   98.32    4.43
   7  -5   1   85.97    4.26
  -7   5  -1   93.00    4.18
  -7   5  -1   98.22    4.26
  -7   5  -2    1.78    0.76
  -7   5  -2    2.31    0.75
  -7   5  -2    3.36    0.90
  -7   5  -2    1.75    0.51
  -7   5  -2    1.96    0.68
   7  -5   2    1.19    0.87
  -7   5  -2    2.07    0.79
  -7   5  -3    6.85    1.00
  -7   5  -3    8.04    1.12
  -7   5  -3    7.78    0.97
  -7   5  -3   10.33    1.00
   7  -5   3    8.79    1.28
  -7   5  -3    7.87    1.11
  -7   5  -4    2.37    0.94
  -7   5  -4    1.40    0.81
   7  -5   4    3.51    1.19
  -7   5  -4    2.50    0.91
  -7   5  -5    8.56    1.09
   7  -5   5    8.59    1.45
  -7   5  -6   10.45    1.40
  -7   5  -6    8.40    1.13
   7  -5   6    7.82    1.55
  -7   5  -7    7.08    1.35
   7  -5   7    8.06    1.70
   7  -4  -8    5.15    1.23
   7  -4  -8    4.58    1.04
  -7   4   8    5.41    1.23
  -7   4   7   24.72    1.56
   7  -4  -7   21.25    1.62
   7  -4  -7   24.99    1.67
   7  -4  -7   23.21    1.77
   7  -4  -6    1.47    0.93
   7  -4  -6    0.71    0.81
   7  -4  -6    2.20    0.54
  -7   4   6    1.27    0.67
   7  -4  -6    1.81    0.72
  -7   4   5   18.61    1.17
   7  -4  -5   18.79    1.42
   7  -4  -5   15.91    1.09
   7  -4  -5   16.50    1.50
   7  -4  -5   13.91    1.32
   7  -4  -5   17.05    1.33
  -7   4   4    4.80    1.02
   7  -4  -4    2.95    0.91
   7  -4  -4    2.81    0.70
  -7   4   4    3.07    0.63
   7  -4  -4    3.91    0.85
  -7   4   4    4.20    1.06
   7  -4  -4    5.24    0.89
  -7   4   3   85.13    3.83
   7  -4  -3   94.64    4.30
   7  -4  -3   97.35    4.05
  -7   4   3  113.41    4.41
   7  -4  -3   89.78    4.06
   7  -4  -3   89.61    4.19
  -7   4   3  103.85    4.30
  -7   4   2    3.01    0.82
   7  -4  -2    1.51    0.70
   7  -4  -2    1.37    0.64
   7  -4  -2    1.08    0.74
   7  -4  -1   16.84    1.26
   7  -4  -1   15.59    1.30
  -7   4   1   14.06    1.24
   7  -4   0   31.96    1.86
   7  -4   0   30.57    1.87
  -7   4   0   30.18    1.78
   7  -4   1    9.92    1.18
   7  -4   1   10.60    1.12
  -7   4  -1   11.46    1.04
  -7   4  -1    9.69    1.04
  -7   4  -2    0.62    0.72
  -7   4  -2    0.22    0.72
  -7   4  -2    0.20    0.38
   7  -4   2    0.11    0.73
  -7   4  -2    0.23    0.71
  -7   4  -3   15.34    1.33
   7  -4   3   12.15    1.33
   7  -4   3   14.58    1.37
  -7   4  -3   12.12    1.23
  -7   4  -4    3.55    1.01
   7  -4   4    5.46    1.12
  -7   4  -4    6.16    1.01
   7  -4   5   64.26    3.34
  -7   4  -5   56.99    3.12
   7  -4   6    8.30    0.52
  -7   4  -6   13.19    1.39
   7  -4   6   10.96    1.53
  -7   4  -7    4.76    1.22
   7  -4   7    5.92    1.40
   7  -4   7    3.13    0.47
  -7   4  -8    5.34    1.29
   7  -4   8    5.92    1.62
  -7   4  -9    1.22    1.20
  -7   3   9    7.93    1.19
   7  -3  -8    6.04    1.21
  -7   3   8    8.55    1.08
   7  -3  -7   -0.44    0.95
   7  -3  -7   -0.58    0.81
   7  -3  -7   -0.15    0.39
  -7   3   7    1.14    0.75
   7  -3  -6    1.28    0.90
   7  -3  -6    0.34    0.46
  -7   3   6    0.89    0.67
   7  -3  -6    1.30    0.76
   7  -3  -6    0.53    0.73
   7  -3  -5    3.57    0.83
  -7   3   5    4.77    1.03
   7  -3  -5    4.38    0.88
   7  -3  -5    3.22    0.60
   7  -3  -5    3.75    0.97
   7  -3  -5    3.28    0.58
  -7   3   5    4.91    0.74
   7  -3  -5    4.73    0.87
  -7   3   5    5.45    1.08
   7  -3  -5    4.15    0.85
  -7   3   4  228.42    7.89
   7  -3  -4  195.94    8.11
   7  -3  -4  194.85    7.80
   7  -3  -4  164.02    7.75
   7  -3  -4  207.27    8.23
  -7   3   4  222.86    8.31
   7  -3  -4  183.51    7.95
   7  -3  -4  205.37    8.14
   7  -3  -4  195.16    8.14
  -7   3   4  224.24    8.25
  -7   3   3   81.34    3.70
   7  -3  -3   99.59    4.10
   7  -3  -3   89.15    3.73
   7  -3  -3   86.52    3.74
   7  -3  -3   87.38    3.82
   7  -3  -3   97.91    4.05
   7  -3  -3   76.97    3.97
  -7   3   3  100.19    4.09
  -7   3   2   94.16    4.06
   7  -3  -2  100.15    4.21
   7  -3  -2   98.48    4.22
  -7   3   2  111.34    4.40
   7  -3  -2   98.82    4.19
   7  -3  -2  101.29    4.44
  -7   3   2  105.79    4.42
   7  -3  -1   23.60    1.67
   7  -3  -1   25.24    1.48
   7  -3  -1   24.80    1.48
  -7   3   1   23.09    1.55
   7  -3  -1   28.78    1.71
  -7   3   1   28.45    1.65
   7  -3   0   12.34    1.03
   7  -3   0   12.62    1.04
  -7   3   0    9.81    1.08
   7  -3   0   11.49    1.15
  -7   3   0   10.49    1.06
   7  -3   1   56.99    2.58
  -7   3  -1   49.23    2.57
   7  -3   1   47.40    2.18
   7  -3   1   56.68    2.71
  -7   3  -1   52.00    2.51
  -7   3  -1   55.63    2.59
  -7   3  -2    1.50    0.74
  -7   3  -2    0.55    0.72
   7  -3   2    0.81    0.73
  -7   3  -2    1.24    0.30
   7  -3   2    1.26    0.75
  -7   3  -2    0.67    0.68
  -7   3  -3   11.10    1.10
   7  -3   3   12.90    1.21
   7  -3   3    9.95    1.16
  -7   3  -3   11.08    1.15
   7  -3   4  104.49    3.64
   7  -3   4   97.03    3.65
  -7   3  -4  100.45    3.49
   7  -3   5   24.01    1.12
   7  -3   5   29.22    1.94
  -7   3  -5   31.41    1.92
  -7   3  -5   29.94    1.84
  -7   3  -6   18.59    1.50
   7  -3   6   16.93    1.60
   7  -3   6   14.85    0.84
  -7   3  -6   17.08    1.60
  -7   3  -7    5.13    1.11
   7  -3   7    3.76    1.33
   7  -3   7    4.27    0.57
  -7   3  -8    5.05    1.21
   7  -3   8    3.32    1.39
   7  -3   8    2.94    0.62
  -7   3  -9   17.37    1.70
   7  -3   9   16.10    1.93
  -7   3 -10    0.77    1.15
  -7   2   9    0.57    0.97
   7  -2  -8    0.13    0.98
  -7   2   8   -0.31    0.86
  -7   2   7   15.14    1.23
   7  -2  -7    9.09    0.71
   7  -2  -7   13.15    0.75
   7  -2  -7   13.26    1.32
   7  -2  -6    3.44    0.93
   7  -2  -6    5.34    0.89
   7  -2  -6    3.80    0.54
   7  -2  -6    1.77    0.92
   7  -2  -6    4.02    0.54
  -7   2   6    3.80    0.80
   7  -2  -5    6.45    0.96
  -7   2   5    7.08    1.11
   7  -2  -5    7.21    0.95
   7  -2  -5    6.94    0.64
   7  -2  -5    6.08    0.65
   7  -2  -5    8.22    1.09
  -7   2   5    6.37    0.82
   7  -2  -5    7.22    0.94
  -7   2   5    6.85    1.11
   7  -2  -5    6.22    0.99
  -7   2   4   37.88    2.04
   7  -2  -4   45.52    2.26
   7  -2  -4   43.08    1.92
   7  -2  -4   36.56    1.90
   7  -2  -4   47.84    2.32
   7  -2  -4   35.32    2.05
   7  -2  -4   44.31    2.27
   7  -2  -4   42.40    2.26
  -7   2   4   44.56    2.35
  -7   2   3   14.45    1.10
   7  -2  -3   15.54    1.27
   7  -2  -3   16.04    1.00
   7  -2  -3   16.26    1.05
   7  -2  -3   16.44    1.33
   7  -2  -3   16.09    1.11
   7  -2  -3   16.82    1.32
   7  -2  -3   14.30    1.26
  -7   2   3   17.34    1.34
  -7   2   2  122.99    5.36
   7  -2  -2  135.13    5.42
   7  -2  -2  137.46    5.46
   7  -2  -2  125.87    5.38
   7  -2  -2  148.20    5.74
  -7   2   2  148.18    5.67
   7  -2  -1   10.29    1.03
   7  -2  -1   10.53    0.86
   7  -2  -1   10.15    0.88
   7  -2  -1    9.15    0.65
  -7   2   1   10.22    0.94
   7  -2  -1    9.89    0.74
   7  -2  -1    9.16    0.99
  -7   2   1   10.96    1.04
  -7   2   1    7.20    0.70
   7  -2   0   56.66    2.82
   7  -2   0   65.22    2.70
   7  -2   0   58.03    2.34
   7  -2   0   57.91    2.65
  -7   2   0   49.57    2.65
  -7   2   0   53.98    2.70
   7  -2   1   26.39    1.64
   7  -2   1   22.52    1.06
  -7   2  -1   21.90    1.48
   7  -2   1   25.52    1.17
  -7   2  -1   25.61    1.53
  -7   2  -1   25.62    1.52
   7  -2   2   55.47    2.15
   7  -2   2   57.33    2.63
   7  -2   2   59.63    2.63
  -7   2  -2   49.45    2.60
   7  -2   2   49.44    2.17
  -7   2  -2   54.46    2.64
  -7   2  -2   58.90    2.68
   7  -2   3   39.28    1.73
   7  -2   3   44.37    2.24
   7  -2   3   45.95    2.28
  -7   2  -3   47.98    2.33
   7  -2   4   53.77    2.50
   7  -2   4   49.49    2.49
  -7   2  -4   54.84    2.57
   7  -2   4   42.56    1.96
  -7   2  -5   18.65    1.40
   7  -2   5   17.42    1.49
  -7   2  -5   17.70    1.48
  -7   2  -6   20.34    1.49
   7  -2   6   19.96    1.69
  -7   2  -6   19.17    1.65
  -7   2  -7   16.77    1.38
   7  -2   7   12.93    0.94
   7  -2   7   11.44    1.47
  -7   2  -7   14.32    1.51
  -7   2  -8   24.67    1.76
   7  -2   8   22.58    2.01
   7  -2   8   24.70    1.39
  -7   2  -9   10.60    1.29
   7  -2   9    8.21    0.96
   7  -2   9    9.91    1.64
  -7   2 -10   10.50    1.34
   7  -2  10    9.09    1.04
   7  -2  10    9.75    1.71
  -7   2 -11   -0.12    1.01
  -7   1   8   24.05    1.71
   7  -1  -8   23.56    1.86
   7  -1  -7    1.39    0.91
   7  -1  -7    1.62    0.45
  -7   1   7    0.68    0.80
   7  -1  -7    0.56    0.40
   7  -1  -6    0.28    0.79
   7  -1  -6    0.05    0.84
  -7   1   6    0.47    0.70
  -7   1   6   -1.27    0.94
  -7   1   5   14.16    1.40
  -7   1   5   15.21    1.16
   7  -1  -5   15.07    1.34
   7  -1  -5   13.55    1.12
   7  -1  -5   16.49    1.34
  -7   1   4    8.87    0.95
   7  -1  -4   10.63    1.12
   7  -1  -4    9.03    0.94
   7  -1  -4   12.01    1.06
  -7   1   4   11.26    1.19
  -7   1   3   22.28    1.35
   7  -1  -3   19.94    1.24
   7  -1  -3   25.41    1.52
   7  -1  -3   22.76    1.34
   7  -1  -3   22.58    1.51
  -7   1   3   27.32    1.58
  -7   1   2   99.93    4.25
   7  -1  -2  115.68    4.50
   7  -1  -2  101.20    4.20
   7  -1  -2   97.63    4.18
   7  -1  -2  101.55    4.20
   7  -1  -2  102.94    4.24
  -7   1   2  107.06    4.46
   7  -1  -1   30.05    1.70
   7  -1  -1   30.93    1.49
   7  -1  -1   27.50    1.46
  -7   1   1   30.81    1.68
  -7   1   1   26.28    1.47
   7  -1   0   49.21    2.33
   7  -1   0   42.21    1.89
   7  -1   0   49.02    2.09
  -7   1   0   39.40    2.09
   7  -1   0   41.93    2.28
  -7   1   0   42.16    2.17
   7  -1   1   56.32    2.57
   7  -1   1   71.89    3.06
  -7   1  -1   59.20    2.87
   7  -1   1   73.48    3.18
  -7   1  -1   71.11    2.98
  -7   1  -1   65.05    2.91
  -7   1  -2    3.47    0.72
   7  -1   2    3.21    0.82
   7  -1   2    3.98    0.68
  -7   1  -2    2.44    0.69
   7  -1   2    3.21    0.43
   7  -1   2    3.91    0.73
   7  -1   2    3.13    0.81
  -7   1  -2    3.71    0.76
   7  -1   3   21.21    1.06
   7  -1   3   22.74    1.42
   7  -1   3   22.60    1.40
   7  -1   3   20.48    0.92
   7  -1   3   20.40    1.52
  -7   1  -3   20.71    1.44
   7  -1   4    8.87    1.00
   7  -1   4    8.22    0.95
   7  -1   4    7.29    1.04
  -7   1  -4    8.35    1.02
   7  -1   5    8.70    1.04
   7  -1   5    7.70    0.98
   7  -1   5    9.03    1.15
  -7   1  -5    7.53    1.04
  -7   1  -6   33.99    1.86
   7  -1   6   29.32    1.92
   7  -1   6   29.41    1.91
  -7   1  -6   29.53    2.01
  -7   1  -7   20.63    1.49
   7  -1   7   20.91    1.70
  -7   1  -7   18.09    1.70
  -7   1  -8   14.57    1.28
   7  -1   8   11.12    1.49
  -7   1  -8   11.21    1.46
  -7   1  -9   12.71    1.24
   7  -1   9   12.08    1.61
  -7   1  -9    8.76    1.55
  -7   1 -10    6.35    1.07
   7  -1  10    4.81    1.47
   7  -1  10    4.16    0.91
  -7   1 -11    3.98    1.03
   7  -1  11    1.40    0.96
   7   0  -8    0.32    1.01
  -7   0   8    0.23    0.92
  -7   0   7   35.41    2.09
   7   0  -7   32.53    2.15
   7   0  -6    2.56    0.93
   7   0  -6    5.60    0.93
  -7   0   6    3.15    0.89
  -7   0   6    5.62    0.71
  -7   0   6    3.08    1.04
   7   0  -5    0.82    0.82
   7   0  -5    1.05    0.76
  -7   0   5    1.64    0.75
  -7   0   5    1.81    0.55
  -7   0   5    1.51    0.86
  -7   0   4   14.93    1.24
   7   0  -4   17.22    1.13
   7   0  -4   14.41    1.22
   7   0  -4   16.55    1.25
   7   0  -3    0.23    0.66
   7   0  -3    0.16    0.64
  -7   0   3    0.81    0.60
   7   0  -3    0.24    0.54
   7   0  -3   -0.40    0.65
  -7   0   2    5.42    0.82
   7   0  -2    5.78    0.63
   7   0  -2    5.98    0.75
  -7   0   2    4.82    0.67
  -7   0   2    5.83    0.47
   7   0  -2    4.74    0.80
  -7   0   1    3.38    0.73
  -7   0   1    2.44    0.59
  -7   0   1    2.86    0.33
   7   0  -1    2.56    0.51
   7   0  -1    2.61    0.71
  -7   0   0    4.40    0.71
   7   0   0    5.02    0.77
  -7   0   0    4.42    0.31
   7   0   0    4.77    0.79
   7   0   1   17.49    1.22
   7   0   1   16.45    1.29
  -7   0  -1   16.70    1.18
  -7   0  -2   -0.60    0.59
   7   0   2    0.93    0.65
   7   0   2    0.25    0.49
   7   0   2    1.11    0.48
   7   0   2   -0.74    0.68
  -7   0  -2    0.08    0.55
   7   0   3   50.92    2.63
   7   0   3   52.16    2.48
   7   0   3   52.05    2.50
   7   0   3   55.57    2.75
  -7   0  -3   55.59    2.63
   7   0   4    1.25    0.67
   7   0   4    0.38    0.63
   7   0   4    1.89    0.79
  -7   0  -4    1.21    0.71
   7   0   5   -0.22    0.70
   7   0   5   -0.54    0.68
   7   0   5   -0.20    0.30
   7   0   5    0.49    0.74
  -7   0  -5   -0.21    0.75
   7   0   6    5.87    0.93
   7   0   6    2.95    0.85
   7   0   6    5.43    0.34
   7   0   6    6.82    1.13
  -7   0  -6    4.61    1.00
   7   0   7    0.46    0.83
   7   0   7   -0.44    0.87
  -7   0  -7   -0.96    0.94
  -7   0  -7   -0.34    1.10
   7   0   8    2.97    1.05
  -7   0  -8    2.39    1.07
   7   0   9    4.37    1.23
   7   0   9    3.26    0.64
  -7   0  -9    4.93    1.30
   7   0  10   -0.22    1.21
  -7   0 -10    0.84    1.37
   7   0  12    0.92    1.03
   7   1  -8    0.06    0.99
  -7  -1   8   -0.51    1.07
   7   1  -7    4.85    1.11
  -7  -1   7    6.54    1.13
   7   1  -6   -0.16    0.80
   7   1  -6    1.53    0.75
  -7  -1   6    0.94    0.87
  -7  -1   6    1.01    0.68
  -7  -1   6   -0.11    0.92
  -7  -1   5   29.33    1.91
  -7  -1   5   31.96    1.87
   7   1  -5   31.13    1.76
   7   1  -5   29.30    1.72
  -7  -1   5   27.64    1.57
  -7  -1   5   31.24    1.88
   7   1  -5   29.15    1.86
   7   1  -4   -0.40    0.70
  -7  -1   4    0.59    0.89
   7   1  -4   -0.43    0.66
  -7  -1   4    0.04    0.66
  -7  -1   4    0.46    0.50
   7   1  -4    0.55    0.64
  -7  -1   3   23.32    1.51
   7   1  -3   25.01    1.44
   7   1  -3   24.91    1.50
  -7  -1   3   24.18    1.28
   7   1  -3   25.36    1.58
  -7  -1   3   29.76    1.68
   7   1  -2    3.17    0.63
  -7  -1   2    1.70    0.58
  -7  -1   2    2.20    0.41
   7   1  -2    2.90    0.57
   7   1  -2    2.15    0.66
  -7  -1   1    0.76    0.56
  -7  -1   1    0.23    0.30
   7   1  -1   -0.23    0.51
   7   1  -1   -0.43    0.61
   7   1   0  156.60    6.12
   7   1   0  147.50    6.39
  -7  -1  -1    1.01    0.43
   7   1   1    0.78    0.48
   7   1   1    1.07    0.62
  -7  -1  -2    0.38    0.56
   7   1   2    2.00    0.67
  -7  -1  -2   -0.29    0.48
   7   1   2    0.53    0.65
  -7  -1  -2    0.34    0.56
   7   1   3    4.96    0.80
   7   1   3    4.34    0.83
  -7  -1  -3    5.39    0.79
   7   1   4    0.57    0.67
   7   1   4    1.40    0.60
   7   1   4    0.28    0.52
   7   1   4    1.76    0.75
  -7  -1  -4    0.24    0.64
   7   1   5    5.27    0.81
   7   1   5    2.72    0.72
   7   1   5    3.26    0.85
  -7  -1  -5    3.24    0.85
   7   1   6    1.00    0.70
   7   1   6    0.78    0.74
   7   1   6    0.81    0.45
   7   1   6    1.59    0.85
  -7  -1  -6   -0.06    0.78
   7   1   7    2.38    0.90
   7   1   7    2.64    0.84
   7   1   7    1.86    0.38
   7   1   7    3.06    0.47
  -7  -1  -7    2.57    0.98
  -7  -1  -7    1.34    1.00
   7   1   8    0.15    0.87
   7   1   8   -1.38    0.93
   7   1   8   -0.36    0.38
   7   1   8    0.17    0.37
  -7  -1  -8   -0.29    1.05
   7   1   9    0.18    0.45
  -7  -1  -9    0.81    1.22
   7   1  10    1.63    1.15
   7   1  10    0.70    0.56
  -7  -1 -10    1.04    1.30
  -7  -1 -11    0.18    1.48
   7   2  -8    6.06    1.21
   7   2  -7    2.56    1.06
  -7  -2   7    4.52    1.19
   7   2  -6    1.13    0.93
  -7  -2   6    2.57    0.96
  -7  -2   6    2.28    0.75
  -7  -2   6    1.78    0.98
   7   2  -5    0.44    0.75
  -7  -2   5    1.54    0.81
  -7  -2   5    1.69    0.61
   7   2  -5    1.15    0.76
  -7  -2   5    1.54    0.85
   7   2  -4    3.22    0.79
  -7  -2   4    2.60    0.91
   7   2  -4    2.67    0.70
  -7  -2   4    4.25    0.86
  -7  -2   4    3.52    0.65
   7   2  -4    3.37    0.77
  -7  -2   3   29.54    1.66
   7   2  -3   28.48    1.55
   7   2  -3   26.66    1.52
  -7  -2   3   23.67    1.38
   7   2  -3   26.77    1.63
  -7  -2   3   29.36    1.74
  -7  -2   2    4.63    0.81
  -7  -2   2    5.68    0.78
   7   2  -2    3.62    0.64
  -7  -2   2    4.44    0.55
   7   2  -2    3.96    0.69
   7   2  -2    6.09    0.84
   7   2  -1   23.56    1.28
   7   2  -1   19.06    1.13
   7   2  -1   21.74    1.46
  -7  -2   1   21.43    1.33
  -7  -2   0    0.99    0.63
   7   2   0    0.20    0.54
   7   2   0    0.38    0.61
   7   2   1  133.14    5.48
   7   2   1  131.61    5.68
  -7  -2  -1  138.20    5.56
   7   2   2   12.09    0.98
  -7  -2  -2   15.34    0.78
   7   2   2   12.22    1.18
   7   2   3    5.47    0.78
   7   2   3    3.03    0.61
  -7  -2  -3    2.47    0.45
   7   2   3    2.69    0.79
  -7  -2  -3    3.50    0.71
   7   2   4    5.59    0.85
   7   2   4    5.01    0.90
  -7  -2  -4    7.07    0.91
   7   2   5    0.12    0.70
   7   2   5    1.11    0.63
   7   2   5    0.37    0.13
   7   2   5    1.10    0.58
   7   2   5   -0.11    0.71
  -7  -2  -5    0.36    0.74
   7   2   6   -0.08    0.66
  -7  -2  -6    0.39    0.53
   7   2   6    0.62    0.64
   7   2   6    0.09    0.23
   7   2   6   -0.63    0.79
   7   2   7    7.67    0.96
   7   2   7    8.77    1.04
   7   2   7    6.97    0.50
   7   2   7    7.60    0.78
  -7  -2  -7    8.26    1.27
   7   2   8    0.15    0.89
   7   2   8   -0.24    0.83
   7   2   8    0.97    0.37
   7   2   8    0.53    0.54
  -7  -2  -8    0.15    1.02
   7   2   9    0.36    0.90
   7   2   9    0.82    0.90
   7   2   9    0.99    0.47
   7   2   9    1.25    0.53
  -7  -2  -9    3.09    1.29
   7   2  10    3.51    1.09
   7   2  10    3.75    0.62
  -7  -2 -10    5.21    1.46
  -7  -2 -11   -1.70    1.57
  -7  -3   7   26.98    1.99
  -7  -3   7   24.33    1.76
  -7  -3   7   27.90    2.02
   7   3  -7   26.21    1.89
   7   3  -6    1.16    0.91
  -7  -3   6    1.64    0.91
  -7  -3   6    3.27    1.01
  -7  -3   6    1.99    0.91
  -7  -3   6    2.38    1.00
   7   3  -5    0.77    0.75
  -7  -3   5    0.58    0.79
  -7  -3   5   -0.77    0.69
  -7  -3   5    0.79    0.82
  -7  -3   4   20.27    1.46
  -7  -3   4   20.28    1.53
  -7  -3   4   18.17    1.28
   7   3  -4   19.65    1.37
   7   3  -3   23.43    1.48
  -7  -3   3   22.99    1.55
  -7  -3   3   21.10    1.52
  -7  -3   2    4.22    0.82
  -7  -3   2    3.81    0.83
   7   3  -2    4.15    0.82
  -7  -3   1   -0.07    0.63
   7   3  -1    0.88    0.41
   7   3  -1    0.25    0.63
  -7  -3   0    0.66    0.65
   7   3   0    1.35    0.60
   7   3   0    0.05    0.68
   7   3   1  684.41   25.25
   7   3   1  616.20   25.35
  -7  -3  -1  665.27   25.20
   7   3   2  312.83   12.35
   7   3   2  326.12   12.56
  -7  -3  -2  310.81   12.35
   7   3   3    8.28    0.91
   7   3   3    8.92    1.02
   7   3   4    9.10    0.91
  -7  -3  -4    6.22    0.54
  -7  -3  -4    9.50    0.84
   7   3   4    8.73    1.08
   7   3   5   48.37    2.50
  -7  -3  -5   58.64    2.54
   7   3   5   49.06    2.70
   7   3   6    1.15    0.65
  -7  -3  -6    0.55    0.65
   7   3   6    1.18    0.85
  -7  -3  -6    0.76    0.81
   7   3   7    4.70    0.85
   7   3   7    4.64    0.85
   7   3   7    2.12    0.75
   7   3   7    2.56    0.93
  -7  -3  -7    4.17    0.94
  -7  -3  -7    5.54    1.17
   7   3   8    8.66    1.03
   7   3   8    9.68    1.09
   7   3   8    9.86    0.97
  -7  -3  -8    6.53    1.13
  -7  -3  -8    9.06    1.44
   7   3   9    2.53    0.95
   7   3   9    1.44    0.83
   7   3   9    1.89    0.71
  -7  -3  -9    0.86    1.18
   7   3  10    3.01    1.04
   7   3  10    2.08    0.68
  -7  -3 -10    2.59    1.36
   7   3  11    0.42    0.69
  -7  -3 -11   -2.04    1.58
  -7  -4   6   -0.07    0.99
  -7  -4   6    0.96    0.98
  -7  -4   6   -0.15    0.93
  -7  -4   6    0.54    1.00
   7   4  -5    3.91    0.85
  -7  -4   5    5.80    1.04
  -7  -4   5    5.33    1.07
  -7  -4   5    3.63    0.99
  -7  -4   5    4.07    0.93
  -7  -4   4    7.35    1.10
  -7  -4   4    8.60    1.12
  -7  -4   4    8.83    1.14
   7   4  -4    8.22    0.99
  -7  -4   3   32.97    1.94
  -7  -4   3   33.87    2.00
  -7  -4   2    4.12    0.90
  -7  -4   2    5.22    0.97
  -7  -4   2    5.90    0.93
   7   4  -2    6.81    0.97
  -7  -4   1    2.75    0.76
   7   4  -1    1.95    0.73
  -7  -4   0    1.85    0.65
  -7  -4   0    0.55    0.71
   7   4   0    1.98    0.73
  -7  -4  -1   10.40    1.07
   7   4   1    9.11    1.06
  -7  -4  -1   10.81    0.92
  -7  -4  -2  302.66   11.86
   7   4   2  309.94   11.42
   7   4   2  273.98   11.87
  -7  -4  -2  287.31   11.70
  -7  -4  -3   -1.36    0.81
   7   4   3   -1.34    0.83
  -7  -4  -3    1.04    0.73
   7   4   3   -0.16    0.28
   7   4   3   -0.05    0.72
  -7  -4  -4    1.09    0.68
   7   4   4    1.87    0.79
  -7  -4  -4    1.34    0.68
   7   4   5   30.16    1.61
  -7  -4  -5   25.89    1.64
   7   4   5   23.00    1.72
  -7  -4  -5   26.60    1.69
   7   4   6    2.35    0.74
  -7  -4  -6    2.93    0.77
   7   4   6    3.13    0.90
  -7  -4  -6    3.87    0.89
  -7  -4  -6    3.57    1.08
   7   4   7   16.56    1.52
  -7  -4  -7   19.59    1.68
  -7  -4  -7   19.10    1.53
   7   4   8    3.94    0.85
   7   4   8    3.62    0.84
  -7  -4  -8    6.36    1.02
   7   4   8    2.99    0.85
  -7  -4  -8    2.34    0.99
  -7  -4  -8    3.68    1.26
  -7  -4  -8    6.33    0.99
   7   4   9    0.80    0.82
   7   4   9    0.30    0.75
  -7  -4  -9   -1.08    1.30
   7   4  10    9.94    1.08
  -7  -4 -10   11.89    1.73
   7   4  11    3.49    0.85
  -7  -5   6    1.78    1.08
  -7  -5   5    2.71    1.11
  -7  -5   5    6.90    1.25
  -7  -5   5    6.03    0.97
  -7  -5   5    7.04    1.29
  -7  -5   4    0.31    0.85
  -7  -5   4    0.94    0.99
  -7  -5   4   -0.11    0.88
  -7  -5   3    2.57    0.98
  -7  -5   3    1.01    0.86
  -7  -5   3    0.71    0.86
  -7  -5   2   12.05    1.19
  -7  -5   2   12.55    1.34
   7   5  -2   13.97    1.16
  -7  -5   2   11.95    1.35
  -7  -5   2   12.53    1.29
   7   5  -2   12.19    1.24
  -7  -5   1   10.25    1.18
  -7  -5   1    7.53    1.18
  -7  -5   1    8.60    1.11
   7   5  -1    8.16    0.97
   7   5  -1   11.55    1.11
  -7  -5   1   10.14    1.00
  -7  -5   0    3.86    0.72
  -7  -5   0    4.22    0.95
   7   5   0    3.90    0.77
   7   5   0    4.11    0.88
  -7  -5  -1   81.54    3.51
   7   5   1   63.01    3.31
  -7  -5  -1   71.24    3.14
  -7  -5  -2   11.19    1.23
   7   5   2   14.76    1.19
  -7  -5  -2   12.06    1.00
  -7  -5  -3    7.45    0.87
  -7  -5  -3    9.28    1.08
   7   5   3    7.11    1.00
  -7  -5  -4    3.18    0.84
   7   5   4    3.92    0.88
  -7  -5  -5   14.60    1.28
   7   5   5   13.45    1.27
  -7  -5  -5   13.45    1.22
  -7  -5  -6   64.16    2.77
  -7  -5  -6   44.31    2.01
  -7  -5  -6   56.98    2.70
   7   5   6   49.65    2.66
  -7  -5  -6   56.93    2.93
  -7  -5  -6   63.60    2.72
  -7  -5  -7    0.99    0.87
  -7  -5  -7    1.31    0.85
   7   5   7    1.22    0.86
  -7  -5  -7    1.74    0.81
  -7  -5  -7    1.45    1.07
  -7  -5  -8    0.05    0.84
   7   5   8    0.41    0.87
  -7  -5  -8    0.65    0.91
  -7  -5  -8    0.17    0.85
  -7  -5  -8   -0.76    1.22
   7   5   9    0.94    0.77
   7   5   9    1.14    0.92
  -7  -5  -9    0.73    1.21
   7   5  10    1.58    0.93
  -7  -5 -10    0.10    1.37
   7   5  11    1.33    0.95
  -7  -6   5   -0.07    1.22
  -7  -6   4    1.24    1.06
  -7  -6   4    1.07    1.15
  -7  -6   4    1.01    0.76
  -7  -6   3    2.83    1.15
  -7  -6   3    2.11    1.09
  -7  -6   2   14.58    1.49
   7   6  -2   12.56    1.33
  -7  -6   2   16.47    1.50
  -7  -6   1    3.78    0.89
  -7  -6   1    5.14    1.07
  -7  -6   1    6.71    1.17
   7   6  -1    4.17    0.91
   7   6   0    9.52    1.02
  -7  -6   0    6.02    0.83
  -7  -6   0    6.97    1.18
   7   6   0    9.34    0.71
   7   6   0    8.28    1.04
  -7  -6   0   10.24    1.22
  -7  -6  -1    4.83    0.69
  -7  -6  -1    5.25    1.07
   7   6   1    4.74    0.96
  -7  -6  -1    3.95    0.96
   7   6   1    3.22    0.54
   7   6   1    5.24    0.87
  -7  -6  -2   12.78    1.32
   7   6   2   15.16    1.22
  -7  -6  -2   12.49    1.33
  -7  -6  -2   11.86    1.29
   7   6   2   10.64    0.84
   7   6   2   13.48    1.19
  -7  -6  -2   14.55    1.00
   7   6   3    5.82    0.95
  -7  -6  -3    7.18    1.11
   7   6   3    5.27    0.64
  -7  -6  -3    7.21    1.08
  -7  -6  -3    7.89    1.08
   7   6   3    7.72    1.00
  -7  -6  -3    7.03    0.75
  -7  -6  -4    3.09    0.93
  -7  -6  -4    2.70    0.97
  -7  -6  -4    3.98    0.97
   7   6   4    2.44    0.84
  -7  -6  -5    1.40    0.90
  -7  -6  -5    1.28    0.89
   7   6   5    0.66    0.80
  -7  -6  -5    1.98    1.01
  -7  -6  -6   21.61    1.63
   7   6   6   17.61    1.47
  -7  -6  -6   19.84    1.44
  -7  -6  -6   20.14    1.59
  -7  -6  -7    2.36    1.02
  -7  -6  -7    0.99    0.43
  -7  -6  -7    2.97    1.01
   7   6   7    2.94    0.97
  -7  -6  -7    3.29    0.84
  -7  -6  -7    1.94    1.17
  -7  -6  -8    2.03    0.52
  -7  -6  -8    2.32    1.03
   7   6   8    1.67    0.98
  -7  -6  -8    2.18    1.05
  -7  -6  -8    3.63    0.90
  -7  -6  -8    3.28    1.27
   7   6   9    0.56    0.73
   7   6   9    0.63    0.98
  -7  -6  -9    0.66    1.27
   7   6  10    7.82    1.20
  -7  -6 -10   10.69    1.74
   7   6  11    1.65    1.06
   7   6  12   -0.48    1.02
  -7  -7   5   -0.60    1.39
  -7  -7   4    9.29    1.53
  -7  -7   3   -0.07    1.20
  -7  -7   2    2.38    1.19
   7   7  -2    2.31    0.98
  -7  -7   1   11.37    1.49
   7   7  -1   13.21    1.27
  -7  -7   0   17.11    1.67
   7   7   0   17.05    1.09
   7   7   0   18.43    1.44
  -7  -7   0   16.24    1.15
   7   7   1    9.41    0.82
   7   7   1    8.37    1.06
  -7  -7  -1   10.51    0.90
  -7  -7  -2   -0.03    0.56
  -7  -7  -2   -0.40    0.95
   7   7   2    0.54    0.50
   7   7   2    1.06    0.72
  -7  -7  -3    4.21    0.66
  -7  -7  -3    4.00    1.09
   7   7   3    4.37    0.65
   7   7   3    4.74    0.92
  -7  -7  -3    3.49    1.03
  -7  -7  -4    0.09    0.55
  -7  -7  -4   -0.94    0.96
   7   7   4    0.38    0.74
  -7  -7  -4    0.52    0.89
   7   7   5    1.42    0.79
  -7  -7  -5    2.22    1.06
  -7  -7  -5    0.69    0.98
  -7  -7  -6    0.89    1.03
   7   7   6    0.84    0.83
  -7  -7  -6    1.54    1.12
  -7  -7  -7    2.06    1.11
  -7  -7  -7    4.42    0.88
  -7  -7  -7    2.59    1.24
  -7  -7  -8    1.63    1.12
  -7  -7  -8    3.05    0.86
   7   7   9    0.07    1.08
  -7  -7  -9    0.09    1.29
  -7  -7  -9    0.33    0.87
   7   7  10    4.90    1.20
   7   7  11    8.05    1.37
  -7  -8   4    2.78    1.49
  -7  -8   3    2.79    1.43
   7   8  -2    7.23    1.19
  -7  -8   2    4.61    1.50
  -7  -8   1    3.44    1.37
   7   8  -1    3.28    0.95
  -7  -8   0   14.91    1.71
   7   8   0   18.18    1.22
   7   8   0   19.21    1.48
   7   8   1    1.24    0.64
   7   8   1    1.13    0.82
  -7  -8  -1    1.76    0.94
  -7  -8  -2   -0.08    1.11
   7   8   2    0.44    0.60
  -7  -8  -2    0.17    0.90
  -7  -8  -3   18.31    1.75
   7   8   3   18.01    1.22
  -7  -8  -3   14.90    1.49
  -7  -8  -4   -0.03    0.57
  -7  -8  -4    0.60    1.04
  -7  -8  -4    1.62    1.03
  -7  -8  -5    0.67    0.63
  -7  -8  -5   -0.30    1.08
  -7  -8  -5    1.11    1.09
  -7  -8  -6   -1.49    1.17
  -7  -8  -6   -0.24    1.16
  -7  -8  -7    0.90    1.15
  -7  -8  -7    0.85    1.21
  -7  -8  -8    0.65    1.27
  -7  -8  -8   -0.08    1.19
   7   8   9   -0.22    1.20
  -7  -8  -9    0.76    1.26
   7   8  10    1.34    1.20
  -7  -9   2    5.25    1.59
  -7  -9   1   17.35    2.00
   7   9   0   12.98    1.10
  -7  -9   0   10.06    1.72
  -7  -9   0    9.75    1.19
   7   9   1   13.01    1.11
  -7  -9  -1    8.50    1.60
  -7  -9  -1   10.37    1.25
  -7  -9  -2   14.90    1.77
   7   9   2   16.68    1.20
  -7  -9  -2   12.20    1.40
  -7  -9  -3   -0.58    1.23
   7   9   3    0.21    0.73
  -7  -9  -3    0.45    0.98
  -7  -9  -4    0.49    1.24
  -7  -9  -4    1.27    1.12
  -7  -9  -5    0.23    1.17
  -7  -9  -5    0.16    1.20
  -7  -9  -6   -0.49    1.17
  -7  -9  -6   -0.16    1.25
  -7  -9  -7    9.91    1.57
  -7  -9  -7    8.08    1.56
  -7  -9  -8    2.14    1.33
  -7  -9  -8    1.29    1.40
   7  10   0    3.32    0.88
   7  10   1    0.79    0.84
   7  10   2    3.91    0.91
  -7 -10  -2    2.98    1.08
   7  10   3    2.25    0.88
  -7 -10  -3    1.59    1.12
  -7 -10  -4    2.52    1.18
  -7 -10  -5    1.12    1.22
  -7 -10  -6   -0.97    1.35
  -7 -10  -7   20.19    2.08
   7  11   3    1.90    0.93
   7  11   4   -0.27    0.98
  -7 -11  -5   -0.14    1.30
  -7 -11  -6    8.53    1.66
   8  -8  -2    1.10    0.86
  -8   8   1    1.14    1.22
  -8   8   0    0.82    1.01
   8  -7  -5    1.18    0.89
   8  -7  -4   42.73    2.39
   8  -7  -3   23.01    1.66
   8  -7  -3   18.23    1.53
   8  -7  -2    2.15    1.05
   8  -7  -2    2.20    0.90
   8  -7  -1    1.77    1.07
   8  -7  -1    1.56    0.85
   8  -7   0    1.28    1.16
   8  -7   0    1.58    0.94
  -8   7  -1    8.71    1.30
   8  -7   1    7.82    1.43
  -8   7  -2   10.07    1.42
   8  -7   2    9.55    1.63
  -8   7  -3   -1.57    1.13
  -8   7  -3    0.45    0.90
   8  -7   3    1.13    1.33
   8  -6  -7    3.81    1.06
   8  -6  -6    7.15    1.30
   8  -6  -6    6.63    1.09
   8  -6  -5   21.35    1.43
   8  -6  -5   22.51    1.63
   8  -6  -4   13.98    1.26
   8  -6  -4   12.25    1.31
   8  -6  -3   13.93    1.31
   8  -6  -3   14.02    1.32
   8  -6  -2    2.01    0.92
   8  -6  -2    1.21    0.84
   8  -6  -1    1.27    0.98
  -8   6   1    1.07    0.94
   8  -6  -1   -0.67    0.84
   8  -6   0   12.88    1.39
   8  -6   0    9.26    1.16
  -8   6   0   11.50    1.24
  -8   6  -1   -0.41    0.84
   8  -6   1    0.13    1.06
   8  -6   1    1.37    0.90
  -8   6  -2    0.07    0.87
   8  -6   2   -0.78    1.18
  -8   6  -3    1.95    1.04
  -8   6  -4    7.63    1.27
   8  -6   4   10.24    1.60
   8  -5  -9    2.36    1.05
   8  -5  -8    1.27    0.99
   8  -5  -7    6.09    1.10
   8  -5  -6   -0.07    1.03
   8  -5  -6    0.62    0.85
   8  -5  -5    0.06    0.92
   8  -5  -5    0.46    0.70
   8  -5  -5   -0.34    0.85
   8  -5  -4   15.67    1.27
   8  -5  -4   12.68    1.28
   8  -5  -4   16.56    1.37
   8  -5  -3    4.83    0.92
   8  -5  -3    2.73    0.87
   8  -5  -3    4.18    0.96
  -8   5   2    2.28    0.93
   8  -5  -2    2.81    0.87
  -8   5   2    3.69    0.98
   8  -5  -2    2.74    0.93
  -8   5   1    1.90    0.87
  -8   5   1    1.62    0.95
   8  -5  -1   -0.32    0.84
   8  -5  -1    1.58    0.86
  -8   5   0    3.58    0.97
  -8   5   0    1.82    0.98
   8  -5   0    1.25    0.96
   8  -5   0    1.73    0.86
   8  -5   1   27.19    1.86
  -8   5  -1   22.23    1.79
   8  -5   1   24.84    1.77
  -8   5  -1   25.28    1.63
  -8   5  -1   22.37    1.65
  -8   5  -2    9.45    1.16
  -8   5  -2   11.92    1.29
  -8   5  -2   10.68    1.36
   8  -5   2   11.08    1.41
   8  -5   2   11.53    1.30
  -8   5  -2   10.92    1.18
  -8   5  -3   10.72    1.30
  -8   5  -3    9.81    1.24
  -8   5  -4   11.67    1.37
   8  -5   4   10.24    1.53
   8  -5   5    3.19    1.31
  -8   5  -6    7.23    1.31
   8  -5   6    6.69    1.54
   8  -4  -8   14.38    1.48
   8  -4  -7    9.40    1.32
   8  -4  -7   11.40    1.31
   8  -4  -6    3.90    1.10
   8  -4  -6    5.03    0.73
   8  -4  -6    4.24    1.01
   8  -4  -5    0.56    0.64
   8  -4  -5    1.25    0.86
   8  -4  -4    1.29    0.88
   8  -4  -4    0.83    0.70
   8  -4  -4    2.83    0.85
   8  -4  -4    2.11    0.87
   8  -4  -3    0.54    0.85
   8  -4  -3    0.12    0.68
   8  -4  -3    0.98    0.70
   8  -4  -3    0.60    0.78
  -8   4   2    2.14    0.86
  -8   4   2    2.55    0.81
   8  -4  -2    2.71    0.79
   8  -4  -2    1.51    0.67
   8  -4  -2    2.58    0.88
  -8   4   1   -0.05    0.79
  -8   4   1    0.11    0.76
   8  -4  -1   -0.05    0.73
   8  -4  -1   -0.09    0.59
   8  -4  -1   -0.41    0.78
  -8   4   0   -0.60    0.81
  -8   4   0    0.06    0.86
   8  -4   0    0.41    0.79
   8  -4   0   -0.12    0.81
  -8   4  -1    9.08    1.18
   8  -4   1    9.66    1.21
  -8   4  -1   11.01    1.11
   8  -4   1    9.67    1.18
  -8   4  -1    9.45    1.09
  -8   4  -2   28.50    1.90
   8  -4   2   26.10    1.86
  -8   4  -2   26.98    1.78
  -8   4  -2   28.26    1.76
  -8   4  -3    6.60    1.07
  -8   4  -3    7.43    1.12
   8  -4   3    5.45    1.19
   8  -4   3    8.11    1.21
  -8   4  -3    6.14    1.03
   8  -4   4    3.87    1.13
  -8   4  -4    5.48    1.09
   8  -4   5   19.26    1.82
  -8   4  -6    2.05    1.04
   8  -4   6    0.42    1.24
  -8   4  -7    0.71    1.08
   8  -4   7   -0.61    1.36
  -8   4  -8    3.25    1.20
   8  -3  -8    2.09    0.99
   8  -3  -7    1.59    1.02
   8  -3  -7    2.58    0.99
   8  -3  -6    0.12    0.90
   8  -3  -6    0.88    0.57
   8  -3  -6    0.71    0.86
   8  -3  -5    3.09    0.95
   8  -3  -5    3.79    0.98
   8  -3  -5    2.54    0.63
   8  -3  -5    2.98    0.62
   8  -3  -5    3.79    0.90
   8  -3  -5    3.49    0.92
   8  -3  -4    0.41    0.79
   8  -3  -4    0.45    0.81
   8  -3  -4    0.12    0.59
   8  -3  -4    0.47    0.60
   8  -3  -4    1.02    0.73
   8  -3  -4   -0.39    0.76
   8  -3  -3    8.52    1.13
   8  -3  -3    9.38    0.91
   8  -3  -3    8.73    0.90
   8  -3  -3    9.98    0.96
   8  -3  -3    8.46    1.12
  -8   3   3   10.80    1.19
  -8   3   2    2.22    0.86
   8  -3  -2   -0.56    0.69
   8  -3  -2   -1.11    0.73
   8  -3  -2    0.92    0.62
   8  -3  -2    0.28    0.77
  -8   3   1    7.37    1.01
   8  -3  -1    7.01    1.11
   8  -3  -1    6.27    0.86
  -8   3   1    6.63    0.97
   8  -3  -1    4.69    0.84
   8  -3  -1    7.90    0.75
   8  -3  -1    6.45    1.07
  -8   3   0   -0.24    0.74
   8  -3   0   -0.29    0.74
  -8   3   0   -0.95    0.80
   8  -3   0    0.83    0.74
   8  -3   0    1.20    0.87
  -8   3  -1    1.45    0.79
   8  -3   1   -0.04    0.77
  -8   3  -1    0.05    0.81
   8  -3   1    1.37    0.78
   8  -3   1    0.99    0.46
   8  -3   1    1.62    0.85
  -8   3  -1    1.41    0.74
  -8   3  -2    2.39    0.81
  -8   3  -2    1.32    0.82
   8  -3   2    4.14    0.98
  -8   3  -2    2.64    0.82
  -8   3  -3    1.60    0.81
   8  -3   3    2.24    0.88
   8  -3   3    0.51    0.82
  -8   3  -3    1.19    0.80
   8  -3   4   -0.13    0.92
   8  -3   4    1.23    0.99
  -8   3  -4    1.43    0.89
  -8   3  -5    1.73    0.88
   8  -3   5    1.90    1.05
   8  -3   5    0.48    0.21
   8  -3   5    0.29    0.19
   8  -3   6    4.56    0.43
  -8   3  -6    6.43    1.08
   8  -3   6    3.96    1.28
  -8   3  -7   24.06    1.78
   8  -3   7   19.13    1.02
   8  -3   7   20.44    1.96
  -8   3  -8    6.80    1.27
   8  -3   8    8.47    1.64
  -8   3  -9    9.73    1.43
  -8   2   8   -0.87    0.99
  -8   2   7   15.89    1.41
   8  -2  -7   14.48    1.52
   8  -2  -6    2.47    0.92
   8  -2  -6    4.98    0.67
   8  -2  -6    3.97    0.63
  -8   2   6    2.65    0.87
   8  -2  -6    6.11    1.08
   8  -2  -5   -0.06    0.80
   8  -2  -5    1.05    0.82
   8  -2  -5    0.67    0.53
   8  -2  -5    0.51    0.87
  -8   2   5    0.13    0.72
   8  -2  -5    0.62    0.50
   8  -2  -5    0.59    0.82
   8  -2  -4    5.77    1.02
   8  -2  -4    6.14    0.96
   8  -2  -4    6.33    0.74
   8  -2  -4    7.48    0.76
   8  -2  -4    6.58    1.07
  -8   2   4    7.34    0.89
   8  -2  -4    5.98    0.91
   8  -2  -4    6.51    1.02
  -8   2   3    3.50    0.95
   8  -2  -3    1.41    0.83
   8  -2  -3    0.66    0.63
  -8   2   3    1.74    0.70
   8  -2  -3    0.54    0.62
   8  -2  -3    1.30    0.70
   8  -2  -3    2.32    0.86
   8  -2  -2   22.32    1.35
   8  -2  -2   22.11    1.36
   8  -2  -2   20.07    1.30
   8  -2  -2   25.10    1.72
  -8   2   2   23.72    1.59
  -8   2   2   22.74    1.32
   8  -2  -1   17.46    1.49
   8  -2  -1   20.15    1.32
   8  -2  -1   23.27    1.36
  -8   2   1   24.74    1.44
   8  -2  -1   18.68    1.17
   8  -2  -1   21.75    1.56
  -8   2   1   22.91    1.55
  -8   2   0    0.69    0.73
   8  -2   0    0.11    0.76
   8  -2   0    0.55    0.67
  -8   2   0    1.33    0.67
   8  -2   0    0.04    0.68
   8  -2   0    0.48    0.39
   8  -2   0    1.79    0.91
  -8   2  -1   -0.28    0.74
   8  -2   1   -1.27    0.83
   8  -2   1   -1.16    0.77
  -8   2  -1   -0.62    0.78
   8  -2   1   -0.38    0.42
   8  -2   1    0.18    0.30
  -8   2  -2    7.42    0.96
   8  -2   2    6.05    0.48
  -8   2  -2    8.04    0.96
   8  -2   2    8.33    0.55
  -8   2  -2    9.39    1.01
  -8   2  -3    8.29    1.04
   8  -2   3    8.36    0.50
   8  -2   3    6.75    1.04
   8  -2   3    6.12    0.99
  -8   2  -3    7.11    1.03
   8  -2   4   -0.57    0.82
   8  -2   4    0.36    0.33
   8  -2   4   -0.33    0.84
  -8   2  -4    0.58    0.83
   8  -2   5   14.44    1.39
  -8   2  -5   13.69    1.39
   8  -2   5   12.76    0.79
   8  -2   6    2.31    1.10
  -8   2  -7    4.29    1.01
   8  -2   7    3.90    1.26
   8  -2   7    3.54    0.60
  -8   2  -8    1.55    0.97
   8  -2   8    0.88    1.24
   8  -2   8    0.32    0.58
  -8   2  -9    1.52    1.04
   8  -2   9    1.87    1.45
  -8   2 -10    4.52    1.17
  -8   1   8    4.23    1.15
   8  -1  -7    7.18    1.26
   8  -1  -7    7.57    0.72
  -8   1   7    8.09    1.22
   8  -1  -6   -0.18    0.85
   8  -1  -6    1.17    0.51
  -8   1   6    0.32    0.83
   8  -1  -6    1.09    0.49
   8  -1  -5    0.97    0.80
   8  -1  -5    0.69    0.49
   8  -1  -5    0.93    0.87
  -8   1   5    0.14    0.80
   8  -1  -5    0.07    0.47
   8  -1  -5    0.79    0.82
   8  -1  -4    5.69    1.00
  -8   1   4    4.83    1.04
   8  -1  -4    5.62    0.66
   8  -1  -4    5.80    0.96
  -8   1   4    5.13    0.84
   8  -1  -4    4.03    0.63
   8  -1  -4    4.50    0.78
   8  -1  -4    5.81    1.04
  -8   1   3   94.57    4.11
   8  -1  -3   98.09    3.98
   8  -1  -3  103.63    4.30
   8  -1  -3   88.74    3.97
   8  -1  -3   81.68    3.92
   8  -1  -3  100.78    4.07
  -8   1   3  114.84    4.39
  -8   1   2    5.39    0.91
   8  -1  -2    5.98    0.97
   8  -1  -2    5.13    0.70
  -8   1   2    3.19    0.71
   8  -1  -2    4.13    0.63
   8  -1  -2    4.31    0.72
   8  -1  -2    5.07    0.67
  -8   1   1    5.19    0.91
   8  -1  -1    6.99    0.99
   8  -1  -1    6.66    0.78
   8  -1  -1    5.91    0.64
   8  -1  -1    6.13    0.74
   8  -1  -1    6.69    0.70
   8  -1   0   15.14    1.29
   8  -1   0   17.11    1.11
   8  -1   0   14.22    1.09
  -8   1   0   12.38    1.08
   8  -1   0   14.95    0.92
  -8   1   0   14.36    1.22
   8  -1   1   24.49    1.64
   8  -1   1   23.78    1.42
  -8   1  -1   19.95    1.43
   8  -1   1   22.26    1.67
  -8   1  -1   23.75    1.55
   8  -1   2    9.45    0.64
   8  -1   2   10.12    1.21
   8  -1   2    8.69    0.99
  -8   1  -2    6.70    0.94
   8  -1   2    9.76    0.62
  -8   1  -2    9.33    1.07
   8  -1   2    8.41    1.17
  -8   1  -2    8.68    1.02
   8  -1   3    0.64    0.77
  -8   1  -3    0.34    0.65
   8  -1   3   -0.43    0.43
   8  -1   3   -0.32    0.72
   8  -1   3    0.43    0.28
   8  -1   3   -0.64    0.80
  -8   1  -3    0.84    0.77
   8  -1   4    5.19    0.96
   8  -1   4    5.00    0.88
   8  -1   4    5.21    1.03
  -8   1  -4    3.96    0.89
   8  -1   5   -0.15    0.81
   8  -1   5    0.05    0.82
   8  -1   5    0.71    0.89
  -8   1  -5   -0.61    0.89
   8  -1   6    0.96    0.88
   8  -1   7   -0.40    1.06
   8  -1   8    0.89    1.18
  -8   1  -8    1.04    1.10
   8  -1   9    3.33    1.34
   8  -1  10    1.00    0.84
  -8   0   7    9.30    1.35
   8   0  -7   13.20    1.42
   8   0  -6    2.39    0.97
  -8   0   6    2.61    0.98
   8   0  -5    1.33    0.85
  -8   0   5    0.95    0.77
   8   0  -4    1.09    0.85
   8   0  -4   -0.79    0.83
  -8   0   4    1.17    0.74
   8   0  -4    1.26    0.70
   8   0  -4    0.90    0.69
   8   0  -3    0.64    0.70
  -8   0   3    0.44    0.65
   8   0  -3    1.05    0.64
   8   0  -3    0.23    0.78
   8   0  -2   61.01    2.84
   8   0  -2   68.31    3.23
  -8   0   2   68.05    3.00
   8   0  -1   46.22    2.25
   8   0  -1   38.99    1.87
   8   0  -1   42.71    2.31
  -8   0   1   36.50    2.14
  -8   0   0    1.34    0.74
   8   0   0    2.73    0.79
   8   0   0    1.55    0.54
   8   0   0    1.27    0.81
   8   0   1  235.56    8.87
  -8   0  -1  199.30    8.52
   8   0   1  233.06    9.00
  -8   0  -1  214.06    8.74
  -8   0  -2   -0.62    0.76
   8   0   2    0.36    0.87
   8   0   2    0.86    0.64
  -8   0  -2   -0.77    0.73
   8   0   2    0.48    0.59
   8   0   2    1.59    0.84
  -8   0  -2    2.88    0.80
   8   0   3   -1.96    1.00
   8   0   3    0.84    0.67
  -8   0  -3   -0.28    0.66
   8   0   3    0.34    0.64
   8   0   3   -0.45    0.86
  -8   0  -3    0.98    0.75
   8   0   4    0.30    0.68
   8   0   4    1.46    0.76
   8   0   4    1.82    0.85
  -8   0  -4    0.05    0.74
   8   0   5    0.70    0.83
   8   0   5    0.40    0.73
   8   0   5    0.18    0.33
   8   0   5    1.00    0.86
  -8   0  -5    0.24    0.86
   8   0   6    0.53    0.85
   8   0   6    0.90    0.84
   8   0   6    0.08    0.90
  -8   0  -6   -0.44    0.88
   8   0   7   -0.42    0.94
   8   0   8    0.13    1.08
  -8   0  -8    2.14    1.13
   8   0   9   -0.29    1.18
  -8   0  -9    0.84    1.28
   8   0  10    0.63    1.25
   8   1  -7   10.18    1.34
  -8  -1   7   11.18    1.38
   8   1  -6    3.11    1.01
  -8  -1   6    4.09    0.99
   8   1  -5    0.22    0.77
  -8  -1   5    0.21    0.80
   8   1  -4    2.30    0.86
  -8  -1   4    3.11    0.98
  -8  -1   4    1.42    0.76
   8   1  -4    2.34    0.74
   8   1  -4    2.77    0.90
  -8  -1   3   18.85    1.41
   8   1  -3   23.04    1.38
   8   1  -3   24.51    1.66
  -8  -1   3   23.44    1.60
  -8  -1   2    0.80    0.76
  -8  -1   2   -0.13    0.68
   8   1  -2    0.88    0.61
   8   1  -2    0.69    0.59
   8   1  -2    0.58    0.75
   8   1  -1    0.50    0.55
   8   1  -1    1.40    0.79
   8   1   0   -0.70    0.53
   8   1   0    0.57    0.73
   8   1   1   36.55    1.89
   8   1   1   46.89    2.27
   8   1   1   42.58    2.33
   8   1   2  287.92   11.51
   8   1   2  309.05   11.80
   8   1   2  294.95   11.92
   8   1   3    8.91    0.83
   8   1   3    9.67    1.14
   8   1   3   10.42    0.95
   8   1   3   10.98    0.95
  -8  -1  -3    9.50    1.05
   8   1   3    8.94    1.20
   8   1   4   -1.22    0.85
   8   1   4   -0.63    0.65
   8   1   4    0.37    0.62
   8   1   4   -1.41    0.84
  -8  -1  -4    0.05    0.72
   8   1   5   46.44    2.40
   8   1   5   49.07    2.45
   8   1   5   43.87    2.60
  -8  -1  -5   47.92    2.56
   8   1   6    0.87    0.81
   8   1   6    0.26    0.79
   8   1   6    0.97    0.47
   8   1   6   -0.07    0.92
  -8  -1  -6    0.68    0.88
   8   1   7    0.11    0.85
   8   1   7    0.65    0.40
   8   1   8    0.48    0.94
   8   1   8    1.00    0.37
  -8  -1  -8    0.86    1.10
   8   1   9    0.53    1.09
  -8  -1  -9    1.47    1.30
   8   1  10   -0.87    1.20
  -8  -1 -10   -0.19    1.40
   8   2  -7    1.76    1.08
   8   2  -6   -0.11    0.91
  -8  -2   6    1.90    0.98
   8   2  -5   -0.48    0.87
  -8  -2   5    0.40    0.86
   8   2  -4    0.68    0.78
  -8  -2   4    0.44    0.93
  -8  -2   4    1.54    0.75
   8   2  -4    2.15    0.77
   8   2  -3   45.51    2.21
   8   2  -3   40.44    2.41
  -8  -2   3   46.92    2.43
  -8  -2   3   40.23    2.33
   8   2  -2   25.75    1.47
   8   2  -2   24.78    1.70
  -8  -2   2   24.30    1.65
  -8  -2   2   22.19    1.57
  -8  -2   1    1.04    0.70
   8   2  -1    1.33    0.60
   8   2  -1    1.67    0.72
  -8  -2   0    2.37    0.73
   8   2   0    2.96    0.62
   8   2   0    1.97    0.76
  -8  -2  -1    2.41    0.73
   8   2   1    0.93    0.59
   8   2   1    0.17    0.74
   8   2   2  458.51   16.42
   8   2   2  419.51   16.55
   8   2   2  396.45   16.72
  -8  -2  -2  407.25   16.48
   8   2   3   94.98    3.68
   8   2   3  111.43    3.97
   8   2   3   94.38    4.08
  -8  -2  -3   99.44    3.93
  -8  -2  -3   91.53    3.84
   8   2   4    4.39    0.88
   8   2   4    1.02    0.68
  -8  -2  -4    1.18    0.52
   8   2   4    2.61    0.94
  -8  -2  -4    4.05    0.86
   8   2   5   15.42    1.31
   8   2   5   13.42    1.16
   8   2   5   15.53    1.20
   8   2   5   14.15    1.35
  -8  -2  -5   13.16    1.29
   8   2   6   16.81    1.30
   8   2   6   19.41    1.39
   8   2   6   15.10    1.46
   8   2   7    8.29    1.10
   8   2   7    9.74    1.16
   8   2   7   10.66    0.87
   8   2   7    9.53    1.31
  -8  -2  -7    9.47    1.42
   8   2   8    4.53    1.06
   8   2   8    3.24    0.44
   8   2   8    5.09    0.67
  -8  -2  -8    4.50    1.27
   8   2   9    3.67    1.09
   8   2   9    4.54    0.60
  -8  -2  -9    3.54    1.38
   8   2  10    8.41    1.37
  -8  -2 -10    9.74    1.70
   8   3  -6    5.20    1.12
  -8  -3   6    6.33    1.19
   8   3  -5   -0.44    0.90
  -8  -3   5    0.30    0.88
  -8  -3   5    0.68    0.94
   8   3  -4    5.69    0.98
  -8  -3   4    6.33    1.13
  -8  -3   4    5.85    1.05
  -8  -3   3    3.44    0.97
  -8  -3   3    1.92    0.86
   8   3  -3    3.10    0.80
   8   3  -3    2.42    0.85
   8   3  -2   18.02    1.30
   8   3  -2   18.85    1.48
  -8  -3   2   18.85    1.45
  -8  -3   2   16.74    1.38
  -8  -3   1    6.57    0.92
   8   3  -1    7.60    0.84
   8   3  -1    7.13    1.01
  -8  -3   0   -0.62    0.73
   8   3   0   -0.04    0.60
   8   3   0   -0.68    0.75
   8   3   1   47.14    2.44
   8   3   1   49.49    2.64
  -8  -3  -1   55.54    2.53
   8   3   2    9.50    0.97
   8   3   2   11.02    1.21
  -8  -3  -2    8.72    0.99
   8   3   3   15.69    1.18
   8   3   3   18.08    1.31
   8   3   3   14.30    1.38
  -8  -3  -3   18.08    1.30
   8   3   4   19.27    1.33
  -8  -3  -4   13.55    0.84
  -8  -3  -4   17.59    1.22
   8   3   4   18.74    1.53
   8   3   4   18.27    1.25
   8   3   5    0.05    0.72
  -8  -3  -5    0.32    0.73
   8   3   5    0.39    0.81
   8   3   6    1.32    0.80
   8   3   6    2.15    0.75
   8   3   6    2.69    0.77
   8   3   6    0.68    0.14
   8   3   6    0.07    0.85
  -8  -3  -6    1.67    0.85
   8   3   7   17.38    1.34
   8   3   7   15.97    1.31
   8   3   7   13.27    0.70
   8   3   7   15.66    1.22
   8   3   7   14.37    1.51
  -8  -3  -7   18.94    1.72
  -8  -3  -7   18.27    1.52
   8   3   8   18.12    1.50
   8   3   8   17.69    0.89
   8   3   8   19.13    1.28
  -8  -3  -8   14.94    1.77
   8   3   9   -0.73    0.94
   8   3   9    0.67    0.66
  -8  -3  -9    0.55    1.20
   8   3  10    0.92    1.07
   8   3  10    0.82    0.65
  -8  -3 -10    1.58    1.49
  -8  -4   6    2.25    1.16
  -8  -4   5    1.61    1.12
  -8  -4   5    1.44    1.03
  -8  -4   5    0.41    0.98
  -8  -4   5    2.61    1.06
  -8  -4   4    3.04    0.97
  -8  -4   3   -0.36    0.84
   8   4  -3   -0.13    0.79
   8   4  -2   15.04    1.16
   8   4  -2   11.95    1.24
  -8  -4   2   10.91    1.19
   8   4  -1   12.22    1.04
   8   4  -1    9.13    1.16
  -8  -4   1   10.17    1.13
   8   4   0   39.18    2.01
   8   4   0   34.66    2.15
  -8  -4   0   36.86    1.98
  -8  -4  -1    2.59    0.74
  -8  -4  -1    3.76    0.90
   8   4   1    3.27    0.77
   8   4   1    3.85    0.91
   8   4   2   67.75    3.13
  -8  -4  -2   75.20    3.26
   8   4   2   65.00    3.29
  -8  -4  -2   61.76    3.04
   8   4   3   10.17    1.04
  -8  -4  -3   12.53    1.16
   8   4   3   12.87    1.28
  -8  -4  -3    9.49    1.03
   8   4   4    0.70    0.73
   8   4   4   -0.31    0.74
  -8  -4  -4    1.06    0.76
   8   4   4    0.80    0.20
   8   4   4    0.94    0.84
   8   4   5    1.86    0.75
  -8  -4  -5    0.58    0.22
  -8  -4  -5    1.24    0.74
   8   4   5    1.04    0.25
   8   4   5    1.47    0.89
  -8  -4  -5    0.63    0.76
   8   4   6   39.53    2.38
  -8  -4  -6   39.97    2.30
   8   4   7  109.32    4.57
   8   4   7   99.87    4.86
  -8  -4  -7  106.42    5.05
  -8  -4  -7  100.08    4.72
   8   4   8   24.78    1.67
   8   4   8   25.79    1.64
  -8  -4  -8   23.72    2.09
   8   4   9   10.35    1.27
   8   4   9    9.91    1.13
  -8  -4  -9   10.54    1.65
   8   4  10   11.86    1.13
  -8  -4 -10   13.38    1.88
  -8  -5   6   20.13    1.88
  -8  -5   5    0.13    1.18
  -8  -5   4    3.93    1.18
  -8  -5   4    5.32    1.20
  -8  -5   3    0.05    0.92
  -8  -5   3    2.96    1.05
   8   5  -3    2.17    0.95
  -8  -5   2   10.01    1.22
  -8  -5   2   11.48    1.35
   8   5  -2   11.34    1.25
  -8  -5   1    5.95    0.96
   8   5  -1    4.37    0.98
  -8  -5   0    5.72    0.84
   8   5   0    3.93    0.93
  -8  -5  -1    0.61    0.65
  -8  -5  -1   -0.18    0.82
   8   5   1   -0.47    0.82
  -8  -5  -2    0.81    0.69
   8   5   2    1.79    0.78
  -8  -5  -2    1.14    0.85
   8   5   2    1.11    0.76
  -8  -5  -3    1.98    0.65
   8   5   3    1.85    0.79
  -8  -5  -3    2.00    0.86
   8   5   3    1.88    0.35
   8   5   3    2.36    0.84
  -8  -5  -4    1.75    0.72
   8   5   4    2.23    0.82
  -8  -5  -4    2.88    0.91
   8   5   4    1.36    0.33
   8   5   4    1.37    0.84
   8   5   5    2.52    0.85
  -8  -5  -5    2.21    0.88
   8   5   5    3.48    0.95
   8   5   6   12.63    1.32
  -8  -5  -6   11.67    1.25
  -8  -5  -6   10.76    1.53
  -8  -5  -7    2.98    0.98
   8   5   7    3.27    1.03
  -8  -5  -7    5.19    1.06
  -8  -5  -7    1.55    1.14
   8   5   8   25.29    1.61
  -8  -5  -8   25.85    1.82
   8   5   8   20.81    1.67
  -8  -5  -8   23.28    2.14
   8   5   9   18.74    1.51
   8   5   9   17.40    1.48
  -8  -5  -9   21.99    2.09
   8   5  10    0.97    0.94
  -8  -6   5   11.40    1.67
  -8  -6   4   -0.59    1.23
  -8  -6   3   12.93    1.60
   8   6  -3   14.67    1.51
  -8  -6   2   10.77    1.20
  -8  -6   2   15.14    1.52
   8   6  -2   10.73    1.33
  -8  -6   1   18.10    1.62
   8   6  -1   15.80    1.52
  -8  -6   1   18.51    1.37
  -8  -6   0   90.89    4.47
   8   6   0  101.91    4.48
  -8  -6   0   95.41    4.16
  -8  -6  -1   36.33    2.36
   8   6   1   39.44    2.31
  -8  -6  -1   39.27    1.99
  -8  -6  -2    3.59    0.81
   8   6   2    7.67    0.59
  -8  -6  -2    6.42    1.16
   8   6   2    4.95    0.96
  -8  -6  -3   29.96    2.07
  -8  -6  -3   30.26    2.03
   8   6   3   31.28    2.04
  -8  -6  -3   32.91    1.76
  -8  -6  -4    9.08    1.25
  -8  -6  -4   11.72    1.27
   8   6   4    9.95    1.20
  -8  -6  -4    9.78    0.98
  -8  -6  -5    2.10    0.96
   8   6   5    1.19    0.87
  -8  -6  -5    3.53    1.05
  -8  -6  -5    1.72    1.07
  -8  -6  -6   -0.06    0.92
   8   6   6    0.76    0.89
   8   6   7    0.07    0.93
  -8  -6  -7    0.50    0.81
  -8  -6  -7    1.37    1.05
  -8  -6  -8    6.06    1.24
  -8  -6  -8    6.88    1.48
   8   6   9    1.50    0.87
   8   6   9    1.81    1.05
  -8  -6  -9    2.51    1.45
   8   6  10    1.86    1.09
   8   6  11    1.80    1.07
  -8  -7   4   -0.63    1.42
  -8  -7   3   -0.39    1.33
   8   7  -3   -0.21    1.01
  -8  -7   2    0.55    1.25
   8   7  -2   -0.13    0.97
  -8  -7   1   30.23    1.76
  -8  -7   1   30.53    2.24
   8   7  -1   27.61    2.03
  -8  -7   0    2.81    0.83
  -8  -7   0    0.67    1.20
   8   7   0    3.58    1.02
  -8  -7  -1    2.93    0.79
   8   7   1    4.09    0.60
   8   7   1    2.87    0.95
  -8  -7  -2    0.80    0.62
   8   7   2    0.34    0.48
  -8  -7  -2    0.07    0.99
   8   7   2    0.30    0.80
  -8  -7  -3    0.13    0.63
   8   7   3   -0.05    0.49
  -8  -7  -3    0.57    1.11
   8   7   3    1.02    0.87
  -8  -7  -4    0.18    0.63
   8   7   4   -0.03    0.51
  -8  -7  -4    1.49    1.10
   8   7   4    2.06    0.95
  -8  -7  -4    0.37    1.10
  -8  -7  -5   18.68    1.80
  -8  -7  -5   21.17    1.86
   8   7   5   22.37    1.72
  -8  -7  -5   23.79    1.47
  -8  -7  -6    9.37    1.40
   8   7   6   10.99    1.27
  -8  -7  -6   11.05    1.53
  -8  -7  -7   16.04    1.71
  -8  -7  -7   14.00    1.76
  -8  -7  -8    1.87    1.20
   8   7   9    1.40    1.15
   8   7  10   -0.13    1.10
   8   7  11    0.06    1.12
  -8  -8   2    5.60    1.62
  -8  -8   1    3.66    1.40
  -8  -8   0   14.33    1.81
   8   8   1    2.02    0.62
   8   8   2    4.79    0.73
  -8  -8  -2    3.83    1.36
  -8  -8  -2    4.44    1.17
   8   8   3    8.36    0.83
  -8  -8  -3    9.16    1.47
  -8  -8  -3    7.21    0.86
  -8  -8  -3    9.28    1.33
  -8  -8  -4    4.44    0.77
   8   8   4    3.15    0.69
  -8  -8  -4    3.80    1.29
  -8  -8  -4    4.13    1.22
  -8  -8  -5    2.31    0.72
  -8  -8  -5    1.45    1.26
  -8  -8  -5    2.07    1.21
  -8  -8  -6    7.61    1.46
  -8  -8  -6    5.23    1.42
  -8  -8  -7   -0.80    1.23
  -8  -8  -7   -0.19    1.30
  -8  -8  -8    1.13    1.31
   8   8   9   -0.38    1.30
   8   9   1    1.63    0.68
  -8  -9  -1    0.99    0.97
   8   9   2    0.11    0.66
  -8  -9  -2    0.06    1.03
   8   9   3    7.98    0.89
  -8  -9  -3    3.71    1.20
   8   9   4    2.39    0.75
  -8  -9  -4    3.79    1.28
  -8  -9  -5    1.63    1.29
  -8  -9  -6    1.06    1.30
  -8  -9  -7    6.26    1.67
   8  10   1    0.46    0.76
   8  10   2    2.91    0.88
   8  10   3   14.06    1.22
  -8 -10  -3   12.95    1.57
   8  10   4   -0.47    0.81
  -8 -10  -4    0.38    1.15
   8  10   5    1.34    0.83
  -8 -10  -5    2.05    1.33
   9  -8  -1    2.13    1.32
   9  -7  -4   11.28    1.35
   9  -7  -3   12.07    1.45
   9  -7  -3   10.97    1.29
   9  -7  -2    6.48    1.32
   9  -7  -2    3.47    1.01
   9  -7  -1    1.88    1.22
  -9   7   1    1.86    1.23
   9  -7  -1    0.93    0.95
   9  -7   0    4.79    1.36
  -9   7   0    2.47    1.35
   9  -7   0    1.94    1.01
   9  -7   1   19.62    1.97
   9  -6  -6    2.45    1.01
   9  -6  -5    2.30    1.02
   9  -6  -4    3.26    1.02
   9  -6  -4    1.77    1.01
   9  -6  -3    3.41    1.02
   9  -6  -3    2.63    1.03
   9  -6  -2    0.06    0.98
  -9   6   2    0.67    0.96
   9  -6  -2   -0.25    0.94
   9  -6  -1    1.20    1.06
  -9   6   1    0.21    1.02
   9  -6  -1    0.06    0.91
   9  -6   0    1.56    1.13
  -9   6   0    1.86    1.14
   9  -6   0    2.18    0.99
   9  -6   1    0.58    1.18
  -9   6  -1    0.95    1.17
   9  -6   1    0.07    0.96
  -9   6  -2   10.50    1.47
   9  -6   2   13.02    1.62
  -9   6  -3    1.44    1.04
  -9   6  -3    0.33    1.18
   9  -6   3   -0.32    1.23
   9  -5  -7    2.81    1.07
   9  -5  -6   -0.20    1.05
   9  -5  -5    0.91    0.81
   9  -5  -5    1.24    0.93
   9  -5  -4    1.07    0.89
   9  -5  -4    2.07    0.99
   9  -5  -3    1.42    0.90
   9  -5  -3   -0.28    0.86
   9  -5  -3    2.93    1.05
   9  -5  -2    1.17    0.91
  -9   5   2    2.30    0.99
   9  -5  -2    0.20    0.93
  -9   5   1    4.58    1.07
   9  -5  -1    3.20    1.02
   9  -5  -1    4.26    1.07
  -9   5   0    6.39    1.24
   9  -5   0    8.28    1.27
   9  -5   0    6.68    1.17
  -9   5  -1    0.15    1.09
   9  -5   1   -0.40    1.03
   9  -5   1    0.89    0.96
  -9   5  -2    8.80    1.33
   9  -5   2    9.27    1.42
   9  -5   2    7.37    1.28
  -9   5  -3    3.41    1.15
   9  -5   3    2.54    1.16
  -9   5  -4   -0.54    1.12
   9  -4  -7    1.00    1.07
   9  -4  -6    2.32    1.11
   9  -4  -5    1.55    0.77
   9  -4  -5    1.52    1.01
   9  -4  -4    1.96    0.80
   9  -4  -4    1.21    0.88
   9  -4  -4    1.09    0.94
   9  -4  -3    2.38    0.86
   9  -4  -3    0.95    0.77
   9  -4  -3    1.70    0.94
   9  -4  -2    0.72    0.82
   9  -4  -2    0.54    0.68
   9  -4  -2    2.07    0.99
  -9   4   1    1.07    0.86
   9  -4  -1   -0.21    0.84
   9  -4  -1   -0.37    0.64
   9  -4  -1   -0.34    0.91
  -9   4   0    0.77    0.87
   9  -4   0    0.33    0.84
   9  -4   0    0.69    0.91
  -9   4  -1   10.68    1.32
   9  -4   1    8.48    1.19
   9  -4   1    7.08    1.20
   9  -4   2   19.28    1.76
  -9   4  -2   21.50    1.76
   9  -4   2   20.49    1.76
  -9   4  -2   24.28    1.70
  -9   4  -3    9.95    1.33
   9  -4   3   11.23    1.43
   9  -4   4    4.13    1.23
   9  -4   4    2.47    1.22
   9  -4   5    0.41    1.22
  -9   4  -6    1.22    1.05
   9  -3  -7    0.35    1.07
   9  -3  -6   19.22    1.67
   9  -3  -5    2.28    1.04
   9  -3  -5    2.75    0.71
   9  -3  -5    3.53    0.74
   9  -3  -5    4.15    1.06
   9  -3  -4   -0.03    0.66
   9  -3  -4    0.73    0.67
   9  -3  -4    0.45    0.80
   9  -3  -4    0.13    0.92
   9  -3  -3   -0.04    0.70
   9  -3  -3   -0.16    0.70
   9  -3  -3    0.89    0.72
   9  -3  -3    0.26    0.85
   9  -3  -2   -0.48    0.74
   9  -3  -2   -0.46    0.74
   9  -3  -2    1.30    0.68
   9  -3  -2    0.79    0.90
   9  -3  -1   17.62    1.37
   9  -3  -1   17.51    1.38
  -9   3   1   16.17    1.40
   9  -3  -1   18.65    1.19
   9  -3  -1   17.64    1.59
   9  -3   0   13.84    1.25
   9  -3   0   16.78    1.32
  -9   3   0   13.81    1.34
   9  -3   0   13.09    0.98
   9  -3   0   16.17    1.52
   9  -3   1   13.12    1.28
   9  -3   1   14.42    1.29
  -9   3  -1   11.94    1.35
   9  -3   1   13.55    0.90
   9  -3   1   14.20    1.45
  -9   3  -2   -1.76    1.02
   9  -3   2    0.40    0.94
   9  -3   2   -0.14    0.92
  -9   3  -2    1.84    0.87
  -9   3  -3    1.13    0.95
   9  -3   3   -0.15    0.97
   9  -3   4    0.07    1.02
   9  -3   4    1.03    1.01
   9  -3   5    1.50    1.13
   9  -3   6   20.32    1.93
   9  -2  -7   10.78    1.40
   9  -2  -6    8.48    1.33
   9  -2  -6    6.54    0.80
   9  -2  -6    9.18    1.28
   9  -2  -5    1.48    1.02
   9  -2  -5    1.51    0.66
   9  -2  -5    3.26    0.70
   9  -2  -5    3.44    1.02
   9  -2  -4    1.53    0.67
   9  -2  -4    0.44    0.63
   9  -2  -4    1.23    0.80
   9  -2  -4    0.53    0.87
   9  -2  -3    1.46    0.69
   9  -2  -3    2.11    0.70
   9  -2  -3    1.75    0.73
   9  -2  -3   -0.26    0.92
   9  -2  -2  118.84    4.84
   9  -2  -2  114.90    4.82
   9  -2  -2  103.51    4.72
   9  -2  -2  124.30    5.22
   9  -2  -1   50.94    2.44
   9  -2  -1   48.33    2.39
   9  -2  -1   42.78    2.19
   9  -2  -1   51.51    2.76
   9  -2   0   17.41    1.54
   9  -2   0   19.91    1.40
   9  -2   0   18.20    1.34
  -9   2   0   15.83    1.35
   9  -2   0   17.15    1.08
   9  -2   0   15.84    1.57
  -9   2   0   17.10    1.47
  -9   2  -1    8.65    1.15
   9  -2   1    8.03    1.23
   9  -2   1    8.94    0.61
   9  -2   1    7.13    1.07
  -9   2  -1    6.31    1.06
   9  -2   1    8.32    1.03
   9  -2   1    7.29    1.22
  -9   2  -2    1.79    0.84
   9  -2   2    1.22    0.89
  -9   2  -2    0.10    0.95
   9  -2   2    2.00    0.36
   9  -2   2    2.40    0.45
   9  -2   2    1.49    1.01
  -9   2  -2    3.40    0.90
  -9   2  -3    0.94    0.82
   9  -2   3    2.60    0.93
   9  -2   3    2.99    0.35
  -9   2  -3    2.19    0.89
   9  -2   4   -0.24    0.86
   9  -2   4    0.09    0.31
   9  -2   5    0.43    0.38
   9  -2   5   -0.93    1.03
   9  -2   6    5.76    1.28
   9  -2   7    7.38    1.49
   9  -2   7    5.37    0.64
  -9   1   6   23.60    1.74
   9  -1  -6   24.26    1.38
   9  -1  -6   22.65    1.87
   9  -1  -6   23.72    1.90
   9  -1  -5    9.07    1.23
   9  -1  -5    8.94    0.84
   9  -1  -5    8.57    0.83
  -9   1   5    8.72    1.11
   9  -1  -5    8.21    1.22
   9  -1  -4    4.02    0.70
  -9   1   4    3.05    0.84
   9  -1  -4    4.04    0.69
   9  -1  -4    3.24    1.00
   9  -1  -3    1.45    0.64
  -9   1   3    0.26    0.73
   9  -1  -3    0.60    0.60
   9  -1  -3    1.09    0.68
   9  -1  -3   -0.13    0.89
   9  -1  -2   22.00    1.42
   9  -1  -2   24.84    1.38
   9  -1  -2   24.00    1.46
   9  -1  -2   27.07    1.47
  -9   1   1    3.45    1.00
   9  -1  -1    5.97    1.10
   9  -1  -1    6.33    0.72
   9  -1  -1    4.94    0.82
   9  -1  -1    6.88    0.87
   9  -1  -1    6.30    0.74
   9  -1   0  115.07    4.80
   9  -1   0  102.46    4.19
   9  -1   0  105.13    4.45
   9  -1   0  109.57    4.50
  -9   1   0   93.04    4.41
   9  -1   0  101.19    4.24
  -9   1   0  105.95    4.65
   9  -1   1   70.85    3.51
   9  -1   1   74.63    3.28
   9  -1   1   78.35    3.37
  -9   1  -1   58.68    3.22
   9  -1   1   71.84    2.98
  -9   1  -1   72.56    3.43
   9  -1   2  188.35    7.73
  -9   1  -2  201.74    7.62
  -9   1  -3   -0.82    0.96
   9  -1   3   -1.02    0.93
  -9   1  -3   -0.35    0.82
   9  -1   3   -0.80    0.80
   9  -1   3    0.70    0.34
   9  -1   3    1.22    0.99
  -9   1  -3   -0.17    0.79
   9  -1   4   11.84    1.17
  -9   1  -4    6.62    1.05
   9  -1   4   10.81    1.33
   9  -1   5   21.18    1.63
   9  -1   5   17.35    1.74
   9  -1   6    2.18    0.57
   9  -1   6    3.18    1.11
   9  -1   6    2.69    1.21
   9  -1   7   -0.43    1.12
   9  -1   8    3.82    1.34
  -9   1  -8    3.57    1.36
   9   0  -6    1.64    1.07
  -9   0   6    3.99    1.06
   9   0  -6    2.93    1.03
   9   0  -5    0.97    0.96
  -9   0   5    4.21    1.01
  -9   0   4    5.00    0.93
   9   0  -4    3.56    0.83
   9   0  -3   45.83    2.32
  -9   0   3   47.84    2.44
   9   0  -2   29.75    1.61
  -9   0   2   30.12    1.78
   9   0  -1   -0.22    0.81
   9   0  -1   -0.33    0.56
   9   0  -1    0.59    0.81
   9   0   0   27.81    1.82
   9   0   0   23.95    1.41
   9   0   0   30.84    1.62
   9   0   0   30.15    1.59
   9   0   0   27.41    1.93
  -9   0   0   24.33    1.75
   9   0   1   16.68    1.02
   9   0   1   17.06    1.48
   9   0   1   15.43    1.20
  -9   0  -1   13.82    1.12
   9   0   1   15.55    1.56
  -9   0  -1   17.25    1.36
   9   0   2   34.07    1.72
   9   0   2   41.19    2.27
  -9   0  -2   31.47    1.90
   9   0   2   38.31    2.35
  -9   0  -2   40.29    2.15
   9   0   3  101.71    4.42
   9   0   3  116.95    4.97
   9   0   3  111.46    4.71
   9   0   3  112.10    4.76
  -9   0  -3  103.18    4.60
   9   0   3  108.95    5.01
  -9   0  -3  110.34    4.85
  -9   0  -3  106.68    4.81
   9   0   4    1.55    0.81
  -9   0  -4   -0.55    0.79
   9   0   4    1.39    0.54
   9   0   4    1.63    0.81
   9   0   4    1.40    0.97
  -9   0  -4    1.20    0.89
   9   0   5   -0.46    0.56
   9   0   5    0.22    0.80
   9   0   5   -0.01    0.37
   9   0   5    1.13    0.93
   9   0   6    0.81    0.89
   9   0   6   -0.57    1.03
   9   0   7    9.16    1.30
   9   0   8    8.09    1.36
  -9   0  -8   10.61    1.64
   9   0   9   21.97    1.88
  -9   0  -9    2.28    1.41
   9   1  -6   -0.40    1.04
  -9  -1   6   -0.06    0.98
   9   1  -5   -2.29    0.99
  -9  -1   5   -0.23    0.88
  -9  -1   4    1.14    0.80
   9   1  -4    1.94    0.94
  -9  -1   3    0.85    0.80
   9   1  -3    0.68    0.71
   9   1  -3    2.60    0.96
  -9  -1   2    0.88    0.87
   9   1  -2   -0.51    0.65
   9   1  -2    0.99    0.87
  -9  -1   1    1.03    0.78
   9   1  -1    0.06    0.60
   9   1  -1   -0.66    0.85
   9   1   0    9.92    0.85
   9   1   0    9.03    1.16
   9   1   0   12.01    1.25
   9   1   1    9.74    0.83
   9   1   1    7.13    1.11
   9   1   1    7.65    1.14
   9   1   2    6.00    1.12
   9   1   2    4.64    0.72
   9   1   2    6.13    1.11
   9   1   3   49.81    2.31
   9   1   3   48.45    2.66
   9   1   3   50.47    2.47
   9   1   3   45.55    2.43
   9   1   3   49.46    2.82
  -9  -1  -3   48.07    2.59
   9   1   4    1.58    0.95
   9   1   4    2.85    0.81
  -9  -1  -4    0.46    0.62
   9   1   4    1.73    0.63
   9   1   4    2.91    0.82
   9   1   4    3.24    0.97
  -9  -1  -4    3.17    0.89
   9   1   5   17.68    1.45
   9   1   5   18.60    1.64
   9   1   5   17.81    1.20
   9   1   6   26.76    1.81
   9   1   6   25.17    1.29
   9   1   6   22.66    1.91
   9   1   7    2.53    1.00
   9   1   7    2.90    0.44
   9   1   7    4.53    1.25
   9   1   8   -0.33    0.99
  -9  -1  -8    0.09    1.22
   9   1   9   -0.07    1.11
  -9  -1  -9    0.63    1.22
   9   2  -6    0.20    1.03
   9   2  -5   -1.43    1.02
  -9  -2   5   -0.12    0.88
  -9  -2   4    8.54    1.23
   9   2  -4    6.97    1.17
  -9  -2   3   10.13    1.20
   9   2  -3   12.38    1.37
  -9  -2   2    3.57    0.96
   9   2  -2    2.92    0.75
   9   2  -2    1.92    0.92
  -9  -2   1    2.61    0.85
   9   2  -1    2.28    0.69
   9   2  -1    1.90    0.92
  -9  -2   0    1.07    0.78
   9   2   0    2.32    0.64
   9   2   0    1.84    0.90
  -9  -2  -1    0.70    0.74
   9   2   1    2.06    0.64
   9   2   1    0.53    0.85
   9   2   2   15.76    1.15
   9   2   2   16.48    1.42
   9   2   2   14.96    1.49
  -9  -2  -2   19.31    1.41
  -9  -2  -3    0.94    0.79
   9   2   3    1.47    0.91
  -9  -2  -3    0.67    0.46
   9   2   3    0.18    0.64
   9   2   3    0.21    0.82
   9   2   4    9.55    0.92
   9   2   4   11.78    1.23
   9   2   4   10.31    1.06
   9   2   4    9.94    0.99
   9   2   4   10.60    1.29
  -9  -2  -4    9.02    1.15
   9   2   5   -0.79    0.92
   9   2   5    0.27    0.63
   9   2   5   -0.19    0.70
   9   2   5    0.73    0.90
   9   2   6    0.87    0.82
   9   2   6    1.11    0.93
   9   2   7   11.08    1.27
   9   2   7    7.64    0.84
   9   2   7    6.38    1.34
   9   2   8   -0.49    1.00
   9   2   8    0.52    0.54
  -9  -2  -8    0.09    1.22
   9   2   9   -0.93    1.08
  -9  -2  -9   -0.93    1.34
   9   2  10    0.43    1.17
  -9  -3   5    2.25    1.12
  -9  -3   4    0.25    0.93
   9   3  -4    1.47    1.03
  -9  -3   3    0.30    0.91
   9   3  -3    1.88    0.95
  -9  -3   2    1.60    0.90
   9   3  -2    2.21    0.95
   9   3  -1   22.94    1.43
   9   3  -1   19.74    1.67
  -9  -3   1   23.39    1.59
   9   3   0   15.52    1.18
   9   3   0   19.52    1.57
  -9  -3   0   17.69    1.39
   9   3   1   14.58    1.14
   9   3   1   17.13    1.44
  -9  -3  -1   17.62    1.31
   9   3   2   17.02    1.28
   9   3   2   16.58    1.55
  -9  -3  -2   17.88    1.36
   9   3   3   23.39    1.51
   9   3   3   25.36    1.69
   9   3   3   23.92    1.79
  -9  -3  -3   23.38    1.57
  -9  -3  -4    0.55    0.79
   9   3   4    1.22    0.82
   9   3   4    0.92    0.67
   9   3   4    0.07    0.88
   9   3   5   -0.42    0.83
   9   3   5   -0.09    0.71
  -9  -3  -5    0.19    0.45
   9   3   5   -0.66    0.89
   9   3   6    1.17    0.76
   9   3   6    0.45    0.90
   9   3   7    0.22    0.85
   9   3   7    2.38    1.12
   9   3   8    4.20    1.04
   9   3   8    3.53    0.78
  -9  -3  -8    4.79    1.38
   9   3   9   -0.06    1.00
  -9  -3  -9    0.10    1.30
   9   3  10    0.40    1.12
  -9  -4   5   27.98    2.08
  -9  -4   4    0.35    1.01
   9   4  -4    0.68    1.01
   9   4  -3    8.07    1.24
  -9  -4   2    1.15    0.93
   9   4  -2    0.84    0.87
  -9  -4   1   -0.05    0.83
   9   4  -1    0.46    0.87
   9   4   0   23.84    1.52
   9   4   0   22.98    1.75
  -9  -4   0   22.17    1.54
  -9  -4  -1    2.47    0.83
   9   4   1    2.68    0.75
   9   4   1    1.55    0.86
  -9  -4  -2    0.45    0.75
   9   4   2    0.37    0.76
  -9  -4  -2    0.96    0.78
   9   4   2    0.48    0.85
   9   4   3   35.14    2.04
  -9  -4  -3   38.70    2.15
   9   4   3   37.35    2.30
  -9  -4  -3   34.63    2.01
   9   4   4   21.57    1.50
   9   4   4   21.07    1.55
  -9  -4  -4   22.62    1.62
   9   4   4   21.04    1.74
  -9  -4  -4   22.11    1.56
   9   4   5   -0.33    0.81
   9   4   5   -0.29    0.91
  -9  -4  -6    0.66    0.40
   9   4   6    2.55    0.99
   9   4   7    1.42    0.85
   9   4   7    0.85    1.05
  -9  -4  -7    0.90    1.23
   9   4   8    3.36    0.97
   9   4   8    1.94    0.92
   9   4   8    1.71    1.19
  -9  -4  -8    1.63    1.29
   9   4   9   -0.37    1.04
   9   4   9    0.21    0.80
  -9  -5   5   11.94    1.70
  -9  -5   4    1.73    1.21
  -9  -5   3    2.04    1.17
   9   5  -3    1.84    1.06
  -9  -5   2    1.81    1.10
   9   5  -2    2.38    1.06
  -9  -5   1    7.04    1.10
   9   5  -1    7.22    1.18
  -9  -5   0    6.59    1.02
   9   5   0    6.72    1.17
   9   5   1    6.13    1.12
  -9  -5  -1    7.90    1.05
  -9  -5  -2    0.09    0.76
   9   5   2    0.14    0.86
  -9  -5  -3   -0.44    0.76
   9   5   3    0.42    0.89
  -9  -5  -4   11.11    1.27
   9   5   4   12.13    1.35
  -9  -5  -4    9.58    1.10
   9   5   5    5.11    1.11
   9   5   6    1.89    0.28
   9   5   6    2.57    1.04
   9   5   7   -0.07    0.96
  -9  -5  -7    0.62    1.19
  -9  -5  -8    1.61    1.08
   9   5   8    3.53    0.96
   9   5   8    1.18    0.97
   9   5   8    2.59    1.19
  -9  -5  -8    2.93    1.42
   9   5   9    0.88    0.96
   9   5   9    0.56    0.95
  -9  -6   4    0.16    1.38
  -9  -6   3    0.23    1.28
  -9  -6   2    3.70    1.32
   9   6  -2    0.89    1.07
  -9  -6   1   10.19    1.49
   9   6  -1   10.50    1.41
  -9  -6   1   10.82    1.28
  -9  -6   0   47.16    2.71
   9   6   0   45.47    2.66
  -9  -6   0   42.18    2.35
   9   6   1   24.57    1.95
  -9  -6  -1   26.58    1.66
  -9  -6  -2    2.62    0.87
  -9  -6  -2    4.03    1.14
   9   6   2    5.18    1.07
  -9  -6  -3   22.54    1.79
   9   6   3   18.67    1.67
  -9  -6  -3   17.53    1.38
  -9  -6  -4    0.26    0.74
  -9  -6  -4    1.73    1.06
   9   6   4    0.21    0.94
  -9  -6  -5    0.70    0.86
  -9  -6  -5    0.07    1.02
   9   6   5   -0.64    0.98
   9   6   6    2.21    1.05
  -9  -6  -6    1.57    1.06
  -9  -6  -7    3.23    1.16
   9   6   7    1.18    1.02
   9   6   8    9.60    1.48
  -9  -6  -8   10.61    1.55
   9   6   9    1.52    0.97
   9   6   9    3.36    1.14
   9   6  10    1.12    1.11
  -9  -7   2    0.76    1.28
  -9  -7   1   20.50    2.03
   9   7  -1   22.32    1.88
  -9  -7   0    1.66    1.29
   9   7   0    2.97    1.12
  -9  -7  -1    0.87    0.91
   9   7   1    0.07    0.96
  -9  -7  -2    5.34    0.90
   9   7   2    6.35    1.18
  -9  -7  -2    3.92    1.27
  -9  -7  -3   -0.15    1.10
  -9  -7  -3   -0.08    0.81
   9   7   3    1.09    0.44
   9   7   3    0.21    0.97
  -9  -7  -4   13.50    1.58
   9   7   4   11.62    0.80
   9   7   4   12.17    1.41
  -9  -7  -4   11.83    1.16
  -9  -7  -5    1.11    0.81
   9   7   5    0.91    0.48
   9   7   5    2.26    1.05
  -9  -7  -5    1.62    1.18
  -9  -7  -5   -0.09    1.16
  -9  -7  -6    1.35    0.90
  -9  -7  -6    1.47    1.19
  -9  -7  -6    0.96    1.23
  -9  -7  -7    7.37    1.46
  -9  -7  -7    6.47    1.59
  -9  -7  -8    0.57    1.33
   9   7   9    0.07    1.19
   9   7  10    1.40    1.21
   9   8   2    3.59    0.61
   9   8   3    2.50    0.59
  -9  -8  -3    0.87    1.25
   9   8   4    0.53    0.54
  -9  -8  -4   -0.40    1.17
  -9  -8  -5   -0.08    1.21
  -9  -8  -6    0.83    1.37
  -9  -9  -1   -0.13    1.20
  -9  -9  -2    0.64    1.16
  -9  -9  -3    5.35    1.36
  -9  -9  -4    6.01    1.52
  -9  -9  -5    1.06    1.34
  -9 -10  -4    1.86    1.42
  10  -7  -2    2.86    1.32
  10  -7  -1    0.29    1.25
  10  -7  -1    1.17    1.06
  10  -7   0    1.08    1.16
  10  -6  -5    1.09    1.11
  10  -6  -4    2.89    1.12
  10  -6  -3    3.78    1.15
  10  -6  -3    2.07    1.20
  10  -6  -2    8.59    1.36
  10  -6  -2    6.93    1.30
  10  -6  -1    1.08    1.10
 -10   6   1    0.07    1.11
  10  -6  -1   -1.34    1.14
  10  -6   0    1.16    1.18
 -10   6   0   -1.07    1.13
  10  -6   0    2.65    1.15
  10  -6   1   -1.47    1.22
  10  -6   1    0.30    1.09
  10  -6   2    9.97    1.57
  10  -5  -6    2.84    1.18
  10  -5  -5   -0.15    1.03
  10  -5  -4    1.13    0.95
  10  -5  -4    1.51    1.07
  10  -5  -3    7.63    1.17
  10  -5  -3    4.66    1.20
  10  -5  -2    4.96    1.14
  10  -5  -2    2.74    1.11
 -10   5   1   -0.07    1.03
  10  -5  -1   -0.06    1.02
  10  -5  -1    0.45    1.06
 -10   5   0    1.18    1.11
  10  -5   0    0.40    1.05
  10  -5   0   -0.15    1.06
 -10   5  -1    4.11    1.25
  10  -5   1    3.42    1.22
  10  -5   1    3.64    1.25
 -10   5  -2   -0.23    1.17
  10  -5   2   -1.07    1.22
  10  -5   2    0.96    1.08
 -10   5  -3    3.58    1.25
  10  -5   3    3.81    1.41
 -10   5  -4   -0.40    1.21
  10  -4  -5    4.25    1.23
  10  -4  -4    2.87    0.91
  10  -4  -4    1.97    1.08
  10  -4  -3    2.77    0.97
  10  -4  -3    1.11    0.87
  10  -4  -3    1.00    1.07
  10  -4  -2    8.61    1.18
  10  -4  -2    8.08    1.03
  10  -4  -2    9.72    1.39
 -10   4   1   -0.88    1.00
  10  -4  -1    0.28    0.94
  10  -4  -1   -0.18    0.71
  10  -4  -1   -0.31    1.00
 -10   4   0    0.49    1.02
  10  -4   0    1.99    1.03
  10  -4   0    1.38    1.07
  10  -4   1   21.03    1.75
 -10   4  -1   17.08    1.72
  10  -4   1   23.70    1.91
 -10   4  -2   10.84    1.54
  10  -4   2    9.88    1.42
  10  -4   2   11.19    1.50
 -10   4  -3    1.24    1.12
  10  -4   3    1.03    1.15
  10  -4   3    0.91    1.17
 -10   4  -4    0.95    1.11
  10  -4   4    0.73    1.24
 -10   4  -5    1.45    1.23
  10  -3  -5    1.97    1.15
  10  -3  -4    0.57    0.79
  10  -3  -4    0.38    1.09
  10  -3  -3    5.10    0.93
  10  -3  -3    6.25    0.99
  10  -3  -3    6.37    1.00
  10  -3  -3    8.37    1.30
  10  -3  -2    0.53    0.81
  10  -3  -2    0.71    0.83
  10  -3  -2    1.19    0.77
  10  -3  -2   -0.39    1.01
  10  -3  -1    3.34    0.93
  10  -3  -1    3.34    0.77
  10  -3  -1    2.64    1.11
 -10   3   0    0.38    0.92
  10  -3   0    2.36    0.94
  10  -3   0    1.70    0.64
  10  -3   0    0.94    1.04
 -10   3  -1    0.69    1.00
  10  -3   1    2.08    0.96
  10  -3   1    2.04    1.11
  10  -3   2   33.64    2.22
 -10   3  -2   36.25    2.30
  10  -3   2   38.96    2.50
 -10   3  -3    0.87    1.06
  10  -3   3    1.29    1.10
 -10   3  -4    2.95    1.17
  10  -3   4    4.32    1.30
  10  -3   4    6.26    1.34
  10  -3   5    4.75    1.37
  10  -3   5    6.47    1.52
  10  -2  -5   20.97    1.40
  10  -2  -5   27.95    2.04
  10  -2  -4    1.85    0.82
  10  -2  -4    0.27    0.70
  10  -2  -4    0.46    1.08
  10  -2  -3   10.27    1.12
  10  -2  -3    9.15    1.04
  10  -2  -3   11.47    1.43
  10  -2  -2   15.88    1.33
  10  -2  -2   13.52    1.23
  10  -2  -2   14.48    1.17
  10  -2  -2   15.78    1.58
  10  -2  -1    0.56    0.85
  10  -2  -1   -0.18    0.76
  10  -2  -1    0.29    0.67
  10  -2  -1    1.49    1.04
 -10   2   0   -0.47    0.86
  10  -2   0    0.19    0.80
  10  -2   0    0.40    0.61
  10  -2   0    0.63    1.08
 -10   2  -1    2.25    0.94
  10  -2   1    2.86    0.92
  10  -2   1    3.62    0.61
  10  -2   1    1.75    1.08
  10  -2   2   18.60    0.90
  10  -2   2   18.38    1.53
 -10   2  -2   16.58    1.53
  10  -2   2   15.60    0.96
  10  -2   2   16.34    1.69
  10  -2   3   42.97    1.82
 -10   2  -3   45.44    2.54
  10  -2   3   54.59    2.92
 -10   2  -4   -0.40    1.01
  10  -2   4    1.05    0.99
  10  -2   4    1.22    1.10
  10  -2   5    1.73    1.13
  10  -2   6    4.33    1.36
  10  -1  -5    1.14    0.72
  10  -1  -5    0.23    1.08
  10  -1  -4    0.57    0.68
  10  -1  -4    1.45    0.71
  10  -1  -3    1.17    0.73
  10  -1  -3    1.89    0.74
  10  -1  -3    1.61    1.08
  10  -1  -2   27.37    1.61
  10  -1  -2   30.05    1.70
  10  -1  -2   23.47    1.46
  10  -1  -2   25.72    1.54
  10  -1  -2   28.31    2.02
  10  -1  -1    9.47    0.85
  10  -1  -1    7.95    1.00
  10  -1  -1    9.90    1.06
  10  -1  -1    8.76    0.88
  10  -1  -1   10.72    1.44
  10  -1   0    0.17    0.76
  10  -1   0    0.48    0.79
  10  -1   0    0.89    0.58
  10  -1   0    0.59    0.54
 -10   1  -1    3.82    0.94
  10  -1   1    3.28    0.91
  10  -1   1    4.05    0.59
  10  -1   1    3.38    0.58
  10  -1   2   19.40    1.53
 -10   1  -2   18.31    1.48
 -10   1  -3   31.19    1.98
  10  -1   3   30.24    1.39
 -10   1  -4    4.87    0.98
  10  -1   4    6.64    1.14
 -10   1  -5   -1.14    0.94
  10  -1   5   -0.26    0.96
  10  -1   5    0.51    1.13
  10  -1   6    2.55    1.19
  10  -1   6    3.44    1.31
 -10   1  -8    3.54    1.46
  10   0  -5    5.37    0.79
  10   0  -4    5.76    0.84
  10   0  -4    6.66    0.83
  10   0  -3    0.25    0.65
  10   0  -3   -0.04    0.61
  10   0  -3   -0.56    0.72
  10   0  -2   -0.41    0.68
  10   0  -2    0.95    0.66
  10   0  -2    1.47    0.74
  10   0  -2    0.45    0.71
  10   0  -1   11.84    1.01
  10   0  -1   12.91    1.12
  10   0  -1   13.40    1.10
  10   0   0   26.45    1.38
  10   0   0   24.41    1.55
  10   0   0   20.77    1.92
  10   0   1   11.27    0.86
  10   0   1   11.69    1.13
  10   0   1    9.18    1.40
  10   0   2   19.79    1.19
 -10   0  -2   20.59    1.39
  10   0   2   22.84    1.87
  10   0   3    7.84    0.75
 -10   0  -3    6.83    1.00
  10   0   3    6.67    1.15
  10   0   3    7.22    1.29
 -10   0  -4    5.70    0.97
  10   0   4    6.91    0.79
  10   0   4    8.41    1.16
  10   0   4    9.60    1.36
 -10   0  -5    2.00    0.86
  10   0   5    4.16    0.65
  10   0   5    2.91    1.01
  10   0   5    3.41    0.34
  10   0   5    2.66    0.44
  10   0   5    3.81    1.10
  10   0   6    0.11    0.55
  10   0   6    0.13    0.97
  10   0   6    0.26    1.08
  10   0   7   13.17    1.59
 -10   0  -8   -0.38    1.37
 -10  -1   5    3.62    1.14
 -10  -1   4    0.18    0.96
  10   1  -4    0.08    1.02
  10   1  -3    7.01    1.28
  10   1  -2   10.41    1.03
  10   1  -2    9.90    1.37
  10   1  -1   -0.31    0.65
  10   1  -1   -0.45    0.97
  10   1   0   24.35    1.45
  10   1   0   24.07    1.89
  10   1   1    0.09    0.70
  10   1   1    1.16    0.60
  10   1   1   -0.96    1.03
  10   1   2    0.94    0.58
  10   1   2    0.55    0.98
  10   1   3    9.52    0.92
  10   1   3   11.47    1.16
 -10  -1  -3   10.64    0.93
  10   1   3   10.42    1.41
 -10  -1  -4   -0.18    0.69
  10   1   4    0.20    0.62
  10   1   4    1.09    0.84
  10   1   4    0.48    0.97
 -10  -1  -5    0.71    0.67
  10   1   5    1.92    0.67
  10   1   5    0.12    0.87
  10   1   5    0.89    1.02
  10   1   6    1.78    0.70
  10   1   6    1.58    0.97
  10   1   6    1.37    0.53
  10   1   6    2.79    1.20
  10   1   7   -0.19    0.72
  10   1   7   -0.19    1.00
  10   1   7   -0.65    1.17
 -10  -1  -8    6.28    1.58
 -10  -2   4   -0.07    1.03
  10   2  -3    1.85    1.07
  10   2  -2    0.69    0.99
  10   2  -1    7.39    0.93
  10   2  -1    7.68    1.25
  10   2   0    2.91    0.75
  10   2   0    5.88    1.12
  10   2   1   15.75    1.17
  10   2   1   17.80    1.65
  10   2   2    0.49    0.62
  10   2   2   -0.79    1.00
  10   2   3    0.37    0.66
  10   2   3    0.16    0.95
  10   2   4    0.69    0.64
  10   2   4   -0.25    0.79
  10   2   4    1.11    0.95
  10   2   5   -0.27    0.65
  10   2   5   -0.05    0.82
  10   2   5   -0.49    0.95
 -10  -2  -6    0.07    0.67
  10   2   6    1.11    0.75
  10   2   6    2.31    0.97
  10   2   6    1.32    1.02
  10   2   7    0.35    0.79
  10   2   7   -0.52    1.05
  10   2   7   -0.11    0.60
  10   2   7    0.54    1.12
  10   2   8    0.33    1.04
 -10  -2  -8    2.06    1.45
 -10  -3   4    4.49    1.22
  10   3  -3    0.88    1.05
  10   3  -2    3.45    1.07
  10   3  -1    5.59    1.15
  10   3   0    3.29    1.06
  10   3   1    9.78    1.02
  10   3   1    9.07    1.29
  10   3   2   -0.70    0.71
  10   3   2    0.40    1.00
  10   3   3    7.76    1.03
  10   3   3    6.71    1.22
  10   3   4   25.64    1.58
  10   3   4   21.41    1.91
 -10  -3  -5    4.86    0.54
  10   3   5    4.54    0.87
  10   3   5    4.66    0.93
  10   3   5    5.37    1.19
  10   3   6    1.75    0.81
  10   3   6    1.83    0.91
  10   3   6    1.56    1.06
  10   3   7    0.31    0.98
  10   3   7    2.16    1.17
  10   3   8    1.21    1.08
  10   3   8    0.09    1.18
 -10  -4   5   72.86    3.86
  10   4  -2    7.86    1.34
  10   4  -1    1.46    1.06
  10   4   0   11.00    1.43
  10   4   1    8.00    1.27
  10   4   2    1.35    1.05
  10   4   3    2.90    1.11
  10   4   4    6.65    1.29
  10   4   5    0.16    0.99
  10   4   6    5.78    1.00
  10   4   6    4.46    1.15
  10   4   7    1.25    0.92
  10   4   7    1.33    1.12
 -10  -4  -7   -0.10    1.33
  10   4   8    0.65    1.03
  10   4   8    0.40    0.87
  10   4   8    1.39    1.23
 -10  -5   3    3.46    1.39
  10   5  -1   17.95    1.75
  10   5   0   12.27    1.54
  10   5   1    8.71    1.31
 -10  -5  -1   12.41    1.27
 -10  -5  -2    7.81    1.11
  10   5   2    7.20    1.29
  10   5   3   -0.79    1.02
  10   5   4   15.68    1.65
  10   5   5   -0.40    1.06
  10   5   6   -0.08    1.01
  10   5   7   -0.08    1.06
  10   5   8    3.24    1.30
 -10  -5  -8    4.14    1.26
 -10  -6   0   55.14    3.17
  10   6   0   51.71    3.09
 -10  -6  -1    2.78    1.03
  10   6   1    4.83    1.18
 -10  -6  -2    6.60    1.13
  10   6   2    8.97    1.41
 -10  -6  -3    8.05    1.14
  10   6   3    8.30    1.36
  10   6   4    2.21    1.13
 -10  -6  -5    4.42    1.27
  10   6   5    4.50    1.23
 -10  -6  -6    0.15    1.13
  10   6   6   -0.63    1.05
 -10  -6  -6    0.78    1.35
  10   6   7   -0.71    1.07
  10   7   1    2.06    1.12
  10   7   2   19.24    1.87
  10   7   3    0.08    1.10
  10   7   4    3.88    1.26
 -10  -7  -5    0.28    1.37
  10   7   9   13.37    1.74
 -10  -8  -3    1.58    1.41
 -10  -9  -2   -1.19    1.34
  11  -6  -2    2.93    1.26
  11  -6  -2    3.64    1.24
  11  -6  -1    3.49    1.24
  11  -6   0    2.29    1.19
  11  -5  -3    0.25    1.18
  11  -5  -2    5.52    1.26
  11  -5  -2    5.33    1.39
  11  -5  -1    4.21    1.24
  11  -5  -1    2.78    1.24
  11  -5   0    2.58    1.23
  11  -5   0    2.25    1.30
  11  -5   1    1.34    1.26
  11  -5   2   12.92    1.73
  11  -4  -3   -0.38    0.96
  11  -4  -3    1.47    1.25
  11  -4  -2    6.18    1.21
  11  -4  -2    5.34    1.37
  11  -4  -1    1.49    1.08
  11  -4  -1    0.60    1.18
 -11   4   0    2.66    1.10
  11  -4   0    1.98    1.10
  11  -4   0    3.65    1.28
 -11   4  -1   -0.33    1.08
  11  -4   1    1.41    1.16
  11  -4   1   -0.61    1.18
 -11   4  -2    1.99    1.22
  11  -4   2    2.17    1.30
 -11   4  -3   11.45    1.65
 -11   4  -4    2.18    1.29
  11  -3  -3    4.80    1.00
  11  -3  -3    4.63    1.30
  11  -3  -2    2.88    0.97
  11  -3  -2    3.12    1.26
  11  -3  -1   12.38    1.33
  11  -3  -1   10.65    1.55
 -11   3   0    4.33    1.12
  11  -3   0    4.04    1.09
  11  -3   0    3.77    1.36
 -11   3  -1   -0.94    1.06
  11  -3   1    1.72    1.08
  11  -3   1    0.43    1.18
 -11   3  -2    5.59    1.27
  11  -3   2    9.14    1.36
  11  -3   2    8.43    1.49
 -11   3  -3    8.50    1.47
  11  -3   3   11.16    1.50
  11  -3   3    9.42    1.58
 -11   3  -4   25.49    1.99
 -11   3  -5    0.14    1.13
  11  -2  -4    0.72    0.85
  11  -2  -3    0.26    0.80
  11  -2  -3    0.42    1.11
  11  -2  -2    0.19    0.80
  11  -2  -2    0.17    1.15
  11  -2  -1   -0.54    0.85
  11  -2  -1    0.43    0.73
  11  -2  -1    0.09    1.14
  11  -2   0   -0.90    0.92
  11  -2   0    0.70    1.15
 -11   2  -1    1.33    0.94
  11  -2   1    0.29    0.96
  11  -2   1    1.07    1.20
 -11   2  -2   -1.53    1.00
  11  -2   2    0.69    1.03
  11  -2   2    0.53    1.11
  11  -2   3   15.38    1.58
 -11   2  -3   12.89    1.47
  11  -2   3   13.56    1.69
 -11   2  -4    7.71    1.31
  11  -2   4    7.41    1.47
 -11   2  -5   -0.44    1.06
 -11   2  -6   -1.23    1.14
  11  -1  -4    1.22    0.84
  11  -1  -3    3.59    0.94
  11  -1  -2    0.87    0.83
  11  -1  -2    0.68    1.02
  11  -1  -1   16.54    1.38
  11  -1  -1   13.48    1.11
  11  -1  -1   14.84    1.74
  11  -1   0   37.17    2.11
  11  -1   0   31.42    1.73
  11  -1   0   36.34    2.56
  11  -1   1   51.09    2.59
  11  -1   1   43.95    2.12
  11  -1   2   16.59    1.49
 -11   1  -2   15.22    1.38
 -11   1  -3   16.04    1.48
 -11   1  -4    4.82    1.09
  11  -1   4    9.57    1.31
 -11   1  -5    2.07    0.97
 -11   1  -6   -1.76    1.07
  11   0  -4   14.99    1.23
  11   0  -3    4.40    0.86
  11   0  -2    0.39    0.74
  11   0  -2    0.63    0.77
  11   0  -1   10.90    1.02
  11   0  -1   12.56    1.19
  11   0  -1   10.51    1.06
  11   0   0    0.10    0.84
  11   0   0    1.54    0.69
  11   0   0    0.42    0.63
  11   0   1    3.24    0.96
  11   0   1    3.30    0.70
  11   0   1    2.12    1.22
  11   0   2   20.32    1.22
  11   0   2   22.65    1.69
 -11   0  -2   20.66    1.39
  11   0   2   20.04    1.94
  11   0   3   20.39    1.18
 -11   0  -3   17.75    1.40
  11   0   3   20.51    1.94
 -11   0  -4   -0.55    0.88
  11   0   4    1.03    1.02
  11   0   4    0.91    1.20
 -11   0  -5   -0.57    0.90
  11   0   5    0.26    0.99
  11   0   5   -0.82    1.09
 -11   0  -6    0.41    0.86
  11   1  -2    5.91    1.38
  11   1  -1    2.60    0.80
  11   1  -1    2.27    1.17
  11   1   0    3.69    0.89
  11   1   0    3.36    0.79
  11   1   0    3.39    1.21
  11   1   1    2.98    0.87
  11   1   1    2.43    0.69
  11   1   1    3.77    1.29
  11   1   2   12.08    1.00
  11   1   2   12.90    1.29
  11   1   2   13.39    1.67
 -11  -1  -3    1.60    0.65
  11   1   3    0.25    0.63
  11   1   3   -0.82    1.15
 -11  -1  -4    2.02    0.70
  11   1   4    0.07    0.66
  11   1   4    3.47    1.04
  11   1   4    0.98    1.18
 -11  -1  -5    0.62    0.80
  11   1   5    1.72    1.05
  11   1   5    0.18    1.09
 -11  -1  -6    0.58    0.76
  11   2  -1    2.97    1.19
  11   2   0   14.98    1.64
  11   2   1    8.85    0.95
  11   2   1    5.20    1.36
  11   2   2    2.04    0.72
  11   2   2    1.23    1.11
  11   2   3    0.14    0.64
  11   2   3    0.27    0.85
  11   2   3    0.98    1.14
  11   2   4    0.27    0.71
  11   2   4    0.17    0.84
  11   2   4    0.18    1.10
  11   2   5    0.36    0.74
  11   2   5    0.62    0.94
  11   2   5   -0.18    1.13
  11   3   0    7.57    1.37
  11   3   1    8.33    1.41
  11   3   2    0.97    1.15
  11   3   3    0.88    1.11
  11   3   4    2.81    0.91
  11   3   4    3.30    1.24
  11   3   5   -0.23    0.86
  11   3   5   -0.27    1.14
  11   4   1    3.84    1.25
  11   4   2    4.11    1.24
  11   4   3   -1.41    1.15
  11   4   4    2.89    1.24
  11   4   5   12.43    1.57
  11   5   2    0.45    1.24
  11   5   3    1.31    1.20
  11   5   4   15.22    1.74
  12  -3  -2   -0.35    1.02
  12  -3  -1    1.61    1.08
 -12   3  -1    1.73    1.02
 -12   3  -2    1.74    1.08
 -12   3  -3    0.07    1.10
 -12   3  -4    1.82    1.29
  12  -2  -3   -1.03    1.05
  12  -2  -2    0.64    0.90
  12  -2  -1    2.37    1.01
  12  -2   0    5.02    1.21
 -12   2  -2    0.93    0.97
 -12   2  -3   -1.05    1.03
 -12   2  -4    0.96    1.10
 -12   2  -5    4.55    1.31
  12  -1  -3    7.58    1.17
  12  -1  -2    0.37    0.93
  12  -1  -1    0.56    0.94
  12  -1   0    0.53    1.02
 -12   1  -2    1.20    0.86
 -12   1  -3    0.69    0.91
 -12   1  -4    1.83    1.01
  12   0  -3   -0.20    0.93
  12   0  -2    0.84    0.91
  12   0  -1    4.21    1.06
  12   0   0    1.09    0.99
  12   0   1    0.55    1.00
  12   1  -2    4.90    0.98
  12   1  -1    3.10    0.93
  12   1   0    2.33    0.96
   0   0   0    0.00    0.00


TITL PCR-GKD-IPR in P-1
REM P-1 (#2 in standard setting)
CELL 0.71073   9.111651   9.112633   9.527893  73.9713  81.2516  86.5152
ZERR    1.00   0.000420   0.000302   0.000389   0.0032   0.0036   0.0032
LATT  1
SFAC C H N O
UNIT 38.00 38.00 2.00 2.00
TREF
HKLF 4
END
_computing_structure_solution     'SHELXT 2014/5 (Sheldrick, 2014)'
;
_shelx_hkl_checksum              7362
_olex2_submission_special_instructions 'No special instructions were received'
_oxdiff_exptl_absorpt_empirical_details
;
Empirical correction (ABSPACK) includes:
- Absorption correction using spherical harmonics
- Frame scaling
;
_oxdiff_exptl_absorpt_empirical_full_max 1.405
_oxdiff_exptl_absorpt_empirical_full_min 0.585
loop_
_space_group_symop_operation_xyz
'x, y, z'
'-x, -y, -z'
loop_
_atom_site_label
_atom_site_type_symbol
_atom_site_fract_x
_atom_site_fract_y
_atom_site_fract_z
_atom_site_U_iso_or_equiv
_atom_site_adp_type
_atom_site_occupancy
_atom_site_site_symmetry_order
_atom_site_calc_flag
_atom_site_refinement_flags_posn
_atom_site_refinement_flags_adp
_atom_site_refinement_flags_occupancy
_atom_site_disorder_assembly
_atom_site_disorder_group
O001 O 0.10404(13) 0.03183(14) 0.32216(14) 0.0563(3) Uani 1 1 d . . . . .
N002 N 0.17921(14) 0.08256(15) 0.51790(15) 0.0465(3) Uani 1 1 d . . . . .
H002 H 0.093945 0.054572 0.567835 0.056 Uiso 1 1 calc R . . . .
C003 C 0.19912(16) 0.08017(16) 0.37709(18) 0.0422(4) Uani 1 1 d . . . . .
C004 C 0.34182(16) 0.13975(16) 0.28629(17) 0.0415(4) Uani 1 1 d . . . . .
C005 C 0.31210(16) 0.39631(16) 0.48872(16) 0.0410(4) Uani 1 1 d . . . . .
C006 C 0.43761(15) 0.21755(16) 0.33987(17) 0.0399(3) Uani 1 1 d . . . . .
C007 C 0.20451(17) 0.37641(19) 0.61256(17) 0.0457(4) Uani 1 1 d . . . . .
C008 C 0.39414(16) 0.24545(17) 0.48919(17) 0.0410(3) Uani 1 1 d . . . . .
H008 H 0.484632 0.243030 0.533820 0.049 Uiso 1 1 calc R . . . .
C009 C 0.33298(19) 0.53704(18) 0.38746(18) 0.0491(4) Uani 1 1 d . . . . .
H009 H 0.405065 0.549372 0.304974 0.059 Uiso 1 1 calc R . . . .
C00A C 0.60664(17) 0.25327(17) 0.10912(18) 0.0478(4) Uani 1 1 d . . . . .
C00B C 0.56923(17) 0.27361(17) 0.25071(18) 0.0447(4) Uani 1 1 d . . . . .
H00B H 0.633592 0.325671 0.286093 0.054 Uiso 1 1 calc R . . . .
C00C C 0.28654(17) 0.12754(18) 0.59622(17) 0.0459(4) Uani 1 1 d . . . . .
H00C H 0.341137 0.038195 0.648474 0.055 Uiso 1 1 calc R . . . .
C00D C 0.37834(19) 0.11901(19) 0.1456(2) 0.0518(4) Uani 1 1 d . . . . .
H00D H 0.314264 0.066978 0.109885 0.062 Uiso 1 1 calc R . . . .
C00E C 0.5093(2) 0.17534(19) 0.0588(2) 0.0537(4) Uani 1 1 d . . . . .
H00E H 0.532351 0.160624 -0.034924 0.064 Uiso 1 1 calc R . . . .
C00F C 0.2046(2) 0.2132(2) 0.70440(19) 0.0548(4) Uani 1 1 d . . . . .
H00A H 0.104189 0.177025 0.739446 0.066 Uiso 1 1 calc R . . . .
H00F H 0.256984 0.201470 0.788323 0.066 Uiso 1 1 calc R . . . .
C00G C 0.2443(2) 0.6602(2) 0.4109(2) 0.0582(5) Uani 1 1 d . . . . .
H00G H 0.257238 0.755862 0.343601 0.070 Uiso 1 1 calc R . . . .
C00H C 0.11628(19) 0.5008(2) 0.6345(2) 0.0582(5) Uani 1 1 d . . . . .
H00H H 0.043933 0.488969 0.716768 0.070 Uiso 1 1 calc R . . . .
C00I C 0.75076(19) 0.3141(2) 0.0125(2) 0.0554(4) Uani 1 1 d . . . . .
H00I H 0.748109 0.296994 -0.084245 0.066 Uiso 1 1 calc R . . . .
C00J C 0.1371(2) 0.6413(2) 0.5335(2) 0.0614(5) Uani 1 1 d . . . . .
H00J H 0.078449 0.724490 0.547872 0.074 Uiso 1 1 calc R . . . .
C00K C 0.7624(2) 0.4834(2) -0.0118(2) 0.0691(6) Uani 1 1 d . . . . .
H00K H 0.677368 0.534510 -0.053424 0.104 Uiso 1 1 calc GR . . . .
H00L H 0.851043 0.518978 -0.078206 0.104 Uiso 1 1 calc GR . . . .
H00M H 0.766067 0.504773 0.080763 0.104 Uiso 1 1 calc GR . . . .
C00L C 0.8831(2) 0.2265(3) 0.0719(3) 0.0873(8) Uani 1 1 d . . . . .
H00N H 0.884505 0.232911 0.170563 0.131 Uiso 1 1 calc GR . . . .
H00O H 0.972289 0.269129 0.010501 0.131 Uiso 1 1 calc GR . . . .
H00P H 0.877164 0.121487 0.072586 0.131 Uiso 1 1 calc GR . . . .
loop_
_atom_site_aniso_label
_atom_site_aniso_U_11
_atom_site_aniso_U_22
_atom_site_aniso_U_33
_atom_site_aniso_U_23
_atom_site_aniso_U_13
_atom_site_aniso_U_12
O001 0.0458(6) 0.0603(7) 0.0662(8) -0.0239(6) -0.0006(5) -0.0138(5)
N002 0.0384(7) 0.0436(7) 0.0555(8) -0.0149(6) 0.0046(5) -0.0070(5)
C003 0.0373(7) 0.0314(7) 0.0580(9) -0.0147(6) -0.0017(6) -0.0007(5)
C004 0.0377(7) 0.0330(7) 0.0537(8) -0.0158(6) 0.0010(6) 0.0013(5)
C005 0.0366(7) 0.0426(8) 0.0497(8) -0.0210(6) -0.0079(6) -0.0008(6)
C006 0.0333(7) 0.0333(7) 0.0525(8) -0.0141(6) -0.0014(6) 0.0030(5)
C007 0.0402(8) 0.0539(9) 0.0492(9) -0.0243(7) -0.0065(6) -0.0002(6)
C008 0.0332(7) 0.0406(8) 0.0501(8) -0.0141(6) -0.0057(6) -0.0007(5)
C009 0.0553(9) 0.0437(8) 0.0525(9) -0.0192(7) -0.0076(7) -0.0038(7)
C00A 0.0420(8) 0.0402(8) 0.0574(9) -0.0149(7) 0.0062(7) 0.0031(6)
C00B 0.0360(7) 0.0409(8) 0.0580(9) -0.0173(7) -0.0018(6) -0.0018(6)
C00C 0.0434(8) 0.0422(8) 0.0490(8) -0.0091(6) -0.0035(6) 0.0009(6)
C00D 0.0511(9) 0.0459(9) 0.0636(10) -0.0277(7) 0.0016(7) -0.0054(7)
C00E 0.0587(10) 0.0488(9) 0.0553(9) -0.0249(7) 0.0081(7) -0.0035(7)
C00F 0.0539(9) 0.0619(11) 0.0478(9) -0.0174(7) 0.0023(7) -0.0070(8)
C00G 0.0732(12) 0.0420(9) 0.0671(11) -0.0222(8) -0.0230(9) 0.0065(8)
C00H 0.0485(9) 0.0731(12) 0.0657(11) -0.0434(10) -0.0044(8) 0.0054(8)
C00I 0.0482(9) 0.0568(10) 0.0574(10) -0.0174(8) 0.0083(7) -0.0024(7)
C00J 0.0602(11) 0.0588(11) 0.0816(13) -0.0426(10) -0.0242(9) 0.0176(8)
C00K 0.0665(12) 0.0591(11) 0.0721(12) -0.0115(9) 0.0134(10) -0.0132(9)
C00L 0.0461(10) 0.0906(16) 0.1015(17) -0.0015(13) 0.0133(10) 0.0085(10)
loop_
_atom_type_symbol
_atom_type_description
_atom_type_scat_dispersion_real
_atom_type_scat_dispersion_imag
_atom_type_scat_source
C C 0.0033 0.0016 'International Tables Vol C Tables 4.2.6.8 and 6.1.1.4'
H H 0.0000 0.0000 'International Tables Vol C Tables 4.2.6.8 and 6.1.1.4'
N N 0.0061 0.0033 'International Tables Vol C Tables 4.2.6.8 and 6.1.1.4'
O O 0.0106 0.0060 'International Tables Vol C Tables 4.2.6.8 and 6.1.1.4'
loop_
_geom_angle_atom_site_label_1
_geom_angle_atom_site_label_2
_geom_angle_atom_site_label_3
_geom_angle
_geom_angle_site_symmetry_1
_geom_angle_site_symmetry_3
_geom_angle_publ_flag
C003 N002 H002 116.6 . . ?
C003 N002 C00C 126.89(13) . . ?
C00C N002 H002 116.6 . . ?
O001 C003 N002 122.25(14) . . ?
O001 C003 C004 120.64(14) . . ?
N002 C003 C004 117.10(13) . . ?
C006 C004 C003 120.65(14) . . ?
C006 C004 C00D 119.86(14) . . ?
C00D C004 C003 119.49(14) . . ?
C007 C005 C008 109.83(13) . . ?
C009 C005 C007 121.10(14) . . ?
C009 C005 C008 129.07(14) . . ?
C004 C006 C008 119.48(13) . . ?
C004 C006 C00B 118.97(14) . . ?
C00B C006 C008 121.49(14) . . ?
C005 C007 C00F 110.45(13) . . ?
C005 C007 C00H 119.45(16) . . ?
C00H C007 C00F 130.10(16) . . ?
C005 C008 H008 108.2 . . ?
C005 C008 C00C 102.51(12) . . ?
C006 C008 C005 115.13(12) . . ?
C006 C008 H008 108.2 . . ?
C006 C008 C00C 114.27(12) . . ?
C00C C008 H008 108.2 . . ?
C005 C009 H009 120.6 . . ?
C005 C009 C00G 118.85(16) . . ?
C00G C009 H009 120.6 . . ?
C00B C00A C00I 121.29(15) . . ?
C00E C00A C00B 118.27(14) . . ?
C00E C00A C00I 120.44(15) . . ?
C006 C00B C00A 121.48(15) . . ?
C006 C00B H00B 119.3 . . ?
C00A C00B H00B 119.3 . . ?
N002 C00C C008 110.67(12) . . ?
N002 C00C H00C 110.8 . . ?
N002 C00C C00F 109.10(13) . . ?
C008 C00C H00C 110.8 . . ?
C00F C00C C008 104.43(13) . . ?
C00F C00C H00C 110.8 . . ?
C004 C00D H00D 119.8 . . ?
C00E C00D C004 120.38(16) . . ?
C00E C00D H00D 119.8 . . ?
C00A C00E H00E 119.5 . . ?
C00D C00E C00A 121.03(15) . . ?
C00D C00E H00E 119.5 . . ?
C007 C00F C00C 103.15(13) . . ?
C007 C00F H00A 111.1 . . ?
C007 C00F H00F 111.1 . . ?
C00C C00F H00A 111.1 . . ?
C00C C00F H00F 111.1 . . ?
H00A C00F H00F 109.1 . . ?
C009 C00G H00G 119.8 . . ?
C00J C00G C009 120.38(17) . . ?
C00J C00G H00G 119.8 . . ?
C007 C00H H00H 120.3 . . ?
C00J C00H C007 119.45(17) . . ?
C00J C00H H00H 120.3 . . ?
C00A C00I H00I 107.0 . . ?
C00K C00I C00A 111.66(14) . . ?
C00K C00I H00I 107.0 . . ?
C00L C00I C00A 111.31(15) . . ?
C00L C00I H00I 107.0 . . ?
C00L C00I C00K 112.62(18) . . ?
C00G C00J H00J 119.6 . . ?
C00H C00J C00G 120.77(15) . . ?
C00H C00J H00J 119.6 . . ?
C00I C00K H00K 109.5 . . ?
C00I C00K H00L 109.5 . . ?
C00I C00K H00M 109.5 . . ?
H00K C00K H00L 109.5 . . ?
H00K C00K H00M 109.5 . . ?
H00L C00K H00M 109.5 . . ?
C00I C00L H00N 109.5 . . ?
C00I C00L H00O 109.5 . . ?
C00I C00L H00P 109.5 . . ?
H00N C00L H00O 109.5 . . ?
H00N C00L H00P 109.5 . . ?
H00O C00L H00P 109.5 . . ?
loop_
_geom_bond_atom_site_label_1
_geom_bond_atom_site_label_2
_geom_bond_distance
_geom_bond_site_symmetry_2
_geom_bond_publ_flag
O001 C003 1.2369(18) . ?
N002 H002 0.8600 . ?
N002 C003 1.332(2) . ?
N002 C00C 1.456(2) . ?
C003 C004 1.489(2) . ?
C004 C006 1.391(2) . ?
C004 C00D 1.393(2) . ?
C005 C007 1.392(2) . ?
C005 C008 1.524(2) . ?
C005 C009 1.379(2) . ?
C006 C008 1.504(2) . ?
C006 C00B 1.395(2) . ?
C007 C00F 1.503(2) . ?
C007 C00H 1.394(2) . ?
C008 H008 0.9800 . ?
C008 C00C 1.541(2) . ?
C009 H009 0.9300 . ?
C009 C00G 1.391(2) . ?
C00A C00B 1.400(2) . ?
C00A C00E 1.384(2) . ?
C00A C00I 1.523(2) . ?
C00B H00B 0.9300 . ?
C00C H00C 0.9800 . ?
C00C C00F 1.539(2) . ?
C00D H00D 0.9300 . ?
C00D C00E 1.383(2) . ?
C00E H00E 0.9300 . ?
C00F H00A 0.9700 . ?
C00F H00F 0.9700 . ?
C00G H00G 0.9300 . ?
C00G C00J 1.382(3) . ?
C00H H00H 0.9300 . ?
C00H C00J 1.377(3) . ?
C00I H00I 0.9800 . ?
C00I C00K 1.503(3) . ?
C00I C00L 1.501(3) . ?
C00J H00J 0.9300 . ?
C00K H00K 0.9600 . ?
C00K H00L 0.9600 . ?
C00K H00M 0.9600 . ?
C00L H00N 0.9600 . ?
C00L H00O 0.9600 . ?
C00L H00P 0.9600 . ?
