#------------------------------------------------------------------------------
#$Date: 2020-10-04 06:13:46 +0300 (Sun, 04 Oct 2020) $
#$Revision: 257074 $
#$URL: file:///home/coder/svn-repositories/cod/cif/4/51/80/4518045.cif $
#------------------------------------------------------------------------------
#
# This file is available in the Crystallography Open Database (COD),
# http://www.crystallography.net/
#
# All data on this site have been placed in the public domain by the
# contributors.
#
data_4518045
loop_
_publ_author_name
'Gissot, Arnaud'
'Massip, St\'ephane'
'Barth\'el\'emy, Philippe'
_publ_section_title
;
 Intramolecular Michael Additions in Uridine Derivatives: Isolation of the
 Labile 5&#x2032;O-C6 Cyclonucleoside
;
_journal_issue                   38
_journal_name_full               'ACS Omega'
_journal_page_first              24746
_journal_page_last               24753
_journal_paper_doi               10.1021/acsomega.0c03348
_journal_volume                  5
_journal_year                    2020
_chemical_absolute_configuration ad
_chemical_formula_sum            'C24 H32 N4 O10 S2'
_chemical_formula_weight         600.65
_space_group_crystal_system      triclinic
_space_group_IT_number           1
_space_group_name_Hall           'P 1'
_space_group_name_H-M_alt        'P 1'
_atom_sites_solution_hydrogens   geom
_audit_creation_method           SHELXL-2014/7
_audit_update_record
;
2018-07-11 deposited with the CCDC.	2020-06-10 downloaded from the CCDC.
;
_cell_angle_alpha                70.359(3)
_cell_angle_beta                 87.896(3)
_cell_angle_gamma                80.916(3)
_cell_formula_units_Z            1
_cell_length_a                   5.6074(2)
_cell_length_b                   10.9990(4)
_cell_length_c                   11.5162(4)
_cell_measurement_reflns_used    13776
_cell_measurement_temperature    100(2)
_cell_measurement_theta_max      73.16
_cell_measurement_theta_min      4.06
_cell_volume                     660.45(4)
_computing_cell_refinement       'CrysAlisPro 1.171.38.43'
_computing_data_collection       'CrystalClear-SM Expert 2.1 (Rigaku, 2013)'
_computing_data_reduction        'CrysAlisPro 1.171.38.43'
_computing_structure_refinement  'SHELXL-2014/7 (Sheldrick, 2014)'
_computing_structure_solution    'SHELXS-2014/7 (Sheldrick, 2014)'
_diffrn_ambient_temperature      100(2)
_diffrn_detector_area_resol_mean 5.8140
_diffrn_measured_fraction_theta_full 0.992
_diffrn_measured_fraction_theta_max 0.989
_diffrn_measurement_device_type  'Rigaku PILATUS conversion'
_diffrn_measurement_method       'profile data from \w-scans'
_diffrn_radiation_type           CuK\a
_diffrn_radiation_wavelength     1.54184
_diffrn_reflns_av_R_equivalents  0.0239
_diffrn_reflns_av_unetI/netI     0.0192
_diffrn_reflns_Laue_measured_fraction_full 0.992
_diffrn_reflns_Laue_measured_fraction_max 0.989
_diffrn_reflns_limit_h_max       6
_diffrn_reflns_limit_h_min       -5
_diffrn_reflns_limit_k_max       13
_diffrn_reflns_limit_k_min       -13
_diffrn_reflns_limit_l_max       14
_diffrn_reflns_limit_l_min       -14
_diffrn_reflns_number            16635
_diffrn_reflns_point_group_measured_fraction_full 0.896
_diffrn_reflns_point_group_measured_fraction_max 0.885
_diffrn_reflns_theta_full        67.684
_diffrn_reflns_theta_max         73.356
_diffrn_reflns_theta_min         4.077
_diffrn_source                   'Rotating Anode'
_exptl_absorpt_coefficient_mu    2.400
_exptl_absorpt_correction_T_max  1.00000
_exptl_absorpt_correction_T_min  0.91588
_exptl_absorpt_correction_type   multi-scan
_exptl_absorpt_process_details   'CrysAlisPro 1.171.38.43'
_exptl_crystal_colour            colourless
_exptl_crystal_density_diffrn    1.510
_exptl_crystal_description       prism
_exptl_crystal_F_000             316
_exptl_crystal_size_max          0.100
_exptl_crystal_size_mid          0.040
_exptl_crystal_size_min          0.030
_refine_diff_density_max         0.538
_refine_diff_density_min         -0.295
_refine_diff_density_rms         0.046
_refine_ls_abs_structure_details
;
 Flack x determined using 2002 quotients [(I+)-(I-)]/[(I+)+(I-)]
 (Parsons, Flack and Wagner, Acta Cryst. B69 (2013) 249-259).
;
_refine_ls_abs_structure_Flack   0.001(8)
_refine_ls_extinction_method     none
_refine_ls_goodness_of_fit_ref   1.029
_refine_ls_hydrogen_treatment    constr
_refine_ls_matrix_type           full
_refine_ls_number_parameters     361
_refine_ls_number_reflns         4671
_refine_ls_number_restraints     3
_refine_ls_restrained_S_all      1.029
_refine_ls_R_factor_all          0.0345
_refine_ls_R_factor_gt           0.0343
_refine_ls_shift/su_max          0.000
_refine_ls_shift/su_mean         0.000
_refine_ls_structure_factor_coef Fsqd
_refine_ls_weighting_details
'w=1/[\s^2^(Fo^2^)+(0.0591P)^2^+0.2251P] where P=(Fo^2^+2Fc^2^)/3'
_refine_ls_weighting_scheme      calc
_refine_ls_wR_factor_gt          0.0943
_refine_ls_wR_factor_ref         0.0945
_reflns_Friedel_coverage         0.790
_reflns_Friedel_fraction_full    0.800
_reflns_Friedel_fraction_max     0.781
_reflns_number_gt                4629
_reflns_number_total             4671
_reflns_threshold_expression     'I > 2\s(I)'
_cod_data_source_file            ao0c03348_si_004.cif
_cod_data_source_block           ag348
_cod_depositor_comments
'Adding full bibliography for 4518045--4518047.cif.'
_cod_database_code               4518045
_shelx_shelxl_version_number     2014/7
_shelx_space_group_comment
;
The symmetry employed for this shelxl refinement is uniquely defined
by the following loop, which should always be used as a source of
symmetry information in preference to the above space-group names.
They are only intended as comments.
;
_shelx_estimated_absorpt_t_min   0.795
_shelx_estimated_absorpt_t_max   0.931
_exptl_absorpt_special_details
;
CrysAlisPro 1.171.38.43 (Rigaku Oxford Diffraction, 2015)
Empirical absorption correction using spherical harmonics,
 implemented in SCALE3 ABSPACK scaling algorithm.
;
_shelx_res_file
;

    shelx.res created by SHELXL-2014/7

TITL ag348g in P1
CELL  1.54184   5.6074  10.9990  11.5162   70.359   87.896   80.916
ZERR     1.00   0.0002   0.0004   0.0004    0.003    0.003    0.003
LATT  -1
SFAC  C    H    N    O    S
UNIT  24   32   4    10   2
MERG   2
FMAP   2
PLAN  5
SIZE     0.030   0.040   0.100
ACTA
BOND
CONF
L.S.   8
TEMP  -173.00
WGHT    0.059100    0.225100
FVAR      11.95899
MOLE    1
N1    3    0.583919    0.239654    0.638144    11.00000    0.03890    0.03521 =
         0.02852   -0.01314   -0.00885    0.00340
C2    1    0.369326    0.318629    0.606040    11.00000    0.04307    0.03099 =
         0.02713   -0.00981   -0.00926    0.00002
N3    3    0.229431    0.303115    0.516707    11.00000    0.04200    0.03336 =
         0.02915   -0.01394   -0.01107    0.00474
AFIX  43
H3    2    0.085018    0.350523    0.500988    11.00000   -1.20000
AFIX   0
C4    1    0.296105    0.220379    0.450568    11.00000    0.05359    0.03927 =
         0.03151   -0.01604   -0.00941    0.00258
C5    1    0.556194    0.161865    0.465238    11.00000    0.05408    0.05529 =
         0.03543   -0.02557   -0.00862    0.00715
AFIX  23
H5A   2    0.649623    0.222649    0.404493    11.00000   -1.20000
H5B   2    0.575962    0.079837    0.445690    11.00000   -1.20000
AFIX   0
C6    1    0.662347    0.132043    0.593128    11.00000    0.04250    0.04225 =
         0.03877   -0.02074   -0.00556    0.00463
AFIX  13
H6    2    0.842103    0.122691    0.586092    11.00000   -1.20000
AFIX   0
S7    5    0.587932   -0.021929    0.703357    11.00000    0.05154    0.03439 =
         0.05208   -0.01882   -0.01676    0.00313
C8    1    0.860884   -0.068603    0.798256    11.00000    0.04731    0.03857 =
         0.05378   -0.02219   -0.01691    0.00879
AFIX  23
H8A   2    0.852162   -0.153676    0.863348    11.00000   -1.20000
H8B   2    1.000686   -0.081399    0.746270    11.00000   -1.20000
AFIX   0
C9    1    0.907136    0.028842    0.859669    11.00000    0.03896    0.03147 =
         0.03865   -0.01236   -0.01213    0.00404
AFIX  13
H9    2    1.062435   -0.005686    0.907867    11.00000   -1.20000
AFIX   0
O10   4    0.928723    0.154895    0.768960    11.00000    0.03356    0.03828 =
         0.03603   -0.01167   -0.00471    0.00050
C11   1    0.703461    0.237281    0.751795    11.00000    0.03727    0.03069 =
         0.03012   -0.01045   -0.00985    0.00149
AFIX  13
H11   2    0.731028    0.327796    0.742078    11.00000   -1.20000
AFIX   0
O12   4    0.294403    0.401670    0.654698    11.00000    0.04576    0.03214 =
         0.03662   -0.01776   -0.01343    0.00648
O13   4    0.151489    0.202799    0.382962    11.00000    0.05504    0.05412 =
         0.04941   -0.03139   -0.01876    0.00489
C14   1    0.710510    0.057195    0.945622    11.00000    0.04453    0.03385 =
         0.03246   -0.01041   -0.00786   -0.00126
AFIX  13
H14   2    0.611901   -0.015204    0.976134    11.00000   -1.20000
AFIX   0
O15   4    0.804875    0.086138    1.044975    11.00000    0.05879    0.03959 =
         0.03501   -0.01413   -0.02000    0.00924
C16   1    0.734195    0.222053    1.028828    11.00000    0.03831    0.04395 =
         0.03757   -0.02026   -0.01460    0.00971
O17   4    0.537812    0.266696    0.943549    11.00000    0.03737    0.04462 =
         0.03452   -0.02149   -0.01285    0.01017
C18   1    0.555818    0.186304    0.868743    11.00000    0.03257    0.03687 =
         0.02929   -0.01299   -0.00763    0.00170
AFIX  13
H18   2    0.393044    0.171908    0.848309    11.00000   -1.20000
AFIX   0
C19   1    0.944073    0.295852    0.978731    11.00000    0.04203    0.05572 =
         0.05075   -0.03014   -0.01113    0.00251
AFIX  33
H19A  2    1.077940    0.263539    1.039050    11.00000   -1.50000
H19B  2    0.997540    0.282248    0.901437    11.00000   -1.50000
H19C  2    0.891956    0.389316    0.963430    11.00000   -1.50000
AFIX   0
C20   1    0.646673    0.237199    1.149552    11.00000    0.05651    0.06988 =
         0.03769   -0.02634   -0.01430    0.01337
AFIX  33
H20A  2    0.780654    0.206680    1.209788    11.00000   -1.50000
H20B  2    0.585989    0.329426    1.136681    11.00000   -1.50000
H20C  2    0.516590    0.185318    1.180519    11.00000   -1.50000
AFIX   0
N21   3    0.537627    0.663422    0.446468    11.00000    0.03476    0.03722 =
         0.02766   -0.01182   -0.00671    0.00370
C22   1    0.722633    0.568179    0.501490    11.00000    0.03440    0.03324 =
         0.02953   -0.00995   -0.00857   -0.00170
N23   3    0.806437    0.560615    0.616056    11.00000    0.03968    0.03153 =
         0.02898   -0.00900   -0.01120    0.00020
AFIX  43
H23   2    0.939398    0.505994    0.646130    11.00000   -1.20000
AFIX   0
C24   1    0.695493    0.632908    0.686050    11.00000    0.04807    0.03186 =
         0.03518   -0.01350   -0.00782   -0.00511
C25   1    0.444775    0.697370    0.643439    11.00000    0.04743    0.03991 =
         0.03724   -0.01911   -0.00240   -0.00237
AFIX  23
H25A  2    0.393309    0.765401    0.681613    11.00000   -1.20000
H25B  2    0.333999    0.631784    0.671024    11.00000   -1.20000
AFIX   0
C26   1    0.425929    0.760026    0.502834    11.00000    0.03823    0.03324 =
         0.03688   -0.01415   -0.00539    0.00127
AFIX  13
H26   2    0.512904    0.837356    0.476080    11.00000   -1.20000
AFIX   0
S27   5    0.106502    0.813508    0.461569    11.00000    0.03692    0.03903 =
         0.03699   -0.01259   -0.00237    0.00315
C28   1    0.118336    0.934453    0.309991    11.00000    0.04366    0.03634 =
         0.03921   -0.01412   -0.01009    0.00424
AFIX  23
H28A  2   -0.048109    0.977577    0.281868    11.00000   -1.20000
H28B  2    0.209808    1.002116    0.316075    11.00000   -1.20000
AFIX   0
C29   1    0.234755    0.878225    0.214502    11.00000    0.03511    0.03672 =
         0.03124   -0.00772   -0.00875    0.00217
AFIX  13
H29   2    0.226113    0.949106    0.132402    11.00000   -1.20000
AFIX   0
O30   4    0.484602    0.824730    0.247949    11.00000    0.03284    0.03741 =
         0.03329   -0.00681   -0.00573   -0.00314
C31   1    0.504487    0.689808    0.313444    11.00000    0.03879    0.03813 =
         0.02506   -0.00951   -0.00599    0.00287
AFIX  13
H31   2    0.652573    0.645580    0.284352    11.00000   -1.20000
AFIX   0
O32   4    0.821641    0.490533    0.452020    11.00000    0.04274    0.03724 =
         0.03583   -0.01638   -0.01304    0.00582
O33   4    0.794585    0.634529    0.777932    11.00000    0.05724    0.04734 =
         0.03624   -0.01890   -0.01568   -0.00062
C34   1    0.117752    0.766713    0.203983    11.00000    0.03220    0.04640 =
         0.03834   -0.02070   -0.00737    0.00061
AFIX  13
H34   2   -0.049733    0.767907    0.236999    11.00000   -1.20000
AFIX   0
O35   4    0.125688    0.764123    0.080460    11.00000    0.04941    0.05230 =
         0.03988   -0.02281   -0.01999    0.01328
C36   1    0.197930    0.631794    0.087216    11.00000    0.03579    0.05359 =
         0.04281   -0.02604   -0.01211    0.00923
O37   4    0.368658    0.580290    0.188107    11.00000    0.04516    0.04631 =
         0.03558   -0.02129   -0.01393    0.01029
C38   1    0.288169    0.642380    0.276754    11.00000    0.03747    0.03761 =
         0.03413   -0.01649   -0.00406    0.00007
AFIX  13
H38   2    0.209083    0.584591    0.349050    11.00000   -1.20000
AFIX   0
C39   1    0.324706    0.629838   -0.029516    11.00000    0.05365    0.07358 =
         0.04035   -0.02789   -0.01407    0.02012
AFIX  33
H39A  2    0.375252    0.539149   -0.025850    11.00000   -1.50000
H39B  2    0.214543    0.675505   -0.100189    11.00000   -1.50000
H39C  2    0.467012    0.673585   -0.038649    11.00000   -1.50000
AFIX   0
C40   1   -0.008712    0.553500    0.114796    11.00000    0.05092    0.08253 =
         0.07816   -0.05974   -0.00203   -0.00558
AFIX  33
H40A  2    0.051269    0.463646    0.118350    11.00000   -1.50000
H40B  2   -0.078378    0.552897    0.194250    11.00000   -1.50000
H40C  2   -0.132868    0.593245    0.049651    11.00000   -1.50000
AFIX   0
HKLF    4

REM  ag348g in P1
REM R1 =  0.0343 for    4629 Fo > 4sig(Fo)  and  0.0345 for all    4671 data
REM    361 parameters refined using      3 restraints

END

WGHT      0.0612      0.1641

REM Highest difference peak  0.538,  deepest hole -0.295,  1-sigma level  0.046
Q1    1   0.4978 -0.0664  0.7969  11.00000  0.05    0.54
Q2    1   0.6669  0.0141  0.6151  11.00000  0.05    0.25
Q3    1   0.4828  0.7478  0.5873  11.00000  0.05    0.22
Q4    1   0.8873  0.2638  1.0859  11.00000  0.05    0.21
Q5    1   0.6418  0.2015  0.8248  11.00000  0.05    0.21
;
_shelx_res_checksum              20836
_shelx_hkl_file
;
  -5 -10  -4 148.803 62.7861  38
  -5 -10  -3 748.211 115.333  11
  -5 -10  -3 744.692 105.717  38
  -5 -10  -2 230.930 69.2548  11
  -5 -10  -1 402.999 73.3450  11
  -5  -9  -8 855.552 104.055  15
  -5  -9  -7 807.382 111.330  15
  -5  -9  -6 2388.40 185.076  15
  -5  -9  -1 1875.40 174.823  11
  -5  -9   2 113.851 45.4032   6
  -5  -9   2 103.020 43.4793  37
  -5  -8  -9 3516.54 198.968  39
  -5  -8  -8 599.866 102.713  39
  -5  -8  -7 4618.91 272.677  39
  -5  -8   3 4456.28 212.514   6
  -5  -7   4 739.370 93.3271   6
  -5  -6  -9-52.7477 44.6572  13
  -5  -5 -10 2822.09 160.203  13
  -5  -5  -9 534.990 97.1216  13
  -5  -5  -8 5697.44 301.083  13
  -5  -5   7 37.1333 31.2741  20
  -5  -4 -10 65.6763 37.1295  13
  -5  -4  -9 3650.77 228.528  13
  -5  -4  -9 3591.06 219.003  26
  -5  -3 -10 1265.90 115.344  13
  -5  -3  -9 2440.76 187.749  26
  -5  -3   8 2862.21 157.192  20
  -5  -2   8 2409.13 150.434  20
  -5   0  -8 1229.66 109.763   4
  -5   1  -8 4621.38 192.691   4
  -5   2  -7 7082.20 261.222   4
  -5   2   9 2463.20 127.475   8
  -5   3  -6 1273.32 131.764  46
  -5   4  -4 5324.00 249.931  17
  -5   5  -3 3823.47 201.756  17
  -5   6  -2 2846.01 169.445  17
  -5   6   7 1430.01 98.4469  12
  -5   7  -1 1976.03 122.627  17
  -5   7   2 1224.78 101.002  10
  -4 -12  -6 348.528 58.9220  19
  -4 -12  -6 398.250 77.3337  38
  -4 -12  -5 3615.53 194.944  11
  -4 -12  -5 4106.85 215.008  38
  -4 -12  -5 3967.44 186.754  19
  -4 -12  -4 4405.46 224.585  38
  -4 -12  -4 4410.11 222.977  11
  -4 -12  -3 1638.80 133.661  38
  -4 -12  -2 636.121 82.5307  11
  -4 -11  -8 421.978 84.4634  38
  -4 -11  -8 239.707 51.7256  45
  -4 -11  -8 229.215 62.1548  39
  -4 -11  -8 338.321 73.0359  15
  -4 -11  -7 937.623 115.893  39
  -4 -11  -7 698.538 96.1389  11
  -4 -11  -7 1123.14 117.858  45
  -4 -11  -6 3360.81 216.153  19
  -4 -11  -6 3557.57 217.037  15
  -4 -11  -6 2422.07 190.116  11
  -4 -11  -6 2418.07 173.615  45
  -4 -11  -5 1948.42 186.234  11
  -4 -11  -5 2391.42 185.594  19
  -4 -11  -5 2274.28 206.693  38
  -4 -11  -4 2390.43 183.298  19
  -4 -11  -4 2268.99 200.022  11
  -4 -11  -4 2378.82 210.622  38
  -4 -11  -3 1363.37 138.334  19
  -4 -11  -3 1594.42 170.632  38
  -4 -11  -2 3168.52 230.403  11
  -4 -11  -2 3101.88 221.490  38
  -4 -11  -1 1889.61 160.329  38
  -4 -11  -1 1632.23 139.586  44
  -4 -11   0 1072.27 114.459  11
  -4 -11   0 1287.27 130.545  37
  -4 -11   0 1258.52 119.079  24
  -4 -11   0 1421.97 116.670   6
  -4 -11   1 245.799 50.9565   6
  -4 -11   1 288.298 56.0738  24
  -4 -10 -10 1965.85 136.966  15
  -4 -10 -10 2008.78 149.104  39
  -4 -10  -9 1202.14 140.847  39
  -4 -10  -9 955.223 107.463  25
  -4 -10  -8 2889.51 223.703  39
  -4 -10  -8 3244.50 227.092  15
  -4 -10  -7 2285.03 212.276  39
  -4 -10  -7 2690.40 221.123  15
  -4 -10  -6 10395.6 440.873  39
  -4 -10  -6 11841.3 463.237  15
  -4 -10  -5 2391.49 211.463  15
  -4 -10  -5 1721.32 174.608  45
  -4 -10  -3 503.869 105.474  19
  -4 -10  -2 4330.29 308.513  11
  -4 -10  -2 3984.36 287.765  38
  -4 -10  -1 1635.76 189.157  11
  -4 -10  -1 1255.23 163.268  38
  -4 -10   0 532.045 104.005  11
  -4 -10   0 417.486 87.3790  44
  -4 -10   1 1717.01 157.846  11
  -4 -10   1 2061.60 169.828  24
  -4 -10   2 2774.30 172.098  24
  -4 -10   2 3060.64 201.450  37
  -4 -10   3 2542.72 156.555  37
  -4 -10   3 2853.54 156.481   6
  -4  -9 -10 5350.42 259.655  15
  -4  -9 -10 5101.61 273.322  39
  -4  -9 -10 5305.67 251.386  25
  -4  -9  -9 2701.67 216.979  15
  -4  -9  -9 2219.54 182.853  25
  -4  -9  -9 2302.68 214.470  39
  -4  -9  -8 1497.03 178.326  15
  -4  -9  -8 1560.50 186.979  39
  -4  -9  -8 1527.18 172.400  25
  -4  -9  -7 18859.6 630.976  15
  -4  -9  -7 17387.2 624.992  39
  -4  -9  -6 2992.03 269.189  39
  -4  -9  -6 3199.26 271.138  15
  -4  -9  -5 507.850 123.271  15
  -4  -9  -4 797.625 139.023  15
  -4  -9  -2 11427.5 468.527  19
  -4  -9  -1 1300.77 187.100  38
  -4  -9   0 938.201 163.963  11
  -4  -9   1 2561.13 226.108  11
  -4  -9   2 777.629 115.343  24
  -4  -9   3 827.522 103.436  24
  -4  -9   3 917.836 126.087  37
  -4  -9   4 757.978 97.6721  37
  -4  -9   4 961.939 102.988   6
  -4  -8 -11 762.828 107.546  39
  -4  -8 -11 489.958 76.1360  15
  -4  -8 -11 613.930 85.0313  25
  -4  -8 -10 1408.58 153.120  15
  -4  -8 -10 1565.03 158.622  25
  -4  -8 -10 1242.67 125.463  13
  -4  -8  -9 140.252 80.9378  25
  -4  -8  -8 12670.9 500.675  25
  -4  -8  -7 22186.4 680.210  25
  -4  -8  -5 6220.25 397.059  39
  -4  -8   1 1154.34 180.906  11
  -4  -8   3 514.297 98.9175  24
  -4  -8   4 798.771 122.666  37
  -4  -8   4 1012.03 129.902   6
  -4  -8   5 399.622 76.0739   6
  -4  -8   5 242.413 63.9794  37
  -4  -8   6 90.7316 38.4641  36
  -4  -7 -11 149.795 71.9806  39
  -4  -7 -11 146.767 62.5385  25
  -4  -7 -11 103.442 51.1058  13
  -4  -7 -11 171.530 60.0794  15
  -4  -7 -10 5225.52 278.562  13
  -4  -7  -9 12528.3 471.175  13
  -4  -7  -8 6611.91 356.168  13
  -4  -7   4 1745.38 190.377  37
  -4  -7   5 5692.69 284.840   6
  -4  -7   5 4766.91 265.968  37
  -4  -7   6 3433.54 189.292   6
  -4  -6 -11 333.554 86.3044  13
  -4  -6 -11 429.816 80.9326  26
  -4  -6 -11 357.047 74.0687  15
  -4  -6 -10 2184.18 202.063  13
  -4  -6 -10 2205.97 202.333  26
  -4  -6  -9 7866.58 414.032  13
  -4  -6  -9 7887.88 403.099  26
  -4  -6  -8 9599.41 474.466  13
  -4  -6  -4 29163.6 1360.96   7
  -4  -6  -3 14898.4 1103.04  30
  -4  -6  -3 18164.0 1077.67   7
  -4  -6  -2 6967.47 659.829   7
  -4  -6  -2 4793.37 627.772  30
  -4  -6  -1 242.693 174.719  30
  -4  -6  -1 407.575 169.163  22
  -4  -6   0 10269.1 902.706  30
  -4  -6   0 10495.3 801.059  22
  -4  -6   5 2282.81 200.314   6
  -4  -6   6 251.805 66.9429   6
  -4  -6   7 4600.99 187.007   3
  -4  -5 -11 602.055 101.839  26
  -4  -5 -11 580.692 97.2503  13
  -4  -5 -11 520.181 87.7080  40
  -4  -5 -10 10642.2 439.945  13
  -4  -5 -10 10301.4 445.934  26
  -4  -5 -10 10036.7 417.714  40
  -4  -5  -9 4102.57 304.455  26
  -4  -5  -8 13373.4 562.719  26
  -4  -5  -5 1305.37 296.571  16
  -4  -5  -5 908.152 280.004  30
  -4  -5  -4 15392.6 985.693  16
  -4  -5  -3 26385.4 1269.59   7
  -4  -5  -3 22198.3 1297.08  30
  -4  -5  -2 18976.3 1189.73  30
  -4  -5  -1 21792.1 1131.65   7
  -4  -5  -1 18310.8 1152.03  30
  -4  -5   0 37883.2 1513.84   7
  -4  -5   0 32638.6 1511.29  30
  -4  -5   1 1711.31 355.235   7
  -4  -5   2 19400.9 1145.00   7
  -4  -5   6 3258.63 228.948   6
  -4  -5   7 1348.33 122.619   3
  -4  -5   8 739.559 72.1654   3
  -4  -5   8 550.077 91.3806  20
  -4  -5   8 598.817 93.9496  36
  -4  -4 -11 3666.12 229.936  40
  -4  -4 -11 3810.20 245.918  26
  -4  -4 -10 11869.2 468.988  40
  -4  -4 -10 12602.6 509.689  26
  -4  -4  -9 5423.01 343.406  40
  -4  -4  -5 18315.0 1185.48  30
  -4  -4  -5 20099.8 1107.48   9
  -4  -4  -5 18566.8 1119.75  16
  -4  -4  -4 6410.82 634.965  16
  -4  -4  -3 201.483 120.808  30
  -4  -4  -2 23362.5 1260.15  30
  -4  -4  -1 5751.57 623.810  30
  -4  -4  -1 6669.27 613.505   7
  -4  -4   0 1964.45 366.665  30
  -4  -4   0 2036.95 345.044   7
  -4  -4   1 2508.29 389.987   7
  -4  -4   1 1981.83 330.774  22
  -4  -4   2 7284.51 665.645   7
  -4  -4   2 5612.28 574.464  22
  -4  -4   3 10463.8 772.158  14
  -4  -4   3 11513.0 855.994   7
  -4  -4   3 9716.22 771.482  22
  -4  -4   7 3003.08 178.180   3
  -4  -4   8 47.9079 50.2491  36
  -4  -4   9 244.576 54.3186  20
  -4  -4   9 157.162 48.3355  36
  -4  -3 -11 6183.45 294.225  40
  -4  -3 -11 6636.87 317.215  26
  -4  -3 -10 1566.69 178.037  40
  -4  -3  -6 24949.9 1302.87  34
  -4  -3  -5 23755.2 1259.75  16
  -4  -3  -5 25152.8 1251.38   9
  -4  -3  -4 2975.87 430.162  16
  -4  -3  -4 3081.65 424.166   9
  -4  -3  -3 13901.9 877.933  16
  -4  -3  -3 14362.2 861.887   9
  -4  -3  -3 13077.7 942.626  30
  -4  -3  -2 115873. 2735.45  30
  -4  -3  -1 3202.92 443.837  30
  -4  -3   0 8427.72 661.981   7
  -4  -3   0 8403.40 721.373  30
  -4  -3   1 19297.7 983.887   7
  -4  -3   1 16006.9 893.519  22
  -4  -3   2 23224.6 1113.03   7
  -4  -3   2 19581.9 1022.20  22
  -4  -3   3 16141.2 953.745  22
  -4  -3   3 16411.8 939.976  14
  -4  -3   4 1134.81 266.372  22
  -4  -3   4 1134.53 261.029  14
  -4  -3   8 840.482 136.782  36
  -4  -3   9 182.032 55.8592  20
  -4  -3   9 147.767 52.9358  36
  -4  -2 -11 3560.98 208.246  13
  -4  -2 -11 8451.71 333.623  40
  -4  -2 -10 122.849 65.9092  40
  -4  -2 -10 125.605 51.9917   4
  -4  -2  -9 2763.88 200.090   4
  -4  -2  -8 3121.02 241.439   4
  -4  -2  -5 7657.77 706.981   9
  -4  -2  -5 7462.41 695.687  34
  -4  -2  -5 7487.12 713.849  16
  -4  -2  -4 25903.1 1220.88  34
  -4  -2  -4 29583.2 1327.53   9
  -4  -2  -4 28943.3 1337.08  16
  -4  -2  -3 71318.1 1968.35   9
  -4  -2  -3 71290.5 1982.46  16
  -4  -2  -2 11526.3 753.182   9
  -4  -2  -2 11180.7 744.187  16
  -4  -2  -1 13495.9 890.995  30
  -4  -2   0 17790.7 1000.43  30
  -4  -2   0 20669.3 994.478   7
  -4  -2   1 16225.9 866.339  22
  -4  -2   1 19716.7 959.349   7
  -4  -2   2 16827.4 914.066   7
  -4  -2   2 15411.2 860.461  22
  -4  -2   3 9136.43 687.034  14
  -4  -2   3 7826.75 652.523  22
  -4  -2   4 9450.11 740.101  22
  -4  -2   4 10156.9 751.498  14
  -4  -2   8 227.792 77.3875  36
  -4  -2   9 1113.80 133.027  20
  -4  -2   9 1085.61 126.351  36
  -4  -2  10 1967.31 133.731  20
  -4  -1 -11 1048.61 115.885  26
  -4  -1 -11 1085.20 114.685  40
  -4  -1 -10 147.537 51.7544   4
  -4  -1  -9 1133.53 143.166   4
  -4  -1  -8 18619.6 590.908   4
  -4  -1  -5 98506.4 2580.49   9
  -4  -1  -5 96918.0 2584.35  16
  -4  -1  -5 90496.7 2476.28  34
  -4  -1  -4 38286.7 1557.78  16
  -4  -1  -4 38859.3 1561.13   9
  -4  -1  -4 34394.8 1458.00  34
  -4  -1  -3 35195.8 1415.99   9
  -4  -1  -3 34696.2 1417.37  16
  -4  -1  -3 31650.2 1341.76  34
  -4  -1  -2 11690.9 783.460  16
  -4  -1  -2 11112.0 765.147   9
  -4  -1  -1 22411.4 1053.40   9
  -4  -1   0 8248.16 619.685   9
  -4  -1   1 1516.86 254.718  22
  -4  -1   1 1804.19 281.794   7
  -4  -1   2 24932.4 1049.83  22
  -4  -1   2 24731.1 1040.42  14
  -4  -1   3 9050.86 659.915  22
  -4  -1   3 8731.07 641.484  14
  -4  -1   4 6565.74 593.987  22
  -4  -1   4 6507.78 588.008  14
  -4  -1   5 22827.7 1140.77  14
  -4  -1   5 21274.1 1101.92  22
  -4  -1   9 479.649 92.2390  20
  -4  -1  10 1023.24 106.131  20
  -4   0 -10 877.040 118.014  13
  -4   0 -10 1538.55 124.877   4
  -4   0  -9 1530.80 171.644  46
  -4   0  -9 1216.77 131.038   4
  -4   0  -8 8968.63 444.639  46
  -4   0  -5 31043.7 1506.43  34
  -4   0  -4 43176.4 1707.62  34
  -4   0  -4 46697.3 1770.45   9
  -4   0  -3 2422.75 389.557   9
  -4   0  -3 2038.95 360.515  34
  -4   0  -2 1750.92 325.104   9
  -4   0   0 15377.9 756.706   5
  -4   0   1 11966.4 665.169  14
  -4   0   1 13528.5 747.634   5
  -4   0   2 5749.91 481.339  14
  -4   0   3 12062.4 739.421  14
  -4   0   4 4725.09 492.655  14
  -4   0   5 7145.06 624.960  14
  -4   0   9 2776.30 198.435  20
  -4   0  10 5372.29 231.699  21
  -4   0  11 2962.05 164.249  33
  -4   0  11 3404.10 144.130   8
  -4   1 -10 6825.87 231.957   4
  -4   1  -9 5957.59 268.943   4
  -4   1  -9 8301.97 358.978  46
  -4   1  -8 1795.69 167.896   4
  -4   1  -8 1467.41 186.526  46
  -4   1  -4 18107.1 1125.24   9
  -4   1  -4 19999.9 1207.47  34
  -4   1  -3 4127.94 528.433   9
  -4   1  -2 1021.67 255.409   9
  -4   1  -2 1200.90 244.346  18
  -4   1  -1 9637.40 674.406  18
  -4   1   0 21826.8 920.119   5
  -4   1   1 15596.1 812.082   5
  -4   1   2 42250.4 1400.90   5
  -4   1   3 45482.4 1488.38   5
  -4   1   3 39528.3 1318.41  14
  -4   1   4 495.856 163.446  14
  -4   1   5 13030.2 836.428  14
  -4   1  11 1516.06 104.637   8
  -4   1  11 1137.08 106.569  33
  -4   2  -9 2112.29 168.264  46
  -4   2  -9 1260.58 113.139   4
  -4   2  -8 1467.24 172.722  46
  -4   2  -8 1482.58 150.968  32
  -4   2  -8 1642.09 158.760   4
  -4   2  -7 2008.08 198.971  32
  -4   2  -3 7226.04 716.144   9
  -4   2  -2 11757.1 796.386  18
  -4   2  -1 17608.5 949.833  18
  -4   2   0 1318.53 267.915  18
  -4   2   1 9528.49 651.079   5
  -4   2   2 71116.5 1822.46   5
  -4   2   3 11872.1 777.182   5
  -4   2   3 10606.2 760.658  31
  -4   2   4 1030.51 252.418  31
  -4   2   4 1282.45 268.971   5
  -4   2   5 924.042 253.027  31
  -4   2  10 1900.60 168.512  33
  -4   2  11 73.8830 32.6296  33
  -4   2  11 167.524 43.7178   8
  -4   3  -8 3123.54 189.553  32
  -4   3  -8 3327.11 223.655  46
  -4   3  -7 608.587 107.842  32
  -4   3  -2 9778.74 755.000  18
  -4   3  -1 16382.9 959.299  18
  -4   3   0 3764.49 464.577  18
  -4   3   1 13614.0 812.330   5
  -4   3   2 19064.2 978.868   5
  -4   3   3 21473.5 1049.31   5
  -4   3   3 19480.4 1047.60  31
  -4   3   4 15662.4 912.315   5
  -4   3   4 14416.9 929.883  31
  -4   3   9 3959.48 252.301  33
  -4   3  10 5507.01 241.050   8
  -4   3  10 4589.47 239.813  33
  -4   3  11 7096.28 223.359   8
  -4   4  -8 10858.4 330.852  46
  -4   4  -8 6202.38 216.258   4
  -4   4  -7 22490.9 537.172  32
  -4   4  -7 23834.2 604.823  46
  -4   4  -6 4034.71 235.359  17
  -4   4  -5 3292.69 246.698  17
  -4   4   1 2836.97 385.493   5
  -4   4   2 11948.0 800.072   5
  -4   4   9 489.415 82.0832   8
  -4   4  10 1186.41 105.337   8
  -4   4  11 287.012 44.8357   8
  -4   5  -6 30.9791 34.5378  17
  -4   5  -5 805.483 120.383  17
  -4   5  -4 11380.7 434.676  28
  -4   5  10 2023.66 115.842   8
  -4   5  10 2004.35 141.846  27
  -4   5  11 1259.55 105.260  42
  -4   6  -6 132.968 46.5002  46
  -4   6  -5 3102.26 177.463  17
  -4   6  -4 12378.0 403.781  28
  -4   6  -3 17816.2 534.645  28
  -4   6  10 455.578 77.6479  42
  -4   6  10 458.772 67.7573  12
  -4   7  -4 401.420 65.4229  17
  -4   7  -4 756.977 87.8392  28
  -4   7  -3 1315.94 133.868  28
  -4   7  -3 997.733 116.944  17
  -4   7  -2 8174.50 350.251  28
  -4   7   0 2277.96 183.303  10
  -4   7   5 946.501 115.208  12
  -4   7   7 4860.94 256.781  42
  -4   7   8 2004.92 160.099  42
  -4   7   8 2650.31 171.935  12
  -4   7   9 577.209 78.1278  12
  -4   7   9 495.892 75.7924  42
  -4   8  -3 184.910 43.6970  17
  -4   8  -2 2413.07 159.428  28
  -4   8  -1 7343.78 303.340  28
  -4   8   0 470.406 79.3913  10
  -4   8   1 348.339 67.5134  10
  -4   8   2 3322.82 207.376  10
  -4   8   2 3397.30 211.810  35
  -4   8   3 4077.40 246.358  35
  -4   8   5 1836.16 148.648  23
  -4   8   6 4192.75 199.425  12
  -4   8   7 8854.53 281.631  12
  -4   8   8 199.894 47.5897  12
  -4   9   0 1305.56 113.178  28
  -4   9   0 1028.01 97.8971  17
  -4   9   1 3051.08 147.102  10
  -4   9   2 6477.28 234.651  10
  -4   9   3 6435.09 244.097  10
  -4   9   3 7571.86 271.919  35
  -4   9   4 565.359 83.7893  35
  -4   9   4 522.482 74.6520  10
  -4   9   5 592.088 85.5564  35
  -4   9   6 3202.14 178.084  35
  -4   9   6 3384.61 169.160  10
  -4   9   7 472.995 69.5576  35
  -4   9   7 449.412 56.3111  10
  -3 -13  -5 195.889 56.4801  38
  -3 -13  -5 229.486 53.7512  19
  -3 -13  -4 684.476 78.5333  19
  -3 -13  -4 393.531 67.1948  11
  -3 -13  -3 245.409 61.0741  38
  -3 -13  -3 267.945 53.8388  44
  -3 -12  -9 503.517 83.9364  39
  -3 -12  -9 445.693 65.5959  19
  -3 -12  -9 481.928 73.0191  45
  -3 -12  -8 8125.63 292.261  38
  -3 -12  -8 8813.22 318.545  45
  -3 -12  -8 8287.12 295.122  25
  -3 -12  -8 8251.42 333.078  39
  -3 -12  -8 8859.59 308.336  19
  -3 -12  -7 5331.04 267.970  15
  -3 -12  -7 5106.29 259.960  45
  -3 -12  -7 4405.90 254.045  39
  -3 -12  -7 4644.37 231.817  25
  -3 -12  -7 5509.93 266.083  19
  -3 -12  -7 5001.92 263.240  38
  -3 -12  -6 2566.80 196.296  45
  -3 -12  -6 2114.90 188.456  39
  -3 -12  -6 2493.52 202.599  38
  -3 -12  -6 2767.07 195.475  15
  -3 -12  -5 1110.34 151.139  38
  -3 -12  -5 857.207 122.783  11
  -3 -12  -5 923.292 125.565  45
  -3 -12  -5 1081.82 133.106  19
  -3 -12  -5 964.381 121.356  15
  -3 -12  -4 3216.68 223.150  45
  -3 -12  -4 3947.90 252.486  11
  -3 -12  -4 3905.23 244.743  19
  -3 -12  -3 4353.21 247.256  45
  -3 -12  -3 5366.15 291.819  11
  -3 -12  -3 4900.97 265.591  19
  -3 -12  -3 5193.27 300.311  38
  -3 -12  -2 749.428 102.750  45
  -3 -12  -2 735.264 108.242  19
  -3 -12  -2 866.023 127.076  38
  -3 -12  -1 490.382 97.8268  38
  -3 -12  -1 665.499 94.6987  24
  -3 -12  -1 517.202 90.2614  44
  -3 -12  -1 461.414 79.1509  19
  -3 -12  -1 658.678 93.0615  37
  -3 -12  -1 587.143 103.148  11
  -3 -12   0 743.000 94.5599  38
  -3 -12   0 1047.35 107.183  24
  -3 -12   0 891.963 99.1356  37
  -3 -12   0 867.280 100.442  11
  -3 -12   0 716.655 93.5542  44
  -3 -11 -10 2134.52 158.251  25
  -3 -11 -10 2296.96 162.980  15
  -3 -11  -9 1015.16 141.063  39
  -3 -11  -9 1061.08 122.512  38
  -3 -11  -9 1000.86 127.642  25
  -3 -11  -8 220.137 93.4080  39
  -3 -11  -8 210.719 84.2203  15
  -3 -11  -8 166.791 70.6596  25
  -3 -11  -7 1607.29 195.872  39
  -3 -11  -7 1651.43 181.143  25
  -3 -11  -7 1645.29 185.278  15
  -3 -11  -6 3762.49 275.198  45
  -3 -11  -6 3108.32 252.194  11
  -3 -11  -6 3270.35 246.200  25
  -3 -11  -6 4050.67 285.313  15
  -3 -11  -6 3569.52 282.899  39
  -3 -11  -5 3448.59 264.473  19
  -3 -11  -5 3650.82 292.889  38
  -3 -11  -5 3156.85 260.367  11
  -3 -11  -5 3480.66 269.820  45
  -3 -11  -5 3123.08 266.548  39
  -3 -11  -5 3293.11 253.690  15
  -3 -11  -4 1369.01 190.787  11
  -3 -11  -4 1372.04 167.269  15
  -3 -11  -4 1332.09 173.228  19
  -3 -11  -4 960.546 150.507  45
  -3 -11  -3 1928.41 215.078  11
  -3 -11  -3 1406.13 171.597  45
  -3 -11  -3 1889.72 221.093  38
  -3 -11  -3 1693.08 191.725  19
  -3 -11  -2 1300.70 165.595  19
  -3 -11  -2 1364.82 187.021  38
  -3 -11  -2 1131.42 149.884  45
  -3 -11  -1 204.989 90.3144  11
  -3 -11  -1 177.852 72.1404  19
  -3 -11  -1 192.480 89.9965  38
  -3 -11  -1 212.502 63.9218   6
  -3 -11  -1 166.295 82.8771  45
  -3 -11   0 3554.69 256.363  38
  -3 -11   0 4479.20 293.134  11
  -3 -11   0 3607.00 233.306  19
  -3 -11   0 4541.18 239.292   6
  -3 -11   1 3003.02 204.761  24
  -3 -11   1 2965.95 211.805  37
  -3 -11   1 2697.27 198.953  38
  -3 -11   1 2677.79 196.125  44
  -3 -11   1 2659.82 201.527  11
  -3 -11   1 3247.46 188.108   6
  -3 -11   2 3214.24 174.406   6
  -3 -11   2 3112.88 188.256  24
  -3 -11   2 2955.83 191.228  37
  -3 -11   3 37.8750 36.7714  37
  -3 -10 -11 295.231 74.3414  39
  -3 -10 -11 267.985 62.7502  15
  -3 -10 -11 171.840 55.1495  25
  -3 -10 -10 4912.62 300.922  39
  -3 -10 -10 5349.87 288.385  25
  -3 -10 -10 5736.27 293.522  15
  -3 -10  -9 12895.1 485.521  25
  -3 -10  -9 13028.4 523.444  39
  -3 -10  -9 13734.8 505.260  15
  -3 -10  -8 2187.27 220.396  25
  -3 -10  -8 2246.17 240.465  39
  -3 -10  -7 35505.8 954.005  39
  -3 -10  -7 34811.9 878.091  25
  -3 -10  -6 11568.8 547.509  39
  -3 -10  -6 11081.2 500.046  25
  -3 -10  -6 12414.5 537.388  15
  -3 -10  -5 2209.95 224.002  25
  -3 -10  -5 2442.70 242.374  15
  -3 -10  -5 2323.82 252.335  39
  -3 -10  -4 1576.73 196.746  15
  -3 -10  -4 1636.88 199.236  45
  -3 -10  -3 5305.09 352.059  19
  -3 -10  -3 4821.28 331.260  45
  -3 -10  -2 4452.25 325.111  19
  -3 -10  -2 3897.23 293.500  45
  -3 -10  -2 4411.06 346.429  38
  -3 -10  -1 1185.38 163.802  45
  -3 -10  -1 1658.79 212.678  11
  -3 -10  -1 1560.29 195.260  19
  -3 -10  -1 1654.49 212.974  38
  -3 -10   0 6592.13 361.770  19
  -3 -10   0 6700.91 401.542  11
  -3 -10   0 6270.98 388.795  38
  -3 -10   1 1899.95 202.104  11
  -3 -10   1 1561.85 184.270  38
  -3 -10   2 1297.94 166.795  37
  -3 -10   2 891.959 130.395  44
  -3 -10   2 1323.04 145.885   6
  -3 -10   2 953.315 135.782  11
  -3 -10   2 1323.19 155.593  24
  -3 -10   3 3143.06 199.921   6
  -3 -10   3 2637.62 193.968  24
  -3 -10   4 5286.84 220.981   6
  -3 -10   4 3524.81 176.045  44
  -3 -10   4 4756.39 215.489  24
  -3 -10   4 4067.68 217.280  37
  -3  -9 -12 5590.58 238.785  39
  -3  -9 -12 5663.22 239.650  25
  -3  -9 -11 5100.82 248.311  13
  -3  -9 -11 5634.82 266.699  15
  -3  -9 -10 2680.69 201.694  13
  -3  -9 -10 2944.68 241.952  25
  -3  -9 -10 3036.45 237.944  15
  -3  -9 -10 2918.13 258.226  39
  -3  -9  -9 7428.75 400.913  25
  -3  -9  -9 6839.81 386.169  15
  -3  -9  -8 17239.3 681.026  39
  -3  -9  -8 17806.1 645.740  25
  -3  -9  -8 17654.2 652.726  15
  -3  -9  -7 9127.37 474.240  25
  -3  -9  -7 9410.57 516.176  39
  -3  -9  -7 8728.70 471.554  15
  -3  -9  -6 35776.1 924.704  25
  -3  -9  -6 35181.2 986.453  39
  -3  -9  -6 36784.8 971.201  15
  -3  -9  -5 22288.5 749.568  15
  -3  -9  -5 21866.9 772.845  39
  -3  -9  -5 21783.7 718.712  25
  -3  -9  -4 21471.0 749.124  39
  -3  -9  -4 22741.0 742.221  15
  -3  -9  -3 14979.5 588.274  15
  -3  -9  -2 1501.78 196.059  45
  -3  -9  -1 9738.53 473.126  45
  -3  -9  -1 10993.0 507.205  19
  -3  -9  -1 11093.3 547.466  38
  -3  -9   0 1431.19 211.922  11
  -3  -9   0 1468.12 206.904  38
  -3  -9   0 1363.80 178.214  19
  -3  -9   1 1838.18 216.180  38
  -3  -9   1 1761.54 224.148  11
  -3  -9   2 1797.11 200.638  44
  -3  -9   2 1679.39 200.149  11
  -3  -9   3 999.635 146.577  24
  -3  -9   3 1092.73 149.531   6
  -3  -9   3 862.856 134.300  44
  -3  -9   4 4635.29 266.965   6
  -3  -9   4 4175.51 250.729  24
  -3  -9   4 4527.90 282.834  37
  -3  -9   5 1444.05 130.265  24
  -3  -9   5 1524.42 146.822  37
  -3  -9   6 488.484 63.9877   6
  -3  -8 -12 373.539 75.8003  26
  -3  -8 -12 353.322 71.0068  13
  -3  -8 -12 515.036 89.5439  39
  -3  -8 -12 478.118 90.6610  25
  -3  -8 -12 264.943 58.6863  40
  -3  -8 -11 318.980 97.1451  39
  -3  -8 -11 158.668 72.6639  13
  -3  -8 -11 270.918 79.3022  40
  -3  -8 -11 206.311 71.8269  26
  -3  -8 -11 209.534 81.3499  15
  -3  -8 -10 4498.08 329.176  39
  -3  -8 -10 4918.46 303.606  13
  -3  -8 -10 4075.12 293.746  26
  -3  -8 -10 4576.71 310.109  15
  -3  -8 -10 4826.73 320.498  25
  -3  -8  -9 1047.98 160.706  26
  -3  -8  -9 1187.60 158.151  13
  -3  -8  -8 25835.1 732.298  13
  -3  -8  -6 5975.12 385.992  25
  -3  -8  -5 14342.9 576.977  25
  -3  -8  -4 8862.00 806.658  16
  -3  -8  -4 8008.22 831.065  30
  -3  -8  -4 10314.7 516.125  39
  -3  -8  -3 915.413 159.321  15
  -3  -8  -3 788.027 232.940   7
  -3  -8  -2 6063.26 630.082   7
  -3  -8  -1 4672.84 567.694   7
  -3  -8   0 20135.2 716.167  38
  -3  -8   0 18628.4 638.037  19
  -3  -8   1 2597.64 276.068  11
  -3  -8   1 3119.01 281.423  38
  -3  -8   2 664.732 148.446  11
  -3  -8   3 1434.93 183.258  24
  -3  -8   3 1108.65 166.990  44
  -3  -8   4 5460.70 322.748  24
  -3  -8   4 5719.08 356.897  37
  -3  -8   5 1404.58 155.456  24
  -3  -8   5 1302.51 152.265   6
  -3  -8   5 1359.94 165.883  37
  -3  -8   6 2379.14 183.585  37
  -3  -8   6 2139.06 156.606  24
  -3  -8   7 963.278 77.2539   3
  -3  -8   7 818.823 82.8593   6
  -3  -7 -12 59.8499 51.6828  26
  -3  -7 -12 141.687 59.9168  13
  -3  -7 -12 78.0827 53.9947  40
  -3  -7 -12 1.73186 56.5847  25
  -3  -7 -12 48.0472 62.6951  39
  -3  -7 -11 14059.9 495.539  13
  -3  -7 -11 12543.0 486.475  40
  -3  -7 -11 13226.4 512.520  26
  -3  -7 -10 16592.6 591.675  13
  -3  -7 -10 15737.0 609.588  26
  -3  -7 -10 14884.1 576.164  40
  -3  -7  -9 12759.4 541.652  13
  -3  -7  -9 12011.1 546.927  26
  -3  -7  -9 11553.4 524.291  40
  -3  -7  -8 2521.16 251.923  26
  -3  -7  -8 2593.79 253.229  13
  -3  -7  -7 21075.7 677.900  13
  -3  -7  -6 4759.61 605.639  16
  -3  -7  -6 4874.90 621.069  30
  -3  -7  -5 14025.5 998.959  16
  -3  -7  -5 12841.1 999.869  30
  -3  -7  -4 4402.94 493.656   7
  -3  -7  -4 3352.20 479.044  16
  -3  -7  -4 3448.15 521.444  30
  -3  -7  -3 14090.8 867.318   7
  -3  -7  -3 10833.2 917.732  30
  -3  -7  -2 11960.3 964.784  30
  -3  -7  -2 15173.0 934.931   7
  -3  -7  -1 5959.89 546.421  22
  -3  -7  -1 6207.33 616.876   7
  -3  -7   0 8321.13 658.759  22
  -3  -7   0 9393.98 792.778   7
  -3  -7   1 12223.1 911.152   7
  -3  -7   1 10068.9 747.117  22
  -3  -7   1 11680.5 530.850  38
  -3  -7   2 11118.4 521.420  11
  -3  -7   3 40991.6 941.547  44
  -3  -7   4 6595.73 368.254  44
  -3  -7   4 7951.73 403.047  24
  -3  -7   5 5255.63 345.404  37
  -3  -7   5 5346.95 316.775  24
  -3  -7   5 5770.96 335.184   6
  -3  -7   6 3217.37 225.310   6
  -3  -7   6 2917.61 235.327  37
  -3  -7   6 2821.21 206.869  24
  -3  -7   7 1577.06 143.088  37
  -3  -7   7 2470.13 154.649   3
  -3  -7   7 1647.30 143.961  20
  -3  -7   7 1607.13 163.727  36
  -3  -7   7 1343.74 144.183  50
  -3  -7   7 2172.89 159.479   6
  -3  -7   8 496.901 57.6498   3
  -3  -7   8 297.977 61.0656  36
  -3  -6 -13 158.500 45.3332  13
  -3  -6 -13 292.081 57.5603  26
  -3  -6 -12 254.089 81.2491  26
  -3  -6 -12 233.183 75.9494  40
  -3  -6 -12 255.067 77.9284  39
  -3  -6 -11 14395.0 549.214  40
  -3  -6 -11 15634.9 581.342  26
  -3  -6 -11 15803.6 560.013  13
  -3  -6 -10 21903.4 717.545  13
  -3  -6 -10 21987.9 739.334  26
  -3  -6 -10 21157.6 712.565  40
  -3  -6  -9 8610.42 457.699  13
  -3  -6  -9 8923.02 472.114  40
  -3  -6  -9 8546.63 471.715  26
  -3  -6  -8 6776.58 408.129  40
  -3  -6  -8 6725.82 415.298  26
  -3  -6  -8 6839.54 402.167  13
  -3  -6  -7 3074.74 456.513   9
  -3  -6  -7 3376.71 499.765  30
  -3  -6  -7 3339.25 511.001  16
  -3  -6  -7 3837.39 308.165  26
  -3  -6  -6 29600.5 1334.20   9
  -3  -6  -6 28561.2 1427.63  30
  -3  -6  -6 28943.4 1427.70  16
  -3  -6  -5 7424.89 689.323  16
  -3  -6  -5 6731.36 684.693  30
  -3  -6  -4 14056.9 983.235  30
  -3  -6  -4 13826.0 905.548  16
  -3  -6  -4 15877.1 886.699   7
  -3  -6  -3 23421.4 1247.80  30
  -3  -6  -3 27492.8 1160.52   7
  -3  -6  -3 25591.2 1192.67  16
  -3  -6  -2 6928.66 675.897  30
  -3  -6  -2 7668.21 618.919   7
  -3  -6  -1 325.744 130.854   7
  -3  -6  -1 185.210 130.813  30
  -3  -6   0 10211.8 846.790  30
  -3  -6   0 11075.7 729.394  22
  -3  -6   1 4920.22 506.122  22
  -3  -6   2 4206.62 530.992   7
  -3  -6   2 3375.78 440.732  22
  -3  -6   3 911.399 221.268  14
  -3  -6   3 838.957 233.227  22
  -3  -6   3 1239.78 313.713   7
  -3  -6   4 13381.2 530.046  24
  -3  -6   5 6842.42 366.791  24
  -3  -6   5 6417.19 392.388  37
  -3  -6   6 8299.49 396.264   6
  -3  -6   6 7717.35 401.389  37
  -3  -6   7 3274.77 234.100  37
  -3  -6   7 4104.56 245.933   6
  -3  -6   8 169.281 61.7887  50
  -3  -6   8 211.975 57.5138   6
  -3  -6   8 220.078 54.2157   3
  -3  -6   8 295.169 70.0973  20
  -3  -6   8 254.505 77.7434  36
  -3  -6   9 1496.34 118.157  36
  -3  -5 -13 1100.84 109.467  40
  -3  -5 -13 502.135 71.8377  13
  -3  -5 -12 2468.67 198.513  13
  -3  -5 -12 2468.31 204.622  40
  -3  -5 -12 2706.62 219.792  26
  -3  -5 -11 1996.42 213.626  40
  -3  -5 -11 2169.14 227.799  26
  -3  -5 -10 9201.03 471.077  13
  -3  -5 -10 9185.60 482.899  26
  -3  -5 -10 9312.47 484.369  40
  -3  -5  -9 26117.5 818.070  40
  -3  -5  -9 27541.7 856.661  26
  -3  -5  -8 10460.8 512.687  40
  -3  -5  -7 5973.20 638.254  30
  -3  -5  -7 6341.56 651.110   9
  -3  -5  -6 28102.7 1277.64   9
  -3  -5  -6 27950.3 1329.79  16
  -3  -5  -6 27989.1 1348.77  30
  -3  -5  -5 19534.1 1057.30  16
  -3  -5  -5 19012.5 1093.61  30
  -3  -5  -5 18117.5 958.595   9
  -3  -5  -4 11645.0 844.104  30
  -3  -5  -4 11907.1 720.469   9
  -3  -5  -4 11194.7 758.944  16
  -3  -5  -3 47439.8 1488.76  16
  -3  -5  -2 37792.1 1287.57  16
  -3  -5  -2 39332.9 1338.19   7
  -3  -5  -2 37933.3 1473.19  30
  -3  -5  -1 24018.5 1035.88   7
  -3  -5  -1 21274.4 1097.70  30
  -3  -5   0 3782.25 473.714  30
  -3  -5   1 13593.9 896.049  30
  -3  -5   1 14641.4 817.835  22
  -3  -5   2 954.370 238.611   7
  -3  -5   2 891.699 217.627  22
  -3  -5   3 330.873 165.107   7
  -3  -5   3 233.665 130.388  22
  -3  -5   4 8138.77 642.207  14
  -3  -5   4 9164.44 805.053   7
  -3  -5   4 8023.86 692.653  22
  -3  -5   5 2142.74 232.263  37
  -3  -5   6 3998.29 293.770  37
  -3  -5   6 4095.96 282.281   6
  -3  -5   7 1043.73 138.582   6
  -3  -5   8 1797.65 184.336  20
  -3  -5   8 1703.83 154.782   6
  -3  -5   8 2135.26 157.250   3
  -3  -5   8 1444.72 156.017  50
  -3  -5   9 3503.18 205.900  20
  -3  -5   9 4382.02 187.995   3
  -3  -4 -13 1261.61 116.747  40
  -3  -4 -13 1258.70 116.868  26
  -3  -4 -12 6456.42 332.603  40
  -3  -4 -12 4718.96 269.747  13
  -3  -4 -11 15877.1 607.862  26
  -3  -4 -11 14708.8 585.146  13
  -3  -4 -10 22342.0 738.317  13
  -3  -4 -10 22365.9 763.461  40
  -3  -4 -10 23323.2 793.962  26
  -3  -4  -9 15965.9 654.071  40
  -3  -4  -7 18041.7 1102.09  16
  -3  -4  -7 16828.3 1052.86  34
  -3  -4  -7 17649.1 1078.52  30
  -3  -4  -7 19037.3 1123.03   9
  -3  -4  -6 7552.95 686.447  30
  -3  -4  -6 7938.44 690.751  16
  -3  -4  -6 7681.53 661.949   9
  -3  -4  -6 7463.60 655.395  34
  -3  -4  -5 16723.2 980.875  30
  -3  -4  -5 16489.2 945.737  16
  -3  -4  -5 16476.1 903.391   9
  -3  -4  -5 15618.1 885.870  34
  -3  -4  -4 35212.1 1302.62  16
  -3  -4  -4 36691.9 1261.46   9
  -3  -4  -4 34494.2 1368.42  30
  -3  -4  -4 33971.8 1194.14  34
  -3  -4  -3 7401.90 514.665   9
  -3  -4  -3 7486.50 573.481  16
  -3  -4  -2 2837.85 374.160  30
  -3  -4  -2 2433.97 309.031  16
  -3  -4  -1 4163.72 454.620  30
  -3  -4  -1 4295.31 385.083  16
  -3  -4   0 78618.1 1785.33   7
  -3  -4   0 68232.7 1851.85  30
  -3  -4   1 71503.4 1883.17  30
  -3  -4   1 72651.4 1727.34  22
  -3  -4   2 11970.8 779.603  30
  -3  -4   2 12775.1 759.699  22
  -3  -4   3 7575.38 642.221   7
  -3  -4   3 7154.18 590.373  22
  -3  -4   4 20055.2 1059.56  22
  -3  -4   4 18903.9 964.316  14
  -3  -4   4 21723.0 1143.10   7
  -3  -4   5 12898.3 889.450  22
  -3  -4   5 15492.2 997.463   7
  -3  -4   5 12779.1 828.515  14
  -3  -4   6 3297.36 266.035   6
  -3  -4   7 1242.20 161.635   6
  -3  -4   8 7663.05 314.873   3
  -3  -4   8 5417.94 313.999  50
  -3  -4   9 4652.87 293.332  36
  -3  -4   9 4168.52 262.920  20
  -3  -4  10 192.358 59.5617  36
  -3  -4  10 305.428 64.9431  20
  -3  -4  10 284.788 47.6042   3
  -3  -3 -12 1201.64 145.542  26
  -3  -3 -12 1154.49 144.035  40
  -3  -3 -12 897.231 91.1606   4
  -3  -3 -11 2246.50 224.056  13
  -3  -3 -11 2220.22 188.065   4
  -3  -3 -11 2718.66 259.151  26
  -3  -3 -11 2958.08 259.701  40
  -3  -3 -10 3773.46 255.749   4
  -3  -3  -9 7991.06 371.806   4
  -3  -3  -8 7443.58 742.069  34
  -3  -3  -8 8606.39 774.737  16
  -3  -3  -7 24011.2 1255.46  16
  -3  -3  -7 23902.8 1268.26   9
  -3  -3  -7 23233.5 1247.04  34
  -3  -3  -6 11524.2 831.086  34
  -3  -3  -6 13776.9 889.051   9
  -3  -3  -5 122419. 2468.82   9
  -3  -3  -5 121594. 2543.95  16
  -3  -3  -5 116840. 2428.78  34
  -3  -3  -4 65330.7 1677.40   9
  -3  -3  -4 63191.7 1639.14  34
  -3  -3  -4 66869.0 1763.99  16
  -3  -3  -3 43518.9 1273.65   9
  -3  -3  -3 45234.1 1357.10  16
  -3  -3  -3 41700.9 1212.93  34
  -3  -3  -2 39244.8 1189.31  16
  -3  -3  -2 40010.4 1125.16   9
  -3  -3  -2 37987.8 1312.44  30
  -3  -3  -1 12194.7 613.569  16
  -3  -3  -1 12158.7 576.496   9
  -3  -3  -1 11617.6 713.232  30
  -3  -3   0 54876.1 1523.76  30
  -3  -3   0 62211.2 1522.64   7
  -3  -3   1 61835.3 1536.06   7
  -3  -3   1 62021.6 1634.03  30
  -3  -3   2 17337.6 842.608   7
  -3  -3   2 16641.3 807.655  22
  -3  -3   2 16117.3 822.184  30
  -3  -3   3 16441.3 850.559  22
  -3  -3   3 18573.7 932.991   7
  -3  -3   4 22580.8 1019.47  14
  -3  -3   4 22249.4 1063.73  22
  -3  -3   5 8449.97 698.756   7
  -3  -3   5 7607.27 627.187  14
  -3  -3   5 6761.46 619.746  22
  -3  -3   6 5784.34 576.865  14
  -3  -3   6 5542.39 596.814  22
  -3  -3   8 9759.14 429.937  50
  -3  -3   8 13058.9 419.245   3
  -3  -3   9 1982.18 208.372  36
  -3  -3   9 1924.95 154.023   3
  -3  -3  10 1689.09 121.912   3
  -3  -3  10 1316.16 147.260  36
  -3  -2 -12 1190.90 138.568  26
  -3  -2 -12 725.021 83.2519   4
  -3  -2 -12 471.165 85.4489  13
  -3  -2 -12 1132.36 120.243  46
  -3  -2 -11 3686.26 229.132   4
  -3  -2 -11 4315.56 312.674  40
  -3  -2 -11 4435.43 286.755  46
  -3  -2 -11 4424.03 317.241  26
  -3  -2 -10 12493.1 463.629   4
  -3  -2 -10 12592.2 532.774  46
  -3  -2  -9 6652.35 344.624   4
  -3  -2  -9 6383.29 391.795  46
  -3  -2  -8 11054.1 454.718   4
  -3  -2  -8 12320.7 537.869  46
  -3  -2  -7 2705.01 433.446   9
  -3  -2  -7 2905.39 455.335  34
  -3  -2  -7 3022.15 454.399  16
  -3  -2  -7 3116.47 450.982  49
  -3  -2  -6 6145.33 607.049   9
  -3  -2  -6 6653.53 593.794  49
  -3  -2  -6 6768.79 628.459  16
  -3  -2  -6 5984.98 602.603  34
  -3  -2  -5 9397.15 700.295  16
  -3  -2  -5 9778.47 699.116   9
  -3  -2  -5 8709.44 674.207  34
  -3  -2  -5 9728.97 654.912  49
  -3  -2  -4 6260.54 540.257  34
  -3  -2  -4 6353.77 545.876  16
  -3  -2  -4 6355.77 527.277   9
  -3  -2  -3 32484.0 1103.49  34
  -3  -2  -3 34859.8 1154.39   9
  -3  -2  -3 34057.4 1173.65  16
  -3  -2  -2 33527.0 1103.51  16
  -3  -2  -2 34504.3 1086.73   9
  -3  -2  -2 31000.3 981.639  34
  -3  -2  -1 87869.4 1499.38  34
  -3  -2  -1 91167.6 1669.83  16
  -3  -2  -1 91855.2 1655.96   9
  -3  -2   0 12188.6 678.067  30
  -3  -2   0 11824.8 545.544  16
  -3  -2   0 11462.3 545.595   9
  -3  -2   1 19959.2 811.379   7
  -3  -2   1 18926.0 839.442  30
  -3  -2   2 31583.0 1063.94  30
  -3  -2   2 30058.6 1025.78  22
  -3  -2   3 89276.5 1859.34   7
  -3  -2   3 78138.8 1748.60  22
  -3  -2   4 7019.61 565.270  22
  -3  -2   4 8200.15 596.157   7
  -3  -2   4 6909.71 535.065  14
  -3  -2   5 29109.0 1197.66  14
  -3  -2   5 28407.4 1207.04  22
  -3  -2   6 18942.1 1031.09  14
  -3  -2   6 17323.0 1016.17  22
  -3  -2   8 3580.00 231.119   3
  -3  -2   9 490.122 80.9004   3
  -3  -2   9 529.730 117.940  20
  -3  -2   9 595.275 120.842  36
  -3  -2  10 2316.19 207.592  36
  -3  -2  10 2322.37 150.869   3
  -3  -2  10 2084.40 189.605  20
  -3  -2  11 1529.95 128.833  20
  -3  -2  11 1405.28 128.395  36
  -3  -1 -12 6732.04 266.964  46
  -3  -1 -12 6685.87 295.996  40
  -3  -1 -12 6621.29 279.934  26
  -3  -1 -11 623.630 97.2266   4
  -3  -1 -11 694.890 119.793  26
  -3  -1 -11 731.300 108.941  32
  -3  -1 -11 661.818 115.904  46
  -3  -1 -11 388.873 84.3137  13
  -3  -1 -10 20966.1 624.105  32
  -3  -1 -10 20878.3 682.633  46
  -3  -1 -10 21076.3 606.647   4
  -3  -1  -9 8738.10 434.857  32
  -3  -1  -9 8446.83 414.196   4
  -3  -1  -9 8211.13 456.192  46
  -3  -1  -8 5570.92 351.999  32
  -3  -1  -8 5314.07 363.574  46
  -3  -1  -7 33522.2 1495.80   9
  -3  -1  -7 31800.5 1431.73  49
  -3  -1  -7 34464.0 1518.69  16
  -3  -1  -7 31008.2 1479.28  34
  -3  -1  -6 146249. 2947.33   9
  -3  -1  -6 146017. 2961.77  16
  -3  -1  -6 140511. 2786.37  49
  -3  -1  -5 29892.7 1166.41  49
  -3  -1  -5 28660.2 1254.84  34
  -3  -1  -4 24344.2 1062.28   9
  -3  -1  -4 22643.7 923.030  49
  -3  -1  -4 23245.3 1055.13  34
  -3  -1  -3 18690.4 866.776   9
  -3  -1  -3 17358.2 844.238  34
  -3  -1  -2 26461.7 976.365   9
  -3  -1  -2 25038.1 938.590   2
  -3  -1  -1 203064. 2629.78   2
  -3  -1   0 61163.3 1478.93   2
  -3  -1   1 16997.5 776.185   2
  -3  -1   2 48842.5 1228.35  22
  -3  -1   2 47053.4 1220.11  30
  -3  -1   3 14810.0 695.555   7
  -3  -1   3 12955.6 684.943  22
  -3  -1   3 12924.7 678.021  14
  -3  -1   4 21933.1 953.340  22
  -3  -1   4 20679.8 917.588  14
  -3  -1   5 3523.10 413.143  22
  -3  -1   6 29761.4 1257.89  14
  -3  -1   6 28134.9 1246.31  22
  -3  -1   7 8711.03 714.283  14
  -3  -1   7 8220.82 719.916  22
  -3  -1   9 6820.50 383.872  20
  -3  -1   9 6396.88 381.064  36
  -3  -1  10 2328.80 202.343  20
  -3  -1  10 2123.90 204.966  36
  -3  -1  11 2267.60 170.912  36
  -3  -1  11 2402.96 146.256   8
  -3  -1  11 2402.45 173.824  20
  -3   0 -12 4145.57 203.520  40
  -3   0 -11 5692.72 298.611  46
  -3   0 -11 5534.52 308.393  26
  -3   0 -11 5959.36 275.429  32
  -3   0 -10 902.875 153.467  46
  -3   0 -10 958.407 133.814  29
  -3   0 -10 1075.71 130.791   4
  -3   0 -10 847.092 132.853  32
  -3   0  -9 5248.94 320.872  29
  -3   0  -9 4170.64 299.201   4
  -3   0  -9 4964.80 338.124  32
  -3   0  -9 5135.61 362.871  46
  -3   0  -8 2940.83 267.012  32
  -3   0  -8 2838.54 284.843  46
  -3   0  -7 21939.6 1213.86   9
  -3   0  -7 19709.9 1212.74  34
  -3   0  -7 22114.0 707.227  32
  -3   0  -7 19794.3 1156.33  49
  -3   0  -7 20433.9 1186.68  16
  -3   0  -6 13363.1 915.819   9
  -3   0  -6 12265.6 848.108  49
  -3   0  -5 8450.76 687.126   9
  -3   0  -5 7616.04 618.944  49
  -3   0  -5 7480.87 671.532  34
  -3   0  -4 12526.7 807.282  34
  -3   0  -4 12518.7 719.265  49
  -3   0  -3 26757.4 891.130  18
  -3   0  -3 27345.9 973.258  49
  -3   0  -3 27228.5 1094.56   9
  -3   0  -2 124338. 2004.52   2
  -3   0  -2 113009. 1797.87  18
  -3   0  -1 44801.6 1026.79   5
  -3   0  -1 44722.9 1166.16   2
  -3   0   0 41220.5 1108.68   2
  -3   0   1 61119.2 1409.81   2
  -3   0   2 1850.08 230.580  22
  -3   0   2 2250.91 284.371   2
  -3   0   2 2252.53 254.580  14
  -3   0   2 2274.87 248.676   7
  -3   0   3 9526.86 569.262  14
  -3   0   3 9937.39 563.925  22
  -3   0   4 12135.8 679.434  22
  -3   0   4 12175.0 691.605  14
  -3   0   5 30847.0 1162.62  14
  -3   0   5 27893.1 1092.94  22
  -3   0   6 490.007 163.198  22
  -3   0   7 25229.0 1214.90  14
  -3   0   7 24638.9 1195.32  22
  -3   0   8 1761.96 205.756  36
  -3   0   9 207.636 75.1350  20
  -3   0   9 149.824 77.5870  36
  -3   0  10 426.609 100.058  36
  -3   0  10 596.230 106.396  20
  -3   0  11 258.926 67.5078  20
  -3   0  11 318.007 64.5984   8
  -3   0  12 321.861 64.0071  33
  -3   0  12 345.041 57.2792  21
  -3   1 -11 3984.74 206.585  32
  -3   1 -11 3987.68 228.546  46
  -3   1 -11 3314.17 198.819  26
  -3   1 -10 1406.68 146.363   4
  -3   1 -10 1530.24 179.210  46
  -3   1 -10 1284.00 140.561  29
  -3   1 -10 1388.51 156.471  32
  -3   1  -9 423.841 98.8572   4
  -3   1  -9 465.477 113.455  32
  -3   1  -9 262.122 82.0594  29
  -3   1  -9 436.961 123.252  46
  -3   1  -8 11972.4 499.742  29
  -3   1  -8 11367.7 526.670  32
  -3   1  -8 11785.9 563.639  46
  -3   1  -7 37868.3 890.456  29
  -3   1  -6 38967.4 1602.12   9
  -3   1  -6 36220.9 1525.18  49
  -3   1  -6 36054.5 1593.49  34
  -3   1  -5 25382.9 1225.32   9
  -3   1  -5 22727.2 1127.47  49
  -3   1  -4 7324.63 590.240  49
  -3   1  -4 9009.58 694.077   9
  -3   1  -4 8551.89 596.362  18
  -3   1  -3 50948.2 1445.73  49
  -3   1  -3 52762.1 1375.91  18
  -3   1  -3 54839.2 1601.14   9
  -3   1  -2 45197.4 1215.43  18
  -3   1  -1 25036.5 795.192   5
  -3   1   0 246261. 2620.73  31
  -3   1   0 265495. 2693.17   5
  -3   1   1 53174.3 1077.59  22
  -3   1   1 56335.1 1152.42  14
  -3   1   2 82434.3 1414.22  22
  -3   1   2 84910.9 1518.55  14
  -3   1   3 6216.22 452.378  14
  -3   1   3 6272.51 425.752  22
  -3   1   4 20614.0 880.879  14
  -3   1   4 19468.2 801.827  22
  -3   1   5 2194.52 320.410  14
  -3   1   5 1892.02 277.550  22
  -3   1   6 12382.2 760.600  22
  -3   1   6 13006.1 820.526  14
  -3   1   7 174.032 121.905  14
  -3   1   9 5060.21 307.803  20
  -3   1  10 9450.54 390.997  20
  -3   1  11 1740.19 151.240  20
  -3   1  11 2005.88 166.946  21
  -3   1  11 1865.68 156.429   8
  -3   1  12 867.464 103.692  33
  -3   1  12 839.767 80.3913   8
  -3   1  12 971.151 96.4647  21
  -3   2 -10 677.451 114.915  46
  -3   2 -10 647.297 90.5889  29
  -3   2 -10 649.279 92.4764   4
  -3   2 -10 652.647 103.448  32
  -3   2  -9 2794.67 235.971  32
  -3   2  -9 2817.52 220.795  29
  -3   2  -9 2836.71 259.490  46
  -3   2  -9 2979.37 217.705   4
  -3   2  -8 17825.2 608.119  29
  -3   2  -8 17811.1 643.980  32
  -3   2  -8 17749.0 676.139  46
  -3   2  -7 84853.5 1349.32  29
  -3   2  -6 41300.9 854.833  17
  -3   2  -5 668.470 209.034  49
  -3   2  -5 810.691 228.747  18
  -3   2  -5 719.712 258.144  34
  -3   2  -5 1084.33 259.308   9
  -3   2  -4 53968.6 1627.70  18
  -3   2  -4 57541.0 1817.08   9
  -3   2  -3 20729.6 948.889  18
  -3   2  -3 20344.8 1027.48   9
  -3   2  -2 56293.3 1480.52  18
  -3   2  -1 17424.5 804.190  18
  -3   2  -1 16509.1 708.187   5
  -3   2   0 22670.5 826.882   5
  -3   2   0 21289.3 813.463  31
  -3   2   1 6198.70 467.868  31
  -3   2   1 7646.53 494.910   5
  -3   2   2 8808.98 584.201  31
  -3   2   2 9363.12 502.359  14
  -3   2   2 9650.62 574.958   5
  -3   2   3 36761.0 1165.85   5
  -3   2   3 34404.1 1045.98  14
  -3   2   4 8503.88 566.902  14
  -3   2   5 23631.1 1018.71  14
  -3   2   6 19328.4 982.520  14
  -3   2   7 19464.1 1043.86  14
  -3   2  10 11318.2 425.594  21
  -3   2  11 3051.75 202.095  21
  -3   2  11 3109.03 236.043  33
  -3   2  11 3024.66 192.008   8
  -3   2  12 76.3868 45.5117  33
  -3   2  12 92.8598 38.2240   8
  -3   2  12 40.5172 30.4580  21
  -3   3 -10 1885.36 139.832  32
  -3   3 -10 1134.38 98.8966   4
  -3   3  -9 5399.94 276.262  29
  -3   3  -9 5492.74 297.489  32
  -3   3  -8 6817.14 401.724  46
  -3   3  -8 8018.87 383.763   4
  -3   3  -8 7473.47 372.548  29
  -3   3  -8 7380.37 403.277  32
  -3   3  -7 14905.2 527.243  17
  -3   3  -7 16959.9 602.653  29
  -3   3  -6 2659.35 232.036  17
  -3   3  -5 30581.3 1495.15  34
  -3   3  -5 36442.9 1489.30  18
  -3   3  -5 31325.4 1448.66  49
  -3   3  -5 35973.6 1543.99   9
  -3   3  -5 36106.4 844.458  28
  -3   3  -4 29677.0 1363.22   9
  -3   3  -4 27699.3 1248.64  18
  -3   3  -4 25192.2 1260.12  49
  -3   3  -3 9508.43 698.089  18
  -3   3  -3 10183.4 767.145   9
  -3   3  -2 4804.34 475.134  18
  -3   3  -1 45476.1 1397.61  18
  -3   3  -1 45968.5 1278.37   5
  -3   3   0 53883.9 1414.72  31
  -3   3   0 54792.1 1522.95  18
  -3   3   0 58832.4 1440.33   5
  -3   3   1 3145.78 351.192  31
  -3   3   1 3451.47 356.107   5
  -3   3   2 49641.7 1352.54   5
  -3   3   2 43944.6 1339.85  31
  -3   3   3 547.507 156.095   5
  -3   3   3 413.140 150.311  31
  -3   3   4 41178.6 1415.81  31
  -3   3   4 39701.8 1305.06   5
  -3   3   4 42246.3 1257.13  14
  -3   3   5 9735.28 653.842  14
  -3   3   5 10735.3 691.149   5
  -3   3   6 149.837 101.103   5
  -3   3   6 203.172 121.967  14
  -3   3   7 4801.28 496.234   5
  -3   3   7 4034.16 487.985  14
  -3   3   9 7287.63 347.908  21
  -3   3  10 2970.24 213.226  21
  -3   3  10 2716.42 246.578  33
  -3   3  11 3242.83 237.349  33
  -3   3  11 3451.68 209.133  21
  -3   3  12 6942.01 244.609  21
  -3   3  12 6594.21 279.697  33
  -3   4  -9 7436.01 274.166  29
  -3   4  -9 7421.85 317.426  46
  -3   4  -9 7852.06 306.712  32
  -3   4  -8 492.710 105.011  32
  -3   4  -8 576.338 101.715  29
  -3   4  -8 580.836 112.419  46
  -3   4  -8 657.115 107.493   4
  -3   4  -8 382.598 75.5612  17
  -3   4  -7 1298.87 168.349  29
  -3   4  -7 1075.79 141.565  17
  -3   4  -7 1342.37 158.942  28
  -3   4  -6 15453.1 553.332  28
  -3   4  -6 15727.2 539.589  17
  -3   4  -5 23706.9 702.479  28
  -3   4  -4 989.430 269.192   9
  -3   4  -3 21620.4 1186.05   9
  -3   4  -3 22683.6 1153.54  18
  -3   4  -2 11565.0 796.768  18
  -3   4  -1 21820.0 1048.21  18
  -3   4  -1 22403.1 973.618   5
  -3   4   0 22333.1 965.642   5
  -3   4   0 21321.7 965.656  31
  -3   4   0 21567.0 1016.77  18
  -3   4   1 1580.87 266.232   5
  -3   4   1 1132.05 224.517  31
  -3   4   2 6162.57 535.017  31
  -3   4   2 6175.19 517.072   5
  -3   4   3 62878.0 1668.81   5
  -3   4   3 58002.3 1693.16  31
  -3   4   4 47179.7 1574.50  31
  -3   4   4 47556.3 1469.77   5
  -3   4   5 11879.8 827.660  31
  -3   4   5 13306.2 794.778   5
  -3   4   6 3089.57 395.830   5
  -3   4   6 2603.18 366.913  14
  -3   4   7 36240.7 1426.98  14
  -3   4   7 39505.0 1417.01   5
  -3   4   8 8834.58 438.370  33
  -3   4   9 4895.72 328.020  33
  -3   4  10 3548.26 266.625  33
  -3   4  10 3634.82 235.666   8
  -3   4  10 3458.27 223.414  21
  -3   4  11 4863.56 235.799  21
  -3   4  11 5038.58 245.076   8
  -3   4  11 4707.39 273.328  33
  -3   4  12 2264.62 141.466   8
  -3   4  12 2160.50 129.540  21
  -3   4  12 2088.85 154.675  33
  -3   5  -8 2515.44 149.004  17
  -3   5  -8 2842.15 163.164   4
  -3   5  -8 3894.72 235.427  46
  -3   5  -8 4019.10 227.015  32
  -3   5  -8 4012.51 212.210  29
  -3   5  -7 1097.93 144.630  29
  -3   5  -7 1280.29 142.415  28
  -3   5  -7 914.514 126.425   4
  -3   5  -7 956.162 116.732  17
  -3   5  -6 4262.16 304.847  17
  -3   5  -6 5114.63 307.314  28
  -3   5  -5 1747.89 195.024  28
  -3   5  -5 1540.16 184.723  17
  -3   5  -2 10623.6 808.700  18
  -3   5  -1 41779.6 1421.44   5
  -3   5   0 4720.34 478.055   5
  -3   5   0 3820.59 457.551  18
  -3   5   1 25827.2 1159.30  31
  -3   5   1 27086.8 1149.08   5
  -3   5   1 26634.8 1169.43  18
  -3   5   2 38845.6 1381.66   5
  -3   5   2 36680.7 1369.23  18
  -3   5   2 35625.6 1370.59  31
  -3   5   3 95102.8 2280.15  31
  -3   5   3 100562. 2231.43   5
  -3   5   4 36749.8 1453.08  31
  -3   5   4 42164.9 1460.99   5
  -3   5   5 8980.23 684.082   5
  -3   5   5 7607.62 681.749  31
  -3   5   6 911.809 224.350   5
  -3   5   8 19668.3 534.948   8
  -3   5   9 9676.94 431.386  33
  -3   5   9 10890.3 386.497   8
  -3   5  10 2243.27 198.726  33
  -3   5  10 2602.21 183.581   8
  -3   5  11 178.440 54.6145   8
  -3   5  11 160.592 57.7700  33
  -3   5  12-21.0617 28.7480  33
  -3   5  12 34.7359 27.8843   8
  -3   6  -7 2421.66 166.857  29
  -3   6  -7 2554.67 162.777  28
  -3   6  -7 1868.16 138.188  17
  -3   6  -7 1791.61 119.747   4
  -3   6  -7 2045.30 170.512  46
  -3   6  -6 3670.79 236.850  28
  -3   6  -6 3238.53 213.591  17
  -3   6  -5 1004.88 146.378  28
  -3   6  -5 1115.75 147.518  17
  -3   6  -4 1024.95 154.218  17
  -3   6  -4 826.468 145.243  28
  -3   6   0 16799.0 994.397  18
  -3   6   0 17838.2 990.070   5
  -3   6   1 11172.2 779.088   5
  -3   6   1 10269.1 768.658  18
  -3   6   1 11034.0 814.667  31
  -3   6   2 4717.14 506.674   5
  -3   6   2 4558.52 502.803  18
  -3   6   2 4506.83 523.641  31
  -3   6   3 25251.0 1181.32  18
  -3   6   3 27660.1 1231.15   5
  -3   6   3 25026.0 1231.35  31
  -3   6   4 49739.4 1657.32  18
  -3   6   4 49203.6 1757.70  31
  -3   6   9 8883.48 328.487   8
  -3   6  10 9525.85 322.400   8
  -3   6  11 4748.18 201.183   8
  -3   6  12 2306.03 138.678  27
  -3   6  12 2599.98 119.923   8
  -3   6  12 2332.25 144.387  42
  -3   7  -6 800.847 97.9092  29
  -3   7  -6 779.458 104.975  32
  -3   7  -6 721.820 89.8913  17
  -3   7  -6 1048.24 107.989  28
  -3   7  -6 669.894 91.8830  46
  -3   7  -5 61.9358 60.5267  28
  -3   7  -5 126.382 57.4605  17
  -3   7  -4 16561.1 534.542  28
  -3   7  -4 12554.7 478.378  17
  -3   7  -3 1903.25 196.319  41
  -3   7  -3 1999.81 208.752  28
  -3   7  -2 11714.4 482.389  41
  -3   7  -1 1753.49 171.433  10
  -3   7   0 20071.7 626.769  35
  -3   7   5 3267.50 261.948  42
  -3   7   7 6502.45 341.597  27
  -3   7   8 2584.77 215.647  27
  -3   7   9 3373.82 233.753  27
  -3   7  10 5646.29 273.849  27
  -3   7  10 5844.07 267.321  12
  -3   7  10 5059.70 288.448  42
  -3   7  11 5185.03 210.242  12
  -3   7  11 4674.66 218.527  27
  -3   8  -5 230.240 53.8193  29
  -3   8  -5 391.675 66.2338  28
  -3   8  -4 2907.27 196.980  28
  -3   8  -4 1473.98 151.789  17
  -3   8  -3 5575.29 280.106  41
  -3   8  -3 5962.50 313.771  28
  -3   8  -3 5548.85 308.974  17
  -3   8  -2 2312.35 202.828  41
  -3   8  -2 2600.71 221.784  28
  -3   8  -2 1933.06 214.774  17
  -3   8  -1 2883.87 215.786  10
  -3   8  -1 4780.38 305.906  41
  -3   8   0 6708.10 325.346  10
  -3   8   0 7693.91 374.250  35
  -3   8   1 16455.2 532.602  10
  -3   8   1 16326.3 565.293  35
  -3   8   2 13089.3 483.433  23
  -3   8   4 2627.92 201.891  12
  -3   8   5 15117.6 487.692  12
  -3   8   6 7843.63 354.051  12
  -3   8   6 7616.42 379.843  42
  -3   8   7 4714.63 269.911  12
  -3   8   7 4098.10 280.249  42
  -3   8   8 98.9433 57.3098  42
  -3   8   8 141.781 61.6093  12
  -3   8   8 126.681 59.5541  27
  -3   8   9 4579.54 238.331  27
  -3   8   9 4348.23 260.296  42
  -3   8  10 1594.79 146.920  42
  -3   8  10 1518.42 125.914  12
  -3   8  10 1454.19 125.432  27
  -3   8  11 2055.36 114.857  12
  -3   9  -3 2337.71 153.275  17
  -3   9  -3 2935.48 180.085  28
  -3   9  -2 64.5953 51.0032  17
  -3   9  -2 176.561 65.1291  41
  -3   9  -1 1397.74 140.111  17
  -3   9  -1 1359.74 148.010  41
  -3   9  -1 1244.88 148.877  28
  -3   9   0 10140.3 357.592  10
  -3   9   0 11906.8 411.100  35
  -3   9   1 11690.9 406.169  10
  -3   9   1 12790.8 458.128  35
  -3   9   2 575.976 110.853  10
  -3   9   2 663.229 120.680  35
  -3   9   2 725.161 111.567  23
  -3   9   3 7385.59 368.667  35
  -3   9   3 6715.72 337.483  10
  -3   9   3 7227.62 337.621  23
  -3   9   4 16772.9 520.593  23
  -3   9   5 7176.38 302.009  12
  -3   9   6 7046.72 302.315  12
  -3   9   7 4471.05 258.033  42
  -3   9   7 5040.24 249.462  12
  -3   9   8 5515.64 249.611  12
  -3   9   8 4628.27 253.209  42
  -3   9   9 2887.03 167.411  12
  -3   9   9 2631.58 175.989  42
  -3   9   9 2428.23 147.874  27
  -3   9  10 92.9051 36.1148  12
  -3   9  10 116.088 41.0497  42
  -3  10  -1 4611.53 211.260  28
  -3  10  -1 3191.03 157.239  17
  -3  10   0 1621.97 135.319  41
  -3  10   0 1907.57 153.514  28
  -3  10   0 1618.97 122.489  17
  -3  10   1 1505.08 131.024  17
  -3  10   1 1856.98 150.086  35
  -3  10   1 1609.12 148.373  41
  -3  10   2 5887.43 247.366  23
  -3  10   2 6009.02 279.708  35
  -3  10   3 11160.5 356.980  23
  -3  10   3 9878.62 338.228  10
  -3  10   4 6587.00 303.667  35
  -3  10   4 7327.19 294.364  10
  -3  10   4 6294.84 275.669  23
  -3  10   5 725.871 103.413  23
  -3  10   5 804.827 115.271  35
  -3  10   5 727.103 94.7140  10
  -3  10   6 2501.19 173.161  23
  -3  10   6 2567.82 150.406  12
  -3  10   6 2952.50 180.805  10
  -3  10   7 2691.53 181.338  35
  -3  10   7 2652.18 168.814  23
  -3  10   7 2453.46 149.124  10
  -3  10   7 2626.57 149.450  12
  -3  10   8 2860.55 165.241  35
  -3  10   8 2501.06 151.282  23
  -3  10   8 2680.63 142.551  12
  -3  11   2 3320.00 143.466  10
  -3  11   3 6926.79 240.846  41
  -3  11   3 7616.35 249.549  35
  -3  11   4 344.341 54.5459  10
  -3  11   4 539.945 76.2485  35
  -3  11   5 1723.13 108.794  10
  -3  11   5 2115.81 138.220  35
  -3  11   5 1912.34 118.440  23
  -2 -13  -8 767.523 90.7220  15
  -2 -13  -8 803.189 90.6775  45
  -2 -13  -7 74.6314 48.6777  45
  -2 -13  -7 63.2372 41.6164  19
  -2 -13  -7 73.4603 49.6054  15
  -2 -13  -6 855.284 104.199  19
  -2 -13  -6 816.552 104.839  38
  -2 -13  -6 863.583 108.136  15
  -2 -13  -5 2920.63 177.560  15
  -2 -13  -5 3005.92 197.598  38
  -2 -13  -5 3095.62 194.788  19
  -2 -13  -5 2876.28 194.811  45
  -2 -13  -4 4455.01 241.162  45
  -2 -13  -4 5012.01 249.518  19
  -2 -13  -4 4739.30 253.521  38
  -2 -13  -3 2563.14 176.749  45
  -2 -13  -3 2317.74 170.604  11
  -2 -13  -3 2734.11 149.224  24
  -2 -13  -3 2687.28 191.149  38
  -2 -13  -2 557.208 91.1166  11
  -2 -13  -2 771.280 95.0140  44
  -2 -13  -2 724.450 94.2603  45
  -2 -13  -2 698.361 95.1744  19
  -2 -13  -1 2928.32 161.235  44
  -2 -13  -1 2972.79 173.408  38
  -2 -12 -10 2331.45 171.445  39
  -2 -12 -10 2427.31 148.271  45
  -2 -12  -9 13642.6 421.203  15
  -2 -12  -9 12778.9 415.112  25
  -2 -12  -9 12972.6 397.022  45
  -2 -12  -8 2650.80 200.416  45
  -2 -12  -8 2513.14 225.907  39
  -2 -12  -8 2332.71 194.861  25
  -2 -12  -8 2097.24 170.740  19
  -2 -12  -7 2054.05 189.959  45
  -2 -12  -7 2054.04 184.304  38
  -2 -12  -7 1917.50 174.798  19
  -2 -12  -7 2237.89 204.290  15
  -2 -12  -7 1917.34 204.289  39
  -2 -12  -7 2054.23 195.512  25
  -2 -12  -6 6386.32 368.810  39
  -2 -12  -6 6446.08 353.768  25
  -2 -12  -6 7419.59 358.967  38
  -2 -12  -6 7308.95 348.807  19
  -2 -12  -6 7417.01 366.897  15
  -2 -12  -5 3329.56 238.816  11
  -2 -12  -5 4118.90 272.919  19
  -2 -12  -5 3985.86 281.823  38
  -2 -12  -5 2988.92 251.927  39
  -2 -12  -5 3965.45 269.137  15
  -2 -12  -5 3727.74 274.647  45
  -2 -12  -4 6745.47 362.631  45
  -2 -12  -4 6728.93 353.239  19
  -2 -12  -4 7163.84 380.699  38
  -2 -12  -4 7113.40 359.530  11
  -2 -12  -4 6835.45 339.837  15
  -2 -12  -3 1870.22 199.698  38
  -2 -12  -3 1690.53 181.831  45
  -2 -12  -3 1495.91 175.352  11
  -2 -12  -2 1129.70 150.719  11
  -2 -12  -2 1140.17 150.812  45
  -2 -12  -2 1209.24 156.792  19
  -2 -12  -1 1555.81 164.211  19
  -2 -12  -1 1434.20 156.472  45
  -2 -12  -1 1731.47 188.985  38
  -2 -12  -1 1892.06 162.082  24
  -2 -12   0 4606.69 224.092  37
  -2 -12   0 4661.49 252.372  19
  -2 -12   0 4554.66 265.828  38
  -2 -12   0 5199.46 249.561  24
  -2 -12   0 4569.45 251.379  44
  -2 -12   0 4094.27 237.415  45
  -2 -12   0 4717.37 269.011  11
  -2 -12   1 1808.01 150.385  11
  -2 -12   1 1842.79 128.590  37
  -2 -12   1 1613.25 130.178  19
  -2 -12   1 2158.74 150.454  24
  -2 -11 -11 47.4059 49.1746  39
  -2 -11 -11-17.0370 37.4732  15
  -2 -11 -11 102.087 57.0450  25
  -2 -11 -10 61.9120 69.2623  39
  -2 -11 -10 171.822 69.0514  15
  -2 -11 -10 66.1858 42.2046  19
  -2 -11  -9 12985.8 523.820  39
  -2 -11  -9 13959.7 511.761  25
  -2 -11  -8 11707.2 524.915  39
  -2 -11  -8 11213.6 493.322  25
  -2 -11  -7 2095.36 223.239  25
  -2 -11  -7 1990.69 219.788  15
  -2 -11  -7 2049.02 214.137  38
  -2 -11  -7 2083.49 240.494  39
  -2 -11  -6 1557.61 202.394  38
  -2 -11  -6 1517.52 191.132  19
  -2 -11  -6 1053.04 151.903  11
  -2 -11  -6 1611.81 203.183  15
  -2 -11  -6 1443.61 199.897  25
  -2 -11  -6 1505.75 215.429  39
  -2 -11  -5 5839.82 402.422  39
  -2 -11  -5 5447.61 347.076  11
  -2 -11  -5 5959.14 374.285  45
  -2 -11  -5 5706.99 374.768  38
  -2 -11  -5 5333.25 362.903  25
  -2 -11  -5 5772.60 359.875  19
  -2 -11  -5 6195.74 380.618  15
  -2 -11  -4 24279.3 744.374  11
  -2 -11  -4 22194.4 757.283  39
  -2 -11  -4 24740.3 781.012  38
  -2 -11  -4 23117.1 726.470  25
  -2 -11  -4 25124.8 761.695  45
  -2 -11  -4 24489.6 734.963  15
  -2 -11  -3 4713.08 311.216  15
  -2 -11  -3 4371.28 330.277  19
  -2 -11  -3 5322.13 357.967  11
  -2 -11  -3 4544.30 344.351  38
  -2 -11  -3 4475.00 328.230  45
  -2 -11  -2 6738.59 390.262  45
  -2 -11  -2 7533.03 409.505  19
  -2 -11  -2 7085.91 428.793  11
  -2 -11  -1 2702.32 251.830  19
  -2 -11  -1 2737.18 268.823  38
  -2 -11  -1 2198.70 223.223  45
  -2 -11   0 6425.49 343.430  37
  -2 -11   0 6584.00 379.003  11
  -2 -11   0 5896.46 339.672  45
  -2 -11   0 6009.78 353.643  19
  -2 -11   0 6430.76 379.802  38
  -2 -11   1 1540.18 179.962  38
  -2 -11   1 1365.81 161.510  19
  -2 -11   1 1105.77 139.372  45
  -2 -11   1 1519.07 163.742  37
  -2 -11   1 1642.89 169.696  24
  -2 -11   1 1349.58 172.991  11
  -2 -11   2 847.620 127.098  11
  -2 -11   2 842.072 114.718  19
  -2 -11   2 970.018 106.527   6
  -2 -11   2 1146.11 132.221  24
  -2 -11   2 886.637 127.995  38
  -2 -11   2 1112.19 134.968  37
  -2 -11   2 1098.84 139.858  44
  -2 -11   3 1103.70 99.3347   6
  -2 -11   3 972.873 105.595  11
  -2 -11   3 1139.19 118.224  24
  -2 -11   3 1177.23 120.181  37
  -2 -11   3 1135.88 121.849  44
  -2 -10 -12 71.1861 45.1709  25
  -2 -10 -11 7846.85 352.582  25
  -2 -10 -11 8200.85 366.481  39
  -2 -10 -11 7770.00 316.461  15
  -2 -10 -11 7136.89 300.001  13
  -2 -10 -10 4551.63 302.164  25
  -2 -10 -10 3960.72 252.401  13
  -2 -10 -10 4571.07 315.445  39
  -2 -10 -10 4473.59 286.334  15
  -2 -10  -9 6663.23 378.316  15
  -2 -10  -9 6531.14 406.962  39
  -2 -10  -8 1096.05 188.776  25
  -2 -10  -8 1325.06 199.913  15
  -2 -10  -7 12841.0 576.116  25
  -2 -10  -7 12944.3 607.140  39
  -2 -10  -6 4865.28 355.840  25
  -2 -10  -6 5394.42 377.135  15
  -2 -10  -6 5026.21 388.346  39
  -2 -10  -6 4246.79 311.400  11
  -2 -10  -5 2286.93 242.435  11
  -2 -10  -5 2182.84 245.179  15
  -2 -10  -5 2124.80 241.295  25
  -2 -10  -5 2167.52 257.807  39
  -2 -10  -4 1231.61 187.496  25
  -2 -10  -4 1407.16 211.848  11
  -2 -10  -4 1471.20 202.610  15
  -2 -10  -4 1466.84 215.499  39
  -2 -10  -3 23333.8 782.152  11
  -2 -10  -3 23339.7 801.093  38
  -2 -10  -3 23361.9 761.986  19
  -2 -10  -3 23587.7 745.253  15
  -2 -10  -3 22028.2 727.330  25
  -2 -10  -3 21653.2 763.850  39
  -2 -10  -3 23016.5 753.652  45
  -2 -10  -2 939.375 167.178  11
  -2 -10  -2 1239.44 192.478  45
  -2 -10  -2 1250.99 191.404  19
  -2 -10  -1 9314.58 476.776  45
  -2 -10  -1 9678.08 495.206  19
  -2 -10  -1 9207.02 500.098  38
  -2 -10   0 2571.96 274.379  38
  -2 -10   0 3291.46 240.566   6
  -2 -10   0 2428.57 250.775  45
  -2 -10   0 3174.67 306.922  11
  -2 -10   0 2595.24 262.902  19
  -2 -10   1 9790.76 403.691   6
  -2 -10   1 8860.19 482.371  11
  -2 -10   1 8450.88 452.831  38
  -2 -10   1 7557.20 410.688  45
  -2 -10   1 8730.99 445.549  19
  -2 -10   1 9116.62 451.206  37
  -2 -10   2 10858.8 455.810  24
  -2 -10   2 9343.94 439.832  44
  -2 -10   2 7965.67 395.114  45
  -2 -10   2 9836.83 466.272  11
  -2 -10   2 10641.5 467.042  37
  -2 -10   2 9991.83 393.474   6
  -2 -10   2 9246.59 421.419  19
  -2 -10   2 8769.97 438.677  38
  -2 -10   3 841.402 122.978  19
  -2 -10   3 1130.58 156.273  37
  -2 -10   3 831.434 129.833  38
  -2 -10   3 880.219 129.306  11
  -2 -10   3 979.396 126.977   6
  -2 -10   3 906.331 138.207  44
  -2 -10   4 328.156 82.0725  44
  -2 -10   4 280.129 71.5070   6
  -2 -10   4 257.834 78.9716  37
  -2 -10   5 388.648 68.7381  44
  -2 -10   5 573.777 75.2958   6
  -2 -10   5 444.386 74.6337  24
  -2 -10   5 482.417 81.2250  37
  -2  -9 -12 1505.94 149.367  25
  -2  -9 -12 1473.06 144.038  39
  -2  -9 -12 1481.10 142.427  13
  -2  -9 -11 1203.82 145.774  13
  -2  -9 -11 1046.74 139.661  15
  -2  -9 -11 1069.80 155.386  40
  -2  -9 -11 996.534 144.981  25
  -2  -9 -11 964.481 148.287  26
  -2  -9 -11 1149.33 159.684  39
  -2  -9 -10 15067.6 596.040  40
  -2  -9 -10 16827.4 612.350  25
  -2  -9 -10 16992.9 588.386  15
  -2  -9 -10 16463.0 631.120  39
  -2  -9 -10 15549.9 600.288  26
  -2  -9 -10 17218.8 577.713  13
  -2  -9  -9 4526.06 332.037  15
  -2  -9  -9 3846.97 312.362  26
  -2  -9  -9 4630.91 312.477  13
  -2  -9  -9 4376.41 354.664  39
  -2  -9  -9 4108.62 326.861  40
  -2  -9  -8 34947.2 956.056  25
  -2  -9  -8 35758.7 955.453  15
  -2  -9  -8 34201.1 995.480  39
  -2  -9  -8 34347.1 854.902  13
  -2  -9  -7 67558.4 1327.83  25
  -2  -9  -7 65763.5 1305.06  15
  -2  -9  -7 69061.6 1420.34  39
  -2  -9  -6 21883.0 793.513  39
  -2  -9  -6 20583.8 730.879  15
  -2  -9  -6 20329.6 725.439  25
  -2  -9  -5 11926.1 552.860  25
  -2  -9  -5 12155.0 584.184  39
  -2  -9  -5 12093.2 557.960  15
  -2  -9  -4 17900.4 696.564  39
  -2  -9  -4 18029.1 662.045  15
  -2  -9  -4 17794.6 657.676  25
  -2  -9  -4 16380.8 1144.46  16
  -2  -9  -3 10721.3 901.474  16
  -2  -9  -3 11196.7 546.745  39
  -2  -9  -3 12103.3 536.885  15
  -2  -9  -3 12012.8 534.094  25
  -2  -9  -2 17028.3 642.874  45
  -2  -9  -2 17191.9 652.162  19
  -2  -9  -1 2918.96 268.945  45
  -2  -9  -1 2720.25 265.408  19
  -2  -9  -1 2806.43 284.872  38
  -2  -9   0 10918.8 513.554  45
  -2  -9   0 11590.0 532.476  19
  -2  -9   0 10934.1 562.553  11
  -2  -9   0 11728.1 562.388  38
  -2  -9   1 6572.03 395.803  45
  -2  -9   1 6895.96 412.349  19
  -2  -9   1 6919.19 443.093  11
  -2  -9   1 6602.71 422.448  38
  -2  -9   2 7894.10 453.226  38
  -2  -9   2 8007.58 422.457  19
  -2  -9   2 8550.05 405.977   6
  -2  -9   2 7094.64 399.689  45
  -2  -9   2 7034.37 445.133  11
  -2  -9   3 1924.62 215.145  38
  -2  -9   3 1997.95 216.777  44
  -2  -9   3 2139.86 231.423  37
  -2  -9   3 1750.81 191.916  19
  -2  -9   3 1881.92 226.527  11
  -2  -9   3 2194.15 212.052   6
  -2  -9   4 3610.51 277.585  37
  -2  -9   4 3347.85 257.438  24
  -2  -9   4 3263.76 237.873   6
  -2  -9   4 3480.36 264.189  44
  -2  -9   5 1633.60 165.010  24
  -2  -9   5 1587.51 164.262  44
  -2  -9   5 1886.49 168.663   6
  -2  -9   6 4042.51 174.892   3
  -2  -9   6 3474.30 206.469  37
  -2  -9   6 4451.97 211.997   6
  -2  -9   6 2903.00 191.119  50
  -2  -9   6 3613.10 200.867  24
  -2  -9   6 2853.90 178.282  44
  -2  -8 -13 934.261 99.6069  25
  -2  -8 -13 853.615 110.051  26
  -2  -8 -13 913.133 103.723  13
  -2  -8 -12 1807.99 173.421  13
  -2  -8 -12 1752.72 185.935  40
  -2  -8 -12 1900.64 174.887  39
  -2  -8 -12 1747.26 184.377  26
  -2  -8 -12 1881.86 180.077  25
  -2  -8 -11 4698.90 316.914  39
  -2  -8 -11 4745.30 307.583  13
  -2  -8 -11 4409.04 324.256  26
  -2  -8 -11 4394.31 304.140  25
  -2  -8 -11 4023.30 314.248  40
  -2  -8 -10 4482.77 317.879  13
  -2  -8 -10 4247.29 312.451  15
  -2  -8 -10 3821.75 329.119  40
  -2  -8 -10 3957.52 323.795  26
  -2  -8 -10 4178.97 332.337  39
  -2  -8 -10 4660.03 337.236  25
  -2  -8  -9 19617.7 713.294  25
  -2  -8  -9 17979.4 697.434  40
  -2  -8  -9 19155.2 662.323  13
  -2  -8  -9 18324.4 701.114  26
  -2  -8  -9 19434.5 738.816  39
  -2  -8  -9 18537.9 673.684  15
  -2  -8  -8 16523.3 686.137  39
  -2  -8  -8 14785.1 616.930  15
  -2  -8  -8 15452.8 589.308  13
  -2  -8  -8 14736.3 629.607  40
  -2  -8  -8 15285.9 635.002  26
  -2  -8  -7 21507.4 743.895  15
  -2  -8  -7 23403.5 703.240  13
  -2  -8  -7 21446.4 738.133  25
  -2  -8  -6 2653.06 253.665  25
  -2  -8  -6 2519.99 459.825  16
  -2  -8  -6 2680.36 279.180  39
  -2  -8  -5-2.85597 62.7104  25
  -2  -8  -5 62.5833 111.926  16
  -2  -8  -5 43.4500 71.6198  15
  -2  -8  -5-25.6477 85.8818  39
  -2  -8  -4 6683.04 416.923  39
  -2  -8  -4 6409.87 381.938  25
  -2  -8  -4 6533.24 390.944  15
  -2  -8  -4 6465.68 682.709  16
  -2  -8  -3 3311.95 273.145  15
  -2  -8  -3 3512.47 284.020  25
  -2  -8  -3 3076.32 460.323  16
  -2  -8  -3 3711.23 306.894  39
  -2  -8  -2 12943.9 524.367  15
  -2  -8  -2 13311.4 836.087   7
  -2  -8  -2 11885.4 877.913  16
  -2  -8  -1 1744.21 324.283   7
  -2  -8  -1 2040.78 221.257  45
  -2  -8   0 2002.61 223.261  45
  -2  -8   0 1888.95 230.185  38
  -2  -8   0 1942.39 236.374  11
  -2  -8   0 1905.08 215.310  19
  -2  -8   0 1722.61 338.562   7
  -2  -8   1 62570.0 2059.28   7
  -2  -8   1 56514.3 1134.43  45
  -2  -8   1 59903.6 1249.68  11
  -2  -8   1 61495.5 1180.16  19
  -2  -8   1 59419.9 1231.43  38
  -2  -8   2 7661.06 459.566  11
  -2  -8   2 8315.19 460.728  38
  -2  -8   2 8040.20 427.917  45
  -2  -8   2 8000.49 429.257  19
  -2  -8   3 1851.34 229.318  11
  -2  -8   3 1959.71 216.562  19
  -2  -8   3 2219.58 240.335  44
  -2  -8   3 1913.11 215.700  45
  -2  -8   3 2377.51 240.307  24
  -2  -8   3 2322.42 233.213   6
  -2  -8   3 2089.00 234.844  38
  -2  -8   4 1427.44 195.605  44
  -2  -8   4 1909.86 213.163  24
  -2  -8   4 1861.76 201.285   6
  -2  -8   5 22412.5 697.757  37
  -2  -8   5 23221.0 671.746  24
  -2  -8   5 23177.3 649.518   6
  -2  -8   6 5173.13 293.405  44
  -2  -8   6 6044.42 309.518  24
  -2  -8   6 6268.93 335.388  37
  -2  -8   6 5316.12 289.586  36
  -2  -8   7 682.386 78.7083   3
  -2  -8   7 371.401 77.0489  44
  -2  -8   7 694.780 107.497  37
  -2  -8   7 424.774 79.9951  24
  -2  -8   7 720.178 96.5038   6
  -2  -7 -13 11120.4 400.251  40
  -2  -7 -13 10420.9 357.827  13
  -2  -7 -13 10272.5 335.809  25
  -2  -7 -12 13105.8 527.701  26
  -2  -7 -12 13119.2 523.250  40
  -2  -7 -12 13935.3 489.688  25
  -2  -7 -11 4255.07 311.427  39
  -2  -7 -11 3975.78 328.279  26
  -2  -7 -11 3916.10 315.990  40
  -2  -7 -11 4482.16 313.604  13
  -2  -7 -10 5914.47 402.432  40
  -2  -7 -10 5673.20 392.601  26
  -2  -7 -10 5727.12 351.078  15
  -2  -7 -10 6213.90 386.118  13
  -2  -7  -9 11700.6 567.633  26
  -2  -7  -9 11744.9 566.424  40
  -2  -7  -9 12519.2 549.583  13
  -2  -7  -8 18905.9 695.280  26
  -2  -7  -8 17274.5 1153.58  16
  -2  -7  -8 18323.6 690.052  40
  -2  -7  -8 19100.7 664.409  13
  -2  -7  -8 18073.6 1176.24   9
  -2  -7  -7 26463.7 1348.65   9
  -2  -7  -7 28972.7 835.840  40
  -2  -7  -7 29260.8 790.628  13
  -2  -7  -7 27524.2 1421.24  16
  -2  -7  -7 28079.1 828.945  26
  -2  -7  -6 18258.3 1122.15  16
  -2  -7  -6 17958.1 1045.46   9
  -2  -7  -6 16760.9 1042.40  30
  -2  -7  -5 4333.87 541.333  30
  -2  -7  -5 4816.13 558.730  16
  -2  -7  -4 7354.24 697.500  30
  -2  -7  -4 7807.30 682.751  16
  -2  -7  -4 7855.92 557.539   7
  -2  -7  -4 9002.62 426.397  25
  -2  -7  -3 13119.2 925.899  30
  -2  -7  -3 14231.3 771.136   7
  -2  -7  -3 13796.4 886.698  16
  -2  -7  -2 66.3869 101.712  16
  -2  -7  -2 10.7900 68.5105   7
  -2  -7  -1 22656.4 906.952  22
  -2  -7  -1 28350.4 1177.32   7
  -2  -7   0 84941.1 1295.61  45
  -2  -7   0 91306.6 1334.19  19
  -2  -7   1 22759.0 680.759  45
  -2  -7   1 22131.8 1150.58   7
  -2  -7   1 22062.7 672.946  19
  -2  -7   1 21980.1 717.146  38
  -2  -7   2 7862.74 456.230  11
  -2  -7   2 8876.31 780.940   7
  -2  -7   2 8016.76 418.532  19
  -2  -7   2 7579.20 426.125  38
  -2  -7   3 19276.6 678.293  11
  -2  -7   3 19444.3 1179.67   7
  -2  -7   4 25438.1 803.836  37
  -2  -7   4 26851.0 753.733   6
  -2  -7   4 24402.3 748.981  44
  -2  -7   4 25881.2 755.295  24
  -2  -7   5 2185.13 224.542  24
  -2  -7   5 2039.63 220.292  44
  -2  -7   5 2089.41 228.889  37
  -2  -7   6 4395.62 299.117  44
  -2  -7   6 5231.72 343.074  37
  -2  -7   6 5531.00 325.106   6
  -2  -7   6 5082.19 317.423  24
  -2  -7   7 2844.83 229.612  36
  -2  -7   7 2543.00 202.791  44
  -2  -7   7 2994.43 236.323  37
  -2  -7   7 3105.43 229.282  24
  -2  -7   8 1457.85 146.895  50
  -2  -7   8 1684.91 145.036  36
  -2  -7   8 1698.09 146.084  37
  -2  -7   8 1705.99 137.396  24
  -2  -6 -13 1726.80 143.997  25
  -2  -6 -13 1780.46 158.428  13
  -2  -6 -13 1885.11 177.019  26
  -2  -6 -13 1831.52 170.624  40
  -2  -6 -12 3270.77 267.371  40
  -2  -6 -12 2936.96 248.213  13
  -2  -6 -11 3722.23 322.330  26
  -2  -6 -11 3638.20 313.000  40
  -2  -6 -10 7868.87 475.506  26
  -2  -6 -10 7848.40 443.201  13
  -2  -6 -10 7993.27 466.594  40
  -2  -6  -9 7171.88 425.937  13
  -2  -6  -9 6817.18 428.486  40
  -2  -6  -9 6808.94 436.797  26
  -2  -6  -8 42893.6 1761.87  16
  -2  -6  -8 43202.4 1040.07  40
  -2  -6  -8 43539.2 996.733  13
  -2  -6  -8 42579.7 1044.20  26
  -2  -6  -8 42671.3 1765.87   9
  -2  -6  -7 44684.0 1015.75  40
  -2  -6  -7 41478.8 1669.32  16
  -2  -6  -7 42867.5 1001.79  26
  -2  -6  -7 45243.0 978.430  13
  -2  -6  -7 42209.1 1656.37   9
  -2  -6  -6 21314.8 1091.47  30
  -2  -6  -6 24529.3 688.091  13
  -2  -6  -6 21406.0 1089.90   9
  -2  -6  -6 23401.8 700.552  26
  -2  -6  -5 58820.2 1815.22  16
  -2  -6  -5 54637.2 1737.80  30
  -2  -6  -5 59551.4 1680.10   9
  -2  -6  -4 25576.6 1013.39   9
  -2  -6  -4 27136.2 990.098   7
  -2  -6  -4 25904.8 1153.24  16
  -2  -6  -4 25619.5 1165.90  30
  -2  -6  -3 4108.40 385.425   7
  -2  -6  -3 4021.09 461.722  30
  -2  -6  -3 3899.58 444.020  16
  -2  -6  -2 20324.9 878.310   7
  -2  -6  -2 20570.0 961.744  16
  -2  -6  -2 19598.1 1024.03  30
  -2  -6  -1 24396.4 985.408   7
  -2  -6  -1 22197.5 977.488  16
  -2  -6  -1 21393.6 1076.33  30
  -2  -6   0 63330.0 1481.15  22
  -2  -6   0 73964.6 1826.18   7
  -2  -6   1 13314.0 714.517  22
  -2  -6   1 13569.9 824.066   7
  -2  -6   2 2366.78 228.826  38
  -2  -6   2 2442.08 330.344  22
  -2  -6   2 2681.60 247.596  11
  -2  -6   2 3322.17 444.805   7
  -2  -6   3 12409.3 899.815   7
  -2  -6   3 11895.6 769.022  22
  -2  -6   4 5159.51 600.021   7
  -2  -6   4 5794.19 356.787  24
  -2  -6   4 4940.27 520.318  22
  -2  -6   4 5733.48 356.809  44
  -2  -6   5 35120.0 861.415   6
  -2  -6   5 31700.3 838.480  44
  -2  -6   5 33579.0 846.627  24
  -2  -6   5 32984.1 891.359  37
  -2  -6   6 3774.59 302.213  37
  -2  -6   6 3909.97 294.983  44
  -2  -6   6 3450.19 278.288  24
  -2  -6   7 1389.61 172.368  44
  -2  -6   7 1745.51 181.942   6
  -2  -6   7 1568.08 176.408  24
  -2  -6   7 1516.55 185.255  37
  -2  -6   7 1288.93 163.729  20
  -2  -6   8 2078.03 179.681  24
  -2  -6   8 2246.94 178.832   6
  -2  -6   8 1849.25 189.461  36
  -2  -6   8 2064.83 191.987  37
  -2  -6   8 1651.02 158.189  44
  -2  -6   8 1773.91 163.956  20
  -2  -6   8 1682.12 181.379  50
  -2  -6   8 2267.15 170.949   3
  -2  -6   9 1932.30 137.949   6
  -2  -6   9 1626.45 145.600  50
  -2  -6   9 1735.58 149.914  36
  -2  -5 -13 2602.89 208.389  26
  -2  -5 -13 1896.21 162.428  13
  -2  -5 -12 1504.01 188.219  26
  -2  -5 -12 1405.28 175.909  13
  -2  -5 -11 392.186 97.6798  13
  -2  -5 -11 350.226 115.037  40
  -2  -5 -10 1502.43 216.489  40
  -2  -5 -10 1718.13 221.295  13
  -2  -5 -10 1567.41 215.691  26
  -2  -5  -9 10747.0 533.572  40
  -2  -5  -9 9425.74 857.275   9
  -2  -5  -9 11648.3 562.051  26
  -2  -5  -9 10739.0 879.393  16
  -2  -5  -8 24346.3 747.978  13
  -2  -5  -8 23466.4 1240.57  16
  -2  -5  -8 24594.1 1306.92   9
  -2  -5  -8 24213.3 777.157  26
  -2  -5  -8 24604.6 777.007  40
  -2  -5  -7 11381.3 499.964  40
  -2  -5  -7 10142.3 780.330   9
  -2  -5  -7 9860.38 764.785  16
  -2  -5  -7 10685.7 494.116  26
  -2  -5  -6 73889.0 1937.72   9
  -2  -5  -6 73192.3 1895.61  30
  -2  -5  -6 72099.0 1954.56  16
  -2  -5  -5 118582. 2364.64  16
  -2  -5  -5 120483. 2294.30   9
  -2  -5  -5 119823. 2371.30  30
  -2  -5  -4 49404.8 1333.96   9
  -2  -5  -4 47908.8 1423.95  16
  -2  -5  -4 48749.1 1482.46  30
  -2  -5  -3 26027.4 1058.99  30
  -2  -5  -3 24377.4 857.806   9
  -2  -5  -3 25036.7 998.458  16
  -2  -5  -2 23765.0 1030.87  30
  -2  -5  -2 26243.9 996.451  16
  -2  -5  -2 26687.8 950.410   2
  -2  -5  -2 26796.5 918.962   7
  -2  -5  -1 13250.9 656.973   7
  -2  -5  -1 12327.4 652.986  16
  -2  -5  -1 14331.9 719.635   2
  -2  -5  -1 12517.4 747.608  30
  -2  -5   0 8776.65 562.256   7
  -2  -5   0 9649.10 551.378  16
  -2  -5   0 8502.51 639.823  30
  -2  -5   1 70273.9 1527.72  22
  -2  -5   1 73841.3 1761.11   7
  -2  -5   2 36769.0 1189.93  22
  -2  -5   3 4538.91 504.168   7
  -2  -5   3 4258.33 444.809  22
  -2  -5   4 5138.47 324.094  44
  -2  -5   4 4789.49 501.356  22
  -2  -5   5 4763.14 319.990  44
  -2  -5   5 4566.75 559.394   7
  -2  -5   5 4965.82 340.872  37
  -2  -5   5 4463.19 517.648  22
  -2  -5   5 4653.39 311.047  24
  -2  -5   6 18737.1 674.647  37
  -2  -5   6 17625.0 612.632  44
  -2  -5   6 19004.8 627.280  24
  -2  -5   7 10669.2 465.734  44
  -2  -5   7 10947.1 497.910  37
  -2  -5   7 10796.3 465.406  24
  -2  -5   7 11498.8 465.341   6
  -2  -5   8 7040.30 353.078  44
  -2  -5   8 8064.03 396.212  37
  -2  -5   8 7958.09 370.732  24
  -2  -5   8 7436.93 398.327  50
  -2  -5   8 8627.71 379.217   6
  -2  -5   8 8171.65 443.619  36
  -2  -5   8 8302.85 403.636  20
  -2  -5   9 1694.20 171.925  50
  -2  -5   9 1873.38 164.065  37
  -2  -5   9 1952.36 192.845  36
  -2  -5   9 2045.91 164.329   6
  -2  -5   9 1741.62 160.786  20
  -2  -5  10 521.796 76.8151  20
  -2  -5  10 591.357 86.7955  36
  -2  -5  10 514.692 82.5913  50
  -2  -4 -13 1888.76 131.516   4
  -2  -4 -13 2360.80 199.542  40
  -2  -4 -13 2501.17 200.344  26
  -2  -4 -12 174.368 94.8246  26
  -2  -4 -12 33.0606 36.3241   4
  -2  -4 -12 27.3527 60.2205  13
  -2  -4 -12 62.1443 73.5278  40
  -2  -4 -11 14665.5 620.342  26
  -2  -4 -11 14075.9 573.727  46
  -2  -4 -11 13911.6 533.538  32
  -2  -4 -11 13992.3 479.985   4
  -2  -4 -11 14463.1 581.695  13
  -2  -4 -10 48969.6 1115.72  13
  -2  -4 -10 46367.5 991.654  32
  -2  -4 -10 47513.2 908.712   4
  -2  -4 -10 45844.4 1055.50  46
  -2  -4 -10 47375.1 1145.08  40
  -2  -4  -9 30726.8 1509.82   9
  -2  -4  -9 33418.3 945.722  40
  -2  -4  -9 31930.2 1457.24  16
  -2  -4  -8 1698.75 325.080  16
  -2  -4  -7 50914.8 1689.02   9
  -2  -4  -7 50141.4 1677.86  16
  -2  -4  -6 15660.1 859.399   9
  -2  -4  -6 14972.2 855.525  16
  -2  -4  -6 13713.6 821.901  34
  -2  -4  -6 13867.4 789.995  30
  -2  -4  -5 10431.2 654.888  30
  -2  -4  -5 9835.65 634.602  34
  -2  -4  -5 9892.73 623.850   9
  -2  -4  -4 19150.8 798.834  34
  -2  -4  -4 19778.9 871.820  30
  -2  -4  -4 18649.2 788.613   9
  -2  -4  -4 19287.7 851.777  16
  -2  -4  -3 69465.3 1513.46  16
  -2  -4  -3 70869.6 1388.47   9
  -2  -4  -3 67165.2 1330.52  34
  -2  -4  -3 68641.7 1590.34  30
  -2  -4  -3 70182.7 1502.56   2
  -2  -4  -2 112898. 1834.97   2
  -2  -4  -2 112411. 1817.80  16
  -2  -4  -2 112943. 1553.31   9
  -2  -4  -1 58251.7 1448.66  30
  -2  -4  -1 57612.6 1331.39   2
  -2  -4  -1 56431.7 1244.30  16
  -2  -4  -1 58464.4 1279.12   7
  -2  -4   0 89704.4 1823.99  30
  -2  -4   0 97167.3 1685.82   7
  -2  -4   0 98704.7 1762.64   2
  -2  -4   0 92384.8 1500.55  16
  -2  -4   1 105750. 1722.38  22
  -2  -4   1 103719. 1995.83  30
  -2  -4   2 151068. 2437.87   7
  -2  -4   2 141436. 2142.27  22
  -2  -4   3 151440. 2577.74   7
  -2  -4   3 139188. 2324.27  22
  -2  -4   4 33773.7 1121.26  14
  -2  -4   4 33652.0 1229.20  22
  -2  -4   5 7811.11 653.063  22
  -2  -4   5 8324.42 421.955  37
  -2  -4   5 8402.35 606.833  14
  -2  -4   5 8141.56 395.216  44
  -2  -4   5 8574.89 397.920  24
  -2  -4   6 32927.6 806.443   6
  -2  -4   6 33404.0 861.630  37
  -2  -4   6 34537.8 1511.92   7
  -2  -4   6 33134.8 810.721  24
  -2  -4   6 32948.5 1428.52  22
  -2  -4   6 34223.3 825.341  44
  -2  -4   7 4223.34 293.570  44
  -2  -4   7 4412.65 297.510   6
  -2  -4   7 4094.32 290.984  24
  -2  -4   7 4490.66 318.640  37
  -2  -4   8 693.803 141.869  50
  -2  -4   8 858.577 132.123   6
  -2  -4   8 674.922 134.445  20
  -2  -4   8 823.956 137.274  24
  -2  -4   8 894.754 146.657  37
  -2  -4   9 3419.53 284.329  36
  -2  -4   9 3925.63 237.788   6
  -2  -4   9 3405.98 257.558  20
  -2  -4   9 3416.38 265.851  50
  -2  -4   9 4313.41 242.643   3
  -2  -4  10 3775.99 252.562  36
  -2  -4  10 3129.60 216.965  50
  -2  -4  10 3642.66 224.025  20
  -2  -4  11 3110.43 155.919  20
  -2  -4  11 3350.83 181.525  36
  -2  -3 -13 1461.00 145.483  26
  -2  -3 -13 1211.14 108.080   4
  -2  -3 -13 1478.31 151.783  40
  -2  -3 -12 5175.61 277.614   4
  -2  -3 -12 6042.71 344.809  46
  -2  -3 -12 6426.88 373.882  40
  -2  -3 -12 6331.97 366.711  26
  -2  -3 -11 406.308 102.732  32
  -2  -3 -11 241.725 77.6235   4
  -2  -3 -11 372.103 119.460  40
  -2  -3 -11 225.749 78.6548  29
  -2  -3 -11 379.506 119.366  26
  -2  -3 -11 253.948 104.511  13
  -2  -3 -11 279.504 107.541  46
  -2  -3 -10 66909.5 1207.67  29
  -2  -3 -10 67343.6 1307.39  46
  -2  -3 -10 65778.5 1315.81  13
  -2  -3 -10 66821.2 1214.05  32
  -2  -3 -10 67448.0 1108.72   4
  -2  -3  -9 5990.67 387.619  46
  -2  -3  -9 5351.39 595.949  16
  -2  -3  -9 6266.00 368.824  32
  -2  -3  -9 6587.89 693.766   9
  -2  -3  -9 6014.15 327.737   4
  -2  -3  -9 6429.00 367.976  29
  -2  -3  -8 4339.12 312.772  46
  -2  -3  -8 4097.04 259.605   4
  -2  -3  -8 3704.65 496.789   9
  -2  -3  -8 3898.48 484.045  16
  -2  -3  -7 14464.9 877.554  16
  -2  -3  -7 13680.9 881.055  34
  -2  -3  -6 19750.9 952.082   9
  -2  -3  -6 20285.3 959.985  16
  -2  -3  -6 19515.0 963.258  34
  -2  -3  -5 14213.8 746.441  16
  -2  -3  -5 12502.7 701.399  34
  -2  -3  -5 13671.4 720.534   9
  -2  -3  -4 51705.9 1325.80  16
  -2  -3  -4 55189.5 1339.45   2
  -2  -3  -4 53988.3 1315.27   9
  -2  -3  -4 51208.9 1283.75  34
  -2  -3  -3 31086.6 895.881   9
  -2  -3  -3 29150.2 883.884  34
  -2  -3  -3 30796.9 958.071  16
  -2  -3  -3 31475.1 959.154   2
  -2  -3  -2 75234.0 1229.36  34
  -2  -3  -2 72921.1 1387.76   2
  -2  -3  -2 76709.4 1394.58  16
  -2  -3  -2 75694.3 1257.77   9
  -2  -3  -1 96431.0 1672.80  30
  -2  -3  -1 99637.0 1615.32   2
  -2  -3  -1 95431.3 1449.17  16
  -2  -3  -1 95460.4 1129.24  34
  -2  -3  -1 97442.4 1245.31   9
  -2  -3   0 2444.69 259.559   2
  -2  -3   0 2926.33 182.324   9
  -2  -3   1 12379.4 576.259   7
  -2  -3   1 11249.8 584.597  30
  -2  -3   2 33361.1 960.858  22
  -2  -3   2 33410.5 1034.55  30
  -2  -3   3 117554. 1975.54  22
  -2  -3   3 132558. 2196.10   7
  -2  -3   4 53875.4 1457.49  22
  -2  -3   4 51235.2 1341.96  14
  -2  -3   5 19832.8 886.677  14
  -2  -3   5 20265.4 972.133  22
  -2  -3   5 22374.0 1062.64   7
  -2  -3   6 29586.6 707.703   6
  -2  -3   6 26719.2 1230.76  22
  -2  -3   6 28610.4 750.215  37
  -2  -3   6 28407.4 1146.40  14
  -2  -3   7 1110.75 284.653  22
  -2  -3   7 1647.74 324.111   7
  -2  -3   7 1555.97 177.562   6
  -2  -3   8 1205.19 154.907   6
  -2  -3   8 870.238 148.612  50
  -2  -3   9 1501.07 159.508   3
  -2  -3   9 1449.41 190.818  20
  -2  -3   9 1395.68 180.450  50
  -2  -3  10 1932.41 188.909  20
  -2  -3  10 1725.60 175.225  50
  -2  -3  10 2076.36 156.787   3
  -2  -3  11 4670.62 231.926  20
  -2  -3  11 5257.44 207.837   3
  -2  -2 -13 2228.51 158.738  26
  -2  -2 -13 2507.22 181.203  40
  -2  -2 -12 4651.72 301.742  46
  -2  -2 -12 4759.59 256.487   4
  -2  -2 -12 4762.11 303.744  26
  -2  -2 -12 4755.29 274.532  29
  -2  -2 -12 4817.36 282.685  32
  -2  -2 -12 4465.10 308.486  40
  -2  -2 -11 3073.33 229.358   4
  -2  -2 -11 2974.71 274.706  26
  -2  -2 -11 2781.11 262.171  46
  -2  -2 -11 2525.61 253.121  13
  -2  -2 -11 2910.88 286.713  40
  -2  -2 -11 2973.85 254.544  32
  -2  -2 -11 2823.68 239.844  29
  -2  -2 -10 8798.69 451.705  32
  -2  -2 -10 9084.64 473.494  13
  -2  -2 -10 8097.85 465.201  46
  -2  -2 -10 9640.42 425.177   4
  -2  -2 -10 8716.10 440.858  29
  -2  -2  -9 6559.76 374.742  29
  -2  -2  -9 6228.15 403.829  46
  -2  -2  -9 6390.73 378.065  32
  -2  -2  -9 6167.50 674.711  34
  -2  -2  -9 6539.49 353.105   4
  -2  -2  -9 6922.09 704.360   9
  -2  -2  -8 4043.66 281.796  29
  -2  -2  -8 3738.75 467.760  16
  -2  -2  -8 3867.63 261.968   4
  -2  -2  -8 3841.11 497.049  34
  -2  -2  -8 3738.33 492.334  49
  -2  -2  -8 4374.15 531.293   9
  -2  -2  -8 4006.48 309.201  46
  -2  -2  -7 52886.0 1703.73   9
  -2  -2  -7 54589.7 1689.73  16
  -2  -2  -7 52079.8 1698.63  49
  -2  -2  -6 91048.5 2027.64   9
  -2  -2  -6 95358.5 2095.07  49
  -2  -2  -6 95725.1 2063.88  16
  -2  -2  -5 80604.8 1693.05  49
  -2  -2  -5 77450.5 1707.62  16
  -2  -2  -5 79104.9 1761.08  34
  -2  -2  -4 46947.7 1207.20   2
  -2  -2  -4 51661.7 1225.48  49
  -2  -2  -4 47804.2 1230.85   9
  -2  -2  -4 50051.8 1262.98  34
  -2  -2  -3 135823. 1912.87   2
  -2  -2  -3 137727. 1973.98  16
  -2  -2  -3 136912. 1859.28  34
  -2  -2  -3 135757. 1876.69   9
  -2  -2  -2 58576.1 1183.74   2
  -2  -2  -2 56876.2 1097.41   9
  -2  -2  -2 58714.8 1080.11  34
  -2  -2  -2 56884.6 1159.75  16
  -2  -2  -1 112768. 1470.94  16
  -2  -2  -1 113997. 1654.97   2
  -2  -2  -1 111047. 1379.07   9
  -2  -2   0 219641. 2289.18  30
  -2  -2   0 218154. 1726.74   9
  -2  -2   0 212115. 2220.82   2
  -2  -2   0 215049. 1456.67  34
  -2  -2   0 220502. 1849.86  16
  -2  -2   1 22570.0 502.815  16
  -2  -2   1 25931.5 754.840   2
  -2  -2   1 26209.9 765.416   7
  -2  -2   1 21839.9 734.545  30
  -2  -2   2 65722.7 1280.53  30
  -2  -2   2 73701.2 1363.54   7
  -2  -2   3 42931.1 1136.38   7
  -2  -2   4 19411.8 774.570  14
  -2  -2   4 20767.8 869.320   7
  -2  -2   5 16200.1 773.526  14
  -2  -2   5 18511.5 874.215   7
  -2  -2   6 4814.81 463.020  14
  -2  -2   6 5242.86 506.755   7
  -2  -2   7 18.1531 81.8141  14
  -2  -2   8 196.495 67.4606   3
  -2  -2   8 277.439 102.612  50
  -2  -2   9 2155.13 245.047  36
  -2  -2   9 2214.03 222.506  50
  -2  -2   9 1935.87 170.049   3
  -2  -2  10 9063.44 462.008  36
  -2  -2  10 9130.08 415.531  50
  -2  -2  11 2160.55 196.988  36
  -2  -2  11 1935.42 172.208  50
  -2  -2  11 2191.51 177.384  33
  -2  -2  11 2536.06 157.997   3
  -2  -2  12 1148.85 110.469  36
  -2  -2  12 1256.31 106.945  20
  -2  -2  12 1262.00 99.9949  21
  -2  -1 -13 1986.92 123.586   4
  -2  -1 -13 2075.37 148.405  40
  -2  -1 -12 1829.20 187.857  40
  -2  -1 -12 1804.30 171.382  32
  -2  -1 -12 1854.47 167.919  29
  -2  -1 -12 1793.92 184.488  46
  -2  -1 -12 2149.78 168.180   4
  -2  -1 -12 1867.02 181.313  26
  -2  -1 -11 6766.69 372.752  32
  -2  -1 -11 6426.66 354.668   4
  -2  -1 -11 6595.71 361.343  29
  -2  -1 -11 6677.73 402.026  46
  -2  -1 -11 7269.60 413.503  26
  -2  -1 -10 15190.4 540.990   4
  -2  -1 -10 15114.4 631.956  46
  -2  -1 -10 14963.2 582.772  32
  -2  -1 -10 14566.9 570.334  29
  -2  -1  -9 18176.4 686.057  46
  -2  -1  -9 18582.4 596.281   4
  -2  -1  -9 17360.6 639.231  32
  -2  -1  -9 17757.4 630.767  29
  -2  -1  -8 46000.2 1780.21  49
  -2  -1  -8 47556.5 1011.93  32
  -2  -1  -8 48457.6 992.109  29
  -2  -1  -8 46548.4 1663.36  16
  -2  -1  -8 45838.0 1758.55  34
  -2  -1  -8 48910.4 1763.43   9
  -2  -1  -8 48402.8 940.252   4
  -2  -1  -8 48051.7 1074.30  46
  -2  -1  -7 8033.18 674.723   9
  -2  -1  -7 7348.22 618.440  16
  -2  -1  -7 7076.43 630.126  49
  -2  -1  -7 7671.73 387.267  32
  -2  -1  -7 8170.25 380.721  29
  -2  -1  -7 7177.33 652.061  34
  -2  -1  -6 9454.23 673.745   9
  -2  -1  -6 9872.37 699.040  34
  -2  -1  -6 10424.7 700.638  49
  -2  -1  -6 10303.6 686.177  16
  -2  -1  -5 95947.8 1936.80   9
  -2  -1  -5 95076.2 1870.05  49
  -2  -1  -4 228044. 2101.89  18
  -2  -1  -4 220795. 2581.74  49
  -2  -1  -4 222270. 2752.52  34
  -2  -1  -3 120926. 1649.84  49
  -2  -1  -3 118175. 1326.81  18
  -2  -1  -3 123911. 1830.80   9
  -2  -1  -3 126107. 1774.39   2
  -2  -1  -3 122810. 1829.03  34
  -2  -1  -2 11257.2 423.118  49
  -2  -1  -2 10569.5 480.705   2
  -2  -1  -2 10909.3 498.682   9
  -2  -1  -1 10757.8 329.386  49
  -2  -1  -1 11409.8 485.789   2
  -2  -1   0 100343. 1409.29   2
  -2  -1   0 81398.0 508.153  49
  -2  -1   1 175259. 1791.06   2
  -2  -1   2 13060.5 503.853  30
  -2  -1   2 11851.5 510.760   2
  -2  -1   2 11976.7 487.452   7
  -2  -1   2 11798.9 497.141  22
  -2  -1   3 38423.5 998.962  22
  -2  -1   3 40380.1 988.675   7
  -2  -1   4 2275.23 257.623  14
  -2  -1   4 2224.18 262.917  22
  -2  -1   4 2228.97 263.031   7
  -2  -1   5 79210.3 1662.97  14
  -2  -1   5 75791.7 1668.39  22
  -2  -1   6 10165.2 685.370  22
  -2  -1   6 11086.4 686.241  14
  -2  -1   7 3666.30 456.293  22
  -2  -1   7 3949.57 439.762  14
  -2  -1   7 3773.48 274.826  50
  -2  -1   8 18670.6 1020.60  14
  -2  -1   8 17822.5 1064.56  22
  -2  -1   8 17990.8 619.961  50
  -2  -1   9 5136.24 331.369  50
  -2  -1   9 5688.05 292.594   3
  -2  -1   9 5678.89 355.331  20
  -2  -1   9 5525.18 377.442  36
  -2  -1  10 15795.3 553.761  50
  -2  -1  10 17182.6 588.227  20
  -2  -1  10 17535.2 637.878  36
  -2  -1  10 18080.2 501.796   3
  -2  -1  11 2161.94 207.605  36
  -2  -1  11 2329.94 196.805  20
  -2  -1  11 2675.36 174.454   3
  -2  -1  11 1968.15 179.267  50
  -2  -1  12 6025.92 262.391  20
  -2  -1  12 5347.07 234.062  33
  -2  -1  12 6983.63 222.612   3
  -2  -1  12 4487.90 208.827  50
  -2  -1  12 6157.44 248.906  21
  -2  -1  12 4615.39 234.360  48
  -2  -1  12 5701.95 268.652  36
  -2   0 -12 4722.09 275.929  46
  -2   0 -12 4725.08 246.920  29
  -2   0 -12 4810.35 254.207  32
  -2   0 -12 4087.69 257.136  40
  -2   0 -11-4.63673 55.7820  32
  -2   0 -11 242.093 76.9127   4
  -2   0 -11 104.113 71.3994  26
  -2   0 -11 117.954 74.7702  29
  -2   0 -11 98.2853 76.4296  46
  -2   0 -10 812.263 110.416   1
  -2   0 -10 797.960 139.933  29
  -2   0 -10 855.746 154.044  32
  -2   0 -10 962.177 141.118   4
  -2   0 -10 748.159 152.276  46
  -2   0  -9 1696.04 201.716  29
  -2   0  -9 1649.85 212.223  32
  -2   0  -9 1548.87 217.069  46
  -2   0  -9 1584.07 192.239   4
  -2   0  -8 40721.5 943.658  29
  -2   0  -8 40912.6 972.382  32
  -2   0  -8 38232.1 1624.49  34
  -2   0  -8 43551.6 1664.06   9
  -2   0  -8 36809.9 1608.75  49
  -2   0  -8 44071.4 920.221   4
  -2   0  -8 41010.2 1027.58  46
  -2   0  -7 15749.6 971.477  49
  -2   0  -7 17162.0 574.090  29
  -2   0  -7 16405.9 964.005   9
  -2   0  -7 16122.9 934.858  16
  -2   0  -7 15799.7 980.515  34
  -2   0  -6 16620.3 889.905   9
  -2   0  -6 15584.3 895.614  34
  -2   0  -6 15092.1 868.450  49
  -2   0  -5 79586.5 1881.27  34
  -2   0  -5 81565.6 1592.79  18
  -2   0  -5 83820.1 1858.14   9
  -2   0  -5 80459.5 1816.46  49
  -2   0  -4 50102.5 1126.50  18
  -2   0  -4 50932.9 1323.99   9
  -2   0  -4 52591.8 1262.34   2
  -2   0  -4 47993.8 1253.39  49
  -2   0  -3 43720.2 1058.87  49
  -2   0  -3 46398.2 1064.52   2
  -2   0  -3 44064.5 1133.95   9
  -2   0  -3 43450.2 932.197  18
  -2   0  -2 11636.2 311.638  31
  -2   0  -2 11559.7 452.933  18
  -2   0  -2 11782.6 363.145   5
  -2   0  -2 11756.4 489.200   2
  -2   0  -1 37316.8 818.863   2
  -2   0  -1 34856.9 636.150  31
  -2   0   0 45998.9 898.147   2
  -2   0   1 74656.4 1163.15   2
  -2   0   1 76097.1 1093.59   2
  -2   0   2 71766.9 1091.75   7
  -2   0   2 72093.1 1134.39  22
  -2   0   2 75119.4 1182.49   2
  -2   0   3 28072.6 804.666   2
  -2   0   3 24443.8 738.051  22
  -2   0   3 25045.9 748.421  14
  -2   0   3 26741.6 705.112   7
  -2   0   4 38656.3 1035.85  22
  -2   0   4 42437.4 966.925   7
  -2   0   5 67851.1 1524.38  22
  -2   0   5 69240.1 1523.35  14
  -2   0   6 3813.75 403.314  14
  -2   0   6 3876.23 409.679  22
  -2   0   7 8937.28 679.134  22
  -2   0   7 9309.46 335.268   3
  -2   0   7 8778.92 651.296  14
  -2   0   8 12162.3 481.126  50
  -2   0   8 11098.6 392.829   3
  -2   0   8 11665.2 810.119  14
  -2   0   8 11513.4 516.024  36
  -2   0   8 10489.7 791.983  22
  -2   0   9 11001.9 473.211  50
  -2   0   9 11066.3 401.702   3
  -2   0   9 11438.2 491.819  20
  -2   0   9 11348.5 532.365  36
  -2   0  10 1167.47 163.638  20
  -2   0  10 1271.59 162.247  50
  -2   0  10 933.979 118.122   3
  -2   0  10 1265.44 181.210  36
  -2   0  11 2809.70 240.999  36
  -2   0  11 2687.21 238.121  48
  -2   0  11 2889.40 230.104  20
  -2   0  11 2678.62 212.214  50
  -2   0  11 2634.61 186.009   8
  -2   0  11 3163.57 189.694   3
  -2   0  12 1444.08 148.125  36
  -2   0  12 1239.89 133.196  48
  -2   0  12 1363.55 141.195  33
  -2   0  12 1629.87 114.413   3
  -2   0  12 1448.15 138.353  21
  -2   0  12 1604.04 144.648  20
  -2   0  12 1127.37 114.732  50
  -2   1 -12 852.829 102.780  40
  -2   1 -12 1016.25 97.6920   4
  -2   1 -12 1069.50 113.295  32
  -2   1 -12 1135.40 111.633  29
  -2   1 -11 124.289 67.9674   4
  -2   1 -11 243.451 77.0027  29
  -2   1 -11 262.827 90.1754  32
  -2   1 -11 235.972 91.2300  46
  -2   1 -10 2321.90 228.937  32
  -2   1 -10 2249.78 246.985  46
  -2   1 -10 2359.53 171.595   1
  -2   1 -10 2403.98 228.721  29
  -2   1 -10 2275.65 212.085   4
  -2   1  -9 16893.3 674.743  46
  -2   1  -9 18425.3 599.960   4
  -2   1  -9 16899.5 617.948  29
  -2   1  -9 16754.9 640.701  32
  -2   1  -9 17548.9 495.992   1
  -2   1  -8 47810.0 1134.29  46
  -2   1  -8 45296.5 1038.64  29
  -2   1  -8 47239.9 1076.67  32
  -2   1  -8 46786.0 810.412   1
  -2   1  -7 15237.3 942.760  16
  -2   1  -7 14385.0 966.301  34
  -2   1  -7 14014.8 945.795  49
  -2   1  -7 15574.4 946.382   9
  -2   1  -6 13676.4 878.890  34
  -2   1  -6 13836.6 785.466  18
  -2   1  -6 13829.5 836.350   9
  -2   1  -6 13170.1 856.913  49
  -2   1  -5 27714.5 1093.73   9
  -2   1  -5 24950.0 1076.66  49
  -2   1  -5 27429.9 1016.11  18
  -2   1  -5 26081.4 1119.77  34
  -2   1  -4 34532.5 1035.39  18
  -2   1  -4 34903.1 1145.37   9
  -2   1  -4 31966.8 1107.92  49
  -2   1  -3 762.455 154.140  18
  -2   1  -3 767.423 165.537   9
  -2   1  -3 891.443 143.374   2
  -2   1  -2 127940. 1580.12   2
  -2   1  -2 120681. 1634.55  18
  -2   1  -2 120906. 1383.17   5
  -2   1  -2 125335. 1338.07  31
  -2   1  -1 608699. 3092.14   5
  -2   1  -1 611310. 3120.57   2
  -2   1   0 295141. 2087.62   2
  -2   1   0 297258. 2249.13   5
  -2   1   1 27571.2 648.197   2
  -2   1   1 27368.4 597.616   2
  -2   1   1 25621.9 615.041  14
  -2   1   2 9501.35 389.034  22
  -2   1   2 10078.1 366.071   7
  -2   1   2 10359.4 424.064  14
  -2   1   2 9104.59 372.734   2
  -2   1   3 68696.2 1226.39  14
  -2   1   3 66134.8 951.880   7
  -2   1   3 64042.3 1119.51  22
  -2   1   3 69589.4 1170.41   2
  -2   1   4 61848.2 1233.23  22
  -2   1   4 63388.6 1314.70  14
  -2   1   5 14412.1 671.183  22
  -2   1   5 14301.2 686.692  14
  -2   1   6 2548.29 322.140  22
  -2   1   7 37126.8 840.518  36
  -2   1   7 35015.8 1298.50  14
  -2   1   7 33252.4 1272.74  22
  -2   1   8 32834.5 1358.91  14
  -2   1   8 34794.8 805.689  20
  -2   1   8 32338.0 1350.36  22
  -2   1   8 35470.3 883.097  36
  -2   1   9 1938.32 220.209  36
  -2   1   9 1755.64 194.084  20
  -2   1   9 1907.56 164.088   3
  -2   1  10 3926.28 230.671   3
  -2   1  10 3509.71 275.252  20
  -2   1  10 3487.72 287.134  36
  -2   1  11 7759.93 398.776  36
  -2   1  11 6903.65 370.743  48
  -2   1  11 8419.30 311.890   3
  -2   1  11 7313.56 358.937  20
  -2   1  11 7826.33 327.888   8
  -2   1  12 1306.56 149.590  33
  -2   1  12 1419.74 147.493  36
  -2   1  12 1622.05 119.095   3
  -2   1  12 1303.15 135.280  20
  -2   1  12 1313.35 117.545   8
  -2   1  12 1413.69 148.437  48
  -2   1  13 1515.49 109.892  20
  -2   1  13 1677.27 123.080  33
  -2   2 -11 10157.6 406.092  46
  -2   2 -11 10791.2 376.736  29
  -2   2 -11 10723.5 389.279  32
  -2   2 -10 15269.3 533.642  29
  -2   2 -10 16620.4 424.534   1
  -2   2 -10 15895.3 561.369  32
  -2   2 -10 15942.1 501.959   4
  -2   2  -9 15312.0 606.646  32
  -2   2  -9 13760.8 549.737   4
  -2   2  -9 15432.9 454.992   1
  -2   2  -9 15455.0 586.101  29
  -2   2  -8 3506.55 224.472   1
  -2   2  -8 2913.29 277.958  32
  -2   2  -8 3193.27 285.956   4
  -2   2  -8 3079.95 249.493  17
  -2   2  -8 3173.00 279.525  29
  -2   2  -7 45466.2 953.020  28
  -2   2  -7 46641.2 920.178  17
  -2   2  -7 44710.1 789.542   1
  -2   2  -7 46510.6 1638.49  18
  -2   2  -6 19153.3 591.621  28
  -2   2  -6 17334.0 1020.00  34
  -2   2  -6 20420.3 1041.07   9
  -2   2  -6 19239.6 997.125  18
  -2   2  -6 20352.2 591.081  17
  -2   2  -6 16760.6 1001.47  49
  -2   2  -5 34657.2 1359.97  34
  -2   2  -5 31829.2 1298.50  49
  -2   2  -5 35402.0 1267.85  18
  -2   2  -5 36866.8 1316.17   9
  -2   2  -4 131751. 2360.57   9
  -2   2  -4 134860. 2291.27  18
  -2   2  -3 163324. 1863.03   5
  -2   2  -3 165273. 2294.47  18
  -2   2  -2 10731.9 477.578  31
  -2   2  -2 11101.2 485.076   5
  -2   2  -2 11754.3 569.237  18
  -2   2  -1 9085.91 487.055  18
  -2   2  -1 10542.4 379.140   2
  -2   2  -1 9919.97 453.212   5
  -2   2  -1 9792.88 443.935  31
  -2   2   0 119198. 1590.54  31
  -2   2   0 116250. 1527.01   5
  -2   2   0 116147. 1057.08  14
  -2   2   1 61223.4 823.164   2
  -2   2   1 54488.3 719.512  22
  -2   2   1 57125.4 892.023  14
  -2   2   1 57521.3 1160.56  31
  -2   2   1 59213.6 1128.24   5
  -2   2   1 57652.1 752.218   2
  -2   2   2 27616.0 629.951   2
  -2   2   2 27662.1 580.731   2
  -2   2   2 26941.7 570.341  22
  -2   2   2 27401.3 696.751  14
  -2   2   3 40103.9 813.790  22
  -2   2   3 44032.0 993.042  14
  -2   2   4 15829.3 664.492  14
  -2   2   4 15340.0 576.680  22
  -2   2   5 30157.5 931.430  22
  -2   2   5 31238.9 1029.72  14
  -2   2   6 50878.8 1440.64  14
  -2   2   6 49951.8 1339.35  22
  -2   2   7 35616.5 1266.30  22
  -2   2   8 4380.32 280.027  20
  -2   2   8 3873.86 468.441  14
  -2   2   8 3933.22 455.913  22
  -2   2   9 28134.1 736.107  20
  -2   2   9 27378.9 776.422  48
  -2   2  10 10355.8 449.458  20
  -2   2  10 10206.2 477.156  48
  -2   2  10 10269.5 468.001  36
  -2   2  11 9750.89 465.127  33
  -2   2  11 10855.8 389.840   8
  -2   2  11 9800.47 411.708  21
  -2   2  11 8886.26 421.305  48
  -2   2  11 9240.68 423.340  36
  -2   2  11 9960.57 408.854  20
  -2   2  12 6509.46 271.537   8
  -2   2  12 7057.79 309.477  21
  -2   2  12 6303.88 290.077  20
  -2   2  12 6246.23 309.436  48
  -2   2  12 6779.33 338.863  33
  -2   2  13 3.76227 24.2541   8
  -2   2  13-22.9896 35.3683  33
  -2   2  13 15.1280 25.2876  20
  -2   2  13-2.06878 29.4456  48
  -2   3 -11 5697.32 235.205  29
  -2   3 -11 5133.16 244.370  46
  -2   3 -10 59.2200 61.6008  46
  -2   3 -10 126.629 66.8133  29
  -2   3 -10 242.104 54.0597   1
  -2   3 -10 111.773 48.4909   4
  -2   3  -9 366.690 91.6026  28
  -2   3  -9 463.800 110.039  29
  -2   3  -9 364.328 106.823  46
  -2   3  -9 551.459 106.941   4
  -2   3  -9 495.872 96.5091  17
  -2   3  -9 612.402 92.3299   1
  -2   3  -8 81520.1 1305.76  28
  -2   3  -8 82095.2 1248.10  17
  -2   3  -8 82471.7 1378.39  29
  -2   3  -8 75914.5 1366.34  32
  -2   3  -8 82530.8 1275.70   4
  -2   3  -8 86155.7 1510.32  46
  -2   3  -8 80136.7 1057.88   1
  -2   3  -8 79786.8 1316.94  41
  -2   3  -7 34970.2 866.461  28
  -2   3  -7 36749.4 728.637   1
  -2   3  -7 35107.4 842.380  17
  -2   3  -7 34946.1 873.460  41
  -2   3  -6 13185.2 889.015  18
  -2   3  -6 11691.8 498.387  17
  -2   3  -6 13378.0 533.564  41
  -2   3  -6 12948.2 515.593  28
  -2   3  -6 11949.9 877.988  34
  -2   3  -6 12766.5 423.805   1
  -2   3  -5 54187.6 1014.65  28
  -2   3  -5 58101.9 1045.17  41
  -2   3  -5 50235.0 1708.88  34
  -2   3  -5 56493.0 1733.97  18
  -2   3  -5 47665.8 1691.98  49
  -2   3  -4 14649.3 830.759  18
  -2   3  -4 14423.1 815.045   9
  -2   3  -3 47035.9 1167.24   5
  -2   3  -3 48682.8 1392.15  18
  -2   3  -2 8032.82 470.419   5
  -2   3  -2 8699.25 547.774  18
  -2   3  -2 8516.16 495.568  31
  -2   3  -1 107252. 1670.61   5
  -2   3  -1 108085. 1736.43  31
  -2   3  -1 110546. 1815.29  18
  -2   3   0 54836.3 1222.68  31
  -2   3   0 54247.0 1173.05   5
  -2   3   1 22117.4 782.163  31
  -2   3   1 21285.3 737.452   5
  -2   3   2 40642.1 856.992  14
  -2   3   2 39700.6 1090.85  31
  -2   3   3 56192.1 1144.90  14
  -2   3   3 58242.8 1268.30   5
  -2   3   3 55529.3 1336.61  31
  -2   3   4 21115.6 777.448  14
  -2   3   4 22657.1 819.397   5
  -2   3   5 35309.9 1074.39   5
  -2   3   5 33770.5 1077.99  14
  -2   3   6 874.775 197.361  14
  -2   3   6 1097.12 205.455   5
  -2   3   7 12046.0 688.771   5
  -2   3   7 10040.9 708.485  14
  -2   3   8 12121.3 832.949  14
  -2   3   9 1198.38 163.466  48
  -2   3  10 15844.0 542.433  21
  -2   3  10 16552.3 598.690  48
  -2   3  11 799.857 133.941  48
  -2   3  11 847.433 128.903  21
  -2   3  11 1000.27 124.624   8
  -2   3  12 243.070 60.2337   8
  -2   3  12 243.381 79.6868  33
  -2   3  12 246.603 75.5540  21
  -2   3  12 230.569 60.9549  48
  -2   3  13 904.599 86.3126   8
  -2   3  13 954.928 111.206  33
  -2   3  13 969.570 99.2712  21
  -2   4 -10 838.860 111.423  46
  -2   4 -10 558.443 73.6378   4
  -2   4 -10 883.786 108.819  29
  -2   4 -10 694.135 98.3362  32
  -2   4  -9 11489.8 415.845  28
  -2   4  -9 12616.4 351.437   1
  -2   4  -9 11484.7 455.236  32
  -2   4  -9 11025.3 392.341  17
  -2   4  -9 12208.8 457.710  29
  -2   4  -9 12294.7 408.334   4
  -2   4  -9 11325.8 468.158  46
  -2   4  -8 8320.71 435.739  29
  -2   4  -8 8237.68 407.887  28
  -2   4  -8 7985.51 397.911  41
  -2   4  -8 8284.54 443.942  46
  -2   4  -8 8768.00 335.639   1
  -2   4  -8 8401.30 377.340   4
  -2   4  -8 8459.27 392.533  17
  -2   4  -7 37436.6 912.376  41
  -2   4  -7 37659.7 870.629  17
  -2   4  -7 36351.4 728.061   1
  -2   4  -7 36798.2 899.121  28
  -2   4  -6 5131.33 276.486   1
  -2   4  -6 4500.39 324.042  41
  -2   4  -6 4739.20 311.820  17
  -2   4  -6 4383.64 315.328  28
  -2   4  -5 1294.91 188.029  17
  -2   4  -5 993.738 265.617  34
  -2   4  -5 1360.19 176.808  28
  -2   4  -5 1386.48 144.650   1
  -2   4  -5 1402.07 310.935  18
  -2   4  -5 1367.47 181.969  41
  -2   4  -4 6251.59 288.006   1
  -2   4  -4 7326.82 384.645  41
  -2   4  -4 6799.39 616.025  18
  -2   4  -3 10976.4 633.860   5
  -2   4  -3 10151.3 700.704  18
  -2   4  -3 10321.5 686.922   9
  -2   4  -2 16566.6 791.121  31
  -2   4  -2 17415.9 785.237   5
  -2   4  -1 38023.1 1177.14  31
  -2   4  -1 40496.5 1153.83   5
  -2   4   0 73239.5 1585.49  18
  -2   4   0 74106.8 1590.81  31
  -2   4   0 75380.7 1530.87   5
  -2   4   1 65120.6 1412.45   5
  -2   4   1 60653.3 1436.11  31
  -2   4   2 49370.6 1313.19  31
  -2   4   3 27587.7 928.598   5
  -2   4   3 27078.2 816.958  14
  -2   4   3 27319.5 1001.84  31
  -2   4   4 16917.3 740.612   5
  -2   4   4 16969.2 721.114  14
  -2   4   5 54249.7 1544.40  31
  -2   4   5 53328.6 1403.84  14
  -2   4   5 56094.8 1410.86   5
  -2   4   6 39309.0 1379.26  31
  -2   4   6 40733.3 1329.90  14
  -2   4   6 43876.9 1294.41   5
  -2   4   7 10981.1 765.397  31
  -2   4   7 11331.5 681.422   5
  -2   4   7 10502.9 728.137  14
  -2   4   7 11781.2 424.717  21
  -2   4   8 1039.93 135.956  21
  -2   4   8 1139.88 268.525  31
  -2   4   8 1068.03 257.023  14
  -2   4   9 12026.7 468.595  21
  -2   4   9 12040.1 503.032  48
  -2   4   9 12516.9 540.386  33
  -2   4  10 5891.72 376.067  33
  -2   4  10 5572.56 341.292  48
  -2   4  10 5773.73 323.109  21
  -2   4  11 5252.03 312.009  48
  -2   4  11 5682.84 307.847  21
  -2   4  11 5421.44 342.754  33
  -2   4  11 5152.34 268.087   8
  -2   4  12 867.159 113.711  21
  -2   4  12 834.048 109.293   8
  -2   4  12 735.039 106.086  48
  -2   4  12 757.353 120.264  33
  -2   4  13 102.048 38.1777   8
  -2   4  13 75.8500 37.9552  21
  -2   5  -9 7051.92 313.048  46
  -2   5  -9 8336.40 327.576  29
  -2   5  -9 7486.31 273.133  17
  -2   5  -9 8252.09 328.896  32
  -2   5  -8 5201.23 296.934  41
  -2   5  -8 5329.05 327.030  46
  -2   5  -8 6061.11 322.821  28
  -2   5  -8 5449.16 318.103  29
  -2   5  -8 6228.50 256.179   1
  -2   5  -8 5235.98 263.164   4
  -2   5  -8 5645.02 336.296  32
  -2   5  -8 5974.00 299.595  17
  -2   5  -7 7621.39 382.252  17
  -2   5  -7 7382.91 364.184   4
  -2   5  -7 7391.53 391.920  28
  -2   5  -7 7464.36 396.006  41
  -2   5  -7 8245.21 330.222   1
  -2   5  -6 3479.99 282.139  28
  -2   5  -6 3130.67 217.092   1
  -2   5  -6 3009.55 267.916  17
  -2   5  -6 3303.53 282.329  41
  -2   5  -5 2097.03 226.577  28
  -2   5  -5 2030.43 222.116  41
  -2   5  -5 2400.62 237.785  17
  -2   5  -5 2476.17 195.000   1
  -2   5  -4 11170.5 486.615  41
  -2   5  -4 9568.90 381.276   1
  -2   5  -4 10470.3 820.320  18
  -2   5  -3 163096. 1508.27   1
  -2   5  -2 294.242 139.680  31
  -2   5  -2 342.340 162.342  18
  -2   5  -2 264.587 76.6519  10
  -2   5  -2 318.613 121.925   5
  -2   5  -1 420.269 139.869  31
  -2   5  -1 451.456 161.474  18
  -2   5  -1 478.631 147.459   5
  -2   5   0 89903.7 1916.84  18
  -2   5   0 88506.2 1961.32  31
  -2   5   1 20475.4 878.754   5
  -2   5   1 20643.4 933.312  31
  -2   5   1 19782.8 873.731  18
  -2   5   2 1867.17 277.784  31
  -2   5   3 15508.1 768.371   5
  -2   5   3 15899.5 826.706  31
  -2   5   4 23947.6 972.580   5
  -2   5   5 22617.4 948.916   5
  -2   5   5 20436.3 997.320  31
  -2   5   5 21437.9 912.826  14
  -2   5   6 404.345 155.374  31
  -2   5   6 578.425 170.185  14
  -2   5   6 765.325 181.806   5
  -2   5   7 235.633 80.1995  33
  -2   5   7 276.136 121.561  31
  -2   5   7 278.539 151.590  14
  -2   5   7 282.452 118.796   5
  -2   5   8 459.847 169.696  14
  -2   5   8 485.059 94.0279   8
  -2   5   8 484.721 105.912  21
  -2   5   8 358.291 161.213  31
  -2   5   8 466.843 110.104  33
  -2   5   9 4257.46 320.246  33
  -2   5   9 4535.96 285.786  21
  -2   5   9 4551.05 275.052   8
  -2   5  10 10988.2 502.907  33
  -2   5  10 11715.5 450.645  21
  -2   5  10 11751.7 433.251   8
  -2   5  11 2570.42 235.011  33
  -2   5  11 2661.40 207.700  21
  -2   5  11 2595.89 188.938   8
  -2   5  11 2363.59 203.391  48
  -2   5  12 12921.3 398.563  21
  -2   5  12 12317.7 444.942  33
  -2   5  13 2457.85 143.494  21
  -2   5  13 2277.27 160.209  33
  -2   5  13 2408.22 134.123   8
  -2   5  13 2141.59 144.568  47
  -2   6  -8 12606.0 298.509   1
  -2   6  -8 11714.0 382.982  28
  -2   6  -8 11269.2 390.924  32
  -2   6  -8 11315.7 384.643  29
  -2   6  -8 9602.00 357.583  46
  -2   6  -8 10418.2 343.020  17
  -2   6  -7 2206.14 203.602  41
  -2   6  -7 2202.68 209.384  46
  -2   6  -7 2374.66 218.092  32
  -2   6  -7 2784.71 221.437  17
  -2   6  -7 2795.41 177.066   1
  -2   6  -7 2306.23 209.084  29
  -2   6  -7 2402.46 209.482  28
  -2   6  -6 4060.31 282.496  17
  -2   6  -6 3925.64 233.446   1
  -2   6  -6 3946.71 294.091  41
  -2   6  -6 3834.79 289.117  28
  -2   6  -5 493.432 124.100  28
  -2   6  -5 474.724 125.051  41
  -2   6  -5 676.997 107.420   1
  -2   6  -5 500.528 121.899  17
  -2   6  -4 61806.8 1177.99  41
  -2   6  -4 62209.7 982.709   1
  -2   6  -4 62903.1 1190.80  28
  -2   6  -3 2343.33 396.690  18
  -2   6  -3 2587.46 206.110   1
  -2   6  -3 2339.77 237.508  41
  -2   6  -2 1043.44 241.828   5
  -2   6  -2 1188.66 155.603  35
  -2   6  -2 968.561 142.096  10
  -2   6  -2 1133.09 277.641  18
  -2   6  -1 9296.51 414.147  35
  -2   6  -1 8769.53 382.545  23
  -2   6  -1 8538.19 647.285   5
  -2   6  -1 8836.81 694.852  18
  -2   6  -1 8978.68 704.869  31
  -2   6   0 12964.7 833.941  31
  -2   6   0 13701.2 470.898  23
  -2   6   0 13421.1 792.722   5
  -2   6   0 13401.0 807.886  18
  -2   6   1 9615.49 708.559  31
  -2   6   1 10823.4 699.560   5
  -2   6   1 9770.02 668.768  18
  -2   6   2 26656.9 1073.98  18
  -2   6   2 25650.9 1144.77  31
  -2   6   3 9251.92 644.903   5
  -2   6   3 9588.09 645.694  18
  -2   6   3 9683.35 706.901  31
  -2   6   4 33929.9 1238.81   5
  -2   6   4 34299.9 738.418  27
  -2   6   5 46067.9 1453.19   5
  -2   6   5 39186.0 1454.21  31
  -2   6   6 9810.75 681.411   5
  -2   6   6 9029.07 715.862  31
  -2   6   7 1307.52 170.128  47
  -2   6   7 1307.98 139.414   8
  -2   6   7 1065.65 233.047   5
  -2   6   7 1087.75 261.495  31
  -2   6   8 25843.4 736.626  33
  -2   6   8 26739.6 621.889   8
  -2   6   9 19781.4 652.114  33
  -2   6   9 20546.1 585.965  21
  -2   6   9 20890.4 559.229   8
  -2   6  10 3530.33 274.810  33
  -2   6  10 3622.44 241.241  21
  -2   6  10 3717.65 234.954   8
  -2   6  11 3341.59 216.374   8
  -2   6  11 3138.05 233.015  47
  -2   6  11 3539.66 225.301  21
  -2   6  11 3254.09 204.891  12
  -2   6  11 3264.81 245.942  33
  -2   6  12 816.801 94.7392   8
  -2   6  12 643.191 102.053  33
  -2   6  12 610.732 96.3281  47
  -2   6  12 669.831 88.8746  21
  -2   6  12 524.688 94.5747  42
  -2   6  13 141.241 41.5237  27
  -2   6  13 126.233 34.4661  21
  -2   6  13 100.245 44.2662  33
  -2   6  13 128.581 36.9052   8
  -2   7  -7 1804.02 161.021  32
  -2   7  -7 1916.23 161.282  28
  -2   7  -7 1717.94 146.411  41
  -2   7  -7 1880.51 148.857  17
  -2   7  -7 2047.09 120.569   1
  -2   7  -7 1434.72 132.033  46
  -2   7  -6 929.581 138.076  41
  -2   7  -6 915.993 103.771   1
  -2   7  -6 729.225 121.361  46
  -2   7  -6 882.984 136.180  28
  -2   7  -5 4158.31 232.111   1
  -2   7  -5 4495.64 306.247  41
  -2   7  -5 4604.69 306.333  28
  -2   7  -4 27461.5 772.706  28
  -2   7  -4 29182.7 768.872  17
  -2   7  -4 27544.4 643.907   1
  -2   7  -4 27141.7 774.553  41
  -2   7  -3 12921.0 521.968  17
  -2   7  -3 12956.6 544.870  41
  -2   7  -3 11896.0 436.325   1
  -2   7  -3 12004.1 434.775  10
  -2   7  -2-24.3140 66.1400  35
  -2   7  -2 98.3974 55.1440   1
  -2   7  -2 8.40733 46.8708  10
  -2   7  -1 38451.0 879.824  35
  -2   7  -1 38789.9 1478.92   5
  -2   7  -1 35309.8 1488.02  31
  -2   7  -1 37759.4 830.976  23
  -2   7  -1 37169.3 1519.19  18
  -2   7  -1 35206.5 811.762  10
  -2   7   0 1036.25 144.979  23
  -2   7   0 1198.58 285.812  31
  -2   7   0 1355.43 283.527   5
  -2   7   0 1077.45 151.841  35
  -2   7   0 1219.20 278.561  18
  -2   7   1 48496.9 1744.03  31
  -2   7   1 51195.6 1654.59  18
  -2   7   1 51054.5 1670.35   5
  -2   7   2 6642.19 577.161  18
  -2   7   2 6159.91 615.214  31
  -2   7   3 12974.9 879.443  31
  -2   7   3 13219.9 450.378  12
  -2   7   3 13268.7 801.733  18
  -2   7   3 13974.1 851.639   5
  -2   7   4 7635.92 630.388   5
  -2   7   4 8445.27 409.123  42
  -2   7   4 7824.95 367.569  27
  -2   7   5 4373.96 482.351   5
  -2   7   5 3817.30 479.415  31
  -2   7   5 4198.12 280.249  27
  -2   7   6 17603.7 1050.18  31
  -2   7   6 18966.0 996.080   5
  -2   7   6 18476.1 597.988  27
  -2   7   7 34476.6 842.185  47
  -2   7   8 29009.1 773.967  47
  -2   7   8 29513.2 632.768   8
  -2   7   9 15209.6 545.536  33
  -2   7   9 15700.2 561.072  47
  -2   7   9 16693.3 478.788   8
  -2   7  10 3330.39 252.095  47
  -2   7  10 3659.06 239.292  12
  -2   7  10 3335.45 246.349  33
  -2   7  10 3504.07 216.461   8
  -2   7  11 5562.01 253.844  21
  -2   7  11 5590.03 296.265  33
  -2   7  11 5418.12 289.128  47
  -2   7  11 5926.03 266.052  12
  -2   7  11 5441.13 306.006  42
  -2   7  11 6327.86 264.020   8
  -2   7  12 1517.62 114.018  21
  -2   7  12 1469.66 138.758  42
  -2   7  12 1451.05 132.468  33
  -2   7  12 1491.60 131.244  47
  -2   7  12 1978.95 129.737   8
  -2   7  12 1761.91 149.448  27
  -2   8  -6 2090.13 163.294  28
  -2   8  -6 2015.20 151.522  17
  -2   8  -6 2244.13 119.545   1
  -2   8  -6 1918.19 149.778  41
  -2   8  -5 1546.41 163.206  41
  -2   8  -5 1603.72 127.354   1
  -2   8  -5 1612.84 167.064  28
  -2   8  -5 1357.74 146.134  17
  -2   8  -4 5445.61 257.143   1
  -2   8  -4 5324.95 300.309  17
  -2   8  -4 5750.08 329.871  41
  -2   8  -3 4741.61 262.133  10
  -2   8  -3 5291.37 280.810   1
  -2   8  -3 5334.23 342.899  41
  -2   8  -3 5515.11 326.304  17
  -2   8  -3 5846.60 360.445  28
  -2   8  -2 26850.2 726.356  35
  -2   8  -2 25903.1 767.669  41
  -2   8  -2 24964.5 640.920  10
  -2   8  -2 26922.0 738.991  17
  -2   8  -2 25518.8 639.335   1
  -2   8  -2 25839.1 677.837  23
  -2   8  -1 18402.4 586.372  23
  -2   8  -1 17696.3 578.505  10
  -2   8  -1 18574.1 621.483  35
  -2   8   0 10500.7 474.631  35
  -2   8   0 10547.5 451.236  23
  -2   8   0 11523.3 456.474  10
  -2   8   1 8409.92 401.087  10
  -2   8   1 9024.00 442.640  35
  -2   8   1 8774.27 415.273  23
  -2   8   3 70962.3 1059.60  12
  -2   8   4 13866.0 478.582  12
  -2   8   4 13842.9 536.726  42
  -2   8   5 2134.86 204.843  27
  -2   8   5 2329.24 227.881  42
  -2   8   5 2107.70 193.543  12
  -2   8   6 9150.17 451.230  42
  -2   8   6 8935.01 417.094  27
  -2   8   6 9449.15 413.100  12
  -2   8   7 46683.0 915.553  12
  -2   8   7 46736.5 971.526  47
  -2   8   7 46714.9 1031.83  42
  -2   8   7 46772.3 960.160  27
  -2   8   8 745.329 135.811  47
  -2   8   8 858.297 143.128  42
  -2   8   8 806.542 134.089  27
  -2   8   8 824.469 122.149  12
  -2   8   9 17010.9 559.603  47
  -2   8   9 17671.8 573.565  27
  -2   8   9 18848.7 548.369  12
  -2   8  10 4271.39 267.934  27
  -2   8  10 3907.62 250.236  47
  -2   8  10 4227.11 278.503  42
  -2   8  10 4364.98 247.090  12
  -2   8  10 4059.24 206.573   8
  -2   8  11 2953.23 177.057  12
  -2   8  11 2779.15 193.813  27
  -2   8  11 2879.59 156.424   8
  -2   8  11 2771.75 185.518  47
  -2   8  11 3027.52 211.770  42
  -2   8  12 470.606 55.1668   8
  -2   8  12 571.996 81.5361  42
  -2   9  -5 654.200 78.7185  17
  -2   9  -5 437.953 70.4137  41
  -2   9  -4 219.238 71.5254  41
  -2   9  -4 299.020 83.8195  28
  -2   9  -4 248.124 69.9772  17
  -2   9  -4 209.868 46.5390   1
  -2   9  -3 1492.78 135.706   1
  -2   9  -3 1571.96 169.170  28
  -2   9  -3 1605.74 172.383  41
  -2   9  -3 1932.64 169.804  17
  -2   9  -2 6550.11 296.496  10
  -2   9  -2 6694.26 367.314  41
  -2   9  -2 6700.65 315.856  23
  -2   9  -2 6844.71 345.856  17
  -2   9  -2 7051.09 363.753  28
  -2   9  -2 6636.42 337.663  35
  -2   9  -2 6750.46 305.044   1
  -2   9  -1 1092.71 155.548  10
  -2   9  -1 1274.26 148.135   1
  -2   9  -1 1258.46 173.316  17
  -2   9  -1 1126.02 153.553  35
  -2   9  -1 1327.64 154.740  23
  -2   9   0 3211.39 240.354  10
  -2   9   0 3101.85 244.788  23
  -2   9   0 3176.20 262.152  35
  -2   9   1 13951.9 544.324  35
  -2   9   1 14140.2 514.028  10
  -2   9   1 13531.6 509.102  23
  -2   9   2 21202.5 644.935  23
  -2   9   2 21653.6 683.705  35
  -2   9   3 6026.27 346.875  23
  -2   9   4 1663.49 188.969  42
  -2   9   4 1687.96 170.311  12
  -2   9   5 6871.98 338.024  12
  -2   9   5 6668.86 376.278  42
  -2   9   5 6680.55 353.227  27
  -2   9   6 34426.9 759.013  12
  -2   9   6 34283.4 849.761  42
  -2   9   6 33373.9 787.924  27
  -2   9   7 1541.94 176.030  27
  -2   9   7 1429.09 176.499  42
  -2   9   7 1459.63 159.148  12
  -2   9   8 689.141 116.911  27
  -2   9   8 534.812 114.212  47
  -2   9   8 540.779 114.467  42
  -2   9   9 1367.48 151.297  27
  -2   9   9 1355.89 148.969  47
  -2   9   9 1463.06 149.455  12
  -2   9   9 1417.67 163.974  42
  -2   9  10 3809.12 211.622  12
  -2   9  10 3348.21 215.499  27
  -2   9  10 3171.10 199.931  47
  -2   9  11 1443.65 110.887  12
  -2   9  11 1469.25 134.844  42
  -2   9  11 1491.52 127.145  27
  -2  10  -3 2206.83 157.259  28
  -2  10  -3 2035.04 112.782   1
  -2  10  -3 2220.59 158.218  41
  -2  10  -3 1918.92 129.085  17
  -2  10  -2 3914.87 209.708  17
  -2  10  -2 4047.16 237.820  41
  -2  10  -2 4214.79 192.803   1
  -2  10  -2 4350.87 244.450  28
  -2  10  -1 1868.24 148.789   1
  -2  10  -1 1762.54 162.302  17
  -2  10  -1 2119.49 159.311  10
  -2  10  -1 2164.52 188.782  28
  -2  10  -1 2281.60 199.875  41
  -2  10  -1 2133.70 169.878  23
  -2  10  -1 2102.24 179.982  35
  -2  10   0 2014.94 191.089  35
  -2  10   0 1735.63 165.835  10
  -2  10   0 1805.98 153.616   1
  -2  10   0 2100.03 182.353  23
  -2  10   0 1853.46 157.663  17
  -2  10   0 1832.63 187.552  28
  -2  10   1 11662.2 442.819  23
  -2  10   1 11341.8 423.584  10
  -2  10   1 11789.7 462.627  35
  -2  10   2 2417.78 220.572  35
  -2  10   2 2214.80 199.179  23
  -2  10   3 7346.59 379.610  35
  -2  10   3 7872.31 360.329  10
  -2  10   3 7236.39 362.290  23
  -2  10   4 325.132 96.7039  10
  -2  10   4 392.745 82.6546  12
  -2  10   4 588.731 118.960  23
  -2  10   5 1838.17 168.851  12
  -2  10   5 2114.41 182.940  10
  -2  10   5 1917.60 195.278  23
  -2  10   5 1975.72 206.273  35
  -2  10   5 1793.08 181.550  42
  -2  10   6 3006.94 218.178  27
  -2  10   6 3140.99 241.797  42
  -2  10   6 3305.98 221.670  12
  -2  10   6 3607.90 226.355  10
  -2  10   7 892.010 113.332  10
  -2  10   7 869.691 114.093  12
  -2  10   7 858.309 127.765  42
  -2  10   7 849.343 119.508  27
  -2  10   8 70.0275 53.2791  12
  -2  10   8 66.2194 41.5789  27
  -2  10   8 117.268 62.5521  42
  -2  10   9 1176.36 126.255  27
  -2  10   9 1213.64 135.493  42
  -2  10  10 6627.78 273.621  42
  -2  10  10 6583.63 254.117  27
  -2  10  10 6927.41 247.058  12
  -2  11  -1 4259.96 157.765   1
  -2  11  -1 4755.50 203.763  28
  -2  11  -1 4960.19 224.159  41
  -2  11   0 5325.09 242.721  35
  -2  11   0 4929.34 246.446  41
  -2  11   0 4243.32 199.418  10
  -2  11   0 5288.73 238.477  28
  -2  11   0 5339.59 223.396  23
  -2  11   0 4521.91 186.865   1
  -2  11   1 25833.9 602.550  41
  -2  11   1 27699.1 559.623  23
  -2  11   1 25192.5 485.481   1
  -2  11   1 24722.4 514.948  10
  -2  11   1 25155.5 542.799  28
  -2  11   1 27086.5 591.517  35
  -2  11   2 5621.80 267.478  28
  -2  11   2 5814.74 272.110  23
  -2  11   2 5891.68 294.929  35
  -2  11   3 242.773 82.4150  35
  -2  11   3 57.7895 51.7270  23
  -2  11   3 144.912 60.2478  10
  -2  11   4 7364.15 300.174  10
  -2  11   4 6940.07 312.758  23
  -2  11   5 9077.50 369.250  35
  -2  11   5 8449.36 289.222  12
  -2  11   5 9173.47 355.693  23
  -2  11   6 8929.24 303.129  10
  -2  11   6 8480.54 295.102  12
  -2  11   6 8469.62 342.385  35
  -2  11   6 8033.77 316.016  42
  -2  11   7 379.850 74.0999  42
  -2  11   7 421.059 82.9225  35
  -2  11   7 447.658 73.3304  27
  -2  11   7 482.316 90.8564  23
  -2  11   7 383.101 62.7262  10
  -2  11   7 495.325 77.9443  12
  -2  11   8 1152.18 117.394  23
  -2  11   8 1110.29 104.752  27
  -2  11   8 1221.99 114.101  35
  -2  11   8 1228.16 110.831  12
  -2  11   8 1131.66 116.077  42
  -2  11   9 3116.81 153.155  27
  -2  11   9 3699.21 171.325  12
  -2  11   9 3608.07 171.731  23
  -2  11   9 3584.31 182.141  42
  -2  12   2 204.239 50.5329  35
  -2  12   2 223.319 52.8727  41
  -2  12   3 4332.47 202.753  35
  -2  12   3 3785.02 165.740  10
  -2  12   3 4175.55 182.839  23
  -2  12   4 2028.84 125.626  10
  -2  12   4 2454.61 146.197  23
  -2  12   5 3417.22 180.062  35
  -2  12   5 2919.18 140.353  10
  -2  12   5 3264.76 169.321  23
  -2  12   6 3860.16 181.997  35
  -2  12   7 4124.32 170.588  23
  -1 -13  -8 1053.03 99.3643  45
  -1 -13  -7 1116.00 126.344  15
  -1 -13  -7 1040.78 75.9370   1
  -1 -13  -7 1095.79 115.914  45
  -1 -13  -6 3021.70 136.788   1
  -1 -13  -6 2728.43 193.532  15
  -1 -13  -6 2884.50 192.243  45
  -1 -13  -6 2448.78 164.698  19
  -1 -13  -5 8487.09 323.055  19
  -1 -13  -5 9043.11 348.489  45
  -1 -13  -5 9143.28 346.239  15
  -1 -13  -5 9573.39 251.218   1
  -1 -13  -4 616.213 103.959  38
  -1 -13  -4 591.937 91.9885  15
  -1 -13  -4 597.972 98.8624  19
  -1 -13  -4 813.938 114.979  45
  -1 -13  -3 2297.82 179.056  38
  -1 -13  -3 1918.39 140.663  44
  -1 -13  -3 1955.18 155.326  11
  -1 -13  -3 2290.93 178.371  45
  -1 -13  -3 2546.15 182.226  19
  -1 -13  -2 618.696 79.8908  44
  -1 -13  -2 850.534 112.239  38
  -1 -13  -2 764.713 102.361  19
  -1 -13  -2 602.355 89.7474  11
  -1 -13  -1 1869.78 142.775  11
  -1 -12 -10 3768.37 216.521  25
  -1 -12 -10 3531.04 218.518  39
  -1 -12 -10 4064.02 207.872  15
  -1 -12  -9 1116.77 138.205  25
  -1 -12  -9 964.152 136.001  39
  -1 -12  -9 1200.40 136.126  15
  -1 -12  -9 978.386 114.721  45
  -1 -12  -9 1024.60 86.5174   1
  -1 -12  -8 780.506 141.132  39
  -1 -12  -8 1097.64 101.653   1
  -1 -12  -8 1025.06 144.030  15
  -1 -12  -8 768.015 116.810  45
  -1 -12  -7 4288.92 298.308  25
  -1 -12  -7 4187.24 247.305  19
  -1 -12  -7 4326.09 271.908  45
  -1 -12  -7 4154.60 311.394  39
  -1 -12  -7 4887.07 220.472   1
  -1 -12  -6 6466.61 262.009   1
  -1 -12  -6 6500.70 362.443  15
  -1 -12  -6 5624.01 346.540  25
  -1 -12  -6 5440.84 300.662  38
  -1 -12  -6 5207.38 355.938  39
  -1 -12  -6 5918.10 314.731  19
  -1 -12  -6 5373.69 317.707  45
  -1 -12  -5 1822.53 144.195   1
  -1 -12  -5 1594.68 180.205  38
  -1 -12  -5 1658.10 180.623  19
  -1 -12  -5 1547.95 179.898  45
  -1 -12  -5 1791.55 199.225  15
  -1 -12  -4 4.72475 78.1051  45
  -1 -12  -4-141.439 92.9506  38
  -1 -12  -4 27.5852 64.1091  15
  -1 -12  -4-15.5506 60.2577  19
  -1 -12  -4 11.8574 33.2207   1
  -1 -12  -4 70.7640 62.4484  11
  -1 -12  -3 3100.23 239.251  15
  -1 -12  -3 3726.82 271.433  19
  -1 -12  -3 3500.53 269.616  45
  -1 -12  -3 3362.39 255.968  11
  -1 -12  -3 4054.54 209.565   1
  -1 -12  -3 3623.75 276.420  38
  -1 -12  -2 14402.0 537.954  38
  -1 -12  -2 14425.8 510.068  19
  -1 -12  -2 13790.9 508.948  11
  -1 -12  -1 2404.89 195.594  44
  -1 -12  -1 2272.48 207.956  45
  -1 -12  -1 2482.58 224.819  38
  -1 -12  -1 2367.92 174.166  24
  -1 -12  -1 2313.39 210.940  11
  -1 -12   0 2105.85 183.605  19
  -1 -12   0 2043.61 153.455  24
  -1 -12   0 1905.84 167.619  44
  -1 -12   0 1829.50 176.949  45
  -1 -12   1 1005.23 119.301  19
  -1 -12   1 944.539 111.200  44
  -1 -12   1 1068.32 104.961  24
  -1 -12   1 1274.33 137.928  11
  -1 -12   2 2736.48 153.544  19
  -1 -12   2 2903.88 158.813  44
  -1 -12   2 2461.14 156.513  11
  -1 -11 -11 2009.60 165.320  39
  -1 -11 -11 2044.29 165.147  25
  -1 -11 -11 2202.94 114.006   1
  -1 -11 -10 421.786 103.747  39
  -1 -11 -10 418.246 63.6806   1
  -1 -11 -10 239.990 89.4127  25
  -1 -11 -10 316.187 74.8988  13
  -1 -11 -10 356.166 90.8458  15
  -1 -11  -9 258.122 105.271  15
  -1 -11  -9 267.903 113.065  39
  -1 -11  -9 294.790 64.1603   1
  -1 -11  -9 243.214 99.5565  25
  -1 -11  -8 8469.10 367.507  19
  -1 -11  -8 10362.1 474.133  15
  -1 -11  -8 10120.4 351.263   1
  -1 -11  -8 9333.89 492.986  39
  -1 -11  -8 9765.75 468.333  25
  -1 -11  -7 36488.6 878.418  45
  -1 -11  -7 36627.7 684.300   1
  -1 -11  -6 12924.3 542.193  45
  -1 -11  -6 13682.2 433.512   1
  -1 -11  -6 12604.9 521.542  38
  -1 -11  -6 13217.4 587.391  25
  -1 -11  -6 12808.0 620.184  39
  -1 -11  -6 13187.8 526.272  19
  -1 -11  -6 13283.8 577.901  15
  -1 -11  -5 5567.83 412.287  39
  -1 -11  -5 6285.99 293.050   1
  -1 -11  -5 5511.02 388.175  25
  -1 -11  -5 6317.71 386.906  45
  -1 -11  -5 5771.95 372.925  38
  -1 -11  -5 5793.10 367.944  19
  -1 -11  -5 5198.07 328.408  11
  -1 -11  -5 6141.59 396.890  15
  -1 -11  -4 164.668 87.1529  25
  -1 -11  -4 281.278 95.7911  45
  -1 -11  -4 90.3462 51.8127   1
  -1 -11  -4 89.9007 76.5855  15
  -1 -11  -4 341.350 127.371  38
  -1 -11  -4 148.212 90.5636  19
  -1 -11  -4 183.245 98.9864  11
  -1 -11  -4 117.184 103.086  39
  -1 -11  -3 11296.7 526.413  45
  -1 -11  -3 11630.1 543.877  38
  -1 -11  -3 11421.6 517.228  11
  -1 -11  -3 11946.8 410.971   1
  -1 -11  -3 12036.7 524.465  19
  -1 -11  -3 12082.4 531.195  15
  -1 -11  -2 10836.8 509.877  19
  -1 -11  -2 10551.0 378.875   1
  -1 -11  -2 9550.54 450.906  15
  -1 -11  -2 9940.45 507.755  38
  -1 -11  -2 10327.4 504.032  11
  -1 -11  -1 2244.74 249.399  38
  -1 -11  -1 1734.54 156.500   1
  -1 -11  -1 1917.25 217.068  45
  -1 -11  -1 1828.52 221.445  11
  -1 -11   0 1539.45 197.922  19
  -1 -11   0 1284.46 178.027  45
  -1 -11   0 1438.95 166.190  24
  -1 -11   0 1274.93 171.500  44
  -1 -11   1 5480.29 343.143  38
  -1 -11   1 5367.39 284.376  37
  -1 -11   1 5835.84 352.411  11
  -1 -11   1 5933.88 310.808  24
  -1 -11   1 5264.49 327.824  19
  -1 -11   1 5191.47 320.120  45
  -1 -11   1 5315.15 312.430  44
  -1 -11   2 1457.92 170.550  11
  -1 -11   2 2011.30 171.871  24
  -1 -11   2 1692.65 157.780  37
  -1 -11   2 1953.95 182.115  44
  -1 -11   3 1491.83 129.732  37
  -1 -11   3 1283.78 138.320  11
  -1 -11   3 1756.16 144.748  24
  -1 -11   3 1558.02 146.349  44
  -1 -11   3 1457.57 136.324  19
  -1 -11   4 504.501 72.2585  44
  -1 -10 -12 4776.98 230.078  25
  -1 -10 -12 4356.75 224.405  13
  -1 -10 -11 1336.33 111.225   1
  -1 -10 -11 1406.48 166.096  39
  -1 -10 -11 1130.64 149.057  13
  -1 -10 -11 1211.21 153.415  25
  -1 -10 -10 1008.15 158.777  25
  -1 -10 -10 1152.25 180.922  39
  -1 -10 -10 1057.55 113.077   1
  -1 -10 -10 903.429 148.237  13
  -1 -10 -10 1104.53 151.662  15
  -1 -10  -9 704.996 144.004  15
  -1 -10  -9 417.130 109.872  25
  -1 -10  -9 413.809 126.833  39
  -1 -10  -9 553.626 116.620  13
  -1 -10  -9 758.589 103.720   1
  -1 -10  -8 769.797 168.955  39
  -1 -10  -8 1044.93 156.156  13
  -1 -10  -8 989.760 174.697  25
  -1 -10  -8 995.058 173.217  15
  -1 -10  -8 1093.06 129.897   1
  -1 -10  -7 4344.34 252.337   1
  -1 -10  -7 3986.70 352.411  39
  -1 -10  -7 4108.27 329.578  15
  -1 -10  -6 12820.5 549.357  38
  -1 -10  -6 12763.2 594.870  25
  -1 -10  -6 13431.4 642.029  39
  -1 -10  -6 12964.7 444.649   1
  -1 -10  -5 20169.3 710.593  38
  -1 -10  -5 19717.8 654.842  11
  -1 -10  -5 19624.5 544.070   1
  -1 -10  -5 21420.6 707.011  19
  -1 -10  -5 19918.2 735.999  25
  -1 -10  -5 20251.9 787.237  39
  -1 -10  -5 20375.8 731.626  15
  -1 -10  -4 24256.2 611.173   1
  -1 -10  -4 24662.6 792.981  15
  -1 -10  -4 23939.9 801.731  25
  -1 -10  -4 23059.6 779.736  38
  -1 -10  -4 24244.2 761.337  19
  -1 -10  -4 23757.2 771.627  45
  -1 -10  -4 22630.7 827.224  39
  -1 -10  -4 24781.1 768.606  11
  -1 -10  -3 11832.6 548.710  45
  -1 -10  -3 11748.2 565.287  38
  -1 -10  -3 12671.2 446.326   1
  -1 -10  -3 12613.1 576.042  11
  -1 -10  -3 11874.4 559.668  25
  -1 -10  -3 12647.0 563.502  19
  -1 -10  -3 12298.4 552.768  15
  -1 -10  -3 11550.1 585.372  39
  -1 -10  -2 3357.73 312.193  39
  -1 -10  -2 3897.62 307.789  15
  -1 -10  -2 3946.23 245.108   1
  -1 -10  -2 3722.06 315.009  19
  -1 -10  -2 4036.16 340.275  38
  -1 -10  -2 3343.78 313.119  11
  -1 -10  -1 21869.0 772.251  38
  -1 -10  -1 20597.4 723.321  45
  -1 -10  -1 22342.0 770.645  11
  -1 -10   0 23674.5 589.439   1
  -1 -10   0 22190.6 749.538  45
  -1 -10   0 22591.0 679.692  37
  -1 -10   0 21604.3 764.150  38
  -1 -10   0 22638.7 757.586  19
  -1 -10   1 16356.4 626.416  45
  -1 -10   1 17137.4 664.042  11
  -1 -10   1 16745.8 666.281  38
  -1 -10   1 16733.7 583.703  37
  -1 -10   1 16290.2 627.533  19
  -1 -10   1 16569.6 577.020  24
  -1 -10   2 806.607 135.446  24
  -1 -10   2 779.943 113.840   6
  -1 -10   2 621.610 134.842  19
  -1 -10   2 778.891 147.685  45
  -1 -10   2 861.303 146.424  37
  -1 -10   2 855.808 161.422  38
  -1 -10   2 931.422 164.125  11
  -1 -10   2 803.138 140.012  44
  -1 -10   3 892.760 143.462  44
  -1 -10   3 619.411 119.904  19
  -1 -10   3 449.419 90.1824   6
  -1 -10   3 781.517 131.430  37
  -1 -10   3 622.227 109.624  24
  -1 -10   3 562.726 119.432  11
  -1 -10   4 2438.90 200.428  44
  -1 -10   4 2472.91 192.620  11
  -1 -10   4 2273.94 182.271  19
  -1 -10   4 2858.42 185.659   6
  -1 -10   4 2763.32 207.047  37
  -1 -10   4 2853.96 206.238  24
  -1 -10   5 1165.51 116.308  24
  -1 -10   5 1258.45 108.560   6
  -1 -10   5 1360.41 127.569  37
  -1  -9 -13 2585.50 165.862  13
  -1  -9 -12 7057.54 331.297  13
  -1  -9 -12 6958.08 312.059  25
  -1  -9 -12 7335.02 245.172   1
  -1  -9 -11 2868.26 245.179  13
  -1  -9 -11 2918.84 246.709  39
  -1  -9 -11 2996.30 244.060  25
  -1  -9 -11 2938.95 181.671   1
  -1  -9 -10 4174.00 335.725  26
  -1  -9 -10 4624.71 340.324  39
  -1  -9 -10 4580.56 247.648   1
  -1  -9 -10 4327.78 323.731  25
  -1  -9 -10 4627.46 309.190  15
  -1  -9 -10 4821.69 322.494  13
  -1  -9  -9 21288.7 768.364  26
  -1  -9  -9 22792.3 736.180  15
  -1  -9  -9 22746.0 756.262  25
  -1  -9  -9 23386.6 729.487  13
  -1  -9  -9 22384.2 786.670  39
  -1  -9  -9 23281.0 579.921   1
  -1  -9  -8 58242.7 930.664   1
  -1  -9  -8 59236.8 1160.02  13
  -1  -9  -8 58876.0 1241.87  25
  -1  -9  -8 59801.9 1236.21  15
  -1  -9  -8 61302.5 1331.40  39
  -1  -9  -7 12198.7 572.782  25
  -1  -9  -7 13759.2 555.270  13
  -1  -9  -7 13604.2 634.827  39
  -1  -9  -7 13142.2 579.190  15
  -1  -9  -7 12765.5 435.825   1
  -1  -9  -6 7556.03 335.151   1
  -1  -9  -6 7126.19 432.000  25
  -1  -9  -5 8073.95 342.341   1
  -1  -9  -5 7799.08 449.317  25
  -1  -9  -5 7776.94 822.801  16
  -1  -9  -5 8117.47 484.795  39
  -1  -9  -5 8112.83 456.735  15
  -1  -9  -4 18408.8 645.877  11
  -1  -9  -4 18349.4 679.173  25
  -1  -9  -4 17657.3 704.357  39
  -1  -9  -4 17861.3 511.154   1
  -1  -9  -4 18535.3 673.859  15
  -1  -9  -3 63494.0 1279.25  38
  -1  -9  -3 64127.3 953.477   1
  -1  -9  -3 63036.0 1254.91  25
  -1  -9  -3 64703.5 1327.59  39
  -1  -9  -3 64270.1 1235.87  19
  -1  -9  -3 64789.6 1246.41  15
  -1  -9  -3 67602.1 1265.53  11
  -1  -9  -2 19218.6 691.987  11
  -1  -9  -2 19715.4 690.511  25
  -1  -9  -2 19225.7 721.009  39
  -1  -9  -2 17294.2 1149.58  16
  -1  -9  -2 19717.6 678.600  19
  -1  -9  -2 19119.7 664.927  15
  -1  -9  -2 18905.0 521.737   1
  -1  -9  -2 19521.7 714.507  38
  -1  -9  -1 9843.66 539.120  11
  -1  -9  -1 10582.1 399.502   1
  -1  -9  -1 10642.9 506.174  45
  -1  -9  -1 9885.06 510.176  39
  -1  -9  -1 10079.1 520.356  38
  -1  -9   0 1636.57 224.812  38
  -1  -9   0 1736.19 165.898   1
  -1  -9   0 1762.87 222.949  45
  -1  -9   0 1724.79 219.957  19
  -1  -9   1 6102.70 412.727  38
  -1  -9   1 6004.23 397.506  19
  -1  -9   1 5866.76 416.323  11
  -1  -9   1 5921.26 374.963  37
  -1  -9   1 5726.63 380.270  45
  -1  -9   1 6182.06 329.716   6
  -1  -9   2 4947.13 351.990  45
  -1  -9   2 5268.14 388.054  11
  -1  -9   2 5500.99 356.166  24
  -1  -9   2 5583.18 326.697   6
  -1  -9   2 6038.48 380.013  37
  -1  -9   2 5141.12 373.237  38
  -1  -9   2 5467.80 373.772  19
  -1  -9   2 5154.30 363.739  44
  -1  -9   3 2270.35 209.776   6
  -1  -9   3 1860.86 224.169  44
  -1  -9   3 1977.41 225.154  19
  -1  -9   3 1989.22 229.035  45
  -1  -9   3 2453.88 243.309  37
  -1  -9   3 1870.18 236.929  11
  -1  -9   3 2178.82 226.271  24
  -1  -9   3 2028.24 237.303  38
  -1  -9   4 8074.72 426.736  11
  -1  -9   4 9037.22 419.969  24
  -1  -9   4 9277.28 438.765  37
  -1  -9   4 7995.21 400.680  19
  -1  -9   4 9039.69 388.999   6
  -1  -9   5 1168.63 142.090  19
  -1  -9   5 1660.98 158.293   6
  -1  -9   5 1593.69 174.860  37
  -1  -9   5 1610.59 169.046  24
  -1  -9   6 578.988 93.9862  50
  -1  -9   6 668.569 100.836  24
  -1  -9   6 747.509 107.956  37
  -1  -9   6 579.020 96.1102  44
  -1  -9   6 768.571 96.9865   6
  -1  -8 -13 865.885 77.1880   1
  -1  -8 -13 1057.38 121.775  13
  -1  -8 -12 4029.40 304.428  26
  -1  -8 -12 4405.06 312.224  40
  -1  -8 -12 4619.24 272.090  25
  -1  -8 -12 4723.42 219.802   1
  -1  -8 -11 3726.49 313.405  40
  -1  -8 -11 4060.81 297.473  39
  -1  -8 -11 3988.61 291.167  25
  -1  -8 -11 3755.76 326.288  26
  -1  -8 -11 4035.74 299.808  13
  -1  -8 -11 4420.79 237.332   1
  -1  -8 -10 2454.22 259.704  39
  -1  -8 -10 2337.89 228.582  15
  -1  -8 -10 2068.11 256.554  26
  -1  -8 -10 2249.76 242.847  25
  -1  -8 -10 2438.82 190.480   1
  -1  -8 -10 2359.28 243.932  13
  -1  -8 -10 2164.20 263.755  40
  -1  -8  -9 32464.4 963.569  26
  -1  -8  -9 33312.7 928.661  25
  -1  -8  -9 32611.9 978.403  40
  -1  -8  -9 34172.1 908.879  13
  -1  -8  -9 32707.8 700.147   1
  -1  -8  -9 33959.2 894.480  15
  -1  -8  -9 35353.6 990.067  39
  -1  -8  -8 3081.28 283.200  15
  -1  -8  -8 3347.10 311.842  39
  -1  -8  -8 3077.13 297.789  26
  -1  -8  -8 2979.92 284.296  25
  -1  -8  -8 3013.51 275.585  13
  -1  -8  -8 2896.40 210.487   1
  -1  -8  -8 2961.76 293.848  40
  -1  -8  -7 4485.38 361.748  39
  -1  -8  -7 4848.05 349.080  15
  -1  -8  -7 4738.04 320.787  13
  -1  -8  -7 4233.17 348.379  40
  -1  -8  -7 4939.68 634.913  16
  -1  -8  -7 4384.33 577.799   9
  -1  -8  -7 4534.61 340.649  25
  -1  -8  -7 4945.43 270.176   1
  -1  -8  -7 4631.96 358.775  26
  -1  -8  -6 26330.4 817.920  40
  -1  -8  -6 26581.4 848.942  39
  -1  -8  -6 26275.5 797.028  15
  -1  -8  -6 25834.0 1416.21  16
  -1  -8  -6 25625.8 803.161  26
  -1  -8  -6 26677.3 608.417   1
  -1  -8  -6 23541.0 1267.24   9
  -1  -8  -5 18129.4 500.816   1
  -1  -8  -5 18707.8 1175.74  16
  -1  -8  -5 19415.8 672.015  25
  -1  -8  -5 19729.0 723.156  39
  -1  -8  -4 19674.1 510.709   1
  -1  -8  -4 21652.9 694.945  15
  -1  -8  -4 20764.8 687.361  25
  -1  -8  -4 21744.2 1245.56  16
  -1  -8  -4 22722.1 750.909  39
  -1  -8  -3 6620.33 681.022  16
  -1  -8  -3 6062.89 285.094   1
  -1  -8  -3 7049.45 420.711  39
  -1  -8  -3 6300.01 373.742  15
  -1  -8  -3 6464.72 378.975  25
  -1  -8  -2 82554.4 2344.05  16
  -1  -8  -2 82872.7 1318.97  15
  -1  -8  -2 84570.8 1389.23  11
  -1  -8  -2 83268.9 1341.89  25
  -1  -8  -1 53250.2 1079.30  25
  -1  -8  -1 49289.6 829.210   1
  -1  -8  -1 50099.6 1119.53  11
  -1  -8  -1 52909.3 1076.11  45
  -1  -8  -1 49776.9 1815.31  16
  -1  -8  -1 53409.5 1129.49  39
  -1  -8   0 12861.1 541.836  45
  -1  -8   0 14075.0 440.889   1
  -1  -8   0 12669.3 544.876  19
  -1  -8   0 13224.6 841.631   7
  -1  -8   0 13247.7 578.460  38
  -1  -8   1 7839.14 453.493  11
  -1  -8   1 7392.87 437.572  38
  -1  -8   1 7707.34 682.692   7
  -1  -8   1 8533.03 346.554   1
  -1  -8   1 7599.75 438.686  19
  -1  -8   1 7105.02 410.114  45
  -1  -8   2 950.822 168.143  11
  -1  -8   2 695.857 132.798   6
  -1  -8   2 751.233 154.763  19
  -1  -8   2 575.682 139.445  45
  -1  -8   2 747.961 165.278  38
  -1  -8   2 775.552 251.654   7
  -1  -8   3 17671.6 651.449  45
  -1  -8   3 17439.8 679.007  11
  -1  -8   3 17642.6 664.565  19
  -1  -8   3 18191.7 690.613  38
  -1  -8   3 18130.2 641.905  24
  -1  -8   3 18248.8 597.330   6
  -1  -8   3 18455.9 677.059  37
  -1  -8   4 1588.71 195.579  19
  -1  -8   4 1937.71 216.472  24
  -1  -8   4 1650.69 217.209  37
  -1  -8   4 1569.46 207.218  11
  -1  -8   4 1611.73 206.004  38
  -1  -8   4 1606.78 183.713   6
  -1  -8   5 2934.61 247.306  19
  -1  -8   5 3208.51 257.180   6
  -1  -8   5 3286.64 274.901  44
  -1  -8   5 3597.72 288.957  37
  -1  -8   6 168.152 66.4012   6
  -1  -8   6 60.2940 67.0657  44
  -1  -8   6 93.6794 71.9938  37
  -1  -8   6 103.770 44.1264   3
  -1  -8   7 2349.56 184.549  24
  -1  -8   7 1848.21 166.530  44
  -1  -8   7 1590.34 156.533  50
  -1  -8   7 2497.24 141.733   3
  -1  -8   7 2658.31 182.319   6
  -1  -8   8 278.636 56.9527  50
  -1  -7 -13 3493.35 248.752  40
  -1  -7 -13 3561.50 253.729  26
  -1  -7 -13 3829.06 239.522  13
  -1  -7 -13 4000.11 179.251   1
  -1  -7 -12 110.595 73.0408  13
  -1  -7 -12 60.7347 61.9090  25
  -1  -7 -12 150.332 90.1950  26
  -1  -7 -12 19.6681 33.3358   1
  -1  -7 -11 1219.95 198.257  40
  -1  -7 -11 1245.11 180.376  25
  -1  -7 -11 1318.36 139.541   1
  -1  -7 -10 64501.2 1291.13  39
  -1  -7 -10 62265.2 970.204   1
  -1  -7 -10 63519.5 1246.13  25
  -1  -7 -10 64355.0 1260.90  13
  -1  -7 -10 61505.6 1311.78  40
  -1  -7 -10 62357.9 1343.94  26
  -1  -7  -9 34249.1 957.747  39
  -1  -7  -9 32617.6 886.027  13
  -1  -7  -9 33937.1 982.124  40
  -1  -7  -9 32890.0 861.287  15
  -1  -7  -9 33101.7 967.629  26
  -1  -7  -9 30995.7 682.022   1
  -1  -7  -8 3901.40 241.149   1
  -1  -7  -8 4413.34 348.235  40
  -1  -7  -8 4515.60 351.559  39
  -1  -7  -8 4044.10 306.420  13
  -1  -7  -8 3848.07 326.078  26
  -1  -7  -8 3830.67 537.907  16
  -1  -7  -8 3605.89 535.131   9
  -1  -7  -8 4112.97 313.755  15
  -1  -7  -7 24705.9 1323.75  16
  -1  -7  -7 26452.5 756.448  13
  -1  -7  -7 24465.2 1308.69   9
  -1  -7  -7 25949.1 811.813  26
  -1  -7  -7 28148.0 844.054  39
  -1  -7  -7 24996.4 588.979   1
  -1  -7  -7 27450.6 825.641  40
  -1  -7  -7 25431.7 766.666  15
  -1  -7  -6 25246.3 763.468  40
  -1  -7  -6 25801.7 793.413  39
  -1  -7  -6 24957.3 754.759  26
  -1  -7  -6 24407.3 728.856  25
  -1  -7  -6 24962.9 1241.34   9
  -1  -7  -6 25714.8 708.512  13
  -1  -7  -6 24892.9 1290.79  16
  -1  -7  -6 23713.9 556.692   1
  -1  -7  -6 23876.3 724.488  15
  -1  -7  -5 15398.9 568.047  15
  -1  -7  -5 16462.7 583.737  25
  -1  -7  -5 14697.4 889.014   9
  -1  -7  -4 4829.14 548.009  16
  -1  -7  -4 4664.75 469.114   9
  -1  -7  -3 18298.7 1035.98  16
  -1  -7  -2 117705. 2063.84   7
  -1  -7  -2 121951. 2598.64  16
  -1  -7  -1 13213.4 732.738   7
  -1  -7  -1 11961.4 812.005  16
  -1  -7   0 43474.7 1522.98  16
  -1  -7   0 44010.0 961.150  11
  -1  -7   0 43670.8 914.681  19
  -1  -7   0 43544.5 973.275  38
  -1  -7   1 29121.9 770.104  45
  -1  -7   1 28911.1 812.623  38
  -1  -7   1 29638.6 787.675  19
  -1  -7   1 29058.5 612.227   1
  -1  -7   1 29807.8 819.604  11
  -1  -7   2 7813.19 419.144  45
  -1  -7   2 9140.71 746.642   7
  -1  -7   2 8650.41 436.398  19
  -1  -7   2 8460.76 455.456  11
  -1  -7   2 8490.52 453.056  38
  -1  -7   3 7510.09 413.560  45
  -1  -7   3 7078.18 415.544  37
  -1  -7   3 6809.98 426.425  11
  -1  -7   3 8065.30 736.274   7
  -1  -7   3 7193.19 378.331   6
  -1  -7   3 7255.32 409.334  19
  -1  -7   3 7982.21 446.152  38
  -1  -7   4 3383.42 288.041  11
  -1  -7   4 3324.01 277.629  19
  -1  -7   4 3386.78 287.219  45
  -1  -7   4 3043.67 270.436   6
  -1  -7   4 3342.55 296.827  38
  -1  -7   4 3473.72 298.597  37
  -1  -7   4 3190.53 290.099  44
  -1  -7   5 533.580 133.569  37
  -1  -7   5 360.375 114.873  44
  -1  -7   5 568.902 128.543  19
  -1  -7   5 474.127 126.406   6
  -1  -7   6 6966.60 397.987  44
  -1  -7   6 8176.53 418.146  24
  -1  -7   7 835.360 132.495  24
  -1  -7   7 803.645 128.835  44
  -1  -7   7 787.042 105.097   3
  -1  -7   7 1045.91 156.655  37
  -1  -7   8 8037.83 339.467  37
  -1  -7   8 7426.83 319.767  44
  -1  -7   8 9094.17 335.452   6
  -1  -7   8 6365.74 308.360  50
  -1  -7   8 9674.92 285.176   3
  -1  -7   8 7796.33 325.560  24
  -1  -7   9 651.655 81.6001  50
  -1  -7   9 1083.07 93.9220   6
  -1  -6 -14 266.852 62.9722  40
  -1  -6 -13 1236.59 157.210  26
  -1  -6 -13 1195.92 139.027  13
  -1  -6 -13 1390.46 164.084  40
  -1  -6 -13 1378.88 115.130   1
  -1  -6 -12 120.130 54.7940   1
  -1  -6 -12 139.412 94.3751  26
  -1  -6 -12 57.8601 65.9221  40
  -1  -6 -12 156.441 83.3695  13
  -1  -6 -11 3464.43 227.769   1
  -1  -6 -11 3408.05 290.129  13
  -1  -6 -11 3164.40 298.582  26
  -1  -6 -10 32686.0 902.219  13
  -1  -6 -10 32935.0 713.474   1
  -1  -6  -9 167680. 2145.44  26
  -1  -6  -9 155633. 1525.65   1
  -1  -6  -9 167667. 2126.09  40
  -1  -6  -9 158122. 3557.78   9
  -1  -6  -9 163293. 3400.19  16
  -1  -6  -8 32230.0 851.155  13
  -1  -6  -8 29448.2 865.654  40
  -1  -6  -8 28409.9 1368.89  16
  -1  -6  -8 31075.0 887.872  26
  -1  -6  -8 29261.8 641.507   1
  -1  -6  -8 31322.0 1506.03   9
  -1  -6  -7 15028.5 442.684   1
  -1  -6  -7 16260.6 608.046  40
  -1  -6  -7 15886.1 571.223  13
  -1  -6  -7 15661.7 603.251  26
  -1  -6  -7 13818.0 943.852  16
  -1  -6  -7 15764.4 1000.01   9
  -1  -6  -6 50498.6 1660.96   9
  -1  -6  -6 49173.9 1681.67  16
  -1  -6  -5 7499.57 584.230  30
  -1  -6  -5 7771.50 611.334   9
  -1  -6  -5 8082.54 641.743  16
  -1  -6  -4 1061.91 224.088  30
  -1  -6  -4 1277.97 250.573  16
  -1  -6  -4 1302.60 237.674   9
  -1  -6  -3 6281.58 405.772   7
  -1  -6  -3 6187.55 464.227   9
  -1  -6  -3 6139.41 531.422  16
  -1  -6  -2 56807.5 1570.09  16
  -1  -6  -2 56541.8 1280.05   7
  -1  -6  -1 10936.4 702.919  16
  -1  -6  -1 11468.5 614.828   7
  -1  -6   0 1194.97 221.410   7
  -1  -6   0 1099.20 227.148  16
  -1  -6   1 583.249 180.349   7
  -1  -6   1 631.213 168.328  16
  -1  -6   2 78063.9 1968.02   7
  -1  -6   3 46522.8 966.650  45
  -1  -6   3 42372.3 949.396  11
  -1  -6   3 43801.3 938.228  19
  -1  -6   3 44733.2 1600.87   7
  -1  -6   3 45434.0 990.188  38
  -1  -6   4 3515.34 290.193  38
  -1  -6   4 3652.57 261.646   6
  -1  -6   4 2931.13 261.427  24
  -1  -6   4 3113.90 284.641  44
  -1  -6   4 3069.77 257.975  19
  -1  -6   4 2993.35 265.482  11
  -1  -6   4 3601.67 496.007   7
  -1  -6   4 2754.80 263.187  37
  -1  -6   4 3282.51 277.001  45
  -1  -6   5 4706.44 325.405  19
  -1  -6   5 4458.95 557.966   7
  -1  -6   5 4976.32 335.678  24
  -1  -6   5 4790.49 336.925  44
  -1  -6   5 4633.58 318.675   6
  -1  -6   6 7614.38 439.660  37
  -1  -6   6 7453.08 423.187  44
  -1  -6   6 7417.79 416.544  24
  -1  -6   7 10645.4 493.152  37
  -1  -6   7 10685.8 456.564   6
  -1  -6   7 10140.1 462.308  24
  -1  -6   7 9859.32 464.578  36
  -1  -6   7 9995.63 468.561  44
  -1  -6   8 3638.91 217.809   3
  -1  -6   8 3625.71 255.052  24
  -1  -6   8 3372.88 253.745  44
  -1  -6   8 3584.19 251.091   6
  -1  -6   8 3008.91 234.609  36
  -1  -6   8 3294.54 258.337  50
  -1  -6   8 3706.08 270.021  37
  -1  -6   9 2125.63 161.234   6
  -1  -6   9 1727.96 148.598  36
  -1  -6   9 1689.10 160.297  50
  -1  -6   9 2303.77 143.952   3
  -1  -5 -14 471.784 78.1997  40
  -1  -5 -13 3980.45 196.525   1
  -1  -5 -13 3772.72 263.601  40
  -1  -5 -13 4007.95 272.685  26
  -1  -5 -13 3566.47 236.624  13
  -1  -5 -13 3576.98 199.405   4
  -1  -5 -12 2168.34 170.709   1
  -1  -5 -12 2392.92 247.703  26
  -1  -5 -12 2480.76 230.051  13
  -1  -5 -12 2107.30 181.102   4
  -1  -5 -12 2116.48 231.024  40
  -1  -5 -11 49573.2 1162.78  40
  -1  -5 -11 48545.9 852.280   1
  -1  -5 -11 47918.5 1144.74  26
  -1  -5 -11 49645.6 924.115   4
  -1  -5 -11 51939.9 1109.06  13
  -1  -5 -10 2343.58 190.790   1
  -1  -5 -10 2931.23 268.653  13
  -1  -5 -10 2470.70 272.742  26
  -1  -5 -10 2411.57 205.569   4
  -1  -5 -10 2608.86 277.836  40
  -1  -5  -9 9719.04 484.684  13
  -1  -5  -9 9311.94 840.863   9
  -1  -5  -9 8839.80 460.698  46
  -1  -5  -9 9062.00 362.486   1
  -1  -5  -8 6379.70 399.148  26
  -1  -5  -8 6354.90 294.906   1
  -1  -5  -8 6511.65 394.454  40
  -1  -5  -8 6634.74 634.807  16
  -1  -5  -7 88261.9 2261.37   9
  -1  -5  -7 86676.4 2151.05  16
  -1  -5  -6 13135.2 798.334  16
  -1  -5  -6 13397.5 809.498   9
  -1  -5  -5 19786.1 837.731  30
  -1  -5  -5 19970.1 918.485   9
  -1  -5  -5 21056.0 945.221  16
  -1  -5  -5 21033.7 794.775   2
  -1  -5  -4 82.1648 50.5024   2
  -1  -5  -4 265.856 113.977  30
  -1  -5  -4 54.7334 88.6055   9
  -1  -5  -3 37476.3 891.398   7
  -1  -5  -3 35801.8 1131.97  16
  -1  -5  -3 33683.6 1110.73  30
  -1  -5  -3 36148.4 910.713   2
  -1  -5  -3 36110.4 1022.05   9
  -1  -5  -2 73558.1 1288.50   7
  -1  -5  -2 71042.6 1631.99  30
  -1  -5  -2 72428.6 1253.86   2
  -1  -5  -2 75881.1 1337.28   9
  -1  -5  -2 69978.9 1557.10  16
  -1  -5  -1 3120.83 270.851   2
  -1  -5  -1 2662.19 268.920   7
  -1  -5  -1 2654.13 300.328  16
  -1  -5   0 1003.05 157.379   2
  -1  -5   0 896.224 170.334   7
  -1  -5   0 839.561 172.542  16
  -1  -5   1 35443.0 1111.33   7
  -1  -5   1 32288.1 878.349  22
  -1  -5   1 33524.9 1040.12  16
  -1  -5   2 76486.6 1781.12   7
  -1  -5   2 71045.3 1442.39  22
  -1  -5   3 22554.0 896.283  22
  -1  -5   3 23730.8 1070.99   7
  -1  -5   4 30707.9 777.427  44
  -1  -5   4 31759.2 774.440  45
  -1  -5   4 28368.4 768.458  37
  -1  -5   4 28942.7 1113.85  22
  -1  -5   4 30631.9 759.317  24
  -1  -5   5 16380.6 599.775  44
  -1  -5   5 16721.0 591.181  24
  -1  -5   5 16125.5 906.536  22
  -1  -5   5 15605.6 604.747  37
  -1  -5   5 15650.4 1005.31   7
  -1  -5   5 15240.2 538.164   6
  -1  -5   6 10228.6 466.486  24
  -1  -5   6 9813.07 475.725  44
  -1  -5   6 10112.9 488.529  37
  -1  -5   6 9560.74 446.698   6
  -1  -5   6 10357.2 852.719   7
  -1  -5   7 1009.02 174.331  37
  -1  -5   7 986.242 144.460   6
  -1  -5   7 910.903 156.612  24
  -1  -5   7 1004.12 169.063  44
  -1  -5   7 738.493 135.600  20
  -1  -5   8 14069.7 542.110  44
  -1  -5   8 14822.2 578.757  36
  -1  -5   8 14463.1 537.607  24
  -1  -5   8 13864.3 496.712  20
  -1  -5   8 15232.1 480.576   3
  -1  -5   8 13765.5 564.582  50
  -1  -5   8 14802.7 573.685  37
  -1  -5   9 5523.80 260.472   3
  -1  -5   9 5269.36 305.617  37
  -1  -5   9 5356.84 281.429   6
  -1  -5   9 5239.45 292.524  24
  -1  -5   9 4388.87 298.370  50
  -1  -5   9 5141.97 313.043  36
  -1  -5   9 4860.57 261.743  20
  -1  -5  10 8758.50 326.817  36
  -1  -5  10 8301.39 330.249  50
  -1  -4 -14 218.428 54.3242  40
  -1  -4 -13 345.921 71.3771   4
  -1  -4 -13 184.262 63.1317  13
  -1  -4 -13 333.148 61.3490   1
  -1  -4 -13 235.846 68.3105  26
  -1  -4 -13 331.945 92.0580  40
  -1  -4 -12 12966.8 558.204  26
  -1  -4 -12 12514.7 551.521  40
  -1  -4 -12 13336.6 521.955  13
  -1  -4 -12 13749.2 426.274   1
  -1  -4 -12 13113.5 463.250   4
  -1  -4 -11 3553.18 301.303  13
  -1  -4 -11 3567.89 256.923   4
  -1  -4 -11 3227.74 298.270  40
  -1  -4 -11 3075.31 292.294  46
  -1  -4 -11 3455.22 314.107  26
  -1  -4 -11 3709.13 241.792   1
  -1  -4 -10 690.846 136.827  32
  -1  -4 -10 612.465 105.157   4
  -1  -4 -10 584.697 126.443  46
  -1  -4 -10 741.456 149.062  13
  -1  -4 -10 764.660 148.792  26
  -1  -4 -10 638.783 100.679   1
  -1  -4 -10 631.338 137.830  29
  -1  -4 -10 579.837 136.029  40
  -1  -4  -9 2836.18 457.123   9
  -1  -4  -9 2544.73 192.448   1
  -1  -4  -9 2790.04 259.276  13
  -1  -4  -9 2356.73 210.320   4
  -1  -4  -9 2849.64 274.596  40
  -1  -4  -9 2707.03 260.247  46
  -1  -4  -9 2722.80 269.064  26
  -1  -4  -9 2768.08 247.940  32
  -1  -4  -9 2510.02 237.340  29
  -1  -4  -8 21479.8 672.508  13
  -1  -4  -8 19969.4 1050.02  16
  -1  -4  -8 20516.9 623.545  32
  -1  -4  -8 20734.3 695.097  26
  -1  -4  -8 20521.4 517.742   1
  -1  -4  -8 21801.5 1160.40   9
  -1  -4  -8 20041.0 618.700  29
  -1  -4  -8 22482.2 581.359   4
  -1  -4  -8 21192.6 673.639  46
  -1  -4  -7 11893.3 738.094  16
  -1  -4  -6 1880.62 280.064  16
  -1  -4  -6 1844.46 294.776   9
  -1  -4  -5 16382.2 755.002  16
  -1  -4  -5 17204.8 712.555  30
  -1  -4  -5 17565.5 799.079   9
  -1  -4  -5 17393.4 712.388   2
  -1  -4  -4 121883. 1842.81  30
  -1  -4  -4 120255. 1878.28   9
  -1  -4  -4 107299. 1834.13  16
  -1  -4  -4 111146. 1631.34   2
  -1  -4  -3 98893.2 1429.74   2
  -1  -4  -3 98255.7 1524.69   9
  -1  -4  -3 101699. 1664.96  30
  -1  -4  -2 66503.0 1126.05   9
  -1  -4  -2 62814.9 1306.05  30
  -1  -4  -2 64606.3 1101.79   2
  -1  -4  -2 62910.1 1289.70  16
  -1  -4  -1 57772.2 1286.10  30
  -1  -4  -1 58898.3 909.091   9
  -1  -4  -1 58717.3 1198.41  16
  -1  -4  -1 61545.1 1067.10   2
  -1  -4  -1 58161.6 1065.18   7
  -1  -4   0 17827.6 600.248   2
  -1  -4   0 17742.9 636.768   7
  -1  -4   0 18705.6 572.525   2
  -1  -4   0 17165.4 649.304  16
  -1  -4   1 157791. 2063.43   7
  -1  -4   1 153218. 1905.60  16
  -1  -4   1 160008. 1825.60   2
  -1  -4   2 87520.3 1675.76   7
  -1  -4   2 90073.9 1484.85  22
  -1  -4   3 65915.5 1221.69  14
  -1  -4   3 67216.8 1426.18  22
  -1  -4   4 24311.6 964.417  22
  -1  -4   4 26543.7 1105.71   7
  -1  -4   5 46525.5 937.359  44
  -1  -4   5 45698.4 964.257  37
  -1  -4   5 46081.6 1488.86  22
  -1  -4   5 46355.7 911.385  24
  -1  -4   5 47694.4 896.817   6
  -1  -4   6 4613.56 519.428  22
  -1  -4   6 5168.73 335.126  44
  -1  -4   6 4993.89 320.697  24
  -1  -4   6 4843.94 561.657   7
  -1  -4   6 4519.88 294.431   6
  -1  -4   6 5031.16 348.610  37
  -1  -4   7 10664.5 491.785  44
  -1  -4   7 11025.6 484.222  24
  -1  -4   7 10421.1 478.948  20
  -1  -4   7 11861.1 526.683  37
  -1  -4   7 11184.9 873.797   7
  -1  -4   7 11508.9 474.720   6
  -1  -4   7 9956.33 793.494  22
  -1  -4   8 2876.45 254.927  44
  -1  -4   8 3077.23 239.734   6
  -1  -4   8 2842.52 250.856  20
  -1  -4   8 3036.70 279.764  36
  -1  -4   8 3021.66 261.272  24
  -1  -4   8 2952.62 222.280   3
  -1  -4   8 3316.06 282.184  37
  -1  -4   9 8577.23 354.457   3
  -1  -4   9 7672.82 421.872  36
  -1  -4   9 7774.50 386.592  24
  -1  -4   9 7748.59 377.529  20
  -1  -4   9 8060.25 405.707  37
  -1  -4   9 8605.59 386.009   6
  -1  -4  10 2151.94 168.346   6
  -1  -4  10 2378.91 162.762   3
  -1  -4  10 2051.87 194.694  36
  -1  -4  10 1986.99 171.192  20
  -1  -4  11 235.374 54.0452  20
  -1  -4  11 345.697 53.7405   3
  -1  -4  11 240.057 61.0665  36
  -1  -3 -13 4011.05 261.151  40
  -1  -3 -13 4403.70 203.174   1
  -1  -3 -13 3901.72 246.479  26
  -1  -3 -13 4210.46 228.290   4
  -1  -3 -12 235.893 105.814  40
  -1  -3 -12 154.903 70.6317  13
  -1  -3 -12 172.586 82.6993  26
  -1  -3 -12 201.698 92.8473  46
  -1  -3 -12 183.748 78.2206   4
  -1  -3 -12 197.162 60.9946   1
  -1  -3 -11 1093.26 165.806  29
  -1  -3 -11 935.667 169.874  13
  -1  -3 -11 1033.78 174.091  46
  -1  -3 -11 1075.93 180.675  26
  -1  -3 -11 1136.01 157.454   4
  -1  -3 -11 1151.96 139.686   1
  -1  -3 -11 1224.73 176.109  32
  -1  -3 -11 951.336 179.418  40
  -1  -3 -10 6767.03 411.158  13
  -1  -3 -10 6469.48 314.999   1
  -1  -3 -10 6583.88 428.356  40
  -1  -3 -10 6670.44 427.988  26
  -1  -3 -10 6857.07 395.264  29
  -1  -3 -10 6717.83 358.734   4
  -1  -3 -10 6673.68 425.655  46
  -1  -3 -10 6434.86 388.074  32
  -1  -3  -9 17172.3 609.043  29
  -1  -3  -9 18673.7 696.596  26
  -1  -3  -9 17274.4 612.165  32
  -1  -3  -9 18281.5 649.616  13
  -1  -3  -9 16988.2 492.445   1
  -1  -3  -9 16674.1 646.174  46
  -1  -3  -9 16777.7 554.359   4
  -1  -3  -9 17765.0 1114.26   9
  -1  -3  -8 2052.47 204.762  32
  -1  -3  -8 1918.31 156.342   1
  -1  -3  -8 1983.19 196.366  29
  -1  -3  -8 1885.79 303.094  16
  -1  -3  -8 1929.86 209.853  46
  -1  -3  -8 2099.85 355.691   9
  -1  -3  -8 2063.75 179.590   4
  -1  -3  -7 6187.14 517.343  16
  -1  -3  -7 7380.27 602.836   9
  -1  -3  -6 38022.9 1249.25   9
  -1  -3  -6 36896.2 1169.38  16
  -1  -3  -5 2889.89 319.623  34
  -1  -3  -5 2891.44 286.825   2
  -1  -3  -5 2731.10 268.161  30
  -1  -3  -5 3066.22 310.639  16
  -1  -3  -4 46838.5 1039.50   2
  -1  -3  -4 46789.1 1110.39  34
  -1  -3  -4 47101.7 1021.59  30
  -1  -3  -4 46432.3 1097.39  16
  -1  -3  -4 45331.0 1092.00   9
  -1  -3  -3 213503. 2002.73   2
  -1  -3  -3 216422. 2119.24  34
  -1  -3  -3 218493. 2151.84  30
  -1  -3  -2 28552.4 681.987   2
  -1  -3  -2 27920.9 651.523   9
  -1  -3  -2 26831.5 745.602  30
  -1  -3  -2 27508.5 735.370  16
  -1  -3  -1 379293. 2798.13  30
  -1  -3  -1 408179. 2505.71   2
  -1  -3  -1 396166. 2666.72  16
  -1  -3  -1 398241. 2065.23   9
  -1  -3  -1 425481. 2534.40   7
  -1  -3   0 212371. 2182.08  30
  -1  -3   0 210667. 1845.16  16
  -1  -3   0 214301. 1092.77   9
  -1  -3   0 207695. 1861.33   7
  -1  -3   1 206717. 1826.54  22
  -1  -3   1 209233. 1806.63  16
  -1  -3   1 206071. 2056.11   7
  -1  -3   2 209357. 2072.98  22
  -1  -3   2 214778. 2137.77   2
  -1  -3   3 118169. 1542.96  14
  -1  -3   3 119418. 1776.59  22
  -1  -3   4 42253.5 1175.92  22
  -1  -3   4 42023.6 1010.95  14
  -1  -3   4 44741.9 1306.86   7
  -1  -3   5 14273.7 774.973  22
  -1  -3   5 14638.9 829.274   7
  -1  -3   6 32209.7 782.922  44
  -1  -3   6 31031.9 785.647  37
  -1  -3   6 32399.2 1323.70   7
  -1  -3   6 30732.8 709.452   6
  -1  -3   6 31211.3 743.664  24
  -1  -3   6 30266.4 1247.75  22
  -1  -3   7 15273.8 580.334  37
  -1  -3   7 14359.2 507.924   6
  -1  -3   7 14730.8 543.407  24
  -1  -3   7 14749.2 949.558  22
  -1  -3   7 16073.2 582.012  44
  -1  -3   7 14593.4 941.336   7
  -1  -3   8 1655.91 204.327  37
  -1  -3   8 1602.89 191.682  44
  -1  -3   8 1531.17 182.557   6
  -1  -3   8 1629.49 160.874   3
  -1  -3   8 1822.16 200.549  24
  -1  -3   8 1686.85 216.837  36
  -1  -3   8 1607.35 196.758  20
  -1  -3   8 1552.43 190.720  50
  -1  -3   9 5351.31 341.469  20
  -1  -3   9 5686.82 348.959  37
  -1  -3   9 5577.77 294.238   3
  -1  -3   9 5588.67 366.431  50
  -1  -3   9 5817.68 324.057   6
  -1  -3   9 5711.10 337.790  24
  -1  -3   9 5913.89 392.517  36
  -1  -3  10 769.578 137.763  50
  -1  -3  10 735.312 108.403   3
  -1  -3  10 660.257 109.084   6
  -1  -3  10 642.962 133.998  36
  -1  -3  10 703.512 122.723  20
  -1  -3  11 2441.22 157.619   3
  -1  -3  11 2043.91 178.962  50
  -1  -3  11 2218.78 191.214  36
  -1  -3  11 2222.62 169.893  20
  -1  -3  12 2048.38 130.853  50
  -1  -3  12 3407.29 135.985   3
  -1  -2 -13 2114.68 134.897   1
  -1  -2 -13 2027.90 156.230   4
  -1  -2 -13 1626.44 159.269  40
  -1  -2 -12 14299.8 532.186  29
  -1  -2 -12 13810.2 562.715  46
  -1  -2 -12 15278.4 440.187   1
  -1  -2 -12 15738.0 510.495   4
  -1  -2 -12 14607.8 538.385  32
  -1  -2 -12 14789.1 549.846  26
  -1  -2 -12 14425.3 564.844  40
  -1  -2 -11 34301.4 837.688  13
  -1  -2 -11 36695.1 922.955  29
  -1  -2 -11 36157.7 739.810   1
  -1  -2 -11 37580.9 996.690  40
  -1  -2 -11 37906.3 981.603  26
  -1  -2 -11 38515.7 864.355   4
  -1  -2 -11 35755.8 978.856  46
  -1  -2 -11 35569.0 911.790  32
  -1  -2 -10 37269.6 1001.64  46
  -1  -2 -10 37222.0 944.397  13
  -1  -2 -10 37113.1 936.416  32
  -1  -2 -10 38667.2 948.851  29
  -1  -2 -10 38626.4 1024.82  26
  -1  -2 -10 37024.6 754.219   1
  -1  -2 -10 39991.5 875.239   4
  -1  -2  -9 1580.50 154.679   1
  -1  -2  -9 1808.62 211.016  13
  -1  -2  -9 1654.32 195.964  32
  -1  -2  -9 1705.17 216.726  46
  -1  -2  -9 1919.01 368.346   9
  -1  -2  -9 1718.87 182.072   4
  -1  -2  -9 1880.49 207.691  29
  -1  -2  -8 85232.5 2252.37  49
  -1  -2  -8 91318.1 1412.84  46
  -1  -2  -8 82148.5 2200.28  34
  -1  -2  -8 88121.3 1305.69  29
  -1  -2  -8 84907.0 1051.04   1
  -1  -2  -8 88592.0 2262.02   9
  -1  -2  -8 89748.2 1212.04   4
  -1  -2  -8 89742.1 1330.54  32
  -1  -2  -7 35303.1 1195.13  16
  -1  -2  -7 34795.0 1290.27  34
  -1  -2  -7 34514.2 1276.91   9
  -1  -2  -6 155433. 2485.24  34
  -1  -2  -6 153194. 2444.82   9
  -1  -2  -6 153887. 2483.67  49
  -1  -2  -5 224485. 2547.77   2
  -1  -2  -5 229832. 2560.11  16
  -1  -2  -5 224739. 1835.93  18
  -1  -2  -4 130725. 1689.08   2
  -1  -2  -4 129287. 1735.29  16
  -1  -2  -4 130551. 1104.36  18
  -1  -2  -3 2209.78 218.377  34
  -1  -2  -3 2452.91 215.801  16
  -1  -2  -3 2141.97 212.802   9
  -1  -2  -3 2581.89 213.216   2
  -1  -2  -3 2357.31 102.181  18
  -1  -2  -3 2108.62 207.601  49
  -1  -2  -2 179982. 1583.17  34
  -1  -2  -2 181176. 1568.47   9
  -1  -2  -2 181307. 1606.26   2
  -1  -2  -1 98832.7 940.342  34
  -1  -2  -1 96640.7 1110.60   2
  -1  -2  -1 95347.1 941.758   9
  -1  -2  -1 95987.1 1102.88  16
  -1  -2   0 844005. 3630.12  30
  -1  -2   0 839248. 2054.94   9
  -1  -2   1 622751. 3195.07  30
  -1  -2   1 630102. 2308.76  16
  -1  -2   2 406051. 1607.12  16
  -1  -2   2 412240. 2695.06   2
  -1  -2   3 189253. 2081.22   2
  -1  -2   3 181190. 1786.56  14
  -1  -2   3 183962. 2140.01   7
  -1  -2   3 184168. 2021.50  22
  -1  -2   4 41381.4 969.440  14
  -1  -2   4 42487.4 1103.57  22
  -1  -2   5 44170.8 1127.00  14
  -1  -2   5 44191.3 1254.16  22
  -1  -2   5 43817.8 1305.69   7
  -1  -2   6 23168.2 1034.33   7
  -1  -2   6 22010.3 1008.97  22
  -1  -2   6 21936.3 869.550  14
  -1  -2   7 50288.4 1674.50  22
  -1  -2   7 53929.8 1688.26   7
  -1  -2   7 51947.9 925.667   6
  -1  -2   7 52580.0 970.946  24
  -1  -2   7 51625.2 985.148  44
  -1  -2   8 48922.6 930.503   6
  -1  -2   8 48964.5 981.295  24
  -1  -2   8 48855.7 995.946  44
  -1  -2   8 48178.5 1745.32  22
  -1  -2   8 49744.6 1017.29  20
  -1  -2   8 50938.7 1121.69  36
  -1  -2   8 47674.6 998.909  37
  -1  -2   8 48907.7 1050.12  50
  -1  -2   8 49885.1 1737.62   7
  -1  -2   9 287.322 102.649  50
  -1  -2   9 260.573 123.780  36
  -1  -2   9 261.321 88.6856  20
  -1  -2   9 418.762 120.165  37
  -1  -2   9 308.024 83.1336   6
  -1  -2   9 303.618 102.805  24
  -1  -2  10 6922.73 387.916  50
  -1  -2  10 7014.05 383.459  20
  -1  -2  10 6957.20 416.114  36
  -1  -2  11 10991.7 433.992  50
  -1  -2  11 12578.6 451.401  20
  -1  -2  11 12262.2 489.949  36
  -1  -2  12 3537.24 192.290  20
  -1  -2  12 3287.07 207.941  36
  -1  -2  12 2813.35 181.307  50
  -1  -2  12 2553.38 187.908  48
  -1  -1 -13 379.863 56.7393   1
  -1  -1 -12 496.363 81.3575   1
  -1  -1 -12 342.871 101.267  40
  -1  -1 -12 523.805 124.263  46
  -1  -1 -12 377.944 98.9050  29
  -1  -1 -12 440.517 107.813  32
  -1  -1 -11 8629.63 447.645  32
  -1  -1 -11 8796.24 450.327  29
  -1  -1 -11 8469.08 356.081   1
  -1  -1 -11 8934.41 416.803   4
  -1  -1 -11 9024.66 480.342  40
  -1  -1 -11 8770.04 484.491  46
  -1  -1 -11 8673.23 455.552  26
  -1  -1 -10 16398.9 505.564   1
  -1  -1 -10 16329.3 667.301  46
  -1  -1 -10 16268.9 620.377  29
  -1  -1 -10 16887.0 661.725  26
  -1  -1 -10 17497.9 597.167   4
  -1  -1 -10 16043.3 621.116  32
  -1  -1  -9 2535.87 429.758  49
  -1  -1  -9 2880.30 254.422  13
  -1  -1  -9 3153.60 247.520   4
  -1  -1  -9 2754.26 252.741  29
  -1  -1  -9 3039.57 212.277   1
  -1  -1  -9 2853.19 274.727  46
  -1  -1  -9 2680.29 252.824  32
  -1  -1  -8 24239.7 1166.57   9
  -1  -1  -8 24311.6 640.909   4
  -1  -1  -8 21581.1 1119.73  34
  -1  -1  -8 22348.8 670.111  29
  -1  -1  -8 22691.2 684.942  32
  -1  -1  -8 21446.9 1141.48  49
  -1  -1  -8 22619.4 719.180  46
  -1  -1  -8 22913.7 549.873   1
  -1  -1  -7 57654.8 1689.25  34
  -1  -1  -7 61639.3 1572.28  16
  -1  -1  -7 58107.7 1708.60  49
  -1  -1  -7 64006.1 1700.55   9
  -1  -1  -6 3275.42 300.303  18
  -1  -1  -6 3294.75 356.161   9
  -1  -1  -6 2939.24 344.854  34
  -1  -1  -6 3206.85 333.216  16
  -1  -1  -5 29280.4 771.355  18
  -1  -1  -5 31232.5 965.260   9
  -1  -1  -5 29845.6 971.403  34
  -1  -1  -5 32677.4 965.507   2
  -1  -1  -5 29915.7 916.438  16
  -1  -1  -4 110252. 1643.75  34
  -1  -1  -4 113680. 1628.99   9
  -1  -1  -4 111395. 1291.58  18
  -1  -1  -4 115110. 1642.29  49
  -1  -1  -3 18968.1 433.393  18
  -1  -1  -3 19724.4 577.241  49
  -1  -1  -2 126028. 1320.89  34
  -1  -1  -2 121517. 839.549  18
  -1  -1  -1 38062.5 501.319  49
  -1  -1  -1 32362.5 574.607   9
  -1  -1   0 298171. 1469.68  16
  -1  -1   1 847070. 3005.43   7
  -1  -1   1 836709. 1759.12  16
  -1  -1   2 51277.8 781.692  30
  -1  -1   2 53901.1 881.602   7
  -1  -1   3 6761.89 357.488   7
  -1  -1   3 5687.02 301.426  14
  -1  -1   4 42820.2 1023.41   7
  -1  -1   4 42450.7 944.104  14
  -1  -1   5 2782.56 279.316  14
  -1  -1   5 2948.98 313.749   7
  -1  -1   6 11467.1 614.885  14
  -1  -1   6 12618.5 686.306   7
  -1  -1   7 36731.3 1293.28   7
  -1  -1   7 34777.4 797.825  50
  -1  -1   7 34829.9 1186.93  14
  -1  -1   8 6558.61 305.262   3
  -1  -1   8 7556.09 399.810  50
  -1  -1   8 5911.05 597.403  22
  -1  -1   8 6635.66 368.842  20
  -1  -1   8 6813.79 405.603  36
  -1  -1   8 7236.31 370.146  44
  -1  -1   9 20510.7 552.369   3
  -1  -1   9 20117.0 651.823  20
  -1  -1  10 10776.3 478.966  20
  -1  -1  10 9953.70 473.526  50
  -1  -1  11 14547.8 440.033   3
  -1  -1  11 13944.9 505.082  20
  -1  -1  12 4322.48 268.265  48
  -1  -1  12 4286.01 222.384  21
  -1  -1  12 4565.29 251.674  50
  -1  -1  12 5228.93 263.722  20
  -1  -1  12 5538.50 231.867   3
  -1  -1  13 1289.58 100.929  20
  -1   0 -13 7917.17 218.029   1
  -1   0 -13 6515.78 239.028   4
  -1   0 -12 801.246 124.311  40
  -1   0 -12 798.830 124.533  29
  -1   0 -12 996.127 124.974   4
  -1   0 -12 771.186 94.1870   1
  -1   0 -11 26121.5 604.882   1
  -1   0 -11 25143.6 738.288  29
  -1   0 -11 23921.7 749.364  40
  -1   0 -10 2334.59 247.334  32
  -1   0 -10 2500.47 254.363  29
  -1   0 -10 2552.67 199.410   1
  -1   0 -10 2971.98 244.971   4
  -1   0  -9 38419.8 957.114  32
  -1   0  -9 37638.4 945.951  29
  -1   0  -9 37499.3 852.430   4
  -1   0  -9 35560.3 1615.06  49
  -1   0  -9 39407.0 771.290   1
  -1   0  -8 9308.46 444.731  29
  -1   0  -8 8407.36 726.034  49
  -1   0  -8 8534.11 714.829  34
  -1   0  -8 8140.71 337.115   1
  -1   0  -8 9081.15 450.853  32
  -1   0  -7 2417.09 359.276  49
  -1   0  -7 2424.29 331.287   9
  -1   0  -7 2112.62 297.694  18
  -1   0  -7 2221.64 344.915  34
  -1   0  -6 18643.3 777.554  18
  -1   0  -6 18393.2 879.183  34
  -1   0  -6 17101.3 856.518  49
  -1   0  -6 18394.7 829.164   9
  -1   0  -6 17317.3 785.504  16
  -1   0  -5 12922.6 617.181   2
  -1   0  -5 12727.8 655.416  34
  -1   0  -5 13402.0 592.592  18
  -1   0  -5 12431.8 621.236   9
  -1   0  -4 60958.8 847.806  31
  -1   0  -4 62104.0 1189.62   2
  -1   0  -4 59684.1 1206.12   9
  -1   0  -4 59570.4 1256.30  34
  -1   0  -3 93472.7 1388.33  34
  -1   0  -3 93802.9 1157.23  18
  -1   0  -3 90846.2 1304.64   9
  -1   0  -3 92337.2 705.291   5
  -1   0  -3 92224.4 1248.09   2
  -1   0  -3 96530.5 1365.19  49
  -1   0  -3 96696.9 852.768  31
  -1   0  -2 26771.7 359.956   5
  -1   0  -2 26452.6 619.107   9
  -1   0  -2 26046.7 515.830  18
  -1   0  -2 26248.5 347.016  31
  -1   0  -1 179710. 1287.84   2
  -1   0  -1 177236. 987.167   5
  -1   0   0 84220.8 814.961   2
  -1   0   1 898038. 2704.60   2
  -1   0   2 67470.5 877.996   2
  -1   0   2 65849.1 624.721  30
  -1   0   2 63692.0 847.484  22
  -1   0   2 62812.7 794.451   7
  -1   0   3 329949. 2322.82  22
  -1   0   3 348121. 2396.85   2
  -1   0   3 334442. 2272.43  14
  -1   0   3 344146. 2158.77   7
  -1   0   4 152452. 1708.34   7
  -1   0   4 149293. 1803.96  22
  -1   0   4 152740. 1763.78  14
  -1   0   5 34908.8 919.984   7
  -1   0   5 33868.5 999.359  22
  -1   0   5 33609.3 934.332  14
  -1   0   6 9156.93 588.681  22
  -1   0   6 9514.88 545.256   7
  -1   0   6 8993.12 537.504  14
  -1   0   7 41257.1 1393.56  22
  -1   0   7 40950.7 1275.04  14
  -1   0   8 1183.48 159.734  20
  -1   0   8 1481.36 169.580  50
  -1   0   8 1331.04 185.294  36
  -1   0   8 1241.29 130.377   3
  -1   0   8 1576.96 277.750  14
  -1   0   8 1209.66 265.575  22
  -1   0   9 2494.92 255.314  36
  -1   0   9 2518.09 233.029  50
  -1   0   9 2345.62 390.018  22
  -1   0   9 2775.41 242.956  20
  -1   0   9 2775.72 202.272   3
  -1   0  10 9199.13 442.289  20
  -1   0  10 8761.94 436.110  50
  -1   0  10 8472.36 471.029  36
  -1   0  10 8932.59 369.591   3
  -1   0  11 6132.07 353.744  33
  -1   0  11 7332.34 319.631   3
  -1   0  11 5704.82 341.361  50
  -1   0  11 7010.96 371.523  20
  -1   0  11 6093.39 382.167  36
  -1   0  12 3761.43 200.620   3
  -1   0  12 3136.11 242.190  48
  -1   0  12 3269.68 226.839  50
  -1   0  12 3224.45 210.182  21
  -1   0  12 3637.64 261.852  36
  -1   0  12 3459.80 235.666  20
  -1   0  12 3121.88 209.136  33
  -1   0  13 654.891 92.6664  48
  -1   0  13 765.840 95.6875  36
  -1   0  13 963.367 83.3709   3
  -1   0  13 742.087 79.3016  21
  -1   0  13 725.799 88.1366  20
  -1   0  13 664.775 84.5439  50
  -1   1 -12 1512.17 166.177  46
  -1   1 -12 1563.17 119.697   1
  -1   1 -12 1535.15 155.535  32
  -1   1 -12 1570.03 141.590   4
  -1   1 -11 3777.27 283.331  40
  -1   1 -11 4157.96 297.545  32
  -1   1 -11 4345.13 316.796  46
  -1   1 -11 4841.62 287.142   4
  -1   1 -11 5104.14 256.142   1
  -1   1 -10 1016.52 131.522   1
  -1   1 -10 1159.54 153.464   4
  -1   1 -10 834.269 168.686  46
  -1   1  -9 766.869 127.562   4
  -1   1  -9 568.137 131.772  46
  -1   1  -9 594.541 132.217  29
  -1   1  -9 516.488 119.856  28
  -1   1  -9 762.271 110.058   1
  -1   1  -9 658.619 120.947  17
  -1   1  -8 25020.4 1268.81  49
  -1   1  -8 26397.6 736.004  28
  -1   1  -8 26903.5 784.369  29
  -1   1  -8 28876.3 851.936  46
  -1   1  -8 27264.4 703.622  17
  -1   1  -8 29613.7 735.869   4
  -1   1  -8 26048.6 612.808   1
  -1   1  -8 25719.6 1196.06  18
  -1   1  -8 26977.6 770.965  41
  -1   1  -7 50141.2 913.398  17
  -1   1  -7 51842.9 965.277  28
  -1   1  -7 52128.3 1009.06  41
  -1   1  -7 50003.8 1617.59  34
  -1   1  -7 51363.9 1011.24  29
  -1   1  -7 47774.1 1620.69  49
  -1   1  -7 50387.1 808.979   1
  -1   1  -7 51466.1 1572.45  18
  -1   1  -6 108586. 2182.69  34
  -1   1  -6 108189. 2214.35  49
  -1   1  -6 113083. 2126.07  18
  -1   1  -5 3210.38 344.625  34
  -1   1  -5 2922.42 307.405   2
  -1   1  -5 3099.04 315.277  18
  -1   1  -5 3214.68 322.390   9
  -1   1  -5 2969.87 340.298  49
  -1   1  -4 1176.43 188.571  34
  -1   1  -4 952.936 133.397  31
  -1   1  -4 767.576 107.103   5
  -1   1  -4 837.720 154.315   9
  -1   1  -4 893.144 160.058  18
  -1   1  -4 737.909 133.531   2
  -1   1  -3 141679. 1258.21   5
  -1   1  -3 142670. 1558.79   2
  -1   1  -3 140528. 1699.25   9
  -1   1  -3 138217. 1651.09  18
  -1   1  -2 16868.6 403.005   5
  -1   1  -2 17562.8 472.340   2
  -1   1  -2 17204.5 502.826  18
  -1   1  -2 16239.2 422.444  31
  -1   1  -1 406369. 1902.98   5
  -1   1  -1 408618. 2207.42  18
  -1   1   0 164680. 1286.78  31
  -1   1   0 167194. 981.406   2
  -1   1   1 96222.9 745.251   2
  -1   1   1 97555.5 862.535  14
  -1   1   1 98517.4 740.982  22
  -1   1   2 280926. 1602.90  22
  -1   1   2 288915. 1800.67  14
  -1   1   2 275957. 1612.13   2
  -1   1   2 284939. 1227.17   7
  -1   1   3 101606. 935.258   7
  -1   1   3 104908. 1205.23  22
  -1   1   3 101894. 1186.29   2
  -1   1   4 124526. 1573.14  22
  -1   1   4 127615. 1296.43   7
  -1   1   4 128735. 1609.45   2
  -1   1   5 41786.4 1074.81  22
  -1   1   5 41576.8 1027.58  14
  -1   1   5 43260.3 884.926   7
  -1   1   6 9955.62 564.759  14
  -1   1   6 9936.66 587.608  22
  -1   1   7 14763.4 798.187  22
  -1   1   7 14862.8 778.622  14
  -1   1   8 36278.8 679.890   3
  -1   1   8 37660.8 889.818  36
  -1   1   8 37351.5 1408.58  22
  -1   1   8 38042.6 830.704  20
  -1   1   8 38305.4 837.798  50
  -1   1   8 38480.2 1383.80  14
  -1   1   9 13677.5 921.815  22
  -1   1   9 14081.4 446.275   3
  -1   1   9 14441.1 580.110  36
  -1   1   9 14565.1 544.237  50
  -1   1   9 14044.8 881.219  14
  -1   1   9 14164.2 543.150  20
  -1   1  10 1709.91 170.502   8
  -1   1  10 2015.63 215.594  20
  -1   1  10 1839.98 221.498  36
  -1   1  10 1928.97 172.260   3
  -1   1  10 1920.09 209.531  50
  -1   1  11 2494.46 228.559  20
  -1   1  11 2223.82 229.251  33
  -1   1  11 2325.45 240.883  36
  -1   1  11 2681.74 195.461   3
  -1   1  11 2284.82 219.289  50
  -1   1  11 2055.56 181.950   8
  -1   1  12 5313.88 244.153   3
  -1   1  12 4682.77 285.256  33
  -1   1  12 4966.80 272.954  21
  -1   1  12 5203.36 291.605  20
  -1   1  12 4905.90 284.500  50
  -1   1  12 4894.19 312.477  36
  -1   1  12 4792.03 315.000  48
  -1   1  13 9006.64 336.892  36
  -1   1  13 8368.56 299.352  50
  -1   1  13 10573.7 281.096   3
  -1   1  13 9295.87 302.584  21
  -1   1  13 10077.0 331.448  20
  -1   1  13 8834.15 339.888  48
  -1   2 -12 5543.62 215.074   4
  -1   2 -12 5137.70 252.862  46
  -1   2 -12 5854.24 254.694  32
  -1   2 -11 892.768 140.588  46
  -1   2 -11 1389.98 125.751   1
  -1   2 -11 1345.65 147.550   4
  -1   2 -11 1156.35 150.912  32
  -1   2 -10 1069.28 165.270  32
  -1   2 -10 905.793 125.908  17
  -1   2 -10 1027.15 145.865   4
  -1   2 -10 1060.68 173.858  46
  -1   2 -10 1184.21 133.776   1
  -1   2  -9 956.531 173.789  46
  -1   2  -9 1119.23 149.860   4
  -1   2  -9 916.700 166.302  32
  -1   2  -9 987.069 146.682  17
  -1   2  -9 965.395 130.348   1
  -1   2  -9 831.615 144.482  28
  -1   2  -8 298.583 90.8038   4
  -1   2  -8 192.260 87.6759  32
  -1   2  -8 52.5025 68.1334  28
  -1   2  -8 187.071 64.2854   1
  -1   2  -8 249.166 100.594  46
  -1   2  -8 25.4324 103.660  49
  -1   2  -8 180.850 99.0476  18
  -1   2  -8 137.541 92.3506  41
  -1   2  -8 211.911 85.4629  17
  -1   2  -7 2343.80 216.627   4
  -1   2  -7 2022.27 208.854  28
  -1   2  -7 1962.33 219.162  41
  -1   2  -7 2387.88 186.132   1
  -1   2  -7 2058.56 341.512  18
  -1   2  -7 2263.62 199.729  17
  -1   2  -7 1740.45 332.810  49
  -1   2  -6 6586.99 562.937  34
  -1   2  -6 7637.38 600.689  18
  -1   2  -6 5501.25 540.951  49
  -1   2  -5 2256.56 325.050  49
  -1   2  -5 2478.44 294.746   9
  -1   2  -5 2323.91 309.190  34
  -1   2  -5 2371.46 309.950  18
  -1   2  -4 16751.9 684.128   9
  -1   2  -4 16463.4 641.371  31
  -1   2  -4 16750.5 655.137   2
  -1   2  -4 17669.7 597.446   5
  -1   2  -4 16285.4 725.934  18
  -1   2  -3 51485.4 1024.70  31
  -1   2  -3 53621.9 1018.60   2
  -1   2  -3 51896.9 1109.96   9
  -1   2  -3 52258.1 1156.31  18
  -1   2  -3 54140.7 968.472   5
  -1   2  -2 96389.3 1118.45   2
  -1   2  -2 97589.9 1219.71   5
  -1   2  -2 95236.4 1284.20  31
  -1   2  -2 95428.5 1383.44  18
  -1   2  -1 114701. 933.180   2
  -1   2  -1 113057. 1288.76  31
  -1   2  -1 116972. 1262.76   5
  -1   2   0 63529.3 444.814   2
  -1   2   0 61646.5 494.529  14
  -1   2   0 62111.2 934.707  31
  -1   2   1 115884. 1315.49  31
  -1   2   1 114742. 952.246  14
  -1   2   1 109098. 511.138  22
  -1   2   1 109964. 503.296   2
  -1   2   2 49574.6 584.046   2
  -1   2   2 49723.8 767.072  14
  -1   2   2 49843.0 587.106  22
  -1   2   3 92853.0 1066.70  22
  -1   2   3 94352.2 1081.61   2
  -1   2   3 91721.3 1216.05  14
  -1   2   4 125968. 1508.03  22
  -1   2   4 125773. 1509.73   2
  -1   2   4 124687. 1628.59  14
  -1   2   5 20987.7 735.694  22
  -1   2   6 122565. 1978.23  22
  -1   2   6 121413. 2012.76  14
  -1   2   7 95602.0 2009.58  14
  -1   2   7 98695.8 1993.38  22
  -1   2   8 23655.8 531.801   3
  -1   2   8 23959.4 1096.69  14
  -1   2   8 22289.2 1074.16  22
  -1   2   8 24737.2 647.083  20
  -1   2   8 24517.3 700.552  36
  -1   2   8 23574.9 650.037  50
  -1   2   9 43080.8 983.135  36
  -1   2   9 39877.7 1535.14  22
  -1   2   9 41046.7 740.983   3
  -1   2   9 42248.5 911.936  50
  -1   2   9 43072.6 900.650  20
  -1   2   9 42457.5 1549.46  14
  -1   2  10 15092.4 470.189   3
  -1   2  10 14659.7 554.797  50
  -1   2  10 14780.6 595.747  36
  -1   2  10 15315.7 550.154  20
  -1   2  10 14453.7 491.126   8
  -1   2  11 12609.7 552.176  36
  -1   2  11 12651.3 502.826  50
  -1   2  11 13010.9 491.011  21
  -1   2  11 12867.9 418.280   3
  -1   2  11 12709.3 538.535  33
  -1   2  11 12593.3 501.676  20
  -1   2  11 12348.2 432.900   8
  -1   2  11 13188.2 556.846  48
  -1   2  12 1457.41 162.358  50
  -1   2  12 1563.69 180.099  36
  -1   2  12 1647.67 141.127   3
  -1   2  12 1295.53 132.182   8
  -1   2  12 1480.93 154.031  21
  -1   2  12 1739.95 174.918  20
  -1   2  12 1558.67 180.671  33
  -1   2  12 1501.62 181.064  48
  -1   2  13 5636.92 283.479  48
  -1   2  13 6940.22 234.286   3
  -1   2  13 6374.39 272.380  20
  -1   2  13 5404.26 250.634  50
  -1   2  13 6307.35 267.106  21
  -1   2  13 5304.97 257.988  33
  -1   3 -11 1126.77 131.199  29
  -1   3 -11 860.627 121.158  46
  -1   3 -11 1214.78 104.415   1
  -1   3 -11 989.510 105.279   4
  -1   3 -11 1074.08 104.256  17
  -1   3 -11 998.953 125.013  32
  -1   3 -10 2751.72 253.001  46
  -1   3 -10 2809.13 234.316  32
  -1   3 -10 3315.29 220.388   4
  -1   3 -10 2936.39 213.334  17
  -1   3 -10 2754.79 237.226  29
  -1   3 -10 3168.00 201.334   1
  -1   3  -9 4946.19 363.460  46
  -1   3  -9 5298.73 355.518  32
  -1   3  -9 5109.13 343.255  29
  -1   3  -9 4728.30 311.821   4
  -1   3  -9 5533.28 327.977  17
  -1   3  -9 5575.00 289.623   1
  -1   3  -9 4924.03 337.089  28
  -1   3  -8 42816.6 1031.47  32
  -1   3  -8 40186.2 958.605  28
  -1   3  -8 39916.9 978.575  41
  -1   3  -8 44266.3 919.754   4
  -1   3  -8 40968.1 802.364   1
  -1   3  -8 42122.6 917.919  17
  -1   3  -8 42661.9 1062.74  46
  -1   3  -7 9466.39 463.655  41
  -1   3  -7 9493.88 452.694  28
  -1   3  -7 10381.8 436.262   4
  -1   3  -7 8925.73 369.139   1
  -1   3  -7 9502.85 780.061  18
  -1   3  -7 9743.68 441.084  17
  -1   3  -6 21444.9 1087.57  18
  -1   3  -6 20082.2 631.617  28
  -1   3  -6 20079.6 617.789  17
  -1   3  -6 20686.3 538.928   1
  -1   3  -6 20502.3 650.748  41
  -1   3  -5 2997.49 370.767  34
  -1   3  -5 3663.10 413.828  18
  -1   3  -5 3247.28 412.008  49
  -1   3  -4 115054. 1973.42  31
  -1   3  -4 116802. 1832.24   5
  -1   3  -4 111159. 2096.08  18
  -1   3  -4 109724. 1829.78   9
  -1   3  -3 7112.14 422.764   5
  -1   3  -3 6451.63 431.819  31
  -1   3  -3 7229.78 444.118   9
  -1   3  -3 6147.82 445.762  18
  -1   3  -2 78617.4 1038.85   2
  -1   3  -2 79500.0 1318.16   5
  -1   3  -1 157213. 1740.56   5
  -1   3  -1 156630. 1093.88   2
  -1   3   0 33698.4 813.691  31
  -1   3   0 33015.2 767.695   5
  -1   3   0 33624.0 795.792  18
  -1   3   1 45896.5 942.744  31
  -1   3   1 43752.9 633.440  14
  -1   3   2 2343.79 182.079  14
  -1   3   2 2385.13 202.761   5
  -1   3   3 153386. 1672.04   5
  -1   3   3 159396. 1689.05  14
  -1   3   3 158040. 1240.82  22
  -1   3   3 152753. 1216.43   2
  -1   3   3 158509. 1864.80  31
  -1   3   4 192417. 1969.17   5
  -1   3   4 187780. 1730.21  22
  -1   3   4 187386. 1735.47   2
  -1   3   4 185246. 2078.67  14
  -1   3   5 9988.63 470.457   5
  -1   3   5 10293.5 484.769  22
  -1   3   5 9653.65 532.658  14
  -1   3   6 3242.74 317.659  22
  -1   3   6 3206.52 288.766   5
  -1   3   6 2999.41 327.961  14
  -1   3   7 11954.3 679.540  22
  -1   3   8 94039.6 2127.74  22
  -1   3   8 97102.3 1359.82  36
  -1   3   8 93269.9 1046.92   3
  -1   3   8 97666.9 1257.40  20
  -1   3   8 98418.4 1400.28  48
  -1   3   8 94820.0 2195.54  14
  -1   3   8 97574.6 1291.90  50
  -1   3   9 3751.44 468.285  14
  -1   3   9 3464.00 214.539   3
  -1   3   9 3919.70 290.765  36
  -1   3   9 3817.67 464.641  22
  -1   3   9 3541.33 262.023  20
  -1   3   9 3743.38 270.829  50
  -1   3   9 4022.72 299.791  48
  -1   3  10 6242.25 382.969  48
  -1   3  10 5922.85 342.726  50
  -1   3  10 5664.50 332.625  20
  -1   3  10 5655.18 316.592   8
  -1   3  10 5896.28 374.541  36
  -1   3  10 6005.97 289.864   3
  -1   3  10 6322.45 395.517  33
  -1   3  11 3083.87 277.976  48
  -1   3  11 2761.98 237.425  21
  -1   3  11 2887.96 270.329  33
  -1   3  11 2583.03 185.422   3
  -1   3  11 2694.34 225.665  20
  -1   3  11 2768.29 255.271  36
  -1   3  11 2481.50 206.037   8
  -1   3  11 2947.78 246.415  50
  -1   3  12 19547.8 558.179  20
  -1   3  12 18916.1 597.358  36
  -1   3  12 20956.5 487.018   3
  -1   3  12 17980.1 548.498  50
  -1   3  12 19368.1 497.972   8
  -1   3  12 19573.8 564.868  21
  -1   3  12 18956.6 603.671  33
  -1   3  12 19706.0 625.981  48
  -1   3  13 12492.0 415.491  33
  -1   3  13 11596.0 365.851  50
  -1   3  13 12777.4 386.637  20
  -1   3  13 12401.5 421.961  48
  -1   3  13 12820.4 332.341   8
  -1   3  13 12884.6 397.327  21
  -1   4 -11 6473.68 239.316  32
  -1   4 -11 7067.05 255.927  29
  -1   4 -10 252.031 71.1294  32
  -1   4 -10 393.166 86.8309  29
  -1   4 -10 529.285 106.755  46
  -1   4 -10 517.697 79.3543   4
  -1   4 -10 569.613 81.8041   1
  -1   4 -10 404.320 80.9652  17
  -1   4  -9 2869.91 247.042  32
  -1   4  -9 2853.68 246.570  29
  -1   4  -9 2735.49 255.587  46
  -1   4  -9 3084.11 215.267   4
  -1   4  -9 2761.04 246.796  28
  -1   4  -9 3051.28 233.308  17
  -1   4  -9 3074.53 208.943   1
  -1   4  -8 14502.1 602.438  46
  -1   4  -8 13961.4 567.267  28
  -1   4  -8 14607.9 590.874  32
  -1   4  -8 13803.5 567.502  29
  -1   4  -8 14866.9 551.622  17
  -1   4  -8 14278.9 582.098  41
  -1   4  -8 14101.3 525.948   4
  -1   4  -8 14606.9 478.543   1
  -1   4  -7 13447.8 464.873   1
  -1   4  -7 14012.6 569.782  28
  -1   4  -7 14396.2 609.318  46
  -1   4  -7 13775.0 572.452  41
  -1   4  -7 13723.2 522.082   4
  -1   4  -7 13904.0 549.116  17
  -1   4  -6 12173.8 523.839  41
  -1   4  -6 10517.7 824.602  49
  -1   4  -6 11884.4 513.256  28
  -1   4  -6 11615.6 422.997   1
  -1   4  -6 12406.8 880.963  18
  -1   4  -6 12931.3 500.547  17
  -1   4  -5 97189.9 1354.39  17
  -1   4  -5 99933.3 1419.87  41
  -1   4  -5 96139.6 1377.57  28
  -1   4  -5 102647. 1325.97  50
  -1   4  -5 84306.9 2208.10  49
  -1   4  -5 90739.9 1143.07   1
  -1   4  -5 105629. 2404.46  18
  -1   4  -4 26827.4 1079.23  31
  -1   4  -4 29774.4 1040.78   5
  -1   4  -3 49633.5 1378.34  31
  -1   4  -3 50459.3 1289.29   5
  -1   4  -2 23869.0 887.008  18
  -1   4  -2 23629.7 882.528  31
  -1   4  -2 24989.7 852.311   5
  -1   4  -1 69376.4 1438.25  31
  -1   4  -1 68517.0 1344.38   5
  -1   4  -1 70416.0 1400.41  18
  -1   4   0 120039. 1808.81  31
  -1   4   0 119018. 1683.61  18
  -1   4   1 38185.1 992.768  31
  -1   4   1 38987.8 925.079  18
  -1   4   2 17222.3 624.673   5
  -1   4   2 17168.8 518.041  14
  -1   4   3 160262. 2077.75  31
  -1   4   3 158086. 1884.32   5
  -1   4   4 158129. 2004.97  14
  -1   4   4 157675. 2149.99  31
  -1   4   5 38439.0 981.941   5
  -1   4   5 38810.7 1099.69  14
  -1   4   5 39343.4 1129.40  31
  -1   4   6 42492.1 1243.76  31
  -1   4   6 41353.5 1051.25   5
  -1   4   6 41000.9 1234.74  14
  -1   4   7 70966.8 1781.94  14
  -1   4   7 70179.0 1691.07  31
  -1   4   8 24135.1 698.954  48
  -1   4   8 23723.6 706.168  33
  -1   4   8 23295.1 616.288  21
  -1   4   9 33275.7 857.324  48
  -1   4   9 33081.6 1394.12  14
  -1   4   9 32058.3 868.051  33
  -1   4   9 32600.6 768.247  21
  -1   4   9 30958.6 702.327   8
  -1   4   9 32684.5 782.435  50
  -1   4  10 26978.0 668.334   8
  -1   4  10 27989.2 613.437   3
  -1   4  10 26923.3 721.604  21
  -1   4  10 27929.7 807.049  48
  -1   4  10 27053.8 730.463  50
  -1   4  11 8650.09 423.563  36
  -1   4  11 8512.26 403.131  50
  -1   4  11 8507.12 450.253  33
  -1   4  11 9406.43 345.168   3
  -1   4  11 9503.51 377.458   8
  -1   4  11 8951.44 453.881  48
  -1   4  11 9096.81 395.056  20
  -1   4  12 5070.55 284.673  50
  -1   4  12 5223.17 327.791  33
  -1   4  12 5661.27 245.276   3
  -1   4  12 5226.60 275.815  20
  -1   4  12 5230.93 268.052   8
  -1   4  12 5196.32 322.281  48
  -1   4  13 1085.64 137.258  33
  -1   4  13 1051.68 128.300  48
  -1   4  13 1058.79 122.409  21
  -1   4  13 875.240 93.6516   8
  -1   4  13 983.616 108.933  50
  -1   4  14 3559.94 158.150  21
  -1   5 -10 7797.48 289.731  29
  -1   5 -10 8211.09 287.224  32
  -1   5  -9 5507.26 246.413   1
  -1   5  -9 4728.41 280.662  32
  -1   5  -9 4586.45 280.072  29
  -1   5  -9 4851.66 284.447  28
  -1   5  -9 4040.59 260.844  46
  -1   5  -9 4793.61 265.447  17
  -1   5  -8 13944.2 549.828  46
  -1   5  -8 14437.1 554.748  28
  -1   5  -8 16128.7 548.902  17
  -1   5  -8 15029.4 563.537  29
  -1   5  -8 14437.2 560.094  41
  -1   5  -8 14071.6 549.255  32
  -1   5  -8 15330.6 466.728   1
  -1   5  -7 908.102 162.375  46
  -1   5  -7 769.752 139.658  17
  -1   5  -7 778.142 154.253  28
  -1   5  -7 761.057 114.713   1
  -1   5  -7 634.653 158.078  41
  -1   5  -6 52389.5 1128.18  41
  -1   5  -6 50755.4 1087.04  28
  -1   5  -6 52347.1 927.236   1
  -1   5  -6 51048.4 1070.99  17
  -1   5  -5 15794.4 501.286   1
  -1   5  -5 15228.5 581.852  28
  -1   5  -5 14955.2 581.052  41
  -1   5  -4 385.697 114.664  41
  -1   5  -4 226.104 73.1223   1
  -1   5  -4 489.811 148.944   5
  -1   5  -4 171.230 100.855  18
  -1   5  -4 214.958 114.342  31
  -1   5  -4 410.688 95.1767  23
  -1   5  -4 196.827 74.5920  17
  -1   5  -3 11344.7 738.154  31
  -1   5  -3 11915.2 696.277   5
  -1   5  -3 11918.8 773.585  18
  -1   5  -2 31895.8 1096.59   5
  -1   5  -2 29915.3 1119.47  31
  -1   5  -2 31028.9 1148.48  18
  -1   5  -1 173672. 2592.28  31
  -1   5  -1 179312. 2535.33  18
  -1   5   0 58704.5 1368.12   5
  -1   5   0 58314.6 1332.32  18
  -1   5   0 58007.5 1436.67  31
  -1   5   1 283.832 120.199  31
  -1   5   1 190.439 88.6260  18
  -1   5   2 30424.7 932.136   5
  -1   5   2 30835.7 897.170  18
  -1   5   3 21846.4 847.987  31
  -1   5   3 22033.7 791.713   5
  -1   5   3 21135.9 693.507  14
  -1   5   4 43946.1 1100.84  14
  -1   5   4 44663.7 1247.19  31
  -1   5   4 46534.9 1157.46   5
  -1   5   5 12587.1 687.240  31
  -1   5   5 13471.2 631.590   5
  -1   5   5 12633.6 652.178  14
  -1   5   6 135010. 2325.44  31
  -1   5   6 138280. 2354.58  14
  -1   5   7 24584.9 674.129  48
  -1   5   7 22982.9 1032.18  14
  -1   5   7 22230.9 992.006  31
  -1   5   7 23205.2 593.433  21
  -1   5   7 24527.1 685.789  33
  -1   5   7 24147.5 552.839   8
  -1   5   8 2273.94 350.474  14
  -1   5   8 2267.59 198.443  21
  -1   5   8 2204.52 218.332  48
  -1   5   8 1945.40 180.868   8
  -1   5   8 2415.54 230.976  33
  -1   5   9 2583.50 241.716  48
  -1   5   9 2539.12 215.745  21
  -1   5   9 2700.51 209.038   8
  -1   5   9 2765.94 254.656  33
  -1   5   9 2625.71 399.738  14
  -1   5  10 12278.6 531.190  48
  -1   5  10 13088.9 562.650  33
  -1   5  10 12572.5 491.037  21
  -1   5  11 14030.7 561.400  48
  -1   5  11 14788.1 525.143  21
  -1   5  11 14980.8 483.682   8
  -1   5  12 3873.31 271.338  48
  -1   5  12 4358.30 265.823  21
  -1   5  12 3753.20 274.595  33
  -1   5  12 4439.43 242.954   8
  -1   5  13 308.968 79.8330  33
  -1   5  13 337.338 71.6434  48
  -1   5  13 325.935 63.8538   8
  -1   5  14 1491.51 109.782  33
  -1   5  14 1713.81 118.478  47
  -1   6  -9 3872.04 212.079  29
  -1   6  -9 4244.22 210.638  17
  -1   6  -9 4414.62 183.271   1
  -1   6  -8 7237.48 335.755  17
  -1   6  -8 6727.67 336.013  32
  -1   6  -8 6790.45 339.866  29
  -1   6  -8 7496.94 296.084   1
  -1   6  -8 7231.28 365.970  28
  -1   6  -8 6653.85 344.795  41
  -1   6  -7 19018.3 630.686  32
  -1   6  -7 19921.6 534.291   1
  -1   6  -7 18872.5 639.888  28
  -1   6  -7 17300.0 597.271  46
  -1   6  -7 18105.8 585.396  17
  -1   6  -7 19363.6 652.299  41
  -1   6  -6 15270.2 599.740  28
  -1   6  -6 15724.4 622.041  41
  -1   6  -5 2837.10 242.321  23
  -1   6  -5 2464.88 213.404   1
  -1   6  -5 2992.31 254.565  17
  -1   6  -5 2859.73 269.957  41
  -1   6  -4 13667.5 510.314  23
  -1   6  -4 14069.2 557.636  28
  -1   6  -4 14030.8 478.178   1
  -1   6  -4 14683.1 971.305  18
  -1   6  -4 14965.0 550.956  17
  -1   6  -4 14252.7 533.997  35
  -1   6  -4 13852.2 563.625  41
  -1   6  -4 14526.4 476.477  10
  -1   6  -3 2975.75 236.608  23
  -1   6  -3 2784.57 413.648  31
  -1   6  -3 2477.85 210.933  10
  -1   6  -3 2876.70 384.531   5
  -1   6  -3 3183.38 439.209  18
  -1   6  -3 2713.98 208.523   1
  -1   6  -2 8666.32 379.198  23
  -1   6  -2 8298.64 676.354  31
  -1   6  -2 8669.82 638.961   5
  -1   6  -2 9029.68 683.965  18
  -1   6  -2 8816.72 399.075  35
  -1   6  -2 8896.83 387.639  43
  -1   6  -2 8758.88 369.857  10
  -1   6  -1 22508.9 1056.18  31
  -1   6  -1 24300.5 1044.21  18
  -1   6   0 8248.58 580.731   5
  -1   6   0 7963.57 570.411  18
  -1   6   0 7233.24 574.065  31
  -1   6   1 31497.5 1172.81  31
  -1   6   1 31356.5 1037.92  18
  -1   6   2 64320.3 1419.51  18
  -1   6   2 63484.4 1522.88   5
  -1   6   3 15484.9 738.417   5
  -1   6   3 15354.8 797.412  31
  -1   6   3 15879.8 691.538  18
  -1   6   4 88959.7 1666.86  14
  -1   6   4 84337.3 1874.89  31
  -1   6   4 87716.6 1762.00   5
  -1   6   5 69661.1 1579.64   5
  -1   6   5 66615.7 1570.55  14
  -1   6   6 19999.3 604.642  48
  -1   6   6 19177.2 942.886  31
  -1   6   6 21735.2 893.098   5
  -1   6   6 19588.3 920.005  14
  -1   6   7 9989.69 700.225  31
  -1   6   7 10252.5 722.377  14
  -1   6   7 10669.0 412.974  21
  -1   6   7 10412.5 457.673  48
  -1   6   7 10843.9 465.042  33
  -1   6   7 10381.1 375.978   8
  -1   6   8 3100.00 229.101  21
  -1   6   8 2878.42 406.744  14
  -1   6   8 2808.94 248.346  33
  -1   6   8 3119.99 217.810   8
  -1   6   8 2905.96 250.168  48
  -1   6   9 2929.26 262.977  48
  -1   6   9 2972.44 237.055  21
  -1   6   9 2858.31 260.057  33
  -1   6   9 2672.70 209.740   8
  -1   6  10 1337.99 183.770  48
  -1   6  10 1447.02 192.753  33
  -1   6  10 1377.08 163.999  21
  -1   6  10 1444.52 156.984  12
  -1   6  10 1585.16 157.414   8
  -1   6  11 2327.67 208.939  21
  -1   6  11 2165.27 226.508  33
  -1   6  11 1981.55 213.220  48
  -1   6  11 1930.15 173.947   8
  -1   6  12 3815.29 240.631  21
  -1   6  12 3942.21 268.758  33
  -1   6  12 3583.46 256.261  48
  -1   6  13 217.045 56.2261  27
  -1   6  13 351.170 67.8261  21
  -1   6  13 194.393 56.7881  48
  -1   6  13 296.008 73.7400  47
  -1   6  13 345.418 62.4181   8
  -1   7  -8 706.916 89.2411  32
  -1   7  -8 803.880 101.346  29
  -1   7  -8 918.103 112.605  28
  -1   7  -8 917.475 86.5726   1
  -1   7  -7 4587.08 292.684  41
  -1   7  -7 5476.55 253.512   1
  -1   7  -7 4160.53 258.893  32
  -1   7  -7 4978.55 289.315  29
  -1   7  -6 8114.18 424.186  41
  -1   7  -6 8990.78 358.886   1
  -1   7  -6 8511.91 404.205  17
  -1   7  -5 722.441 145.334  28
  -1   7  -5 895.762 153.855  41
  -1   7  -5 661.494 114.105   1
  -1   7  -5 733.406 126.218  23
  -1   7  -5 853.272 139.430  17
  -1   7  -4 8339.25 413.920  23
  -1   7  -4 8217.71 443.264  28
  -1   7  -4 7384.80 356.686  10
  -1   7  -4 7560.55 365.774   1
  -1   7  -4 7857.40 408.376  35
  -1   7  -4 8949.93 468.550  41
  -1   7  -4 8853.39 428.638  17
  -1   7  -3 19734.5 582.509  10
  -1   7  -3 19342.8 634.260  35
  -1   7  -3 17742.7 1115.89  31
  -1   7  -3 19535.8 678.010  41
  -1   7  -3 20395.5 669.314  28
  -1   7  -3 21379.0 1117.83   5
  -1   7  -3 19987.7 622.733  23
  -1   7  -3 19583.8 581.896   1
  -1   7  -3 18579.7 647.363  17
  -1   7  -3 19938.0 1142.02  18
  -1   7  -2 31357.6 800.883  35
  -1   7  -2 33478.2 797.955  43
  -1   7  -2 32382.5 779.264  23
  -1   7  -2 29595.4 739.522  10
  -1   7  -2 35035.5 1401.68   5
  -1   7  -2 32543.6 1413.20  18
  -1   7  -2 29373.9 1403.48  31
  -1   7  -1 5471.95 329.271  35
  -1   7  -1 4761.03 299.621  10
  -1   7  -1 5193.20 532.287   5
  -1   7  -1 5184.38 309.220  23
  -1   7  -1 5138.78 537.922  18
  -1   7  -1 5637.51 322.519  43
  -1   7  -1 4842.64 549.763  31
  -1   7   0 12290.8 463.797  23
  -1   7   0 12550.5 465.326  43
  -1   7   0 12553.6 485.409  35
  -1   7   0 12999.8 457.582  10
  -1   7   0 12820.5 804.409   5
  -1   7   0 12665.6 784.619  18
  -1   7   0 11072.4 799.752  31
  -1   7   1 7926.49 665.265  31
  -1   7   1 9150.73 637.702  18
  -1   7   1 8982.72 412.733  47
  -1   7   1 8763.65 378.105  43
  -1   7   2 72.4610 87.3500   5
  -1   7   2 64.8983 61.3515  43
  -1   7   2 57.5760 65.6575  18
  -1   7   3 23286.7 648.159  47
  -1   7   3 23057.3 645.587  42
  -1   7   3 22262.0 1074.65  31
  -1   7   3 23525.3 1016.81   5
  -1   7   3 22258.5 601.930  27
  -1   7   3 22333.5 558.157  12
  -1   7   3 22639.6 593.048  43
  -1   7   4 3199.63 215.842  12
  -1   7   4 3636.85 262.549  42
  -1   7   4 3615.69 432.841  31
  -1   7   4 3246.26 381.091   5
  -1   7   4 3646.61 252.650  27
  -1   7   4 3919.00 269.339  47
  -1   7   5 41022.1 894.303  42
  -1   7   5 39073.6 825.167  27
  -1   7   5 42082.9 1345.20   5
  -1   7   5 37545.5 1385.72  31
  -1   7   5 40364.4 875.779  47
  -1   7   6 2431.11 326.045   5
  -1   7   6 2526.89 368.085  31
  -1   7   6 2560.65 231.341  47
  -1   7   6 2440.82 217.756  27
  -1   7   7 16874.4 968.380  31
  -1   7   7 18064.0 618.542  47
  -1   7   7 17427.2 612.318  48
  -1   7   7 18969.9 999.425  14
  -1   7   7 19157.4 510.630   8
  -1   7   8 36580.6 895.990  48
  -1   7   8 38551.2 914.747  47
  -1   7   8 38486.7 817.063  21
  -1   7   8 38543.4 1498.36  14
  -1   7   8 38604.2 913.462  33
  -1   7   8 38674.0 750.595   8
  -1   7   9 15877.0 525.710  12
  -1   7   9 16150.1 602.582  33
  -1   7   9 16189.9 538.502  21
  -1   7   9 14596.6 573.756  48
  -1   7   9 16652.2 500.078   8
  -1   7  10 14178.3 557.539  42
  -1   7  10 14813.5 571.187  33
  -1   7  10 14480.4 479.009  12
  -1   7  10 14668.9 508.183  21
  -1   7  10 15012.7 472.973   8
  -1   7  10 13958.2 555.724  48
  -1   7  11 2624.38 234.635  33
  -1   7  11 2457.22 218.684  42
  -1   7  11 2543.96 205.913  21
  -1   7  11 2228.01 214.799  48
  -1   7  11 2580.65 218.635  27
  -1   7  11 2509.16 190.829   8
  -1   7  11 2465.82 226.750  47
  -1   7  12 6618.32 295.873  21
  -1   7  12 6107.81 292.827  42
  -1   7  12 6363.20 322.857  47
  -1   7  12 6623.87 308.875  27
  -1   7  12 6912.88 281.947   8
  -1   7  12 6015.54 312.859  48
  -1   7  12 6450.65 327.708  33
  -1   7  13 2284.34 162.879  33
  -1   7  13 2252.74 148.140  27
  -1   7  13 2532.05 154.442  21
  -1   7  13 2322.11 165.604  47
  -1   8  -7 3030.07 150.199   1
  -1   8  -7 2730.19 165.188  17
  -1   8  -7 2542.23 178.917  41
  -1   8  -6 2816.99 225.953  28
  -1   8  -6 3073.23 210.412  17
  -1   8  -6 2633.53 215.534  41
  -1   8  -5 3186.51 226.089  23
  -1   8  -5 3210.41 256.778  28
  -1   8  -5 4021.69 237.256   1
  -1   8  -5 3744.61 256.465  17
  -1   8  -5 3094.92 261.055  41
  -1   8  -4 3393.67 279.265  28
  -1   8  -4 3623.52 296.158  41
  -1   8  -4 3530.81 264.931  23
  -1   8  -4 3658.67 238.523  10
  -1   8  -4 4043.26 280.575  17
  -1   8  -4 3768.33 250.281   1
  -1   8  -3 11631.8 513.913  28
  -1   8  -3 11026.6 469.869  17
  -1   8  -3 11060.1 433.505  10
  -1   8  -3 11008.0 438.455   1
  -1   8  -3 11513.6 479.393  23
  -1   8  -3 11090.6 490.144  35
  -1   8  -2 37102.6 906.387  35
  -1   8  -2 37629.4 928.456  28
  -1   8  -2 37045.9 864.571  23
  -1   8  -2 37353.9 882.480  17
  -1   8  -1 14466.7 558.741  35
  -1   8  -1 14544.4 533.944  23
  -1   8  -1 13142.7 957.828  31
  -1   8  -1 14461.3 519.316  10
  -1   8  -1 15013.5 957.088  18
  -1   8  -1 14849.8 545.193  43
  -1   8   0 21829.2 648.086  43
  -1   8   0 21194.5 634.439  10
  -1   8   0 21794.2 680.466  35
  -1   8   0 22051.8 1139.99   5
  -1   8   0 21698.1 649.381  23
  -1   8   1 35187.3 858.058  35
  -1   8   1 35044.7 817.673  23
  -1   8   1 32610.5 1460.93  31
  -1   8   1 35249.5 809.177  43
  -1   8   2 17880.7 568.464  43
  -1   8   2 19311.8 617.158  42
  -1   8   2 19116.4 534.401  12
  -1   8   2 18124.2 584.517  27
  -1   8   2 18506.4 1005.39   5
  -1   8   2 18188.4 628.312  47
  -1   8   3 3423.95 254.728  27
  -1   8   3 3451.80 471.157  31
  -1   8   3 3194.07 224.336  12
  -1   8   3 3218.81 421.435   5
  -1   8   3 3357.60 274.376  47
  -1   8   3 3648.28 255.858  43
  -1   8   3 3474.80 266.696  42
  -1   8   4 16949.0 551.881  43
  -1   8   4 17218.9 596.921  42
  -1   8   4 16567.5 515.913  12
  -1   8   4 15680.6 979.111  31
  -1   8   4 17474.5 949.894   5
  -1   8   4 17175.4 602.847  47
  -1   8   4 16811.2 562.553  27
  -1   8   5 8758.30 727.988  31
  -1   8   5 9612.77 456.720  42
  -1   8   5 8924.31 416.884  27
  -1   8   5 9325.56 398.446  12
  -1   8   5 10003.6 712.012   5
  -1   8   5 9288.84 449.909  47
  -1   8   6 21028.6 676.351  47
  -1   8   6 20299.1 1111.77  31
  -1   8   6 22125.6 701.176  42
  -1   8   6 21269.1 646.782  27
  -1   8   7 15948.4 592.451  47
  -1   8   7 16098.9 538.154  12
  -1   8   7 16746.8 584.410  27
  -1   8   8 5828.79 363.473  47
  -1   8   8 6225.66 379.156  42
  -1   8   8 5828.72 349.841  33
  -1   8   8 5219.98 327.583  27
  -1   8   8 5804.08 322.750  12
  -1   8   8 5639.91 309.966  21
  -1   8   8 5780.30 284.147   8
  -1   8   9 1807.06 202.544  47
  -1   8   9 2128.79 190.191  12
  -1   8   9 2044.80 220.668  42
  -1   8   9 1925.42 182.364  21
  -1   8   9 1855.77 201.918  33
  -1   8   9 2105.25 173.409   8
  -1   8  10 3065.55 242.803  27
  -1   8  10 3195.02 263.330  47
  -1   8  10 3190.29 260.986  42
  -1   8  10 3135.69 224.176  21
  -1   8  10 3107.17 250.503  33
  -1   8  10 3352.93 228.289  12
  -1   8  10 3266.92 216.480   8
  -1   8  11 697.271 116.020  33
  -1   8  11 703.771 119.217  27
  -1   8  11 684.534 96.5722  12
  -1   8  11 708.482 102.206  21
  -1   8  11 818.933 102.120   8
  -1   8  11 697.175 130.478  47
  -1   8  11 589.820 111.518  42
  -1   8  12 890.363 118.519  47
  -1   8  12 908.456 112.242  27
  -1   8  12 853.003 109.893  33
  -1   8  12 960.191 105.437  21
  -1   8  12 867.651 111.374  42
  -1   8  12 1140.86 104.373   8
  -1   8  13 7002.50 223.688  21
  -1   8  13 6778.32 250.214  47
  -1   8  13 6878.62 230.926  27
  -1   9  -6 187.361 63.5613  41
  -1   9  -6 150.300 46.5743  29
  -1   9  -6 320.122 51.2545   1
  -1   9  -6 227.179 51.1402  17
  -1   9  -6 269.375 62.9679  28
  -1   9  -5 6703.38 285.314  17
  -1   9  -5 5785.72 296.369  41
  -1   9  -5 6860.51 259.094   1
  -1   9  -5 6390.27 303.566  28
  -1   9  -4 3188.86 243.809  28
  -1   9  -4 2638.48 205.765  23
  -1   9  -4 2836.17 187.414  10
  -1   9  -4 3476.29 214.195   1
  -1   9  -4 2887.29 218.445  17
  -1   9  -3 6791.05 327.411   1
  -1   9  -3 7675.46 388.979  28
  -1   9  -3 6596.06 346.897  23
  -1   9  -3 6754.94 320.834  10
  -1   9  -3 6570.12 359.497  35
  -1   9  -3 7621.84 360.535  17
  -1   9  -2 192.114 73.9940  23
  -1   9  -2 240.555 98.6278  28
  -1   9  -2 123.843 59.3942  10
  -1   9  -2 45.8986 63.9142  35
  -1   9  -2 203.937 76.2057   1
  -1   9  -2 74.4885 65.7768  17
  -1   9  -1 12013.3 518.095  35
  -1   9  -1 11958.4 510.017  28
  -1   9  -1 11797.5 488.951  23
  -1   9  -1 12489.4 478.416  10
  -1   9  -1 10815.0 469.472  17
  -1   9   0 11500.3 488.710  23
  -1   9   0 10311.5 466.937  10
  -1   9   0 11614.2 485.093  43
  -1   9   0 11256.8 509.814  35
  -1   9   1 54760.8 1114.82  35
  -1   9   1 55108.0 1053.97  43
  -1   9   1 54807.8 1057.72  23
  -1   9   2 2924.03 243.009  43
  -1   9   2 2988.37 220.150  12
  -1   9   2 2903.59 244.055  27
  -1   9   2 2968.97 253.815  23
  -1   9   2 3102.20 244.129  10
  -1   9   2 2723.49 250.672  42
  -1   9   3 768.102 149.545  47
  -1   9   3 977.389 145.430  27
  -1   9   3 991.024 162.502  35
  -1   9   3 938.598 128.708  12
  -1   9   3 755.926 133.005  43
  -1   9   3 951.019 152.022  42
  -1   9   3 975.286 147.446  10
  -1   9   4 750.233 141.054  42
  -1   9   4 742.170 117.689  12
  -1   9   4 563.392 112.772  27
  -1   9   4 821.814 136.865  10
  -1   9   4 679.363 140.257  47
  -1   9   4 562.660 113.616  43
  -1   9   5 20942.2 685.755  42
  -1   9   5 20257.6 599.156  12
  -1   9   5 20463.8 645.872  27
  -1   9   5 20357.1 687.017  47
  -1   9   5 21076.3 632.804  43
  -1   9   6 21541.4 641.647  43
  -1   9   6 22300.0 635.105  12
  -1   9   6 21802.9 706.976  42
  -1   9   6 21464.5 666.904  27
  -1   9   6 20588.0 691.330  47
  -1   9   7 10514.4 467.937  27
  -1   9   7 10639.4 490.574  47
  -1   9   7 10685.5 493.765  42
  -1   9   8 951.187 147.158  27
  -1   9   8 1039.11 161.075  47
  -1   9   8 1089.84 140.715  12
  -1   9   9 6729.71 374.089  47
  -1   9   9 7092.66 387.817  42
  -1   9   9 7258.99 344.464  12
  -1   9   9 6279.72 336.206  33
  -1   9   9 6903.68 321.258  21
  -1   9   9 7055.38 290.130   8
  -1   9  10 536.182 98.9946  33
  -1   9  10 500.988 108.879  42
  -1   9  10 607.108 98.7040  12
  -1   9  10 621.149 98.2589  21
  -1   9  10 602.404 113.742  27
  -1   9  10 506.203 80.4673   8
  -1   9  10 632.738 124.366  47
  -1   9  11 368.005 86.4532  47
  -1   9  11 317.488 65.9323  12
  -1   9  11 443.296 90.1432  27
  -1   9  11 307.097 73.3190  42
  -1   9  11 314.381 67.3763  21
  -1   9  11 394.113 69.3539   8
  -1   9  12 2669.94 173.904  47
  -1   9  12 2838.72 141.718   8
  -1   9  12 2846.34 151.273  21
  -1   9  12 2909.01 175.797  27
  -1   9  12 2648.02 168.694  42
  -1  10  -4 6597.70 240.944  23
  -1  10  -4 7062.26 283.725  28
  -1  10  -4 6998.50 248.364  17
  -1  10  -3 2481.84 185.731  23
  -1  10  -3 2588.31 198.521  28
  -1  10  -3 2392.42 163.078  10
  -1  10  -3 2857.10 180.070   1
  -1  10  -3 2367.54 166.492  17
  -1  10  -2 7336.96 376.040  41
  -1  10  -2 7434.96 358.137  35
  -1  10  -2 8084.22 332.333   1
  -1  10  -2 7255.99 323.886  17
  -1  10  -2 7711.48 352.351  23
  -1  10  -2 8195.12 368.384  28
  -1  10  -2 7325.06 323.074  10
  -1  10  -1 5063.19 325.617  35
  -1  10  -1 4763.09 304.179  28
  -1  10  -1 5420.90 296.313   1
  -1  10  -1 5547.25 317.073  23
  -1  10  -1 5390.59 301.621  10
  -1  10  -1 5016.04 331.186  41
  -1  10   0 2857.45 248.340  23
  -1  10   0 2878.41 233.238  10
  -1  10   0 2549.05 247.931  35
  -1  10   0 2507.34 231.526  28
  -1  10   1 20790.4 630.756  43
  -1  10   1 20285.5 664.818  35
  -1  10   1 20520.4 632.948  23
  -1  10   2 73345.1 1206.49  23
  -1  10   2 74028.4 1169.57  10
  -1  10   2 70496.2 1172.89  43
  -1  10   3 2795.34 209.333  12
  -1  10   3 3160.59 241.031  10
  -1  10   3 2779.81 239.116  43
  -1  10   3 2704.94 251.208  35
  -1  10   3 2534.89 240.007  42
  -1  10   3 2465.36 225.751  27
  -1  10   4 13118.3 491.599  10
  -1  10   4 13091.7 466.308  12
  -1  10   4 12773.1 519.836  35
  -1  10   4 11816.4 499.828  27
  -1  10   4 12625.0 512.397  23
  -1  10   4 12035.7 525.438  47
  -1  10   4 12345.4 529.265  42
  -1  10   4 12397.1 490.241  43
  -1  10   5 11964.9 506.729  35
  -1  10   5 12773.1 465.826  12
  -1  10   5 13194.0 467.981  10
  -1  10   5 11370.3 495.661  27
  -1  10   5 11664.4 514.309  47
  -1  10   5 12577.3 527.537  42
  -1  10   5 11471.8 464.723  43
  -1  10   6 7545.42 362.618  12
  -1  10   6 7465.86 338.837  10
  -1  10   6 7852.17 400.618  35
  -1  10   6 7691.51 376.907  43
  -1  10   6 7323.19 385.429  27
  -1  10   6 7983.54 425.385  42
  -1  10   6 7529.71 409.116  47
  -1  10   7 12956.3 480.271  43
  -1  10   7 13763.9 479.151  12
  -1  10   7 13735.8 542.407  42
  -1  10   7 13120.3 528.774  47
  -1  10   7 13290.9 510.802  27
  -1  10   8 36216.5 840.043  47
  -1  10   8 35535.3 756.830  43
  -1  10   8 38215.2 773.694  12
  -1  10   8 34731.6 838.989  42
  -1  10   8 38071.0 840.681  27
  -1  10   9 9040.71 401.816  47
  -1  10   9 9579.49 367.360  12
  -1  10   9 9649.30 403.105  27
  -1  10   9 9508.15 417.404  42
  -1  10   9 9051.90 361.792  43
  -1  10  10 2742.91 207.091  47
  -1  10  10 2988.02 189.833  12
  -1  10  10 2717.48 183.497  43
  -1  10  10 2555.99 204.070  42
  -1  10  11 4554.85 230.400  42
  -1  10  11 4438.91 195.294  12
  -1  10  11 4070.55 219.545  47
  -1  10  11 3999.88 188.653  43
  -1  10  11 4477.90 224.865  27
  -1  10  12 5821.20 205.981  27
  -1  11  -3 493.999 73.4782  41
  -1  11  -3 297.934 46.3455   1
  -1  11  -2 8898.14 295.736  28
  -1  11  -2 9435.67 310.981  23
  -1  11  -2 9097.96 280.042  10
  -1  11  -2 9767.43 283.043   1
  -1  11  -2 9121.80 336.754  41
  -1  11  -1 13933.0 386.468   1
  -1  11  -1 12480.3 385.739  28
  -1  11  -1 13183.4 429.992  35
  -1  11  -1 12393.2 432.295  41
  -1  11  -1 12868.0 412.352  23
  -1  11  -1 14375.5 400.922  10
  -1  11   0 10025.7 360.704  10
  -1  11   0 9070.57 392.364  41
  -1  11   0 8410.22 336.466  28
  -1  11   0 9889.87 351.344   1
  -1  11   0 9065.43 391.308  35
  -1  11   0 9542.05 377.280  23
  -1  11   1 12.9973 57.2034  35
  -1  11   1 37.8330 57.3415  23
  -1  11   2 5077.10 293.328  43
  -1  11   2 4648.63 305.551  35
  -1  11   2 5652.66 313.586  23
  -1  11   2 5298.12 294.333  10
  -1  11   3 23707.9 666.917  35
  -1  11   3 24444.2 614.751  10
  -1  11   4 7070.96 350.561  43
  -1  11   4 7291.16 372.192  42
  -1  11   4 7534.69 380.462  35
  -1  11   4 7853.66 328.855  12
  -1  11   4 7497.04 363.422  23
  -1  11   5 2616.61 212.719  43
  -1  11   5 2800.55 228.592  35
  -1  11   5 2858.32 209.287  12
  -1  11   5 2663.91 223.402  27
  -1  11   5 2865.34 203.823  10
  -1  11   5 2609.25 230.891  42
  -1  11   5 2863.65 229.680  23
  -1  11   6 2350.43 207.157  27
  -1  11   6 2214.32 199.020  35
  -1  11   6 2412.42 205.666  23
  -1  11   6 2671.51 183.330  10
  -1  11   6 2168.03 210.239  47
  -1  11   6 2260.79 192.665  43
  -1  11   6 2666.76 200.956  12
  -1  11   6 2532.98 220.919  42
  -1  11   7 2243.48 210.931  47
  -1  11   7 2281.28 190.876  35
  -1  11   7 2260.79 188.560  43
  -1  11   7 2486.85 191.619  12
  -1  11   7 2390.95 201.936  27
  -1  11   7 2581.70 202.943  23
  -1  11   7 2650.43 220.924  42
  -1  11   8 100.843 53.1825  42
  -1  11   8 60.0765 55.4715  47
  -1  11   8 62.4041 52.4628  43
  -1  11   8 62.4862 57.0996  23
  -1  11   8 70.1316 49.9651  27
  -1  11   9 414.707 75.7925  43
  -1  11   9 510.913 82.8131  12
  -1  11   9 461.852 86.1851  27
  -1  11   9 443.812 78.0442  23
  -1  11   9 421.516 90.9768  47
  -1  11  10 4783.89 227.083  27
  -1  11  10 4086.17 183.079  43
  -1  11  10 5024.92 244.014  42
  -1  11  10 5442.65 215.860  12
  -1  11  10 4483.78 186.704  23
  -1  11  10 3973.32 208.623  47
  -1  12   0 1132.47 106.985  23
  -1  12   0 961.791 106.436  41
  -1  12   0 1083.14 97.3994  10
  -1  12   0 1082.59 92.4801   1
  -1  12   1 1779.45 143.290  23
  -1  12   1 1585.21 146.120  41
  -1  12   1 1821.45 129.277   1
  -1  12   1 1559.73 121.818  10
  -1  12   1 1542.81 144.230  35
  -1  12   2 4231.72 239.561  41
  -1  12   2 4843.20 225.939  10
  -1  12   2 4473.70 238.718  23
  -1  12   2 4066.18 237.012  35
  -1  12   3 4980.47 232.967  10
  -1  12   3 4603.17 257.713  35
  -1  12   4 1126.71 122.968  43
  -1  12   4 1116.31 127.939  23
  -1  12   4 1172.69 116.676  10
  -1  12   4 1187.56 134.236  35
  -1  12   5 3706.55 209.774  43
  -1  12   5 4269.69 206.171  12
  -1  12   5 4331.99 242.699  35
  -1  12   5 4387.07 239.222  23
  -1  12   5 4221.51 201.334  10
  -1  12   6 6102.72 273.616  35
  -1  12   6 6526.12 255.327  12
  -1  12   6 6025.67 271.612  23
  -1  12   7 2458.00 158.948  35
  -1  12   7 2453.52 176.042  42
  -1  12   7 2304.56 161.727  23
  -1  12   7 2067.63 148.482  43
  -1  12   7 2486.36 157.318  12
  -1  12   8 671.249 81.6014  12
  -1  12   8 526.848 81.0649  27
  -1  12   8 608.448 89.4880  42
  -1  12   8 592.491 77.7994  23
  -1  12   8 452.852 70.3981  43
  -1  12   9 923.988 89.2379  27
  -1  12   9 973.232 97.5461  42
  -1  13   4 1966.44 121.451  23
  -1  13   4 1459.09 97.2286   1
  -1  13   5 2088.96 123.924  23
   0 -13  -8 8047.09 275.488  15
   0 -13  -7 6725.92 204.507   1
   0 -13  -6 4113.92 228.739  15
   0 -13  -6 4751.33 179.863   1
   0 -13  -5 156.152 57.4795  45
   0 -13  -5 68.0685 54.2772  15
   0 -13  -5 163.976 39.2236   1
   0 -13  -4 3072.40 190.885  15
   0 -13  -4 3000.20 184.706  45
   0 -13  -4 2506.30 156.767  19
   0 -13  -3 2702.41 172.234  45
   0 -13  -3 2371.07 154.918  19
   0 -13  -2 1206.52 108.761  19
   0 -12 -10 3898.66 152.987   1
   0 -12  -9 6905.22 230.662   1
   0 -12  -9 5792.43 276.949  15
   0 -12  -8 2774.84 215.678  15
   0 -12  -8 2719.91 161.129   1
   0 -12  -7 880.478 137.290  15
   0 -12  -7 635.523 103.675  45
   0 -12  -7 851.549 98.9834   1
   0 -12  -6 2596.31 206.483  45
   0 -12  -6 3640.34 203.687   1
   0 -12  -5 4990.68 293.698  45
   0 -12  -5 6401.38 270.068   1
   0 -12  -5 6015.04 351.951  15
   0 -12  -5 4924.07 274.764  19
   0 -12  -4 11627.6 479.513  15
   0 -12  -4 10415.8 431.554  45
   0 -12  -4 10933.0 422.218  19
   0 -12  -4 10000.8 413.629  38
   0 -12  -3 330.899 98.6905  15
   0 -12  -3 170.113 75.0644  11
   0 -12  -3 361.977 70.4414   1
   0 -12  -3 555.628 118.822  45
   0 -12  -3 363.233 94.5477  19
   0 -12  -3 392.365 99.6835  38
   0 -12  -2 3918.20 270.303  38
   0 -12  -2 3932.10 249.659  15
   0 -12  -2 3633.76 257.783  11
   0 -12  -2 4212.57 272.569  45
   0 -12  -2 3835.10 257.566  19
   0 -12  -1 13716.0 468.683  45
   0 -12  -1 14552.7 475.777  19
   0 -12  -1 14199.8 475.599  11
   0 -12   0 13020.6 429.406  11
   0 -12   0 12584.0 416.140  19
   0 -12   1 4007.17 217.316  19
   0 -11 -11 121.082 35.5646   1
   0 -11 -11 55.1623 40.4771  13
   0 -11 -10 506.848 95.2827  15
   0 -11 -10 299.673 73.1007  13
   0 -11 -10 513.499 73.9559   1
   0 -11 -10 358.670 93.1352  25
   0 -11  -9 5149.33 297.278  13
   0 -11  -9 7361.56 285.430   1
   0 -11  -9 6999.22 355.408  15
   0 -11  -9 5771.67 358.614  39
   0 -11  -9 6500.05 350.354  25
   0 -11  -8 1349.36 181.181  15
   0 -11  -8 1254.46 173.906  25
   0 -11  -8 1399.09 135.765   1
   0 -11  -8 1254.74 192.296  39
   0 -11  -7 5763.60 370.308  15
   0 -11  -7 5392.73 318.866  45
   0 -11  -7 4998.20 381.844  39
   0 -11  -7 5094.08 363.599  25
   0 -11  -7 5580.40 278.329   1
   0 -11  -6 325.381 139.068  39
   0 -11  -6 226.466 113.752  25
   0 -11  -6 415.106 113.047  45
   0 -11  -6 364.950 76.1515   1
   0 -11  -5 11823.5 546.311  15
   0 -11  -5 11181.5 491.065  45
   0 -11  -5 11561.2 477.764  19
   0 -11  -5 12055.1 420.151   1
   0 -11  -4 2402.55 240.382  38
   0 -11  -4 2033.00 209.593  11
   0 -11  -4 2302.27 240.173  45
   0 -11  -4 2187.84 242.334  15
   0 -11  -4 2170.84 223.163  19
   0 -11  -4 2190.69 186.331   1
   0 -11  -3 3757.11 308.519  15
   0 -11  -3 3518.03 293.197  45
   0 -11  -3 3828.26 241.693   1
   0 -11  -3 3462.76 282.531  11
   0 -11  -3 3548.81 294.671  38
   0 -11  -3 3475.28 283.078  19
   0 -11  -2 3590.08 289.918  15
   0 -11  -2 3637.07 298.460  45
   0 -11  -2 3778.62 312.316  38
   0 -11  -2 3615.41 299.998  11
   0 -11  -2 4272.96 247.101   1
   0 -11  -2 3557.26 295.290  19
   0 -11  -1 1752.01 207.178  11
   0 -11  -1 1508.39 197.220  45
   0 -11  -1 1886.69 218.334  38
   0 -11  -1 1585.82 176.830  44
   0 -11  -1 1691.36 203.034  19
   0 -11  -1 1836.90 165.990   1
   0 -11   0 279.624 94.6935  44
   0 -11   0 410.875 127.740  38
   0 -11   0 514.524 120.849  11
   0 -11   0 490.738 121.601  19
   0 -11   0 432.336 116.856  45
   0 -11   1 5841.59 304.126  44
   0 -11   1 6756.64 359.344  19
   0 -11   2 6685.42 297.287  44
   0 -11   2 7644.24 353.718  11
   0 -11   3 4375.02 211.810  44
   0 -11   3 4844.50 246.462  11
   0 -11   3 4672.36 239.195  19
   0 -10 -12 499.966 63.5143   1
   0 -10 -12 332.695 74.3643  13
   0 -10 -11 1111.97 148.604  13
   0 -10 -11 1081.22 135.207  25
   0 -10 -11 1493.86 124.308   1
   0 -10 -10 3366.84 272.097  39
   0 -10 -10 4316.34 228.406   1
   0 -10 -10 3586.18 263.547  13
   0 -10 -10 3406.28 257.502  25
   0 -10 -10 3753.77 255.233  15
   0 -10  -9 4250.12 313.393  25
   0 -10  -9 4457.01 247.798   1
   0 -10  -9 4086.25 299.077  15
   0 -10  -9 3970.95 328.093  39
   0 -10  -9 4045.25 290.040  13
   0 -10  -8 8059.40 443.730  15
   0 -10  -8 7968.01 457.137  25
   0 -10  -8 8521.89 358.315   1
   0 -10  -8 7593.57 470.722  39
   0 -10  -8 8349.10 425.842  13
   0 -10  -7 1232.86 214.174  39
   0 -10  -7 1329.54 188.515  13
   0 -10  -7 1571.62 215.721  15
   0 -10  -7 1587.78 159.386   1
   0 -10  -7 1438.75 213.918  25
   0 -10  -6 38918.6 932.951  45
   0 -10  -6 38473.1 1089.79  39
   0 -10  -6 39818.9 1028.42  15
   0 -10  -6 39237.1 1034.56  25
   0 -10  -6 41106.3 806.954   1
   0 -10  -5 23702.3 740.711  45
   0 -10  -5 23004.7 700.512  19
   0 -10  -5 23189.7 606.045   1
   0 -10  -4 18698.3 768.123  39
   0 -10  -4 19287.6 689.173  38
   0 -10  -4 17210.6 623.921  11
   0 -10  -4 18707.9 726.074  25
   0 -10  -4 18232.7 667.630  45
   0 -10  -4 20027.5 673.485  19
   0 -10  -4 18530.8 547.021   1
   0 -10  -4 18693.1 705.263  15
   0 -10  -3 539.164 130.963  11
   0 -10  -3 468.635 137.477  15
   0 -10  -3 622.814 138.280  45
   0 -10  -3 718.185 153.174  38
   0 -10  -3 539.930 132.426  19
   0 -10  -3 550.057 102.644   1
   0 -10  -2 8925.38 479.780  45
   0 -10  -2 9500.33 504.953  38
   0 -10  -2 9331.48 389.868   1
   0 -10  -2 8996.70 488.569  11
   0 -10  -2 10151.6 511.018  15
   0 -10  -2 9424.08 492.403  19
   0 -10  -1 3575.39 296.467  15
   0 -10  -1 3621.87 309.193  45
   0 -10  -1 3110.91 302.239  11
   0 -10  -1 3374.23 296.801  19
   0 -10  -1 3722.22 246.656   1
   0 -10  -1 3663.32 317.153  38
   0 -10   0-12.9047 89.1494  38
   0 -10   0 26.8105 88.8400  45
   0 -10   0 283.624 104.286  44
   0 -10   0 140.575 74.3280  11
   0 -10   0 101.516 87.7139  19
   0 -10   0 155.355 67.5150   1
   0 -10   1 4820.83 322.923  44
   0 -10   1 4696.68 292.990  24
   0 -10   1 4668.49 339.878  45
   0 -10   1 4423.43 334.526  19
   0 -10   2 589.352 123.872  44
   0 -10   2 564.323 106.939  24
   0 -10   2 646.342 134.015  11
   0 -10   3 530.736 112.838  44
   0 -10   3 480.572 99.9617  24
   0 -10   3 473.707 122.612  11
   0 -10   3 519.872 117.790  19
   0 -10   4 1407.98 146.055  44
   0 -10   4 1265.99 142.285  11
   0 -10   4 1422.88 138.350  37
   0 -10   4 1443.30 138.401  24
   0 -10   4 1198.50 144.632  19
   0 -10   5 466.102 75.4233  19
   0 -10   5 403.861 72.5662  44
   0 -10   5 518.287 72.8099  24
   0  -9 -13 2459.85 161.286  13
   0  -9 -13 2757.82 128.370   1
   0  -9 -12 3216.75 172.304   1
   0  -9 -11 5566.42 353.608  13
   0  -9 -11 6793.03 282.723   1
   0  -9 -10 5192.52 349.681  39
   0  -9 -10 5498.53 356.009  13
   0  -9 -10 5365.86 337.792  25
   0  -9 -10 5897.58 285.336   1
   0  -9  -9 5006.23 340.284  15
   0  -9  -9 4568.10 333.400  13
   0  -9  -9 4678.02 342.391  25
   0  -9  -9 4589.84 265.079   1
   0  -9  -9 4397.48 356.328  39
   0  -9  -8 3584.82 302.351  13
   0  -9  -8 3554.33 314.987  25
   0  -9  -8 3750.75 342.728  39
   0  -9  -8 3593.60 306.831  15
   0  -9  -8 3747.65 239.057   1
   0  -9  -7 22473.2 595.987   1
   0  -9  -7 22215.2 724.822  13
   0  -9  -7 21687.5 804.793  39
   0  -9  -7 22636.8 757.732  15
   0  -9  -7 21997.7 761.299  25
   0  -9  -6 42956.5 1058.32  15
   0  -9  -6 41230.3 803.926   1
   0  -9  -6 44252.4 1143.59  39
   0  -9  -6 43005.7 1073.22  25
   0  -9  -6 43804.1 990.389  13
   0  -9  -5 6835.70 451.888  39
   0  -9  -5 6398.29 316.434   1
   0  -9  -5 6536.27 417.457  25
   0  -9  -5 6479.11 382.214  19
   0  -9  -5 6133.02 732.054  16
   0  -9  -4 2266.48 269.030  39
   0  -9  -4 2344.54 238.685  38
   0  -9  -4 2308.27 191.634   1
   0  -9  -4 2208.78 422.028  16
   0  -9  -4 2142.48 228.574  19
   0  -9  -4 2152.72 251.552  15
   0  -9  -4 2521.83 248.447  45
   0  -9  -3 11002.0 527.168  15
   0  -9  -3 11062.4 510.134  45
   0  -9  -3 10671.5 560.543  39
   0  -9  -3 11111.9 508.690  11
   0  -9  -3 9316.97 894.251  16
   0  -9  -3 10935.5 534.377  25
   0  -9  -3 10871.7 410.716   1
   0  -9  -3 11405.1 504.693  19
   0  -9  -3 10931.4 520.471  38
   0  -9  -2 27716.6 841.747  38
   0  -9  -2 27987.8 826.822  11
   0  -9  -2 28199.9 834.029  15
   0  -9  -2 26749.8 811.025  19
   0  -9  -2 26887.4 804.877  45
   0  -9  -2 27083.1 657.396   1
   0  -9  -2 26032.6 865.178  39
   0  -9  -1 9013.90 469.903  45
   0  -9  -1 8445.31 476.915  38
   0  -9  -1 7297.03 341.319   1
   0  -9  -1 7729.09 448.097  11
   0  -9  -1 7982.74 447.251  19
   0  -9  -1 7799.98 434.296  15
   0  -9  -1 7172.20 766.173  16
   0  -9   0 1269.14 191.949  45
   0  -9   0 1197.60 193.023  11
   0  -9   0 1485.36 176.836  24
   0  -9   0 1376.22 209.808  38
   0  -9   0 1363.42 155.985   1
   0  -9   0 1149.01 187.483  19
   0  -9   1 5975.51 397.592  45
   0  -9   1 6225.93 385.350  44
   0  -9   1 7088.40 339.200   1
   0  -9   1 6449.42 363.049  24
   0  -9   2 6239.07 360.700  37
   0  -9   2 6185.71 418.380  38
   0  -9   2 5836.61 374.324  44
   0  -9   2 6051.69 353.140  24
   0  -9   2 6272.40 411.487  11
   0  -9   2 6009.26 397.335  19
   0  -9   3 7286.53 402.242  44
   0  -9   3 7742.07 356.606   6
   0  -9   3 7721.04 444.669  11
   0  -9   3 7666.52 397.420  37
   0  -9   3 7734.53 393.501  24
   0  -9   3 7935.64 443.265  19
   0  -9   4 1417.70 181.992  44
   0  -9   4 1992.54 177.085   6
   0  -9   4 1548.17 176.671  24
   0  -9   4 1679.93 195.093  11
   0  -9   4 1571.45 187.874  19
   0  -9   4 1723.25 187.810  37
   0  -9   5 1926.77 190.634  44
   0  -9   5 1821.50 183.606  19
   0  -9   5 2037.24 183.711  37
   0  -9   5 2032.14 168.258   6
   0  -9   5 1987.28 180.659  11
   0  -9   5 2238.97 188.920  24
   0  -9   6 9585.96 301.933   6
   0  -9   6 8119.63 313.313  44
   0  -9   6 7868.28 292.588  19
   0  -9   6 9508.38 330.217  24
   0  -8 -13 828.584 82.8349   1
   0  -8 -13 819.762 112.972  13
   0  -8 -12 4530.62 289.190  13
   0  -8 -12 4788.07 228.227   1
   0  -8 -11 4296.84 242.482   1
   0  -8 -10 9461.68 487.844  13
   0  -8 -10 8292.60 431.240  25
   0  -8 -10 8833.73 370.544   1
   0  -8  -9 15198.8 586.084  15
   0  -8  -9 13790.4 651.737  40
   0  -8  -9 16528.7 653.038  13
   0  -8  -9 14835.2 669.235  26
   0  -8  -9 15265.6 612.391  25
   0  -8  -9 15648.3 500.066   1
   0  -8  -9 14892.1 636.662  39
   0  -8  -8 3171.82 281.427  15
   0  -8  -8 3117.09 314.589  40
   0  -8  -8 3370.90 309.315  39
   0  -8  -8 3107.55 285.347  13
   0  -8  -8 2934.01 301.332  26
   0  -8  -8 3152.82 289.078  25
   0  -8  -8 3156.27 227.376   1
   0  -8  -7 26863.1 818.761  13
   0  -8  -7 29206.2 853.580  25
   0  -8  -7 29084.9 847.855  15
   0  -8  -7 27896.8 1499.64  16
   0  -8  -7 26357.6 1455.09   9
   0  -8  -7 25612.3 860.840  26
   0  -8  -7 29812.3 907.685  39
   0  -8  -7 28531.7 663.463   1
   0  -8  -6 10349.2 538.526  39
   0  -8  -6 9353.51 462.927  13
   0  -8  -6 10245.2 501.733  25
   0  -8  -6 10245.6 898.360  16
   0  -8  -6 9241.36 842.047   9
   0  -8  -6 9516.28 484.984  15
   0  -8  -6 8714.49 365.206   1
   0  -8  -5 3182.15 262.515  13
   0  -8  -5 3029.35 297.343  39
   0  -8  -5 3297.63 286.211  25
   0  -8  -5 2856.18 494.779  16
   0  -8  -5 2894.99 207.148   1
   0  -8  -5 2873.29 450.547   9
   0  -8  -5 3190.99 283.896  15
   0  -8  -4 2517.46 190.060   1
   0  -8  -3 22830.5 718.870  15
   0  -8  -3 24667.6 804.646  39
   0  -8  -3 24265.3 725.102  38
   0  -8  -3 23279.9 704.144  11
   0  -8  -3 21602.6 552.501   1
   0  -8  -3 23787.3 752.008  25
   0  -8  -3 23125.8 1302.79  16
   0  -8  -3 24176.0 701.898  19
   0  -8  -2 20725.5 685.823  15
   0  -8  -2 22482.8 755.055  39
   0  -8  -2 22081.8 705.781  38
   0  -8  -2 20955.7 692.041  11
   0  -8  -2 22599.4 721.132  25
   0  -8  -2 20328.1 538.747   1
   0  -8  -2 20751.7 1228.11  16
   0  -8  -2 21032.7 675.056  19
   0  -8  -2 22128.0 683.407  45
   0  -8  -1 18873.1 645.730  45
   0  -8  -1 18506.6 668.275  38
   0  -8  -1 18317.2 690.447  39
   0  -8  -1 16854.6 1103.27  16
   0  -8  -1 18327.9 662.372  11
   0  -8  -1 18593.1 640.275  15
   0  -8  -1 17641.7 637.422  19
   0  -8  -1 17638.9 507.900   1
   0  -8   0 3023.89 265.476  15
   0  -8   0 3164.70 278.968  45
   0  -8   0 3366.68 294.952  38
   0  -8   0 3042.06 214.209   1
   0  -8   0 2893.03 281.674  11
   0  -8   0 2950.68 278.425  19
   0  -8   0 2829.53 466.280  16
   0  -8   1 12244.1 429.704   1
   0  -8   2 22073.3 716.612  44
   0  -8   2 20895.3 599.353   6
   0  -8   2 23049.7 685.623  24
   0  -8   2 19786.5 743.868  11
   0  -8   2 22235.3 778.671  38
   0  -8   2 22443.7 748.031  19
   0  -8   2 21900.3 688.055  37
   0  -8   3 8147.39 478.679  11
   0  -8   3 7736.09 385.707   6
   0  -8   3 8932.46 461.915  44
   0  -8   3 9485.11 490.572  45
   0  -8   3 8646.81 439.184  24
   0  -8   3 9444.37 510.295  38
   0  -8   3 9631.62 498.823  19
   0  -8   3 9137.91 457.871  37
   0  -8   4 1382.69 191.291  37
   0  -8   4 1484.71 176.818   6
   0  -8   4 1234.74 199.219  11
   0  -8   4 1512.43 191.514  24
   0  -8   4 1544.50 203.846  44
   0  -8   4 1448.82 203.283  19
   0  -8   5 1604.78 190.977  44
   0  -8   5 1743.01 189.925   6
   0  -8   5 1678.15 202.528  11
   0  -8   5 1747.90 192.724  24
   0  -8   5 1726.39 200.853  19
   0  -8   5 1912.12 208.177  37
   0  -8   6 12704.4 434.321   6
   0  -8   6 12239.6 469.134  37
   0  -8   6 11753.8 449.368  24
   0  -8   6 10532.1 424.491  19
   0  -8   6 11374.3 451.817  44
   0  -8   7 280.052 65.7914  19
   0  -8   7 287.903 67.2651  50
   0  -8   7 347.729 72.1732   6
   0  -8   7 318.405 77.7880  44
   0  -8   7 406.316 88.6147  24
   0  -7 -13 62.0222 36.5753   1
   0  -7 -13 31.5076 47.5418  13
   0  -7 -12 2529.71 228.138  13
   0  -7 -12 2115.72 234.366  26
   0  -7 -12 2796.69 188.050   1
   0  -7 -12 2133.39 230.115  40
   0  -7 -11 6437.07 390.477  13
   0  -7 -11 5636.50 402.506  26
   0  -7 -11 6465.64 312.404   1
   0  -7 -11 5771.79 400.508  40
   0  -7 -10 49889.3 1206.08  40
   0  -7 -10 49594.7 1216.96  26
   0  -7 -10 52277.9 1072.11  25
   0  -7 -10 49236.9 885.972   1
   0  -7  -9 8975.60 482.034  13
   0  -7  -9 9045.56 464.344  25
   0  -7  -9 9213.86 387.278   1
   0  -7  -8 11388.1 539.432  39
   0  -7  -8 9935.71 494.895  13
   0  -7  -8 9704.32 861.413  16
   0  -7  -8 10894.3 491.741  15
   0  -7  -8 10395.0 544.601  26
   0  -7  -8 10949.5 506.270  25
   0  -7  -8 9682.38 387.962   1
   0  -7  -8 9618.13 892.492   9
   0  -7  -7 12323.4 526.091  15
   0  -7  -7 11644.0 561.490  40
   0  -7  -7 12111.6 551.654  39
   0  -7  -7 11847.2 522.126  13
   0  -7  -7 11246.6 551.655  26
   0  -7  -7 11966.6 526.244  25
   0  -7  -7 12760.2 952.548  16
   0  -7  -7 12116.1 424.116   1
   0  -7  -7 12303.4 958.006   9
   0  -7  -6 8166.30 451.333  40
   0  -7  -6 7481.69 320.268   1
   0  -7  -6 8411.90 450.821  39
   0  -7  -6 7795.94 414.419  13
   0  -7  -6 7830.83 445.304  26
   0  -7  -6 8335.52 427.280  25
   0  -7  -6 8019.82 415.836  15
   0  -7  -6 7906.15 738.845   9
   0  -7  -6 8192.20 751.369  16
   0  -7  -5 12582.4 513.201  25
   0  -7  -5 12293.1 909.089  16
   0  -7  -5 11631.0 840.434   9
   0  -7  -5 11663.3 386.098   1
   0  -7  -5 13142.8 555.895  39
   0  -7  -5 11523.8 492.614  15
   0  -7  -4 40988.2 1592.61  16
   0  -7  -4 38966.8 1438.26   9
   0  -7  -3 161488. 3113.34  16
   0  -7  -3 163154. 2861.28   9
   0  -7  -2 30013.6 1355.04  16
   0  -7  -1 4466.28 530.615  16
   0  -7   0 25016.2 698.710  45
   0  -7   0 25063.9 739.144  38
   0  -7   0 24210.7 555.631   1
   0  -7   0 24299.9 708.884  19
   0  -7   0 25032.8 1236.46  16
   0  -7   0 25666.0 731.937  11
   0  -7   1 38524.0 836.069  37
   0  -7   1 35085.9 1477.45  16
   0  -7   1 34823.4 693.062   1
   0  -7   1 37507.2 1329.66   7
   0  -7   2 17002.2 648.596  38
   0  -7   2 16868.8 589.903  37
   0  -7   2 15410.5 464.554   1
   0  -7   2 15434.6 509.282   6
   0  -7   2 16349.3 630.196  11
   0  -7   2 16559.1 573.174  24
   0  -7   2 15924.6 618.826  19
   0  -7   2 16052.2 938.128   7
   0  -7   3 1709.51 214.498  45
   0  -7   3 1739.27 212.602  44
   0  -7   3 1677.35 208.158  37
   0  -7   3 1899.98 228.355  11
   0  -7   3 1503.90 179.207   6
   0  -7   3 1748.67 201.031  24
   0  -7   3 1604.14 223.961  38
   0  -7   3 1578.72 211.062  19
   0  -7   3 1393.71 305.736   7
   0  -7   4 3343.74 292.487  44
   0  -7   4 3436.59 308.688  11
   0  -7   4 3452.11 308.863  38
   0  -7   4 3489.13 295.611  37
   0  -7   4 3398.29 267.758   6
   0  -7   4 3284.59 292.746  19
   0  -7   4 3417.03 284.224  24
   0  -7   5 16712.6 638.347  44
   0  -7   5 18562.2 603.679   6
   0  -7   5 16788.1 623.466  24
   0  -7   5 17060.1 646.912  37
   0  -7   5 17758.6 654.879  19
   0  -7   5 16586.7 632.678  11
   0  -7   6 12487.7 522.461  44
   0  -7   6 12551.8 492.934   6
   0  -7   6 12543.1 508.390  24
   0  -7   6 12572.1 521.900  19
   0  -7   6 12499.5 527.177  37
   0  -7   7 2550.03 227.128  44
   0  -7   7 2488.82 206.672   6
   0  -7   7 2518.83 222.665  24
   0  -7   7 2635.41 226.900  37
   0  -7   7 2193.81 201.289  50
   0  -7   7 2116.64 191.520  19
   0  -7   8 3691.24 214.482   6
   0  -7   8 2271.07 178.212  50
   0  -6 -14 5135.87 176.203   1
   0  -6 -13 8315.73 385.720  40
   0  -6 -13 8144.36 355.121  13
   0  -6 -13 8717.78 304.443   4
   0  -6 -12 2213.58 221.169  13
   0  -6 -12 2706.73 188.939   1
   0  -6 -12 1953.34 223.045  40
   0  -6 -12 2092.74 235.053  26
   0  -6 -12 2132.50 182.023   4
   0  -6 -11 9655.84 520.743  40
   0  -6 -11 10217.7 504.453  13
   0  -6 -11 10125.7 537.201  26
   0  -6 -11 10829.0 410.490   1
   0  -6 -11 10248.7 419.311   4
   0  -6 -10 40817.3 1101.66  26
   0  -6 -10 38881.7 806.646   1
   0  -6 -10 39440.7 840.106   4
   0  -6 -10 41449.7 1025.05  13
   0  -6 -10 40357.9 1068.72  40
   0  -6  -9 52663.0 1209.32  40
   0  -6  -9 54466.1 1150.26  13
   0  -6  -9 52751.1 1077.78  25
   0  -6  -9 49575.5 884.822   1
   0  -6  -9 51929.8 2086.46   9
   0  -6  -9 52068.5 1211.07  26
   0  -6  -8 6860.31 387.144  25
   0  -6  -8 6460.03 645.695  16
   0  -6  -8 6180.32 308.405   1
   0  -6  -8 6720.02 423.250  40
   0  -6  -7 43551.4 973.486  39
   0  -6  -7 39115.0 983.020  26
   0  -6  -7 42363.1 923.407  25
   0  -6  -7 41320.3 1568.75  16
   0  -6  -7 37722.3 715.485   1
   0  -6  -7 40108.3 1630.41   9
   0  -6  -7 40451.3 880.673  15
   0  -6  -7 41194.5 926.489  13
   0  -6  -6 33380.5 1369.88  16
   0  -6  -6 31478.8 1374.54   9
   0  -6  -5 87293.3 2125.11   9
   0  -6  -5 89623.2 2164.68  16
   0  -6  -4 158317. 2825.43  16
   0  -6  -4 153029. 2670.51   9
   0  -6  -3 9107.01 617.815   9
   0  -6  -2 59412.4 1501.94   9
   0  -6  -2 63382.8 1741.16  16
   0  -6  -1 98277.4 1659.89   7
   0  -6  -1 106182. 2236.79  16
   0  -6   0 30396.8 1016.19   7
   0  -6   0 30559.6 1212.06  16
   0  -6   1 25802.4 1143.95  16
   0  -6   1 25815.9 1020.31   7
   0  -6   2 31148.0 1203.70   7
   0  -6   2 28763.0 1218.25  16
   0  -6   3 23593.7 1127.92   7
   0  -6   3 24381.6 716.783  45
   0  -6   3 23415.6 690.644  44
   0  -6   3 21822.0 607.298   6
   0  -6   3 21832.4 701.561  11
   0  -6   3 23325.8 662.015  24
   0  -6   3 23319.9 733.789  38
   0  -6   3 22901.0 703.860  19
   0  -6   3 22908.3 684.138  37
   0  -6   4 17118.6 630.605  44
   0  -6   4 16606.6 629.222  19
   0  -6   4 18110.9 649.381  45
   0  -6   4 17719.6 1057.87   7
   0  -6   4 16684.0 565.882   6
   0  -6   4 16877.1 631.114  37
   0  -6   4 17350.6 609.708  24
   0  -6   4 17322.9 650.883  38
   0  -6   4 15396.4 621.069  11
   0  -6   5 1459.73 196.400  44
   0  -6   5 1353.64 185.784  37
   0  -6   5 1211.10 167.847   6
   0  -6   5 1209.88 180.873  11
   0  -6   5 1442.70 191.389  24
   0  -6   5 1451.54 195.324  19
   0  -6   5 1144.88 295.088   7
   0  -6   6 4382.25 331.108  44
   0  -6   6 4598.69 314.984   6
   0  -6   6 4620.79 342.163  37
   0  -6   6 4508.80 325.631  19
   0  -6   6 4659.21 332.766  24
   0  -6   7 20354.0 623.614   6
   0  -6   7 18542.0 499.680   3
   0  -6   7 17275.2 605.017  24
   0  -6   7 17968.0 601.955  19
   0  -6   7 19702.9 662.004  37
   0  -6   7 16322.8 605.695  50
   0  -6   8 19835.7 457.693   3
   0  -6   8 16004.8 545.640  50
   0  -6   9 3838.30 212.468   6
   0  -6   9 2931.68 195.167  50
   0  -5 -14 3549.17 153.228   1
   0  -5 -14 3001.98 148.667   4
   0  -5 -13 6085.76 328.989  40
   0  -5 -13 5609.96 285.034  13
   0  -5 -13 5671.21 318.446  26
   0  -5 -13 6183.55 276.454   4
   0  -5 -12 1016.54 167.006  40
   0  -5 -12 912.045 143.623  13
   0  -5 -12 752.812 142.415  26
   0  -5 -12 905.268 116.075   1
   0  -5 -12 766.982 124.083   4
   0  -5 -11 3594.56 299.539  13
   0  -5 -11 3164.36 226.288   1
   0  -5 -11 3283.36 309.525  26
   0  -5 -11 3229.77 250.605   4
   0  -5 -11 3700.66 326.512  40
   0  -5 -10 133139. 1936.27  40
   0  -5 -10 134195. 1814.65  13
   0  -5 -10 133652. 1580.39   4
   0  -5 -10 130001. 1450.15   1
   0  -5  -9 11889.5 559.905  40
   0  -5  -9 10818.7 522.298  13
   0  -5  -9 11273.4 413.239   1
   0  -5  -9 11587.7 570.526  26
   0  -5  -9 11675.8 967.079   9
   0  -5  -9 10319.0 452.877   4
   0  -5  -8 10364.2 470.840  13
   0  -5  -8 9001.38 358.249   1
   0  -5  -8 10286.1 507.974  26
   0  -5  -8 10439.8 855.478   9
   0  -5  -8 9524.89 395.366   4
   0  -5  -8 10520.9 507.065  40
   0  -5  -7 2438.08 358.159  16
   0  -5  -6 33667.8 1331.60   9
   0  -5  -6 33608.9 1240.64  16
   0  -5  -5 73097.8 1774.09  16
   0  -5  -5 68328.9 1741.82   9
   0  -5  -4 46333.8 1347.86  16
   0  -5  -4 49303.0 1393.82   9
   0  -5  -3 95569.7 1902.38  16
   0  -5  -3 98131.8 1831.96   9
   0  -5  -2 19525.4 576.290   7
   0  -5  -2 20066.1 776.857   9
   0  -5  -1 28839.7 793.437   7
   0  -5  -1 27422.4 1031.16  16
   0  -5  -1 27961.0 867.130   9
   0  -5   0 94434.6 1589.18   7
   0  -5   0 90979.9 1853.19  16
   0  -5   0 90248.9 1479.90   9
   0  -5   1 21962.0 856.076   7
   0  -5   1 21821.0 927.588  16
   0  -5   2 88373.6 1881.49   7
   0  -5   2 88404.0 1906.86  16
   0  -5   3 8964.09 644.019   7
   0  -5   3 7581.51 588.093  16
   0  -5   4 45553.5 959.448  45
   0  -5   4 45194.4 943.749  44
   0  -5   4 44794.2 947.698  37
   0  -5   4 42936.6 839.819   6
   0  -5   4 44929.6 973.619  38
   0  -5   4 43231.7 938.932  11
   0  -5   4 44849.5 905.840  24
   0  -5   4 46017.0 949.679  19
   0  -5   4 45513.4 1564.43   7
   0  -5   5 6406.91 381.766  44
   0  -5   5 5574.33 591.504   7
   0  -5   5 5739.78 345.378  11
   0  -5   5 5969.83 359.569  24
   0  -5   5 6217.64 383.325  37
   0  -5   5 6275.88 369.529  19
   0  -5   5 5550.58 319.441   6
   0  -5   6 8477.83 452.929  37
   0  -5   6 9167.85 431.391   6
   0  -5   6 9921.17 471.648  19
   0  -5   6 9582.09 829.365   7
   0  -5   7 295.478 76.3185   3
   0  -5   7 217.793 90.0697  19
   0  -5   8 2656.96 254.502  44
   0  -5   8 2778.38 235.625   6
   0  -5   8 2404.20 194.926   3
   0  -5   8 2673.32 250.050  37
   0  -5   8 2871.87 251.399  24
   0  -5   8 2287.73 208.882  19
   0  -5   8 2395.21 239.505  50
   0  -5   9 446.618 81.5193   3
   0  -5   9 453.033 94.1646   6
   0  -5   9 379.090 97.8144  50
   0  -5  10 2808.39 140.217   3
   0  -5  10 2819.21 174.085   6
   0  -4 -14 3983.43 164.105   1
   0  -4 -14 3709.92 174.015   4
   0  -4 -13 2614.82 169.747   1
   0  -4 -13 2519.91 187.709   4
   0  -4 -13 2130.87 192.263  40
   0  -4 -12 6643.90 394.647  40
   0  -4 -12 6461.61 360.418  13
   0  -4 -12 6729.00 313.611   1
   0  -4 -12 6300.57 387.880  26
   0  -4 -12 6836.26 347.642   4
   0  -4 -11 4516.64 348.576  40
   0  -4 -11 3921.42 303.745  13
   0  -4 -11 4056.83 256.728   1
   0  -4 -11 4022.43 335.475  26
   0  -4 -11 3823.57 276.721   4
   0  -4 -10 9192.39 468.763  13
   0  -4 -10 8359.82 365.541   1
   0  -4 -10 9959.56 517.647  26
   0  -4 -10 9757.52 519.899  40
   0  -4 -10 8096.23 394.933   4
   0  -4  -9 21784.2 749.228  46
   0  -4  -9 24265.9 741.573  13
   0  -4  -9 20954.9 566.460   1
   0  -4  -9 23307.4 781.656  26
   0  -4  -9 25253.0 794.728  40
   0  -4  -9 23154.4 1317.53   9
   0  -4  -9 20525.7 638.635   4
   0  -4  -8 21934.2 666.528  32
   0  -4  -8 23944.5 700.039  13
   0  -4  -8 19681.2 516.389   1
   0  -4  -8 22387.2 664.061  29
   0  -4  -8 23170.5 737.162  26
   0  -4  -8 23143.2 727.427  46
   0  -4  -8 21091.2 589.447   4
   0  -4  -8 22057.8 1195.93   9
   0  -4  -8 23426.0 731.745  40
   0  -4  -7 20401.0 936.579  16
   0  -4  -7 20741.4 1068.10   9
   0  -4  -6 4625.93 365.090   2
   0  -4  -6 4060.72 403.855  16
   0  -4  -6 4719.64 473.982   9
   0  -4  -5 32421.0 843.020   2
   0  -4  -5 31570.4 1048.29  16
   0  -4  -4 5176.88 293.833   2
   0  -4  -4 4993.87 408.098   9
   0  -4  -4 4398.14 369.990  16
   0  -4  -3 107339. 948.289   7
   0  -4  -3 108004. 1726.37   9
   0  -4  -3 108061. 1136.74   2
   0  -4  -2 161479. 1358.61   7
   0  -4  -2 162134. 1197.58   2
   0  -4  -2 158039. 1911.23   9
   0  -4  -1 51206.3 602.542   2
   0  -4  -1 48270.1 628.983   2
   0  -4  -1 49444.9 581.858  22
   0  -4  -1 50184.9 1183.60  16
   0  -4  -1 47415.4 853.936   7
   0  -4  -1 49890.4 1006.45   9
   0  -4   0 12457.5 508.735   7
   0  -4   0 12579.6 349.490   2
   0  -4   0 11941.2 585.565  16
   0  -4   0 11716.5 334.871  22
   0  -4   0 12276.4 473.612   9
   0  -4   1 44339.9 1060.02   7
   0  -4   1 43102.8 773.996   2
   0  -4   1 41374.4 756.335  22
   0  -4   1 43262.2 1135.27  16
   0  -4   2 196539. 1946.04  22
   0  -4   2 194416. 2482.74  16
   0  -4   3 91071.4 1769.14  16
   0  -4   3 87553.2 1520.19  22
   0  -4   4 59884.2 1638.68   7
   0  -4   4 57668.7 1395.90  22
   0  -4   5 6100.48 504.407  22
   0  -4   5 6522.95 355.058  19
   0  -4   6 4768.35 556.194   7
   0  -4   6 4414.33 290.455   6
   0  -4   6 4186.44 321.245  37
   0  -4   6 4649.64 325.629  36
   0  -4   7 9844.90 477.916  44
   0  -4   7 9079.48 468.011  36
   0  -4   7 10059.0 445.653   6
   0  -4   7 9884.48 382.815   3
   0  -4   7 9464.65 475.585  37
   0  -4   7 9614.61 463.242  24
   0  -4   7 9887.29 458.307  19
   0  -4   7 10379.4 857.039   7
   0  -4   8 12852.2 549.146  44
   0  -4   8 13483.4 567.575  37
   0  -4   8 13995.2 522.613   6
   0  -4   8 13007.1 445.128   3
   0  -4   8 12224.3 533.974  50
   0  -4   8 13352.8 544.325  24
   0  -4   8 12390.4 485.000  20
   0  -4   8 13248.8 552.197  36
   0  -4   9 5085.87 331.853  37
   0  -4   9 4567.85 307.211  36
   0  -4   9 4665.71 294.533   6
   0  -4   9 4578.52 319.730  50
   0  -4   9 4499.38 256.901   3
   0  -4   9 4250.63 269.496  20
   0  -4  10 4775.74 255.314   6
   0  -4  10 4706.07 227.230   3
   0  -4  10 3601.29 248.537  50
   0  -4  10 4050.42 254.374  36
   0  -4  11 12.5247 28.3438   6
   0  -4  11 49.0459 25.6205   3
   0  -4  11 93.1234 48.8949  50
   0  -3 -14 1853.30 108.950   1
   0  -3 -14 1642.78 116.080   4
   0  -3 -13 486.237 76.3984   1
   0  -3 -13 466.793 89.6993   4
   0  -3 -12 9264.52 358.864   1
   0  -3 -12 9117.78 405.347   4
   0  -3 -12 8939.02 445.911  40
   0  -3 -11 17415.1 532.156   1
   0  -3 -11 16941.8 661.836  26
   0  -3 -11 18080.8 617.064  13
   0  -3 -11 17206.7 670.022  40
   0  -3 -11 18935.7 617.327   4
   0  -3 -10 21775.6 772.266  46
   0  -3 -10 22565.2 713.220  13
   0  -3 -10 21275.2 586.743   1
   0  -3 -10 22383.4 746.054  32
   0  -3 -10 23387.1 783.221  26
   0  -3 -10 23599.3 681.886   4
   0  -3 -10 23381.9 785.694  40
   0  -3  -9 14195.7 603.929  46
   0  -3  -9 13299.4 447.086   1
   0  -3  -9 15060.8 573.218  13
   0  -3  -9 14627.4 601.873  26
   0  -3  -9 14558.2 597.371  40
   0  -3  -9 13928.6 988.203   9
   0  -3  -9 12844.2 498.070   4
   0  -3  -9 14054.0 564.287  32
   0  -3  -8 8961.00 449.895  46
   0  -3  -8 8727.31 413.616  13
   0  -3  -8 8434.19 410.794  32
   0  -3  -8 8112.45 396.695  29
   0  -3  -8 8465.28 434.504  26
   0  -3  -8 7129.14 305.753   1
   0  -3  -8 8348.88 708.791   9
   0  -3  -8 9131.53 448.482  40
   0  -3  -8 7647.34 352.523   4
   0  -3  -7 66549.8 1829.42   9
   0  -3  -7 61213.3 1510.11  16
   0  -3  -6 6528.08 441.317   2
   0  -3  -6 6104.25 505.092   9
   0  -3  -6 5966.61 375.471  18
   0  -3  -6 5996.95 445.943  16
   0  -3  -5 362398. 2850.68   2
   0  -3  -5 370104. 3219.12  16
   0  -3  -5 369305. 3560.74   9
   0  -3  -5 366772. 2563.95  18
   0  -3  -4 20456.8 535.230  30
   0  -3  -4 19680.6 522.655  18
   0  -3  -4 21394.3 712.631  16
   0  -3  -4 20823.5 592.277   2
   0  -3  -3 293149. 1874.05   2
   0  -3  -3 290516. 2531.81  16
   0  -3  -3 288615. 2110.97  30
   0  -3  -3 289192. 2518.08   9
   0  -3  -2 154409. 1020.79   7
   0  -3  -2 157428. 1737.76  16
   0  -3  -2 153304. 1678.10   9
   0  -3  -1 201523. 1128.15   2
   0  -3  -1 204288. 1742.48   9
   0  -3   0 254440. 1890.49   7
   0  -3   0 256746. 1337.39  22
   0  -3   0 258518. 2270.24  16
   0  -3   0 258856. 1346.17   2
   0  -3   1 132798. 1635.06   7
   0  -3   1 134894. 1230.98   2
   0  -3   1 138045. 1236.78  22
   0  -3   1 134574. 1687.83  16
   0  -3   2 31734.8 513.473  14
   0  -3   2 32348.0 880.405   7
   0  -3   2 32739.7 735.491   2
   0  -3   2 31580.0 716.810  22
   0  -3   3 129631. 1764.42   2
   0  -3   3 127414. 1715.18  22
   0  -3   3 131586. 1835.08  16
   0  -3   4 7212.70 467.773  22
   0  -3   4 7139.82 457.658  16
   0  -3   5 9834.35 621.878  22
   0  -3   5 10178.4 683.275   7
   0  -3   6 16984.4 576.129  44
   0  -3   6 17847.5 994.636   7
   0  -3   6 16596.1 575.259  37
   0  -3   6 16352.2 520.795   6
   0  -3   6 16984.9 561.586  24
   0  -3   6 16218.7 883.809  22
   0  -3   6 17569.0 534.490  20
   0  -3   6 16699.2 551.278  19
   0  -3   7 15148.0 582.158  44
   0  -3   7 16207.0 611.227  36
   0  -3   7 16211.8 1027.02   7
   0  -3   7 15429.0 538.468   6
   0  -3   7 15939.1 470.613   3
   0  -3   7 15648.6 574.173  24
   0  -3   7 15774.7 938.454  22
   0  -3   7 15682.8 600.372  37
   0  -3   7 15293.3 545.731  20
   0  -3   8 15882.2 600.100  44
   0  -3   8 16032.4 603.100  37
   0  -3   8 15662.4 546.402   6
   0  -3   8 15009.3 476.042   3
   0  -3   8 15327.4 557.208  20
   0  -3   8 16254.5 591.553  24
   0  -3   8 15516.8 625.286  36
   0  -3   8 16101.7 613.553  50
   0  -3   9 11976.1 426.279   3
   0  -3   9 11309.1 514.858  36
   0  -3   9 12552.0 480.616   6
   0  -3   9 11510.6 511.042  37
   0  -3   9 11376.2 472.683  20
   0  -3   9 11281.1 510.515  50
   0  -3  10 11112.8 480.770  36
   0  -3  10 11971.4 392.572   3
   0  -3  10 11468.2 435.565  20
   0  -3  10 10625.5 462.230  50
   0  -3  10 11444.3 426.183   6
   0  -3  11 3103.03 183.278   6
   0  -3  11 3325.40 178.907   3
   0  -3  11 2976.37 212.113  36
   0  -3  11 2951.28 189.280  20
   0  -3  11 2701.50 199.289  50
   0  -3  12 122.441 40.5650  50
   0  -2 -14 4075.23 152.398   1
   0  -2 -13 1879.62 140.955   1
   0  -2 -12 8134.07 339.035   1
   0  -2 -12 7893.50 371.937   4
   0  -2 -12 7038.96 380.329  40
   0  -2 -11 10924.5 417.012   1
   0  -2 -11 10188.4 497.066  29
   0  -2 -11 10051.3 500.693  40
   0  -2 -11 10556.9 469.854   4
   0  -2 -10 37778.8 985.108  40
   0  -2 -10 37453.4 967.708  26
   0  -2 -10 36978.0 777.820   1
   0  -2 -10 37472.9 887.733   4
   0  -2  -9 1792.76 166.039   1
   0  -2  -9 2000.71 230.137  26
   0  -2  -9 2277.81 243.909  40
   0  -2  -9 2263.67 386.440   9
   0  -2  -9 1818.04 195.411   4
   0  -2  -9 2064.57 236.903  46
   0  -2  -8 31475.2 644.304   1
   0  -2  -8 35513.3 889.072  46
   0  -2  -8 34072.1 847.139  26
   0  -2  -8 34992.3 1405.90   9
   0  -2  -8 32733.7 735.987   4
   0  -2  -7 4626.01 468.546   9
   0  -2  -6 21625.0 815.524   2
   0  -2  -6 21807.6 898.718   9
   0  -2  -6 20709.9 724.360  18
   0  -2  -6 19967.5 731.296  16
   0  -2  -5 1964.84 219.244  16
   0  -2  -5 1873.63 215.348   2
   0  -2  -5 2312.69 256.307   9
   0  -2  -5 1976.95 196.845  18
   0  -2  -4 66405.4 1067.53   2
   0  -2  -4 64838.6 779.340  30
   0  -2  -4 64843.4 1228.97   9
   0  -2  -4 65499.9 952.297  18
   0  -2  -4 66772.0 1112.96  16
   0  -2  -3 8834.94 334.258   2
   0  -2  -3 8586.68 395.802   9
   0  -2  -3 9183.40 305.044  18
   0  -2  -3 9473.27 381.566  16
   0  -2  -2 107825. 917.298   2
   0  -2  -2 110271. 1208.70  16
   0  -2  -1 42579.9 467.028   7
   0  -2  -1 42195.9 442.709   2
   0  -2  -1 42774.6 678.233   9
   0  -2   0 554566. 2203.87   7
   0  -2   0 557166. 1623.39   2
   0  -2   0 561129. 1603.71  22
   0  -2   0 559632. 2188.19   9
   0  -2   1 136010. 1354.85   7
   0  -2   1 131345. 1067.47   2
   0  -2   1 134985. 1066.64  22
   0  -2   1 134144. 1356.18  16
   0  -2   2 67266.5 703.155  14
   0  -2   2 68796.5 1125.55   7
   0  -2   2 67859.5 962.462   2
   0  -2   2 67150.4 1046.21  16
   0  -2   2 66891.2 948.429  22
   0  -2   3 66809.7 866.157  14
   0  -2   3 64848.8 1147.02   2
   0  -2   3 66245.8 1141.76  22
   0  -2   3 65199.0 1119.91  16
   0  -2   4 10935.2 584.083   7
   0  -2   4 10375.7 525.526  22
   0  -2   4 9552.01 387.890  14
   0  -2   4 10080.9 489.473  16
   0  -2   5 31312.0 1091.43   7
   0  -2   5 29601.7 1004.66  22
   0  -2   6 30352.2 1201.45   7
   0  -2   6 28197.8 1102.66  22
   0  -2   7 38735.8 801.845   6
   0  -2   7 36897.8 696.229   3
   0  -2   7 41877.0 908.881  50
   0  -2   7 37176.1 843.713  24
   0  -2   7 37294.6 1404.16  22
   0  -2   7 38696.3 885.713  37
   0  -2   7 39655.9 834.856  20
   0  -2   7 41983.3 1525.96   7
   0  -2   7 38909.9 875.961  44
   0  -2   7 40440.2 930.481  36
   0  -2   8 370.343 103.820  44
   0  -2   8 444.254 114.808  37
   0  -2   8 435.144 179.462   7
   0  -2   8 457.956 123.044  36
   0  -2   8 377.964 93.3650   6
   0  -2   8 413.105 111.515  24
   0  -2   8 471.727 191.101  22
   0  -2   8 556.641 124.430  50
   0  -2   8 454.207 109.057  20
   0  -2   8 313.118 72.6471   3
   0  -2   9 10639.9 491.569  37
   0  -2   9 10890.0 525.127  36
   0  -2   9 11097.7 452.073   6
   0  -2   9 10563.4 475.035  20
   0  -2   9 10894.6 500.998  50
   0  -2   9 10623.5 409.318   3
   0  -2  10 1649.46 203.197  36
   0  -2  10 1716.72 159.283   3
   0  -2  10 1680.45 192.013  20
   0  -2  10 1771.37 180.536   6
   0  -2  10 1510.94 187.705  50
   0  -2  11 605.435 112.674  50
   0  -2  11 533.142 89.0393   6
   0  -2  11 676.402 123.975  36
   0  -2  11 587.387 89.2855   3
   0  -2  11 569.655 102.535  20
   0  -2  12 1918.37 153.378  50
   0  -2  12 2036.39 160.487  36
   0  -2  12 2309.36 135.427   3
   0  -2  12 2230.71 153.431  20
   0  -2  12 1879.76 164.827  48
   0  -1 -13 2666.96 180.047   4
   0  -1 -13 2734.17 159.659   1
   0  -1 -12 6252.19 351.342  32
   0  -1 -12 5536.68 358.628  46
   0  -1 -12 6025.53 342.986  29
   0  -1 -12 7002.00 301.505   1
   0  -1 -12 6686.22 336.353   4
   0  -1 -11 11179.2 553.344  46
   0  -1 -11 12619.0 443.733   1
   0  -1 -11 11317.4 512.805  29
   0  -1 -11 12192.6 501.629   4
   0  -1 -11 11005.0 509.050  32
   0  -1 -10 8122.97 366.108   1
   0  -1 -10 8874.88 498.408  46
   0  -1 -10 9065.71 465.260  29
   0  -1 -10 8386.37 468.028  40
   0  -1 -10 8174.98 407.347   4
   0  -1 -10 8805.11 465.095  32
   0  -1  -9 589.417 139.240  46
   0  -1  -9 650.873 134.968  32
   0  -1  -9 578.505 124.329  29
   0  -1  -9 717.144 104.584   1
   0  -1  -8 44951.3 944.958  32
   0  -1  -8 45664.9 939.578  29
   0  -1  -8 45240.0 1541.91   9
   0  -1  -8 42517.0 1395.42  18
   0  -1  -8 41844.3 748.217   1
   0  -1  -7 7950.57 604.611  49
   0  -1  -7 8196.57 602.440   9
   0  -1  -7 8390.10 555.217  18
   0  -1  -6 71582.4 1575.17  34
   0  -1  -6 77015.8 1683.55  49
   0  -1  -6 77506.3 1623.28   9
   0  -1  -6 75984.7 1495.15  18
   0  -1  -5 91617.8 1531.22   2
   0  -1  -5 91300.5 1587.45  34
   0  -1  -5 90582.6 1418.39  31
   0  -1  -5 92822.9 1357.23  16
   0  -1  -5 96303.3 1651.88  49
   0  -1  -5 91801.6 1125.98   5
   0  -1  -5 93699.8 1584.93   9
   0  -1  -5 90171.5 1416.33  18
   0  -1  -4 42224.4 833.239  31
   0  -1  -4 41077.1 862.029   2
   0  -1  -4 41754.3 935.623  34
   0  -1  -4 40764.9 653.388   5
   0  -1  -4 42488.3 929.692   9
   0  -1  -4 41385.4 817.718  18
   0  -1  -4 41827.6 802.389  16
   0  -1  -3 63597.1 868.359  31
   0  -1  -3 64443.1 909.538   2
   0  -1  -3 65599.1 995.808  34
   0  -1  -3 66023.9 873.866  16
   0  -1  -3 64226.6 699.554   5
   0  -1  -3 66385.8 993.441   9
   0  -1  -3 64556.4 846.454  18
   0  -1  -3 66571.2 1002.04  49
   0  -1  -2 21869.8 429.797   2
   0  -1  -2 23777.1 498.991  34
   0  -1  -2 23758.9 495.871   9
   0  -1  -2 22567.0 347.463   5
   0  -1  -2 23642.1 395.598  18
   0  -1  -2 24320.1 455.003  16
   0  -1  -1 455682. 1459.95  30
   0  -1  -1 446269. 1304.61   2
   0  -1   0 11055.7 220.294   7
   0  -1   0 10772.8 213.320   9
   0  -1   1 186299. 1194.35  16
   0  -1   1 186508. 1071.95  22
   0  -1   2 406068. 1687.74  14
   0  -1   2 403416. 2132.13   2
   0  -1   2 409176. 2062.48  16
   0  -1   2 410005. 2134.54  22
   0  -1   3 10573.7 343.027  14
   0  -1   3 9789.27 453.267   7
   0  -1   3 10478.6 426.938   2
   0  -1   3 10076.2 415.178  22
   0  -1   3 10079.8 386.091  16
   0  -1   4 107332. 1616.28   7
   0  -1   4 102003. 1277.89  14
   0  -1   4 106263. 1571.73  22
   0  -1   4 105529. 1588.45   2
   0  -1   5 110409. 1853.25  22
   0  -1   5 111730. 1534.14  14
   0  -1   6 38847.3 1260.04   7
   0  -1   6 37285.6 1210.89  22
   0  -1   6 37094.7 1005.88  14
   0  -1   7 13244.2 486.349  44
   0  -1   7 13643.2 815.012   7
   0  -1   7 13991.3 526.678  36
   0  -1   7 12836.2 392.328   3
   0  -1   7 13440.5 807.536  22
   0  -1   7 13328.4 478.571  20
   0  -1   7 14765.7 514.244  50
   0  -1   8 36869.5 866.486  44
   0  -1   8 36463.8 1473.82  22
   0  -1   8 39548.9 1492.42   7
   0  -1   8 38220.8 944.389  36
   0  -1   8 37698.0 789.004   6
   0  -1   8 37285.2 720.127   3
   0  -1   8 36852.7 865.461  37
   0  -1   8 36120.4 838.939  24
   0  -1   8 36764.3 849.219  20
   0  -1   8 38172.4 896.256  50
   0  -1   9 34343.3 775.109   6
   0  -1   9 33869.8 922.863  36
   0  -1   9 32867.4 715.981   3
   0  -1   9 34871.7 857.878  20
   0  -1   9 33781.4 872.090  50
   0  -1  10 7871.57 453.728  36
   0  -1  10 8430.61 361.703   3
   0  -1  10 8784.79 386.914   6
   0  -1  10 8310.25 423.502  20
   0  -1  10 7854.84 427.128  50
   0  -1  11 5134.56 344.347  36
   0  -1  11 5410.09 270.621   3
   0  -1  11 4732.94 310.914  50
   0  -1  11 4973.16 306.367  20
   0  -1  12 1276.72 149.646  36
   0  -1  12 1577.99 128.506   3
   0  -1  12 1090.62 143.505  48
   0  -1  12 1479.42 144.857  20
   0  -1  12 1203.27 141.108  50
   0  -1  13 2632.33 154.858  48
   0  -1  13 2710.68 143.973  20
   0  -1  13 2744.99 152.084  50
   0   0 -13 4617.55 190.145   1
   0   0 -13 4293.03 204.243   4
   0   0 -12 19075.3 481.287   1
   0   0 -12 16317.1 539.528  29
   0   0 -12 15526.7 571.156  46
   0   0 -12 19693.3 544.098   4
   0   0 -12 16773.7 548.899  32
   0   0 -11 873.811 122.255   1
   0   0 -11 925.356 153.087  29
   0   0 -11 893.785 159.143  46
   0   0 -11 769.504 146.615  32
   0   0 -11 1012.54 147.950   4
   0   0 -10 7221.33 443.957  46
   0   0 -10 7267.01 420.584  32
   0   0 -10 7516.14 421.473  29
   0   0 -10 7735.34 396.035   4
   0   0 -10 6643.31 359.858  17
   0   0 -10 6998.73 335.005   1
   0   0  -9 575.301 130.991  46
   0   0  -9 654.469 121.100   4
   0   0  -9 557.120 128.491  32
   0   0  -9 537.205 120.474  29
   0   0  -9 446.761 171.556  18
   0   0  -9 477.395 107.729  17
   0   0  -9 623.610 106.105   1
   0   0  -8 15551.5 573.433  32
   0   0  -8 15520.6 561.317  29
   0   0  -8 16172.7 531.357   4
   0   0  -8 15285.3 886.535  18
   0   0  -8 15985.1 519.235  17
   0   0  -8 14658.0 450.289   1
   0   0  -8 15912.5 960.351  49
   0   0  -8 15562.7 604.391  46
   0   0  -7 48421.5 1501.64  49
   0   0  -7 45883.5 1376.63  18
   0   0  -6 86934.7 1776.71  49
   0   0  -6 83388.8 1711.05  34
   0   0  -6 87046.6 1692.41   9
   0   0  -6 84523.6 1673.08  18
   0   0  -6 83274.3 1631.51  31
   0   0  -5 101108. 1389.30  16
   0   0  -5 108362. 1704.40  34
   0   0  -5 104054. 1598.61  31
   0   0  -5 107433. 1319.64   5
   0   0  -5 106276. 1633.55   9
   0   0  -5 101773. 1626.91  18
   0   0  -5 107373. 1738.95  49
   0   0  -4 195756. 1980.45  34
   0   0  -4 198085. 1911.76  31
   0   0  -4 188833. 1968.45  49
   0   0  -4 189057. 1548.59   5
   0   0  -4 206623. 1959.55   9
   0   0  -4 199168. 1963.15  18
   0   0  -4 199785. 1713.98  16
   0   0  -3 37307.6 745.100  49
   0   0  -3 35491.0 697.806  31
   0   0  -3 37074.0 727.848  34
   0   0  -3 36519.3 696.050   9
   0   0  -3 37690.7 719.620  18
   0   0  -2 66171.4 774.705  34
   0   0  -2 65896.5 752.134  31
   0   0  -2 66438.6 620.371   5
   0   0  -2 62652.4 724.351   9
   0   0  -2 64036.9 760.538  18
   0   0  -2 64166.8 793.910  49
   0   0  -1 108496. 569.118   5
   0   0  -1 108617. 666.726   9
   0   0  -1 108305. 685.385  18
   0   0  -1 109407. 681.968  31
   0   0   1 110883. 631.040  14
   0   0   1 102068. 682.854   7
   0   0   2 65522.6 762.658   7
   0   0   2 65738.8 694.759  14
   0   0   3 35137.4 723.557   2
   0   0   3 34059.0 714.352  22
   0   0   3 36037.6 713.313   7
   0   0   4 199320. 1967.93   7
   0   0   4 196896. 2054.78   2
   0   0   5 96761.0 1437.73  14
   0   0   5 100426. 1664.62  22
   0   0   5 101394. 1634.09   7
   0   0   6 83643.6 1536.66  14
   0   0   6 85304.2 1687.56   7
   0   0   6 85714.5 1745.00  22
   0   0   7 50949.2 1440.26   7
   0   0   7 50589.1 1514.26  22
   0   0   7 49287.0 1311.90  14
   0   0   8 18247.8 953.073   7
   0   0   8 16722.9 552.221  37
   0   0   8 16892.1 616.776  36
   0   0   8 16393.5 954.306  22
   0   0   8 16380.9 556.428  20
   0   0   9 302.452 107.562  36
   0   0   9 541.598 202.765  22
   0   0   9 578.891 115.634  20
   0   0  10 7057.41 432.378  36
   0   0  10 6998.95 388.227  20
   0   0  11 823.533 156.255  36
   0   0  11 563.209 104.823  21
   0   0  11 517.680 114.537  20
   0   0  12 15125.3 530.752  48
   0   0  12 15834.8 545.828  36
   0   0  13 3400.50 202.321  48
   0   0  13 3786.97 199.890  20
   0   1 -13 3321.70 141.887   1
   0   1 -12 1044.55 145.770  46
   0   1 -12 1559.28 127.762   1
   0   1 -12 1133.73 142.556  32
   0   1 -12 1109.59 135.375  29
   0   1 -12 1627.57 144.673   4
   0   1 -11 4952.27 261.059   1
   0   1 -11 4988.39 327.065  32
   0   1 -11 4753.06 316.273  29
   0   1 -11 4855.55 342.787  46
   0   1 -11 4964.92 297.195   4
   0   1 -11 4755.00 279.703  17
   0   1 -10 7174.63 436.905  46
   0   1 -10 6508.43 392.204  29
   0   1 -10 6455.93 394.454  32
   0   1 -10 7054.62 378.455   4
   0   1 -10 6698.49 365.066  17
   0   1  -9 35495.9 977.633  46
   0   1  -9 35529.2 921.066  32
   0   1  -9 36531.5 918.146  29
   0   1  -9 33674.4 1461.47  18
   0   1  -9 37595.5 863.419   4
   0   1  -9 35202.1 836.201  17
   0   1  -8 34154.6 1435.74  49
   0   1  -8 37198.2 913.984  32
   0   1  -8 37438.7 890.825  29
   0   1  -8 34474.9 858.468  28
   0   1  -8 38849.4 838.955   4
   0   1  -8 34854.1 1414.68  18
   0   1  -8 35449.8 810.779  17
   0   1  -8 37323.6 957.384  46
   0   1  -7 14018.9 541.717  46
   0   1  -7 13498.5 513.067  41
   0   1  -7 12308.1 772.277  49
   0   1  -7 14383.2 523.912  32
   0   1  -7 13791.4 503.984  29
   0   1  -7 13699.6 464.252   4
   0   1  -7 12990.4 792.461  18
   0   1  -6 33237.5 1087.20  34
   0   1  -6 32934.3 1139.27  49
   0   1  -6 33637.4 1113.71  31
   0   1  -6 34584.3 1158.48  18
   0   1  -5 105298. 1710.17  34
   0   1  -5 102520. 1754.12  31
   0   1  -5 107825. 1494.69   5
   0   1  -5 106931. 1605.40   9
   0   1  -5 106942. 1811.40  18
   0   1  -5 106343. 1760.45   2
   0   1  -5 101452. 1768.60  49
   0   1  -4 99191.6 1438.05  34
   0   1  -4 97152.0 1513.70  49
   0   1  -4 99844.1 1500.22  31
   0   1  -4 95667.3 1307.54   9
   0   1  -4 99086.3 1545.70  18
   0   1  -3 10007.9 399.721   2
   0   1  -3 9686.64 385.620  34
   0   1  -3 9701.61 402.734  31
   0   1  -3 9677.28 415.100  49
   0   1  -3 10012.4 361.257   5
   0   1  -3 10059.1 359.141   9
   0   1  -3 9913.14 429.173  18
   0   1  -2 408925. 2234.93  31
   0   1  -2 407132. 1807.56   9
   0   1  -1 189676. 1058.73   2
   0   1  -1 187637. 1115.52   5
   0   1   0 10549.0 168.877  14
   0   1   0 10186.5 200.032  18
   0   1   1 468748. 1300.22   5
   0   1   1 469784. 1368.55  22
   0   1   2 20955.9 431.318  14
   0   1   2 20697.9 347.858   7
   0   1   2 20311.4 418.086   2
   0   1   3 67274.7 919.583  14
   0   1   3 71398.7 992.651   2
   0   1   3 70321.0 968.501  22
   0   1   3 65969.0 841.477   7
   0   1   4 48836.7 915.199  14
   0   1   4 46923.8 954.073   2
   0   1   4 46820.2 847.776   7
   0   1   4 47686.7 962.173  22
   0   1   5 90075.6 1425.37  14
   0   1   5 91617.3 1529.94  22
   0   1   5 90600.7 1387.21   7
   0   1   6 76229.4 1473.88   7
   0   1   6 75938.7 1604.80  22
   0   1   6 73206.2 1462.94  14
   0   1   7 10957.5 620.107   7
   0   1   7 9871.79 652.609  22
   0   1   7 10064.6 599.946  14
   0   1   8 40600.1 1322.91  14
   0   1   8 40500.7 709.002   3
   0   1   8 39712.1 1453.46  22
   0   1   8 39730.7 844.615  20
   0   1   8 40831.3 927.414  36
   0   1   8 42556.5 886.050  50
   0   1   9 1098.17 182.753  36
   0   1   9 1124.91 132.398   3
   0   1   9 1178.82 279.652  22
   0   1   9 1138.22 152.182  20
   0   1   9 1130.80 158.120  50
   0   1  10 9351.06 456.305  50
   0   1  10 9278.15 493.200  36
   0   1  10 9504.45 451.535  33
   0   1  10 9053.59 369.575   3
   0   1  10 8358.31 423.163  20
   0   1  11 8955.38 477.419  36
   0   1  11 9257.18 405.202  21
   0   1  11 8994.39 439.857  50
   0   1  12 7007.90 376.309  48
   0   1  12 7123.35 317.389  21
   0   1  12 6292.39 364.046  36
   0   1  12 7071.81 359.263  50
   0   1  13 2724.81 197.957  48
   0   1  13 2493.49 180.241  50
   0   2 -12 1859.01 151.679  32
   0   2 -12 2104.75 133.839   1
   0   2 -12 1920.90 152.999  29
   0   2 -12 2074.12 139.604   4
   0   2 -11 476.280 113.922  46
   0   2 -11 633.944 122.384  32
   0   2 -11 573.434 109.957  29
   0   2 -11 659.880 102.222   4
   0   2 -11 610.760 101.907  17
   0   2 -10 1140.62 171.238  32
   0   2 -10 1078.79 168.125  29
   0   2 -10 1058.56 150.960   4
   0   2 -10 872.155 142.356  17
   0   2 -10 901.597 167.833  46
   0   2  -9 11406.2 550.911  46
   0   2  -9 11249.7 513.359  29
   0   2  -9 11597.1 522.493  32
   0   2  -9 11692.5 488.425   4
   0   2  -9 11450.6 484.356  17
   0   2  -8 556.774 126.485  41
   0   2  -8 547.790 128.864  32
   0   2  -8 589.693 141.223  46
   0   2  -8 491.420 116.087  29
   0   2  -8 511.444 123.010  28
   0   2  -8 550.502 113.089   4
   0   2  -8 406.643 166.576  18
   0   2  -8 365.414 187.930  49
   0   2  -8 572.358 113.766  17
   0   2  -7 36821.3 878.413  41
   0   2  -7 33209.7 1320.82  49
   0   2  -7 38463.9 892.948  32
   0   2  -7 37673.3 870.974  29
   0   2  -7 35634.7 851.976  28
   0   2  -7 38734.7 922.319  46
   0   2  -7 39449.0 806.914   4
   0   2  -7 36051.5 1394.35  18
   0   2  -7 36024.6 806.044  17
   0   2  -6 24539.3 1035.70  49
   0   2  -6 26346.6 1063.72  31
   0   2  -6 27586.3 1121.22  18
   0   2  -5 26738.6 886.988  34
   0   2  -5 25525.8 946.157  49
   0   2  -5 26341.4 968.298  31
   0   2  -5 29235.7 1045.54  18
   0   2  -4 7438.75 459.517  49
   0   2  -4 7874.71 426.145  34
   0   2  -4 9737.74 494.627   2
   0   2  -4 8590.57 500.028  31
   0   2  -4 9074.61 463.582   5
   0   2  -4 9208.26 406.118   9
   0   2  -4 8747.81 510.451  18
   0   2  -3 66210.0 1073.68  34
   0   2  -3 66083.2 1215.94  31
   0   2  -3 64108.3 1084.34   5
   0   2  -3 66935.3 926.180   9
   0   2  -3 63355.9 1076.56   2
   0   2  -2 61857.4 1038.25  31
   0   2  -2 61823.9 943.124   5
   0   2  -2 64086.8 910.027   2
   0   2  -2 61894.2 755.048   9
   0   2  -1 127680. 1207.93   5
   0   2  -1 130234. 1331.35  31
   0   2  -1 131384. 1276.48  18
   0   2   0 569923. 1746.35  14
   0   2   0 576997. 2154.58  18
   0   2   1 42708.6 630.609  31
   0   2   1 41666.4 447.898   2
   0   2   1 42357.8 573.608   5
   0   2   2 110270. 1068.60  14
   0   2   2 112232. 1051.84  31
   0   2   2 110357. 933.350  22
   0   2   2 107744. 942.775   2
   0   2   2 107444. 715.097   7
   0   2   2 106569. 889.315   5
   0   2   3 11369.0 296.819   7
   0   2   3 11427.2 386.155   2
   0   2   3 11913.1 314.210   5
   0   2   4 63446.1 1069.25  22
   0   2   4 63277.7 1089.47  14
   0   2   4 60835.1 852.224   7
   0   2   4 63970.7 1087.89   2
   0   2   4 63702.6 784.784   5
   0   2   5 2347.85 242.998  22
   0   2   5 2053.74 228.505   2
   0   2   5 2281.24 198.126   7
   0   2   5 2289.90 232.951  14
   0   2   6 16470.5 711.952  14
   0   2   6 16364.2 731.229  22
   0   2   6 17087.2 622.957   7
   0   2   7 3904.31 383.343  14
   0   2   7 3477.34 381.937  22
   0   2   8 36537.6 1281.14  14
   0   2   8 37409.7 870.719  36
   0   2   8 33752.4 641.242   3
   0   2   8 36102.9 1347.14  22
   0   2   8 36485.4 782.178  20
   0   2   8 33931.4 657.526   8
   0   2   8 37828.3 822.026  50
   0   2   9 2403.25 248.753  36
   0   2   9 2212.50 224.573  33
   0   2   9 1926.32 161.938   3
   0   2   9 2130.79 354.248  22
   0   2   9 2121.83 333.807  14
   0   2   9 2007.57 203.249  20
   0   2   9 1665.09 165.871   8
   0   2   9 2356.29 225.187  50
   0   2  10 36125.3 894.233  33
   0   2  10 35571.6 734.241   3
   0   2  10 34755.4 806.033  21
   0   2  10 36917.3 866.854  20
   0   2  10 36642.9 958.031  36
   0   2  10 36107.8 717.799   8
   0   2  10 33619.1 870.832  50
   0   2  11 9803.66 485.237  48
   0   2  11 10286.7 508.287  36
   0   2  11 10002.5 459.271  33
   0   2  11 10916.5 401.637   3
   0   2  11 9598.97 419.098  21
   0   2  11 10215.5 458.503  20
   0   2  11 9643.10 457.761  50
   0   2  12 8460.84 397.407  50
   0   2  12 8594.34 434.010  36
   0   2  12 8125.44 380.718  33
   0   2  12 9588.64 349.923   3
   0   2  12 8408.55 364.168  21
   0   2  12 9120.97 407.751  20
   0   2  12 8135.23 419.069  48
   0   2  13 1481.39 156.382  48
   0   2  13 1796.44 131.136   3
   0   2  13 1318.73 123.763  21
   0   2  13 1495.71 147.839  20
   0   2  13 1353.18 139.160  50
   0   2  14 2871.06 154.504  48
   0   3 -11 2093.46 186.662  46
   0   3 -11 2531.13 196.774  29
   0   3 -11 2696.22 186.008  17
   0   3 -11 2899.66 178.138   4
   0   3 -11 2311.00 187.446  32
   0   3 -10 10372.3 477.636  46
   0   3 -10 10643.9 458.246  29
   0   3 -10 10958.6 423.028   4
   0   3 -10 11266.7 446.134  17
   0   3 -10 10618.1 461.746  32
   0   3  -9 10242.2 510.466  46
   0   3  -9 9971.78 477.545  29
   0   3  -9 10949.2 499.056  32
   0   3  -9 11785.4 461.158   4
   0   3  -9 11768.2 488.420  17
   0   3  -8 16113.9 635.188  46
   0   3  -8 15889.3 621.136  32
   0   3  -8 14963.5 601.143  29
   0   3  -8 16343.1 546.202   4
   0   3  -8 15237.8 597.352  28
   0   3  -8 15412.4 574.292  17
   0   3  -8 15302.0 615.400  41
   0   3  -7 16414.0 614.879  46
   0   3  -7 17058.9 589.579  50
   0   3  -7 16923.4 612.618  32
   0   3  -7 16402.5 593.736  29
   0   3  -7 14396.5 917.104  49
   0   3  -7 16171.9 554.374  23
   0   3  -7 15997.2 599.519  28
   0   3  -7 17254.4 547.794   4
   0   3  -7 16097.9 989.359  18
   0   3  -7 15921.9 565.436  17
   0   3  -6 22392.5 671.580  46
   0   3  -6 18641.9 957.772  49
   0   3  -6 20400.3 629.568  28
   0   3  -6 20517.0 592.989  23
   0   3  -6 23015.8 582.326   4
   0   3  -6 20305.1 1037.17  18
   0   3  -6 20354.6 603.642  17
   0   3  -6 23189.2 637.744  50
   0   3  -6 19880.4 443.193   3
   0   3  -6 19104.4 980.436  31
   0   3  -5 8738.74 602.346  49
   0   3  -5 9022.50 622.455  31
   0   3  -5 9882.50 592.973   5
   0   3  -4 7507.78 474.393   2
   0   3  -4 6579.93 488.639  31
   0   3  -4 7879.09 483.035   5
   0   3  -3 133931. 1722.54   2
   0   3  -3 136064. 1820.53   5
   0   3  -3 139543. 2005.08  18
   0   3  -2 25889.9 641.957   2
   0   3  -2 26322.5 792.704  31
   0   3  -2 27544.0 749.331   5
   0   3  -2 27342.5 550.029   9
   0   3  -2 27423.2 789.620  18
   0   3  -1 136130. 1518.80   5
   0   3  -1 139581. 1555.22  18
   0   3  -1 139755. 1665.78  31
   0   3   0 256403. 1461.04  14
   0   3   0 253248. 1817.68  18
   0   3   1 208833. 1449.96  14
   0   3   1 204905. 1756.64  31
   0   3   1 202457. 1596.71   5
   0   3   1 209033. 1414.05  18
   0   3   2 155485. 1479.45  31
   0   3   2 154110. 1405.57  14
   0   3   2 149591. 1136.81   2
   0   3   2 148804. 1326.52   5
   0   3   3 298065. 2209.80  14
   0   3   3 290131. 1412.19   7
   0   3   3 288673. 1927.04   2
   0   3   3 286316. 1828.72   5
   0   3   3 291541. 1904.29  22
   0   3   3 299436. 2113.28  31
   0   3   4 19809.1 432.369   7
   0   3   4 21001.6 620.671   2
   0   3   4 19914.0 485.962   5
   0   3   4 19718.7 598.368  22
   0   3   4 19620.1 588.555  31
   0   3   5 376133. 3057.49   2
   0   3   5 370342. 2159.42   5
   0   3   5 370735. 2966.87  22
   0   3   6 3339.11 331.470  14
   0   3   6 3454.77 332.198  22
   0   3   7 64397.3 1579.77  14
   0   3   7 64195.9 1596.50  22
   0   3   8 8285.01 622.742  14
   0   3   8 9293.71 421.198  33
   0   3   8 8226.93 311.439   3
   0   3   8 8437.45 638.125  22
   0   3   8 8634.56 366.904  21
   0   3   8 8738.93 375.591  20
   0   3   8 8220.23 326.135   8
   0   3   8 8920.89 420.417  36
   0   3   8 9738.73 407.919  50
   0   3   9 15958.2 929.256  14
   0   3   9 15305.8 933.562  22
   0   3   9 15965.5 586.867  33
   0   3   9 15159.8 455.176   3
   0   3   9 15289.7 519.612  21
   0   3   9 15768.6 536.792  20
   0   3   9 15613.3 556.368  50
   0   3   9 16006.1 602.060  36
   0   3   9 14991.2 469.487   8
   0   3  10 21571.9 726.586  36
   0   3  10 20783.8 672.503  50
   0   3  10 21723.3 708.227  33
   0   3  10 21055.3 558.867   3
   0   3  10 20636.1 628.006  21
   0   3  10 21921.8 659.871  20
   0   3  10 20916.8 558.304   8
   0   3  11 15619.8 614.336  48
   0   3  11 17994.8 664.220  36
   0   3  11 17448.5 611.194  50
   0   3  11 17232.0 623.259  33
   0   3  11 18050.0 578.545  21
   0   3  11 18620.4 610.878  20
   0   3  11 18377.1 521.150   3
   0   3  11 17777.0 511.241   8
   0   3  12 8881.83 436.420  48
   0   3  12 9141.04 442.259  36
   0   3  12 8844.47 417.516  33
   0   3  12 9354.36 350.405   3
   0   3  12 8682.75 377.737  21
   0   3  12 9157.24 406.419  20
   0   3  12 9240.71 419.230  50
   0   3  12 8517.54 322.265   8
   0   3  13 694.667 113.868  48
   0   3  13 669.327 82.5911   3
   0   3  13 617.975 92.9638  21
   0   3  13 540.598 102.605  50
   0   3  13 657.856 102.175  20
   0   3  13 685.457 102.721  33
   0   3  14 1473.57 121.402  48
   0   3  14 1577.12 113.834  20
   0   3  14 1611.89 116.823  50
   0   4 -11 52.8983 38.3874  32
   0   4 -11 34.5005 40.9998  29
   0   4 -11 42.9481 37.7863  17
   0   4 -10 3567.00 241.781  32
   0   4 -10 3480.60 243.265  29
   0   4 -10 3073.03 231.145  46
   0   4  -9 4375.50 313.363  46
   0   4  -9 4505.12 304.597  32
   0   4  -9 4747.17 317.965  29
   0   4  -9 4684.12 310.290  17
   0   4  -8 11657.4 529.937  46
   0   4  -8 12691.4 539.322  32
   0   4  -8 11823.8 526.900  29
   0   4  -8 12343.1 543.114  28
   0   4  -8 12754.7 531.546  17
   0   4  -7 7132.03 418.279  46
   0   4  -7 7140.89 397.986  50
   0   4  -7 7580.19 425.878  28
   0   4  -7 7370.39 417.918  32
   0   4  -7 6955.51 382.463  23
   0   4  -7 7118.43 699.064  18
   0   4  -7 8023.81 415.309  17
   0   4  -6 6769.57 383.964  46
   0   4  -6 5198.96 560.557  31
   0   4  -6 5814.35 260.910   3
   0   4  -6 6075.62 341.936  23
   0   4  -6 4898.28 522.258  49
   0   4  -6 6871.25 366.574  50
   0   4  -5 6972.10 348.377  50
   0   4  -5 6147.39 325.538  23
   0   4  -5 5950.59 286.940   1
   0   4  -5 7473.89 567.693   5
   0   4  -5 5588.15 546.385  31
   0   4  -5 6547.60 250.175   3
   0   4  -5 6222.72 582.930  18
   0   4  -5 6355.54 333.061  17
   0   4  -5 6310.83 346.776  28
   0   4  -5 5875.91 339.996  41
   0   4  -5 5127.16 495.993  49
   0   4  -4 59931.4 1499.19   5
   0   4  -4 62278.4 1648.89  18
   0   4  -3 79759.9 1735.75  31
   0   4  -3 81966.1 1618.96   5
   0   4  -3 85446.3 1728.65  18
   0   4  -2 188123. 2259.76   5
   0   4  -2 185086. 2333.32  18
   0   4  -1 44536.9 1024.82   5
   0   4  -1 44944.1 1034.32  18
   0   4  -1 42060.6 1072.35  31
   0   4   0 11793.9 371.714  14
   0   4   0 11725.1 465.029  18
   0   4   1 40274.3 939.372  31
   0   4   1 39587.5 853.204   5
   0   4   1 41207.9 743.117  14
   0   4   1 41305.0 769.299  18
   0   4   2 162653. 1796.25  31
   0   4   2 163082. 1682.20   5
   0   4   2 159984. 1412.30  18
   0   4   2 166532. 1628.81  14
   0   4   3 114972. 1496.52  14
   0   4   3 113485. 1508.54  31
   0   4   4 3627.46 296.228  14
   0   4   4 3236.77 264.307  31
   0   4   4 4265.32 285.098   2
   0   4   4 3825.42 254.142   5
   0   4   4 3149.65 238.300  22
   0   4   5 32878.2 963.891  14
   0   4   5 33160.7 739.460   5
   0   4   5 32042.5 860.771  22
   0   4   5 31391.9 854.799  31
   0   4   6 5186.10 400.741  22
   0   4   6 4640.74 352.565  31
   0   4   7 22254.9 957.191  14
   0   4   7 22512.6 930.030  22
   0   4   8 24741.4 661.229  50
   0   4   8 23024.1 672.313  48
   0   4   8 25819.5 706.875  33
   0   4   8 22198.1 516.726   3
   0   4   8 24469.4 1069.42  22
   0   4   8 23867.8 618.959  21
   0   4   8 25061.3 628.971  20
   0   4   8 25477.6 704.323  36
   0   4   8 23371.4 559.479   8
   0   4   8 23592.8 1092.67  14
   0   4   9 26727.0 1212.35  22
   0   4   9 26573.3 1237.07  14
   0   4   9 27220.1 777.511  36
   0   4   9 28633.6 798.151  33
   0   4   9 27529.7 699.029  21
   0   4   9 27909.9 703.236  20
   0   4   9 25539.3 617.969   8
   0   4   9 25082.7 585.278   3
   0   4   9 27913.7 738.469  50
   0   4  10 11320.2 517.263  33
   0   4  10 9953.66 380.608   3
   0   4  10 10251.4 443.750  21
   0   4  10 10216.7 445.605  20
   0   4  10 10720.5 502.940  36
   0   4  10 10108.5 397.219   8
   0   4  10 11467.9 495.773  50
   0   4  11 4084.25 316.275  33
   0   4  11 4339.08 320.694  36
   0   4  11 4042.24 239.499   3
   0   4  11 3881.96 278.792  21
   0   4  11 4151.46 287.621  20
   0   4  11 4047.25 248.368   8
   0   4  11 4263.88 305.184  50
   0   4  12 6383.98 363.366  33
   0   4  12 6602.47 289.169   3
   0   4  12 6154.08 320.651  21
   0   4  12 6397.85 349.504  50
   0   4  12 6456.05 336.031  20
   0   4  12 6247.54 286.589   8
   0   4  13 1730.67 162.204  33
   0   4  13 2148.36 143.662   3
   0   4  13 1866.64 159.215  21
   0   4  13 1892.63 160.895  20
   0   4  13 1917.00 135.894   8
   0   4  13 1860.25 165.352  50
   0   4  14 3577.54 191.638  48
   0   4  14 4747.75 163.056   3
   0   4  14 4377.13 178.955  21
   0   4  14 3749.68 178.253  50
   0   5 -10 2086.38 159.697  29
   0   5 -10 2799.49 182.834  17
   0   5  -9 574.255 107.773  32
   0   5  -9 457.746 98.3816  29
   0   5  -9 559.743 110.798  17
   0   5  -8 1584.37 188.165  32
   0   5  -8 1716.71 195.376  29
   0   5  -8 1884.12 201.422  17
   0   5  -7 710.169 129.352  23
   0   5  -7 804.607 147.803  32
   0   5  -7 671.947 134.856  29
   0   5  -6 9310.63 345.676   3
   0   5  -6 10349.8 490.685  28
   0   5  -6 9964.12 489.384  41
   0   5  -6 9792.65 454.414  23
   0   5  -6 9633.81 453.480  50
   0   5  -6 9624.60 407.315   1
   0   5  -6 10165.9 826.445  18
   0   5  -6 10380.3 480.653  17
   0   5  -5 8173.39 396.426  50
   0   5  -5 7302.41 403.148  41
   0   5  -5 6760.77 651.392  31
   0   5  -5 7046.91 390.449  28
   0   5  -5 6719.32 360.456  23
   0   5  -5 5961.57 304.208  10
   0   5  -5 5433.83 293.322   1
   0   5  -5 6263.63 579.668   5
   0   5  -5 6846.30 650.135  18
   0   5  -5 5819.06 362.553  17
   0   5  -5 6181.05 588.594  49
   0   5  -4 49494.2 953.497  28
   0   5  -4 48535.0 903.219  23
   0   5  -4 46754.3 819.748   1
   0   5  -4 52512.3 957.011  50
   0   5  -4 52144.5 1548.35   5
   0   5  -4 49643.2 940.823  35
   0   5  -4 48174.2 1602.10  18
   0   5  -4 51401.7 930.336  17
   0   5  -4 50316.0 983.264  41
   0   5  -4 47876.0 833.966  10
   0   5  -4 46154.5 1579.95  31
   0   5  -3 5623.70 527.805  31
   0   5  -3 7127.41 533.567   5
   0   5  -3 5970.87 524.821  18
   0   5  -2 94794.6 1815.57   5
   0   5  -2 95629.6 1861.31  18
   0   5  -1 18498.3 816.632  31
   0   5  -1 20663.8 799.693  18
   0   5  -1 20163.5 800.016   5
   0   5   0 87668.8 1573.59   5
   0   5   0 95065.7 1545.89  18
   0   5   1 21724.7 611.742  14
   0   5   1 21713.0 749.896   5
   0   5   1 22099.2 679.606  18
   0   5   1 22297.1 806.832  31
   0   5   2 21815.3 654.888  14
   0   5   2 20690.6 760.022  31
   0   5   2 21342.6 709.833   5
   0   5   2 20745.4 592.794  18
   0   5   3 99501.9 1526.48  14
   0   5   3 97537.9 1603.07  31
   0   5   3 97302.0 1491.84   5
   0   5   3 97521.6 1192.15  18
   0   5   4 50941.5 1175.98  14
   0   5   4 49324.8 1155.36  31
   0   5   4 50298.8 1053.12   5
   0   5   5 71494.0 1532.18  14
   0   5   5 69204.4 1406.08  31
   0   5   5 72097.6 1251.30   5
   0   5   5 68426.0 1241.82  22
   0   5   6 36555.7 1175.21  14
   0   5   6 34093.8 1019.57  31
   0   5   6 34832.3 1009.81  22
   0   5   7 2502.61 307.541  22
   0   5   7 2688.51 349.678  14
   0   5   8 11480.7 484.442  48
   0   5   8 10470.1 355.860   3
   0   5   8 11198.9 452.344  50
   0   5   9 12352.1 527.125  48
   0   5   9 11898.1 837.768  14
   0   5   9 12021.1 525.898  33
   0   5   9 11825.0 399.276   3
   0   5   9 11660.4 426.283   8
   0   5   9 11972.1 490.958  50
   0   5  10 133928. 1788.65  33
   0   5  10 133453. 1580.75  20
   0   5  10 128117. 1348.20   3
   0   5  10 131696. 1610.23  21
   0   5  10 131989. 1456.47   8
   0   5  10 130552. 1670.35  50
   0   5  11 3373.43 291.643  33
   0   5  11 3372.60 216.431   3
   0   5  11 3355.81 260.695  21
   0   5  11 3394.36 249.254  20
   0   5  11 3385.80 232.600   8
   0   5  11 3421.44 265.011  50
   0   5  12 1077.14 155.053  33
   0   5  12 1068.63 116.528   3
   0   5  12 1056.65 141.904  21
   0   5  12 923.954 126.421  20
   0   5  12 1005.03 122.605   8
   0   5  12 1121.69 149.319  50
   0   5  13 6548.54 317.234  33
   0   5  13 7444.75 260.386   3
   0   5  13 7254.25 306.253  21
   0   5  13 6825.36 304.707  50
   0   5  13 7095.04 266.287   8
   0   5  13 6653.53 280.595  20
   0   5  14 2437.83 144.871  33
   0   5  14 2558.21 143.059  50
   0   6  -9 3280.19 202.742  29
   0   6  -8 16958.8 546.372  29
   0   6  -8 18648.2 497.020   1
   0   6  -7 19165.8 673.667  41
   0   6  -7 18175.4 601.051  32
   0   6  -7 18874.9 635.536  29
   0   6  -7 19569.2 675.328  28
   0   6  -7 17997.4 597.620  23
   0   6  -7 20789.0 569.957   1
   0   6  -7 20628.4 649.534  17
   0   6  -6 4559.21 343.179  41
   0   6  -6 4489.53 319.085  32
   0   6  -6 4591.56 337.838  28
   0   6  -6 4483.16 314.718  23
   0   6  -6 4805.52 286.958   1
   0   6  -6 4292.20 325.854  17
   0   6  -6 4302.77 304.756  50
   0   6  -5 1288.84 315.870  31
   0   6  -5 1317.14 191.261  41
   0   6  -5 1298.96 184.245  50
   0   6  -5 1475.39 186.926  23
   0   6  -5 1683.31 208.025  28
   0   6  -5 1387.51 159.094  10
   0   6  -5 1462.31 167.707   1
   0   6  -5 1428.94 318.109  18
   0   6  -5 1521.46 195.232  17
   0   6  -5 1557.88 135.579   3
   0   6  -4 14105.0 549.036  28
   0   6  -4 13742.7 519.649  23
   0   6  -4 14269.8 565.977  41
   0   6  -4 14137.8 479.000  10
   0   6  -4 13469.6 473.188   1
   0   6  -4 15371.7 924.011   5
   0   6  -4 14744.0 942.572  18
   0   6  -4 14024.3 540.162  35
   0   6  -4 13783.6 534.493  17
   0   6  -4 14479.3 539.136  50
   0   6  -4 12495.7 917.809  31
   0   6  -3 21965.6 645.487  35
   0   6  -3 20481.3 1098.61  31
   0   6  -3 21889.3 643.788  28
   0   6  -3 22902.8 665.295  50
   0   6  -3 20619.1 552.992   1
   0   6  -3 20998.0 610.308  23
   0   6  -3 22909.0 1078.64   5
   0   6  -3 20909.2 566.483  10
   0   6  -3 23135.3 1097.55  18
   0   6  -3 22263.3 630.500  17
   0   6  -3 23342.3 677.780  41
   0   6  -2 31146.8 1193.51   5
   0   6  -2 32403.6 1197.25  18
   0   6  -1 28019.6 1145.02  31
   0   6  -1 29365.7 1091.87   5
   0   6  -1 29943.4 1071.85  18
   0   6   0 26450.1 990.554   5
   0   6   0 28303.7 959.597  18
   0   6   1 102561. 1979.88  31
   0   6   1 107656. 1894.31   5
   0   6   1 104995. 1683.60  18
   0   6   2 59957.7 1467.23  31
   0   6   2 63702.3 1405.50   5
   0   6   2 61459.9 1200.52  14
   0   6   3 11627.8 640.008  31
   0   6   3 10839.7 546.885  14
   0   6   3 9844.50 549.646   5
   0   6   4 169248. 2303.40  14
   0   6   4 168207. 2421.84  31
   0   6   4 168057. 2201.88   5
   0   6   5 91785.2 1792.96  31
   0   6   5 94674.0 1868.13  14
   0   6   5 95857.2 1642.41   5
   0   6   6 32382.5 1173.79  14
   0   6   6 30437.5 1056.71  31
   0   6   7 42504.8 917.437  48
   0   6   7 40837.4 756.857  12
   0   6   7 43137.3 910.842  33
   0   6   7 41681.2 809.796  21
   0   6   7 42300.2 858.172  50
   0   6   7 39799.5 724.264   8
   0   6   7 41474.2 1437.81  14
   0   6   8 6324.85 368.882  48
   0   6   8 6262.33 372.069  33
   0   6   8 6300.75 304.995  12
   0   6   8 6179.55 276.703   3
   0   6   8 6202.38 328.262  21
   0   6   8 6030.76 585.385  14
   0   6   8 6199.25 346.725  50
   0   6   8 6354.38 302.600   8
   0   6   9 51669.4 1084.21  48
   0   6   9 50370.9 1084.59  33
   0   6   9 50524.8 820.918   3
   0   6   9 50862.8 974.456  21
   0   6   9 49963.9 1008.55  50
   0   6   9 48285.1 1732.18  14
   0   6  10 40907.4 993.891  48
   0   6  10 39463.4 742.413   3
   0   6  10 39266.0 909.386  50
   0   6  10 37862.1 781.301   8
   0   6  11 8648.11 450.934  48
   0   6  11 8812.14 460.550  33
   0   6  11 10184.0 363.291   3
   0   6  11 10043.2 387.026   8
   0   6  11 8989.50 423.164  50
   0   6  12 1989.23 172.416  27
   0   6  12 1672.36 187.509  48
   0   6  12 2040.79 208.384  33
   0   6  12 2251.17 160.241   3
   0   6  12 1786.96 175.962  21
   0   6  12 1533.93 168.051  50
   0   6  12 2203.08 174.353   8
   0   6  13 8768.18 265.452   3
   0   6  13 8559.49 326.301  21
   0   6  13 8037.08 347.017  33
   0   6  13 7537.28 308.560  50
   0   6  13 9078.48 299.580   8
   0   6  13 7617.84 338.971  48
   0   6  14 4174.10 193.399  47
   0   6  14 3840.06 145.901   8
   0   7  -9 4330.25 182.288  17
   0   7  -9 4487.99 161.791   1
   0   7  -8 3705.82 222.494  17
   0   7  -8 3876.74 199.960   1
   0   7  -7 2587.79 235.136  41
   0   7  -7 1880.74 183.059  29
   0   7  -7 2097.31 215.800  28
   0   7  -7 2563.69 190.909   1
   0   7  -7 2269.99 209.548  17
   0   7  -6 13591.6 550.956  28
   0   7  -6 12613.1 488.614  50
   0   7  -6 12856.1 509.278  23
   0   7  -6 13723.4 469.193   1
   0   7  -6 13611.5 521.293  17
   0   7  -6 12341.8 539.549  41
   0   7  -5 16579.0 592.037  23
   0   7  -5 15746.2 571.227  50
   0   7  -5 16548.9 620.620  28
   0   7  -5 16776.1 535.419  10
   0   7  -5 17884.5 546.419   1
   0   7  -5 17103.7 601.743  17
   0   7  -5 16127.6 625.811  41
   0   7  -4 3727.10 305.576  41
   0   7  -4 3796.16 272.775   1
   0   7  -4 3850.55 297.973  28
   0   7  -4 3597.81 285.072  23
   0   7  -4 3769.24 260.740  10
   0   7  -4 3525.23 284.897  35
   0   7  -4 3981.28 293.266  17
   0   7  -4 3521.55 283.463  50
   0   7  -3 1557.93 194.728  35
   0   7  -3 1645.09 202.858  41
   0   7  -3 1673.06 199.662  28
   0   7  -3 1445.53 188.497  50
   0   7  -3 1701.26 178.566   1
   0   7  -3 1771.06 202.152  23
   0   7  -3 1705.30 175.326  10
   0   7  -3 1933.32 345.677   5
   0   7  -3 1776.09 345.520  18
   0   7  -3 1701.17 191.074  17
   0   7  -3 1209.44 310.516  31
   0   7  -2 17235.9 576.991  28
   0   7  -2 16202.8 558.590  23
   0   7  -2 15993.0 519.357  10
   0   7  -2 16398.2 589.457  50
   0   7  -2 17247.6 969.969   5
   0   7  -2 15195.4 995.244  31
   0   7  -2 16753.0 587.250  35
   0   7  -2 17405.7 962.140  18
   0   7  -2 17259.2 552.241  17
   0   7  -1 37980.8 1497.88  31
   0   7  -1 38696.6 827.400  23
   0   7  -1 40313.3 796.400  10
   0   7  -1 42425.1 1455.62   5
   0   7  -1 42820.2 1413.36  18
   0   7  -1 39213.1 861.450  35
   0   7  -1 41201.9 875.640  50
   0   7   0 20050.4 595.238  35
   0   7   0 23344.2 1044.29   5
   0   7   0 21885.5 939.334  18
   0   7   0 22298.0 577.062  10
   0   7   1 5387.09 483.880   5
   0   7   1 4877.89 508.728  31
   0   7   2 28356.7 1069.37   5
   0   7   2 27911.2 1157.10  31
   0   7   3 154375. 2643.93  31
   0   7   3 157745. 2461.75   5
   0   7   4 38495.9 1182.50  14
   0   7   4 36205.2 1272.11  31
   0   7   4 39384.8 1212.04   5
   0   7   5 11491.0 456.057  47
   0   7   5 12015.6 467.708  42
   0   7   5 11344.1 682.599  14
   0   7   5 10693.1 685.789  31
   0   7   5 10493.5 387.479  12
   0   7   5 10274.9 603.913   5
   0   7   6 8335.91 417.665  48
   0   7   6 9482.13 428.155  42
   0   7   6 9396.14 660.218  14
   0   7   6 8828.77 415.117  33
   0   7   6 9304.34 402.429  27
   0   7   6 9351.05 380.439  21
   0   7   6 9222.63 400.946  50
   0   7   6 8869.02 366.250  12
   0   7   6 9122.46 336.374   8
   0   7   7 10661.9 492.555  48
   0   7   7 12080.5 500.880  42
   0   7   7 12271.9 804.787  14
   0   7   7 11528.4 490.636  33
   0   7   7 11284.8 436.651  21
   0   7   7 11798.5 433.323  12
   0   7   7 12175.6 409.759   8
   0   7   7 11420.8 459.661  50
   0   7   7 11147.0 460.282  27
   0   7   8 9365.97 468.080  48
   0   7   8 10132.7 467.637  42
   0   7   8 9176.60 735.250  14
   0   7   8 9649.91 464.539  33
   0   7   8 9484.22 391.445  12
   0   7   8 9550.24 432.058  27
   0   7   8 9764.17 416.698  21
   0   7   8 8958.44 369.163   8
   0   7   8 9600.35 436.042  50
   0   7   9 7858.19 432.626  48
   0   7   9 7936.20 419.876  42
   0   7   9 8626.12 458.727  33
   0   7   9 8392.97 365.455  12
   0   7   9 8290.99 408.517  27
   0   7   9 8607.86 400.952  21
   0   7   9 8846.42 367.541   8
   0   7   9 7771.89 396.852  50
   0   7  10 52523.7 1035.77  42
   0   7  10 50493.8 1097.61  33
   0   7  10 49890.4 995.051  27
   0   7  10 50835.2 986.257  21
   0   7  10 51330.0 905.686   8
   0   7  10 48434.8 1075.46  48
   0   7  10 49071.9 996.091  50
   0   7  11 6090.71 375.302  48
   0   7  11 6473.71 340.805  27
   0   7  11 6316.53 337.902  21
   0   7  11 5997.46 337.051  50
   0   7  12 2285.26 216.273  48
   0   7  12 2426.93 212.210  47
   0   7  12 2410.99 188.113  27
   0   7  12 2547.17 180.672   8
   0   7  12 2197.27 188.283  50
   0   7  13 150.520 58.6217  48
   0   7  13 152.589 63.5316  47
   0   7  13 123.533 51.2737  33
   0   7  13 79.0585 44.2277  21
   0   7  13 160.786 50.0702  50
   0   7  13 65.0363 32.3007   8
   0   8  -7 365.320 87.4558  41
   0   8  -7 595.147 77.1059   1
   0   8  -7 506.673 86.7906  17
   0   8  -6 10017.0 442.324  41
   0   8  -6 8091.03 358.264  29
   0   8  -6 10522.1 439.187  28
   0   8  -6 10009.3 404.437  23
   0   8  -6 12216.0 400.716   1
   0   8  -6 11681.1 441.196  17
   0   8  -5 1983.34 217.788  28
   0   8  -5 1944.18 202.643  23
   0   8  -5 2177.76 190.778  10
   0   8  -5 2309.98 192.089   1
   0   8  -5 2114.24 205.141  17
   0   8  -5 1366.29 166.929  50
   0   8  -5 1797.55 222.397  41
   0   8  -4 1688.83 215.132  41
   0   8  -4 1932.92 220.360  28
   0   8  -4 1462.00 179.874  50
   0   8  -4 1658.72 203.812  23
   0   8  -4 2133.82 196.877  10
   0   8  -4 2008.46 193.054   1
   0   8  -4 1702.21 196.955  17
   0   8  -3 8241.35 447.423  41
   0   8  -3 8253.52 445.117  35
   0   8  -3 8232.22 431.853  28
   0   8  -3 7797.59 416.063  23
   0   8  -3 8317.72 390.726  10
   0   8  -3 7635.55 369.317   1
   0   8  -3 8499.11 407.909  17
   0   8  -3 7733.37 410.838  50
   0   8  -2 24280.4 745.419  41
   0   8  -2 20341.9 1232.46  31
   0   8  -2 23426.3 698.080  28
   0   8  -2 22646.4 696.014  23
   0   8  -2 23558.9 652.991  10
   0   8  -2 22895.0 726.320  35
   0   8  -2 24118.5 1239.89   5
   0   8  -2 25215.9 679.173  17
   0   8  -2 21914.4 690.673  50
   0   8  -1 12103.8 921.007  31
   0   8  -1 13845.2 546.818  35
   0   8  -1 13502.6 520.847  23
   0   8  -1 13578.3 519.080  28
   0   8  -1 12800.4 516.468  50
   0   8  -1 13138.4 499.882  10
   0   8  -1 14251.5 934.567   5
   0   8   0 2317.50 394.054  31
   0   8   0 2475.63 208.439  10
   0   8   0 2679.16 390.041   5
   0   8   0 2209.41 225.082  50
   0   8   0 2189.41 221.265  35
   0   8   1 18439.2 576.369  43
   0   8   1 19527.1 621.203  35
   0   8   1 18797.5 535.735  12
   0   8   1 17823.1 585.865  27
   0   8   1 18900.6 622.497  42
   0   8   1 18324.7 574.040  10
   0   8   1 20637.3 1053.05   5
   0   8   1 18591.5 604.113  50
   0   8   1 18852.6 589.191  23
   0   8   1 17155.7 1028.85  31
   0   8   2 20840.3 660.910  47
   0   8   2 20130.7 1079.69  31
   0   8   2 20442.1 651.950  42
   0   8   2 21405.6 608.892  43
   0   8   2 21792.8 642.359  35
   0   8   2 20099.5 548.301  12
   0   8   2 20828.3 607.624  23
   0   8   2 21562.3 584.870  10
   0   8   2 22566.8 1060.52   5
   0   8   2 19344.0 604.626  27
   0   8   3 27003.0 1229.96  31
   0   8   3 26645.9 703.095  35
   0   8   3 25390.3 623.095  12
   0   8   3 26285.2 693.572  27
   0   8   3 26585.6 634.634  10
   0   8   3 26896.4 1126.74   5
   0   8   3 26676.8 677.953  43
   0   8   3 27299.1 753.293  47
   0   8   3 27514.3 744.797  42
   0   8   4 4312.24 301.367  47
   0   8   4 4533.74 311.239  42
   0   8   4 3965.50 249.122  12
   0   8   4 3974.10 278.779  27
   0   8   4 3915.60 245.712  10
   0   8   4 3899.44 465.917  31
   0   8   4 3915.29 428.549   5
   0   8   4 4151.90 255.831  21
   0   8   5 3602.91 244.973  21
   0   8   5 3819.18 449.719  31
   0   8   5 3784.82 284.090  47
   0   8   6 9338.79 443.717  47
   0   8   6 9743.43 458.663  42
   0   8   6 9428.50 692.380  14
   0   8   6 9195.22 429.287  33
   0   8   6 9325.34 395.777  12
   0   8   6 9003.49 422.555  27
   0   8   6 9318.67 398.489  21
   0   8   6 9699.28 434.413  50
   0   8   6 9273.27 348.844   8
   0   8   7 31800.2 847.891  42
   0   8   7 32686.5 1352.56  14
   0   8   7 30261.5 810.493  33
   0   8   7 31859.1 738.388  12
   0   8   7 31224.3 799.576  27
   0   8   7 31190.5 741.327  21
   0   8   7 30893.7 778.432  50
   0   8   7 31747.2 672.661   8
   0   8   8 3561.18 299.712  48
   0   8   8 4125.92 310.490  42
   0   8   8 4038.72 287.975  27
   0   8   8 3478.31 252.717  12
   0   8   8 3859.74 280.454  50
   0   8   8 3859.31 266.832  21
   0   8   8 3682.99 291.367  33
   0   8   8 3893.59 240.241   8
   0   8   9 15372.8 612.068  48
   0   8   9 15429.0 590.624  42
   0   8   9 15427.9 594.874  33
   0   8   9 15071.0 505.971  12
   0   8   9 15554.5 566.101  27
   0   8   9 15781.0 542.802  21
   0   8   9 16096.1 498.556   8
   0   8   9 14560.1 544.217  50
   0   8  10 7251.08 415.921  48
   0   8  10 7077.21 396.051  47
   0   8  10 7717.08 400.548  42
   0   8  10 7726.16 420.815  33
   0   8  10 7971.13 344.490  12
   0   8  10 7743.76 390.154  27
   0   8  10 8101.24 386.028  21
   0   8  10 8982.82 367.877   8
   0   8  10 7298.09 369.307  50
   0   8  11 4019.54 280.627  47
   0   8  11 4017.13 286.565  33
   0   8  11 4184.46 268.532  27
   0   8  11 4268.76 268.378  21
   0   8  11 3802.22 259.685  42
   0   8  11 3610.24 246.013  50
   0   8  11 3660.73 287.974  48
   0   8  11 4382.42 244.225   8
   0   8  12 4643.36 275.762  47
   0   8  12 4609.08 276.226  33
   0   8  12 4494.25 244.262  27
   0   8  12 4795.27 254.137  21
   0   8  12 4189.12 234.998  50
   0   8  12 5384.22 247.378   8
   0   8  12 4194.72 278.339  48
   0   8  13 754.670 100.389  47
   0   8  13 924.109 97.5022  21
   0   9  -6 8155.08 328.051  41
   0   9  -6 8347.11 317.762  28
   0   9  -6 8750.94 300.056  17
   0   9  -5 1545.36 173.825  41
   0   9  -5 1759.11 170.621  23
   0   9  -5 1948.85 184.332  28
   0   9  -5 1961.95 154.653  10
   0   9  -5 2309.58 171.924   1
   0   9  -5 1913.94 164.186  17
   0   9  -4 1606.58 188.783  28
   0   9  -4 1473.99 178.827  23
   0   9  -4 1903.56 177.073  10
   0   9  -4 1791.63 175.433   1
   0   9  -4 1522.06 195.213  41
   0   9  -4 1789.75 178.483  17
   0   9  -3 6286.06 377.647  41
   0   9  -3 6215.95 381.846  35
   0   9  -3 6604.56 369.178  28
   0   9  -3 7577.94 354.936   1
   0   9  -3 5699.17 329.886  50
   0   9  -3 6389.31 369.724  23
   0   9  -3 7463.46 359.444  10
   0   9  -3 6803.40 351.717  17
   0   9  -2 8139.45 438.694  35
   0   9  -2 8111.31 407.927  28
   0   9  -2 8294.93 385.108   1
   0   9  -2 7642.73 417.680  23
   0   9  -2 8699.83 397.163  10
   0   9  -2 6848.10 376.644  50
   0   9  -2 8173.21 435.117  41
   0   9  -1 4452.90 333.108  35
   0   9  -1 5124.67 321.917  28
   0   9  -1 4776.47 325.427  23
   0   9  -1 5430.61 317.912  10
   0   9  -1 4160.47 295.559  50
   0   9   0 1123.74 172.378  35
   0   9   0 1194.98 173.201  50
   0   9   0 1411.95 174.163  10
   0   9   1 7718.89 394.847  43
   0   9   1 7345.86 408.267  35
   0   9   1 6816.04 332.559  12
   0   9   1 6980.06 713.953  31
   0   9   1 7746.84 394.771  23
   0   9   1 7329.37 367.972  10
   0   9   1 7261.33 665.445   5
   0   9   2 25825.7 714.900  43
   0   9   2 25745.7 752.274  35
   0   9   2 27156.0 670.604  12
   0   9   2 24351.4 1286.00  31
   0   9   2 26385.9 723.438  23
   0   9   2 25722.0 693.195  10
   0   9   2 27490.4 1279.22   5
   0   9   2 24363.0 718.753  27
   0   9   2 24957.5 761.327  42
   0   9   3 11364.4 449.270  10
   0   9   3 10996.9 462.890  43
   0   9   3 10562.3 492.858  42
   0   9   3 10960.6 481.995  35
   0   9   3 11371.5 439.317  12
   0   9   3 10891.1 474.665  27
   0   9   3 10934.5 464.944  23
   0   9   3 12177.4 836.205   5
   0   9   3 9676.06 796.736  31
   0   9   3 10379.9 499.269  47
   0   9   4 2399.98 224.501  43
   0   9   4 2448.91 226.632  35
   0   9   4 2415.90 212.439  12
   0   9   4 2135.52 374.122  31
   0   9   4 2181.03 220.706  27
   0   9   4 2736.23 385.399   5
   0   9   4 2296.83 236.939  42
   0   9   4 2021.70 230.794  47
   0   9   4 2766.20 214.491  10
   0   9   5 5852.72 368.377  42
   0   9   5 5371.43 329.380  35
   0   9   5 5175.74 305.964  12
   0   9   5 5578.14 597.078  31
   0   9   5 5600.38 314.641  21
   0   9   5 5704.26 368.802  47
   0   9   5 5331.94 338.859  27
   0   9   6 45736.4 1027.49  47
   0   9   6 45815.4 901.821  12
   0   9   6 45565.7 899.718  21
   0   9   7 19716.2 595.096  12
   0   9   7 19086.9 635.664  27
   0   9   7 19138.8 591.944  21
   0   9   7 19638.9 520.931   8
   0   9   7 19082.6 671.686  42
   0   9   7 17895.7 640.816  47
   0   9   8 3796.36 296.534  42
   0   9   8 3388.05 253.256  12
   0   9   8 3477.40 253.420  21
   0   9   8 3583.52 272.958  50
   0   9   8 3792.54 287.576  27
   0   9   8 3455.06 223.501   8
   0   9   9 4949.13 288.509  12
   0   9   9 5056.73 337.721  42
   0   9   9 4355.15 314.306  33
   0   9   9 5221.20 325.984  27
   0   9   9 5075.94 302.235  21
   0   9   9 4957.19 266.570   8
   0   9   9 5009.12 306.522  50
   0   9  10 5463.06 328.600  42
   0   9  10 5827.26 290.269  12
   0   9  10 5846.47 312.908  21
   0   9  10 5738.93 326.074  27
   0   9  10 5875.08 281.175   8
   0   9  10 5386.20 299.689  50
   0   9  11 5870.26 306.540  42
   0   9  11 5684.62 300.194  27
   0   9  11 6124.94 296.646  21
   0   9  11 6452.83 274.148   8
   0   9  12 3396.88 222.166  47
   0   9  12 3420.95 196.030  21
   0   9  12 3172.97 190.077  27
   0   9  12 3428.97 177.376   8
   0   9  13 2358.36 147.959  47
   0   9  13 2525.28 137.560  21
   0   9  13 2586.86 124.940   8
   0  10  -5 438.704 79.9048  41
   0  10  -5 520.140 75.0283  23
   0  10  -5 552.483 67.4525   1
   0  10  -4 1223.12 141.596  41
   0  10  -4 1234.94 128.314  28
   0  10  -4 1378.35 142.330  23
   0  10  -4 1300.92 121.295  10
   0  10  -4 1327.57 121.598   1
   0  10  -3 716.907 128.683  41
   0  10  -3 678.334 111.994  28
   0  10  -3 744.505 123.704  23
   0  10  -3 768.398 112.821  10
   0  10  -3 773.940 105.406   1
   0  10  -2 263.442 98.4940  41
   0  10  -2 299.033 91.3307  35
   0  10  -2 277.367 92.3495  28
   0  10  -2 293.265 95.0899  23
   0  10  -2 328.356 83.8947  10
   0  10  -2 225.975 76.2044   1
   0  10  -1 4630.64 284.796  10
   0  10  -1 4108.09 320.445  35
   0  10  -1 4637.71 281.988   1
   0  10  -1 4226.19 302.802  23
   0  10  -1 4241.82 312.900  41
   0  10   0 10.8638 77.3097  35
   0  10   0 14.7786 75.0642  43
   0  10   0 4.41574 53.5121  10
   0  10   1 3167.72 267.844  43
   0  10   1 3612.42 289.584  35
   0  10   1 3519.85 278.714  23
   0  10   1 3735.51 265.373  10
   0  10   2 7444.06 397.674  43
   0  10   2 7492.76 414.604  35
   0  10   2 7556.43 357.337  12
   0  10   2 7241.73 394.085  23
   0  10   2 8075.61 386.015  10
   0  10   3 1009.14 166.896  42
   0  10   3 987.015 159.976  35
   0  10   3 883.752 133.085  12
   0  10   3 916.661 152.038  27
   0  10   3 914.898 147.523  23
   0  10   3 926.310 141.264  10
   0  10   3 930.815 150.868  43
   0  10   4 18580.7 677.073  47
   0  10   4 17853.0 630.973  27
   0  10   4 18107.8 619.968  35
   0  10   4 18174.3 569.602  12
   0  10   4 18726.7 614.679  43
   0  10   4 18787.1 611.713  23
   0  10   4 18994.0 570.469  10
   0  10   4 17932.9 661.678  42
   0  10   5 21841.8 731.998  47
   0  10   5 22112.7 668.993  43
   0  10   5 21224.3 661.450  35
   0  10   5 22164.0 637.286  12
   0  10   5 21635.7 688.768  27
   0  10   5 20762.2 643.550  23
   0  10   5 22655.5 733.853  42
   0  10   6 41135.3 998.571  47
   0  10   6 42025.2 912.197  43
   0  10   6 41951.2 890.398  35
   0  10   6 41198.2 940.188  27
   0  10   6 41950.0 886.102  23
   0  10   6 42714.8 862.132  21
   0  10   7 986.610 164.909  47
   0  10   7 914.979 144.666  43
   0  10   7 1075.94 146.398  12
   0  10   7 1254.46 151.452  21
   0  10   7 1174.97 175.335  42
   0  10   8 7179.33 397.748  47
   0  10   8 8092.92 370.741  12
   0  10   8 7747.05 418.779  42
   0  10   8 7604.88 357.018  21
   0  10   8 7841.36 402.231  27
   0  10   9 4670.50 310.962  42
   0  10   9 4734.05 269.600  12
   0  10   9 4630.40 297.232  27
   0  10   9 4672.63 271.408  21
   0  10   9 4517.03 228.985   8
   0  10  10 3944.33 226.133  12
   0  10  10 3633.62 244.555  27
   0  10  10 3787.46 256.959  42
   0  10  10 3654.48 227.474  21
   0  10  10 3918.36 205.375   8
   0  10  11 906.546 93.4770  12
   0  10  11 1025.23 119.127  27
   0  10  11 947.360 104.939  21
   0  10  11 973.156 119.642  42
   0  10  11 925.889 95.0355   8
   0  10  12 458.693 67.1835  27
   0  10  12 586.387 72.3048  21
   0  10  12 468.036 57.1860   8
   0  11  -3 5506.53 247.413  23
   0  11  -3 6190.92 232.714  10
   0  11  -3 5710.72 213.955   1
   0  11  -2 7711.96 336.082  41
   0  11  -2 8371.25 343.229  23
   0  11  -2 9373.76 335.997  10
   0  11  -2 8680.95 300.819   1
   0  11  -1 5873.01 317.803  41
   0  11  -1 6037.26 336.684  35
   0  11  -1 6781.75 335.993  23
   0  11  -1 7025.40 301.857   1
   0  11   0 381.337 104.273  35
   0  11   0 514.381 99.1090  10
   0  11   0 231.372 73.3179   1
   0  11   0 371.625 102.469  41
   0  11   1 2185.39 206.812  43
   0  11   1 2477.43 234.231  35
   0  11   1 2181.47 214.540  23
   0  11   1 2724.17 217.223  10
   0  11   2 3227.25 255.585  43
   0  11   2 3719.36 288.598  35
   0  11   2 3756.97 272.162  23
   0  11   2 4495.66 270.346  10
   0  11   2 4066.46 244.656  12
   0  11   3 3567.32 281.323  35
   0  11   3 3600.24 235.894  12
   0  11   3 3699.58 269.859  23
   0  11   3 3658.05 248.482  10
   0  11   3 3447.81 272.100  43
   0  11   4 1913.66 217.910  42
   0  11   4 2008.68 205.294  35
   0  11   4 1776.61 175.529  12
   0  11   4 2199.82 206.540  23
   0  11   4 2060.57 181.805  10
   0  11   4 2058.18 208.115  43
   0  11   5 13922.6 557.428  47
   0  11   5 13306.0 505.012  43
   0  11   5 13053.1 497.101  35
   0  11   5 13486.4 476.058  12
   0  11   5 12567.9 512.449  27
   0  11   5 12924.4 490.652  23
   0  11   5 13131.7 544.755  42
   0  11   6 270.802 103.802  47
   0  11   6 141.877 89.3645  43
   0  11   6 201.177 80.4611  42
   0  11   6 255.506 86.0302  35
   0  11   6 250.039 79.2347  12
   0  11   6 306.891 91.4543  23
   0  11   6 145.691 76.0033  27
   0  11   7 5416.19 349.742  47
   0  11   7 5790.04 321.729  43
   0  11   7 5569.50 299.663  23
   0  11   8 1078.15 156.730  47
   0  11   8 1044.37 134.740  43
   0  11   8 1167.48 158.312  42
   0  11   8 1041.65 127.169  12
   0  11   8 936.040 122.958  23
   0  11   8 925.101 116.150  21
   0  11   9 7096.00 317.239  43
   0  11   9 7143.73 349.298  42
   0  11   9 7507.51 308.733  12
   0  11   9 7282.25 335.843  27
   0  11   9 7162.43 292.725  21
   0  11   9 6369.37 341.523  47
   0  11  10 510.937 87.2684  43
   0  11  10 556.013 95.0841  42
   0  11  10 606.641 83.6969  12
   0  11  10 507.627 87.4991  27
   0  11  10 495.494 73.2769  21
   0  11  11 74.1479 37.4088  42
   0  11  11 54.4055 40.7446  43
   0  11  11 75.4619 29.9858  12
   0  11  11 122.106 43.1398  27
   0  11  11 110.559 37.5855  21
   0  12  -1 4020.11 202.952  41
   0  12  -1 4562.31 221.642  23
   0  12  -1 4863.17 206.874  10
   0  12  -1 4051.97 174.615   1
   0  12   0 12092.5 382.071  41
   0  12   0 12364.3 335.089   1
   0  12   1 14159.7 436.087  41
   0  12   1 14634.7 473.033  35
   0  12   1 15284.0 412.170   1
   0  12   1 15414.1 461.406  23
   0  12   2 4111.77 251.758  43
   0  12   2 4187.19 262.822  35
   0  12   2 4177.23 256.623  23
   0  12   2 4676.70 242.766  10
   0  12   2 3810.49 241.761  41
   0  12   3 566.038 109.096  35
   0  12   3 454.196 77.4495  12
   0  12   3 534.853 99.5189  23
   0  12   3 582.391 93.6715  10
   0  12   3 538.099 105.274  43
   0  12   4 11993.9 433.254  43
   0  12   4 12408.7 394.410  12
   0  12   4 12306.4 433.938  23
   0  12   4 12373.0 384.988  10
   0  12   4 12542.5 442.444  35
   0  12   5 5067.60 284.227  43
   0  12   5 5458.70 283.735  35
   0  12   5 5923.73 280.622  12
   0  12   5 5414.27 283.803  23
   0  12   6 3099.74 202.930  12
   0  12   6 2717.94 192.961  23
   0  12   6 2639.38 204.032  43
   0  12   7 982.573 124.099  43
   0  12   7 1000.32 115.278  12
   0  12   7 856.991 122.710  27
   0  12   7 880.517 126.834  42
   0  12   7 985.057 114.393  23
   0  12   8 2886.09 216.727  47
   0  12   8 3008.08 193.816  43
   0  12   8 3247.73 188.400  12
   0  12   9 5675.83 241.204  43
   0  12   9 5478.33 252.955  27
   0  12   9 5086.48 259.207  47
   0  12   9 5649.33 263.873  42
   0  12  10 2618.86 160.802  47
   0  12  10 2970.74 154.096  43
   0  12  10 3104.40 164.603  27
   0  13   1 703.442 78.3611  23
   0  13   2 1765.27 128.102  23
   0  13   2 1521.02 104.044   1
   0  13   2 1857.85 116.953  10
   0  13   3 3730.72 194.865  35
   0  13   3 3379.66 161.318   1
   0  13   3 3789.87 193.149  23
   0  13   3 4045.45 171.049  10
   0  13   4 2820.39 171.569  43
   0  13   4 3034.10 173.864  35
   0  13   4 3170.59 176.553  23
   0  13   4 2938.12 142.037  12
   0  13   5 171.859 58.8503  43
   0  13   5 141.791 45.9554  35
   0  13   5 234.616 48.7062  12
   0  13   5 221.950 56.9127  23
   0  13   6 3835.23 193.559  43
   0  13   6 4396.78 186.705  12
   0  13   6 4226.21 186.394  23
   0  13   7 5476.59 218.931  43
   0  13   7 6281.22 215.899  12
   0  13   8 7822.86 235.685  43
   1 -13  -5 1324.95 113.168  15
   1 -13  -5 1800.34 101.023   1
   1 -12  -9 1009.14 81.6924   1
   1 -12  -8 743.875 106.166  15
   1 -12  -8 832.515 82.5469   1
   1 -12  -7 1879.91 171.886  15
   1 -12  -7 2040.17 134.629   1
   1 -12  -6 5923.62 316.372  15
   1 -12  -6 6217.52 239.371   1
   1 -12  -5 4657.54 280.400  15
   1 -12  -5 5170.50 224.510   1
   1 -12  -4 1125.72 148.950  15
   1 -12  -4 1054.00 106.312   1
   1 -12  -3 4269.69 261.730  15
   1 -12  -3 4982.96 217.314   1
   1 -12  -2 4384.66 246.195  15
   1 -12  -2 3968.76 213.682  19
   1 -12  -1 1727.34 145.096  11
   1 -12  -1 1506.39 134.076  19
   1 -12   0 875.016 97.3301  11
   1 -12   0 795.021 92.2022  19
   1 -11 -11 2347.28 112.392   1
   1 -11 -10 3462.99 204.143  13
   1 -11 -10 5889.13 211.987   1
   1 -11  -9 351.463 89.3679  15
   1 -11  -9 202.615 67.2280  13
   1 -11  -9 437.615 70.8156   1
   1 -11  -8 206.420 86.3833  15
   1 -11  -8 140.579 61.2229  13
   1 -11  -8 304.678 63.6208   1
   1 -11  -7 2836.55 249.163  15
   1 -11  -7 3020.93 194.069   1
   1 -11  -6 2975.97 269.030  15
   1 -11  -6 3307.27 209.335   1
   1 -11  -5 3171.86 209.233   1
   1 -11  -4 8479.81 446.616  15
   1 -11  -4 9197.21 350.719   1
   1 -11  -3 21595.0 630.623  45
   1 -11  -3 22234.1 615.043  19
   1 -11  -2 6380.48 364.935  15
   1 -11  -2 5898.09 333.558  45
   1 -11  -2 5764.67 332.140  11
   1 -11  -2 5853.74 327.754  19
   1 -11  -2 6320.95 283.232   1
   1 -11  -1 24.4540 64.6848  15
   1 -11  -1 50.4876 68.8327  45
   1 -11  -1 126.637 76.9147  11
   1 -11  -1 2.14089 65.8037  19
   1 -11  -1-28.6030 43.5945   1
   1 -11   0 8465.77 389.417  11
   1 -11   0 8007.05 367.355  19
   1 -11   1 12310.0 437.503  11
   1 -11   1 11847.1 422.979  19
   1 -11   2 8913.25 332.256  19
   1 -11   3 388.438 68.1255  11
   1 -11   3 434.131 66.8438  19
   1 -10 -12 4210.14 195.951  13
   1 -10 -12 6572.34 189.102   1
   1 -10 -11 4141.68 240.820  13
   1 -10 -11 5733.18 216.272   1
   1 -10 -10 2274.80 215.255  13
   1 -10 -10 3367.70 188.209   1
   1 -10  -9 9094.49 402.459  15
   1 -10  -9 9068.98 423.768  13
   1 -10  -9 9866.14 345.013   1
   1 -10  -8 36387.1 888.272  15
   1 -10  -8 35599.3 867.386  13
   1 -10  -8 35042.5 867.896  25
   1 -10  -7 13282.6 571.092  15
   1 -10  -7 12689.2 527.259  13
   1 -10  -7 13631.8 446.774   1
   1 -10  -7 13097.9 562.906  25
   1 -10  -6 7114.63 433.915  15
   1 -10  -6 6224.45 377.614  13
   1 -10  -6 6988.26 324.733   1
   1 -10  -5 11896.2 567.275  15
   1 -10  -5 12740.8 440.186   1
   1 -10  -4 14676.4 473.035   1
   1 -10  -3 2326.59 259.950  15
   1 -10  -3 2527.98 238.876  45
   1 -10  -3 2439.75 199.896   1
   1 -10  -3 2281.08 223.820  19
   1 -10  -2 70104.1 1346.04  15
   1 -10  -2 67448.7 1228.02  45
   1 -10  -2 72136.2 1051.15   1
   1 -10  -2 69699.4 1269.82  11
   1 -10  -2 66722.1 1265.24  38
   1 -10  -2 67965.6 1227.14  19
   1 -10  -1 20928.8 708.532  15
   1 -10  -1 20980.9 685.641  45
   1 -10  -1 20523.3 716.177  38
   1 -10  -1 20933.0 707.105  11
   1 -10  -1 20469.7 684.025  19
   1 -10  -1 20857.1 549.382   1
   1 -10   0 3741.13 289.191  15
   1 -10   0 3426.84 282.880  45
   1 -10   0 3819.47 304.111  11
   1 -10   0 4134.79 242.956   1
   1 -10   0 3228.16 282.784  19
   1 -10   1 6003.07 367.505  11
   1 -10   1 5233.83 344.120  19
   1 -10   2 6824.14 365.933  19
   1 -10   3 2538.95 213.767  11
   1 -10   3 2523.49 203.692  19
   1 -10   4 7352.94 296.528  11
   1  -9 -12 4008.31 177.621   1
   1  -9 -12 3445.05 218.039  13
   1  -9 -11 598.581 85.4942   1
   1  -9 -10 619.973 94.0166   1
   1  -9 -10 431.472 121.835  13
   1  -9  -9 7528.10 430.383  13
   1  -9  -9 8285.48 347.346   1
   1  -9  -8 1409.94 191.640  15
   1  -9  -8 1319.01 144.459   1
   1  -9  -8 1127.51 191.628  39
   1  -9  -8 1208.51 195.732  13
   1  -9  -8 1205.92 175.429  25
   1  -9  -7 9892.03 506.391  15
   1  -9  -7 10279.1 502.315  13
   1  -9  -7 9813.68 506.688  25
   1  -9  -7 10446.9 402.737   1
   1  -9  -7 9644.99 530.990  39
   1  -9  -6 21926.5 764.784  15
   1  -9  -6 19723.8 782.985  39
   1  -9  -6 21564.7 728.874  13
   1  -9  -6 22584.1 596.485   1
   1  -9  -6 20770.0 745.111  25
   1  -9  -5 19866.1 780.665  39
   1  -9  -5 20115.7 682.246  13
   1  -9  -5 19302.9 560.297   1
   1  -9  -5 20206.6 741.868  25
   1  -9  -5 19443.1 729.389  15
   1  -9  -4 1678.56 164.712   1
   1  -9  -3 1010.27 183.892  15
   1  -9  -3 730.483 145.260  19
   1  -9  -3 966.784 130.000   1
   1  -9  -3 920.578 152.410  45
   1  -9  -2 2834.81 282.863  15
   1  -9  -2 2851.02 273.683  38
   1  -9  -2 2869.84 280.970  11
   1  -9  -2 2635.23 254.859  19
   1  -9  -2 2984.02 269.347  45
   1  -9  -2 3240.51 230.157   1
   1  -9  -1 50282.9 1143.34  15
   1  -9  -1 52053.4 1112.38  45
   1  -9  -1 48756.7 883.854   1
   1  -9  -1 48546.9 1121.22  11
   1  -9  -1 49130.0 1090.33  19
   1  -9  -1 51185.0 1150.91  38
   1  -9   0 7969.56 445.368  15
   1  -9   0 8829.49 464.362  45
   1  -9   0 7693.78 464.868  11
   1  -9   0 8478.85 484.256  38
   1  -9   0 8481.49 463.049  19
   1  -9   0 8089.08 358.404   1
   1  -9   1 10462.9 512.300  45
   1  -9   1 10648.3 528.357  11
   1  -9   1 11340.6 527.600  19
   1  -9   1 11139.0 546.807  38
   1  -9   1 10978.0 407.112   1
   1  -9   2 126.979 80.8614  44
   1  -9   2 161.968 91.0975  19
   1  -9   3 5998.66 326.549  44
   1  -9   3 6059.09 379.270  11
   1  -9   3 6481.29 381.777  19
   1  -9   4 3052.91 219.306  44
   1  -9   4 3824.68 280.331  11
   1  -9   5 5399.11 255.629  44
   1  -9   5 6297.87 296.145  11
   1  -9   5 6263.78 305.925  19
   1  -9   6 239.399 56.1431  19
   1  -8 -13 7585.06 275.794  13
   1  -8 -13 9140.05 241.792   1
   1  -8 -12 881.004 129.202  13
   1  -8 -12 925.822 98.1716   1
   1  -8 -11 640.555 133.911  13
   1  -8 -11 796.490 104.615   1
   1  -8 -10 3009.86 210.511   1
   1  -8  -9 1453.68 207.893  13
   1  -8  -9 1763.58 166.899   1
   1  -8  -8 4244.27 314.771  15
   1  -8  -8 4219.10 343.478  13
   1  -8  -8 4437.39 328.320  25
   1  -8  -8 4153.52 261.500   1
   1  -8  -7 16127.3 630.575  15
   1  -8  -7 16066.3 678.368  39
   1  -8  -7 16546.5 650.482  13
   1  -8  -7 16173.1 631.359  25
   1  -8  -7 15497.0 498.780   1
   1  -8  -6 20989.0 569.224   1
   1  -8  -6 20541.4 723.379  15
   1  -8  -6 21225.3 775.045  39
   1  -8  -6 20002.1 719.078  13
   1  -8  -6 21076.4 724.725  25
   1  -8  -6 22635.6 579.128  10
   1  -8  -6 20308.3 1292.48  16
   1  -8  -6 21856.8 1370.20   9
   1  -8  -5 9819.18 381.239   1
   1  -8  -5 9234.77 524.751  39
   1  -8  -5 9197.68 474.904  13
   1  -8  -5 10121.2 500.583  25
   1  -8  -5 10474.5 397.584  10
   1  -8  -5 9812.37 503.371  15
   1  -8  -5 8956.73 868.987  16
   1  -8  -5 9715.66 892.918   9
   1  -8  -4 15660.5 631.189  15
   1  -8  -4 15747.4 677.860  39
   1  -8  -4 15843.1 587.182  13
   1  -8  -4 15631.0 480.051   1
   1  -8  -4 16840.1 649.713  25
   1  -8  -4 15427.2 1123.78  16
   1  -8  -4 16626.1 508.569  10
   1  -8  -4 14703.8 1057.40   9
   1  -8  -3 3162.05 258.686  45
   1  -8  -3 2981.84 301.012  39
   1  -8  -3 3274.79 293.296  25
   1  -8  -3 2848.75 208.549   1
   1  -8  -3 2768.00 480.325  16
   1  -8  -3 3007.95 223.078  10
   1  -8  -2 16916.2 653.046  15
   1  -8  -2 17596.5 638.097  38
   1  -8  -2 17953.7 625.931  11
   1  -8  -2 15238.2 1116.56  16
   1  -8  -2 16783.0 603.383  45
   1  -8  -2 16676.7 498.361   1
   1  -8  -2 16742.8 604.648  19
   1  -8  -1 30678.3 685.029   1
   1  -8  -1 31733.7 884.617  15
   1  -8  -1 33643.4 868.445  45
   1  -8  -1 33682.8 890.164  11
   1  -8  -1 32002.6 848.185  19
   1  -8  -1 33389.0 905.359  38
   1  -8  -1 30511.3 1593.11  16
   1  -8   0 24012.9 759.040  15
   1  -8   0 24212.4 751.350  45
   1  -8   0 23465.2 777.827  38
   1  -8   0 24293.9 773.778  11
   1  -8   0 23566.3 602.633   1
   1  -8   0 23906.3 747.687  19
   1  -8   0 24744.7 651.845  17
   1  -8   1 14176.3 464.622   1
   1  -8   1 14762.8 591.585  15
   1  -8   1 15630.2 617.286  45
   1  -8   1 14692.6 636.155  38
   1  -8   1 13590.3 609.687  11
   1  -8   1 14784.3 602.999  19
   1  -8   1 12634.5 1028.66  16
   1  -8   2 36533.0 949.640  45
   1  -8   2 34927.7 859.704  44
   1  -8   2 36112.6 965.535  19
   1  -8   3 11284.0 494.931  44
   1  -8   3 11495.6 547.561  11
   1  -8   3 11221.0 465.915  24
   1  -8   3 11547.3 539.307  19
   1  -8   4 2533.61 230.067  44
   1  -8   4 2770.83 215.672   6
   1  -8   4 2657.17 227.269  24
   1  -8   4 2617.36 230.602  37
   1  -8   4 2706.94 264.329  11
   1  -8   5 3489.38 253.564  44
   1  -8   5 3993.06 245.734   6
   1  -8   5 3990.94 287.204  11
   1  -8   5 3924.72 264.019  37
   1  -8   5 3997.87 263.373  24
   1  -8   5 4080.96 293.368  19
   1  -8   6 2677.11 201.080  44
   1  -8   6 3294.42 203.397   6
   1  -8   6 2891.05 205.338  11
   1  -8   6 2920.51 218.121  19
   1  -8   7 3162.74 163.936   6
   1  -8   7 2755.09 170.366  19
   1  -7 -13 2150.69 164.141  13
   1  -7 -13 2526.44 143.137   1
   1  -7 -12 6414.39 340.442  13
   1  -7 -12 6925.70 280.830   1
   1  -7 -12 5992.86 269.037   4
   1  -7 -11 2624.16 250.966  13
   1  -7 -11 2893.99 202.223   1
   1  -7 -11 2417.31 201.306   4
   1  -7 -10 15733.6 635.665  13
   1  -7 -10 16340.3 504.111   1
   1  -7 -10 15094.6 511.537   4
   1  -7  -9 14386.0 613.958  13
   1  -7  -9 14702.0 491.837   1
   1  -7  -8 39500.2 790.988   1
   1  -7  -7 17805.2 628.254  15
   1  -7  -7 18030.3 666.930  13
   1  -7  -7 18560.1 648.619  25
   1  -7  -7 17858.2 523.475   1
   1  -7  -7 18443.4 1260.96   9
   1  -7  -6 1234.92 303.553  16
   1  -7  -6 1540.19 198.199  15
   1  -7  -6 1601.38 214.453  39
   1  -7  -6 1215.89 181.238  13
   1  -7  -6 1441.48 185.076  25
   1  -7  -6 1085.73 304.641   9
   1  -7  -6 1301.09 140.312   1
   1  -7  -5 38487.9 923.616  15
   1  -7  -5 40682.0 1014.94  39
   1  -7  -5 36415.9 916.325  13
   1  -7  -5 39853.2 936.641  25
   1  -7  -5 39388.2 752.558  10
   1  -7  -5 38595.5 1677.17   9
   1  -7  -5 37605.8 718.959   1
   1  -7  -5 39414.4 1656.82  16
   1  -7  -4 3072.05 202.446   1
   1  -7  -4 3807.79 313.012  39
   1  -7  -4 3218.63 264.749  13
   1  -7  -4 3034.44 474.646  16
   1  -7  -4 3746.09 289.205  25
   1  -7  -4 3249.15 214.661  10
   1  -7  -4 3260.02 478.488   9
   1  -7  -4 3208.39 272.185  15
   1  -7  -3 22582.6 745.495  39
   1  -7  -3 21773.2 526.285   1
   1  -7  -3 21597.8 1219.55  16
   1  -7  -3 21840.0 697.404  25
   1  -7  -3 22249.3 563.434  10
   1  -7  -3 21565.7 1166.81   9
   1  -7  -2 477.017 113.918  15
   1  -7  -2 556.717 128.154  25
   1  -7  -2 527.093 85.7335   1
   1  -7  -2 395.460 89.5643  10
   1  -7  -2 736.719 211.754   9
   1  -7  -1 9936.71 469.144  15
   1  -7  -1 10326.6 442.288  45
   1  -7  -1 10412.0 468.262  38
   1  -7  -1 9287.81 455.808  11
   1  -7  -1 9837.54 443.421  19
   1  -7  -1 9875.57 359.786   1
   1  -7  -1 10393.3 390.057  17
   1  -7  -1 10272.2 856.579  16
   1  -7   0 14531.8 563.555  15
   1  -7   0 13948.0 536.654  45
   1  -7   0 13814.7 999.745  16
   1  -7   0 14351.8 442.246   1
   1  -7   0 14723.8 579.565  38
   1  -7   0 14114.1 573.015  11
   1  -7   0 13699.5 543.271  19
   1  -7   0 14466.1 476.403  17
   1  -7   1 5584.99 356.304  15
   1  -7   1 6493.64 377.898  45
   1  -7   1 5835.86 379.501  38
   1  -7   1 4973.47 357.022  11
   1  -7   1 5279.71 629.815  16
   1  -7   1 5188.29 273.401   1
   1  -7   1 5632.02 367.069  19
   1  -7   1 5405.46 309.668  17
   1  -7   2 32912.4 877.014  45
   1  -7   2 32632.2 817.411  44
   1  -7   2 32303.4 916.531  38
   1  -7   2 31547.4 673.294   1
   1  -7   2 32022.7 870.602  19
   1  -7   2 29012.5 1470.29  16
   1  -7   2 31201.2 740.882  17
   1  -7   3 17598.4 615.762  44
   1  -7   3 17806.7 605.614  37
   1  -7   3 17549.0 549.311   6
   1  -7   3 17031.3 684.934  11
   1  -7   3 17557.2 588.017  24
   1  -7   3 17606.8 665.149  19
   1  -7   4 7035.11 395.720  44
   1  -7   4 6757.59 357.581   6
   1  -7   4 6162.04 408.423  11
   1  -7   4 7131.19 386.208  24
   1  -7   4 7627.43 407.241  37
   1  -7   5 889.196 149.095  44
   1  -7   5 763.367 142.788  37
   1  -7   5 558.878 113.665   6
   1  -7   5 665.120 147.583  11
   1  -7   5 680.209 137.252  24
   1  -7   5 821.349 154.831  19
   1  -7   6 9035.89 417.966  44
   1  -7   6 9297.43 430.853  37
   1  -7   6 10394.7 417.442   6
   1  -7   6 8931.07 424.689  11
   1  -7   6 9534.74 419.068  24
   1  -7   6 9618.15 451.239  19
   1  -7   7 5504.83 276.010   6
   1  -7   7 4651.17 276.646  19
   1  -7   8 667.133 86.5584   6
   1  -7   8 672.812 87.5825  19
   1  -6 -13 322.517 66.1162   4
   1  -6 -13 263.025 68.8907  13
   1  -6 -13 268.251 54.2187   1
   1  -6 -12 3785.13 269.240  13
   1  -6 -12 4316.20 233.750   1
   1  -6 -12 3508.15 232.865   4
   1  -6 -11 1375.85 188.097  13
   1  -6 -11 1286.81 143.373   1
   1  -6 -11 1277.09 161.738   4
   1  -6 -11 1451.15 199.542  40
   1  -6 -10 1273.79 205.754  40
   1  -6 -10 1260.38 197.276  13
   1  -6 -10 1182.30 196.849  26
   1  -6 -10 1667.64 168.350   1
   1  -6 -10 1191.71 164.942   4
   1  -6  -9 2498.71 273.829  40
   1  -6  -9 2181.29 251.210  13
   1  -6  -9 2234.01 261.198  26
   1  -6  -9 2132.81 187.280   1
   1  -6  -9 2174.96 209.874   4
   1  -6  -8 2914.81 288.821  40
   1  -6  -8 2867.45 276.211  13
   1  -6  -8 2984.20 300.051  26
   1  -6  -8 3086.61 222.955   1
   1  -6  -8 3375.85 542.587   9
   1  -6  -8 2390.59 229.177   4
   1  -6  -7 8973.23 489.722  40
   1  -6  -7 9720.70 509.717  26
   1  -6  -7 9365.60 369.272   1
   1  -6  -7 8999.95 391.811   4
   1  -6  -6 18885.0 683.211  40
   1  -6  -6 17930.4 619.334  13
   1  -6  -6 18542.9 495.539   1
   1  -6  -6 19573.9 1077.34  16
   1  -6  -6 18728.5 1131.79   9
   1  -6  -5 67812.7 1983.95  16
   1  -6  -5 70541.9 2105.51   9
   1  -6  -4 84322.2 2226.22   9
   1  -6  -4 83805.9 2192.24  16
   1  -6  -3 14709.5 911.984  16
   1  -6  -3 14037.5 882.850   9
   1  -6  -2 65009.9 1809.90   9
   1  -6  -2 64482.9 1888.86  16
   1  -6  -1 33867.8 1289.23   9
   1  -6   0 7857.24 693.035  16
   1  -6   1 25171.4 1243.90  16
   1  -6   2 10917.9 847.743  16
   1  -6   2 11981.1 495.752  45
   1  -6   2 10272.6 361.703   1
   1  -6   2 11973.0 465.524  44
   1  -6   2 11468.6 513.960  38
   1  -6   2 10514.1 714.962   7
   1  -6   2 10803.5 485.962  19
   1  -6   2 10675.2 421.281  17
   1  -6   3 2308.99 240.148  45
   1  -6   3 2216.37 216.280  44
   1  -6   3 1994.59 338.939   7
   1  -6   3 2240.55 241.998  38
   1  -6   3 2106.71 208.596  37
   1  -6   3 1647.24 169.962   6
   1  -6   3 1929.34 223.624  11
   1  -6   3 1977.08 201.695  24
   1  -6   3 2135.17 231.451  19
   1  -6   3 1803.76 362.144  16
   1  -6   4 14811.3 567.684  44
   1  -6   4 15575.9 1006.72   7
   1  -6   4 14423.6 558.873  37
   1  -6   4 14164.5 520.393   6
   1  -6   4 13808.3 592.132  11
   1  -6   4 14982.9 547.806  24
   1  -6   5 2114.04 249.074  11
   1  -6   5 2539.30 245.420  44
   1  -6   5 2509.56 225.496   6
   1  -6   5 2607.29 243.245  24
   1  -6   5 2536.19 256.673  19
   1  -6   5 2655.00 255.145  37
   1  -6   6 16905.1 614.885  44
   1  -6   6 16995.4 622.831  37
   1  -6   6 18663.9 601.385   6
   1  -6   6 17515.6 609.343  24
   1  -6   6 16765.1 620.335  11
   1  -6   6 17476.3 642.690  19
   1  -6   7 21120.5 648.867  44
   1  -6   7 20365.9 599.654   6
   1  -6   7 20440.5 627.680  24
   1  -6   7 19428.6 636.821  19
   1  -6   8 7909.57 335.036   6
   1  -6   8 6807.63 331.009  19
   1  -6   9 3858.88 196.017   6
   1  -6   9 3048.15 167.624  19
   1  -5 -14 2757.05 124.384   1
   1  -5 -13 306.016 69.4263   4
   1  -5 -13 410.529 68.4004   1
   1  -5 -12 4493.99 306.645  40
   1  -5 -12 4684.11 291.267  13
   1  -5 -12 5108.19 256.843   1
   1  -5 -12 4691.42 280.701   4
   1  -5 -11 16470.1 647.593  40
   1  -5 -11 16618.4 615.005  13
   1  -5 -11 15865.9 648.026  26
   1  -5 -11 17687.4 519.079   1
   1  -5 -11 16402.1 558.958   4
   1  -5 -10 14500.2 632.372  40
   1  -5 -10 14835.3 608.439  13
   1  -5 -10 14000.2 634.044  26
   1  -5 -10 15379.4 495.968   1
   1  -5 -10 14907.1 536.821   4
   1  -5  -9 2573.56 267.073  40
   1  -5  -9 2676.29 260.377  13
   1  -5  -9 2826.30 211.712   1
   1  -5  -9 2745.38 285.443  26
   1  -5  -9 2250.41 438.151   9
   1  -5  -9 2354.00 214.143   4
   1  -5  -8 1270.08 196.303  40
   1  -5  -8 1543.46 200.449  13
   1  -5  -8 1497.91 210.208  26
   1  -5  -8 1474.11 153.075   1
   1  -5  -8 1744.61 370.191   9
   1  -5  -8 1352.20 170.530   4
   1  -5  -7 20780.2 705.611  40
   1  -5  -7 21930.5 680.979  13
   1  -5  -7 20263.3 712.372  26
   1  -5  -7 21108.2 528.550   1
   1  -5  -7 21318.9 1208.91   9
   1  -5  -7 21035.9 582.376   4
   1  -5  -6 144563. 2948.86   9
   1  -5  -6 144248. 2689.62  16
   1  -5  -5 13104.5 807.266  16
   1  -5  -4 41750.7 1385.06  16
   1  -5  -4 40537.9 1402.72   9
   1  -5  -3 17410.7 880.601  16
   1  -5  -3 18727.6 920.604   9
   1  -5  -2 28908.8 1119.95  16
   1  -5  -2 29600.4 1118.39   9
   1  -5  -1 396.766 144.417   9
   1  -5   0 57042.9 1226.86   7
   1  -5   0 60060.5 1545.49   9
   1  -5   0 60085.2 1695.70  16
   1  -5   1 170614. 2413.32   7
   1  -5   1 177351. 2967.36  16
   1  -5   2 29585.6 1260.59  16
   1  -5   2 28536.7 1085.45   7
   1  -5   3 11443.0 476.442  45
   1  -5   3 10084.1 704.608   7
   1  -5   3 10615.6 481.129  38
   1  -5   3 10438.0 773.090  16
   1  -5   3 9620.36 449.578  11
   1  -5   3 10561.0 458.925  19
   1  -5   3 9909.37 394.492  17
   1  -5   4 29.8511 77.2217  16
   1  -5   4 194.728 78.1770  44
   1  -5   4 221.345 94.5661  37
   1  -5   4 126.498 108.982   7
   1  -5   4 95.7972 59.1687   6
   1  -5   4 121.433 67.9118  11
   1  -5   4 219.777 82.3280  24
   1  -5   4 172.439 93.4437  19
   1  -5   5 15561.6 585.761  44
   1  -5   5 16928.8 1064.19   7
   1  -5   5 15413.4 590.673  37
   1  -5   5 15382.5 545.183   6
   1  -5   5 15764.0 616.505  11
   1  -5   5 15445.3 574.345  24
   1  -5   5 15695.5 613.478  19
   1  -5   6 52680.0 1099.58  44
   1  -5   6 52860.8 1107.99  37
   1  -5   6 50782.3 1016.13   6
   1  -5   6 51012.7 1081.62  11
   1  -5   6 53499.3 1075.28  24
   1  -5   6 51839.8 1119.16  19
   1  -5   7 1035.05 169.029  44
   1  -5   7 956.221 147.748   6
   1  -5   7 1099.17 169.422  37
   1  -5   7 1137.85 169.492  24
   1  -5   7 999.475 158.886  19
   1  -5   7 1033.43 159.820  50
   1  -5   8 15933.6 531.486   6
   1  -5   8 15284.3 548.207  19
   1  -5   8 14129.9 508.620  50
   1  -5   9 4703.05 257.708  19
   1  -5  10 10754.2 309.443   6
   1  -4 -14 4119.17 154.680   1
   1  -4 -14 3178.52 153.149   4
   1  -4 -13 1263.22 115.329   1
   1  -4 -13 1234.78 131.467   4
   1  -4 -12 5028.64 264.917   1
   1  -4 -12 4873.59 296.145   4
   1  -4 -11 8361.12 451.025  40
   1  -4 -11 8950.94 442.904  13
   1  -4 -11 9385.93 382.502   1
   1  -4 -11 8013.45 449.991  26
   1  -4 -11 9178.89 427.945   4
   1  -4 -10 26920.2 803.108  13
   1  -4 -10 26765.4 653.936   1
   1  -4 -10 27300.4 859.170  26
   1  -4 -10 26685.3 836.425  40
   1  -4 -10 25862.5 736.300   4
   1  -4  -9 35748.2 952.497  40
   1  -4  -9 34105.0 891.566  13
   1  -4  -9 33334.4 721.961   1
   1  -4  -9 35400.3 968.693  26
   1  -4  -9 36012.8 1680.32   9
   1  -4  -8 25721.1 778.530  40
   1  -4  -8 24250.5 723.725  13
   1  -4  -8 23507.1 577.034   1
   1  -4  -8 24716.1 786.174  26
   1  -4  -8 25074.4 1340.18   9
   1  -4  -8 23595.3 651.614   4
   1  -4  -7 80345.3 2227.14   9
   1  -4  -6 39204.4 1243.60  16
   1  -4  -6 37930.3 1446.63   9
   1  -4  -5 37681.5 1336.91   9
   1  -4  -5 41959.5 1256.22  16
   1  -4  -4 166328. 2452.21  16
   1  -4  -3 162389. 2399.73  16
   1  -4  -3 165525. 2504.28   9
   1  -4  -2 15413.7 731.197  16
   1  -4  -2 16857.5 756.053   9
   1  -4  -1 37661.7 1149.55  16
   1  -4  -1 38835.8 1123.11   9
   1  -4   0 110264. 1510.99   7
   1  -4   0 117719. 1956.34   9
   1  -4   1 62941.9 1303.72   7
   1  -4   1 67603.4 1642.17  16
   1  -4   2 22508.2 875.192   7
   1  -4   2 24116.2 1024.40  16
   1  -4   3 52088.5 1578.73  16
   1  -4   3 50047.5 1441.00   7
   1  -4   4 25868.0 1129.52   7
   1  -4   4 25513.9 1145.51  16
   1  -4   5 98766.5 1394.82  44
   1  -4   5 100137. 2422.95   7
   1  -4   5 96966.9 1273.40   4
   1  -4   5 92474.4 1258.54   6
   1  -4   5 92867.6 1388.20  11
   1  -4   5 93994.8 1332.02  24
   1  -4   5 97098.5 1430.31  19
   1  -4   5 94434.9 1389.77  37
   1  -4   6 11998.2 513.482  44
   1  -4   6 11165.7 867.667   7
   1  -4   6 10408.8 437.622   4
   1  -4   6 10982.6 457.126   6
   1  -4   6 10658.3 486.290  11
   1  -4   6 11378.3 496.810  24
   1  -4   6 11529.5 510.931  37
   1  -4   6 11551.8 516.404  19
   1  -4   6 11331.4 494.108  50
   1  -4   7 14154.0 572.400  44
   1  -4   7 12724.8 508.899   6
   1  -4   7 14444.0 589.492  37
   1  -4   7 14581.0 565.761  24
   1  -4   7 13649.9 557.302  19
   1  -4   7 13712.2 551.404  50
   1  -4   8 16417.3 595.890  19
   1  -4   8 15708.0 581.889  50
   1  -4   9 2743.42 218.214   6
   1  -4   9 2428.66 206.059  19
   1  -4   9 2192.74 206.622  50
   1  -4  10 399.282 76.6825   6
   1  -4  10 315.159 78.7232  50
   1  -4  11 8086.01 241.149   6
   1  -3 -14 3864.33 146.385   1
   1  -3 -13 15410.1 390.522   1
   1  -3 -13 13560.4 416.792   4
   1  -3 -12 20973.3 533.827   1
   1  -3 -12 20930.4 606.308   4
   1  -3 -11 2027.15 181.338   1
   1  -3 -11 2163.66 208.587   4
   1  -3 -10 6651.65 327.656   1
   1  -3 -10 6779.84 381.018   4
   1  -3  -9 3946.82 296.308  13
   1  -3  -9 3512.43 233.932   1
   1  -3  -9 4354.36 330.640  26
   1  -3  -9 4166.03 319.038  40
   1  -3  -9 3612.05 514.783   9
   1  -3  -9 3591.07 275.306   4
   1  -3  -8 97325.2 1395.99  13
   1  -3  -8 93024.4 1133.95   1
   1  -3  -8 95724.1 1109.35   8
   1  -3  -8 99212.7 1499.67  26
   1  -3  -8 97908.6 1459.09  40
   1  -3  -8 94688.2 2487.01   9
   1  -3  -8 97493.2 2136.64  18
   1  -3  -8 92945.3 1295.13   4
   1  -3  -7 10335.5 753.483   9
   1  -3  -7 9916.71 646.717  18
   1  -3  -6 3261.97 400.581   9
   1  -3  -6 3142.08 327.587  18
   1  -3  -5 9404.69 441.271   2
   1  -3  -5 10840.7 552.858  16
   1  -3  -5 10446.5 663.238   9
   1  -3  -5 11205.2 570.446  18
   1  -3  -4 192276. 2283.32  16
   1  -3  -4 197937. 2618.28   9
   1  -3  -3 161933. 1176.77   2
   1  -3  -3 150917. 1977.47  16
   1  -3  -2 2321.27 247.564  16
   1  -3  -2 2443.79 267.344   9
   1  -3  -1 41541.2 636.411   7
   1  -3  -1 42088.4 1049.77  16
   1  -3  -1 43187.9 1065.94   9
   1  -3   0 30592.5 688.157   7
   1  -3   0 31557.8 896.622   9
   1  -3   1 156496. 1831.14   7
   1  -3   1 154214. 1159.66   2
   1  -3   2 82191.1 1111.19  22
   1  -3   2 84248.8 1708.07  16
   1  -3   3 7308.57 501.448   7
   1  -3   3 6575.10 378.757  22
   1  -3   3 6944.81 518.972  16
   1  -3   4 112548. 2159.66   7
   1  -3   4 110557. 1791.91  22
   1  -3   4 111581. 2198.65  16
   1  -3   5 4887.23 504.940  16
   1  -3   5 5159.54 514.810   7
   1  -3   5 4248.79 403.719  22
   1  -3   6 21450.5 660.526  44
   1  -3   6 21542.8 674.321  37
   1  -3   6 20462.7 639.200  24
   1  -3   6 21514.1 661.568  19
   1  -3   6 21115.1 643.492  50
   1  -3   7 9503.77 455.876  44
   1  -3   7 9017.18 780.044   7
   1  -3   7 8273.25 393.765   6
   1  -3   7 9061.18 440.088  24
   1  -3   7 8294.11 331.535   3
   1  -3   7 8347.98 436.113  19
   1  -3   7 8761.04 442.800  50
   1  -3   8 38304.0 935.145  44
   1  -3   8 37822.4 914.789  36
   1  -3   8 38904.6 881.354   6
   1  -3   8 37799.4 729.821   3
   1  -3   8 37646.6 906.338  19
   1  -3   8 38663.6 920.121  50
   1  -3   9 5105.90 329.308  36
   1  -3   9 5362.99 319.269   6
   1  -3   9 5256.68 267.579   3
   1  -3   9 5097.15 319.649  19
   1  -3   9 5265.75 331.241  50
   1  -3  10 3089.81 221.147   6
   1  -3  10 3165.73 185.809   3
   1  -3  10 2574.99 196.524  19
   1  -3  10 2539.13 213.001  50
   1  -3  11 1235.01 116.388   6
   1  -3  11 895.439 108.191  50
   1  -2 -13 8660.25 284.805   1
   1  -2 -13 7914.97 313.743   4
   1  -2 -12 2353.90 207.470   4
   1  -2 -12 2310.48 175.089   1
   1  -2 -11 13137.2 450.979   1
   1  -2 -11 12596.7 508.606   4
   1  -2 -10 13987.9 478.976   1
   1  -2 -10 14408.6 584.093  29
   1  -2 -10 13432.8 533.831   4
   1  -2  -9 40515.5 1042.30  46
   1  -2  -9 41203.6 791.188   1
   1  -2  -9 44589.2 1003.51  32
   1  -2  -9 43971.3 987.724  29
   1  -2  -9 43859.6 765.558   8
   1  -2  -8 24493.8 763.856  46
   1  -2  -8 22970.3 556.280   1
   1  -2  -8 23348.5 690.358  32
   1  -2  -8 24578.9 695.969  29
   1  -2  -8 22037.1 536.808   8
   1  -2  -8 23829.4 1184.70   9
   1  -2  -8 22448.3 1049.98  18
   1  -2  -8 23561.0 620.778  17
   1  -2  -7 98132.6 2236.99   9
   1  -2  -7 97159.6 1986.27  18
   1  -2  -6 112698. 1880.11   2
   1  -2  -6 118913. 1861.92   5
   1  -2  -6 117829. 2224.72   9
   1  -2  -6 112590. 1956.82  18
   1  -2  -5 27315.0 793.809   2
   1  -2  -5 29322.0 849.886   5
   1  -2  -5 28370.7 1020.26   9
   1  -2  -5 27587.3 876.733  18
   1  -2  -4 112007. 1380.04   2
   1  -2  -4 116655. 1485.84  16
   1  -2  -4 117877. 1599.16   5
   1  -2  -4 114916. 1840.26   9
   1  -2  -4 114852. 1626.10  18
   1  -2  -3 92429.1 1299.09  16
   1  -2  -3 91180.1 1012.43   2
   1  -2  -3 94602.7 1341.78   5
   1  -2  -3 91889.2 1511.63   9
   1  -2  -3 93105.8 1352.04  18
   1  -2  -2 48506.8 925.238  16
   1  -2  -2 45391.3 1003.35   9
   1  -2  -1 109228. 835.210   7
   1  -2  -1 109440. 1434.28  16
   1  -2   0 64730.9 872.541   7
   1  -2   0 66609.1 1169.38  16
   1  -2   0 65954.6 1152.50   9
   1  -2   1 117013. 1384.61   7
   1  -2   1 117332. 1012.30   2
   1  -2   1 120416. 1006.45  22
   1  -2   2 93576.8 1160.05   2
   1  -2   2 96315.8 1157.62  22
   1  -2   2 96566.7 1445.73   7
   1  -2   2 98007.7 1615.64  16
   1  -2   3 53870.1 1058.00   2
   1  -2   3 53276.3 1296.60  16
   1  -2   3 52525.2 1024.94  22
   1  -2   4 19089.7 821.431   7
   1  -2   4 18096.6 703.554  22
   1  -2   4 18442.7 820.429  16
   1  -2   5 2661.56 345.029  16
   1  -2   5 2743.66 315.060  22
   1  -2   6 7090.90 359.073  44
   1  -2   6 8109.20 645.851   7
   1  -2   6 5925.29 346.907   4
   1  -2   6 7302.83 337.832   6
   1  -2   6 7157.10 354.385  24
   1  -2   6 6983.46 551.014  22
   1  -2   7 947.976 155.371  44
   1  -2   7 1300.62 296.591   7
   1  -2   7 1230.72 155.420   6
   1  -2   7 1331.85 134.782   3
   1  -2   7 1036.22 155.090  36
   1  -2   7 1137.22 247.758  22
   1  -2   7 1064.61 142.298  20
   1  -2   7 1103.87 159.029  19
   1  -2   7 1086.99 153.031  50
   1  -2   7 1093.13 173.292  37
   1  -2   8 99.7791 129.272   7
   1  -2   8 35.9466 56.7029  36
   1  -2   8 88.6681 71.2737   6
   1  -2   8 67.6204 87.6713  22
   1  -2   8 71.4916 53.6464  20
   1  -2   8 41.2133 73.1983  19
   1  -2   8 5.23895 37.9825   3
   1  -2   8 86.3640 73.4462  50
   1  -2   9 1433.04 187.423  36
   1  -2   9 1495.90 175.828   6
   1  -2   9 1252.11 137.482   3
   1  -2   9 1541.51 175.838  20
   1  -2   9 1271.34 163.155  19
   1  -2   9 1191.44 172.625  50
   1  -2  10 1112.83 155.341  36
   1  -2  10 1006.96 142.807   6
   1  -2  10 1049.14 122.703   3
   1  -2  10 1101.34 144.250  20
   1  -2  10 989.888 138.133  19
   1  -2  10 1110.10 161.373  50
   1  -2  11 1073.54 134.744  36
   1  -2  11 1320.49 118.567   3
   1  -2  11 1103.62 127.877  20
   1  -2  11 1220.10 130.660   6
   1  -2  11 1022.33 132.445  50
   1  -2  12 6067.15 185.100   3
   1  -2  12 5380.62 220.973  50
   1  -1 -13 9856.08 288.622   1
   1  -1 -13 9645.64 324.364   4
   1  -1 -12 5150.40 252.290   1
   1  -1 -12 4921.98 289.054   4
   1  -1 -11 3008.75 218.510   1
   1  -1 -11 2775.28 250.844  29
   1  -1 -11 2500.42 213.152  17
   1  -1 -11 2973.50 249.246   4
   1  -1 -10 2801.39 281.600  46
   1  -1 -10 2957.29 222.634   1
   1  -1 -10 2842.98 260.525  32
   1  -1 -10 3135.23 275.905  29
   1  -1 -10 2800.34 240.211   4
   1  -1 -10 2866.35 248.959  17
   1  -1  -9 13816.6 462.140   1
   1  -1  -9 13215.8 593.191  46
   1  -1  -9 13784.1 561.386  32
   1  -1  -9 13990.4 556.161  29
   1  -1  -9 13147.3 889.969  18
   1  -1  -9 14756.6 542.788   4
   1  -1  -9 13297.9 514.541  17
   1  -1  -9 14582.0 445.035   8
   1  -1  -8 36436.0 931.395  46
   1  -1  -8 38699.4 891.072  32
   1  -1  -8 37330.4 851.866  29
   1  -1  -8 35649.7 1357.23  18
   1  -1  -8 37001.3 812.687   4
   1  -1  -8 35384.0 795.928  17
   1  -1  -8 35969.0 680.673   8
   1  -1  -8 36163.7 702.556   1
   1  -1  -7 14105.2 809.570   9
   1  -1  -7 14471.9 791.460  18
   1  -1  -6 12713.0 602.694   5
   1  -1  -6 12336.9 681.695   9
   1  -1  -6 12020.2 650.563  18
   1  -1  -5 41494.2 1039.61   2
   1  -1  -5 41396.4 1000.98   5
   1  -1  -5 40149.6 1116.45   9
   1  -1  -5 40871.0 1087.66  18
   1  -1  -4 127196. 1568.73   2
   1  -1  -4 126730. 1595.61   5
   1  -1  -4 125964. 1795.18   9
   1  -1  -4 127897. 1722.05  18
   1  -1  -4 127595. 1205.40  16
   1  -1  -3 101775. 1182.01   2
   1  -1  -3 101253. 1040.64  16
   1  -1  -3 105474. 1309.39   5
   1  -1  -3 107186. 1485.79   9
   1  -1  -3 101285. 1374.45  18
   1  -1  -2 284578. 1608.02   2
   1  -1  -2 282513. 1966.10   5
   1  -1  -2 288785. 2226.63   9
   1  -1  -2 280915. 2032.18  18
   1  -1  -2 286769. 1759.84  16
   1  -1  -1 85474.6 694.031   7
   1  -1  -1 85855.7 1028.14   5
   1  -1   0 163538. 1198.95   7
   1  -1   0 164535. 1543.91  16
   1  -1   1 401389. 2296.23   7
   1  -1   1 405626. 1899.88   2
   1  -1   2 14768.5 443.417  22
   1  -1   2 15196.0 520.694   7
   1  -1   2 15238.0 260.781  14
   1  -1   2 14912.7 450.576   2
   1  -1   2 15432.8 571.508  16
   1  -1   3 145589. 1058.06  14
   1  -1   3 143549. 1815.67   7
   1  -1   3 142402. 1636.56  22
   1  -1   3 143926. 1910.37  16
   1  -1   4 1373.58 215.295  16
   1  -1   4 1463.25 195.470  22
   1  -1   5 3511.71 357.152   7
   1  -1   5 3224.98 327.153  22
   1  -1   6 112244. 2145.51  22
   1  -1   6 113156. 2287.39   7
   1  -1   7 55758.0 1020.86  44
   1  -1   7 56883.9 1745.94   7
   1  -1   7 52592.1 1015.19  37
   1  -1   7 54759.9 1051.16  36
   1  -1   7 51577.0 914.422   6
   1  -1   7 49661.8 782.524   3
   1  -1   7 49172.9 947.821  24
   1  -1   7 54065.6 1644.45  22
   1  -1   7 54147.8 948.125  20
   1  -1   7 51814.6 969.012  19
   1  -1   7 56778.1 1021.01  50
   1  -1   8 29041.3 1342.11   7
   1  -1   8 28372.8 802.636  36
   1  -1   8 27473.2 694.593   6
   1  -1   8 27042.7 1274.33  22
   1  -1   8 26885.5 616.798   3
   1  -1   8 27515.7 731.494  20
   1  -1   8 26989.0 729.531  19
   1  -1   8 30029.9 786.958  50
   1  -1   9 642.418 129.258  36
   1  -1   9 730.446 121.713   6
   1  -1   9 667.748 109.000   3
   1  -1   9 525.742 114.943  20
   1  -1   9 610.286 124.312  19
   1  -1   9 796.913 142.847  50
   1  -1  10 1360.46 194.425  36
   1  -1  10 1309.96 155.248   6
   1  -1  10 1381.08 148.202   3
   1  -1  10 1232.98 163.274  20
   1  -1  10 1240.25 158.815  19
   1  -1  10 1270.82 170.233  50
   1  -1  11 4770.58 308.266  36
   1  -1  11 5703.07 267.656   3
   1  -1  11 5012.23 288.627  20
   1  -1  11 5412.26 278.479   6
   1  -1  11 4623.48 289.800  50
   1  -1  12 1121.60 124.348  48
   1  -1  12 1589.64 116.422   3
   1  -1  12 1245.18 127.314  20
   1  -1  12 1272.02 130.409  50
   1   0 -13 1128.84 92.9094   1
   1   0 -13 999.119 94.6899   4
   1   0 -12 3655.46 204.385   1
   1   0 -12 3231.25 202.815  17
   1   0 -12 3742.96 231.645   4
   1   0 -11 8648.05 354.315   1
   1   0 -11 7338.15 395.299  32
   1   0 -11 6827.47 379.014  29
   1   0 -11 7300.33 365.257  17
   1   0 -11 8283.29 394.439   4
   1   0 -10 6886.62 337.231   1
   1   0 -10 6976.44 410.597  32
   1   0 -10 7319.44 413.495  29
   1   0 -10 6880.67 441.019  46
   1   0 -10 7704.47 396.999   4
   1   0 -10 6745.40 369.865  17
   1   0  -9 3309.60 302.840  46
   1   0  -9 3127.45 276.050  32
   1   0  -9 3246.95 276.323  29
   1   0  -9 3378.81 231.779   1
   1   0  -9 2962.85 436.433  18
   1   0  -9 3800.52 276.101   4
   1   0  -9 3055.06 252.313  17
   1   0  -9 2964.85 213.728   8
   1   0  -8 1620.45 207.967  46
   1   0  -8 1210.28 138.245   8
   1   0  -8 1661.65 195.398  32
   1   0  -8 1740.79 189.714  29
   1   0  -8 1389.44 282.880  18
   1   0  -8 1433.91 174.643   4
   1   0  -8 1647.38 176.661  17
   1   0  -8 1439.74 146.874   1
   1   0  -7 33760.0 1295.79  31
   1   0  -7 36075.0 1305.35  18
   1   0  -6 8984.71 618.195  31
   1   0  -6 9748.66 536.978   5
   1   0  -6 9589.20 609.218  18
   1   0  -5 35576.1 974.210  49
   1   0  -5 36080.0 1012.85   2
   1   0  -5 34656.4 1092.12  31
   1   0  -5 34032.0 923.582   5
   1   0  -5 32907.4 939.362   9
   1   0  -5 35185.2 1051.27  18
   1   0  -4 153627. 1752.43  49
   1   0  -4 159664. 1879.81   2
   1   0  -4 160956. 1818.16   5
   1   0  -4 152128. 1784.17   9
   1   0  -4 154902. 1950.85  18
   1   0  -4 151952. 2041.42  31
   1   0  -3 340833. 2323.56   2
   1   0  -3 336319. 2330.57   9
   1   0  -2 65696.0 859.282   2
   1   0  -2 67628.9 938.520   5
   1   0  -2 65366.8 903.838   9
   1   0  -1 984002. 2703.40   7
   1   0  -1 999771. 2478.56  16
   1   0  -1 999999. 3482.41  31
   1   0  -1 996357. 3326.70   9
   1   0  -1 975575. 3268.61  18
   1   0   0 82754.6 834.247   7
   1   0   0 83684.9 819.285   5
   1   0   0 81125.1 975.501   9
   1   0   1 185429. 1093.66  14
   1   0   1 187669. 1298.30  22
   1   0   2 23161.9 557.793   2
   1   0   2 22070.4 534.120  22
   1   0   3 82314.5 958.867  14
   1   0   3 81838.6 1220.52   2
   1   0   3 82046.2 1208.54  22
   1   0   4 59830.8 942.538  14
   1   0   4 64304.0 1278.99   7
   1   0   4 62677.9 1246.14   2
   1   0   4 63433.9 1223.56  22
   1   0   5 13088.4 504.285  14
   1   0   5 13409.1 652.545   7
   1   0   5 13215.9 637.304  22
   1   0   6 15546.7 783.406   7
   1   0   6 15691.5 780.661  22
   1   0   7 2551.29 347.399   7
   1   0   7 2537.04 351.178  22
   1   0   8 9358.13 721.035   7
   1   0   8 9388.78 468.494  36
   1   0   8 8498.17 374.877   6
   1   0   8 8684.77 341.877   3
   1   0   8 8797.62 711.828  22
   1   0   8 8886.82 407.705  20
   1   0   8 8396.44 399.405  19
   1   0   8 9629.43 434.519  50
   1   0   9 40548.4 1589.84   7
   1   0   9 38534.4 985.150  36
   1   0   9 38735.4 827.981   6
   1   0   9 38296.9 757.686   3
   1   0   9 39168.9 1595.22  22
   1   0   9 38741.8 887.836  20
   1   0   9 37467.9 854.210  19
   1   0   9 38837.7 917.086  50
   1   0  10 4152.55 330.188  36
   1   0  10 3982.02 267.166   6
   1   0  10 4140.54 256.673   3
   1   0  10 4085.87 294.450  20
   1   0  10 4055.66 299.443  50
   1   0  11 25728.7 753.667  36
   1   0  11 27857.5 612.572   3
   1   0  11 26413.0 705.401  20
   1   0  11 24300.3 696.534  50
   1   0  12 897.188 123.028  48
   1   0  12 1006.31 108.663   3
   1   0  12 966.453 127.744  20
   1   0  12 1030.00 125.048  50
   1   0  13 6782.29 246.370  20
   1   0  13 6423.99 243.682  50
   1   1 -12 5536.19 233.950   1
   1   1 -12 5596.38 253.266   4
   1   1 -11 13725.2 431.722   1
   1   1 -11 12402.8 486.253  32
   1   1 -11 11895.8 469.650  29
   1   1 -11 12088.0 459.250  17
   1   1 -11 13141.3 462.372   4
   1   1 -10 8821.36 480.563  46
   1   1 -10 9556.77 464.141  32
   1   1 -10 9663.87 457.439  29
   1   1 -10 11407.8 472.468   4
   1   1 -10 9551.45 452.054  17
   1   1 -10 10923.2 415.495   1
   1   1  -9 19164.9 705.246  46
   1   1  -9 19780.7 668.318  32
   1   1  -9 19681.8 663.421  29
   1   1  -9 20236.3 633.418   4
   1   1  -9 19121.6 642.696  17
   1   1  -9 20020.6 568.958   1
   1   1  -8 7463.96 428.405  46
   1   1  -8 8358.21 421.090  32
   1   1  -8 6289.59 620.569  31
   1   1  -8 8101.10 407.259  29
   1   1  -8 7111.18 660.402  18
   1   1  -8 7087.75 373.598   4
   1   1  -8 7592.79 388.559  17
   1   1  -8 7242.75 331.584   1
   1   1  -7 32706.4 573.880   3
   1   1  -7 35149.3 858.488  46
   1   1  -7 35092.4 798.050  32
   1   1  -7 30887.1 1296.17  31
   1   1  -7 36041.9 793.364  29
   1   1  -7 33997.5 1342.83  18
   1   1  -7 35053.8 737.681   4
   1   1  -7 33922.2 657.386   1
   1   1  -7 33455.5 765.872  17
   1   1  -6 11485.1 650.206  49
   1   1  -6 11023.5 720.311  31
   1   1  -6 12331.8 654.557   5
   1   1  -6 11737.1 718.438  18
   1   1  -5 2611.11 325.198  31
   1   1  -5 2823.73 282.659  49
   1   1  -5 3195.73 314.676   5
   1   1  -5 2986.27 330.809  18
   1   1  -4 49020.3 1221.86  31
   1   1  -4 44033.8 1017.25   5
   1   1  -4 45438.8 870.874   9
   1   1  -4 51817.2 1006.30  49
   1   1  -3 3300.28 249.102   5
   1   1  -3 3176.74 194.952   9
   1   1  -3 3229.19 265.534  18
   1   1  -3 3324.72 284.333  31
   1   1  -3 3342.97 213.571  49
   1   1  -2 52466.6 649.320   9
   1   1  -2 54673.2 931.459  18
   1   1  -2 54146.6 656.307  49
   1   1  -1 896941. 3428.42  31
   1   1  -1 895264. 1536.30  49
   1   1   0 305930. 1726.67  14
   1   1   0 305223. 1597.86   5
   1   1   0 303510. 1512.48  18
   1   1   1 29160.8 518.541  14
   1   1   1 30440.1 574.322   2
   1   1   1 29324.6 404.054   5
   1   1   2 122719. 1140.61  14
   1   1   2 120538. 1267.42   7
   1   1   2 128342. 1348.98   2
   1   1   2 128825. 1283.72  22
   1   1   3 20024.9 522.411  14
   1   1   3 19900.5 585.807   7
   1   1   3 20380.0 610.800   2
   1   1   3 18909.5 581.757  22
   1   1   4 103230. 1348.68  14
   1   1   4 108383. 1553.17   7
   1   1   4 108071. 1609.07   2
   1   1   5 26118.5 754.282  14
   1   1   5 27744.0 900.077  22
   1   1   6 2729.82 277.704  14
   1   1   6 3422.84 342.237   7
   1   1   6 2795.29 318.798  22
   1   1   7 57380.7 1384.62  14
   1   1   7 61162.6 1609.47   7
   1   1   7 59182.5 1645.74  22
   1   1   8 25069.9 1126.72   7
   1   1   8 23328.9 714.210  36
   1   1   8 23431.0 595.188   6
   1   1   8 23070.9 549.403   3
   1   1   8 22784.3 1119.47  22
   1   1   8 22983.5 648.227  20
   1   1   8 22454.1 625.622  19
   1   1   8 23369.7 663.586  50
   1   1   9 2007.57 230.379  36
   1   1   9 2199.12 191.238   6
   1   1   9 2162.57 175.340   3
   1   1   9 1945.83 360.469  22
   1   1   9 2027.50 206.772  20
   1   1   9 1851.62 190.092  19
   1   1   9 1968.73 204.198  50
   1   1  10 16104.0 643.840  36
   1   1  10 15579.0 490.839   3
   1   1  10 15498.2 577.145  20
   1   1  10 15176.7 577.050  50
   1   1  11 9327.01 480.960  36
   1   1  11 9362.90 457.591  48
   1   1  11 9186.57 364.760   3
   1   1  11 9272.48 435.333  20
   1   1  11 9267.47 438.230  50
   1   1  12 417.991 78.3359   3
   1   1  12 224.191 79.8636  48
   1   1  12 187.572 73.4319  50
   1   1  12 304.611 87.6277  20
   1   1  13 678.550 92.0220  48
   1   1  13 705.338 76.5423   3
   1   1  13 685.203 91.7500  20
   1   1  13 628.855 88.7405  50
   1   2 -12 4722.91 193.376   1
   1   2 -12 3569.73 184.980  17
   1   2 -11 12558.1 391.405   1
   1   2 -11 9804.63 396.273  32
   1   2 -11 10233.1 405.012  29
   1   2 -11 10998.1 421.519  17
   1   2 -11 12493.6 408.831   4
   1   2 -10 7193.68 385.553  32
   1   2 -10 7507.08 393.450  29
   1   2 -10 6629.73 399.806  46
   1   2 -10 7832.96 374.441   4
   1   2 -10 7781.25 398.467  17
   1   2 -10 8069.97 347.836   1
   1   2  -9 309.314 110.676  46
   1   2  -9 154.633 72.0068   1
   1   2  -9 103.429 61.5160   4
   1   2  -9 100.150 72.5670  32
   1   2  -9 220.248 92.2394  29
   1   2  -9 158.430 89.0698  17
   1   2  -8 49168.4 1093.47  46
   1   2  -8 51851.0 1048.17  32
   1   2  -8 50489.9 1029.39  29
   1   2  -8 47485.2 1778.89  18
   1   2  -8 51098.3 987.268   4
   1   2  -8 49968.9 1025.00  17
   1   2  -8 49171.0 874.225   1
   1   2  -7 56735.7 1098.86  46
   1   2  -7 54518.4 1085.14  41
   1   2  -7 57792.5 1036.96  50
   1   2  -7 56362.2 1031.90  32
   1   2  -7 47302.7 1699.14  31
   1   2  -7 56625.1 1026.91  29
   1   2  -7 53273.0 1769.51  18
   1   2  -7 53357.2 863.034   1
   1   2  -7 55956.7 963.062   4
   1   2  -7 53790.5 1016.09  17
   1   2  -7 50259.0 765.189   3
   1   2  -6 20750.2 1036.65  31
   1   2  -6 22175.9 938.004   5
   1   2  -6 20299.7 1004.75  18
   1   2  -5 44462.3 1384.67  31
   1   2  -5 45903.4 1246.87   5
   1   2  -5 43536.2 1132.19  49
   1   2  -4 44569.5 1131.95   2
   1   2  -4 41874.5 1199.61  31
   1   2  -4 43183.4 1098.52   5
   1   2  -4 42451.8 1162.38  18
   1   2  -4 41064.7 951.798  49
   1   2  -3 176278. 2212.99  31
   1   2  -3 182136. 2038.42   5
   1   2  -3 177309. 2075.78  18
   1   2  -3 177058. 1662.95  49
   1   2  -2 375942. 2671.86   5
   1   2  -2 417796. 2798.49  18
   1   2  -1 613150. 3034.40   5
   1   2  -1 624165. 2915.99  18
   1   2   0 869749. 3301.93  31
   1   2   0 875076. 2775.10  18
   1   2   1 100278. 1131.93   7
   1   2   1 110240. 963.957  31
   1   2   1 106880. 961.223   5
   1   2   1 103202. 642.380  18
   1   2   2 170807. 1538.42  14
   1   2   2 163736. 1540.37   7
   1   2   2 175356. 951.107  31
   1   2   2 173566. 1638.07   2
   1   2   2 166470. 1534.25  22
   1   2   2 181490. 988.898   5
   1   2   3 1898.66 175.652  14
   1   2   3 1842.04 181.761   7
   1   2   3 1468.65 69.3529  31
   1   2   3 2219.97 209.405   2
   1   2   3 1693.78 178.362  22
   1   2   4 130475. 1607.59  14
   1   2   4 129644. 1623.64   7
   1   2   4 133833. 1784.80   2
   1   2   5 224761. 2352.16  14
   1   2   5 232959. 2419.80   7
   1   2   6 159998. 2195.60  14
   1   2   6 164627. 2256.99   7
   1   2   7 34651.4 1131.90  14
   1   2   7 35163.8 1154.33   7
   1   2   8 90725.0 1983.13  14
   1   2   8 96341.6 2068.73   7
   1   2   8 87034.0 1058.51   3
   1   2   8 90604.5 1146.55  21
   1   2   8 88888.9 1226.55  19
   1   2   8 93305.7 1311.16  50
   1   2   9 2114.65 239.048  36
   1   2   9 2504.39 189.218   3
   1   2   9 2334.24 196.046  21
   1   2   9 2397.67 213.727  19
   1   2   9 2355.14 223.873  50
   1   2  10 38981.2 947.135  48
   1   2  10 36017.1 957.346  36
   1   2  10 37319.2 755.233   3
   1   2  10 36560.3 785.043  21
   1   2  10 36961.9 905.512  50
   1   2  11 36494.1 915.711  48
   1   2  11 34715.0 931.865  36
   1   2  11 36288.1 737.426   3
   1   2  11 34886.5 868.256  50
   1   2  12 15545.4 548.004  48
   1   2  12 15101.0 525.375  50
   1   2  12 16498.7 455.442   3
   1   2  13 1603.08 150.218  48
   1   2  13 1802.69 158.342  50
   1   2  13 2000.94 136.049   3
   1   3 -11 2203.50 149.084   1
   1   3 -11 1949.88 165.044  17
   1   3 -10 487.607 108.984  29
   1   3 -10 550.304 96.0358   1
   1   3 -10 613.691 120.487  17
   1   3  -9 6927.09 383.420  32
   1   3  -9 6863.92 377.863  29
   1   3  -9 6554.48 376.133  17
   1   3  -9 7371.03 337.907   1
   1   3  -8 2682.54 243.571  32
   1   3  -8 2539.94 238.704  29
   1   3  -8 2666.72 209.092   1
   1   3  -8 2561.15 239.363  17
   1   3  -7 11614.0 890.518  31
   1   3  -7 14165.7 532.183  29
   1   3  -7 13663.6 554.441  28
   1   3  -7 14495.3 576.641  41
   1   3  -7 12728.7 435.801   1
   1   3  -7 15117.3 554.921  50
   1   3  -6 29720.8 1318.04  31
   1   3  -6 33635.2 755.767  29
   1   3  -6 31202.0 789.270  28
   1   3  -6 30211.9 746.484  23
   1   3  -6 30893.5 669.596  10
   1   3  -6 31131.8 1183.58   5
   1   3  -6 30243.4 626.951   1
   1   3  -6 32113.4 803.230  41
   1   3  -5 11986.8 771.058  31
   1   3  -5 11832.2 684.218   5
   1   3  -5 12392.3 753.410  18
   1   3  -4 42556.3 1320.24  31
   1   3  -4 44485.2 1221.81   5
   1   3  -4 43924.1 1272.97  18
   1   3  -4 40472.8 1032.82  49
   1   3  -3 127600. 1941.93  18
   1   3  -3 120568. 2011.27  31
   1   3  -2 209284. 2186.97  18
   1   3  -1 204998. 2149.94  31
   1   3  -1 203837. 2001.02   5
   1   3  -1 199074. 1869.13  18
   1   3   0 197572. 1786.06  14
   1   3   0 198578. 1886.41  31
   1   3   0 202228. 1559.49  18
   1   3   1 398384. 2483.36  14
   1   3   1 392645. 2319.96  31
   1   3   1 388791. 2280.80   5
   1   3   1 402996. 1624.96  18
   1   3   2 26070.1 655.371   7
   1   3   2 27114.1 530.034   5
   1   3   2 25549.8 539.557  31
   1   3   3 204708. 1968.11  14
   1   3   3 204119. 1901.35   7
   1   3   3 202651. 1396.91  31
   1   3   3 215620. 2101.98   2
   1   3   3 216221. 1993.60  22
   1   3   3 215659. 1264.65   5
   1   3   4 41116.7 902.068   7
   1   3   4 42016.3 1028.26   2
   1   3   4 40625.0 969.048  14
   1   3   4 40787.1 955.534  22
   1   3   5 1562.51 214.070  14
   1   3   5 1855.04 210.600   7
   1   3   5 1675.75 218.550  22
   1   3   6 35259.0 1084.04  14
   1   3   6 36656.5 1038.32   7
   1   3   6 37920.3 1153.57  22
   1   3   7 6866.94 518.436  14
   1   3   7 8000.69 524.820   7
   1   3   7 7090.09 555.717  22
   1   3   8 954.570 137.020  48
   1   3   8 989.582 145.617  36
   1   3   8 1012.73 136.457  33
   1   3   8 869.034 211.653  22
   1   3   8 1000.45 128.634  21
   1   3   8 900.554 128.949  20
   1   3   8 933.132 112.050   8
   1   3   8 1074.41 228.495  14
   1   3   8 1019.45 134.925  50
   1   3   9 19168.2 637.279  48
   1   3   9 18439.4 990.329  14
   1   3   9 18298.3 664.928  36
   1   3   9 18034.0 604.221  33
   1   3   9 17241.3 1015.23  22
   1   3   9 17600.1 546.823  21
   1   3   9 18815.1 601.193  20
   1   3   9 16922.9 490.360   8
   1   3   9 18139.7 607.460  50
   1   3  10 7654.74 423.076  48
   1   3  10 7420.13 434.586  36
   1   3  10 7121.50 391.314  33
   1   3  10 7738.60 367.801  21
   1   3  10 7460.00 392.470  20
   1   3  10 7488.91 319.542   8
   1   3  10 7397.24 401.174  50
   1   3  11 975.326 157.895  48
   1   3  11 955.863 154.773  50
   1   3  11 969.530 141.137  21
   1   3  11 1042.90 155.135  20
   1   3  12 569.332 120.537  48
   1   3  12 487.935 89.8576  21
   1   3  12 431.693 102.929  20
   1   3  12 623.471 118.798  50
   1   3  13 4104.08 241.909  50
   1   3  13 4550.39 251.538  20
   1   3  13 4020.33 241.298  48
   1   3  14 684.821 74.9927  20
   1   3  14 685.188 76.7260  50
   1   4 -11 381.102 56.1824   1
   1   4 -11 249.882 61.2177  17
   1   4 -10 1794.33 176.842  17
   1   4 -10 2129.03 157.892   1
   1   4  -9 6989.04 357.633  29
   1   4  -9 8126.88 411.269  17
   1   4  -8 2359.13 223.822  29
   1   4  -8 2304.92 194.885   1
   1   4  -7 10640.9 517.627  41
   1   4  -7 8586.71 798.996  31
   1   4  -7 10476.0 465.043  29
   1   4  -7 10370.0 500.901  28
   1   4  -7 10051.7 472.373  23
   1   4  -7 10826.9 414.824   1
   1   4  -7 10919.4 491.616  17
   1   4  -7 9888.08 464.036  50
   1   4  -7 10643.4 362.358   3
   1   4  -6 4640.75 325.700  41
   1   4  -6 4031.35 294.105  50
   1   4  -6 3847.87 515.857  31
   1   4  -6 4333.14 312.965  28
   1   4  -6 4310.98 305.246  23
   1   4  -6 3865.18 257.636  10
   1   4  -6 3759.14 451.156   5
   1   4  -6 3982.49 245.184   1
   1   4  -6 4180.04 516.139  18
   1   4  -6 4170.06 300.685  17
   1   4  -6 3808.80 212.261   3
   1   4  -5 41483.7 884.123  41
   1   4  -5 37879.3 1487.72  31
   1   4  -5 40880.7 879.003  28
   1   4  -5 40971.8 856.089  23
   1   4  -5 40257.8 776.770  10
   1   4  -5 43250.0 750.850   1
   1   4  -5 45462.6 1459.45   5
   1   4  -5 42008.3 1486.41  18
   1   4  -5 44594.7 877.488  17
   1   4  -5 42944.3 657.924   3
   1   4  -4 21781.5 1038.81  31
   1   4  -4 25354.5 1021.38   5
   1   4  -4 23450.8 1015.08  18
   1   4  -3 64290.2 1638.37  31
   1   4  -3 66859.7 1541.64  18
   1   4  -2 71497.1 1569.61  31
   1   4  -2 81094.8 1531.16  18
   1   4  -1 135794. 2005.61  31
   1   4  -1 139365. 1914.03   5
   1   4  -1 140179. 1745.43  18
   1   4   0 13618.2 525.106  14
   1   4   0 13379.2 584.041  31
   1   4   0 13983.2 563.681   5
   1   4   0 13877.7 481.808  18
   1   4   1 59926.6 1080.14  14
   1   4   1 56165.3 1076.23  31
   1   4   1 57543.8 1033.39   5
   1   4   1 58434.7 793.802  18
   1   4   2 64130.6 1154.24  14
   1   4   2 62694.5 1064.69  31
   1   4   3 98525.9 1258.36  31
   1   4   3 103831. 1548.74  14
   1   4   3 98302.3 1352.18   7
   1   4   3 103433. 1514.39   2
   1   4   3 93278.5 1138.11   5
   1   4   4 130015. 1389.59  31
   1   4   4 127986. 1842.80   2
   1   4   5 16078.5 706.974  14
   1   4   5 16168.4 613.497   7
   1   4   5 15443.2 674.424  22
   1   4   6 2470.43 298.271  14
   1   4   6 2312.76 256.121   7
   1   4   6 2372.87 296.787  22
   1   4   7 13076.5 747.385  14
   1   4   7 13224.2 745.672  22
   1   4   8 17437.2 581.246  48
   1   4   8 16425.7 588.900  36
   1   4   8 16510.2 577.318  33
   1   4   8 17081.5 468.222   3
   1   4   8 16726.6 922.772  22
   1   4   8 17180.4 526.647  21
   1   4   8 17115.4 547.360  20
   1   4   8 18160.4 954.988  14
   1   4   8 17350.9 475.256   8
   1   4   9 2139.81 220.413  48
   1   4   9 1908.72 328.439  14
   1   4   9 2009.64 216.272  33
   1   4   9 1855.07 164.996   3
   1   4   9 1672.32 311.065  22
   1   4   9 1870.03 181.342  21
   1   4   9 2165.20 207.547  20
   1   4   9 1956.25 170.234   8
   1   4  10 789.010 144.346  48
   1   4  10 713.273 136.057  33
   1   4  10 763.134 110.811   3
   1   4  10 724.551 118.962  21
   1   4  10 946.746 145.046  20
   1   4  10 691.873 104.150   8
   1   4  11 2484.46 249.050  48
   1   4  11 2666.82 245.448  33
   1   4  11 3163.40 217.595   3
   1   4  11 2725.10 225.180  21
   1   4  11 2745.39 239.250  20
   1   4  11 2910.15 204.392   8
   1   4  12 11409.0 483.695  48
   1   4  12 11277.2 447.448  33
   1   4  12 12409.5 409.053   3
   1   4  12 11536.1 421.660  21
   1   4  12 11612.6 470.526  20
   1   4  13 333.548 80.6174  48
   1   4  13 323.021 64.7530  21
   1   4  13 329.138 82.9466  20
   1   4  13 397.630 69.6131   3
   1   4  14 299.371 46.7591   3
   1   4  14 179.866 42.5983  20
   1   4  14 167.595 44.7046  48
   1   5 -10 10270.2 352.607  17
   1   5 -10 11842.1 315.012   1
   1   5  -9 5872.39 270.131   1
   1   5  -8 15284.1 484.756   1
   1   5  -8 15371.8 570.861  17
   1   5  -7 706.396 152.084  41
   1   5  -7 805.593 158.525  28
   1   5  -7 802.225 147.945  23
   1   5  -7 798.164 129.735  10
   1   5  -7 656.237 115.049   1
   1   5  -7 615.127 140.574  17
   1   5  -7 791.461 106.147   3
   1   5  -6 8426.24 448.704  41
   1   5  -6 7258.10 752.315  31
   1   5  -6 8721.87 457.276  28
   1   5  -6 8033.11 427.032  23
   1   5  -6 8309.60 390.506  10
   1   5  -6 8335.65 712.134   5
   1   5  -6 8731.10 374.935   1
   1   5  -6 8377.43 314.939   3
   1   5  -6 7867.37 748.792  18
   1   5  -6 8778.32 437.526  17
   1   5  -5 18239.9 632.481  41
   1   5  -5 18480.1 628.798  28
   1   5  -5 18625.8 551.455  10
   1   5  -5 18707.9 528.256   1
   1   5  -5 19295.6 1034.81   5
   1   5  -5 18152.6 1051.17  18
   1   5  -5 19536.4 620.255  17
   1   5  -5 19534.6 465.466   3
   1   5  -5 18809.5 616.982  23
   1   5  -4 32165.0 767.482  41
   1   5  -4 29023.1 1313.25  31
   1   5  -4 31223.0 754.898  28
   1   5  -4 30740.4 746.372  50
   1   5  -4 28573.6 711.284  23
   1   5  -4 29799.8 670.099  10
   1   5  -4 33004.7 656.012   1
   1   5  -4 34651.9 1325.05   5
   1   5  -4 31420.4 1272.69  18
   1   5  -4 32463.8 741.654  17
   1   5  -4 31967.3 565.213   3
   1   5  -3 22435.3 1076.25  31
   1   5  -3 25673.4 1068.37   5
   1   5  -3 23586.0 1006.71  18
   1   5  -2 63249.9 1654.76  31
   1   5  -2 73728.9 1608.45  18
   1   5  -1 33465.1 1143.06  31
   1   5  -1 35674.0 1007.54  18
   1   5   0 631.231 135.480  14
   1   5   0 438.798 143.020  31
   1   5   0 400.536 116.327   5
   1   5   0 458.885 109.687  18
   1   5   1 2645.05 258.803  14
   1   5   1 2724.90 285.897  31
   1   5   1 2796.63 271.312   5
   1   5   2 77821.9 1393.29  14
   1   5   2 74471.5 1385.50  31
   1   5   2 78745.8 1328.60   5
   1   5   3 30322.7 784.415   5
   1   5   3 30597.1 845.618  31
   1   5   4 72.6731 76.9588  14
   1   5   4 158.740 73.5951   7
   1   5   4 67.2600 45.9598  31
   1   5   5 20474.5 852.482  14
   1   5   5 20999.7 705.907   7
   1   5   6 10261.2 616.792  22
   1   5   7 88590.0 2016.89  14
   1   5   7 80442.2 1856.32  22
   1   5   8 5974.55 354.526  48
   1   5   8 6082.74 570.435  14
   1   5   8 6179.47 361.025  33
   1   5   8 6286.48 286.841   3
   1   5   8 6036.53 556.896  22
   1   5   8 6215.49 323.407  21
   1   5   8 6219.26 331.612  20
   1   5   8 6244.60 296.373   8
   1   5   8 5948.90 341.542  50
   1   5   9 10114.6 475.706  48
   1   5   9 9000.64 730.530  14
   1   5   9 9354.50 465.977  33
   1   5   9 9316.59 363.157   3
   1   5   9 9184.55 731.803  22
   1   5   9 9899.84 422.725  21
   1   5   9 9684.34 430.550  20
   1   5   9 9616.53 379.687   8
   1   5   9 9666.05 451.757  50
   1   5  10 3877.85 309.475  48
   1   5  10 3820.57 295.385  50
   1   5  10 3883.08 304.171  33
   1   5  10 3150.22 219.685   3
   1   5  10 3874.48 272.968  21
   1   5  10 3616.76 273.180  20
   1   5  10 3406.18 230.464   8
   1   5  11 52434.0 1096.05  48
   1   5  11 49929.7 1060.64  33
   1   5  11 50842.5 873.761   3
   1   5  11 50455.8 963.819  21
   1   5  11 51364.8 1002.27  20
   1   5  11 50208.4 867.653   8
   1   5  11 50308.0 1045.00  50
   1   5  12 2572.66 235.532  48
   1   5  12 2683.97 225.999  33
   1   5  12 3058.16 201.457   3
   1   5  12 2721.38 207.696  21
   1   5  12 2850.82 223.293  20
   1   5  12 2791.83 187.734   8
   1   5  12 2876.48 231.545  50
   1   5  13 3466.98 232.689  48
   1   5  13 3507.94 216.306  33
   1   5  13 4215.95 204.424   3
   1   5  13 3854.42 209.126  21
   1   5  13 3769.68 221.409  20
   1   5  13 3477.32 172.998   8
   1   5  13 3549.72 225.836  50
   1   5  14 593.108 61.6782   3
   1   5  14 449.177 65.5782  48
   1   5  14 522.668 70.9025  50
   1   6  -9 1665.20 151.216  17
   1   6  -9 1498.26 120.520   1
   1   6  -8 3257.86 209.514   1
   1   6  -8 3742.00 265.241  17
   1   6  -7 9187.33 436.986  50
   1   6  -7 7978.76 432.782  41
   1   6  -7 9504.46 469.411  28
   1   6  -7 8545.09 431.135  23
   1   6  -7 9180.26 388.146  10
   1   6  -7 9421.79 379.915   1
   1   6  -7 9483.56 442.728  17
   1   6  -6 5522.38 375.855  41
   1   6  -6 5459.10 364.253  50
   1   6  -6 5480.05 367.115  28
   1   6  -6 5616.12 364.927  23
   1   6  -6 6202.12 336.941  10
   1   6  -6 6335.33 322.895   1
   1   6  -6 6748.54 384.207  17
   1   6  -6 6486.39 289.677   3
   1   6  -5 3987.81 307.763  41
   1   6  -5 3167.33 497.309  31
   1   6  -5 4352.73 319.571  28
   1   6  -5 3838.00 297.940  23
   1   6  -5 4230.13 273.249  10
   1   6  -5 4186.30 261.981   1
   1   6  -5 4385.49 523.082   5
   1   6  -5 3896.77 518.767  18
   1   6  -5 4283.00 299.361  17
   1   6  -5 3754.38 305.563  50
   1   6  -5 3995.24 222.340   3
   1   6  -4 3053.38 262.189  41
   1   6  -4 2546.26 436.796  31
   1   6  -4 3073.72 261.770  28
   1   6  -4 2926.03 257.627  50
   1   6  -4 2769.30 222.796  10
   1   6  -4 2970.56 214.904   1
   1   6  -4 3028.30 430.085   5
   1   6  -4 3045.34 430.202  18
   1   6  -4 2874.79 249.029  17
   1   6  -4 2385.43 174.699   3
   1   6  -3 46194.5 916.049  41
   1   6  -3 39971.4 892.943  35
   1   6  -3 38464.3 1558.43  31
   1   6  -3 43910.9 881.604  28
   1   6  -3 46718.7 956.480  50
   1   6  -3 41027.5 756.492   1
   1   6  -3 40892.4 800.487  10
   1   6  -3 42530.6 840.848  21
   1   6  -3 43877.7 1528.99   5
   1   6  -3 43279.5 1478.44  18
   1   6  -3 42594.7 851.888  17
   1   6  -3 37958.9 638.819   3
   1   6  -2 62829.9 1824.40  31
   1   6  -2 71648.5 1743.62  18
   1   6  -1 144.908 101.638  31
   1   6  -1 122.201 76.5004   5
   1   6  -1 218.549 97.4023  18
   1   6   0 1140.65 236.036  31
   1   6   0 1318.26 229.492   5
   1   6   1 8518.28 512.690  14
   1   6   1 9191.47 556.526   5
   1   6   2 62641.6 1381.88  14
   1   6   2 60961.5 1441.98  31
   1   6   2 63829.6 1382.77   5
   1   6   3 6963.46 477.310  14
   1   6   3 6411.06 456.366  31
   1   6   3 6797.20 438.828   5
   1   6   4 1448.79 233.719  14
   1   6   4 1680.57 232.193  31
   1   6   5 5927.47 494.279  14
   1   6   6 54779.3 1577.07  14
   1   6   7 14592.3 538.822  48
   1   6   7 15248.7 491.394  27
   1   6   7 14410.6 426.105   3
   1   6   7 15113.7 498.294  21
   1   6   7 14463.5 519.021  50
   1   6   8 32511.0 1361.97  14
   1   6   8 32102.7 840.973  33
   1   6   8 30513.0 647.002   3
   1   6   8 32150.9 756.795  21
   1   6   8 32642.9 835.035  48
   1   6   8 31863.0 800.937  50
   1   6   8 31656.2 678.385   8
   1   6   9 157848. 3140.29  14
   1   6   9 162488. 1954.04  33
   1   6   9 153612. 1480.60   3
   1   6   9 156900. 1746.17  21
   1   6   9 165139. 1961.05  48
   1   6   9 164158. 1750.53  20
   1   6   9 158613. 1569.10   8
   1   6   9 158791. 1855.97  50
   1   6  10 30776.1 853.543  48
   1   6  10 30473.9 855.184  33
   1   6  10 31412.8 680.696   3
   1   6  10 30807.2 768.493  21
   1   6  10 31331.6 780.642  20
   1   6  10 31365.3 711.704   8
   1   6  10 29983.2 816.868  50
   1   6  11 2727.93 252.182  48
   1   6  11 2414.75 242.049  33
   1   6  11 2737.33 198.985   3
   1   6  11 2619.22 223.079  21
   1   6  11 2572.61 223.404  20
   1   6  11 2888.62 209.307   8
   1   6  11 2585.41 235.846  50
   1   6  12 95.0476 67.8587  48
   1   6  12 128.079 53.1793   3
   1   6  12 199.853 81.0484  33
   1   6  12 204.782 85.6075  50
   1   6  12 149.657 64.7582  21
   1   6  12 130.731 61.2815  20
   1   6  12 102.019 47.8806   8
   1   6  13 1094.46 124.691  47
   1   6  13 1277.31 109.701   3
   1   6  13 1177.92 122.958  21
   1   6  13 1068.23 111.860  20
   1   6  13 1138.77 138.403  48
   1   6  13 1060.61 101.415   8
   1   6  13 1150.06 126.986  50
   1   6  14 242.783 53.8550  48
   1   6  14 197.024 35.2601   3
   1   6  14 221.739 48.4399  50
   1   7  -9 1092.73 97.1122  17
   1   7  -8 7799.60 320.274  17
   1   7  -8 8577.76 284.008   1
   1   7  -7 916.398 145.627  41
   1   7  -7 984.831 120.007  10
   1   7  -7 962.132 116.872   1
   1   7  -7 993.284 137.935  17
   1   7  -6 8500.52 307.080   3
   1   7  -6 7354.61 404.067  28
   1   7  -6 6860.74 397.105  23
   1   7  -6 8580.40 380.488  10
   1   7  -6 6888.59 374.929  50
   1   7  -6 7106.21 402.793  41
   1   7  -6 9040.30 369.948   1
   1   7  -6 8289.73 406.070  17
   1   7  -5 320.324 112.732  41
   1   7  -5 392.490 75.6980   3
   1   7  -5 392.180 113.407  28
   1   7  -5 320.337 111.199  23
   1   7  -5 447.174 106.084  10
   1   7  -5 420.816 95.3761   1
   1   7  -5 350.888 109.226  50
   1   7  -5 344.092 101.826  17
   1   7  -4 2588.92 251.126  41
   1   7  -4 2879.26 256.621  28
   1   7  -4 2880.20 235.610  10
   1   7  -4 2899.45 226.816   1
   1   7  -4 2584.24 250.093  50
   1   7  -4 3072.26 251.590  17
   1   7  -4 2734.15 189.386   3
   1   7  -3 6504.04 371.611  41
   1   7  -3 5568.07 364.784  35
   1   7  -3 6388.54 365.580  28
   1   7  -3 6498.64 321.786   1
   1   7  -3 6216.57 333.809  10
   1   7  -3 5328.06 627.767  31
   1   7  -3 6661.38 659.093   5
   1   7  -3 6172.94 597.776  18
   1   7  -3 6967.98 355.207  17
   1   7  -3 5722.69 265.516   3
   1   7  -3 5604.75 369.444  50
   1   7  -2 7660.19 374.075  43
   1   7  -2 7264.40 381.185  41
   1   7  -2 7780.10 405.834  35
   1   7  -2 7524.94 701.205  31
   1   7  -2 7711.55 389.390  23
   1   7  -2 7891.82 372.272  21
   1   7  -2 8116.47 310.353   3
   1   7  -2 7732.63 403.003  50
   1   7  -1 27393.8 674.665  43
   1   7  -1 27742.9 726.120  35
   1   7  -1 27446.3 626.148  12
   1   7  -1 26755.3 1283.19  31
   1   7  -1 27265.9 690.185  23
   1   7  -1 28231.3 670.994  10
   1   7  -1 28408.5 677.929  21
   1   7  -1 29659.8 752.549  50
   1   7  -1 27047.8 532.512   3
   1   7   0 40535.5 1466.28  31
   1   7   0 42853.7 783.114  10
   1   7   1 9195.14 676.377  31
   1   7   1 11791.4 707.534   5
   1   7   2 119526. 2091.68  14
   1   7   2 124651. 2184.06   5
   1   7   3 18189.8 839.054  14
   1   7   3 17329.8 843.104  31
   1   7   3 18013.8 819.893   5
   1   7   4 4641.89 441.966  14
   1   7   4 4087.15 405.988  31
   1   7   5 22124.0 626.092  47
   1   7   5 20395.0 605.263  42
   1   7   5 19975.6 957.284  14
   1   7   5 18553.9 509.460  12
   1   7   5 20479.5 579.317  27
   1   7   5 20547.2 564.860  21
   1   7   5 21902.6 623.764  50
   1   7   6 26046.6 736.256  48
   1   7   6 27211.4 716.526  47
   1   7   6 27707.7 719.905  42
   1   7   6 27774.2 1182.98  14
   1   7   6 25593.4 727.030  33
   1   7   6 26384.0 617.010  12
   1   7   6 26701.8 674.557  27
   1   7   6 25968.0 559.976   3
   1   7   6 26740.9 659.676  21
   1   7   6 27299.2 709.332  50
   1   7   6 27316.4 596.193   8
   1   7   7 24671.3 726.638  48
   1   7   7 25957.9 720.749  47
   1   7   7 25210.4 701.815  42
   1   7   7 24532.6 1172.45  14
   1   7   7 23598.4 722.323  33
   1   7   7 22807.8 586.563  12
   1   7   7 24232.8 660.135  27
   1   7   7 22866.0 551.027   3
   1   7   7 23313.4 582.931   8
   1   7   7 25331.8 702.643  50
   1   7   8 4854.03 336.157  48
   1   7   8 5062.99 317.475  42
   1   7   8 4156.34 504.158  14
   1   7   8 4613.87 296.316  27
   1   7   8 4074.93 240.958   3
   1   7   8 3925.99 271.932  21
   1   7   8 4673.73 267.737   8
   1   7   8 4504.44 314.529  50
   1   7   9 38397.9 953.801  48
   1   7   9 36130.1 933.826  33
   1   7   9 37577.2 831.943  27
   1   7   9 34400.9 708.483   3
   1   7   9 36671.4 850.020  21
   1   7   9 35746.4 897.120  50
   1   7  10 66099.7 1213.38  50
   1   7  10 67895.9 1267.62  48
   1   7  10 67663.7 1276.50  33
   1   7  10 67821.4 988.361   3
   1   7  10 67634.9 1139.13  21
   1   7  10 67251.9 1044.63   8
   1   7  11 954.824 167.547  48
   1   7  11 1062.88 155.660  47
   1   7  11 859.062 144.240  33
   1   7  11 996.238 116.480   3
   1   7  11 1149.65 146.934  21
   1   7  11 854.195 108.848   8
   1   7  11 1004.44 150.326  50
   1   7  12 95.6837 49.2459   8
   1   7  12 74.2580 69.1891  48
   1   7  12 108.171 46.7891   3
   1   7  12 123.292 65.5618  47
   1   7  12 104.105 77.5496  33
   1   7  12 66.3348 56.7479  21
   1   7  12 208.748 77.0990  50
   1   7  13 3135.58 196.657  47
   1   7  13 3442.89 164.899   3
   1   7  13 3262.64 187.986  21
   1   7  13 3052.66 194.891  50
   1   7  13 3513.60 177.224   8
   1   7  13 2950.11 206.720  48
   1   8  -7 3354.19 177.306   1
   1   8  -7 3109.04 195.645  17
   1   8  -6 38.1229 62.7124  41
   1   8  -6 83.3989 74.1088  23
   1   8  -6 197.093 68.0237  10
   1   8  -6 263.483 70.2069   1
   1   8  -6 93.4283 52.0310  17
   1   8  -6 178.620 75.2384  50
   1   8  -5 2761.09 255.845  41
   1   8  -5 2776.01 244.821  28
   1   8  -5 2643.10 249.345  23
   1   8  -5 2821.58 223.688  10
   1   8  -5 3027.90 210.709   1
   1   8  -5 2740.99 171.330   3
   1   8  -5 3126.79 239.534  17
   1   8  -5 2677.75 235.941  50
   1   8  -4 1237.04 182.004  41
   1   8  -4 1615.75 194.915  28
   1   8  -4 1289.05 169.119  10
   1   8  -4 1116.40 177.385  50
   1   8  -4 1222.82 150.539   1
   1   8  -4 1533.45 176.187  17
   1   8  -4 1038.37 113.844   3
   1   8  -3 19535.7 666.733  41
   1   8  -3 19189.0 633.421  28
   1   8  -3 18196.0 672.122  50
   1   8  -3 20144.9 624.026  10
   1   8  -3 20571.6 584.994   1
   1   8  -3 17602.9 473.389   3
   1   8  -2 871.739 147.521  43
   1   8  -2 687.398 138.168  41
   1   8  -2 552.866 143.771  50
   1   8  -2 681.287 145.696  35
   1   8  -2 635.405 240.763  31
   1   8  -2 862.359 130.663   1
   1   8  -2 832.590 150.691  23
   1   8  -2 551.145 113.750  21
   1   8  -2 701.560 107.101   3
   1   8  -1 7311.48 385.311  43
   1   8  -1 8096.54 420.831  35
   1   8  -1 8540.18 365.938  12
   1   8  -1 7402.64 732.386  31
   1   8  -1 7854.16 401.698  23
   1   8  -1 8575.61 395.425  10
   1   8  -1 7676.35 308.022   3
   1   8  -1 7743.97 410.834  50
   1   8   0 11785.2 471.578  43
   1   8   0 12105.7 500.024  35
   1   8   0 12064.3 436.088  12
   1   8   0 10364.9 823.382  31
   1   8   0 12029.1 476.370  23
   1   8   0 12156.6 460.287  10
   1   8   0 11780.0 365.806   3
   1   8   0 12081.3 500.563  50
   1   8   1 56850.8 992.121  43
   1   8   1 54944.4 1028.71  35
   1   8   1 56061.2 934.777  12
   1   8   1 52350.1 1769.96  31
   1   8   1 55559.9 988.894  23
   1   8   1 57769.1 959.199  10
   1   8   1 58483.9 1074.55  50
   1   8   1 57749.2 993.201  21
   1   8   1 62790.7 1808.78   5
   1   8   1 51875.7 765.819   3
   1   8   2 80044.6 1282.94  47
   1   8   2 77255.9 1273.01  42
   1   8   2 81723.9 1200.75  35
   1   8   2 78962.1 1107.25  12
   1   8   2 78400.0 2082.60  31
   1   8   2 78967.0 1146.62  23
   1   8   2 83272.4 1113.45  10
   1   8   2 80030.8 1157.99  21
   1   8   2 75604.4 933.391   3
   1   8   2 83542.8 1179.32  43
   1   8   2 80911.4 1270.38  50
   1   8   3 7038.36 347.931  43
   1   8   3 6782.43 335.621  35
   1   8   3 6116.40 312.827  12
   1   8   3 6451.32 568.634  31
   1   8   3 6461.43 351.306  27
   1   8   3 7036.44 375.863  47
   1   8   3 6812.73 327.787  23
   1   8   3 6241.64 329.648  21
   1   8   3 6972.35 558.901   5
   1   8   3 6087.54 265.898   3
   1   8   3 6811.81 369.302  50
   1   8   4 25284.8 713.300  47
   1   8   4 24305.5 707.139  42
   1   8   4 23162.7 1046.98  14
   1   8   4 23064.5 606.689  12
   1   8   4 23090.4 657.697  27
   1   8   4 22149.3 627.402  21
   1   8   4 21822.7 507.731   3
   1   8   4 24564.9 692.115  50
   1   8   5 22071.2 674.558  47
   1   8   5 21357.5 676.268  42
   1   8   5 21338.5 1037.71  14
   1   8   5 20210.5 572.131  12
   1   8   5 21322.2 636.330  27
   1   8   5 22143.4 657.001  50
   1   8   5 20673.4 605.433  21
   1   8   5 19720.0 489.951   3
   1   8   5 20826.8 525.467   8
   1   8   6 26668.5 757.763  42
   1   8   6 26889.2 1216.85  14
   1   8   6 27030.6 661.996  12
   1   8   6 26287.0 719.421  27
   1   8   6 25357.4 570.571   3
   1   8   6 26695.7 690.620  21
   1   8   6 27339.8 615.938   8
   1   8   6 27198.8 756.112  47
   1   8   6 26603.3 731.998  50
   1   8   7 4591.70 318.851  47
   1   8   7 4142.81 309.201  42
   1   8   7 4906.93 543.153  14
   1   8   7 4603.37 281.170  12
   1   8   7 4457.95 299.020  27
   1   8   7 4495.43 250.418   3
   1   8   7 4304.63 292.062  21
   1   8   7 4676.25 262.956   8
   1   8   7 4210.61 296.283  50
   1   8   8 2273.71 243.372  48
   1   8   8 2535.01 246.189  47
   1   8   8 2709.64 244.776  42
   1   8   8 2399.83 245.990  33
   1   8   8 2346.15 199.770  12
   1   8   8 2480.71 223.601  27
   1   8   8 2128.81 180.530   3
   1   8   8 2420.95 222.214  21
   1   8   8 2510.27 202.338   8
   1   8   8 2333.59 233.314  50
   1   8   9 36973.9 949.623  48
   1   8   9 38220.8 924.409  47
   1   8   9 38409.5 884.280  42
   1   8   9 36075.3 939.347  33
   1   8   9 38537.2 867.604  27
   1   8   9 36359.3 718.613   3
   1   8   9 38270.2 781.789   8
   1   8   9 38628.8 916.308  50
   1   8  10 2098.14 230.732  48
   1   8  10 2500.24 238.966  47
   1   8  10 2308.75 205.391  27
   1   8  10 2495.81 183.547   3
   1   8  10 2193.47 210.517  21
   1   8  10 2111.41 184.613   8
   1   8  10 2106.29 217.234  50
   1   8  11 3345.32 281.358  48
   1   8  11 4071.62 281.846  47
   1   8  11 3690.62 280.865  33
   1   8  11 3879.57 273.684  50
   1   8  11 4171.75 225.070   3
   1   8  11 4044.40 265.842  21
   1   8  12 5263.99 287.493  47
   1   8  12 5425.78 223.563   3
   1   8  12 5336.85 275.059  21
   1   8  12 5456.58 249.367   8
   1   8  12 5329.12 281.756  50
   1   8  13 1291.67 119.843  47
   1   8  13 1130.94 83.2816   3
   1   8  13 1412.16 120.271  21
   1   8  13 1261.20 101.212   8
   1   8  13 1071.46 110.378  50
   1   9  -6 605.522 81.1054  10
   1   9  -6 683.371 79.5799   1
   1   9  -6 653.245 85.8179  17
   1   9  -5 1525.57 172.221  23
   1   9  -5 1461.43 150.162  10
   1   9  -5 1477.88 136.136   1
   1   9  -5 1480.97 143.428  17
   1   9  -5 1079.26 141.059  50
   1   9  -5 1101.01 142.293  41
   1   9  -4 6773.67 369.986  41
   1   9  -4 7123.66 368.238  50
   1   9  -4 7251.14 357.044  28
   1   9  -4 8315.94 371.653  10
   1   9  -4 8239.59 348.227   1
   1   9  -4 8324.79 271.421   3
   1   9  -3 1752.90 208.768  41
   1   9  -3 2536.84 220.050  10
   1   9  -3 2173.56 193.758   1
   1   9  -3 2252.04 156.652   3
   1   9  -3 1741.98 206.980  50
   1   9  -2 4984.39 333.940  41
   1   9  -2 5108.00 356.141  35
   1   9  -2 5624.80 353.908  23
   1   9  -2 5030.56 304.573   1
   1   9  -2 4648.33 330.795  50
   1   9  -2 4868.23 243.334   3
   1   9  -1 5087.63 328.178  43
   1   9  -1 5029.71 328.329  41
   1   9  -1 4791.94 342.927  35
   1   9  -1 5007.30 335.269  23
   1   9  -1 5625.32 338.937  10
   1   9  -1 4868.61 307.933  21
   1   9  -1 4815.67 245.220   3
   1   9  -1 4386.25 328.585  50
   1   9   0 1092.36 161.573  43
   1   9   0 1214.61 179.470  35
   1   9   0 1010.25 138.209  12
   1   9   0 1134.88 163.799  23
   1   9   0 948.112 136.261  10
   1   9   0 877.564 142.216  21
   1   9   0 903.720 109.223   3
   1   9   0 979.014 166.229  50
   1   9   1 10837.8 465.786  43
   1   9   1 10685.1 486.315  35
   1   9   1 10842.6 432.491  12
   1   9   1 10522.6 866.849  31
   1   9   1 10810.1 465.481  23
   1   9   1 11590.1 450.921  10
   1   9   1 10367.2 447.578  21
   1   9   1 12512.1 874.159   5
   1   9   1 10233.5 478.277  50
   1   9   2 20383.3 625.494  43
   1   9   2 20515.9 649.014  35
   1   9   2 19018.3 567.502  12
   1   9   2 18330.6 1105.44  31
   1   9   2 20735.9 664.549  50
   1   9   2 19703.8 609.554  23
   1   9   2 20300.5 582.238  10
   1   9   2 18770.7 596.309  21
   1   9   2 21118.1 1102.45   5
   1   9   3 67131.2 1124.17  43
   1   9   3 62238.9 1223.39  42
   1   9   3 66308.5 1131.85  35
   1   9   3 66093.8 1062.89  12
   1   9   3 60549.0 1959.50  31
   1   9   3 66037.6 1230.37  47
   1   9   3 65680.1 1088.39  23
   1   9   3 65226.3 1030.97  10
   1   9   3 63382.2 1097.42  21
   1   9   3 67899.8 1893.85   5
   1   9   3 66787.5 1197.40  50
   1   9   4 18471.1 646.103  47
   1   9   4 17904.7 589.675  43
   1   9   4 17628.0 619.639  50
   1   9   4 17430.7 612.007  27
   1   9   4 17579.2 558.185  23
   1   9   4 18305.1 583.034  21
   1   9   5 6614.30 395.101  47
   1   9   5 7093.92 411.078  42
   1   9   5 6730.53 347.298  12
   1   9   5 6648.05 387.411  27
   1   9   5 6910.13 388.182  50
   1   9   5 6872.00 363.544  21
   1   9   6 7962.34 429.087  47
   1   9   6 7568.89 420.809  42
   1   9   6 7801.72 670.919  14
   1   9   6 8205.89 381.477  12
   1   9   6 7981.79 408.466  27
   1   9   6 7989.23 387.541  21
   1   9   6 7678.08 319.735   3
   1   9   6 7106.76 408.831  50
   1   9   6 8483.22 345.573   8
   1   9   7 13907.1 574.260  47
   1   9   7 14196.3 577.306  42
   1   9   7 13667.7 494.560  12
   1   9   7 13709.0 543.825  27
   1   9   7 13648.8 519.358  21
   1   9   7 13235.8 421.986   3
   1   9   7 13256.6 550.540  50
   1   9   7 13730.1 455.923   8
   1   9   8 56909.4 1144.03  47
   1   9   8 55413.3 1121.22  42
   1   9   8 54803.3 968.651  12
   1   9   8 54656.3 1069.28  27
   1   9   8 55603.7 1095.16  50
   1   9   8 55771.4 1057.85  21
   1   9   8 54525.3 849.064   3
   1   9   8 56304.6 928.375   8
   1   9   9 21128.3 685.515  47
   1   9   9 20172.6 650.392  42
   1   9   9 20787.5 567.792  12
   1   9   9 20402.7 630.266  27
   1   9   9 21123.9 514.989   3
   1   9   9 20583.6 633.882  21
   1   9   9 22050.6 576.987   8
   1   9   9 20740.2 662.290  50
   1   9  10 4389.70 298.083  47
   1   9  10 4260.23 270.759  27
   1   9  10 4203.09 220.354   3
   1   9  10 4489.17 255.014   8
   1   9  10 3947.04 280.342  50
   1   9  11 2879.66 222.816  47
   1   9  11 2686.00 212.639  50
   1   9  11 2573.18 156.959   3
   1   9  11 2808.08 188.648   8
   1   9  12 5642.13 274.949  47
   1   9  12 6126.48 273.356  21
   1   9  12 5547.13 265.735  50
   1   9  13 2233.34 133.632  21
   1   9  13 2532.16 127.268   8
   1   9  13 1939.97 130.369  47
   1   9  13 1718.65 117.761  50
   1  10  -5 1293.73 108.566  10
   1  10  -5 1353.26 100.722   1
   1  10  -4 2598.60 185.614  10
   1  10  -4 2716.15 169.068   1
   1  10  -3 624.656 118.149  41
   1  10  -3 475.164 103.209  10
   1  10  -3 448.789 99.2820  50
   1  10  -3 434.908 81.9148   1
   1  10  -2 981.685 144.965  41
   1  10  -2 730.535 133.810  50
   1  10  -2 1061.24 152.803  23
   1  10  -2 951.205 131.800   1
   1  10  -1 14425.4 538.048  41
   1  10  -1 15020.3 586.910  35
   1  10  -1 14849.9 553.456  23
   1  10  -1 14165.4 474.520   1
   1  10  -1 13766.8 536.056  50
   1  10   0 22435.1 670.714  43
   1  10   0 21597.2 657.401  41
   1  10   0 21908.4 704.975  35
   1  10   0 21334.4 583.451  12
   1  10   0 22292.7 691.280  50
   1  10   0 21038.5 672.890  23
   1  10   0 23000.5 648.188  10
   1  10   1 20195.8 646.183  43
   1  10   1 20971.8 693.142  35
   1  10   1 22687.8 618.259  12
   1  10   1 20551.3 671.807  50
   1  10   1 22015.1 671.486  23
   1  10   1 20478.8 627.318  21
   1  10   2 4378.54 303.991  43
   1  10   2 3763.06 291.949  35
   1  10   2 4123.12 272.131  12
   1  10   2 4109.46 295.138  23
   1  10   2 4139.90 273.611  10
   1  10   2 3948.66 282.604  21
   1  10   2 3341.46 287.289  50
   1  10   3 11475.1 488.583  43
   1  10   3 12030.1 499.651  35
   1  10   3 12950.3 484.138  12
   1  10   3 10835.6 506.884  50
   1  10   3 12832.1 499.883  23
   1  10   3 13246.6 473.634  10
   1  10   3 11508.7 492.952  21
   1  10   4 19017.3 682.668  47
   1  10   4 19720.1 633.088  43
   1  10   4 21440.6 629.847  12
   1  10   4 21285.7 625.847  23
   1  10   4 19578.8 628.934  21
   1  10   4 19660.6 677.532  50
   1  10   5 21880.4 731.630  47
   1  10   5 22488.2 669.172  43
   1  10   5 21331.2 737.603  42
   1  10   5 20610.2 683.000  27
   1  10   5 22540.9 660.808  21
   1  10   5 20927.6 701.892  50
   1  10   6 13699.6 574.186  47
   1  10   6 13558.1 521.919  43
   1  10   6 13374.1 574.118  42
   1  10   6 13178.5 493.990  12
   1  10   6 13144.6 540.186  27
   1  10   6 13028.3 503.565  21
   1  10   6 14037.0 554.716  50
   1  10   7 5260.18 357.992  47
   1  10   7 5474.84 359.278  42
   1  10   7 5323.35 312.532  12
   1  10   7 5315.04 342.837  27
   1  10   7 5878.95 337.940  21
   1  10   7 5319.55 274.374   8
   1  10   7 5216.02 337.116  50
   1  10   8 1236.83 187.396  47
   1  10   8 1398.40 186.198  42
   1  10   8 1364.84 157.511  12
   1  10   8 1166.65 167.446  27
   1  10   8 1165.11 158.166  21
   1  10   8 1190.10 165.920  50
   1  10   8 1331.31 139.430   8
   1  10   9 426.864 82.9790   8
   1  10   9 263.384 104.151  47
   1  10   9 336.603 103.342  42
   1  10   9 432.844 88.4410  12
   1  10   9 360.802 93.4617  27
   1  10   9 427.155 97.8633  21
   1  10   9 280.123 87.2908  50
   1  10  10 1197.69 154.028  47
   1  10  10 1138.17 140.269  42
   1  10  10 1175.04 143.991  27
   1  10  10 1170.34 140.225  21
   1  10  10 1179.37 121.594   8
   1  10  10 1184.08 148.444  50
   1  10  11 1700.70 167.760  47
   1  10  11 1801.54 146.317  27
   1  10  11 1925.89 158.311  21
   1  10  11 1995.55 142.920   8
   1  10  11 1542.77 152.624  50
   1  10  12 4560.53 222.713  47
   1  10  12 4334.07 198.437  50
   1  11  -3 1691.63 136.635  10
   1  11  -3 1463.12 110.615   1
   1  11  -2 1510.76 162.017  23
   1  11  -2 1401.82 123.229   1
   1  11  -2 1092.72 131.777  50
   1  11  -1 4531.76 280.341  23
   1  11  -1 5106.82 277.291  10
   1  11  -1 4773.05 250.349   1
   1  11   0 1602.78 189.008  35
   1  11   0 1781.75 165.748   1
   1  11   0 1484.26 173.334  23
   1  11   0 1974.59 191.659  10
   1  11   1 2153.09 204.726  43
   1  11   1 2022.16 221.168  35
   1  11   1 1632.25 162.535  12
   1  11   1 2027.79 210.353  23
   1  11   1 1899.36 180.522  10
   1  11   1 1903.07 193.416  50
   1  11   2 10998.8 463.440  43
   1  11   2 10865.8 475.495  35
   1  11   2 12120.6 444.895  12
   1  11   2 10852.6 456.285  23
   1  11   2 12301.6 451.646  10
   1  11   2 11177.2 474.029  50
   1  11   3 10311.7 450.736  43
   1  11   3 9795.82 448.630  35
   1  11   3 10948.7 433.551  12
   1  11   3 11014.7 453.112  23
   1  11   3 10562.8 408.325  10
   1  11   3 9900.44 430.584  21
   1  11   3 9926.22 460.960  50
   1  11   4 410.069 109.292  50
   1  11   4 523.712 127.106  43
   1  11   4 536.879 117.050  35
   1  11   4 344.983 91.0183  12
   1  11   4 300.024 94.1260  23
   1  11   4 380.948 97.8039  21
   1  11   5 5930.87 377.170  47
   1  11   5 5997.82 343.613  43
   1  11   5 6047.97 333.771  12
   1  11   5 5504.94 339.660  50
   1  11   5 6048.82 324.262  23
   1  11   5 6173.98 338.057  21
   1  11   6 14604.2 572.101  47
   1  11   6 14052.8 512.033  43
   1  11   6 14849.6 585.011  42
   1  11   6 15245.5 513.075  12
   1  11   6 14122.8 544.370  27
   1  11   6 15093.8 516.604  21
   1  11   6 15094.6 548.966  50
   1  11   7 33968.3 855.284  47
   1  11   7 35712.2 790.972  43
   1  11   7 33711.5 857.648  42
   1  11   7 35826.5 755.477  12
   1  11   7 35039.9 821.027  27
   1  11   7 35039.5 769.720  21
   1  11   7 34849.5 809.122  50
   1  11   8 9804.87 440.808  47
   1  11   8 9853.91 404.275  43
   1  11   8 9607.48 436.467  42
   1  11   8 10951.4 398.417  12
   1  11   8 10119.0 426.910  27
   1  11   8 9181.71 404.908  50
   1  11   8 10336.4 402.911  21
   1  11   8 9236.45 318.245   8
   1  11   9 314.050 59.8893   8
   1  11   9 300.330 99.1688  47
   1  11   9 373.392 93.0432  43
   1  11   9 431.172 96.7345  42
   1  11   9 396.119 80.1057  12
   1  11   9 353.092 87.8514  27
   1  11   9 376.405 80.6117  21
   1  11   9 254.700 75.0639  50
   1  11  10 237.209 50.6882   8
   1  11  10 120.528 62.8691  47
   1  11  10 159.456 61.0396  43
   1  11  10 147.282 55.0642  42
   1  11  10 200.043 50.8489  12
   1  11  10 136.722 55.3794  27
   1  11  10 178.705 53.3757  21
   1  11  10 127.880 59.7964  50
   1  11  11 2316.75 164.650  47
   1  11  11 2632.23 161.098  43
   1  11  11 2230.44 138.503  27
   1  11  11 2671.25 161.541  21
   1  11  11 2172.44 121.433   8
   1  11  11 2262.66 144.022  50
   1  12  -2 3445.96 175.962  23
   1  12  -1 1015.79 114.130  23
   1  12  -1 1157.73 94.4975   1
   1  12   0 2408.70 185.981  23
   1  12   0 2361.60 171.263  10
   1  12   0 2175.43 145.734   1
   1  12   1 2248.36 185.355  23
   1  12   1 1585.89 135.939   1
   1  12   1 2020.29 161.875  10
   1  12   1 1504.42 147.339  50
   1  12   2 12296.1 433.385  43
   1  12   2 13165.4 396.749  12
   1  12   2 13377.4 448.125  23
   1  12   2 13689.6 423.769  10
   1  12   3 2771.60 215.403  43
   1  12   3 2794.44 216.987  35
   1  12   3 3086.64 206.512  12
   1  12   3 3255.39 222.246  23
   1  12   3 2856.44 194.454  10
   1  12   4 46.3908 61.1009  43
   1  12   4-30.7280 39.6594  12
   1  12   4 84.1282 60.4449  50
   1  12   4 34.7961 46.8519  23
   1  12   5 2023.23 185.534  43
   1  12   5 2376.82 186.506  12
   1  12   5 1789.73 177.082  50
   1  12   5 2164.36 175.959  21
   1  12   6 5298.75 287.460  43
   1  12   6 5247.00 268.949  21
   1  12   6 4405.44 259.740  50
   1  12   7 3896.59 240.828  43
   1  12   7 4505.26 245.046  12
   1  12   7 4355.60 241.070  21
   1  12   8 627.515 115.394  47
   1  12   8 610.460 99.3582  43
   1  12   8 896.529 106.912  12
   1  12   8 661.913 101.009  50
   1  12   8 706.942 97.5493  21
   1  12   9 1018.49 125.829  47
   1  12   9 878.708 106.045  43
   1  12   9 1045.22 103.099  12
   1  12   9 971.511 103.001  21
   1  12  10 2934.18 178.504  47
   1  12  10 3304.18 170.202  43
   1  12  10 3289.04 161.372  21
   1  13   1 1701.26 119.590  23
   1  13   1 1873.66 115.062  10
   1  13   2 1037.64 101.961  23
   1  13   2 1080.91 91.0767  10
   1  13   2 776.502 70.5520   1
   1  13   3 2871.84 149.513  12
   1  13   3 2529.07 156.950  23
   1  13   3 2605.77 136.159   1
   1  13   4 623.429 91.9046  43
   1  13   4 625.405 81.2666  12
   1  13   4 583.059 79.8028  23
   1  13   5 7849.86 295.340  43
   1  13   5 9572.45 301.210  12
   1  13   6 2500.48 163.504  43
   1  13   6 3087.35 170.988  12
   1  13   7 1280.34 115.768  43
   1  13   7 1310.55 109.308  12
   1  13   8 910.265 90.9773  43
   1  13   8 1302.10 101.044  12
   2 -12  -6 3614.74 194.687  15
   2 -12  -6 4312.04 150.258   1
   2 -12  -5 3055.35 189.731  15
   2 -12  -5 3250.81 135.910   1
   2 -12  -4 1927.83 151.965  15
   2 -12  -3 3315.62 186.957  15
   2 -11  -9 2021.88 142.818  13
   2 -11  -9 3547.15 142.497   1
   2 -11  -8 1369.49 130.661  15
   2 -11  -8 1085.64 117.346  13
   2 -11  -7 429.081 66.3500   1
   2 -11  -7 278.834 72.3880  13
   2 -11  -6 8780.65 387.446  15
   2 -11  -6 9587.25 299.075   1
   2 -11  -5 9588.57 419.294  15
   2 -11  -5 10211.4 314.917   1
   2 -11  -4 7614.46 276.332   1
   2 -11  -3 176.486 52.2575   1
   2 -11  -3 89.5193 70.1588  15
   2 -11  -2 5799.45 311.564  15
   2 -11  -1 25337.1 599.263  15
   2 -11  -1 21297.9 495.309  11
   2 -11   0 4136.46 215.176  11
   2 -11   1 4238.53 198.202  11
   2 -10 -10 5094.75 255.788  13
   2 -10 -10 7123.74 222.618   1
   2 -10  -9 1176.39 150.856  13
   2 -10  -9 1594.63 122.424   1
   2 -10  -8 145.966 70.3079  15
   2 -10  -8 123.535 69.1832  13
   2 -10  -8 219.821 57.9175   1
   2 -10  -7 1046.68 157.864  15
   2 -10  -7 760.852 130.780  13
   2 -10  -7 1170.07 122.124   1
   2 -10  -6 3006.47 267.905  15
   2 -10  -6 2625.52 231.813  13
   2 -10  -6 3167.79 201.019   1
   2 -10  -5 1266.28 192.820  15
   2 -10  -5 814.948 137.044  13
   2 -10  -5 1114.64 123.125   1
   2 -10  -4 344.133 131.766  15
   2 -10  -4 403.318 84.9112   1
   2 -10  -3 7292.95 306.788   1
   2 -10  -2 2336.34 238.103  15
   2 -10  -2 2483.52 177.210   1
   2 -10  -1 10974.3 487.008  15
   2 -10  -1 10926.2 360.603   1
   2 -10  -1 10508.9 439.656  11
   2 -10   0 2079.63 204.192  15
   2 -10   0 1980.10 201.259  11
   2 -10   0 1749.09 173.149  19
   2 -10   1 2098.11 192.391  11
   2 -10   1 1827.85 169.780  19
   2 -10   2 4792.45 262.091  11
   2 -10   2 4306.43 240.405  19
   2 -10   3 2128.81 156.331  11
   2 -10   3 2483.93 160.270  19
   2  -9 -11 866.075 113.793  13
   2  -9 -11 1331.36 99.8782   1
   2  -9 -10 4644.29 213.242   1
   2  -9  -9 1265.60 185.211  13
   2  -9  -9 1796.99 146.679   1
   2  -9  -8 443.175 121.864  13
   2  -9  -8 670.017 98.7319   1
   2  -9  -7 796.580 151.700  15
   2  -9  -7 731.147 144.684  13
   2  -9  -7 909.031 112.642   1
   2  -9  -7 831.923 115.115  10
   2  -9  -6 35483.9 937.374  15
   2  -9  -6 33080.4 897.590  13
   2  -9  -6 35513.6 713.075   1
   2  -9  -6 34966.3 734.156  10
   2  -9  -5 5061.25 372.645  15
   2  -9  -5 4964.34 345.906  13
   2  -9  -5 5341.46 282.239   1
   2  -9  -5 5432.71 301.008  10
   2  -9  -4 1501.23 217.865  15
   2  -9  -4 1473.60 191.111  13
   2  -9  -4 1690.30 176.230  10
   2  -9  -4 1630.42 161.478   1
   2  -9  -3 4673.38 265.845   1
   2  -9  -3 4471.53 321.944  13
   2  -9  -2 21613.0 764.186  15
   2  -9  -2 21617.3 561.089   1
   2  -9  -2 20832.1 591.140  17
   2  -9  -1 12335.7 563.893  15
   2  -9  -1 11703.8 519.542  11
   2  -9  -1 12094.8 412.025   1
   2  -9  -1 11833.9 453.882  17
   2  -9   0 3158.84 282.538  15
   2  -9   0 3321.95 214.287   1
   2  -9   0 2916.62 266.266  11
   2  -9   0 2705.04 242.915  19
   2  -9   0 2990.32 235.738  17
   2  -9   1 1712.15 208.084  15
   2  -9   1 1757.48 203.606  11
   2  -9   1 1402.74 184.115  19
   2  -9   2 7907.84 404.343  11
   2  -9   2 7818.35 393.227  19
   2  -9   3 2471.43 209.462  19
   2  -9   4 223.173 72.9078  11
   2  -9   4 251.031 69.5392  19
   2  -9   5 745.212 86.3806  11
   2  -9   5 666.476 83.1710  19
   2  -8 -12 929.163 79.2239   1
   2  -8 -12 718.848 94.2473  13
   2  -8 -11 2555.59 155.429   1
   2  -8 -11 2225.27 197.198  13
   2  -8 -10 4270.91 222.919   1
   2  -8 -10 4040.81 291.886  13
   2  -8  -9 18796.3 497.152   1
   2  -8  -9 16478.7 639.082  13
   2  -8  -8 668.949 100.634   1
   2  -8  -8 647.260 101.008  10
   2  -8  -7 49872.7 1081.66  15
   2  -8  -7 51651.3 876.852   1
   2  -8  -7 51936.7 898.589  10
   2  -8  -6 7963.06 455.219  15
   2  -8  -6 7990.22 347.850   1
   2  -8  -6 7357.65 446.063  13
   2  -8  -6 7764.48 359.901  10
   2  -8  -5 1558.65 216.508  15
   2  -8  -5 1664.67 220.145  13
   2  -8  -5 1542.51 155.608   1
   2  -8  -5 1647.10 172.881  10
   2  -8  -4 14377.6 620.834  15
   2  -8  -4 14127.6 587.619  13
   2  -8  -4 14660.2 463.781   1
   2  -8  -4 15108.8 509.211  10
   2  -8  -3 71131.9 1383.37  15
   2  -8  -3 73177.5 1286.90  13
   2  -8  -3 71990.1 1096.76  10
   2  -8  -3 73131.7 1040.73   1
   2  -8  -3 72628.1 1111.92  17
   2  -8  -2 218734. 2162.23  13
   2  -8  -2 221781. 1946.77  10
   2  -8  -2 220512. 1961.36  17
   2  -8  -1 8369.37 476.293  15
   2  -8  -1 7933.75 343.254   1
   2  -8  -1 7675.91 443.466  11
   2  -8  -1 8672.08 395.730  17
   2  -8   0 10902.0 538.135  15
   2  -8   0 10673.6 524.097  11
   2  -8   0 10129.6 479.980  19
   2  -8   0 10812.8 398.782   1
   2  -8   0 10484.4 450.269  17
   2  -8   1 19177.4 691.737  15
   2  -8   1 17340.8 691.819  11
   2  -8   1 18980.8 520.515   1
   2  -8   1 18464.9 652.627  19
   2  -8   1 18243.3 593.141  17
   2  -8   2 26140.1 767.159  15
   2  -8   2 24509.5 786.370  11
   2  -8   2 25486.8 774.978  19
   2  -8   3 4439.39 320.938  19
   2  -8   4 5985.41 349.950  11
   2  -8   4 5689.16 340.629  19
   2  -8   5 2027.68 186.537  11
   2  -8   5 1955.15 179.823  19
   2  -8   6 1967.25 144.968  11
   2  -8   6 2009.12 155.776  19
   2  -7 -12 1183.15 128.191  13
   2  -7 -12 955.883 101.666   4
   2  -7 -11 6788.12 357.249  13
   2  -7 -11 6384.04 304.195   4
   2  -7 -11 7566.19 290.344   1
   2  -7 -10 3910.36 301.687  13
   2  -7 -10 4431.51 240.624   1
   2  -7 -10 3510.93 253.488   4
   2  -7  -9 14925.9 628.027  13
   2  -7  -9 13947.5 517.003   4
   2  -7  -8 25870.4 822.297  13
   2  -7  -8 28252.5 651.697   1
   2  -7  -8 26182.0 714.657   4
   2  -7  -7 37153.3 770.547  10
   2  -7  -7 36783.9 739.309   1
   2  -7  -7 35109.8 811.200   4
   2  -7  -6 16515.1 629.588  15
   2  -7  -6 16538.6 654.399  13
   2  -7  -6 17099.9 552.116   4
   2  -7  -6 16897.4 492.970   1
   2  -7  -6 17170.6 526.790  10
   2  -7  -6 14923.7 1186.34   9
   2  -7  -5 3546.43 298.334  15
   2  -7  -5 3631.07 229.242   1
   2  -7  -5 3635.08 308.622  13
   2  -7  -5 3688.21 254.751   4
   2  -7  -5 3505.92 244.774  10
   2  -7  -5 3501.55 569.813   9
   2  -7  -5 3196.90 508.972  16
   2  -7  -4 5039.04 361.170  15
   2  -7  -4 4887.30 356.705  13
   2  -7  -4 5361.56 273.383   1
   2  -7  -4 5239.64 293.058  10
   2  -7  -4 5068.80 649.745   9
   2  -7  -4 4932.74 631.710  16
   2  -7  -4 5493.73 302.191  17
   2  -7  -3 9525.73 490.636  15
   2  -7  -3 9071.37 468.891  13
   2  -7  -3 9508.43 873.476  16
   2  -7  -3 9413.25 358.272   1
   2  -7  -3 9393.99 397.709  10
   2  -7  -3 9466.32 880.544   9
   2  -7  -3 10108.6 409.505  17
   2  -7  -2 5374.58 346.588  13
   2  -7  -2 5129.81 662.467  16
   2  -7  -2 5857.78 305.779  10
   2  -7  -2 5710.88 278.121   1
   2  -7  -2 5089.32 632.685   9
   2  -7  -2 5310.37 301.914  17
   2  -7  -1 49417.0 1123.03  15
   2  -7  -1 49011.5 825.370   1
   2  -7  -1 51378.5 1017.06  13
   2  -7  -1 49570.6 1040.17  11
   2  -7  -1 53390.3 915.437  10
   2  -7  -1 50240.3 934.134  17
   2  -7  -1 47997.4 1996.02  16
   2  -7   0 480.686 214.315  16
   2  -7   0 564.447 137.909  15
   2  -7   0 496.597 125.379  11
   2  -7   0 550.472 90.4548   1
   2  -7   0 473.925 118.590  19
   2  -7   0 579.522 114.394  17
   2  -7   1 37415.5 961.115  15
   2  -7   1 37408.8 720.591   1
   2  -7   1 36816.0 953.933  11
   2  -7   1 36996.2 923.175  19
   2  -7   1 37269.9 834.923  17
   2  -7   2 312.054 113.218  15
   2  -7   2 330.208 123.562  11
   2  -7   2 204.916 110.829  19
   2  -7   2 314.069 104.314  17
   2  -7   3 12588.9 535.255  15
   2  -7   3 12947.4 560.861  19
   2  -7   4 26114.1 783.285  11
   2  -7   4 25495.9 780.379  19
   2  -7   5 3783.46 240.621   6
   2  -7   5 4014.50 290.220  11
   2  -7   5 4065.52 293.590  19
   2  -7   6 1115.66 127.898   6
   2  -7   6 1063.21 145.760  11
   2  -7   7 2074.42 138.420   6
   2  -7   7 1683.56 134.397  11
   2  -7   7 1865.80 157.925  19
   2  -6 -13 198.246 37.1727   1
   2  -6 -13 155.009 40.6619   4
   2  -6 -12 563.640 96.1690  13
   2  -6 -12 640.289 82.4933   1
   2  -6 -12 567.567 93.9675   4
   2  -6 -11 3276.67 259.207  13
   2  -6 -11 3918.23 220.210   1
   2  -6 -11 3129.14 241.593   4
   2  -6 -10 3409.67 285.975  13
   2  -6 -10 3627.14 228.428   1
   2  -6 -10 3043.47 248.746   4
   2  -6  -9 18356.1 698.067  13
   2  -6  -9 19554.2 544.982   1
   2  -6  -9 17527.3 618.531   4
   2  -6  -8 27949.7 864.859  13
   2  -6  -8 29005.6 663.885   1
   2  -6  -8 29168.4 757.868   4
   2  -6  -7 569.629 109.244   4
   2  -6  -7 393.041 118.361  13
   2  -6  -7 676.736 107.001  10
   2  -6  -7 607.799 102.106   1
   2  -6  -7 617.847 261.190   9
   2  -6  -6 8936.88 468.748  13
   2  -6  -6 9572.72 387.741  10
   2  -6  -6 9593.91 906.346   9
   2  -6  -6 9684.09 366.776   1
   2  -6  -6 8821.80 415.189   4
   2  -6  -5 42529.6 958.206  15
   2  -6  -5 43585.7 999.613  13
   2  -6  -5 43112.4 1679.92  16
   2  -6  -5 42849.1 811.061  10
   2  -6  -5 43773.9 1856.66   9
   2  -6  -5 44358.3 835.982  17
   2  -6  -5 44526.9 754.647   1
   2  -6  -5 41127.5 858.009   4
   2  -6  -4 28315.5 789.031  15
   2  -6  -4 28497.8 591.491   1
   2  -6  -4 28073.7 792.011  13
   2  -6  -4 28071.3 1366.69  16
   2  -6  -4 28956.8 658.276  10
   2  -6  -4 29891.5 1506.60   9
   2  -6  -4 28683.8 671.489  17
   2  -6  -4 28803.1 681.674   4
   2  -6  -3 6946.23 395.890  15
   2  -6  -3 6890.68 385.164  13
   2  -6  -3 6779.90 286.592   1
   2  -6  -3 6715.84 321.169  10
   2  -6  -3 7142.95 712.007   9
   2  -6  -3 7268.68 712.681  16
   2  -6  -3 7334.15 336.670  17
   2  -6  -3 6825.84 324.979   4
   2  -6  -2 24845.4 748.048  15
   2  -6  -2 25078.0 716.650  13
   2  -6  -2 24416.3 1321.54  16
   2  -6  -2 25673.8 553.413   1
   2  -6  -2 25578.3 613.617  10
   2  -6  -2 25515.6 1321.86   9
   2  -6  -2 25243.3 630.859  17
   2  -6  -1 10170.7 388.442   4
   2  -6  -1 10803.8 455.399  13
   2  -6  -1 9895.12 443.426  11
   2  -6  -1 10329.6 859.103  16
   2  -6  -1 10898.6 392.325  10
   2  -6  -1 10164.3 347.947   1
   2  -6  -1 10201.8 404.999  17
   2  -6   0 9496.09 465.565  15
   2  -6   0 9372.68 375.153   4
   2  -6   0 9615.82 428.606  13
   2  -6   0 9009.52 331.938   1
   2  -6   0 8174.28 436.975  11
   2  -6   0 8810.77 372.800  10
   2  -6   0 9211.90 388.740  17
   2  -6   1 8118.84 433.651  15
   2  -6   1 9187.01 427.841  45
   2  -6   1 7888.83 356.806   4
   2  -6   1 7323.39 428.305  11
   2  -6   1 7367.90 305.158   1
   2  -6   1 8515.07 421.469  19
   2  -6   1 8256.66 379.357  17
   2  -6   1 7675.67 761.980  16
   2  -6   2 800.453 258.463  16
   2  -6   2 1021.84 165.326  15
   2  -6   2 932.270 130.453   4
   2  -6   2 889.416 168.997  11
   2  -6   2 990.511 119.115   1
   2  -6   2 1080.28 169.323  19
   2  -6   2 1040.51 157.608  17
   2  -6   3 1907.83 221.560  15
   2  -6   3 2139.35 204.080   4
   2  -6   3 2027.49 226.259  19
   2  -6   3 1768.30 384.073  16
   2  -6   4 59334.6 1070.07   4
   2  -6   4 58155.4 1007.39   6
   2  -6   4 59492.5 1213.01  11
   2  -6   4 60130.9 1215.30  19
   2  -6   5 1020.12 141.526   4
   2  -6   5 1020.90 144.924   6
   2  -6   5 1183.76 172.710  11
   2  -6   5 1159.19 179.482  19
   2  -6   6 4207.09 268.074   6
   2  -6   6 4243.13 300.891  11
   2  -6   7 2817.79 204.094   6
   2  -6   7 2662.45 200.378  11
   2  -6   7 2554.88 218.887  19
   2  -6   8 13060.3 367.321   6
   2  -6   8 11752.0 384.554  19
   2  -5 -13 3129.38 141.454   1
   2  -5 -13 2379.13 154.336   4
   2  -5 -12 15093.9 394.107   1
   2  -5 -12 14699.6 456.535   4
   2  -5 -11 2403.62 219.271  13
   2  -5 -11 2712.80 189.296   1
   2  -5 -11 2482.05 218.834   4
   2  -5 -10 12709.3 545.631  13
   2  -5 -10 13136.2 443.193   1
   2  -5 -10 12509.6 507.994   4
   2  -5  -9 4750.79 349.961  13
   2  -5  -9 4752.11 274.127   1
   2  -5  -9 4030.48 305.827   4
   2  -5  -8 924.623 164.768  13
   2  -5  -8 1185.30 140.873   1
   2  -5  -8 754.670 279.760   9
   2  -5  -8 930.546 144.089   4
   2  -5  -7 216.896 86.9368   4
   2  -5  -7 91.8107 81.6133  13
   2  -5  -7 253.630 74.6085  10
   2  -5  -7 231.591 66.9075   1
   2  -5  -7 169.248 145.669   9
   2  -5  -6 1044.12 159.570  13
   2  -5  -6 817.497 108.432   1
   2  -5  -6 743.288 260.687   9
   2  -5  -6 930.367 131.341  17
   2  -5  -6 696.721 126.024   4
   2  -5  -5 23499.7 700.759  13
   2  -5  -5 22581.1 558.494  10
   2  -5  -5 24238.8 1311.58   9
   2  -5  -5 22927.2 609.065   4
   2  -5  -4 21426.8 1087.60  16
   2  -5  -3 17313.1 1028.38   9
   2  -5  -3 15692.0 943.446  16
   2  -5  -2 1019.97 256.254  16
   2  -5  -2 1571.20 306.923   9
   2  -5  -1 16405.0 976.558   9
   2  -5  -1 15670.3 963.328  16
   2  -5   0 93170.0 2372.34  16
   2  -5   1 548.082 115.329  15
   2  -5   1 343.925 108.571  11
   2  -5   1 333.552 88.3224  17
   2  -5   2 638.546 226.828  16
   2  -5   2 499.457 123.056  15
   2  -5   2 572.496 102.282   4
   2  -5   2 516.658 115.657  11
   2  -5   2 496.663 113.648  19
   2  -5   3 169612. 1684.52   4
   2  -5   3 168707. 3012.46   7
   2  -5   3 157099. 1899.84  19
   2  -5   3 165648. 1692.09  17
   2  -5   3 160603. 3405.10  16
   2  -5   4 10311.8 801.809   7
   2  -5   4 10419.0 438.435   4
   2  -5   4 10694.4 463.317  37
   2  -5   4 9983.90 422.509   6
   2  -5   4 10110.2 500.391  11
   2  -5   4 10841.2 506.763  19
   2  -5   4 10999.4 443.088  17
   2  -5   4 10075.6 870.282  16
   2  -5   5 2912.97 248.475  44
   2  -5   5 2556.63 243.619   4
   2  -5   5 2800.00 231.400   6
   2  -5   5 2835.16 268.580  11
   2  -5   5 2741.96 242.117  24
   2  -5   5 2718.05 269.118  19
   2  -5   6 3122.75 259.775  44
   2  -5   6 2718.07 229.363   4
   2  -5   6 2890.94 239.273   6
   2  -5   6 2743.34 256.159  11
   2  -5   7 9031.16 400.733   6
   2  -5   7 8815.29 411.979  11
   2  -5   7 9171.45 445.325  19
   2  -5   8 7029.01 323.062   6
   2  -5   8 6395.95 333.739  19
   2  -5   9 8372.68 297.634   6
   2  -5   9 7685.37 298.672  19
   2  -4 -13 22.5775 35.0957   4
   2  -4 -13 45.4058 29.9563   1
   2  -4 -12 1219.27 120.149   1
   2  -4 -12 1017.01 128.816   4
   2  -4 -11 5304.99 271.141   1
   2  -4 -11 5077.43 315.601   4
   2  -4 -10 5508.81 293.472   1
   2  -4 -10 5381.50 338.455   4
   2  -4  -9 10237.5 498.320  13
   2  -4  -9 10287.5 399.970   1
   2  -4  -9 8620.29 412.696  17
   2  -4  -9 10024.9 468.832   4
   2  -4  -9 9283.15 387.631   8
   2  -4  -8 1271.40 180.836  13
   2  -4  -8 1314.74 147.751   8
   2  -4  -8 1373.76 145.880   1
   2  -4  -8 1637.00 375.028   9
   2  -4  -8 1162.29 157.122  17
   2  -4  -8 1064.77 166.310   4
   2  -4  -7 10257.6 481.288  13
   2  -4  -7 10386.0 366.766   8
   2  -4  -7 10311.5 376.266   1
   2  -4  -7 10105.1 384.618  10
   2  -4  -7 10843.4 904.794   9
   2  -4  -7 10158.6 416.655  17
   2  -4  -7 10070.6 435.309   4
   2  -4  -6 41950.9 918.470  13
   2  -4  -6 43580.9 1713.62   9
   2  -4  -6 40733.6 834.425   4
   2  -4  -5 49965.1 1732.51   9
   2  -4  -4 13258.2 766.001  16
   2  -4  -4 14584.0 920.931   9
   2  -4  -3 25358.8 1074.02  16
   2  -4  -2 45645.7 1527.92   9
   2  -4  -2 44914.8 1440.90  16
   2  -4  -1 51141.2 1597.38   9
   2  -4  -1 49519.8 1529.03  16
   2  -4   0 75243.3 1947.33  16
   2  -4   1 39070.8 1114.95   7
   2  -4   2 13273.8 732.034   7
   2  -4   2 14292.6 904.554  16
   2  -4   3 9845.56 393.387   4
   2  -4   3 9783.09 686.181   7
   2  -4   3 10006.5 441.762  19
   2  -4   3 9286.53 387.108  17
   2  -4   3 10016.9 798.422  16
   2  -4   4 6279.01 590.986   7
   2  -4   4 5521.40 321.396   4
   2  -4   4 6281.15 345.528  37
   2  -4   4 5222.46 297.751   6
   2  -4   4 6155.31 365.726  11
   2  -4   4 6260.71 370.927  19
   2  -4   4 6332.00 327.322  17
   2  -4   4 6004.29 635.221  16
   2  -4   5 1107.25 290.434  16
   2  -4   5 1453.17 179.270  44
   2  -4   5 1386.06 311.884   7
   2  -4   5 1216.98 166.210   4
   2  -4   5 1399.77 172.562   6
   2  -4   5 1578.58 193.122  11
   2  -4   5 1355.93 170.563  24
   2  -4   5 1241.94 177.983  19
   2  -4   6 5199.69 334.199  44
   2  -4   6 5013.54 347.069   4
   2  -4   6 5274.26 324.170   6
   2  -4   6 5614.69 358.968  11
   2  -4   7 36789.1 861.464   6
   2  -4   7 38139.3 885.194  11
   2  -4   7 39561.1 955.018  19
   2  -4   8 7823.52 371.766   6
   2  -4   8 7518.61 393.179  19
   2  -4   9 12723.9 425.906   6
   2  -4   9 11812.9 435.039  19
   2  -4  10 954.954 100.919  19
   2  -3 -13 1520.44 102.868   1
   2  -3 -13 1201.50 119.019   4
   2  -3 -12 292.922 82.1671   4
   2  -3 -12 397.937 70.7226   1
   2  -3 -11 1649.76 153.365   1
   2  -3 -11 1418.66 173.803   4
   2  -3 -10 14296.8 468.170   1
   2  -3 -10 13451.4 504.919  17
   2  -3  -9 1788.42 168.322   1
   2  -3  -9 1598.99 187.632  17
   2  -3  -9 1565.92 164.878   8
   2  -3  -8 13113.8 434.766   1
   2  -3  -8 13499.3 434.325   8
   2  -3  -7 12383.6 502.540  13
   2  -3  -7 12443.0 399.021   1
   2  -3  -7 12430.8 416.479  10
   2  -3  -7 12526.7 908.732   9
   2  -3  -7 12376.3 462.244  17
   2  -3  -7 12613.9 403.034   8
   2  -3  -6 934.545 248.404   9
   2  -3  -5 41136.8 1469.30   9
   2  -3  -4 21139.9 1034.43   9
   2  -3  -3 56203.8 1397.65  16
   2  -3  -3 57553.8 1622.10   9
   2  -3  -2 45020.7 1389.33   9
   2  -3  -2 45198.2 1281.22  16
   2  -3  -1 20981.2 896.852  16
   2  -3   0 55981.4 1088.73   7
   2  -3   0 53800.0 1474.89  16
   2  -3   1 115210. 1790.00   7
   2  -3   1 115209. 2238.32  16
   2  -3   2 11415.1 627.671   7
   2  -3   3 47630.9 1425.04   7
   2  -3   3 51547.2 1658.00  16
   2  -3   4 13022.3 447.109   4
   2  -3   4 13740.4 826.668   7
   2  -3   4 13727.8 509.939  11
   2  -3   4 14634.5 526.570  19
   2  -3   4 14219.3 918.526  16
   2  -3   5 55875.3 1924.40  16
   2  -3   5 59824.2 1043.16  44
   2  -3   5 53679.9 1007.57   4
   2  -3   5 54163.2 969.411   6
   2  -3   5 57136.0 1090.47  11
   2  -3   5 57085.5 1021.28  24
   2  -3   5 60191.8 1863.67   7
   2  -3   5 56306.4 1092.82  19
   2  -3   5 53854.8 957.441  17
   2  -3   6 15390.0 561.335  44
   2  -3   6 15712.6 1019.37   7
   2  -3   6 15182.7 551.044   4
   2  -3   6 14229.4 516.329   6
   2  -3   6 13813.3 538.582  11
   2  -3   7 37311.7 899.566   4
   2  -3   7 36791.4 856.841   6
   2  -3   7 37150.2 876.834  11
   2  -3   7 36155.4 921.086  19
   2  -3   8 81078.2 1354.24  19
   2  -3   9 574.191 118.541  19
   2  -3  10 190.482 65.9497   6
   2  -3  10 51.2363 50.2681  19
   2  -3  11 7092.55 235.244   6
   2  -2 -13 82.4869 42.2039   4
   2  -2 -13 26.1508 23.6900   1
   2  -2 -12 8051.91 290.760   1
   2  -2 -12 7476.88 337.095   4
   2  -2 -11 12238.6 408.770   1
   2  -2 -11 11561.7 469.828   4
   2  -2 -10 12331.0 432.910   1
   2  -2 -10 11005.5 474.562  17
   2  -2 -10 12038.9 498.693   4
   2  -2 -10 10735.2 424.503   8
   2  -2  -9 30455.2 681.744   1
   2  -2  -9 28766.6 773.199  17
   2  -2  -9 30130.6 789.716   4
   2  -2  -9 31893.3 689.883   8
   2  -2  -8 4747.50 260.539   1
   2  -2  -8 4665.83 537.727  18
   2  -2  -8 4770.55 309.020  17
   2  -2  -8 4867.64 318.485   4
   2  -2  -7 35553.7 661.163   1
   2  -2  -7 33832.2 693.229  10
   2  -2  -7 37842.0 1355.52   5
   2  -2  -7 35116.1 1381.94  18
   2  -2  -7 35218.6 794.190  17
   2  -2  -7 35809.8 794.138   4
   2  -2  -7 36002.1 666.826   8
   2  -2  -6 49344.5 1455.74   5
   2  -2  -6 45902.8 1553.40   9
   2  -2  -6 47659.3 1501.21  18
   2  -2  -5 34620.3 1134.64   5
   2  -2  -5 34005.8 1256.65   9
   2  -2  -5 32495.4 1160.40  18
   2  -2  -4 14660.7 713.664   5
   2  -2  -4 13718.3 774.925   9
   2  -2  -3 51129.1 1125.84  16
   2  -2  -3 50377.0 1405.98   9
   2  -2  -2 27792.0 1007.52   9
   2  -2  -2 28401.3 880.077  16
   2  -2  -1 61620.0 939.740   7
   2  -2  -1 58919.3 1438.77   9
   2  -2  -1 59219.6 1328.95  16
   2  -2   0 125398. 2022.21  16
   2  -2   0 124495. 1533.17   7
   2  -2   1 10175.8 617.529  16
   2  -2   1 10839.1 513.598   7
   2  -2   2 11193.4 575.330   7
   2  -2   3 165682. 2449.15   7
   2  -2   3 168915. 2753.31  16
   2  -2   4 148542. 2761.97  16
   2  -2   4 145998. 2511.49   7
   2  -2   5 35957.7 766.470   4
   2  -2   5 36653.7 830.628  19
   2  -2   6 17773.3 588.232   4
   2  -2   6 17574.7 560.393   6
   2  -2   6 18730.9 598.804  11
   2  -2   7 42896.3 927.257   4
   2  -2   7 43885.7 992.029  19
   2  -2   8 3398.12 262.415   6
   2  -2   8 3164.76 269.530  19
   2  -2   9 14332.7 514.072   6
   2  -2   9 14055.0 540.440  19
   2  -2  10 16483.5 505.615   6
   2  -2  10 15373.4 509.025  19
   2  -2  11 11653.6 351.526   6
   2  -1 -13 2173.08 133.161   4
   2  -1 -12 1672.52 130.048   1
   2  -1 -12 1244.17 124.590  17
   2  -1 -12 1534.36 150.257   4
   2  -1 -11 7783.13 320.707   1
   2  -1 -11 6780.65 346.450  17
   2  -1 -11 7904.38 378.098   4
   2  -1 -10 4251.53 257.418   1
   2  -1 -10 3751.52 285.699  17
   2  -1 -10 4308.11 299.958   4
   2  -1 -10 3682.47 246.831   8
   2  -1  -9 2213.13 185.353   1
   2  -1  -9 2050.90 215.074  17
   2  -1  -9 2230.48 213.426   4
   2  -1  -9 2291.57 192.534   8
   2  -1  -8 38843.6 739.877   1
   2  -1  -8 38236.2 1539.18  18
   2  -1  -8 36337.6 854.918  17
   2  -1  -8 37859.4 864.736   4
   2  -1  -8 39645.3 739.370   8
   2  -1  -7 33381.2 639.082   1
   2  -1  -7 32175.4 636.251   8
   2  -1  -7 32592.1 683.573  10
   2  -1  -7 35611.0 1290.65   5
   2  -1  -7 33085.7 1349.10  18
   2  -1  -7 31970.7 763.633  17
   2  -1  -7 32916.8 752.076   4
   2  -1  -6 3552.16 382.770   5
   2  -1  -6 3437.57 410.357  18
   2  -1  -5 15337.4 745.131   5
   2  -1  -5 14745.4 781.134   9
   2  -1  -5 15289.2 792.405  18
   2  -1  -4 63481.9 1439.71   5
   2  -1  -4 64352.2 1525.12   9
   2  -1  -3 77781.0 1604.66   9
   2  -1  -2 7178.10 434.440   5
   2  -1  -2 7414.55 478.835   9
   2  -1  -2 7932.44 391.748  16
   2  -1  -1 27368.8 631.116   7
   2  -1  -1 25890.1 770.000  16
   2  -1  -1 27036.9 786.417   5
   2  -1  -1 26561.4 887.405   9
   2  -1   0 279604. 2651.47  16
   2  -1   0 281099. 2254.42   7
   2  -1   1 583460. 3564.78   7
   2  -1   1 577185. 4121.90  16
   2  -1   2 130101. 1842.60   7
   2  -1   2 128782. 2074.71  16
   2  -1   3 625.414 141.026   7
   2  -1   3 929.187 162.260   2
   2  -1   3 870.676 146.449  22
   2  -1   4 33785.7 1240.27  16
   2  -1   4 33068.8 1130.82   7
   2  -1   4 32123.7 971.712  22
   2  -1   5 25584.1 1087.86   7
   2  -1   5 24125.1 942.195  22
   2  -1   6 10192.8 442.083   4
   2  -1   6 11805.4 450.170  11
   2  -1   6 11152.3 700.310  22
   2  -1   7 15884.7 994.869   7
   2  -1   7 14886.2 517.052   6
   2  -1   7 14980.7 521.916  11
   2  -1   7 15565.4 896.128  22
   2  -1   7 15529.1 523.319  20
   2  -1   7 14179.7 551.353  19
   2  -1   8 49353.1 1050.61  36
   2  -1   8 47502.7 962.463   6
   2  -1   8 48582.4 964.555  20
   2  -1   8 47738.9 1027.55  19
   2  -1   9 17043.5 613.658  36
   2  -1   9 17659.4 585.870   6
   2  -1   9 17212.6 479.768   3
   2  -1   9 17042.0 576.828  20
   2  -1   9 16803.5 604.143  19
   2  -1   9 16776.4 573.399  50
   2  -1  10 2190.48 194.445   6
   2  -1  10 2309.02 165.745   3
   2  -1  10 2039.87 194.815  50
   2  -1  10 2197.55 203.823  20
   2  -1  10 2167.99 204.075  19
   2  -1  11 349.853 74.3296   6
   2  -1  11 280.165 70.3690  20
   2  -1  12 1566.76 107.900   6
   2   0 -12 1102.56 99.1013   1
   2   0 -12 848.553 104.836  17
   2   0 -12 1033.93 111.797   4
   2   0 -11 2773.06 187.541   1
   2   0 -11 2411.77 210.763  17
   2   0 -11 2697.27 213.619   4
   2   0 -10 889.563 118.246   1
   2   0 -10 916.221 123.450   8
   2   0 -10 998.199 149.623  17
   2   0 -10 1002.85 145.454   4
   2   0  -9 11693.8 423.320   1
   2   0  -9 11034.9 501.007  17
   2   0  -9 12322.3 496.011   4
   2   0  -8 11328.7 402.445   1
   2   0  -8 11255.2 393.828   8
   2   0  -8 10661.4 838.137  18
   2   0  -8 11160.2 477.747  17
   2   0  -8 11305.8 466.139   4
   2   0  -7 9556.50 350.401   1
   2   0  -7 9160.83 372.592  10
   2   0  -7 9695.01 685.151   5
   2   0  -7 8820.80 709.881  18
   2   0  -7 9023.00 419.279  17
   2   0  -7 9075.28 405.747   4
   2   0  -7 9009.10 345.695   8
   2   0  -6 3747.97 399.814   5
   2   0  -6 3502.96 413.165  18
   2   0  -5 61727.2 1684.36  31
   2   0  -5 65462.8 1536.36   5
   2   0  -4 43909.2 1178.42   5
   2   0  -4 44917.4 1157.05   9
   2   0  -4 41070.2 1187.14  18
   2   0  -3 28519.3 956.386  31
   2   0  -3 31692.4 922.566   9
   2   0  -3 30115.5 939.620  18
   2   0  -2 73171.0 919.956  16
   2   0  -2 73583.1 1354.53   9
   2   0  -2 75948.7 1373.48  18
   2   0  -1 79983.5 1262.63   5
   2   0  -1 82590.5 1430.54   9
   2   0  -1 81900.8 1171.19  16
   2   0   0 49494.5 953.571   7
   2   0   0 48860.4 943.327   5
   2   0   0 49985.9 1029.52  16
   2   0   1 32248.0 817.166   7
   2   0   1 30289.5 720.819   5
   2   0   1 31659.4 876.949  16
   2   0   2 12949.4 620.453  16
   2   0   2 12614.4 424.899  14
   2   0   2 13256.9 560.329   7
   2   0   2 12962.4 530.424   2
   2   0   3 47609.1 837.846  14
   2   0   3 46801.3 1171.65   7
   2   0   3 47886.4 1072.80  22
   2   0   4 44864.6 1244.19   7
   2   0   4 42802.0 1129.83  22
   2   0   5 86644.8 1770.19  22
   2   0   6 17586.2 933.620   7
   2   0   6 16142.2 839.110  22
   2   0   7 15057.4 929.571   7
   2   0   7 13048.6 505.769   4
   2   0   7 14702.0 556.328  36
   2   0   7 13481.0 479.579   6
   2   0   7 13855.9 408.442   3
   2   0   7 14280.6 861.369  22
   2   0   7 14209.3 498.195  20
   2   0   7 14242.7 526.352  19
   2   0   8 41192.2 972.255  36
   2   0   8 40611.4 861.913   6
   2   0   8 40337.8 739.960   3
   2   0   8 39259.1 1531.97  22
   2   0   8 39608.3 883.567  20
   2   0   8 39850.7 926.584  19
   2   0   8 41402.3 900.330  50
   2   0   9 1980.08 220.911  36
   2   0   9 2102.96 199.430   6
   2   0   9 2171.90 175.178   3
   2   0   9 1960.39 203.990  20
   2   0   9 1933.24 206.368  19
   2   0   9 1966.89 209.009  50
   2   0  10 1132.61 145.032   6
   2   0  10 1131.25 129.225   3
   2   0  10 1049.10 151.622  20
   2   0  10 1205.86 164.518  19
   2   0  10 1116.16 153.769  50
   2   0  11 295.948 62.2872   3
   2   0  11 214.508 67.9121   6
   2   0  11 231.328 76.0373  20
   2   0  11 231.015 76.2989  50
   2   0  12 5630.49 223.749   6
   2   0  12 5348.33 247.159  20
   2   0  12 5135.74 231.885  50
   2   1 -12 7632.93 228.570   1
   2   1 -12 6121.45 251.637  17
   2   1 -11 2798.42 176.854   1
   2   1 -11 2366.44 203.541  17
   2   1 -11 2784.96 201.558   4
   2   1 -10 17975.7 501.290   1
   2   1 -10 18335.4 608.819  17
   2   1 -10 18324.9 565.038   4
   2   1  -9 5351.06 287.996   1
   2   1  -9 5629.13 361.156  17
   2   1  -9 5878.42 336.558   4
   2   1  -9 4807.76 275.238   8
   2   1  -8 20452.2 533.043   8
   2   1  -8 18970.9 1136.07  18
   2   1  -8 19637.0 653.653  17
   2   1  -8 21457.3 639.245   4
   2   1  -8 21172.0 558.243   1
   2   1  -7 3153.05 465.865  31
   2   1  -7 3283.83 232.679  10
   2   1  -7 3058.45 209.966   8
   2   1  -7 3507.78 418.433   5
   2   1  -7 3310.88 457.913  18
   2   1  -7 3330.38 268.996  17
   2   1  -7 3150.92 237.303   4
   2   1  -7 3341.93 210.351   1
   2   1  -7 3383.09 189.328   3
   2   1  -6 10917.1 807.544  31
   2   1  -6 13573.2 773.889   5
   2   1  -5 75638.5 1704.80   5
   2   1  -5 74856.3 1803.51  18
   2   1  -4 4052.56 366.508   5
   2   1  -4 4641.74 411.723  18
   2   1  -3 37512.5 1135.55  31
   2   1  -3 36716.7 1035.53  18
   2   1  -2 11373.9 572.020  31
   2   1  -2 10296.2 498.085   5
   2   1  -2 10598.2 447.745   9
   2   1  -2 11385.8 524.484  18
   2   1  -1 165984. 1957.24  31
   2   1  -1 162652. 1797.07   5
   2   1  -1 169358. 1862.38  18
   2   1   0 117529. 1470.41   7
   2   1   0 111600. 1388.74  31
   2   1   1 9647.45 419.454  14
   2   1   1 10167.3 454.594   7
   2   1   1 9761.74 374.927   5
   2   1   2 9251.99 407.752  14
   2   1   2 9596.77 479.736   7
   2   1   2 10137.2 483.699   2
   2   1   2 9468.64 333.632   5
   2   1   3 114424. 1469.63  14
   2   1   4 237739. 2235.89  14
   2   1   4 235387. 2630.49  22
   2   1   5 94152.3 1900.01   7
   2   1   5 90539.9 1798.11  22
   2   1   6 11718.2 721.611   7
   2   1   6 10799.9 681.017  22
   2   1   7 9445.43 707.481   7
   2   1   7 7641.42 384.424   4
   2   1   7 8278.98 409.104  36
   2   1   7 8718.13 371.337   6
   2   1   7 8354.76 318.649   3
   2   1   7 8042.37 640.623  22
   2   1   7 8379.97 383.230  20
   2   1   7 8121.57 386.682  19
   2   1   7 8312.89 376.643  50
   2   1   8 49416.2 1063.95  36
   2   1   8 47875.9 909.159   6
   2   1   8 46406.5 801.288   3
   2   1   8 49491.3 1710.60  22
   2   1   8 49087.4 975.448  20
   2   1   8 47097.2 983.197  19
   2   1   8 49970.7 985.760  50
   2   1   9 15213.6 530.740   6
   2   1   9 15659.9 473.183   3
   2   1   9 15712.9 581.878  20
   2   1   9 15409.7 576.191  19
   2   1   9 16341.0 583.438  50
   2   1  10 14622.1 508.614   6
   2   1  10 14120.5 450.335   3
   2   1  10 14422.4 552.901  20
   2   1  10 14497.7 545.171  19
   2   1  10 15010.2 555.051  50
   2   1  11 7049.48 327.350   6
   2   1  11 6940.92 296.380   3
   2   1  11 6903.37 360.740  20
   2   1  11 6457.41 340.622  50
   2   1  12 2708.99 157.336   3
   2   1  12 2309.89 186.783  20
   2   1  12 2192.53 172.062  50
   2   1  13 2120.33 128.769  20
   2   2 -12 1190.40 100.080  17
   2   2 -11 2806.78 164.141   1
   2   2 -11 2379.98 190.571  17
   2   2 -10 9941.04 356.370   1
   2   2 -10 8413.50 414.932  17
   2   2  -9 1467.19 150.451   1
   2   2  -9 1716.63 208.645  17
   2   2  -9 1688.54 149.758   8
   2   2  -8 101.991 59.2832   8
   2   2  -8 135.524 56.1051   1
   2   2  -8 111.390 60.7269  10
   2   2  -7 304.831 73.5811   8
   2   2  -7 322.818 88.5484  50
   2   2  -7 320.008 65.5060   3
   2   2  -7 375.942 79.1914   1
   2   2  -7 164.768 116.732  31
   2   2  -7 281.145 82.7450  10
   2   2  -7 328.485 155.622   5
   2   2  -6 4085.09 517.781  31
   2   2  -6 4473.35 266.465  10
   2   2  -6 4389.46 461.492   5
   2   2  -6 4271.98 494.598  18
   2   2  -6 3952.93 281.358  17
   2   2  -6 3786.86 205.825   3
   2   2  -6 4196.18 230.555   8
   2   2  -6 4665.72 286.502  50
   2   2  -5 14332.9 876.038  31
   2   2  -5 16589.9 842.440   5
   2   2  -5 14994.8 849.365  18
   2   2  -4 16421.0 858.868  31
   2   2  -4 17963.1 814.636   5
   2   2  -4 18567.2 853.931  18
   2   2  -3 41125.4 1242.56  31
   2   2  -3 42017.3 1157.09  18
   2   2  -2 61566.5 1395.21  31
   2   2  -2 65756.3 1332.26   5
   2   2  -2 64486.1 1282.90  18
   2   2  -1 29168.8 854.995  31
   2   2  -1 31920.4 857.762   5
   2   2  -1 31218.6 801.926  18
   2   2   0 205163. 2133.81   7
   2   2   0 208453. 2028.43  31
   2   2   0 208091. 1978.70   5
   2   2   0 206518. 1859.47  18
   2   2   1 105260. 1502.12  14
   2   2   1 107729. 1529.27   7
   2   2   1 109487. 1241.69  31
   2   2   1 108565. 1274.89   5
   2   2   2 52834.7 1055.79  14
   2   2   2 51476.7 760.841   5
   2   2   3 136252. 1747.28  14
   2   2   3 135535. 1946.16   7
   2   2   4 54460.8 1176.47  14
   2   2   4 57665.6 1341.73   7
   2   2   4 54440.4 1281.34  22
   2   2   5 73248.7 1464.38  14
   2   2   5 73958.7 1636.43  22
   2   2   6 84630.4 1690.10  14
   2   2   6 90116.3 1953.17   7
   2   2   6 85201.8 1894.17  22
   2   2   7 61235.4 1737.31   7
   2   2   7 58267.4 1082.98  36
   2   2   7 53547.8 807.945   3
   2   2   7 56064.4 1679.66  22
   2   2   7 54216.8 980.331  20
   2   2   7 54338.9 982.083  19
   2   2   7 53769.3 903.896   6
   2   2   7 59508.9 997.529  50
   2   2   8 2689.61 389.747   7
   2   2   8 2400.42 202.626   6
   2   2   8 2530.03 188.437   3
   2   2   8 2445.42 380.929  22
   2   2   8 2789.55 238.431  20
   2   2   8 2506.90 227.915  19
   2   2   8 2764.66 229.224  50
   2   2   9 6910.03 653.964   7
   2   2   9 6578.77 339.888   6
   2   2   9 6648.32 313.826   3
   2   2   9 6275.94 643.099  22
   2   2   9 6333.85 372.045  20
   2   2   9 6289.70 364.010  19
   2   2   9 6562.21 370.333  50
   2   2  10 10088.4 413.268   6
   2   2  10 10336.3 388.692   3
   2   2  10 9485.53 457.089  20
   2   2  10 9018.04 441.772  50
   2   2  11 2965.90 208.682   6
   2   2  11 3082.18 205.564   3
   2   2  11 2886.54 242.806  20
   2   2  11 2903.40 236.215  50
   2   2  12 4503.71 219.782   3
   2   2  12 4093.78 258.980  20
   2   2  12 3939.64 245.370  50
   2   2  13 2573.04 131.659   3
   2   2  13 2148.12 152.278  20
   2   2  13 2310.65 148.424  50
   2   3 -11 5498.34 194.649   1
   2   3 -11 4838.08 242.195  17
   2   3 -10 1720.19 140.791   1
   2   3 -10 1270.30 161.597  17
   2   3  -9 1102.01 126.979   1
   2   3  -8 924.852 143.213  10
   2   3  -8 862.488 154.434  17
   2   3  -8 1150.46 133.410   1
   2   3  -7 575.942 210.565  31
   2   3  -7 866.743 140.101  10
   2   3  -7 1032.59 250.365   5
   2   3  -7 697.063 233.832  18
   2   3  -7 830.757 156.539  17
   2   3  -7 1096.60 131.684   1
   2   3  -7 596.223 129.152  50
   2   3  -7 1079.18 118.389   3
   2   3  -6 29128.3 697.805  10
   2   3  -6 29711.1 1277.78   5
   2   3  -6 28873.9 609.186   8
   2   3  -6 29864.1 1351.19  18
   2   3  -6 28989.9 774.856  17
   2   3  -6 28955.2 576.958   3
   2   3  -6 32694.5 772.005  50
   2   3  -5 20993.8 1128.19  31
   2   3  -5 21884.0 626.548  23
   2   3  -5 21237.6 573.806  10
   2   3  -5 24384.6 1095.44   5
   2   3  -5 22661.0 1096.00  18
   2   3  -5 23013.5 626.182  17
   2   3  -5 22567.2 471.408   3
   2   3  -5 22019.9 620.807  50
   2   3  -4 57350.7 1545.95   5
   2   3  -4 53601.7 1531.40  18
   2   3  -3 107046. 2146.05  31
   2   3  -3 111219. 1992.46  18
   2   3  -2 37802.7 1159.63  31
   2   3  -2 38732.3 1093.94   5
   2   3  -2 37985.0 1045.28  18
   2   3  -1 14142.8 656.792  31
   2   3  -1 16012.1 658.697   5
   2   3  -1 14535.9 570.762  18
   2   3   0 3354.88 282.619  31
   2   3   0 2703.40 251.310   5
   2   3   0 2963.06 225.713  18
   2   3   1 88012.4 1471.28  14
   2   3   1 88580.2 1271.93  31
   2   3   1 90498.4 1283.13   5
   2   3   2 82087.0 1450.30  14
   2   3   2 81281.5 1471.04   7
   2   3   2 83744.3 1098.14   5
   2   3   3 25605.5 823.767  14
   2   3   3 27216.6 868.083   7
   2   3   4 51403.1 1226.77  14
   2   3   4 53706.8 1292.40   7
   2   3   5 11582.8 617.622  14
   2   3   5 13203.5 690.213   7
   2   3   6 16036.8 779.719  14
   2   3   6 18473.2 865.854   7
   2   3   7 16096.0 823.331  14
   2   3   7 18092.3 924.012   7
   2   3   7 16393.8 444.034   3
   2   3   7 16039.6 534.966  19
   2   3   7 17214.5 544.335  50
   2   3   8 3568.01 436.393   7
   2   3   8 3265.13 229.245   6
   2   3   8 3382.42 214.416   3
   2   3   8 4036.97 278.231  50
   2   3   9 5665.19 340.023  48
   2   3   9 5296.30 297.284   6
   2   3   9 5273.36 281.287   3
   2   3   9 5512.73 336.785  50
   2   3  10 70275.1 1031.77   3
   2   3  10 68937.5 1229.66  50
   2   3  11 830.462 136.217  48
   2   3  11 732.717 109.112   3
   2   3  11 929.899 149.821  50
   2   3  12 6931.76 337.806  50
   2   3  12 7247.36 287.411   3
   2   3  12 6165.21 329.651  20
   2   3  13 1474.98 108.445   3
   2   3  13 1172.96 122.358  20
   2   3  13 1298.06 119.398  50
   2   4 -11 3293.84 167.175  17
   2   4 -10 4493.16 196.493   1
   2   4  -9 3477.84 271.705  17
   2   4  -9 3988.53 223.626   1
   2   4  -8 937.331 134.267  10
   2   4  -8 1008.54 156.728  17
   2   4  -8 1017.59 127.416   1
   2   4  -7 4741.16 312.115  10
   2   4  -7 5341.97 262.904   3
   2   4  -7 5299.23 284.808   1
   2   4  -7 5246.38 351.364  17
   2   4  -7 4877.00 324.881  50
   2   4  -6 32774.5 844.371  41
   2   4  -6 33711.4 841.853  50
   2   4  -6 32865.5 776.583  10
   2   4  -6 32616.0 1408.02   5
   2   4  -6 31880.4 1455.59  18
   2   4  -6 33546.4 839.054  17
   2   4  -6 32028.0 633.796   3
   2   4  -5 7657.64 719.299  31
   2   4  -5 7914.47 404.370  23
   2   4  -5 8717.21 392.417  10
   2   4  -5 9695.56 732.874   5
   2   4  -5 8855.58 717.971  18
   2   4  -5 9270.84 423.811  17
   2   4  -5 9775.06 328.162   3
   2   4  -5 8061.29 398.999  50
   2   4  -4 32451.7 1393.37  31
   2   4  -4 36094.2 783.901  23
   2   4  -4 32398.8 709.717  10
   2   4  -4 35173.2 776.691  21
   2   4  -4 36780.8 1333.71   5
   2   4  -4 34073.5 1298.81  18
   2   4  -4 33689.0 590.393   3
   2   4  -3 140170. 2650.75  31
   2   4  -3 135911. 2359.81  18
   2   4  -2 147890. 2490.50  31
   2   4  -2 152720. 2379.62   5
   2   4  -2 147294. 2210.02  18
   2   4  -1 105804. 1926.13  31
   2   4  -1 106738. 1661.30  18
   2   4   0 85230.9 1591.79  31
   2   4   0 85798.8 1567.83   5
   2   4   0 85338.3 1283.03  18
   2   4   1 61211.4 1349.29  14
   2   4   1 62954.4 1234.00  31
   2   4   1 64818.9 1240.35   5
   2   4   2 115702. 1479.81  31
   2   4   2 118402. 1505.79   5
   2   4   3 65105.3 1393.66  14
   2   4   3 64835.6 1424.57   7
   2   4   4 19886.3 811.618  14
   2   4   4 19108.2 780.170   7
   2   4   5 12267.5 671.624  14
   2   4   5 11925.3 650.439   7
   2   4   6 13359.2 751.926  14
   2   4   6 14484.7 755.908   7
   2   4   7 49403.6 1537.62  14
   2   4   7 55201.8 1575.74   7
   2   4   7 51359.3 954.849  33
   2   4   7 49542.1 794.571   3
   2   4   7 51508.0 955.689  20
   2   4   7 48691.6 770.423   8
   2   4   7 53230.0 973.330  50
   2   4   8 2066.49 201.426  48
   2   4   8 1808.20 311.320  14
   2   4   8 1972.74 202.838  33
   2   4   8 1628.32 153.984   3
   2   4   8 1887.09 333.075  22
   2   4   8 1952.91 199.756  20
   2   4   8 1606.66 150.323   8
   2   4   8 1912.44 193.966  50
   2   4   9 35058.4 859.629  48
   2   4   9 33603.4 705.112   3
   2   4   9 32604.3 829.843  20
   2   4   9 31677.9 670.390   8
   2   4   9 33279.2 845.605  50
   2   4  10 42718.8 956.563  48
   2   4  10 42007.9 812.178   3
   2   4  10 41888.6 962.921  20
   2   4  10 42471.2 965.735  50
   2   4  11 13095.7 512.318  48
   2   4  11 13446.5 439.066   3
   2   4  11 13085.0 520.299  20
   2   4  11 13349.0 521.622  50
   2   4  12 102.075 55.7792  48
   2   4  12 143.599 55.5291   3
   2   4  12 69.2888 66.1684  20
   2   4  12 115.077 58.9696  50
   2   4  13 3092.44 162.661   3
   2   4  13 2939.92 189.162  20
   2   4  13 2775.33 180.832  50
   2   5 -10 965.109 104.340  17
   2   5  -9 2138.46 144.170   1
   2   5  -9 1832.39 182.406  17
   2   5  -8 6971.24 331.310  10
   2   5  -8 7308.42 386.420  17
   2   5  -8 8017.59 321.459   1
   2   5  -7 9710.26 426.404  10
   2   5  -7 10384.2 386.203   1
   2   5  -7 10212.5 480.060  17
   2   5  -7 9215.90 335.683   3
   2   5  -7 10412.2 468.703  50
   2   5  -6 17224.6 626.458  41
   2   5  -6 18073.1 648.116  23
   2   5  -6 18500.3 603.930  10
   2   5  -6 20458.4 545.951   1
   2   5  -6 19315.7 640.184  17
   2   5  -6 19094.2 487.865   3
   2   5  -6 18520.6 628.804  50
   2   5  -5 4040.88 562.842  31
   2   5  -5 4487.88 315.732  23
   2   5  -5 4276.17 282.804  10
   2   5  -5 3949.35 499.355   5
   2   5  -5 4030.80 513.499  18
   2   5  -5 4399.20 309.503  17
   2   5  -5 3944.00 220.809   3
   2   5  -5 4598.20 323.767  50
   2   5  -4 5499.60 612.387  31
   2   5  -4 6139.70 308.659  12
   2   5  -4 6438.29 352.252  28
   2   5  -4 6461.95 360.181  23
   2   5  -4 6063.63 329.742  10
   2   5  -4 6047.77 346.025  21
   2   5  -4 6310.44 604.786   5
   2   5  -4 6235.89 592.344  18
   2   5  -4 6568.11 349.383  17
   2   5  -4 6024.42 268.446   3
   2   5  -4 6601.83 376.933  50
   2   5  -3 4688.42 304.897  50
   2   5  -3 4372.23 514.611  31
   2   5  -3 4598.74 282.160  23
   2   5  -3 5195.51 301.957  21
   2   5  -3 4226.60 444.030  18
   2   5  -3 3901.71 210.835   3
   2   5  -2 31677.6 1254.14  31
   2   5  -2 33354.5 1216.34   5
   2   5  -2 30794.3 1085.03  18
   2   5  -1 68371.3 1732.18  31
   2   5  -1 69265.1 1655.27   5
   2   5   0 10577.3 632.400  31
   2   5   0 10944.5 620.857   5
   2   5   1 13749.8 698.472  14
   2   5   1 12772.9 632.555  31
   2   5   1 14229.6 668.884   5
   2   5   2 23331.4 894.844  14
   2   5   2 22406.7 767.539  31
   2   5   2 23781.2 801.745   5
   2   5   3 20047.3 844.759  14
   2   5   3 23423.5 888.275   7
   2   5   4 39744.1 1230.96  14
   2   5   4 48775.5 1292.60   7
   2   5   5 111492. 2156.81  14
   2   5   5 111100. 2031.16   7
   2   5   6 76384.9 1889.13  14
   2   5   6 77544.0 1734.17   7
   2   5   7 11397.2 453.627  48
   2   5   7 10630.8 746.541  14
   2   5   7 10467.6 453.321  33
   2   5   7 10580.7 378.393   3
   2   5   7 10446.7 403.140  21
   2   5   7 10288.2 437.955  20
   2   5   7 10153.7 366.911   8
   2   5   7 10641.6 446.174  50
   2   5   8 24711.8 701.713  48
   2   5   8 23279.2 1155.74  14
   2   5   8 23161.5 700.676  33
   2   5   8 23065.6 574.655   3
   2   5   8 24117.1 635.180  21
   2   5   8 23254.2 685.545  20
   2   5   8 24177.4 703.130  50
   2   5   8 22429.3 566.183   8
   2   5   9 12571.5 522.760  48
   2   5   9 11691.2 852.627  14
   2   5   9 11503.0 506.944  33
   2   5   9 12843.5 444.858   3
   2   5   9 12633.6 470.776  21
   2   5   9 12094.0 509.964  20
   2   5   9 12597.4 434.125   8
   2   5   9 12264.3 517.933  50
   2   5  10 1079.55 168.236  48
   2   5  10 1292.78 172.986  33
   2   5  10 1443.41 156.616   3
   2   5  10 1260.91 151.534  21
   2   5  10 1399.11 179.373  20
   2   5  10 1270.44 141.108   8
   2   5  10 1159.02 165.670  50
   2   5  11 374.250 76.4706   8
   2   5  11 279.378 92.3127  48
   2   5  11 419.405 87.2310   3
   2   5  11 437.505 92.7147  21
   2   5  11 391.900 102.797  20
   2   5  11 365.229 106.520  50
   2   5  12 1878.43 182.434  48
   2   5  12 2069.64 158.084   3
   2   5  12 1869.76 185.213  20
   2   5  12 1814.19 182.927  50
   2   5  13 3357.37 170.056   3
   2   5  13 3046.81 192.153  20
   2   5  13 2922.47 188.920  50
   2   6  -9 2319.67 166.266  17
   2   6  -8 1933.80 160.890  10
   2   6  -8 1857.15 185.316  17
   2   6  -8 2299.45 154.112   1
   2   6  -7 1546.91 137.317   3
   2   6  -7 1323.54 156.343  10
   2   6  -7 1367.70 171.135  17
   2   6  -7 1405.54 138.485   1
   2   6  -7 1086.92 157.680  50
   2   6  -6 3310.91 271.621  41
   2   6  -6 3049.99 285.367  23
   2   6  -6 2603.88 236.574  10
   2   6  -6 2548.68 190.615   1
   2   6  -6 2792.78 252.314  17
   2   6  -6 2765.95 184.558   3
   2   6  -6 3680.28 284.706  50
   2   6  -5 33635.0 875.334  23
   2   6  -5 33162.1 795.360  10
   2   6  -5 32857.2 827.282  17
   2   6  -5 35815.4 667.029   3
   2   6  -5 33742.2 874.623  50
   2   6  -4 4028.33 560.139  31
   2   6  -4 4819.54 323.223  23
   2   6  -4 4631.73 297.695  10
   2   6  -4 4645.36 551.449   5
   2   6  -4 4440.68 518.601  18
   2   6  -4 4645.71 305.845  17
   2   6  -4 4647.09 244.587   3
   2   6  -4 4800.25 333.156  50
   2   6  -3 12877.4 461.210  12
   2   6  -3 13273.6 510.849  23
   2   6  -3 13024.1 508.895  21
   2   6  -3 13632.1 532.412  50
   2   6  -3 13390.3 401.972   3
   2   6  -2 2040.55 367.884  31
   2   6  -2 2598.50 203.460  12
   2   6  -2 2668.66 219.518  23
   2   6  -2 2583.80 209.200  10
   2   6  -2 2281.02 221.335  50
   2   6  -2 2530.95 223.620  21
   2   6  -2 3029.83 413.473   5
   2   6  -2 2898.64 184.020   3
   2   6  -1 13117.7 846.734  31
   2   6  -1 14812.2 843.020   5
   2   6   0 59526.5 1671.10  31
   2   6   0 66524.1 1690.27   5
   2   6   1 21780.2 951.036  14
   2   6   1 21031.6 921.309  31
   2   6   2 20834.6 916.077  14
   2   6   2 19559.4 835.637  31
   2   6   2 21108.4 839.517   5
   2   6   3 4992.75 463.207  14
   2   6   4 20635.0 948.920  14
   2   6   5 56536.1 1476.92   7
   2   6   6 25011.3 674.471  48
   2   6   6 22384.0 1081.19  14
   2   6   6 22035.1 529.810   3
   2   6   6 23770.6 614.664  21
   2   6   6 23948.3 644.225  20
   2   6   6 23132.6 554.179   8
   2   6   6 24746.5 676.784  50
   2   6   7 45293.7 949.619  48
   2   6   7 43939.4 1573.94  14
   2   6   7 42594.1 951.174  33
   2   6   7 43793.7 864.990  21
   2   6   7 42931.9 893.655  20
   2   6   7 41465.5 773.565   8
   2   6   7 44536.7 944.367  50
   2   6   8 41048.5 933.075  48
   2   6   8 40761.1 1581.97  14
   2   6   8 40433.3 953.847  33
   2   6   8 40825.7 852.860  21
   2   6   8 38682.2 883.301  20
   2   6   8 40732.2 939.429  50
   2   6   8 38822.0 770.083   8
   2   6   9 6319.51 378.169  48
   2   6   9 6164.45 387.077  33
   2   6   9 6213.64 338.917  21
   2   6   9 5935.87 356.405  20
   2   6   9 6595.56 322.916   8
   2   6   9 5938.16 364.863  50
   2   6  10 8862.72 447.210  48
   2   6  10 8267.37 435.103  33
   2   6  10 9003.17 402.968  21
   2   6  10 8540.28 423.712  20
   2   6  10 8174.52 357.030   8
   2   6  10 9174.50 448.502  50
   2   6  11 3820.43 282.545  48
   2   6  11 3800.10 249.288  21
   2   6  11 4004.86 280.178  20
   2   6  11 3967.36 233.547   8
   2   6  11 4000.63 288.186  50
   2   6  12 2871.87 218.659  48
   2   6  12 3005.24 195.740  21
   2   6  12 3055.18 220.460  20
   2   6  12 3173.32 186.095   8
   2   6  12 3048.33 230.125  50
   2   6  13 1506.34 126.363  20
   2   6  13 1404.17 132.706  50
   2   7  -8 1886.82 149.825  17
   2   7  -7 3211.65 222.519  10
   2   7  -7 3348.01 233.788  17
   2   7  -6 5537.53 311.221  10
   2   7  -6 5552.42 265.029   1
   2   7  -6 5844.49 331.682  17
   2   7  -6 5840.19 261.909   3
   2   7  -6 5299.47 331.063  50
   2   7  -5 1669.27 203.615  23
   2   7  -5 1688.89 187.760  10
   2   7  -5 1367.20 191.781  50
   2   7  -5 1381.15 175.531  17
   2   7  -5 1466.53 140.038   3
   2   7  -4 23589.1 736.193  50
   2   7  -4 24253.9 742.954  23
   2   7  -4 24990.5 718.595  10
   2   7  -4 26433.2 573.838   3
   2   7  -3 18937.9 572.819  12
   2   7  -3 19440.6 650.479  23
   2   7  -3 18582.0 610.371  21
   2   7  -3 20293.1 500.622   3
   2   7  -3 20595.2 683.961  50
   2   7  -2 6991.61 710.876  31
   2   7  -2 8187.68 368.343  12
   2   7  -2 8182.22 406.371  23
   2   7  -2 8117.61 390.685  10
   2   7  -2 8174.02 401.852  21
   2   7  -2 8684.01 742.303   5
   2   7  -2 8313.44 319.380   3
   2   7  -2 7800.18 422.835  50
   2   7  -1 19737.9 632.495  35
   2   7  -1 19819.5 563.483  12
   2   7  -1 18936.5 1097.80  31
   2   7  -1 20731.0 612.795  23
   2   7  -1 19074.3 567.371  10
   2   7  -1 20276.7 621.089  21
   2   7  -1 21684.6 1118.98   5
   2   7  -1 19403.6 486.740   3
   2   7  -1 22381.3 687.681  50
   2   7   0 78668.0 1188.44  35
   2   7   0 85226.4 1147.53  12
   2   7   0 74269.5 2074.80  31
   2   7   0 85057.8 1159.88  23
   2   7   0 80095.9 1110.34  10
   2   7   0 83656.8 1211.68  21
   2   7   0 92909.2 2215.81   5
   2   7   0 80933.3 981.918   3
   2   7   0 82277.9 1280.26  50
   2   7   1 26735.5 631.450  12
   2   7   1 24899.3 1121.13  31
   2   7   1 26002.9 667.550  21
   2   7   1 27876.0 1137.49   5
   2   7   1 25411.2 547.067   3
   2   7   1 27323.5 723.627  50
   2   7   2 95.4136 39.7189   3
   2   7   2 120.253 98.3539  14
   2   7   2 199.550 77.6903  50
   2   7   2 320.126 75.9307  12
   2   7   2 15.2126 71.1121   5
   2   7   3 13713.4 513.175  42
   2   7   3 13456.3 813.353  14
   2   7   3 13036.1 439.723  12
   2   7   3 13114.3 460.389  21
   2   7   3 13022.6 392.475   3
   2   7   3 15086.9 530.482  50
   2   7   3 13088.1 410.103   8
   2   7   4 8948.60 411.584  42
   2   7   4 8780.91 663.450  14
   2   7   4 7894.75 342.908  12
   2   7   4 9195.65 390.748  27
   2   7   4 8968.26 385.702  21
   2   7   4 8276.33 319.664   3
   2   7   4 8444.31 332.254   8
   2   7   4 9457.01 424.436  50
   2   7   5 5830.73 329.488  42
   2   7   5 5588.55 554.419  14
   2   7   5 5307.28 279.085  12
   2   7   5 5751.35 310.865  27
   2   7   5 5148.21 257.867   3
   2   7   5 6028.07 325.624  21
   2   7   5 5495.47 274.360   8
   2   7   5 6461.03 358.914  50
   2   7   6 19186.9 1040.31  14
   2   7   6 18292.0 518.563  12
   2   7   6 18848.1 505.647   3
   2   7   6 19637.2 597.109  21
   2   7   6 19106.7 529.862   8
   2   7   6 20851.1 648.985  50
   2   7   7 30285.6 807.380  48
   2   7   7 29706.2 644.210   3
   2   7   7 30838.1 758.156  21
   2   7   7 30051.0 760.996  20
   2   7   7 31035.7 816.756  50
   2   7   8 16554.1 618.320  48
   2   7   8 17239.6 583.548  47
   2   7   8 16326.9 1028.26  14
   2   7   8 16014.9 495.052   3
   2   7   8 16816.7 572.078  21
   2   7   8 16496.5 569.636  20
   2   7   8 17093.7 613.987  50
   2   7   8 16682.6 518.213   8
   2   7   9 13679.8 521.833  47
   2   7   9 13650.9 459.213   3
   2   7   9 13804.1 513.848  21
   2   7   9 12823.4 554.878  48
   2   7   9 13470.2 521.852  20
   2   7   9 13589.4 553.002  50
   2   7   9 13402.6 473.768   8
   2   7  10 5661.60 362.169  48
   2   7  10 5638.90 290.552   3
   2   7  10 5706.28 331.319  21
   2   7  10 5836.09 335.082  20
   2   7  10 5986.82 299.822   8
   2   7  10 5789.14 363.121  50
   2   7  11 3307.12 263.542  48
   2   7  11 3676.55 273.710  50
   2   7  11 4379.42 243.476   3
   2   7  11 3886.09 251.279  21
   2   7  11 4408.01 272.262  20
   2   7  11 4373.24 245.029   8
   2   7  12 14002.5 386.595   3
   2   7  12 13656.6 412.293  21
   2   7  12 13501.4 423.984  20
   2   7  12 14225.3 383.443   8
   2   7  12 13024.0 454.879  50
   2   7  13 11345.6 287.328   3
   2   7  13 10337.4 293.413  20
   2   7  13 10632.6 261.481   8
   2   7  13 10754.2 344.895  50
   2   8  -7 477.863 76.8090  10
   2   8  -7 426.843 74.9131  17
   2   8  -6 6106.18 294.777  10
   2   8  -6 5607.34 281.375  17
   2   8  -5 19162.6 622.819  23
   2   8  -5 20097.2 586.795  10
   2   8  -5 19308.6 458.242   3
   2   8  -4 1293.69 177.325  23
   2   8  -4 1372.73 171.886  10
   2   8  -4 1344.65 142.290   3
   2   8  -3 1890.06 219.885  23
   2   8  -3 1787.18 207.974  21
   2   8  -3 1933.65 177.547   3
   2   8  -2 9392.84 406.370  12
   2   8  -2 9976.52 460.893  23
   2   8  -2 9321.08 432.506  10
   2   8  -2 9748.25 448.426  21
   2   8  -2 8898.37 348.031   3
   2   8  -1 59896.4 1039.73  43
   2   8  -1 57556.7 1003.56  12
   2   8  -1 58878.4 1099.66  23
   2   8  -1 64105.0 1067.09  10
   2   8  -1 59328.7 1082.30  21
   2   8  -1 64782.2 2051.48   5
   2   8  -1 56478.0 850.666   3
   2   8   0 1792.06 187.219  43
   2   8   0 1870.81 205.826  35
   2   8   0 1896.09 186.450  12
   2   8   0 1657.55 357.903  31
   2   8   0 1910.04 193.688  23
   2   8   0 1853.42 182.796  10
   2   8   0 1849.32 192.663  21
   2   8   0 1944.74 348.476   5
   2   8   0 1988.12 164.911   3
   2   8   1 2158.92 193.252  43
   2   8   1 2135.81 207.533  35
   2   8   1 1797.58 184.858  12
   2   8   1 1589.47 314.809  31
   2   8   1 1753.21 174.529  10
   2   8   1 1957.97 201.360  21
   2   8   1 1973.06 343.045   5
   2   8   1 1614.81 153.953   3
   2   8   2 11722.5 440.103  43
   2   8   2 11082.6 467.661  21
   2   8   2 12265.5 397.281   3
   2   8   2 12232.8 415.078   8
   2   8   3 3223.85 262.198  47
   2   8   3 3702.05 243.519  43
   2   8   3 3069.69 417.390  14
   2   8   3 3017.53 231.632  12
   2   8   3 2873.04 246.388  27
   2   8   3 2949.54 241.639  21
   2   8   3 2706.66 192.222   3
   2   8   3 2898.11 205.530   8
   2   8   4 6016.49 353.168  47
   2   8   4 6493.41 329.610  43
   2   8   4 5551.61 366.326  42
   2   8   4 6135.72 595.416  14
   2   8   4 6467.33 330.134  12
   2   8   4 5637.63 337.346  27
   2   8   4 6566.21 296.751   3
   2   8   4 6560.54 305.583   8
   2   8   5 35.6915 39.0268   8
   2   8   5 43.6073 61.9746  47
   2   8   5 56.0683 42.9704   3
   2   8   5 41.3186 59.1755  42
   2   8   5 43.3596 73.2651  14
   2   8   5 34.2625 55.7717  12
   2   8   5-11.4639 67.1564  27
   2   8   5 13.7992 51.6700  21
   2   8   6 1535.60 186.183  47
   2   8   6 1524.36 186.249  42
   2   8   6 1625.84 322.374  14
   2   8   6 1684.63 171.411  12
   2   8   6 1534.22 175.526  27
   2   8   6 1752.23 162.902   3
   2   8   6 1542.44 182.123  21
   2   8   6 1774.39 167.074   8
   2   8   7 17395.5 598.935  47
   2   8   7 16835.1 1033.92  14
   2   8   7 16635.8 515.281  12
   2   8   7 18017.5 510.150   3
   2   8   7 17144.6 583.052  21
   2   8   7 17754.4 534.284   8
   2   8   8 13771.6 454.061   3
   2   8   8 14768.1 552.964  21
   2   8   9 17205.2 512.063   3
   2   8   9 18752.0 609.335  21
   2   8   9 18115.6 536.112   8
   2   8  10 4618.55 296.553  47
   2   8  10 5097.44 264.194   3
   2   8  10 4782.66 292.736  21
   2   8  10 5014.40 271.468   8
   2   8  11 4257.88 227.836   3
   2   8  11 3917.43 248.737  21
   2   8  11 4337.63 235.377   8
   2   8  12 2372.05 148.652   3
   2   8  12 2363.41 168.872  21
   2   8  12 2506.72 155.665   8
   2   8  13 1194.64 86.1894   3
   2   8  13 1149.98 91.6607  21
   2   8  13 1106.06 82.6945   8
   2   9  -6 4036.61 195.502  10
   2   9  -5 1576.70 155.180  10
   2   9  -5 1892.09 123.729   3
   2   9  -4 3254.12 253.211  23
   2   9  -4 3244.01 238.068  10
   2   9  -4 3252.99 183.517   3
   2   9  -3 1794.55 201.180  23
   2   9  -3 1733.30 151.752   3
   2   9  -2 8230.40 367.209  12
   2   9  -2 8519.53 430.337  23
   2   9  -2 8958.12 417.723  10
   2   9  -2 8186.34 403.356  21
   2   9  -2 8592.26 327.220   3
   2   9  -1 6764.73 349.026  12
   2   9  -1 6037.95 364.902  23
   2   9  -1 7182.27 366.217  10
   2   9  -1 6446.35 370.060  21
   2   9  -1 6699.08 297.640   3
   2   9   0 11468.9 472.096  43
   2   9   0 11534.5 460.716  12
   2   9   0 11412.6 478.485  23
   2   9   0 11804.9 463.571  10
   2   9   0 11606.1 488.462  21
   2   9   0 10891.6 381.177   3
   2   9   1 2900.60 239.298  43
   2   9   1 2804.43 253.235  35
   2   9   1 2833.43 236.712  12
   2   9   1 2836.96 236.619  23
   2   9   1 2973.94 227.776  10
   2   9   1 2903.67 247.525  21
   2   9   1 2913.09 261.640  50
   2   9   1 2472.01 189.862   3
   2   9   2 20524.8 608.966  43
   2   9   2 19458.6 604.065  12
   2   9   2 19655.7 566.866  10
   2   9   2 18926.2 620.834  21
   2   9   2 16881.0 492.177   3
   2   9   2 17162.8 651.543  50
   2   9   3 14411.9 507.005  43
   2   9   3 13889.7 538.265  21
   2   9   3 12830.2 435.844   3
   2   9   3 14874.5 463.804   8
   2   9   3 11862.1 542.610  50
   2   9   4 17103.5 615.351  47
   2   9   4 16682.8 552.183  43
   2   9   4 16390.6 997.182  14
   2   9   4 16853.3 560.420  12
   2   9   4 17151.8 603.674  21
   2   9   4 15822.8 476.867   3
   2   9   4 18339.6 519.482   8
   2   9   4 15000.1 613.452  50
   2   9   5 11091.6 499.947  47
   2   9   5 10858.3 448.322  43
   2   9   5 10948.6 509.199  42
   2   9   5 10360.1 434.525  12
   2   9   5 10223.9 465.716  27
   2   9   5 9627.99 451.114  21
   2   9   5 9371.59 369.055   3
   2   9   5 9543.88 398.438   8
   2   9   5 10068.4 496.212  50
   2   9   6 20803.8 673.812  47
   2   9   6 19245.5 666.492  42
   2   9   6 19816.5 596.903  12
   2   9   6 19198.6 628.760  27
   2   9   6 18067.7 510.951   3
   2   9   6 20361.2 560.778   8
   2   9   6 19637.1 678.943  50
   2   9   7 66441.1 1203.80  47
   2   9   7 63173.8 1187.84  42
   2   9   7 64302.6 1045.12  12
   2   9   7 64769.6 1130.35  27
   2   9   7 64613.5 1165.41  21
   2   9   7 62739.4 956.761   3
   2   9   7 63842.1 1219.72  50
   2   9   7 67094.1 1028.50   8
   2   9   8 35349.7 863.379  47
   2   9   8 34891.8 732.759  12
   2   9   8 35597.3 851.995  21
   2   9   8 37052.3 724.474   3
   2   9   8 37311.2 770.825   8
   2   9   8 35505.8 903.431  50
   2   9   9 4429.43 297.292  47
   2   9   9 4282.07 286.198  21
   2   9   9 4164.38 242.070   3
   2   9   9 4766.97 266.334   8
   2   9   9 4136.63 309.701  50
   2   9  10 15021.8 506.649  47
   2   9  10 15852.9 516.156  21
   2   9  10 15839.4 441.338   3
   2   9  10 14565.7 530.415  50
   2   9  11 1571.15 153.804  21
   2   9  11 1777.02 135.949   3
   2   9  11 1847.79 149.454   8
   2   9  11 1481.91 158.916  50
   2   9  12 1483.06 125.664  21
   2   9  12 1632.39 109.497   3
   2   9  12 1657.92 120.363   8
   2   9  12 1321.27 131.666  50
   2  10  -5 571.794 74.9265  10
   2  10  -5 279.411 62.7076  50
   2  10  -4 180.382 42.1214   3
   2  10  -4 372.095 86.4745  23
   2  10  -4 238.451 67.6788  10
   2  10  -4 213.433 67.8918  50
   2  10  -3 826.998 127.570  23
   2  10  -3 858.893 93.1280   3
   2  10  -3 575.499 112.926  50
   2  10  -2 8990.88 416.201  23
   2  10  -2 10545.0 421.999  10
   2  10  -2 10304.1 315.439   3
   2  10  -2 8576.56 417.005  50
   2  10  -1 8688.75 431.907  50
   2  10  -1 9553.00 382.411  12
   2  10  -1 9333.41 428.321  23
   2  10  -1 10032.4 424.615  10
   2  10  -1 8752.13 405.750  21
   2  10  -1 10122.5 333.083   3
   2  10   0 2172.44 206.771  43
   2  10   0 2892.21 230.044  12
   2  10   0 2348.40 225.921  23
   2  10   0 2731.51 231.349  10
   2  10   0 2410.27 227.579  21
   2  10   0 3114.34 196.255   3
   2  10   0 1819.55 214.620  50
   2  10   1 9520.80 483.068  50
   2  10   1 9040.15 419.967  43
   2  10   1 10777.3 444.884  12
   2  10   1 10073.1 440.068  23
   2  10   1 10304.1 423.992  10
   2  10   1 9994.57 458.220  21
   2  10   1 9906.24 360.356   3
   2  10   2 1966.06 204.288  43
   2  10   2 1895.27 196.234  12
   2  10   2 1809.91 177.638  10
   2  10   2 1903.90 207.535  21
   2  10   2 1668.17 154.025   3
   2  10   2 1819.88 225.912  50
   2  10   3 21059.3 630.714  43
   2  10   3 20645.2 629.778  12
   2  10   3 20867.2 718.413  50
   2  10   3 20183.1 666.477  21
   2  10   3 20733.7 526.952   3
   2  10   4 1348.56 167.408  43
   2  10   4 1557.01 176.278  12
   2  10   4 1137.87 174.618  21
   2  10   4 1138.81 190.451  50
   2  10   4 1551.15 153.967   3
   2  10   5 2023.08 224.140  47
   2  10   5 1814.01 195.310  43
   2  10   5 2081.23 200.632  12
   2  10   5 2037.06 217.967  21
   2  10   5 2115.31 174.033   3
   2  10   5 2088.94 179.249   8
   2  10   5 1839.16 225.124  50
   2  10   6 6591.41 392.503  47
   2  10   6 7003.11 358.884  43
   2  10   6 7022.23 354.947  12
   2  10   6 6439.94 373.475  27
   2  10   6 6648.55 379.184  21
   2  10   6 6029.05 286.828   3
   2  10   6 6501.95 313.481   8
   2  10   6 5976.71 392.375  50
   2  10   7 13141.7 534.661  47
   2  10   7 12993.5 490.754  43
   2  10   7 14013.3 483.573  12
   2  10   7 13023.6 509.100  27
   2  10   7 13388.6 421.646   3
   2  10   7 14489.7 463.112   8
   2  10   7 12748.0 549.034  50
   2  10   8 985.575 154.115  47
   2  10   8 1101.96 134.465  12
   2  10   8 920.243 134.888  27
   2  10   8 1169.75 170.308  50
   2  10   8 1337.87 135.550   3
   2  10   8 1334.59 141.435   8
   2  10   9 7837.11 370.749  47
   2  10   9 7579.66 369.107  21
   2  10   9 7621.32 294.275   3
   2  10   9 7551.64 325.026   8
   2  10   9 7202.35 384.961  50
   2  10  10 4461.65 260.903  47
   2  10  10 4618.75 263.465  21
   2  10  10 4420.41 208.967   3
   2  10  10 4993.86 240.346   8
   2  10  10 4305.01 273.168  50
   2  10  11 8561.28 318.745  21
   2  10  11 8787.00 254.697   3
   2  10  11 8954.52 290.806   8
   2  10  11 7993.60 328.887  50
   2  10  12 14.6722 28.4554  21
   2  10  12 30.5303 33.7034  50
   2  11  -3 862.739 103.699  23
   2  11  -3 534.217 83.7578  50
   2  11  -2 1053.52 125.536  23
   2  11  -2 1204.14 131.564  10
   2  11  -2 999.914 85.3520   3
   2  11  -2 866.630 120.126  50
   2  11  -1 1335.07 150.466  23
   2  11  -1 1429.12 153.373  10
   2  11  -1 1244.93 103.442   3
   2  11  -1 969.808 137.504  50
   2  11   0 5980.66 286.699  12
   2  11   0 5759.06 309.557  23
   2  11   0 6301.27 317.812  10
   2  11   0 5553.92 304.712  21
   2  11   0 5901.15 231.583   3
   2  11   0 5601.88 335.079  50
   2  11   1 2474.58 209.300  43
   2  11   1 2953.26 218.134  12
   2  11   1 2403.17 231.298  50
   2  11   1 2995.32 227.621  23
   2  11   1 2883.84 221.968  10
   2  11   1 2742.62 225.413  21
   2  11   1 2940.17 179.137   3
   2  11   2 5625.37 312.121  43
   2  11   2 6361.28 330.615  12
   2  11   2 5779.35 307.336  10
   2  11   2 6110.65 335.658  21
   2  11   2 6010.27 251.709   3
   2  11   2 5658.85 349.926  50
   2  11   3 3731.40 266.071  43
   2  11   3 5018.20 302.451  12
   2  11   3 4555.16 298.314  21
   2  11   3 4553.11 226.996   3
   2  11   3 3452.50 282.034  50
   2  11   4 23402.1 637.425  43
   2  11   4 23009.5 673.780  21
   2  11   4 22963.5 514.339   3
   2  11   4 23530.9 710.528  50
   2  11   5 5618.28 313.431  43
   2  11   5 6119.17 334.346  12
   2  11   5 5069.62 335.833  50
   2  11   5 5581.47 334.420  21
   2  11   5 6128.17 267.459   3
   2  11   6 1110.21 149.331  43
   2  11   6 1281.56 147.127  12
   2  11   6 1129.42 169.038  50
   2  11   6 1181.92 156.185  21
   2  11   6 1130.23 117.289   3
   2  11   6 1007.81 120.583   8
   2  11   7 1993.45 204.051  47
   2  11   7 1992.26 184.822  43
   2  11   7 1876.00 172.011  12
   2  11   7 2006.36 194.370  21
   2  11   7 1629.80 138.028   3
   2  11   7 1969.54 156.709   8
   2  11   7 1972.52 209.013  50
   2  11   8 12654.3 478.159  50
   2  11   8 11784.9 450.554  47
   2  11   8 12344.7 428.106  43
   2  11   8 12537.3 404.943  12
   2  11   8 12963.7 466.630  21
   2  11   8 11352.4 335.592   3
   2  11   8 12047.7 375.580   8
   2  11   9 11911.5 422.630  47
   2  11   9 12660.6 402.670  43
   2  11   9 13788.1 374.590  12
   2  11   9 13024.2 339.156   3
   2  11   9 13082.4 457.952  50
   2  11  10 78.0931 38.3205   8
   2  11  10 48.2565 42.2260  47
   2  11  10 67.7380 30.6488   3
   2  11  10-1.25242 43.2542  43
   2  11  10 7.88415 52.7597  50
   2  11  11 27.4313 25.6880   8
   2  11  11 55.3770 32.3844  43
   2  11  11 58.4852 35.0139  21
   2  11  11 91.4246 44.3490  50
   2  12  -1 1927.58 137.424  23
   2  12  -1 2164.58 149.761  10
   2  12   0 5566.00 249.237  23
   2  12   0 4778.38 252.771  50
   2  12   1 2343.09 160.163  12
   2  12   1 1858.25 151.445  23
   2  12   1 2150.85 166.707  10
   2  12   1 1645.71 146.665  21
   2  12   1 1689.11 165.604  50
   2  12   2 1539.30 141.417  12
   2  12   2 976.005 138.068  50
   2  12   2 1327.76 126.207  10
   2  12   2 1202.87 134.663  21
   2  12   3 1594.44 155.661  43
   2  12   3 1985.30 165.497  12
   2  12   3 1644.88 163.178  21
   2  12   3 1638.86 174.161  50
   2  12   4 7205.55 318.380  43
   2  12   4 7337.43 357.099  50
   2  12   4 7707.33 345.191  21
   2  12   5 4411.89 248.917  43
   2  12   5 4362.66 262.870  21
   2  12   5 4619.46 286.182  50
   2  12   6 7072.54 304.244  43
   2  12   6 8207.82 327.500  12
   2  12   6 7480.59 331.736  21
   2  12   6 6977.90 337.658  50
   2  12   7 1645.79 148.474  43
   2  12   7 1846.66 153.875  12
   2  12   7 1670.68 155.747  21
   2  12   7 1562.69 160.651  50
   2  12   8 2142.14 156.500  43
   2  12   8 2428.32 172.161  21
   2  12   8 1843.76 165.866  50
   2  12   9 11247.8 313.494  43
   2  12   9 12666.5 304.457  12
   2  12   9 11608.3 356.912  50
   2  12   9 13066.5 364.205  21
   2  12   9 10005.0 251.981   8
   2  12  10 2926.44 151.505  21
   2  12  10 2086.27 137.038  50
   2  13   2 356.015 65.5059  50
   2  13   3 2574.75 145.242  12
   2  13   3 1724.90 136.051  50
   2  13   4 4262.83 196.283  43
   2  13   4 4587.37 199.720  21
   2  13   5 2393.15 147.755  43
   2  13   5 2834.40 164.127  12
   2  13   5 2614.93 158.678  21
   2  13   6 761.481 86.6473  43
   2  13   6 890.685 95.1937  21
   2  13   6 743.727 93.7593  50
   2  13   7 23.8654 32.7152  43
   2  13   7 161.466 45.6271  12
   2  13   7 112.141 41.3758  21
   2  13   7 75.8975 41.3107  50
   3 -11  -5 1913.14 143.365  15
   3 -11  -4 310.560 69.0478  15
   3 -10  -9 2607.05 151.863  13
   3 -10  -8 1632.62 140.380  13
   3 -10  -7 1395.74 143.077  13
   3 -10  -6 2404.23 194.390  15
   3 -10  -6 2014.76 179.146  13
   3 -10  -5 818.104 134.759  15
   3 -10  -5 429.428 92.5464  13
   3 -10  -4 5714.72 317.432  15
   3 -10  -4 4153.90 241.972  13
   3 -10  -3 12574.7 467.478  15
   3 -10  -2 6627.33 334.641  15
   3 -10  -1 1718.07 166.105  15
   3 -10   0 737.900 85.8138  11
   3 -10   1 3308.62 166.157  11
   3  -9 -10 116.082 46.7404  13
   3  -9  -9 2363.45 184.962  13
   3  -9  -8 3675.79 187.064  10
   3  -9  -7 4451.74 300.955  13
   3  -9  -7 4405.19 226.997  10
   3  -9  -6 6906.14 362.849  15
   3  -9  -6 6454.59 372.861  13
   3  -9  -6 7434.14 310.393  10
   3  -9  -5 7604.07 408.269  15
   3  -9  -5 7092.91 374.592  13
   3  -9  -5 8110.54 331.077  10
   3  -9  -4 17198.1 622.964  15
   3  -9  -4 16479.2 567.176  13
   3  -9  -4 16278.7 476.466  17
   3  -9  -3 6352.44 389.046  15
   3  -9  -3 6078.84 295.986  17
   3  -9  -2 488.716 112.535  13
   3  -9  -2 603.581 102.680  17
   3  -9  -1 14419.9 560.416  15
   3  -9  -1 13678.6 451.151  17
   3  -9   0 13321.7 506.455  15
   3  -9   0 11800.1 428.665  11
   3  -9   0 13172.0 422.804  17
   3  -9   1 784.966 117.109  11
   3  -9   2 77.3028 54.3192  11
   3  -9   3 2924.10 181.114  11
   3  -8 -10 1110.09 107.284   4
   3  -8 -10 1059.06 127.741  13
   3  -8  -9 4157.87 276.455  13
   3  -8  -9 3784.90 217.010   4
   3  -8  -8 98.5028 57.2149   4
   3  -8  -8 78.2348 70.7284  13
   3  -8  -8 141.537 59.7764  10
   3  -8  -7 4585.90 274.108   4
   3  -8  -7 4692.65 258.627  10
   3  -8  -6 7907.75 360.292   4
   3  -8  -6 8309.47 424.988  15
   3  -8  -6 8556.32 456.231  13
   3  -8  -6 8608.83 366.614  10
   3  -8  -6 7717.15 341.605  17
   3  -8  -5 15097.4 505.560   4
   3  -8  -5 15126.1 603.195  15
   3  -8  -5 14782.1 601.329  13
   3  -8  -5 15862.1 508.781  10
   3  -8  -5 15096.2 492.731  17
   3  -8  -4 2840.30 221.437   4
   3  -8  -4 3098.29 295.637  15
   3  -8  -4 3094.31 279.339  13
   3  -8  -4 2994.11 227.989  17
   3  -8  -3 24183.5 790.582  15
   3  -8  -3 25123.9 641.843   4
   3  -8  -3 24993.3 756.000  13
   3  -8  -3 26238.6 658.762  10
   3  -8  -3 23805.6 653.670  17
   3  -8  -2 11965.5 564.683  15
   3  -8  -2 11502.9 432.472   4
   3  -8  -2 11387.0 499.315  13
   3  -8  -2 11739.3 451.496  10
   3  -8  -2 12146.4 458.897  17
   3  -8  -1 17502.4 595.428  13
   3  -8  -1 18148.8 562.478  17
   3  -8   0 6772.32 415.096  15
   3  -8   0 6336.31 344.726  13
   3  -8   0 6501.15 364.492  11
   3  -8   0 6707.41 349.574  17
   3  -8   1 4433.25 322.545  15
   3  -8   1 4075.83 287.123  11
   3  -8   1 4270.72 277.329  17
   3  -8   2 2152.17 202.934  11
   3  -8   2 1806.96 177.748  19
   3  -8   3 4837.83 280.385  11
   3  -8   3 4457.39 255.977  19
   3  -8   4 1491.18 136.567  19
   3  -8   5 172.266 49.2494  11
   3  -8   5 150.039 42.7641  19
   3  -7 -11 4149.78 213.072  13
   3  -7 -11 3985.20 196.125   4
   3  -7 -10 5962.08 315.651  13
   3  -7 -10 5657.21 274.496   4
   3  -7  -9 3597.70 275.168  13
   3  -7  -9 2848.62 183.155  10
   3  -7  -9 3170.77 231.883   4
   3  -7  -8 3276.98 287.982  13
   3  -7  -8 3315.58 221.840  10
   3  -7  -8 3187.68 245.676   4
   3  -7  -7 6572.30 420.153  13
   3  -7  -7 6701.17 328.128  10
   3  -7  -7 6768.73 331.319  17
   3  -7  -7 6412.96 355.950   4
   3  -7  -6 2226.95 201.626  10
   3  -7  -6 1842.99 204.726   4
   3  -7  -6 2137.30 199.618  17
   3  -7  -5 1868.55 204.360   4
   3  -7  -5 1982.71 228.816  15
   3  -7  -5 2100.70 243.598  13
   3  -7  -5 2200.89 207.601  10
   3  -7  -5 2094.08 201.020  17
   3  -7  -4 12383.2 481.140   4
   3  -7  -4 12048.2 564.056  15
   3  -7  -4 12746.1 573.037  13
   3  -7  -4 12149.6 470.903  17
   3  -7  -3 21919.1 629.431   4
   3  -7  -3 20383.8 741.256  15
   3  -7  -3 21264.8 730.740  13
   3  -7  -3 20717.2 607.437  10
   3  -7  -3 20437.6 612.694  17
   3  -7  -2 13640.0 498.643   4
   3  -7  -2 13372.2 611.229  15
   3  -7  -2 13486.9 574.258  13
   3  -7  -2 14697.6 505.140  10
   3  -7  -2 13764.0 502.801  17
   3  -7  -1 750.161 122.052   4
   3  -7  -1 556.300 126.422  13
   3  -7  -1 704.106 118.654  10
   3  -7  -1 709.195 130.284  17
   3  -7   0 20414.4 741.472  15
   3  -7   0 20723.7 602.934   4
   3  -7   0 20127.2 661.725  13
   3  -7   0 18785.3 645.247  11
   3  -7   0 19173.9 619.786  17
   3  -7   1 1645.72 223.544  15
   3  -7   1 1663.89 172.293   4
   3  -7   1 1658.36 186.961  13
   3  -7   1 1398.42 192.413  11
   3  -7   1 1915.09 197.297  17
   3  -7   2 11696.9 449.868   4
   3  -7   2 10989.2 504.393  11
   3  -7   2 10166.6 448.742  19
   3  -7   3 1525.73 165.103   4
   3  -7   3 1799.64 202.950  11
   3  -7   3 1727.99 188.512  19
   3  -7   4 13850.7 440.893   4
   3  -7   4 16408.7 533.754  19
   3  -7   5 105.993 62.6339  11
   3  -7   5-6.98713 47.0165  19
   3  -7   6 1123.30 112.166  11
   3  -7   6 1105.52 111.721  19
   3  -6 -12 1950.95 125.907   4
   3  -6 -11 4531.39 240.556   4
   3  -6 -10 9730.82 417.277  13
   3  -6 -10 9313.71 394.798   4
   3  -6  -9 9502.23 465.365  13
   3  -6  -9 8653.89 339.443  10
   3  -6  -9 9298.92 425.911   4
   3  -6  -8 119.656 77.8887   4
   3  -6  -8 179.411 89.9477  13
   3  -6  -8 105.141 54.1134  10
   3  -6  -8 154.548 71.5371  17
   3  -6  -7 20145.7 733.951  13
   3  -6  -7 21194.6 595.405  10
   3  -6  -7 20104.4 610.723  17
   3  -6  -7 20617.9 646.908   4
   3  -6  -6 10576.0 523.367  13
   3  -6  -6 10424.7 421.610  10
   3  -6  -6 9534.58 430.150  17
   3  -6  -6 10296.1 453.682   4
   3  -6  -5 55292.9 1214.20  13
   3  -6  -5 59002.9 1007.24  10
   3  -6  -5 55538.6 1019.64  17
   3  -6  -5 58673.4 1065.69   4
   3  -6  -4 54714.5 1154.89  15
   3  -6  -4 55892.3 1009.01  17
   3  -6  -4 55635.6 1021.75   4
   3  -6  -3 29864.7 741.390   4
   3  -6  -3 28742.7 848.486  15
   3  -6  -3 29751.7 848.851  13
   3  -6  -3 30128.8 716.021  10
   3  -6  -3 29638.5 1631.31   9
   3  -6  -3 28654.5 728.659  17
   3  -6  -3 27742.6 1487.24  16
   3  -6  -2 6667.44 348.117   4
   3  -6  -2 6694.94 418.035  15
   3  -6  -2 7201.31 417.470  13
   3  -6  -2 6293.54 739.080  16
   3  -6  -2 6835.31 340.479  10
   3  -6  -2 7087.64 359.246  17
   3  -6  -1 10767.3 442.977   4
   3  -6  -1 10943.2 538.400  15
   3  -6  -1 10896.7 497.807  13
   3  -6  -1 10308.2 419.209  10
   3  -6  -1 9696.20 908.145  16
   3  -6  -1 11053.4 452.584  17
   3  -6   0 17387.3 560.859   4
   3  -6   0 18328.5 635.679  13
   3  -6   0 16263.4 601.659  11
   3  -6   0 17386.1 525.956  10
   3  -6   0 18006.0 584.087  17
   3  -6   0 16682.7 1203.10  16
   3  -6   1 45016.8 1091.36  15
   3  -6   1 43685.2 902.075   4
   3  -6   1 46722.3 1003.99  13
   3  -6   1 43044.6 995.840  11
   3  -6   2 5567.53 383.344  15
   3  -6   2 5553.75 327.051   4
   3  -6   2 5733.86 348.259  13
   3  -6   2 5076.10 359.442  11
   3  -6   2 4851.49 317.978  19
   3  -6   2 5630.26 331.223  17
   3  -6   3 74798.2 1192.44   4
   3  -6   3 71058.4 1294.12  11
   3  -6   3 70220.6 1236.04  19
   3  -6   3 74402.2 1190.21  17
   3  -6   4 1215.84 149.497   4
   3  -6   4 953.440 153.569  19
   3  -6   5 1065.08 139.635   4
   3  -6   5 1166.55 155.516  11
   3  -6   5 1169.15 158.654  19
   3  -6   6 3779.49 202.799   6
   3  -6   6 3587.36 240.607  11
   3  -6   6 3679.66 244.055  19
   3  -6   7 2681.86 144.044   6
   3  -6   7 2499.63 161.627  11
   3  -6   7 2629.64 176.174  19
   3  -5 -12 26.0428 34.3155   4
   3  -5 -11 125.276 62.0227   4
   3  -5 -10 1732.08 158.670  17
   3  -5 -10 1681.76 181.147   4
   3  -5  -9 9401.49 460.526  13
   3  -5  -9 9156.81 362.253  10
   3  -5  -9 8862.65 395.671  17
   3  -5  -9 9457.76 434.726   4
   3  -5  -8 20574.4 710.475  13
   3  -5  -8 20512.3 576.359  10
   3  -5  -8 19848.5 611.622  17
   3  -5  -8 20582.4 667.721   4
   3  -5  -7 15179.7 629.481  13
   3  -5  -7 15796.7 517.629  10
   3  -5  -7 15017.5 535.738  17
   3  -5  -7 16278.4 594.366   4
   3  -5  -6 1905.86 228.318  13
   3  -5  -6 1909.75 180.795  10
   3  -5  -6 2119.69 436.895   9
   3  -5  -6 1707.40 182.937  17
   3  -5  -6 1523.23 198.611   4
   3  -5  -5 9370.57 485.104  13
   3  -5  -5 9383.27 436.063   4
   3  -5  -5 9635.50 400.028  10
   3  -5  -5 9870.01 943.401   9
   3  -5  -5 8931.26 409.212  17
   3  -5  -4 36923.1 906.713  15
   3  -5  -4 36026.0 947.317  13
   3  -5  -4 36539.3 1798.99   9
   3  -5  -4 36956.1 812.037  17
   3  -5  -4 37096.1 840.374   4
   3  -5  -3 95268.7 1487.07  15
   3  -5  -3 100148. 1255.60  10
   3  -5  -3 97196.8 1310.39  17
   3  -5  -3 96582.5 1328.83   4
   3  -5  -2 33472.3 774.279   4
   3  -5  -2 33459.9 896.287  15
   3  -5  -2 35173.4 882.242  13
   3  -5  -2 34572.3 743.606  10
   3  -5  -2 34500.1 781.167  17
   3  -5  -2 34294.7 1571.84  16
   3  -5  -1 27501.6 685.208   4
   3  -5  -1 26183.9 800.137  15
   3  -5  -1 27117.3 773.509  13
   3  -5  -1 26951.9 647.276  10
   3  -5  -1 28185.5 1432.15  16
   3  -5  -1 27706.0 693.540  17
   3  -5   0 4616.85 282.825   4
   3  -5   0 4737.15 326.615  13
   3  -5   0 4537.03 307.084  11
   3  -5   0 4582.93 265.711  10
   3  -5   0 4278.76 580.706  16
   3  -5   1 40570.2 1007.24  15
   3  -5   1 40320.6 842.249   4
   3  -5   1 41278.4 936.024  13
   3  -5   1 39452.0 924.681  11
   3  -5   1 40290.4 764.099  10
   3  -5   1 41767.4 868.342  17
   3  -5   1 40572.8 1801.39  16
   3  -5   2 10957.9 530.533  15
   3  -5   2 10702.9 454.348   4
   3  -5   2 11164.5 489.551  13
   3  -5   2 10996.7 506.320  11
   3  -5   2 10605.2 477.962  19
   3  -5   2 11033.9 465.767  17
   3  -5   3 1951.33 202.223   4
   3  -5   3 2107.79 218.780  13
   3  -5   3 2262.48 244.452  11
   3  -5   3 2124.57 224.839  19
   3  -5   3 2210.50 210.717  17
   3  -5   4 19875.5 619.387   4
   3  -5   4 19411.5 639.569  13
   3  -5   4 18709.8 655.702  19
   3  -5   4 18841.4 596.712  17
   3  -5   5 1726.36 199.396   4
   3  -5   5 1570.42 166.027   6
   3  -5   5 1766.76 205.201  11
   3  -5   5 1449.60 186.025  19
   3  -5   6 3424.04 255.297   4
   3  -5   6 4005.27 250.569   6
   3  -5   6 4414.77 291.318  11
   3  -5   6 4145.80 288.170  19
   3  -5   7 1323.43 143.113   6
   3  -5   7 1401.77 153.857  11
   3  -5   7 1482.84 161.457  19
   3  -5   8 4185.12 194.864   6
   3  -5   8 4208.55 223.157  19
   3  -4 -12 1836.00 147.048   4
   3  -4 -11 5057.38 241.966  17
   3  -4 -10 3635.45 244.030  17
   3  -4  -9 5107.41 283.000  10
   3  -4  -9 4551.40 306.127  17
   3  -4  -9 5434.38 273.932   8
   3  -4  -8 7494.03 428.595  13
   3  -4  -8 8077.81 370.010  10
   3  -4  -8 7326.01 392.522  17
   3  -4  -8 8319.20 343.911   8
   3  -4  -7 33951.2 919.453  13
   3  -4  -7 35574.5 774.207  10
   3  -4  -7 33449.8 1703.40   9
   3  -4  -7 34846.8 818.096  17
   3  -4  -7 36299.2 705.738   8
   3  -4  -6 3038.36 274.204  13
   3  -4  -6 3283.88 234.172  10
   3  -4  -6 3051.00 511.158   9
   3  -4  -6 3098.79 247.130  17
   3  -4  -6 2369.35 245.622   4
   3  -4  -5 12457.6 560.988  13
   3  -4  -5 12919.0 460.391  10
   3  -4  -5 13971.3 1058.08   9
   3  -4  -5 12827.8 486.169  17
   3  -4  -5 12888.0 507.539   4
   3  -4  -4 51305.6 1055.98  13
   3  -4  -4 49743.3 927.485  17
   3  -4  -4 47711.8 934.333   4
   3  -4  -3 59498.2 1094.23  15
   3  -4  -3 60640.6 1133.20  13
   3  -4  -3 58772.9 925.374  10
   3  -4  -3 58206.7 1001.84   4
   3  -4  -3 57337.0 982.352  17
   3  -4  -2 4999.86 324.407  15
   3  -4  -2 5075.37 323.120  13
   3  -4  -2 4717.43 278.917   4
   3  -4  -2 4971.10 265.417  10
   3  -4  -2 4772.44 590.874   9
   3  -4  -2 4216.74 262.615  17
   3  -4  -2 5622.61 585.249  16
   3  -4  -1 1177.62 139.003   4
   3  -4  -1 1284.69 177.168  15
   3  -4  -1 1363.86 304.627  16
   3  -4  -1 1144.73 155.605  13
   3  -4  -1 1149.06 130.387  10
   3  -4   0 22610.1 603.386   4
   3  -4   0 22568.9 718.931  15
   3  -4   0 23766.3 689.860  13
   3  -4   0 24420.4 663.988  11
   3  -4   0 21662.9 552.134  10
   3  -4   0 23554.0 613.130  17
   3  -4   0 22214.9 1223.05  16
   3  -4   1 19706.3 579.556   4
   3  -4   1 20624.3 644.509  13
   3  -4   1 20101.5 642.120  11
   3  -4   1 21073.7 592.692  17
   3  -4   1 20728.0 1219.30  16
   3  -4   2 13682.3 573.478  15
   3  -4   2 13675.2 485.587   4
   3  -4   2 13724.2 529.995  13
   3  -4   2 13760.2 545.385  11
   3  -4   2 13639.7 490.568  17
   3  -4   2 13486.8 1006.30  16
   3  -4   3 23347.8 656.939   4
   3  -4   3 24678.8 712.014  13
   3  -4   3 22892.3 730.092  11
   3  -4   3 22747.7 694.045  19
   3  -4   3 23819.9 648.565  17
   3  -4   4 1769.72 185.297   4
   3  -4   4 1538.93 183.963  13
   3  -4   4 1658.42 176.259   6
   3  -4   4 1650.93 200.086  19
   3  -4   4 1686.02 188.681  17
   3  -4   5 24381.7 721.013   4
   3  -4   5 22907.8 648.011   6
   3  -4   5 24370.9 755.876  11
   3  -4   5 23638.0 744.546  19
   3  -4   6 10844.1 493.995   4
   3  -4   6 12409.2 471.916   6
   3  -4   6 12785.5 526.804  11
   3  -4   6 12212.2 527.326  19
   3  -4   7 1167.56 152.093   4
   3  -4   7 1387.27 150.211   6
   3  -4   7 1431.60 165.690  11
   3  -4   7 1283.22 166.073  19
   3  -4   8 416.160 89.3534   6
   3  -4   8 451.768 81.5816  11
   3  -4   8 249.798 80.7722  19
   3  -4   9 8793.82 287.625   6
   3  -3 -12 7410.40 284.657   4
   3  -3 -11 3574.86 217.985  17
   3  -3 -11 3624.22 250.439   4
   3  -3 -10 2881.90 227.890  17
   3  -3 -10 3125.87 250.676   4
   3  -3 -10 3248.40 211.203   8
   3  -3  -9 6201.69 312.183  10
   3  -3  -9 5743.27 345.840  17
   3  -3  -9 6102.31 380.549   4
   3  -3  -9 6798.72 316.467   8
   3  -3  -8 18522.9 559.853  10
   3  -3  -8 18557.8 616.350  17
   3  -3  -8 20139.1 652.278   4
   3  -3  -8 20277.3 544.594   8
   3  -3  -7 5519.69 302.647  10
   3  -3  -7 5033.12 326.616  17
   3  -3  -7 5772.96 355.702   4
   3  -3  -7 5790.27 289.920   8
   3  -3  -6 207.534 71.6830   8
   3  -3  -6 251.306 91.8596   4
   3  -3  -6 249.638 94.0989  13
   3  -3  -6 224.811 75.6911  10
   3  -3  -6 64.0383 111.470   9
   3  -3  -6 203.167 75.6918  17
   3  -3  -5 10872.1 483.518  13
   3  -3  -5 10574.3 409.208  10
   3  -3  -5 11725.8 922.009   9
   3  -3  -5 11129.2 445.594  17
   3  -3  -5 10977.8 460.494   4
   3  -3  -5 10603.1 353.683   8
   3  -3  -4 47194.1 976.975  13
   3  -3  -4 46323.7 885.831  17
   3  -3  -4 47465.4 900.727   4
   3  -3  -3 1465.42 310.451   9
   3  -3  -2 48788.4 1733.56   9
   3  -3  -2 47013.4 1519.21  16
   3  -3  -1 2468.46 367.079  16
   3  -3   0 63398.3 1890.87  16
   3  -3   1 40047.1 904.925  15
   3  -3   1 40196.5 863.429  13
   3  -3   1 42463.7 1608.70  16
   3  -3   2 4401.47 314.142  15
   3  -3   2 3719.53 247.409   4
   3  -3   2 4782.90 457.314   7
   3  -3   2 4350.03 286.859  13
   3  -3   2 4655.81 297.715  11
   3  -3   2 4392.76 257.264  17
   3  -3   2 4236.94 550.271  16
   3  -3   3 8975.65 387.391   4
   3  -3   3 9487.66 698.836   7
   3  -3   3 9328.11 425.668  13
   3  -3   3 8414.76 361.643   6
   3  -3   3 8880.77 432.154  11
   3  -3   3 9021.35 418.076  19
   3  -3   3 9177.08 381.249  17
   3  -3   4 29062.1 1512.63  16
   3  -3   4 30667.3 758.123   4
   3  -3   4 32845.2 1391.74   7
   3  -3   4 31514.0 809.030  13
   3  -3   4 30192.0 718.381   6
   3  -3   4 30417.8 798.555  19
   3  -3   4 30454.5 728.918  17
   3  -3   5 34572.7 1513.47   7
   3  -3   5 35990.6 847.548   4
   3  -3   5 34340.6 877.420  13
   3  -3   5 32643.3 781.758   6
   3  -3   5 34474.0 881.817  11
   3  -3   5 35947.5 900.231  19
   3  -3   5 35495.6 785.305  17
   3  -3   6 1752.95 215.766   4
   3  -3   6 1805.89 194.405   6
   3  -3   6 1965.91 210.761  11
   3  -3   6 2056.72 226.322  19
   3  -3   7 15358.1 592.997   4
   3  -3   7 15612.5 540.244   6
   3  -3   7 15608.1 568.344  11
   3  -3   7 16157.7 597.836  19
   3  -3   8 9632.10 397.391   6
   3  -3   8 9308.95 388.108  11
   3  -3   8 8438.41 402.852  19
   3  -3   9 6975.08 299.631   6
   3  -3   9 6217.75 306.187  19
   3  -3  10 2265.51 142.387   6
   3  -2 -12 111.200 45.6173   4
   3  -2 -12 75.8919 37.6349  17
   3  -2 -11 2472.24 195.169  17
   3  -2 -11 2619.18 206.835   4
   3  -2 -10 10416.1 441.391  17
   3  -2 -10 10253.8 448.565   4
   3  -2  -9 17972.9 537.374  10
   3  -2  -9 18494.4 614.001  17
   3  -2  -9 17874.7 615.466   4
   3  -2  -8 4134.67 267.562  10
   3  -2  -8 3967.73 293.422  17
   3  -2  -8 4582.44 316.250   4
   3  -2  -8 4313.30 266.177   8
   3  -2  -7 18478.9 556.980  10
   3  -2  -7 19051.5 619.699  17
   3  -2  -7 18740.6 624.420   4
   3  -2  -7 18751.9 523.679   8
   3  -2  -6 19381.3 511.057   8
   3  -2  -6 19056.4 557.696  10
   3  -2  -6 21385.4 1133.79   5
   3  -2  -6 19881.2 623.715  17
   3  -2  -6 20199.4 619.992   4
   3  -2  -5 21952.2 578.073  10
   3  -2  -5 24916.3 1158.83   5
   3  -2  -5 24661.8 1250.44   9
   3  -2  -5 22939.8 633.056  17
   3  -2  -5 22611.0 635.058   4
   3  -2  -5 22730.4 524.442   8
   3  -2  -4 8371.15 712.487   9
   3  -2  -3 32532.1 1365.20   9
   3  -2  -2 8066.14 672.331   9
   3  -2  -1 5100.69 475.502  16
   3  -2   0 24613.9 1089.54  16
   3  -2   1 16093.6 750.333   7
   3  -2   1 14985.5 885.662  16
   3  -2   2 59657.8 1562.56   7
   3  -2   2 55571.3 1795.34  16
   3  -2   3 19593.4 1136.95  16
   3  -2   3 18367.4 534.906   4
   3  -2   3 20636.9 991.156   7
   3  -2   3 19030.7 592.566  13
   3  -2   3 19133.4 594.304  11
   3  -2   4 58526.9 1000.67   4
   3  -2   4 62899.0 1864.09   7
   3  -2   4 59176.8 1085.04  13
   3  -2   4 55233.8 955.830   6
   3  -2   4 60464.5 1083.53  19
   3  -2   4 58987.6 949.414  17
   3  -2   5 710.878 220.313   7
   3  -2   5 615.752 116.820   4
   3  -2   5 669.767 126.933  13
   3  -2   5 520.827 108.312   6
   3  -2   5 569.741 131.956  11
   3  -2   5 584.145 136.158  19
   3  -2   5 490.564 92.7222  17
   3  -2   6 37804.5 913.009  13
   3  -2   6 36503.5 844.038   6
   3  -2   6 38606.4 907.432  11
   3  -2   6 38695.1 937.024  19
   3  -2   7 75867.1 1212.98   6
   3  -2   7 77573.0 1274.02  11
   3  -2   7 76802.1 1333.48  19
   3  -2   8 18061.5 572.514   6
   3  -2   8 18581.6 579.855  11
   3  -2   9 2728.53 225.834  19
   3  -2  10 651.885 98.6441  19
   3  -1 -12 632.517 78.5382  17
   3  -1 -12 681.334 84.0543   4
   3  -1 -11 1579.40 159.480  17
   3  -1 -11 1665.55 157.077   4
   3  -1 -10 9325.95 420.667  17
   3  -1 -10 9403.82 417.019   4
   3  -1 -10 9975.36 375.339   8
   3  -1  -9 6301.06 322.556  10
   3  -1  -9 5889.63 364.669  17
   3  -1  -9 6422.53 364.316   4
   3  -1  -9 6248.61 308.948   8
   3  -1  -8 1430.08 167.225  10
   3  -1  -8 1407.93 194.240  17
   3  -1  -8 1471.00 195.396   4
   3  -1  -7 148.504 67.3810   8
   3  -1  -7 168.423 81.0859   4
   3  -1  -7 125.482 54.3689  10
   3  -1  -7 51.8231 80.0639   5
   3  -1  -7 45.1256 57.9404  17
   3  -1  -6 10563.0 420.496  10
   3  -1  -6 11618.4 816.062   5
   3  -1  -6 11527.8 462.566   4
   3  -1  -6 10828.9 386.543   8
   3  -1  -5 1830.11 171.144  10
   3  -1  -5 2090.01 340.506   5
   3  -1  -5 1854.83 188.217   4
   3  -1  -5 1813.29 153.417   8
   3  -1  -4 19758.8 1006.62   9
   3  -1  -3 7315.89 564.245   5
   3  -1  -3 7206.00 607.667   9
   3  -1  -2 86132.5 1831.04   5
   3  -1  -1 60263.9 1470.35  16
   3  -1   0 285938. 2848.26   7
   3  -1   0 260650. 3254.03  16
   3  -1   1 25569.9 1079.76  16
   3  -1   1 26570.8 939.367   7
   3  -1   2 42420.9 1474.05  16
   3  -1   2 45011.6 1323.78   7
   3  -1   3 66360.2 1711.99   7
   3  -1   4 7692.84 344.464   4
   3  -1   4 8324.85 649.458   7
   3  -1   4 7064.89 371.089  13
   3  -1   4 7510.00 343.153   6
   3  -1   4 7513.01 366.412  11
   3  -1   4 7310.03 359.241  19
   3  -1   5 24602.2 652.273   4
   3  -1   5 25845.5 1239.55   7
   3  -1   5 23515.1 707.424  13
   3  -1   5 23879.1 646.301   6
   3  -1   5 25213.7 701.350  11
   3  -1   5 24659.5 702.062  19
   3  -1   6 45803.7 1737.67   7
   3  -1   6 37441.0 916.902   4
   3  -1   6 33365.2 853.558  13
   3  -1   6 41069.1 876.806   6
   3  -1   6 42145.2 925.873  11
   3  -1   6 43733.5 970.180  19
   3  -1   7 39798.1 887.809   6
   3  -1   7 39571.9 900.255  11
   3  -1   7 40511.7 959.960  19
   3  -1   8 11877.9 520.711   4
   3  -1   8 13292.1 496.753  11
   3  -1   9 280.336 87.1540   6
   3  -1   9 385.171 105.414  19
   3  -1  10 1797.45 160.305   6
   3  -1  10 1838.80 173.330  19
   3  -1  11 4249.84 198.228   6
   3   0 -12 377.018 58.2393  17
   3   0 -11 214.179 57.6875   4
   3   0 -10 760.405 131.029  17
   3   0 -10 684.712 113.435   4
   3   0 -10 639.145 105.041   8
   3   0  -9 195.137 68.8035   8
   3   0  -9 169.786 77.6494   4
   3   0  -9 186.693 66.9696  10
   3   0  -9 269.410 94.7830  17
   3   0  -8 1919.79 198.061  10
   3   0  -8 2012.13 224.854  17
   3   0  -8 1867.71 202.383   4
   3   0  -8 2116.53 190.140   8
   3   0  -7 26084.5 685.039  10
   3   0  -7 28185.9 1333.40   5
   3   0  -7 25861.6 723.159   4
   3   0  -6 1367.05 156.337  10
   3   0  -6 1331.87 285.900   5
   3   0  -6 1602.46 321.304  18
   3   0  -6 1130.92 165.009  17
   3   0  -6 1173.74 154.318   4
   3   0  -6 1150.45 131.567   8
   3   0  -5 32519.8 708.984  10
   3   0  -5 34010.3 1371.92  18
   3   0  -5 32667.6 763.738  17
   3   0  -5 30846.6 713.329   4
   3   0  -5 31983.0 634.040   8
   3   0  -4 12653.2 798.005  18
   3   0  -3 13561.2 739.166   5
   3   0  -2 4055.37 385.871   5
   3   0  -1 70537.5 1354.54   7
   3   0  -1 65024.4 1473.15   5
   3   0   0 41629.3 1088.20   7
   3   0   0 40923.9 1127.83   5
   3   0   1 49986.2 1265.06   7
   3   0   2 136436. 2240.28   7
   3   0   3 30068.0 1130.35   7
   3   0   4 15848.3 872.273   7
   3   0   5 9798.42 735.897   7
   3   0   5 8581.89 424.934  13
   3   0   5 8983.39 385.225   6
   3   0   5 9065.67 403.284  11
   3   0   5 9366.30 418.904  19
   3   0   6 13286.8 913.098   7
   3   0   6 12378.4 469.830   6
   3   0   6 12101.3 480.679  11
   3   0   6 12009.8 501.102  19
   3   0   7 23687.7 683.784  11
   3   0   7 22825.8 668.013  20
   3   0   7 23736.3 721.212  19
   3   0   8 2455.09 240.212   4
   3   0   8 2686.04 233.503   6
   3   0   8 2531.33 220.050  11
   3   0   8 2219.26 222.077  20
   3   0   9 5238.22 315.217   6
   3   0   9 5173.45 313.967  20
   3   0   9 5401.71 341.947  19
   3   0  10 1149.45 139.479   6
   3   0  10 1059.32 133.578  20
   3   0  11 7311.61 286.198   6
   3   1 -11 2833.79 193.015  17
   3   1 -10 2432.70 225.616  17
   3   1 -10 2345.33 171.938   8
   3   1  -9 7000.53 334.927  10
   3   1  -9 6315.33 375.752  17
   3   1  -9 7302.00 328.440   8
   3   1  -8 381.549 95.1279   8
   3   1  -8 350.780 98.7489  10
   3   1  -7 7830.80 376.367  10
   3   1  -7 7992.62 752.708  18
   3   1  -7 7459.55 414.854  17
   3   1  -7 7731.46 351.877   8
   3   1  -6 31196.1 740.311  10
   3   1  -6 32155.7 1368.51   5
   3   1  -6 31518.5 1424.15  18
   3   1  -6 29656.5 795.400  17
   3   1  -6 30918.1 656.812   8
   3   1  -5 3652.97 249.337  10
   3   1  -5 4265.20 472.558   5
   3   1  -5 3948.77 482.533  18
   3   1  -5 3758.31 269.222  17
   3   1  -4 23603.2 1085.01  18
   3   1  -3 11750.0 698.309   5
   3   1  -3 10848.5 692.301  18
   3   1  -2 50552.3 1354.97   5
   3   1  -1 18593.2 773.574   5
   3   1   0 59121.4 1373.57   7
   3   1   0 61391.5 1326.35   5
   3   1   1 211254. 2615.73   7
   3   1   1 213351. 2310.23   5
   3   1   2 26533.0 977.823   7
   3   1   3 17309.5 846.903   7
   3   1   4 24945.6 1074.14   7
   3   1   5 31690.3 782.289  13
   3   1   5 30140.2 684.622   6
   3   1   5 31361.4 728.877  11
   3   1   5 32232.3 752.956  19
   3   1   6 135579. 1563.37  11
   3   1   6 132283. 1579.46  20
   3   1   6 135423. 1642.42  19
   3   1   7 33868.1 792.020   4
   3   1   7 31895.7 777.452   6
   3   1   7 32032.6 778.408  11
   3   1   7 32335.1 801.842  20
   3   1   7 32456.5 835.895  19
   3   1   8 5331.21 318.931   6
   3   1   8 5429.98 317.848  11
   3   1   8 4899.93 327.902  20
   3   1   9 7677.63 376.980   6
   3   1   9 6911.28 379.163  20
   3   1   9 7359.24 402.785  19
   3   1  10 19980.3 574.193   6
   3   1  10 18640.4 585.027  20
   3   1  11 408.414 85.0494   6
   3   1  11 487.617 85.4286  20
   3   1  12 7187.01 224.992   6
   3   1  12 5759.38 212.125  20
   3   2 -11 1263.13 118.091  17
   3   2 -10 1638.53 122.429   8
   3   2  -9 607.642 104.363  10
   3   2  -9 539.083 91.2952   8
   3   2  -8 3297.86 253.070  10
   3   2  -8 2904.90 282.218  17
   3   2  -8 3230.46 229.241   8
   3   2  -7 1822.75 202.565  10
   3   2  -7 2036.94 227.312  17
   3   2  -7 2139.67 187.974   8
   3   2  -7 2102.50 155.701   3
   3   2  -6 20474.0 612.714  10
   3   2  -6 22357.6 1179.88   5
   3   2  -6 19870.8 1162.76  18
   3   2  -6 21424.2 668.470  17
   3   2  -6 20584.6 548.527   8
   3   2  -6 22711.6 481.740   3
   3   2  -5 27221.7 1348.35  31
   3   2  -5 29198.9 711.339  10
   3   2  -5 31657.7 1322.96   5
   3   2  -5 31209.0 1361.43  18
   3   2  -5 29527.9 757.859  17
   3   2  -5 29233.9 629.062   8
   3   2  -4 8040.94 696.606  31
   3   2  -4 9918.30 716.434  18
   3   2  -4 9678.57 405.982  17
   3   2  -4 9077.28 335.109   8
   3   2  -3 78179.5 2005.71  31
   3   2  -3 82897.8 1879.46   5
   3   2  -3 83894.9 1914.45  18
   3   2  -2 32350.6 1190.18  31
   3   2  -2 36257.7 1166.77   5
   3   2  -2 34631.6 1148.48  18
   3   2  -1 17999.0 815.647  31
   3   2  -1 19780.4 806.780   5
   3   2   0 14133.4 678.103   7
   3   2   0 12883.6 621.215   5
   3   2   1 90055.6 1782.08   7
   3   2   1 88028.1 1491.99   5
   3   2   2 33426.4 1101.83   7
   3   2   3 35367.4 1076.68  14
   3   2   3 36836.3 1216.74   7
   3   2   4 7064.27 492.192  14
   3   2   5 10140.2 715.462   7
   3   2   5 9611.37 383.410   6
   3   2   6 7800.37 659.603   7
   3   2   6 6987.47 343.421   6
   3   2   6 6720.31 345.773  11
   3   2   6 6554.78 358.863  20
   3   2   6 7155.13 374.477  19
   3   2   7 2890.99 432.603   7
   3   2   7 2680.70 218.587   4
   3   2   7 2829.54 227.898   6
   3   2   7 2874.17 230.447  11
   3   2   7 2936.06 248.142  20
   3   2   7 2843.04 251.518  19
   3   2   8 12549.3 488.286   6
   3   2   8 12904.9 485.041  11
   3   2   8 12952.9 421.200   3
   3   2   8 12126.3 521.225  20
   3   2   9 4741.74 300.731   6
   3   2   9 5098.77 264.000   3
   3   2   9 4574.11 319.577  20
   3   2  10 13180.2 475.713   6
   3   2  10 13865.8 415.612   3
   3   2  10 12873.4 504.730  20
   3   2  11 4164.46 236.087   6
   3   2  11 4370.69 206.891   3
   3   2  11 4213.11 263.415  20
   3   2  12 1106.92 110.922  20
   3   3 -10 1537.34 146.278  17
   3   3  -9 1950.25 163.908  10
   3   3  -9 1905.83 210.009  17
   3   3  -8 10315.0 430.916  10
   3   3  -8 10163.8 367.003   8
   3   3  -8 10769.4 496.526  17
   3   3  -7 10535.4 353.585   3
   3   3  -7 9578.68 442.578  10
   3   3  -7 10181.0 388.594   8
   3   3  -6 5951.76 345.579  10
   3   3  -6 5833.52 623.789   5
   3   3  -6 5384.66 616.748  18
   3   3  -6 6494.74 372.105  17
   3   3  -6 6446.71 273.778   3
   3   3  -6 6181.58 304.654   8
   3   3  -5 6920.13 722.344  31
   3   3  -5 7296.71 364.505  10
   3   3  -5 7672.61 693.173   5
   3   3  -5 7835.69 696.578  18
   3   3  -5 7810.29 398.871  17
   3   3  -5 7251.57 280.425   3
   3   3  -5 7091.46 317.911   8
   3   3  -4 21112.2 1171.68  31
   3   3  -4 21050.5 1066.16  18
   3   3  -4 22118.8 636.041  17
   3   3  -4 21885.6 473.254   3
   3   3  -4 21613.9 537.587   8
   3   3  -3 13883.3 893.600  31
   3   3  -3 16717.7 894.602   5
   3   3  -3 15063.3 843.263  18
   3   3  -2 15633.9 872.699  31
   3   3  -2 16348.1 829.318   5
   3   3  -2 15697.3 783.647  18
   3   3  -1 61419.5 1573.95  31
   3   3  -1 63638.2 1442.16  18
   3   3   0 53949.4 1330.18  31
   3   3   0 56884.9 1341.19   5
   3   3   1 9133.72 586.218   7
   3   3   1 9126.30 502.624   5
   3   3   2 38558.5 1188.56  14
   3   3   2 40076.4 1255.50   7
   3   3   3 42519.9 1267.43  14
   3   3   4 68902.8 1641.27  14
   3   3   4 75104.9 1847.17   7
   3   3   5 119466. 2224.76  14
   3   3   5 115268. 1324.71   6
   3   3   5 119721. 1450.97  20
   3   3   6 14709.3 897.020   7
   3   3   6 12707.7 461.104   6
   3   3   6 13160.1 477.052  11
   3   3   6 13551.7 407.410   3
   3   3   6 13158.2 500.070  20
   3   3   7 24527.7 658.241   6
   3   3   7 24947.6 666.409  11
   3   3   7 26365.8 593.442   3
   3   3   7 24525.3 725.029  20
   3   3   8 8526.36 735.831   7
   3   3   8 7480.36 367.279   6
   3   3   8 7570.94 371.312  11
   3   3   8 7861.80 334.141   3
   3   3   8 7563.67 411.492  20
   3   3   9 10032.9 430.607   6
   3   3   9 10379.7 385.451   3
   3   3   9 10264.9 480.651  20
   3   3   9 11629.6 472.197  50
   3   3  10 4880.98 284.237   6
   3   3  10 4906.66 259.220   3
   3   3  10 4752.84 318.783  20
   3   3  10 4625.05 289.727  50
   3   3  11 3129.41 205.182   6
   3   3  11 3052.93 184.377   3
   3   3  11 3093.15 234.194  20
   3   3  11 2973.03 209.763  50
   3   3  12 1240.58 97.3999   3
   3   3  12 1191.38 127.469  20
   3   4 -10 120.014 51.8781  17
   3   4  -9 4018.23 217.955  10
   3   4  -9 4105.83 258.573  17
   3   4  -8 5752.51 317.022  10
   3   4  -8 6001.18 350.134  17
   3   4  -7 853.349 152.766  10
   3   4  -7 977.723 162.937  17
   3   4  -7 1045.59 124.294   8
   3   4  -7 999.413 119.015   3
   3   4  -6 3449.63 268.201  10
   3   4  -6 3361.41 277.016  17
   3   4  -6 3585.95 212.602   3
   3   4  -6 3321.22 220.497   8
   3   4  -6 2892.13 249.395  50
   3   4  -5 12407.2 991.372  31
   3   4  -5 13993.3 540.713  10
   3   4  -5 14114.3 959.871   5
   3   4  -5 13526.4 940.230  18
   3   4  -5 13918.3 553.929  17
   3   4  -5 15140.7 423.072   3
   3   4  -5 15045.8 464.288   8
   3   4  -5 13713.8 528.172  50
   3   4  -4 17670.1 1117.87  31
   3   4  -4 16813.3 574.178  12
   3   4  -4 17125.5 573.730  10
   3   4  -4 18925.9 1057.11   5
   3   4  -4 19873.8 1067.66  18
   3   4  -4 18825.2 617.575  17
   3   4  -4 20004.6 490.436   3
   3   4  -4 20807.9 543.211   8
   3   4  -3 6726.17 648.464  31
   3   4  -3 6264.66 317.040  12
   3   4  -3 6652.80 339.456  23
   3   4  -3 5820.83 324.132  10
   3   4  -3 6996.92 355.923  21
   3   4  -3 6540.07 592.522   5
   3   4  -3 5877.34 364.244  20
   3   4  -3 6064.19 548.003  18
   3   4  -3 5632.43 249.740   3
   3   4  -3 5785.17 279.205   8
   3   4  -2 11992.9 805.906  31
   3   4  -2 10904.7 401.454  12
   3   4  -2 11263.2 379.391   8
   3   4  -1 70098.3 1811.27  31
   3   4  -1 76078.0 1801.60   5
   3   4   0 62936.4 1532.30  31
   3   4   0 68136.9 1585.34   5
   3   4   1 4980.91 398.616   5
   3   4   2 2060.19 295.983  14
   3   4   3 4919.06 462.931  14
   3   4   3 5422.26 501.062   7
   3   4   4 31602.4 1190.46  14
   3   4   4 33586.0 1230.37   7
   3   4   5 14610.6 829.411  14
   3   4   5 14651.3 480.847   6
   3   4   5 14438.8 494.173  11
   3   4   5 14377.0 416.562   3
   3   4   6 7423.94 607.514  14
   3   4   6 7956.01 648.141   7
   3   4   6 7364.95 349.619   6
   3   4   6 6828.83 350.925  11
   3   4   6 7429.85 314.904   3
   3   4   6 7186.12 300.041   8
   3   4   7 21326.8 1110.75   7
   3   4   7 20036.5 590.652   6
   3   4   7 19321.9 596.748  11
   3   4   7 20526.8 537.248   3
   3   4   7 18316.1 613.478  20
   3   4   7 19988.2 615.937  50
   3   4   8 24740.3 1227.65   7
   3   4   8 23563.6 651.343   6
   3   4   8 24236.9 595.500   3
   3   4   8 22882.2 713.979  20
   3   4   8 23391.7 687.507  50
   3   4   9 16894.5 548.849   6
   3   4   9 16962.6 506.244   3
   3   4   9 15646.4 599.124  20
   3   4   9 17177.6 588.665  50
   3   4  10 23502.1 616.093   6
   3   4  10 24248.9 578.728   3
   3   4  10 22939.7 698.712  20
   3   4  10 23187.7 663.665  50
   3   4  11 18004.0 463.327   3
   3   4  11 16635.5 552.170  20
   3   4  11 16711.8 515.941  50
   3   4  12 5477.02 273.453  20
   3   4  12 5211.09 242.574  50
   3   4  13 1531.86 110.738  20
   3   5  -9 3297.53 165.407  10
   3   5  -9 3363.22 201.973  17
   3   5  -8 1512.66 156.411  10
   3   5  -8 1285.24 160.719  17
   3   5  -7 675.205 127.778  10
   3   5  -7 806.570 146.390  17
   3   5  -7 970.993 110.241   3
   3   5  -6 3048.75 253.257  10
   3   5  -6 2831.82 258.941  17
   3   5  -6 3015.81 206.554   8
   3   5  -6 2468.08 235.430  50
   3   5  -5 1939.60 208.408  50
   3   5  -5 1997.74 222.889  10
   3   5  -5 1900.90 219.966  17
   3   5  -5 2188.49 174.431   3
   3   5  -5 2134.39 181.967   8
   3   5  -4 5805.35 672.863  31
   3   5  -4 6346.87 359.779  12
   3   5  -4 6272.72 367.625  10
   3   5  -4 6947.93 674.348   5
   3   5  -4 7263.88 370.182  17
   3   5  -4 7279.74 304.362   3
   3   5  -4 7691.50 333.678   8
   3   5  -4 6871.46 387.153  50
   3   5  -3 307.326 76.7291   8
   3   5  -3 253.517 165.481  31
   3   5  -3 260.137 79.7065  12
   3   5  -3 334.951 94.4241  23
   3   5  -3 282.534 89.2450  21
   3   5  -3 327.015 90.3750  10
   3   5  -3 268.821 148.119   5
   3   5  -3 400.829 77.7818   3
   3   5  -3 230.183 89.2573  50
   3   5  -2 319.958 78.6755   8
   3   5  -2 671.728 205.821  31
   3   5  -2 394.846 87.0652  12
   3   5  -2 400.311 95.7549  21
   3   5  -2 343.876 83.1555  10
   3   5  -2 298.877 98.7011  20
   3   5  -2 472.511 164.928   5
   3   5  -2 393.532 76.4095   3
   3   5  -2 425.084 96.2282  50
   3   5  -1 12395.4 817.339  31
   3   5  -1 13552.0 454.800   6
   3   5  -1 13054.3 444.548  10
   3   5  -1 13192.3 476.709  21
   3   5  -1 14149.5 823.350   5
   3   5  -1 11973.5 493.775  20
   3   5  -1 12501.0 383.741   3
   3   5  -1 12945.4 415.822   8
   3   5   0 3166.99 373.453   5
   3   5   1 21376.2 905.534   5
   3   5   2 35062.8 1284.13  14
   3   5   3 47589.4 1521.03  14
   3   5   3 52373.4 1576.29   7
   3   5   4 10167.2 713.593  14
   3   5   4 10411.7 704.755   7
   3   5   4 9796.79 390.756   6
   3   5   4 9689.56 411.303  11
   3   5   4 9869.36 345.727   3
   3   5   4 10315.0 435.718  20
   3   5   4 9457.74 350.807   8
   3   5   5 19620.3 1012.66  14
   3   5   5 19189.4 995.526   7
   3   5   5 18189.4 541.105   6
   3   5   5 17926.4 575.595  11
   3   5   5 18064.8 480.178   3
   3   5   5 19405.9 608.770  20
   3   5   5 18451.4 491.029   8
   3   5   6 26929.4 1228.21  14
   3   5   6 29459.9 1273.17   7
   3   5   6 27957.1 687.881   6
   3   5   6 26470.9 713.271  11
   3   5   6 28449.3 624.446   3
   3   5   6 28219.7 756.232  20
   3   5   6 26275.4 608.983   8
   3   5   6 28337.5 727.843  50
   3   5   7 6410.79 610.187  14
   3   5   7 6246.94 591.845   7
   3   5   7 6392.05 333.613   6
   3   5   7 6021.13 341.959  11
   3   5   7 6322.91 304.624   3
   3   5   7 6286.50 363.910  20
   3   5   7 5871.78 293.928   8
   3   5   7 6265.41 358.631  50
   3   5   8 11873.0 456.667   6
   3   5   8 12029.3 428.059   3
   3   5   8 12136.1 515.534  20
   3   5   8 10761.4 397.400   8
   3   5   8 12502.0 507.026  50
   3   5   9 25618.4 658.237   6
   3   5   9 25188.5 626.286   3
   3   5   9 25126.9 744.364  20
   3   5   9 24404.7 585.521   8
   3   5   9 26259.5 735.074  50
   3   5  10 9586.32 366.984   3
   3   5  10 10179.9 457.303  20
   3   5  10 10018.0 439.677  50
   3   5  11 1599.39 141.600   3
   3   5  11 1573.30 170.222  20
   3   5  11 1215.58 146.826  50
   3   5  12 2798.56 157.963   3
   3   5  12 2553.69 187.387  20
   3   5  13 1211.49 99.5485  20
   3   6  -8 198.355 56.2929  10
   3   6  -8 108.145 50.8758  17
   3   6  -7 3006.89 232.728  10
   3   6  -7 2976.94 225.385  17
   3   6  -6 8546.15 403.328  10
   3   6  -6 8450.38 397.891  17
   3   6  -6 9751.89 340.037   3
   3   6  -5 6423.60 362.761  10
   3   6  -5 5864.28 344.942  17
   3   6  -5 6142.99 288.961   3
   3   6  -5 6056.43 365.026  50
   3   6  -4 13316.6 497.953  12
   3   6  -4 12810.1 536.423  23
   3   6  -4 13703.5 438.080   3
   3   6  -4 13601.5 440.803   8
   3   6  -4 12442.7 530.386  50
   3   6  -3 1176.28 319.926  31
   3   6  -3 1346.78 160.980  12
   3   6  -3 1338.77 175.043  23
   3   6  -3 1342.15 176.453  10
   3   6  -3 1402.13 182.834  21
   3   6  -3 1430.86 319.365   5
   3   6  -3 1364.21 137.967   3
   3   6  -3 1671.01 160.925   8
   3   6  -3 1360.86 185.105  50
   3   6  -2 3355.40 510.889  31
   3   6  -2 4045.91 276.242  12
   3   6  -2 4164.53 280.009  10
   3   6  -2 3776.94 296.597  21
   3   6  -2 4427.55 520.673   5
   3   6  -2 3492.64 305.511  20
   3   6  -2 4007.31 226.474   3
   3   6  -2 3960.72 243.354   8
   3   6  -2 4314.52 304.153  50
   3   6  -1 5768.61 321.255  12
   3   6  -1 5481.50 588.881  31
   3   6  -1 5540.25 318.573  10
   3   6  -1 6413.01 362.894  21
   3   6  -1 6124.78 592.638   5
   3   6  -1 6507.82 376.021  20
   3   6  -1 6154.87 280.866   3
   3   6  -1 5882.28 297.409   8
   3   6  -1 6515.33 362.482  50
   3   6   0 11327.3 436.363  12
   3   6   0 10876.4 443.502   6
   3   6   0 11122.6 420.720  10
   3   6   0 12433.3 483.338  21
   3   6   0 12404.3 803.779   5
   3   6   0 11897.6 497.065  20
   3   6   0 12363.1 392.756   3
   3   6   0 11791.1 412.215   8
   3   6   0 11370.8 470.471  50
   3   6   1 389.404 85.8745   8
   3   6   1 407.082 90.1707  12
   3   6   1 395.666 96.6125   6
   3   6   1 444.082 98.9591  21
   3   6   1 433.324 83.1246   3
   3   6   1 322.011 92.3248  20
   3   6   1 253.470 86.5885  50
   3   6   2 8827.82 369.202  12
   3   6   2 8395.68 369.119   6
   3   6   2 9885.34 407.907  21
   3   6   2 8813.21 330.935   3
   3   6   2 10088.6 433.358  20
   3   6   2 8540.97 348.423   8
   3   6   2 10015.2 430.593  50
   3   6   3 23275.1 588.774  12
   3   6   3 24162.5 622.990   6
   3   6   3 26125.5 653.649  21
   3   6   3 25155.7 562.802   3
   3   6   3 25550.0 694.681  20
   3   6   3 26288.2 703.942  50
   3   6   4 14624.8 910.803  14
   3   6   4 13448.2 461.254   6
   3   6   4 14179.5 491.287  21
   3   6   4 13437.4 422.808   3
   3   6   4 14412.2 525.729  20
   3   6   4 12963.3 430.194   8
   3   6   4 15336.6 536.417  50
   3   6   5 5799.78 578.189  14
   3   6   5 5484.75 541.682   7
   3   6   5 6018.53 311.596   6
   3   6   5 5538.73 278.164   3
   3   6   5 6635.38 338.022  21
   3   6   5 6221.89 353.578  20
   3   6   5 5845.75 289.765   8
   3   6   5 6899.70 368.654  50
   3   6   6 30409.7 1365.11  14
   3   6   6 32301.7 1323.65   7
   3   6   6 31168.4 715.744   6
   3   6   6 31999.6 670.421   3
   3   6   6 31868.7 738.595  21
   3   6   6 32109.0 817.607  20
   3   6   6 31313.0 685.997   8
   3   6   6 33491.5 813.910  50
   3   6   7 4485.26 543.236  14
   3   6   7 4540.75 278.045   6
   3   6   7 4329.25 256.381   3
   3   6   7 4471.73 280.377  21
   3   6   7 4288.86 304.599  20
   3   6   7 4503.15 260.302   8
   3   6   7 4633.77 311.648  50
   3   6   8 6224.97 312.210   3
   3   6   8 6480.51 383.163  20
   3   6   8 6105.11 308.328   8
   3   6   8 6774.27 385.073  50
   3   6   9 8479.43 368.140   3
   3   6   9 9614.08 451.346  20
   3   6   9 8612.48 360.040   8
   3   6   9 9859.91 460.147  50
   3   6  10 22770.5 563.048   3
   3   6  10 22852.0 680.692  20
   3   6  10 21848.1 534.899   8
   3   6  10 21523.8 655.879  50
   3   6  11 17502.1 453.112   3
   3   6  11 16745.2 533.435  20
   3   6  11 15821.1 512.016  50
   3   6  12 390.870 63.4522   3
   3   6  12 383.256 76.1858  20
   3   6  12 231.648 65.1960  50
   3   6  13 393.184 47.2143   3
   3   7  -7 1759.66 152.969  10
   3   7  -7 1675.16 144.665  17
   3   7  -6 3417.45 247.898  10
   3   7  -6 2715.20 226.166  50
   3   7  -5 5156.65 326.187  10
   3   7  -5 5762.70 265.244   3
   3   7  -4 5171.22 307.051  12
   3   7  -4 6358.97 372.475  23
   3   7  -4 6382.20 365.167  10
   3   7  -4 7018.66 297.386   3
   3   7  -4 5560.50 359.360  50
   3   7  -3 43830.0 894.035  12
   3   7  -3 38990.9 911.845  23
   3   7  -3 40678.2 912.384  10
   3   7  -3 42122.2 753.526   3
   3   7  -3 38602.0 940.589  50
   3   7  -2 11553.2 466.503  12
   3   7  -2 10923.7 466.676  23
   3   7  -2 11393.7 463.853  10
   3   7  -2 10393.1 394.520   3
   3   7  -2 11158.4 404.508   8
   3   7  -2 11305.3 500.325  50
   3   7  -1 9771.88 841.774  31
   3   7  -1 11837.6 467.241  12
   3   7  -1 10641.4 445.257  10
   3   7  -1 11871.7 500.854  21
   3   7  -1 10284.7 827.134   5
   3   7  -1 10592.1 501.295  20
   3   7  -1 11458.1 388.028   3
   3   7  -1 10796.8 410.017   8
   3   7  -1 12017.2 516.427  50
   3   7   0 7689.80 372.445  10
   3   7   0 8280.57 423.754  21
   3   7   0 8198.57 697.512   5
   3   7   0 8857.71 429.649  20
   3   7   0 8210.18 331.783   3
   3   7   0 8661.38 364.825   8
   3   7   0 8941.77 432.840  50
   3   7   1 6134.54 330.883  12
   3   7   1 5170.96 322.478   6
   3   7   1 6432.40 365.361  21
   3   7   1 6515.20 372.571  20
   3   7   1 5866.50 282.055   3
   3   7   1 5801.06 301.853   8
   3   7   1 6619.93 376.722  50
   3   7   2 11899.3 452.500  12
   3   7   2 11587.5 454.538   6
   3   7   2 12355.4 486.504  21
   3   7   2 12076.4 409.107   3
   3   7   2 11902.2 493.913  20
   3   7   2 11887.7 426.369   8
   3   7   2 12223.8 506.672  50
   3   7   3 10632.9 804.653  14
   3   7   3 10033.1 415.899  12
   3   7   3 9951.93 422.531   6
   3   7   3 11533.2 464.807  21
   3   7   3 11255.9 393.962   3
   3   7   3 11356.4 491.126  50
   3   7   3 11294.1 477.459  20
   3   7   3 10837.1 411.349   8
   3   7   4 3800.05 491.718  14
   3   7   4 3423.39 237.500  12
   3   7   4 3591.01 248.194   6
   3   7   4 3255.68 255.649  21
   3   7   4 3836.05 239.345   3
   3   7   4 3632.03 275.018  20
   3   7   4 3673.85 242.699   8
   3   7   4 3271.54 266.602  50
   3   7   5 15688.6 508.541   6
   3   7   5 15903.9 546.205  21
   3   7   5 15968.8 478.879   3
   3   7   5 15925.6 571.559  20
   3   7   5 16332.8 589.098  50
   3   7   6 6985.29 673.654  14
   3   7   6 7046.87 335.138   6
   3   7   6 7202.54 331.422   3
   3   7   6 6939.76 363.823  21
   3   7   6 7058.86 392.360  20
   3   7   6 7052.48 339.668   8
   3   7   6 7426.80 401.589  50
   3   7   7 18352.0 531.272   3
   3   7   7 18551.6 588.169  21
   3   7   7 18075.2 631.892  20
   3   7   7 17572.6 536.362   8
   3   7   7 18313.5 632.783  50
   3   7   8 2247.56 191.045   3
   3   7   8 2173.14 206.063  21
   3   7   8 2400.76 232.068  20
   3   7   8 2475.34 201.910   8
   3   7   8 2095.61 226.139  50
   3   7   9 10903.1 405.870   3
   3   7   9 10337.9 426.728  21
   3   7   9 10967.2 478.981  20
   3   7   9 10840.5 405.504   8
   3   7   9 10688.0 472.900  50
   3   7  10 17913.4 489.778   3
   3   7  10 17548.3 568.420  20
   3   7  10 17539.1 485.622   8
   3   7  10 15984.3 562.203  50
   3   7  11 13897.3 392.754   3
   3   7  11 13385.6 450.208  20
   3   7  11 13477.0 375.147   8
   3   7  11 13037.0 458.321  50
   3   7  12 50.2824 29.2443   3
   3   7  12 23.0365 35.3539  20
   3   7  12 68.0767 50.1390  50
   3   8  -6 2077.24 167.836  10
   3   8  -6 1936.71 158.831  50
   3   8  -5 1204.17 159.569  10
   3   8  -5 847.678 132.783  50
   3   8  -4 5875.83 328.101  10
   3   8  -4 4839.28 319.170  50
   3   8  -3 699.508 124.241  12
   3   8  -3 485.140 114.962  23
   3   8  -3 667.467 133.987  10
   3   8  -3 550.824 128.434  50
   3   8  -2 1037.41 149.005  12
   3   8  -2 1156.00 163.476  23
   3   8  -2 993.958 150.952  10
   3   8  -2 1078.79 176.679  21
   3   8  -2 1143.91 176.384  50
   3   8  -1 2915.51 243.324  12
   3   8  -1 2895.21 238.236  10
   3   8  -1 3211.57 216.659   8
   3   8  -1 3172.08 276.031  50
   3   8   0 21576.0 643.867  12
   3   8   0 20057.0 597.288  10
   3   8   0 20816.1 683.052  21
   3   8   0 18937.0 660.965  20
   3   8   0 21447.8 568.139   8
   3   8   0 20033.1 680.809  50
   3   8   1 3739.71 302.747  21
   3   8   1 3886.12 304.315  20
   3   8   1 4271.53 272.356   8
   3   8   1 4057.97 309.168  50
   3   8   2 5400.06 322.266  12
   3   8   2 4673.95 311.640   6
   3   8   2 5128.01 350.202  21
   3   8   2 4890.12 340.906  20
   3   8   2 5158.05 294.765   8
   3   8   2 5027.58 340.619  50
   3   8   3 792.493 127.752  12
   3   8   3 739.796 127.299   6
   3   8   3 850.622 147.514  21
   3   8   3 742.270 142.554  20
   3   8   3 693.464 120.134   8
   3   8   3 928.789 152.246  50
   3   8   4 8861.47 765.461  14
   3   8   4 8433.37 388.112  12
   3   8   4 8639.25 386.002   6
   3   8   4 8424.24 420.974  21
   3   8   4 8488.54 430.068  20
   3   8   4 9216.32 382.705   8
   3   8   4 8478.84 446.094  50
   3   8   5 12706.2 469.027  12
   3   8   5 14097.9 476.991   6
   3   8   5 13142.9 529.079  21
   3   8   5 13494.8 540.557  20
   3   8   5 14890.9 492.623   8
   3   8   5 13301.0 550.437  50
   3   8   6 4853.26 310.534  21
   3   8   6 4592.70 321.850  20
   3   8   6 4923.61 341.634  50
   3   8   7 11127.5 470.024  21
   3   8   7 11496.0 493.735  20
   3   8   7 11759.3 449.509   8
   3   8   7 10757.3 501.714  50
   3   8   8 24035.3 671.645  21
   3   8   8 23578.9 688.377  20
   3   8   8 23948.1 620.464   8
   3   8   8 23866.2 734.740  50
   3   8   9 1974.68 189.339  21
   3   8   9 1974.57 194.739  20
   3   8   9 2102.24 178.237   8
   3   8   9 1741.66 200.887  50
   3   8  10 4828.42 270.950  21
   3   8  10 4909.36 284.457  20
   3   8  10 5231.13 257.601   8
   3   8  10 4626.26 291.558  50
   3   8  11 275.597 58.9837   8
   3   8  11 226.764 65.4318  20
   3   8  11 276.772 69.0446  50
   3   8  12 370.861 57.5939  20
   3   8  12 434.599 58.8677   8
   3   8  12 447.943 76.3691  50
   3   9  -5 1475.60 138.319  10
   3   9  -5 1697.62 111.498   3
   3   9  -5 1456.90 136.324  50
   3   9  -4 4885.09 275.021  10
   3   9  -4 5680.30 229.062   3
   3   9  -3 1281.32 140.811  12
   3   9  -3 1234.83 153.713  23
   3   9  -3 1403.06 166.452  10
   3   9  -3 1592.33 135.804   3
   3   9  -3 1101.82 156.903  50
   3   9  -2 2142.55 197.984  12
   3   9  -2 1814.84 191.664  23
   3   9  -2 2117.94 204.689  10
   3   9  -2 1766.01 210.456  21
   3   9  -2 2317.49 174.875   3
   3   9  -2 1661.74 201.210  50
   3   9  -1 2316.41 215.764  12
   3   9  -1 2339.24 218.084  10
   3   9  -1 2143.21 232.183  21
   3   9  -1 2350.23 181.406   3
   3   9  -1 2255.01 229.881  50
   3   9   0 1196.38 165.742  12
   3   9   0 1138.76 149.828  10
   3   9   0 945.081 120.761   3
   3   9   0 1165.83 172.539  50
   3   9   1 10259.3 449.804  12
   3   9   1 10518.8 419.717  10
   3   9   1 10904.5 391.179   3
   3   9   1 10541.9 410.006   8
   3   9   1 9462.95 479.741  50
   3   9   2 1202.21 165.919  12
   3   9   2 979.653 159.337  21
   3   9   2 1398.63 146.565   3
   3   9   2 1352.96 152.131   8
   3   9   2 1192.89 177.624  50
   3   9   3 13191.2 505.846  12
   3   9   3 11693.6 523.692  50
   3   9   3 12423.7 525.596  21
   3   9   3 13515.2 443.903   3
   3   9   3 13887.0 476.766   8
   3   9   4 20599.6 623.978  12
   3   9   4 21376.2 680.445  21
   3   9   4 22382.2 579.131   3
   3   9   4 20804.4 583.877   8
   3   9   4 20721.8 697.741  50
   3   9   5 20940.4 616.394  12
   3   9   5 20529.3 678.852  21
   3   9   5 21967.3 571.459   3
   3   9   5 22739.9 608.277   8
   3   9   5 22087.8 725.898  50
   3   9   6 33240.8 748.104  12
   3   9   6 34053.6 843.802  21
   3   9   6 35963.9 724.166   3
   3   9   6 34477.7 757.139   8
   3   9   6 34048.8 894.117  50
   3   9   7 8885.56 420.774  21
   3   9   7 8350.73 351.926   3
   3   9   7 9191.85 378.588   8
   3   9   7 8927.32 455.954  50
   3   9   8 17568.6 569.968  21
   3   9   8 17128.7 610.598  50
   3   9   9 7590.94 359.767  21
   3   9   9 8044.96 321.643   3
   3   9   9 8084.82 332.871   8
   3   9   9 7637.02 389.947  50
   3   9  10 2277.21 183.095  21
   3   9  10 2810.71 174.265   3
   3   9  10 2911.01 183.434   8
   3   9  10 2319.46 199.056  50
   3   9  11 5535.63 233.635  21
   3   9  11 6118.85 227.655   3
   3   9  11 6570.51 243.273   8
   3   9  11 5981.25 278.441  50
   3   9  12 6350.10 185.753   3
   3   9  12 6509.69 236.503  50
   3  10  -4 4754.47 221.237  10
   3  10  -4 5692.43 177.408   3
   3  10  -3 2811.43 195.529  10
   3  10  -3 3488.01 163.774   3
   3  10  -2 916.901 111.979  12
   3  10  -2 880.352 119.489  23
   3  10  -2 869.811 122.070  10
   3  10  -2 1107.39 109.586   3
   3  10  -2 633.012 116.098  50
   3  10  -1 1869.37 175.286  12
   3  10  -1 1491.14 164.134  10
   3  10  -1 1582.43 179.484  21
   3  10  -1 1833.15 147.678   3
   3  10  -1 1204.11 160.631  50
   3  10   0 7192.14 351.380  12
   3  10   0 5814.92 323.053  10
   3  10   0 5973.31 355.151  21
   3  10   0 7064.02 288.629   3
   3  10   0 5570.02 341.086  50
   3  10   1 1421.38 169.001  12
   3  10   1 1106.84 147.947  10
   3  10   1 1149.30 177.613  21
   3  10   1 1619.68 153.185   3
   3  10   1 857.738 154.859  50
   3  10   2 4662.95 256.935   3
   3  10   2 4303.79 248.769   8
   3  10   2 3871.09 308.383  50
   3  10   3 4321.44 289.051  12
   3  10   3 4014.74 245.993   3
   3  10   3 4103.27 252.361   8
   3  10   3 3453.28 296.563  50
   3  10   4 1941.20 197.641  12
   3  10   4 2000.05 223.412  21
   3  10   4 1595.10 162.785   3
   3  10   4 1874.24 176.077   8
   3  10   4 1870.06 218.069  50
   3  10   5 2897.44 227.153  12
   3  10   5 2775.69 253.102  21
   3  10   5 2873.90 209.049   3
   3  10   5 2997.46 216.668   8
   3  10   5 2517.69 252.614  50
   3  10   6 10891.1 427.267  12
   3  10   6 12243.9 516.937  50
   3  10   6 11762.1 481.856  21
   3  10   6 11325.2 385.718   3
   3  10   6 11277.0 414.068   8
   3  10   7 32374.3 678.140  12
   3  10   7 32873.1 791.601  21
   3  10   7 36356.9 681.972   3
   3  10   7 36475.4 722.725   8
   3  10   7 33326.6 840.283  50
   3  10   8 1555.10 185.220  50
   3  10   8 1617.23 171.776  21
   3  10   8 1682.12 147.136   3
   3  10   8 1901.06 159.314   8
   3  10   9 11649.8 408.676  21
   3  10   9 11359.5 439.772  50
   3  10  10 5031.87 245.714  21
   3  10  10 5725.13 219.383   3
   3  10  10 5454.97 226.373   8
   3  10  10 5232.85 273.408  50
   3  10  11 127.052 37.5290   8
   3  10  11 105.859 33.4607   3
   3  10  11 86.4753 34.8133  21
   3  10  11 42.3350 39.8496  50
   3  11  -3 10.1291 27.8882  50
   3  11  -2 2881.21 172.569  10
   3  11  -2 2188.85 165.446  50
   3  11  -1 2752.45 171.232  12
   3  11  -1 2818.84 191.013  10
   3  11   0 5562.26 270.504  12
   3  11   0 4841.75 254.538  10
   3  11   0 4609.90 269.965  21
   3  11   0 5824.29 229.537   3
   3  11   0 3777.01 252.888  50
   3  11   1 278.328 60.5561   3
   3  11   1 267.126 76.2397  12
   3  11   1 106.485 71.8606  21
   3  11   1 136.956 71.5907  50
   3  11   2 1062.75 134.769  12
   3  11   2 867.945 139.687  21
   3  11   2 989.870 105.359   3
   3  11   2 597.911 127.051  50
   3  11   3 1562.93 177.082  21
   3  11   3 1478.41 133.754   3
   3  11   3 1387.26 179.346  50
   3  11   4 1369.37 154.248  12
   3  11   4 1493.66 133.656   3
   3  11   4 1244.11 127.981   8
   3  11   5 3559.64 236.830  12
   3  11   5 3049.15 188.551   3
   3  11   5 3062.46 198.004   8
   3  11   5 2997.53 252.309  50
   3  11   6 4190.18 246.453  12
   3  11   6 3936.02 268.257  21
   3  11   6 4106.00 212.213   3
   3  11   6 4293.82 228.901   8
   3  11   6 3759.88 273.203  50
   3  11   7 2432.70 174.082  12
   3  11   7 2295.71 198.385  21
   3  11   7 2414.78 161.265   3
   3  11   7 2468.90 169.118   8
   3  11   7 2023.51 206.193  50
   3  11   8 252.142 60.8661   8
   3  11   8 338.478 82.6645  21
   3  11   8 356.608 88.2415  50
   3  11   9 991.352 114.924  21
   3  11   9 939.382 86.5049   3
   3  11   9 919.870 94.5218   8
   3  11   9 1076.89 129.057  50
   3  11  10 2091.12 135.003  21
   3  11  10 2104.45 110.371   3
   3  11  10 2055.80 126.034   8
   3  11  10 1991.10 148.323  50
   3  12   0 1076.61 89.8792  12
   3  12   0 1237.94 77.4659   3
   3  12   1 739.675 86.7539  12
   3  12   1 738.708 96.6331  21
   3  12   1 871.577 74.2252   3
   3  12   2 1006.39 111.049  12
   3  12   2 869.374 110.850  21
   3  12   2 818.197 78.9921   3
   3  12   3 6327.33 291.873  21
   3  12   3 5786.05 206.663   3
   3  12   4 4913.42 244.624  12
   3  12   4 4669.29 254.500  21
   3  12   4 4371.42 183.222   3
   3  12   5 1001.16 115.808  12
   3  12   5 954.852 121.791  21
   3  12   5 816.298 83.4256   3
   3  12   6 1829.04 118.740   3
   3  12   6 1524.09 107.783   8
   3  12   7 5119.50 212.561  12
   3  12   7 4648.47 179.823   3
   3  12   8 10149.7 314.586  21
   3  12   8 9228.52 226.551   3
   3  12   9 488.738 64.8985  21
   3  13   3 233.976 50.8669  50
   3  13   4 810.260 84.2263  21
   3  13   4 705.231 84.1910  50
   3  13   5 161.390 40.6680  12
   3  13   5 183.329 44.9578  21
   3  13   5 93.9278 43.2944  50
   3  13   6 4551.69 191.839  50
   4  -9  -6 2195.46 160.328  13
   4  -9  -5 633.323 93.5764  13
   4  -9  -5 661.648 73.3550  17
   4  -9  -4 265.398 69.0743  13
   4  -9  -4 416.249 67.3229  17
   4  -9  -3 6483.24 276.194  13
   4  -9  -3 7327.35 254.878  17
   4  -9  -2 9410.19 309.664  13
   4  -9  -2 9492.38 288.264  17
   4  -8  -8 40.7658 30.7575   4
   4  -8  -8 43.0952 44.1927  13
   4  -8  -8 72.9501 32.8530  10
   4  -8  -7 8082.58 281.726   4
   4  -8  -7 7269.85 330.000  13
   4  -8  -7 7753.79 271.402  10
   4  -8  -7 8195.66 259.889  17
   4  -8  -6 4854.32 234.162   4
   4  -8  -6 4949.22 233.165  10
   4  -8  -6 4879.27 225.625  17
   4  -8  -5 2530.53 176.355   4
   4  -8  -5 1944.17 199.288  13
   4  -8  -5 2412.34 171.841  17
   4  -8  -4 4031.00 271.741  15
   4  -8  -4 4163.49 229.778   4
   4  -8  -4 3503.98 267.499  13
   4  -8  -4 3963.38 221.958  10
   4  -8  -4 4063.40 227.775  17
   4  -8  -3 3716.10 270.015  15
   4  -8  -3 3856.70 220.553   4
   4  -8  -3 3349.85 250.656  13
   4  -8  -3 3273.68 203.972  10
   4  -8  -3 3885.35 228.017  17
   4  -8  -2 5598.19 265.715   4
   4  -8  -2 4891.59 289.664  13
   4  -8  -2 5419.09 268.711  17
   4  -8  -1 396.454 74.2990   4
   4  -8  -1 350.311 92.8274  13
   4  -8  -1 317.641 73.8552  17
   4  -8   0 1239.95 119.771   4
   4  -8   0 1036.89 118.270  13
   4  -8   0 1091.39 126.697  17
   4  -8   1 7100.76 254.886   4
   4  -8   1 6420.98 253.823  11
   4  -8   2 1784.76 130.250  11
   4  -7  -9 520.591 73.8947   4
   4  -7  -9 556.770 88.7734  13
   4  -7  -9 527.541 64.8663  10
   4  -7  -8 2013.91 160.281   4
   4  -7  -8 2118.56 188.908  13
   4  -7  -8 2185.63 150.734  10
   4  -7  -8 2273.89 151.052  17
   4  -7  -7 5535.04 281.613   4
   4  -7  -7 5486.33 319.834  13
   4  -7  -7 5781.89 266.130  10
   4  -7  -7 5406.59 259.427  17
   4  -7  -6 4795.15 272.278   4
   4  -7  -6 4078.69 294.247  13
   4  -7  -6 4634.02 254.433  10
   4  -7  -6 4434.89 250.712  17
   4  -7  -5 1118.27 141.559   4
   4  -7  -5 950.659 155.483  13
   4  -7  -5 1305.17 148.616  17
   4  -7  -4 17401.4 543.615   4
   4  -7  -4 16739.9 589.330  15
   4  -7  -4 16633.2 506.025  10
   4  -7  -4 17146.1 524.829  17
   4  -7  -3 19422.1 571.026   4
   4  -7  -3 18839.7 653.075  15
   4  -7  -3 18953.7 640.958  13
   4  -7  -3 17494.0 516.154  10
   4  -7  -3 18434.7 552.029  17
   4  -7  -2 2448.88 248.683  15
   4  -7  -2 2292.52 201.671   4
   4  -7  -2 2443.64 235.450  13
   4  -7  -2 2412.36 194.368  10
   4  -7  -2 2540.05 208.798  17
   4  -7  -1 300.206 82.7049   4
   4  -7  -1 242.043 80.8495  13
   4  -7  -1 225.521 82.3051  17
   4  -7   0 4030.13 245.614   4
   4  -7   0 4010.91 277.049  13
   4  -7   1 18565.8 545.406  13
   4  -7   1 17801.7 518.765  11
   4  -7   1 17654.1 504.907  17
   4  -7   2 7493.40 307.683   4
   4  -7   2 6684.72 296.411  13
   4  -7   2 6701.52 316.065  11
   4  -7   2 6481.68 285.388  17
   4  -7   3 1081.99 115.058   4
   4  -7   3 1250.83 132.989  11
   4  -7   4 1023.86 109.052  11
   4  -6 -10 255.789 58.5474   4
   4  -6  -9 2665.44 186.347  13
   4  -6  -9 2315.24 147.822  10
   4  -6  -9 2895.98 172.916  17
   4  -6  -9 2457.92 185.233   4
   4  -6  -8 438.491 94.4204   4
   4  -6  -8 241.452 81.2198  13
   4  -6  -8 314.986 75.4751  10
   4  -6  -8 432.589 87.2121  17
   4  -6  -7 8159.74 411.034  13
   4  -6  -7 8398.13 349.789  10
   4  -6  -7 8169.73 352.407  17
   4  -6  -7 8018.29 376.302   4
   4  -6  -6 1656.63 183.269   4
   4  -6  -6 1767.19 208.648  13
   4  -6  -6 1685.45 170.189  10
   4  -6  -6 1582.10 169.197  17
   4  -6  -5 2171.17 207.946   4
   4  -6  -5 1948.58 235.703  13
   4  -6  -5 2092.54 197.421  17
   4  -6  -4 10765.2 457.563   4
   4  -6  -4 10233.0 484.955  15
   4  -6  -4 10684.6 516.042  13
   4  -6  -4 10285.0 420.953  10
   4  -6  -4 10427.2 442.300  17
   4  -6  -3 138.325 89.1676  15
   4  -6  -3 302.900 95.2145   4
   4  -6  -3 119.977 68.5996  10
   4  -6  -3 257.143 76.5561  17
   4  -6  -2 19808.0 609.548   4
   4  -6  -2 19357.0 700.494  15
   4  -6  -2 19936.5 687.611  13
   4  -6  -2 19501.2 564.608  10
   4  -6  -2 19277.4 605.284  17
   4  -6  -1 14698.5 613.198  15
   4  -6  -1 14736.7 526.590   4
   4  -6  -1 15206.6 594.004  13
   4  -6  -1 13697.3 465.206  10
   4  -6   0 8393.28 396.016   4
   4  -6   0 8634.20 442.347  13
   4  -6   0 7716.41 372.689  11
   4  -6   0 7674.51 324.365  10
   4  -6   0 8353.03 389.370  17
   4  -6   1 3326.78 247.036   4
   4  -6   1 3482.59 270.834  13
   4  -6   1 2991.22 243.402  11
   4  -6   1 3199.52 251.835  17
   4  -6   2 6515.49 327.094   4
   4  -6   2 6050.17 340.225  13
   4  -6   2 5745.45 329.373  11
   4  -6   2 5878.99 320.206  17
   4  -6   3 16385.7 509.893  13
   4  -6   3 16160.0 525.178  11
   4  -6   3 16442.9 481.981  17
   4  -6   4 10763.4 374.012   4
   4  -6   4 10960.3 405.309  11
   4  -6   5 2647.63 166.820   4
   4  -6   6 100.137 32.2989  11
   4  -5 -10 1397.01 99.8048  10
   4  -5 -10 2292.73 143.288  17
   4  -5  -9 480.613 81.5005  10
   4  -5  -9 532.685 94.1481  17
   4  -5  -8 1332.44 161.987  13
   4  -5  -8 1407.37 146.250  10
   4  -5  -8 1374.53 155.324  17
   4  -5  -7 2199.70 224.080  13
   4  -5  -7 2450.70 204.672  10
   4  -5  -7 2435.98 208.095  17
   4  -5  -6 36118.1 924.731  13
   4  -5  -6 37000.7 799.191  10
   4  -5  -6 36596.9 831.583  17
   4  -5  -6 34581.9 837.465   4
   4  -5  -5 7395.51 443.600  13
   4  -5  -5 7398.04 361.123  10
   4  -5  -5 8352.21 402.684  17
   4  -5  -5 8211.16 409.237   4
   4  -5  -4 25442.4 723.307   4
   4  -5  -4 23946.4 779.843  13
   4  -5  -4 23887.4 647.936  10
   4  -5  -4 23358.9 683.356  17
   4  -5  -3 278.602 112.714  15
   4  -5  -3 518.525 108.229   4
   4  -5  -3 450.880 127.732  13
   4  -5  -3 417.916 104.647  10
   4  -5  -2 7308.02 377.809   4
   4  -5  -2 7046.98 435.645  15
   4  -5  -2 6477.74 403.732  13
   4  -5  -2 5776.33 337.520  10
   4  -5  -1 10432.0 449.114   4
   4  -5  -1 9707.25 515.360  15
   4  -5  -1 9271.82 476.733  13
   4  -5  -1 8996.59 389.461  10
   4  -5  -1 10029.2 439.166  17
   4  -5   0 10196.0 445.832   4
   4  -5   0 10007.2 492.862  13
   4  -5   0 9755.24 435.817  11
   4  -5   0 8512.10 379.111  10
   4  -5   0 10095.9 437.044  17
   4  -5   1 14112.3 526.654   4
   4  -5   1 13911.6 564.808  13
   4  -5   1 13023.9 517.652  11
   4  -5   1 14265.6 509.188  17
   4  -5   2 1047.60 151.271   4
   4  -5   2 907.334 161.244  13
   4  -5   2 826.312 134.626  11
   4  -5   2 966.489 141.061  17
   4  -5   3 4309.13 282.115   4
   4  -5   3 3934.03 293.443  13
   4  -5   3 3884.27 281.477  11
   4  -5   3 3534.61 254.176  17
   4  -5   4 10435.4 433.334   4
   4  -5   4 9437.51 410.695  13
   4  -5   4 9360.31 418.532  11
   4  -5   5 1590.32 158.949   4
   4  -5   5 1629.50 156.208  19
   4  -5   6 59.9588 42.5930   4
   4  -5   6 106.238 54.3522  11
   4  -5   6 22.1837 38.2558  19
   4  -5   7 1037.88 93.9185  11
   4  -4 -11 287.614 55.6503   4
   4  -4 -10 963.983 91.0163  10
   4  -4 -10 1143.35 119.031  17
   4  -4 -10 997.922 120.393   4
   4  -4  -9 793.435 107.080  10
   4  -4  -9 849.396 121.196  17
   4  -4  -9 733.580 123.977   4
   4  -4  -8 23196.0 592.547  10
   4  -4  -8 21903.5 623.098  17
   4  -4  -8 22660.2 660.929   4
   4  -4  -7 8620.74 440.396  13
   4  -4  -7 9161.66 399.040  10
   4  -4  -7 9006.17 418.075  17
   4  -4  -7 8327.40 434.604   4
   4  -4  -6 4228.66 319.382  13
   4  -4  -6 4565.37 288.024  10
   4  -4  -6 4414.84 306.047  17
   4  -4  -6 4451.61 319.715   4
   4  -4  -5 37699.2 954.951  13
   4  -4  -5 38859.4 880.745  17
   4  -4  -5 38106.9 898.744   4
   4  -4  -4 23239.2 750.011  13
   4  -4  -4 22577.6 641.610  10
   4  -4  -4 22802.7 690.975   4
   4  -4  -3 4838.22 353.793  13
   4  -4  -3 4826.88 299.733  10
   4  -4  -3 4399.15 295.481  17
   4  -4  -2 9804.83 498.000  15
   4  -4  -2 9661.86 487.154  13
   4  -4  -2 9479.10 397.880  10
   4  -4  -2 9310.68 427.105  17
   4  -4  -1 3601.94 308.856  15
   4  -4  -1 3448.68 295.256  13
   4  -4  -1 3207.55 233.914  10
   4  -4  -1 3427.02 258.754  17
   4  -4   0 14157.0 519.630  17
   4  -4   1 2713.88 254.230  13
   4  -4   1 2745.52 241.382  11
   4  -4   1 2715.36 226.183  17
   4  -4   2 1684.16 200.735  13
   4  -4   2 1457.99 185.628  11
   4  -4   2 1481.98 171.894  17
   4  -4   3 907.556 150.516   4
   4  -4   3 980.775 160.810  13
   4  -4   3 761.191 139.453  11
   4  -4   3 995.309 144.191  17
   4  -4   4 6659.70 364.888   4
   4  -4   4 6639.91 396.957  13
   4  -4   4 6536.02 372.674  11
   4  -4   4 6227.36 342.850  19
   4  -4   4 6050.67 319.046  17
   4  -4   5 3752.30 265.527   4
   4  -4   5 3233.40 249.968  13
   4  -4   5 3917.46 266.274  19
   4  -4   6 5512.39 300.904   4
   4  -4   6 5327.17 260.088   6
   4  -4   6 5648.31 304.926  11
   4  -4   6 5102.39 282.871  19
   4  -4   7 24777.5 484.645   6
   4  -4   7 24976.8 542.834  11
   4  -4   7 23736.0 536.067  19
   4  -3 -11 6179.86 215.576  17
   4  -3 -11 5653.59 226.552   4
   4  -3 -10 4695.40 209.912  10
   4  -3 -10 4960.50 250.067  17
   4  -3 -10 5014.01 260.954   4
   4  -3  -9 4837.83 255.725  10
   4  -3  -9 4458.13 279.273  17
   4  -3  -9 4215.38 283.402   4
   4  -3  -9 5187.75 244.495   8
   4  -3  -8 1160.72 147.282  10
   4  -3  -8 1143.56 156.297  17
   4  -3  -8 1103.37 159.476   4
   4  -3  -8 1135.11 124.935   8
   4  -3  -7 8129.28 377.737  10
   4  -3  -7 8272.56 417.022  17
   4  -3  -7 7336.87 409.590   4
   4  -3  -7 8222.74 327.815   8
   4  -3  -6 4814.87 299.661  10
   4  -3  -6 4685.62 319.527  17
   4  -3  -6 4660.99 325.675   4
   4  -3  -6 4513.00 249.790   8
   4  -3  -5 6272.92 381.751  13
   4  -3  -5 6171.90 343.880  10
   4  -3  -5 6818.86 379.364   4
   4  -3  -4 15479.9 603.331  13
   4  -3  -4 14975.5 514.405  10
   4  -3  -4 15232.6 551.495  17
   4  -3  -4 15471.6 566.003   4
   4  -3  -3 21938.9 724.728  13
   4  -3  -3 23644.2 630.546  10
   4  -3  -3 23261.2 675.309  17
   4  -3  -3 22292.1 661.723   4
   4  -3  -2 17841.0 584.814   4
   4  -3  -2 17185.6 632.634  13
   4  -3  -2 17753.8 534.773  10
   4  -3  -2 17421.8 569.888  17
   4  -3  -1 14238.3 517.532   4
   4  -3  -1 13450.5 561.506  13
   4  -3  -1 14094.9 463.158  10
   4  -3  -1 13934.9 511.345  17
   4  -3   0 3854.40 539.027  16
   4  -3   0 4361.54 289.360   4
   4  -3   0 4346.34 321.030  13
   4  -3   0 4312.39 284.225  17
   4  -3   1 18058.4 1182.30  16
   4  -3   1 19738.9 614.656   4
   4  -3   1 19774.6 628.045  11
   4  -3   1 18882.5 580.413  17
   4  -3   2 10921.4 455.694   4
   4  -3   2 10838.6 503.055  13
   4  -3   2 10349.1 465.219  11
   4  -3   2 10178.8 417.320  17
   4  -3   3 27347.9 730.968   4
   4  -3   3 26227.7 791.268  13
   4  -3   3 25939.4 753.389  11
   4  -3   3 24787.4 655.490  17
   4  -3   4 13931.5 518.980   4
   4  -3   4 13695.9 570.185  13
   4  -3   4 12314.2 452.966   6
   4  -3   4 13148.9 543.891  11
   4  -3   4 12416.8 496.832  19
   4  -3   4 12182.6 476.497  17
   4  -3   5 1034.97 154.266   4
   4  -3   5 1085.97 176.758  13
   4  -3   5 1054.00 138.282   6
   4  -3   5 1221.23 159.514  19
   4  -3   6 9784.09 394.657   6
   4  -3   6 10722.4 455.270  11
   4  -3   6 10484.1 441.078  19
   4  -3   7 473.662 93.9002   6
   4  -3   7 598.073 103.374  11
   4  -3   7 556.966 105.694  19
   4  -3   8 3302.34 187.417   6
   4  -3   8 3327.39 189.203  11
   4  -3   8 3479.08 205.618  19
   4  -2 -11 121.503 43.1670   4
   4  -2 -11 106.456 41.4699  17
   4  -2 -10 2098.73 143.132  10
   4  -2 -10 2064.27 172.681  17
   4  -2 -10 1918.23 165.602   4
   4  -2  -9 1070.37 124.136  10
   4  -2  -9 1036.47 150.918  17
   4  -2  -9 990.907 142.150   4
   4  -2  -9 1019.03 121.822   8
   4  -2  -8 13537.5 471.367  10
   4  -2  -8 13946.9 527.684  17
   4  -2  -8 12531.7 511.513   4
   4  -2  -8 13847.8 437.520   8
   4  -2  -7 9832.80 422.258  10
   4  -2  -7 9772.48 470.512   4
   4  -2  -7 9758.51 377.095   8
   4  -2  -6 15039.9 531.248  10
   4  -2  -6 13680.9 567.987   4
   4  -2  -6 14212.7 448.711   8
   4  -2  -5 545.907 125.856   4
   4  -2  -5 600.013 123.687  10
   4  -2  -5 937.435 145.551  17
   4  -2  -5 668.724 100.103   8
   4  -2  -4 934.655 133.422  10
   4  -2  -4 725.173 125.959  17
   4  -2  -4 845.172 137.028   4
   4  -2  -3 12203.8 514.338  13
   4  -2  -3 12034.6 438.873  10
   4  -2  -3 12222.3 483.749  17
   4  -2  -3 11814.9 471.357   4
   4  -2  -2 64656.6 1182.04  13
   4  -2  -2 63687.2 1001.40  10
   4  -2  -2 65497.9 1085.94  17
   4  -2  -2 66656.8 1108.25   4
   4  -2  -1 10651.3 437.155   4
   4  -2  -1 10811.8 480.339  13
   4  -2  -1 10143.9 384.163  10
   4  -2  -1 10497.4 431.992  17
   4  -2   0 1184.84 145.893   4
   4  -2   0 1026.94 156.640  13
   4  -2   0 1090.44 139.442  17
   4  -2   1 19460.7 583.061   4
   4  -2   1 19509.5 646.510  13
   4  -2   1 19065.0 605.241  11
   4  -2   1 19082.1 563.327  17
   4  -2   2 12719.0 480.028   4
   4  -2   2 13065.8 541.448  13
   4  -2   2 12702.2 509.634  11
   4  -2   2 12443.0 447.127  17
   4  -2   3 7622.59 379.788   4
   4  -2   3 8048.06 415.042  11
   4  -2   3 7937.23 359.381  17
   4  -2   4 2092.48 203.723   4
   4  -2   4 1787.49 216.826  13
   4  -2   4 1678.81 176.371   6
   4  -2   4 1793.01 202.667  11
   4  -2   4 1755.28 192.353  19
   4  -2   5 30075.8 772.045   4
   4  -2   5 29446.0 843.764  13
   4  -2   5 28386.1 768.394  19
   4  -2   6 33305.7 828.510   4
   4  -2   6 30682.2 741.722   6
   4  -2   6 32640.0 818.243  11
   4  -2   6 31630.6 803.132  19
   4  -2   7 1960.71 189.244   4
   4  -2   7 2054.89 186.778   6
   4  -2   7 2028.08 195.076  11
   4  -2   7 2059.59 202.647  19
   4  -2   8 1646.46 155.948   6
   4  -2   8 1606.63 153.725  11
   4  -2   8 1568.10 161.845  19
   4  -2   9 2049.76 143.619   6
   4  -2   9 1844.15 122.919  11
   4  -1 -11 1241.33 105.634  17
   4  -1 -10 292.420 66.6340   8
   4  -1 -10 332.209 71.0597   4
   4  -1 -10 285.534 57.2785  10
   4  -1 -10 282.294 71.1318  17
   4  -1  -9 183.869 58.2967   8
   4  -1  -9 181.908 77.8754   4
   4  -1  -9 158.600 66.9717  10
   4  -1  -9 255.455 83.1386  17
   4  -1  -8 883.706 131.505  10
   4  -1  -8 676.776 123.565   4
   4  -1  -8 813.981 120.231   8
   4  -1  -7 21124.8 625.867  10
   4  -1  -7 18326.4 638.417  17
   4  -1  -7 19283.1 635.249   4
   4  -1  -7 21555.9 564.903   8
   4  -1  -6 9672.65 432.682  10
   4  -1  -6 9664.84 464.117  17
   4  -1  -6 9255.92 455.269   4
   4  -1  -6 10341.6 390.522   8
   4  -1  -5 12019.9 483.048  10
   4  -1  -5 12416.0 512.595  17
   4  -1  -5 13191.6 428.193   8
   4  -1  -5 12899.0 512.619   4
   4  -1  -4 237.989 69.7026   8
   4  -1  -4 196.964 74.2131   4
   4  -1  -4 296.187 79.5309  10
   4  -1  -4 221.872 80.9990  17
   4  -1  -3 40466.2 818.178  10
   4  -1  -3 40708.5 862.352  17
   4  -1  -3 39663.1 863.776   4
   4  -1  -2 41206.5 898.155  13
   4  -1  -2 39850.3 781.143  10
   4  -1  -2 40243.3 835.255  17
   4  -1  -2 40591.2 837.027   4
   4  -1  -1 14071.8 479.908   4
   4  -1  -1 13949.8 520.735  13
   4  -1  -1 13767.2 442.052  10
   4  -1  -1 13552.5 470.208  17
   4  -1   0 23785.5 617.126   4
   4  -1   0 23367.5 683.192  13
   4  -1   0 21928.6 584.959  17
   4  -1   1 11041.2 420.595   4
   4  -1   1 10968.3 474.198  13
   4  -1   1 11155.1 443.864  11
   4  -1   1 11211.2 415.798  17
   4  -1   2 1289.96 154.186   4
   4  -1   2 1378.61 172.943  13
   4  -1   2 1343.04 165.581  11
   4  -1   3 3791.51 267.963   4
   4  -1   3 4206.40 491.893   7
   4  -1   3 4510.89 316.220  13
   4  -1   3 4163.49 266.296   6
   4  -1   3 4253.89 294.233  11
   4  -1   4 25933.4 692.199   4
   4  -1   4 27455.0 1324.27   7
   4  -1   4 24822.1 673.538   6
   4  -1   4 24615.4 729.924  11
   4  -1   4 26189.5 714.658  19
   4  -1   5 2523.86 228.604   4
   4  -1   5 2447.49 262.200  13
   4  -1   5 2151.16 213.826   6
   4  -1   5 2744.81 239.238  19
   4  -1   6 13094.9 514.901   4
   4  -1   6 12445.6 494.876   6
   4  -1   6 13086.7 524.882  11
   4  -1   6 12989.1 526.452  19
   4  -1   7 2067.38 212.683   4
   4  -1   7 2281.04 208.987   6
   4  -1   7 2392.61 219.801  11
   4  -1   7 2286.85 216.178  19
   4  -1   8 2059.99 181.262   6
   4  -1   8 2218.62 189.661  11
   4  -1   8 2511.87 217.753  19
   4  -1   9 7766.94 312.190   6
   4  -1   9 7357.10 281.092  11
   4   0 -11 2692.61 146.671  17
   4   0 -10 5202.98 217.403  10
   4   0 -10 5175.16 260.084  17
   4   0 -10 5857.03 231.755   8
   4   0  -9 2752.86 201.696  10
   4   0  -8 17126.0 539.384  10
   4   0  -8 16108.2 574.353  17
   4   0  -8 16399.4 523.734   4
   4   0  -8 17110.5 496.647   8
   4   0  -7 13312.8 504.380  10
   4   0  -7 12780.8 557.379  17
   4   0  -7 12672.4 486.902   4
   4   0  -7 14196.8 469.582   8
   4   0  -6 7394.33 385.153  10
   4   0  -6 7837.69 417.626  17
   4   0  -6 6413.66 370.929   4
   4   0  -6 7442.41 350.992   8
   4   0  -5 6562.80 365.556  10
   4   0  -5 7143.16 698.281   5
   4   0  -5 7287.94 392.192  17
   4   0  -5 7092.37 328.242   8
   4   0  -5 6427.04 366.037   4
   4   0  -4 5651.61 322.674  10
   4   0  -4 5690.30 600.396   5
   4   0  -4 5494.93 338.109  17
   4   0  -4 5545.11 280.133   8
   4   0  -4 4742.17 313.264   4
   4   0  -3 12921.3 462.124  10
   4   0  -3 12849.5 482.574  17
   4   0  -3 12596.9 410.582   8
   4   0  -3 12671.8 470.310   4
   4   0  -2 5329.83 284.133  10
   4   0  -2 5457.74 553.653   5
   4   0  -2 5492.19 306.449  17
   4   0  -2 5151.13 289.059   4
   4   0  -1 12108.7 429.550   4
   4   0  -1 11693.9 404.750  10
   4   0  -1 12453.5 440.535  17
   4   0   0 14743.3 464.641   4
   4   0   0 14960.6 516.539  13
   4   0   1 12057.3 419.197   4
   4   0   1 13630.5 782.059   7
   4   0   1 12220.2 477.779  13
   4   0   1 12086.3 451.030  11
   4   0   2 1344.69 144.885   4
   4   0   2 1287.35 249.123   7
   4   0   2 1368.15 169.290  13
   4   0   2 1399.81 154.817   6
   4   0   2 1408.27 164.475  11
   4   0   3 2730.89 211.660   4
   4   0   3 2838.23 414.224   7
   4   0   3 2850.64 248.751  13
   4   0   3 2942.82 221.940   6
   4   0   3 2754.46 234.389  11
   4   0   4 41709.0 853.366   4
   4   0   4 44262.8 991.855  13
   4   0   4 43099.0 881.530   6
   4   0   4 42093.4 934.337  11
   4   0   5 29711.3 745.785   4
   4   0   5 31755.4 779.481   6
   4   0   5 31317.2 800.487  19
   4   0   6 2719.22 242.113   4
   4   0   6 2790.33 234.644   6
   4   0   6 2783.88 255.200  11
   4   0   6 2956.86 255.204  19
   4   0   7 13946.2 530.395   4
   4   0   7 15275.8 534.274   6
   4   0   7 15490.9 555.160  11
   4   0   7 14624.0 561.103  19
   4   0   8 9136.48 398.180   6
   4   0   8 9185.46 400.063  11
   4   0   8 9168.72 424.788  19
   4   0   9 1084.01 120.964  11
   4   0  10 3184.13 186.839   6
   4   1 -10 960.153 90.4135  10
   4   1 -10 1137.15 100.511   8
   4   1  -9 504.463 90.1367  10
   4   1  -9 396.235 100.999  17
   4   1  -9 598.279 87.9940   8
   4   1  -8 6046.43 316.358  10
   4   1  -8 5828.89 344.821  17
   4   1  -8 6472.91 297.281   8
   4   1  -7 2548.90 229.216  10
   4   1  -7 2607.47 244.154  17
   4   1  -6 4394.01 292.255  10
   4   1  -6 5066.93 336.356  17
   4   1  -6 4341.19 276.010   8
   4   1  -5 24558.4 712.985  10
   4   1  -5 27098.5 1332.41   5
   4   1  -5 26259.6 738.012  17
   4   1  -5 25489.9 633.125   8
   4   1  -4 5975.96 332.155  10
   4   1  -4 5457.01 332.076  17
   4   1  -4 5512.91 286.678   8
   4   1  -3 8846.44 390.753  10
   4   1  -3 9325.30 439.779  20
   4   1  -3 9917.96 761.853   5
   4   1  -3 8826.13 406.934  17
   4   1  -3 8892.91 347.924   8
   4   1  -2 26252.7 637.555  10
   4   1  -2 26224.4 652.779  17
   4   1  -2 25366.9 565.912   8
   4   1  -1 2953.74 204.222  10
   4   1  -1 2907.32 377.121   5
   4   1  -1 2744.64 179.503   8
   4   1   0 11201.8 708.973   7
   4   1   1 25758.2 663.616  13
   4   1   1 25738.1 608.150   6
   4   1   1 24752.7 635.682  11
   4   1   2 13000.0 802.470   7
   4   1   2 12231.6 471.765  13
   4   1   2 12235.5 435.697   6
   4   1   2 12621.2 470.257  11
   4   1   3 38034.7 1449.11   7
   4   1   3 36730.1 855.815  13
   4   1   3 35865.0 776.349   6
   4   1   3 34919.6 809.354  11
   4   1   4 39806.2 788.635   4
   4   1   4 38759.0 913.623  13
   4   1   4 38799.7 835.651   6
   4   1   4 38083.1 875.472  11
   4   1   5 104495. 1327.11   4
   4   1   5 104554. 1550.11  13
   4   1   5 100944. 1388.75   6
   4   1   5 102143. 1444.82  19
   4   1   6 44713.0 936.496   6
   4   1   6 45147.6 975.863  11
   4   1   6 44433.8 919.939  20
   4   1   6 47164.5 1009.37  19
   4   1   7 1580.36 179.952   4
   4   1   7 1647.31 181.019   6
   4   1   7 1540.21 181.364  11
   4   1   7 1286.49 164.872  20
   4   1   8 18195.1 573.170  11
   4   1   8 15769.4 522.531  20
   4   1   9 1853.66 177.568   6
   4   1   9 1764.23 161.917  11
   4   1  10 307.406 73.0043   6
   4   1  11 1474.40 104.370   6
   4   2 -10 1890.08 140.906  17
   4   2 -10 1686.39 102.823   8
   4   2  -9 951.742 113.061  10
   4   2  -9 809.669 125.999  17
   4   2  -8 175.976 66.5678   8
   4   2  -8 134.440 66.6651  10
   4   2  -8 174.676 81.6740  17
   4   2  -7 834.233 136.222  10
   4   2  -7 871.696 156.452  17
   4   2  -7 916.543 130.119   8
   4   2  -6 4121.15 292.418  10
   4   2  -6 4077.02 298.225  17
   4   2  -5 2675.73 246.715  10
   4   2  -5 2564.48 237.520  17
   4   2  -5 2620.24 215.087   8
   4   2  -4 10689.9 455.750  10
   4   2  -4 9921.03 457.359  17
   4   2  -4 10869.6 411.575   8
   4   2  -3 10466.5 431.624  10
   4   2  -3 10269.4 465.459  20
   4   2  -3 9630.74 424.662  17
   4   2  -3 10652.7 396.255   8
   4   2  -2 14280.6 481.318  10
   4   2  -2 13932.5 535.102  20
   4   2  -2 14099.9 437.453   8
   4   2  -1 18079.4 512.638  10
   4   2  -1 18001.8 573.474  20
   4   2  -1 17011.9 466.179   8
   4   2   0 20516.0 541.299   6
   4   2   0 19887.2 595.411  20
   4   2   1 13914.8 453.145   6
   4   2   1 13490.0 467.942  11
   4   2   1 14369.9 498.032  20
   4   2   2 14194.1 851.878   7
   4   2   2 12402.3 451.665   6
   4   2   2 12644.1 466.150  11
   4   2   2 13182.7 479.958  20
   4   2   3 69970.9 1173.76  13
   4   2   3 69577.3 1093.32   6
   4   2   3 70713.3 1137.29  11
   4   2   3 69008.0 1121.38  20
   4   2   4 31191.2 804.769  13
   4   2   4 32224.3 758.083   6
   4   2   4 30988.1 776.814  11
   4   2   4 30365.6 763.415  20
   4   2   5 8381.34 733.311   7
   4   2   5 8028.92 395.820   6
   4   2   5 7974.87 403.977  11
   4   2   5 7923.18 396.962  20
   4   2   6 1822.04 195.566   6
   4   2   6 2117.61 213.284  11
   4   2   6 1974.31 206.817  20
   4   2   7 23952.5 694.240  11
   4   2   7 23034.7 690.181  20
   4   2   8 3329.85 256.580   6
   4   2   8 3362.23 254.277  11
   4   2   8 3187.15 246.296  20
   4   2   9 3532.75 247.238   6
   4   2   9 3459.85 230.526  11
   4   2   9 3067.04 231.446  20
   4   2  10 101.781 56.9123   6
   4   2  10 62.4819 38.9968  20
   4   2  11 10408.1 296.252   6
   4   2  11 6576.89 232.571  20
   4   3  -9 74.4967 35.7343   8
   4   3  -9 125.372 53.1195  17
   4   3  -8 516.196 105.348  10
   4   3  -8 589.048 118.519  17
   4   3  -8 659.645 95.3528   8
   4   3  -7 2860.68 230.437  10
   4   3  -7 2434.10 232.555  17
   4   3  -7 2594.38 203.544   8
   4   3  -6 8612.33 442.501  17
   4   3  -6 9280.84 401.052   8
   4   3  -5 8235.66 427.988  10
   4   3  -5 8217.87 435.707  17
   4   3  -5 9416.43 393.036   8
   4   3  -4 1415.04 174.661  10
   4   3  -4 1442.64 313.827   5
   4   3  -4 1133.11 169.884  17
   4   3  -3 18220.6 573.371  10
   4   3  -3 16680.2 641.151  20
   4   3  -3 17225.8 509.302   8
   4   3  -2 20112.3 566.798   6
   4   3  -2 19070.5 577.238  10
   4   3  -2 21295.4 682.809  20
   4   3  -2 20863.9 1086.11   5
   4   3  -2 19335.3 534.591   8
   4   3  -1 17596.7 510.981   6
   4   3  -1 17191.7 519.852  10
   4   3  -1 17811.3 603.791  20
   4   3  -1 17904.6 944.909   5
   4   3  -1 15695.2 472.445   8
   4   3   0 6608.62 334.684  12
   4   3   0 7304.69 339.167   6
   4   3   0 6880.88 310.103   8
   4   3   1 3581.43 243.594   6
   4   3   1 3737.12 255.979  11
   4   3   1 3730.20 272.054  20
   4   3   1 3412.20 210.901   8
   4   3   2 120933. 1415.28   6
   4   3   2 127497. 1494.49  11
   4   3   2 125479. 1531.12  20
   4   3   2 118038. 1233.82   8
   4   3   3 14404.4 905.682   7
   4   3   3 14016.8 492.813   6
   4   3   3 13610.1 505.414  11
   4   3   3 13585.9 514.734  20
   4   3   4 2357.55 384.885   7
   4   3   4 2422.14 212.041   6
   4   3   4 2133.34 213.335  11
   4   3   4 2021.03 207.725  20
   4   3   5 24525.5 705.409  11
   4   3   5 24525.4 720.390  20
   4   3   6 29708.6 759.505   6
   4   3   6 30869.7 794.553  11
   4   3   6 30482.0 812.989  20
   4   3   7 8492.94 409.046   6
   4   3   7 8782.58 418.210  11
   4   3   7 8559.11 426.071  20
   4   3   8 23914.0 675.165   6
   4   3   8 22778.4 661.644  11
   4   3   8 21601.6 672.936  20
   4   3   9 10504.5 421.426   6
   4   3   9 9865.34 396.524  11
   4   3   9 9502.50 428.024  20
   4   3  10 1853.23 160.376   6
   4   3  10 1505.78 156.954  20
   4   3  11 7273.71 252.592   6
   4   3  11 5805.76 247.667  20
   4   4  -9 270.470 49.6484  10
   4   4  -9 230.410 58.6422  17
   4   4  -8 13.4835 27.8419   8
   4   4  -8 4.86934 40.1607  17
   4   4  -7 2808.30 223.536  10
   4   4  -7 2688.81 219.419  17
   4   4  -7 2997.79 196.471   8
   4   4  -6 3443.14 269.922  17
   4   4  -6 4054.91 249.753   8
   4   4  -6 4131.49 203.432   3
   4   4  -5 6888.17 377.407  10
   4   4  -5 6352.76 328.426   8
   4   4  -4 308.043 78.5646   8
   4   4  -4 439.216 111.153  10
   4   4  -3 11955.8 482.371  10
   4   4  -3 11102.7 536.132  20
   4   4  -3 12800.7 907.433   5
   4   4  -3 11850.3 426.352   8
   4   4  -2 7737.82 394.016  12
   4   4  -2 8059.89 392.906   6
   4   4  -2 7980.86 393.997  10
   4   4  -2 8676.95 400.010  21
   4   4  -2 8724.87 457.944  20
   4   4  -2 8682.67 721.664   5
   4   4  -1 2598.14 216.583  12
   4   4  -1 2215.40 211.340   6
   4   4  -1 2365.11 211.776  10
   4   4  -1 2481.63 238.221  20
   4   4  -1 2476.66 373.082   5
   4   4  -1 2311.63 188.627   8
   4   4   0 1735.42 173.812  12
   4   4   0 1837.10 182.382   6
   4   4   0 2047.84 221.356  20
   4   4   0 1679.15 159.440   8
   4   4   1 4721.26 275.671  12
   4   4   1 4964.55 295.108   6
   4   4   1 4989.11 308.170  11
   4   4   1 5223.98 334.505  20
   4   4   1 4735.50 261.040   8
   4   4   2 28654.4 694.960   6
   4   4   2 28957.7 733.187  11
   4   4   2 27896.4 750.869  20
   4   4   2 26598.2 617.621   8
   4   4   3 435.297 82.7388   8
   4   4   3 457.633 164.042   7
   4   4   3 433.193 100.497   6
   4   4   3 584.416 127.101  11
   4   4   3 396.703 109.418  20
   4   4   4 6245.70 369.343  20
   4   4   4 5649.61 281.062   8
   4   4   5 19718.9 1130.76   7
   4   4   5 19516.7 610.396   6
   4   4   5 18259.4 611.711  11
   4   4   5 19064.9 642.159  20
   4   4   6 11476.1 470.791   6
   4   4   6 10639.6 473.461  11
   4   4   6 10974.3 492.360  20
   4   4   7 54169.3 1025.53   6
   4   4   7 51111.8 1017.04  11
   4   4   7 52857.3 1081.99  20
   4   4   8 1534.37 171.496   6
   4   4   8 1371.45 171.258  11
   4   4   8 1364.89 175.176  20
   4   4   9 5209.44 295.002   6
   4   4   9 4761.41 278.281  11
   4   4   9 4769.85 307.668  20
   4   4  10 14140.7 427.291   6
   4   4  10 13374.8 470.671  20
   4   4  11 3951.54 184.767   6
   4   4  11 3632.51 209.253  20
   4   5  -8 604.915 87.1161  10
   4   5  -8 583.670 85.1665  17
   4   5  -7 885.488 126.776  10
   4   5  -7 846.618 123.320  17
   4   5  -7 704.289 87.3524   8
   4   5  -6 3001.28 193.527   8
   4   5  -6 3252.07 175.694   3
   4   5  -5 414.665 91.4800   8
   4   5  -5 421.044 100.655  10
   4   5  -5 445.630 78.7385   3
   4   5  -4 8798.08 425.342  10
   4   5  -4 9760.53 334.512   3
   4   5  -4 8929.12 382.667   8
   4   5  -3 10669.1 460.092  10
   4   5  -3 11765.7 367.713   3
   4   5  -3 10576.3 416.856   8
   4   5  -2 18028.9 595.233  12
   4   5  -2 17499.0 573.276  10
   4   5  -2 18130.8 606.212  21
   4   5  -2 18766.8 1087.20   5
   4   5  -2 19290.5 477.971   3
   4   5  -2 18199.6 536.841   8
   4   5  -1 1687.64 185.789  12
   4   5  -1 1558.82 190.870   6
   4   5  -1 1109.59 166.455  10
   4   5  -1 1571.39 180.223  21
   4   5  -1 2038.02 350.813   5
   4   5  -1 1731.32 146.997   3
   4   5   0 34009.2 777.484  12
   4   5   0 34676.4 807.079   6
   4   5   0 33116.9 768.279  21
   4   5   0 34977.1 640.295   3
   4   5   0 32084.0 732.530   8
   4   5   1 19161.0 560.538  12
   4   5   1 19806.0 589.273   6
   4   5   1 18801.5 473.410   3
   4   5   1 19099.9 539.957   8
   4   5   2 20204.8 563.582  12
   4   5   2 21729.6 622.158   6
   4   5   2 21516.8 508.662   3
   4   5   2 19399.8 634.794  20
   4   5   2 20091.1 557.541   8
   4   5   3 23543.5 693.146  11
   4   5   3 23257.1 536.806   3
   4   5   3 24494.2 713.391  20
   4   5   4 16828.5 1025.15   7
   4   5   4 16715.1 553.780   6
   4   5   4 15827.9 451.651   3
   4   5   4 16778.3 603.364  20
   4   5   4 15181.8 484.024   8
   4   5   5 697.386 227.507   7
   4   5   5 914.062 141.765   6
   4   5   5 794.039 144.186  11
   4   5   5 854.949 114.086   3
   4   5   5 818.092 147.050  20
   4   5   5 942.714 127.221   8
   4   5   6 3876.96 276.384   6
   4   5   6 3351.70 286.375  11
   4   5   6 3509.55 219.104   3
   4   5   6 3688.52 293.254  20
   4   5   6 3334.33 229.129   8
   4   5   7 7787.44 382.422   6
   4   5   7 6674.55 377.287  11
   4   5   7 7096.30 315.900   3
   4   5   7 7338.48 404.694  20
   4   5   7 6974.71 312.424   8
   4   5   8 12987.3 478.286   6
   4   5   8 11455.3 475.033  11
   4   5   8 12469.0 408.652   3
   4   5   8 12917.4 524.320  20
   4   5   9 3013.19 220.397   6
   4   5   9 2807.95 182.125   3
   4   5   9 3077.28 246.464  20
   4   5  10 10947.0 363.599   6
   4   5  10 10844.6 322.228   3
   4   5  10 10537.0 419.297  20
   4   5  11 735.715 72.8096   3
   4   5  11 676.748 97.8250  20
   4   6  -7 3683.56 206.566  10
   4   6  -6 162.350 49.4476   8
   4   6  -6 213.743 48.0680   3
   4   6  -5 2138.66 203.255  10
   4   6  -5 2162.26 150.955   3
   4   6  -5 2020.26 160.081   8
   4   6  -4 4028.30 287.075  10
   4   6  -4 4491.50 233.781   3
   4   6  -4 4376.69 258.502   8
   4   6  -3 4080.13 223.575   3
   4   6  -3 4041.64 257.346   8
   4   6  -2 12654.2 497.780  10
   4   6  -2 13575.5 533.736  21
   4   6  -2 13087.0 576.283  20
   4   6  -2 13870.1 411.958   3
   4   6  -2 13066.5 459.993   8
   4   6  -1 27130.3 736.878  12
   4   6  -1 25312.0 681.311  10
   4   6  -1 27354.3 745.670  21
   4   6  -1 28271.8 816.789  20
   4   6  -1 28517.0 601.474   3
   4   6  -1 27626.8 669.892   8
   4   6   0 11977.8 475.370  12
   4   6   0 11887.7 485.987   6
   4   6   0 12219.8 489.513  21
   4   6   0 12503.6 544.214  20
   4   6   0 11753.1 389.300   3
   4   6   0 12191.8 451.394   8
   4   6   1 977.330 142.265  12
   4   6   1 1011.50 147.847  21
   4   6   1 1085.23 164.451  20
   4   6   1 837.517 110.926   3
   4   6   2 5862.13 320.410  12
   4   6   2 5992.94 332.638  21
   4   6   2 6342.42 385.833  20
   4   6   2 6070.27 292.100   3
   4   6   2 6469.21 331.565   8
   4   6   3 16961.8 525.855  12
   4   6   3 17774.8 575.976   6
   4   6   3 16937.6 479.641   3
   4   6   3 18574.0 642.486  20
   4   6   3 16732.9 539.100   8
   4   6   4 27075.4 705.650   6
   4   6   4 26400.9 598.442   3
   4   6   4 28161.9 795.058  20
   4   6   4 26115.1 663.602   8
   4   6   5 20237.8 613.012   6
   4   6   5 19690.0 528.806   3
   4   6   5 19167.6 557.683   8
   4   6   6 1928.95 189.026   6
   4   6   6 1692.50 156.766   3
   4   6   6 1521.34 192.043  20
   4   6   6 1755.56 166.245   8
   4   6   7 19567.3 587.628   6
   4   6   7 19358.8 522.644   3
   4   6   7 19208.0 664.863  20
   4   6   8 10761.0 429.262   6
   4   6   8 10813.1 381.760   3
   4   6   8 10721.6 477.599  20
   4   6   8 9824.08 368.223   8
   4   6   9 8633.46 347.025   6
   4   6   9 8246.36 317.780   3
   4   6  10 2622.93 161.399   3
   4   6  11 483.694 61.3089   3
   4   7  -7 1171.26 96.9708  10
   4   7  -6 4089.91 164.065   3
   4   7  -5 4489.96 272.731  10
   4   7  -5 5365.74 220.521   3
   4   7  -4 1764.14 199.392  10
   4   7  -4 1489.47 135.038   8
   4   7  -3 638.846 118.919  10
   4   7  -3 862.629 112.575   3
   4   7  -3 831.717 113.985   8
   4   7  -2 4301.15 311.446  12
   4   7  -2 3903.64 289.615  10
   4   7  -2 4651.28 319.748  21
   4   7  -2 4342.50 247.104   3
   4   7  -2 4481.72 264.238   8
   4   7  -1 11336.5 498.250  21
   4   7  -1 11432.2 528.254  20
   4   7  -1 12755.4 401.871   3
   4   7  -1 12202.4 446.180   8
   4   7   0 13684.0 521.660  12
   4   7   0 13341.5 527.094  21
   4   7   0 13434.1 566.008  20
   4   7   0 14324.4 446.854   3
   4   7   0 13908.9 477.277   8
   4   7   1 841.650 135.998  12
   4   7   1 717.606 138.112   6
   4   7   1 748.336 129.577  21
   4   7   1 675.500 144.148  20
   4   7   1 876.461 117.583   3
   4   7   1 742.165 121.565   8
   4   7   2 246.807 68.8731   3
   4   7   2 338.198 88.0107  12
   4   7   2 347.954 104.207   6
   4   7   2 419.109 103.438  21
   4   7   2 414.899 112.630  20
   4   7   3 3444.73 250.979  12
   4   7   3 3664.23 270.900   6
   4   7   3 3508.32 271.426  21
   4   7   3 3643.52 231.628   3
   4   7   3 3865.86 305.937  20
   4   7   3 3238.37 245.995   8
   4   7   4 13698.3 501.272   6
   4   7   4 12429.6 483.956  21
   4   7   4 13583.1 442.561   3
   4   7   4 12943.3 548.648  20
   4   7   4 12531.8 477.752   8
   4   7   5 4811.06 290.775   6
   4   7   5 4537.01 257.527   3
   4   7   5 4579.07 324.903  20
   4   7   5 4480.53 279.765   8
   4   7   6 29.7164 53.2378   8
   4   7   6 83.8927 50.4893   3
   4   7   6 135.647 64.9644   6
   4   7   6 102.474 71.3053  20
   4   7   6 173.113 80.6145  50
   4   7   7 2352.90 206.496   6
   4   7   7 2388.24 186.001   3
   4   7   7 2482.22 242.670  20
   4   7   7 2035.61 188.423   8
   4   7   7 2037.92 205.975  50
   4   7   8 5840.79 298.705   6
   4   7   8 5646.46 283.047   3
   4   7   8 6166.11 352.261  20
   4   7   8 5513.64 284.044   8
   4   7   8 5570.19 318.741  50
   4   7   9 13944.6 405.242   3
   4   7   9 14698.5 516.454  20
   4   7   9 13583.0 399.193   8
   4   7   9 13190.0 458.739  50
   4   7  10 4845.00 213.292   3
   4   7  10 5138.84 279.776  20
   4   7  11 363.684 52.8681   3
   4   7  11 320.729 70.2448  20
   4   8  -5 306.402 71.2692  10
   4   8  -5 375.118 54.9353   3
   4   8  -4 1047.86 134.291  10
   4   8  -4 1377.19 114.510   3
   4   8  -3 333.217 68.4713   8
   4   8  -3 387.523 98.7591  10
   4   8  -3 517.500 84.4860   3
   4   8  -3 309.429 84.2168  50
   4   8  -2 103.449 50.1798   8
   4   8  -2 62.9291 42.9512   3
   4   8  -2 81.7527 61.0154  12
   4   8  -2 114.606 63.4307  10
   4   8  -2 14.7249 57.6802  50
   4   8  -1 1289.22 166.980  12
   4   8  -1 1039.19 147.294  10
   4   8  -1 1178.35 162.718  21
   4   8  -1 1367.96 135.541   3
   4   8  -1 1175.01 137.615   8
   4   8  -1 839.747 143.263  50
   4   8   0 1205.58 162.453  12
   4   8   0 1049.42 165.722  21
   4   8   0 945.897 168.133  20
   4   8   0 1505.40 146.465   3
   4   8   0 1227.79 146.676   8
   4   8   0 803.657 138.744  50
   4   8   1 2106.01 207.378  12
   4   8   1 1719.24 218.239  21
   4   8   1 1755.35 215.454  20
   4   8   1 1797.87 167.464   3
   4   8   1 1943.22 190.290   8
   4   8   1 1528.78 183.822  50
   4   8   2 1478.52 178.031  12
   4   8   2 1246.34 174.918   6
   4   8   2 1658.85 190.735  21
   4   8   2 1607.60 215.475  20
   4   8   2 1538.00 158.939   3
   4   8   2 1656.33 176.021   8
   4   8   2 1138.62 169.282  50
   4   8   3 12926.8 489.794  12
   4   8   3 14297.9 517.917   6
   4   8   3 13871.8 526.171  21
   4   8   3 13324.3 568.622  20
   4   8   3 12597.1 438.012   3
   4   8   3 13551.5 496.438   8
   4   8   3 11902.3 510.896  50
   4   8   4 16139.4 531.747  12
   4   8   4 18715.9 564.900   6
   4   8   4 15585.3 551.602  21
   4   8   4 17446.0 513.950   3
   4   8   4 17484.5 627.179  20
   4   8   4 13835.5 553.865  50
   4   8   5 6347.15 333.926   6
   4   8   5 5446.62 324.937  21
   4   8   5 6040.64 301.501   3
   4   8   5 6264.93 379.097  20
   4   8   5 5738.89 322.833   8
   4   8   5 5149.36 334.981  50
   4   8   6 1646.71 174.708   6
   4   8   6 1646.52 178.380  21
   4   8   6 2014.67 174.764   3
   4   8   6 1827.71 211.359  20
   4   8   6 1900.21 178.819   8
   4   8   6 1931.95 203.877  50
   4   8   7 18648.2 533.146   6
   4   8   7 18613.4 511.067   3
   4   8   7 20633.1 658.798  20
   4   8   7 19240.3 545.950   8
   4   8   7 19593.8 620.688  50
   4   8   8 12397.6 390.432   3
   4   8   8 12111.5 472.652  20
   4   8   8 12227.9 406.865   8
   4   8   9 58.7095 47.1960   8
   4   8   9 27.2176 39.1667   3
   4   8   9 79.9119 57.7226  20
   4   8   9 7.20960 45.3428  50
   4   8  10 1556.52 118.879   3
   4   8  10 1552.93 145.710  20
   4   8  10 1539.92 116.309   8
   4   8  10 1219.22 124.014  50
   4   8  11 964.950 77.6751   3
   4   8  11 933.089 91.1292  20
   4   9  -4 623.922 93.5300  10
   4   9  -4 530.271 77.1292  50
   4   9  -3 866.943 117.174  10
   4   9  -3 1008.11 92.6427   3
   4   9  -2 443.506 100.940  10
   4   9  -2 411.017 89.3682  50
   4   9  -1 2464.58 206.983  12
   4   9  -1 2065.85 189.316  10
   4   9  -1 2261.42 216.353  21
   4   9  -1 2822.58 177.928   3
   4   9  -1 2288.75 165.247   8
   4   9   0 1030.64 153.385  21
   4   9   0 1422.20 134.810   3
   4   9   0 1307.05 137.863   8
   4   9   0 812.370 139.735  50
   4   9   1 984.848 147.095  12
   4   9   1 940.501 150.831  21
   4   9   1 895.375 144.333  20
   4   9   1 920.955 116.673   3
   4   9   1 915.839 122.037   8
   4   9   1 699.165 129.801  50
   4   9   2 11510.6 456.063  12
   4   9   2 11389.1 478.071  21
   4   9   2 10612.1 477.190  20
   4   9   2 11145.4 382.665   3
   4   9   2 11829.5 416.643   8
   4   9   3 20823.1 604.316  12
   4   9   3 19372.8 641.230  21
   4   9   3 19682.0 644.304  20
   4   9   3 22483.8 547.997   3
   4   9   3 21373.1 585.048   8
   4   9   3 17389.9 607.927  50
   4   9   4 955.627 134.491  12
   4   9   4 884.730 136.944   6
   4   9   4 1111.97 154.855  21
   4   9   4 877.746 150.715  20
   4   9   4 1047.09 126.612   3
   4   9   4 1105.55 137.558   8
   4   9   4 760.604 134.388  50
   4   9   5 551.128 101.926  12
   4   9   5 513.427 103.186   6
   4   9   5 515.182 108.342  21
   4   9   5 632.605 100.167   3
   4   9   5 588.352 117.852  20
   4   9   5 600.569 116.498   8
   4   9   5 495.997 122.245  50
   4   9   6 3199.19 239.917  21
   4   9   6 3797.99 226.313   3
   4   9   6 3869.79 271.034  20
   4   9   6 3554.80 267.017  50
   4   9   7 17031.0 519.591  21
   4   9   7 19120.1 492.983   3
   4   9   7 19311.3 577.363  20
   4   9   7 21088.8 534.240   8
   4   9   7 16871.5 557.213  50
   4   9   8 1414.91 139.501  21
   4   9   8 1343.12 129.697   3
   4   9   8 1655.59 164.240  20
   4   9   8 1418.31 142.576   8
   4   9   8 1586.13 165.408  50
   4   9   9 2604.93 157.180   3
   4   9   9 2491.33 184.166  20
   4   9   9 2684.46 169.953   8
   4   9   9 2163.86 175.074  50
   4   9  10 5998.18 206.670   3
   4   9  10 6370.54 240.868  20
   4   9  10 5873.15 211.524   8
   4  10  -3 2138.43 131.061  10
   4  10  -3 3206.43 124.934   3
   4  10  -2 2881.83 173.338  10
   4  10  -2 2153.11 154.715  50
   4  10  -1 2025.09 164.576  12
   4  10  -1 1626.44 149.032  10
   4  10  -1 2461.90 145.917   3
   4  10  -1 1237.62 134.784  50
   4  10   0 470.442 94.1291  12
   4  10   0 389.866 89.2576  21
   4  10   0 567.384 77.3125   3
   4  10   0 263.407 87.2281  50
   4  10   1 1706.71 179.385  21
   4  10   1 1804.03 139.304   3
   4  10   1 1430.73 134.909   8
   4  10   1 1336.57 160.651  50
   4  10   2 4620.07 272.875  12
   4  10   2 4417.69 284.949  21
   4  10   2 5166.24 242.748   3
   4  10   2 4544.11 237.908   8
   4  10   3 281.770 73.7955   8
   4  10   3 267.712 66.7513   3
   4  10   3 389.557 87.9413  12
   4  10   3 299.131 87.5991  21
   4  10   3 345.753 91.0002  50
   4  10   4 3594.35 234.777  12
   4  10   4 3658.76 257.319  21
   4  10   4 3570.26 211.060   3
   4  10   4 3415.38 221.684   8
   4  10   4 2953.81 239.597  50
   4  10   5 1792.16 158.823  12
   4  10   5 1776.88 180.586  21
   4  10   5 1790.37 147.251   3
   4  10   5 1873.97 158.848   8
   4  10   5 1596.99 173.552  50
   4  10   6 10907.6 408.373  21
   4  10   6 12058.7 356.201   3
   4  10   6 11749.4 386.667   8
   4  10   7 2408.25 183.864  21
   4  10   7 2720.87 171.020   3
   4  10   7 2458.75 203.192  50
   4  10   8 2449.59 170.888  21
   4  10   8 2882.05 162.385   3
   4  10   8 2993.55 179.405   8
   4  10   8 2433.05 182.383  50
   4  10   9 1129.22 92.4922   3
   4  10   9 1169.28 101.425   8
   4  10   9 854.420 101.159  50
   4  10  10 1796.29 96.8193   3
   4  11   0 1345.62 119.916  12
   4  11   0 891.770 102.442  50
   4  11   1 2627.44 169.773  12
   4  11   1 2541.80 186.804  21
   4  11   1 2098.24 161.898  50
   4  11   2 2650.20 199.132  21
   4  11   2 2445.81 184.043  50
   4  11   3 1336.81 146.856  21
   4  11   3 1375.25 113.611   8
   4  11   3 1220.51 134.877  50
   4  11   4 2802.16 204.600  21
   4  11   4 2477.06 157.333   8
   4  11   4 2354.94 185.097  50
   4  11   5 2630.35 167.721  12
   4  11   5 2470.55 187.210  21
   4  11   5 2747.41 162.473   8
   4  11   6 3327.08 170.719  12
   4  11   6 2964.53 197.078  21
   4  11   6 3150.36 172.971   8
   4  11   7 1064.02 110.959  21
   4  11   7 1082.75 102.946   8
   4  11   7 1265.47 127.669  50
   4  11   8 488.038 70.3277  21
   4  11   8 348.881 57.2601   8
   4  11   8 321.386 62.2740  50
   4  12   2 1093.27 71.6822   3
   4  12   3 1922.30 123.296  12
   4  12   3 1841.49 131.698  21
   4  12   3 1908.35 97.5371   3
   4  12   4 5205.58 198.447  12
   4  12   4 3926.51 189.858  21
   4  12   4 5098.64 162.279   3
   4  12   4 3337.69 177.685  50
   4  12   5 4226.73 167.854  12
   4  12   5 3932.35 187.010  21
   4  12   5 4253.20 148.719   3
   4  12   6 292.224 53.6557  21
   4  12   6 384.333 46.2384   3
   5  -7  -6 5466.61 224.903  13
   5  -7  -6 5870.65 198.338  10
   5  -7  -5 1695.65 125.932   4
   5  -7  -5 1505.48 135.556  13
   5  -7  -5 1549.37 105.659  10
   5  -7  -5 1797.65 124.515  17
   5  -7  -4 5622.89 231.196   4
   5  -7  -4 5203.75 256.858  13
   5  -7  -4 4921.93 196.612  10
   5  -7  -4 5713.85 229.623  17
   5  -7  -3 4734.37 213.930   4
   5  -7  -3 4331.33 204.090  17
   5  -7  -2 3677.13 188.261   4
   5  -7  -2 3236.18 200.019  13
   5  -7  -1 7392.06 261.834   4
   5  -7  -1 6883.74 276.650  13
   5  -7   0 1669.88 128.709  13
   5  -7   0 1811.51 124.678  17
   5  -6  -7 1380.20 117.467   4
   5  -6  -7 1340.21 111.216  13
   5  -6  -7 1665.19 113.838  10
   5  -6  -6 2683.25 176.657   4
   5  -6  -6 2570.84 185.378  13
   5  -6  -6 2687.14 167.782  10
   5  -6  -6 3077.38 179.793  17
   5  -6  -5 1568.86 141.266   4
   5  -6  -5 1522.42 156.133  13
   5  -6  -5 1483.58 129.392  10
   5  -6  -5 1816.74 149.127  17
   5  -6  -4 3572.67 221.394   4
   5  -6  -4 3219.35 228.375  13
   5  -6  -4 3035.55 184.383  10
   5  -6  -4 3176.92 201.115  17
   5  -6  -3 1511.59 149.869   4
   5  -6  -3 1448.01 161.607  13
   5  -6  -3 1189.20 120.384  10
   5  -6  -2 1996.17 167.542   4
   5  -6  -2 1943.38 162.706  17
   5  -6  -1 7371.70 349.260  13
   5  -6  -1 7049.11 296.750  17
   5  -6   0 308.077 70.9922   4
   5  -6   0 214.598 71.3473  13
   5  -6   0 306.020 71.8870  17
   5  -6   1 1966.05 153.969   4
   5  -6   1 1827.33 154.286  13
   5  -6   1 1624.67 133.469  17
   5  -6   2 3116.65 183.381  13
   5  -6   2 2891.46 154.409  11
   5  -6   3 3773.57 171.737   4
   5  -5  -8 713.151 90.9931   4
   5  -5  -8 943.101 89.0792  10
   5  -5  -8 1031.43 98.2589  17
   5  -5  -7 6823.98 282.196   4
   5  -5  -7 7451.81 282.956  17
   5  -5  -6 5866.19 286.313   4
   5  -5  -6 5317.90 276.100  13
   5  -5  -6 5620.17 263.517  10
   5  -5  -6 5900.06 276.487  17
   5  -5  -5 2924.93 216.217   4
   5  -5  -5 2555.67 212.934  13
   5  -5  -5 2867.36 194.464  10
   5  -5  -4 7675.97 349.712   4
   5  -5  -4 8145.36 384.634  13
   5  -5  -4 7493.97 317.699  10
   5  -5  -3 2482.66 228.652  13
   5  -5  -3 2230.60 172.417  10
   5  -5  -3 2643.87 204.846  17
   5  -5  -2 23929.1 688.126  13
   5  -5  -2 23340.3 600.547  17
   5  -5  -1 961.347 148.195  13
   5  -5  -1 1015.40 126.064  17
   5  -5   0 1965.10 171.840  17
   5  -5   1 3932.89 267.830  13
   5  -5   1 3803.90 226.329  17
   5  -5   2 11729.6 395.148   4
   5  -5   2 12112.9 439.057  13
   5  -5   2 11192.4 371.282  11
   5  -5   3 6326.55 276.486   4
   5  -5   3 6340.62 283.917  13
   5  -5   3 5806.90 262.162  11
   5  -5   4 2158.70 147.916   4
   5  -5   4 2294.02 149.433  11
   5  -4  -9 992.190 89.2513   4
   5  -4  -9 1271.93 96.7191  17
   5  -4  -8 545.682 85.9478   4
   5  -4  -8 802.016 90.6657  10
   5  -4  -8 832.851 98.8268  17
   5  -4  -7 4024.33 238.534   4
   5  -4  -7 5192.18 260.859  17
   5  -4  -6 108.866 55.1991   4
   5  -4  -6 112.308 57.0098  10
   5  -4  -5 4313.69 278.204   4
   5  -4  -5 4497.01 286.158  13
   5  -4  -5 4682.22 260.201  10
   5  -4  -5 4598.68 276.294  17
   5  -4  -4 11564.7 452.222   4
   5  -4  -4 10898.8 466.141  13
   5  -4  -4 11208.6 411.865  10
   5  -4  -4 11499.3 447.378  17
   5  -4  -3 27202.6 698.275   4
   5  -4  -3 26255.8 739.556  13
   5  -4  -3 25173.6 616.534  10
   5  -4  -3 25963.9 670.262  17
   5  -4  -2 13631.6 493.284   4
   5  -4  -2 13029.3 532.182  13
   5  -4  -2 12478.9 472.190  17
   5  -4  -1 11535.1 450.108   4
   5  -4  -1 11159.4 493.785  13
   5  -4  -1 10191.6 417.064  17
   5  -4   0 630.735 124.456   4
   5  -4   0 427.693 110.241  13
   5  -4   0 408.371 89.5959  17
   5  -4   1 17262.9 516.388  11
   5  -4   1 16723.4 516.493  17
   5  -4   2 2142.87 193.758   4
   5  -4   2 2412.89 222.673  13
   5  -4   2 2045.42 183.758  11
   5  -4   2 2122.29 167.301  17
   5  -4   3 7136.08 326.507  11
   5  -4   3 6555.96 281.105  17
   5  -4   4 11940.3 399.227   4
   5  -4   4 11518.2 390.437  11
   5  -4   5 8754.44 302.182  11
   5  -3  -9 554.726 74.8367   4
   5  -3  -9 764.450 77.7952  10
   5  -3  -9 795.029 87.1489  17
   5  -3  -8 2061.21 158.644   4
   5  -3  -8 2327.65 159.510  10
   5  -3  -8 2412.16 174.484  17
   5  -3  -7 4884.15 270.702   4
   5  -3  -6 235.282 78.4091   4
   5  -3  -6 276.305 74.3806  10
   5  -3  -6 218.201 71.5922  17
   5  -3  -5 964.885 137.518   4
   5  -3  -5 936.210 127.966  10
   5  -3  -5 896.537 133.558  17
   5  -3  -4 2194.90 207.828   4
   5  -3  -4 2185.42 218.488  13
   5  -3  -4 2229.20 190.689  10
   5  -3  -4 2215.09 209.161  17
   5  -3  -3 6298.17 356.257   4
   5  -3  -3 6593.65 377.698  13
   5  -3  -3 5953.45 309.110  10
   5  -3  -3 6626.21 347.780  17
   5  -3  -2 9815.65 435.579   4
   5  -3  -2 9719.48 463.666  13
   5  -3  -2 9329.53 379.633  10
   5  -3  -2 9303.49 418.762  17
   5  -3  -1 5820.10 337.638   4
   5  -3  -1 5435.60 367.365  13
   5  -3  -1 5725.33 317.835  17
   5  -3   0 15886.7 545.944   4
   5  -3   0 14982.0 587.232  13
   5  -3   0 14035.6 488.036  17
   5  -3   1 5653.94 324.855   4
   5  -3   1 5739.80 359.783  13
   5  -3   1 5418.31 308.094  11
   5  -3   1 5626.97 301.085  17
   5  -3   2 178.857 78.4997   4
   5  -3   2 148.276 95.5094  13
   5  -3   2 150.691 67.8124  11
   5  -3   2 94.9376 55.4631  17
   5  -3   3 115.290 65.6688   4
   5  -3   3 106.117 77.6358  11
   5  -3   3 80.2179 56.1151  17
   5  -3   4 20123.6 567.028   4
   5  -3   4 19121.0 591.502  13
   5  -3   5 2557.21 191.673   4
   5  -3   5 2301.50 181.612  11
   5  -3   6 1152.99 123.194   4
   5  -2  -9 1793.34 122.905   4
   5  -2  -9 2416.12 139.474  10
   5  -2  -8 5011.60 239.441  10
   5  -2  -8 4825.89 195.153   8
   5  -2  -7 2968.06 228.355  17
   5  -2  -7 3011.96 172.297   8
   5  -2  -7 2723.29 213.486   4
   5  -2  -6 2008.71 179.807  10
   5  -2  -6 1750.81 183.184  17
   5  -2  -6 1403.17 161.480   4
   5  -2  -5 2992.46 243.431   4
   5  -2  -5 3180.95 234.224  10
   5  -2  -5 3247.20 246.298  17
   5  -2  -4 3910.60 273.147   4
   5  -2  -4 3920.35 259.436  10
   5  -2  -4 3792.72 273.873  17
   5  -2  -3 2369.31 213.906   4
   5  -2  -3 2565.14 236.002  13
   5  -2  -3 2436.19 201.619  10
   5  -2  -3 2385.26 217.225  17
   5  -2  -2 5375.67 325.621   4
   5  -2  -2 5439.60 349.173  13
   5  -2  -2 4922.77 280.217  10
   5  -2  -2 5408.83 317.694  17
   5  -2  -1 4564.87 295.489   4
   5  -2  -1 4846.26 332.110  13
   5  -2  -1 4478.98 289.315  17
   5  -2   0 4599.91 297.747   4
   5  -2   0 4817.61 333.260  13
   5  -2   0 4285.53 272.489  17
   5  -2   1 2681.67 226.515   4
   5  -2   1 2998.47 270.538  13
   5  -2   1 2824.01 231.499  11
   5  -2   1 2548.58 205.362  17
   5  -2   2 11779.7 461.647   4
   5  -2   2 11667.8 516.267  13
   5  -2   2 10857.4 460.968  11
   5  -2   3 19542.1 592.348   4
   5  -2   3 19518.8 660.662  13
   5  -2   3 18816.8 603.298  11
   5  -2   4 2780.13 220.599   4
   5  -2   4 2443.71 214.550  11
   5  -2   5 3882.91 246.092   4
   5  -2   5 3025.79 229.517  11
   5  -2   6 5834.22 284.992   4
   5  -2   6 6164.53 254.803   6
   5  -2   7 11917.1 305.375   6
   5  -2   7 12793.0 361.614  11
   5  -1  -9 1373.74 106.483  10
   5  -1  -9 1340.04 116.918  17
   5  -1  -9 1373.26 97.2660   8
   5  -1  -8 1126.66 117.304  10
   5  -1  -8 904.858 118.612  17
   5  -1  -8 1116.71 102.660   8
   5  -1  -7 160.150 48.0731   8
   5  -1  -7 67.6922 41.2510   4
   5  -1  -7 166.521 74.1048  17
   5  -1  -6 11486.9 463.034  17
   5  -1  -6 10917.5 355.367   8
   5  -1  -6 10561.4 407.955   4
   5  -1  -5 31052.3 726.520  10
   5  -1  -5 30266.9 757.332  17
   5  -1  -5 26186.1 564.462   8
   5  -1  -5 27765.8 685.148   4
   5  -1  -4 1968.43 197.397   4
   5  -1  -4 2100.50 192.409  10
   5  -1  -4 1849.40 193.203  17
   5  -1  -3 2857.36 233.555   4
   5  -1  -3 2625.25 211.307  10
   5  -1  -3 2702.54 229.536  17
   5  -1  -2 10646.8 440.442   4
   5  -1  -2 10218.0 408.615  10
   5  -1  -2 10035.4 435.621  17
   5  -1  -1 14524.3 509.643   4
   5  -1  -1 14768.4 562.637  13
   5  -1  -1 13462.8 486.651  17
   5  -1   0 8597.46 394.453   4
   5  -1   0 8913.48 445.290  13
   5  -1   0 8142.63 367.808  17
   5  -1   1 10500.2 433.905   4
   5  -1   1 10661.1 495.773  13
   5  -1   1 10599.7 445.309  11
   5  -1   2 7223.84 363.066   4
   5  -1   2 7427.32 413.297  13
   5  -1   2 6901.85 370.714  11
   5  -1   3 3788.55 263.007   4
   5  -1   3 3920.92 301.995  13
   5  -1   3 3870.02 282.268  11
   5  -1   4 3053.98 248.563   4
   5  -1   4 3255.30 280.297  13
   5  -1   4 2968.46 216.391   6
   5  -1   4 3114.91 250.750  11
   5  -1   5 5994.23 326.848   4
   5  -1   5 6104.30 307.185   6
   5  -1   5 6252.53 341.911  11
   5  -1   6 4542.33 268.487   4
   5  -1   6 4634.51 266.105   6
   5  -1   7 11526.9 383.861  11
   5  -1   8 9929.37 280.057   6
   5  -1   8 9582.16 284.405  11
   5   0  -9 61.3969 29.3072   8
   5   0  -9 42.7281 32.8090  10
   5   0  -9 86.1532 38.0414  17
   5   0  -8 2284.37 170.708  10
   5   0  -8 2144.67 171.082  17
   5   0  -8 2364.38 152.111   8
   5   0  -7 1812.17 187.244  17
   5   0  -7 1850.03 154.422   8
   5   0  -6 4419.92 274.948  10
   5   0  -6 4035.93 274.331  17
   5   0  -6 3906.11 223.813   8
   5   0  -5 1381.41 165.639  10
   5   0  -5 1650.95 176.077  17
   5   0  -5 1379.71 140.589   8
   5   0  -4 2140.85 202.733  10
   5   0  -4 1957.09 199.346  17
   5   0  -4 1875.11 161.157   8
   5   0  -3 1579.47 169.479  10
   5   0  -3 1313.78 172.503  17
   5   0  -2 21064.5 582.914  10
   5   0  -2 20569.1 602.879  17
   5   0   0 17523.4 608.888  13
   5   0   1 10128.1 411.040   4
   5   0   1 10417.4 467.871  13
   5   0   1 9957.28 430.747  11
   5   0   2 12075.9 450.887   4
   5   0   2 12940.6 534.707  13
   5   0   2 11873.8 483.989  11
   5   0   3 4900.17 291.977   4
   5   0   3 4898.18 348.545  13
   5   0   3 4739.49 282.772   6
   5   0   3 4568.41 307.971  11
   5   0   4 14328.6 520.004   4
   5   0   4 15666.8 610.423  13
   5   0   4 15375.6 519.322   6
   5   0   4 15647.5 568.347  11
   5   0   5 1025.83 145.903   4
   5   0   5 1103.66 138.316   6
   5   0   5 1373.06 170.772  11
   5   0   6 9265.30 387.401   4
   5   0   6 10014.3 397.468   6
   5   0   7 1423.87 145.595   6
   5   0   7 1493.19 151.909  11
   5   0   8 2012.74 148.463   6
   5   0   8 1959.17 148.023  11
   5   0   9 5398.17 189.770   6
   5   1  -9 26.4539 26.5340   8
   5   1  -9 40.4587 28.4713  10
   5   1  -9-14.3464 25.9441  17
   5   1  -8 2186.03 157.745  10
   5   1  -8 1873.07 154.108  17
   5   1  -8 2040.52 142.394   8
   5   1  -7 1938.30 179.133  17
   5   1  -7 2095.66 161.895   8
   5   1  -6 1653.62 166.132  10
   5   1  -6 1286.50 165.345  17
   5   1  -6 1549.60 157.113   8
   5   1  -5 1634.17 179.010  10
   5   1  -5 1350.31 168.010  17
   5   1  -5 1463.40 147.152   8
   5   1  -4 1781.64 185.923  10
   5   1  -4 1550.79 182.691  17
   5   1  -4 1700.51 163.732   8
   5   1  -3 4651.87 284.326  10
   5   1  -3 4230.36 280.425  17
   5   1  -3 4210.22 246.677   8
   5   1  -2 2713.99 214.111  10
   5   1  -2 2464.75 189.288   8
   5   1   1 25011.2 684.626  11
   5   1   2 5417.98 337.969  13
   5   1   2 5824.16 313.132   6
   5   1   2 5319.84 327.969  11
   5   1   3 55388.5 1114.22  13
   5   1   3 53014.9 970.833   6
   5   1   3 52688.2 1035.79  11
   5   1   4 1436.19 191.295  13
   5   1   4 1407.27 168.350   6
   5   1   4 1530.57 185.621  11
   5   1   5 9312.59 414.132   6
   5   1   5 8877.39 425.077  11
   5   1   6 19197.8 573.152   6
   5   1   7 6698.02 317.051   6
   5   1   7 6599.76 324.653  11
   5   1   8 4730.06 241.808   6
   5   1   8 4304.25 231.894  11
   5   1   9 4650.67 201.601   6
   5   1   9 3869.38 174.276  11
   5   2  -8 3320.15 187.161  10
   5   2  -8 2617.45 171.748  17
   5   2  -7 4642.13 259.011  17
   5   2  -7 5726.58 252.801   8
   5   2  -6 6948.39 330.060  10
   5   2  -6 7018.20 302.894   8
   5   2  -5 4396.33 279.834  10
   5   2  -5 3733.73 261.125  17
   5   2  -5 4032.70 246.626   8
   5   2  -4 7815.38 376.774  10
   5   2  -4 7085.53 352.462  17
   5   2  -4 7905.28 339.698   8
   5   2  -3 11383.5 465.623  10
   5   2  -3 11704.0 417.987   8
   5   2  -2 8026.04 370.766  10
   5   2  -2 7734.71 420.345  20
   5   2  -2 8235.81 348.252   8
   5   2  -1 323.271 74.7286   8
   5   2  -1 405.221 106.475  20
   5   2   0 37827.3 890.892  20
   5   2   1 6632.08 334.947   6
   5   2   1 7021.77 359.930  11
   5   2   1 6500.90 366.304  20
   5   2   2 2460.38 214.450   6
   5   2   2 2458.12 225.531  11
   5   2   2 2615.19 229.230  20
   5   2   3 28421.6 784.133  13
   5   2   3 29159.2 723.838   6
   5   2   3 28962.5 774.576  11
   5   2   3 26415.1 716.819  20
   5   2   4 31897.2 767.936   6
   5   2   4 31574.7 806.680  11
   5   2   4 29603.9 747.982  20
   5   2   5 26285.9 695.858   6
   5   2   5 26501.8 735.732  11
   5   2   6 2833.26 228.600   6
   5   2   6 2450.59 226.708  11
   5   2   7 3143.55 228.169   6
   5   2   7 2889.31 225.082  11
   5   2   8 6456.03 293.425   6
   5   2   8 6378.20 293.941  11
   5   2   9 10887.3 318.472  11
   5   3  -8 3220.04 163.293  10
   5   3  -8 3228.99 142.517   8
   5   3  -7 346.214 64.8620   8
   5   3  -7 217.714 64.1933  17
   5   3  -6 574.468 101.915  10
   5   3  -6 435.342 88.4714  17
   5   3  -5 2566.89 223.965  10
   5   3  -5 2324.11 192.013  17
   5   3  -5 3004.52 206.307   8
   5   3  -4 13193.5 490.214  10
   5   3  -4 14557.7 465.011   8
   5   3  -3 9818.57 421.581  10
   5   3  -3 10173.7 390.929   8
   5   3  -2 8749.01 391.921  10
   5   3  -2 9177.62 450.769  20
   5   3  -2 9192.30 372.698   8
   5   3  -1 1321.99 156.718   6
   5   3  -1 1424.73 186.849  20
   5   3  -1 1222.00 140.531   8
   5   3   0 4724.76 283.586   6
   5   3   0 4076.63 308.411  20
   5   3   0 4105.54 245.758   8
   5   3   1 1298.95 158.705   6
   5   3   1 1213.65 154.181  11
   5   3   1 1134.95 159.182  20
   5   3   1 1155.84 136.340   8
   5   3   2 6870.32 350.459   6
   5   3   2 6936.16 377.670  11
   5   3   2 6977.08 385.710  20
   5   3   3 27764.9 710.349   6
   5   3   3 26556.2 744.360  11
   5   3   3 25793.1 740.872  20
   5   3   4 2907.17 246.345   6
   5   3   4 3154.53 261.187  11
   5   3   4 3191.56 262.161  20
   5   3   5 170.673 74.4664   6
   5   3   5 173.951 91.2602  11
   5   3   5 162.593 72.6875  20
   5   3   6 12385.1 467.706   6
   5   3   6 11715.4 484.280  11
   5   3   6 11071.3 462.840  20
   5   3   7 1147.78 155.071  11
   5   3   7 993.897 136.684  20
   5   3   8 14165.3 449.192  11
   5   3   8 11449.5 399.196  20
   5   3   9 3413.87 192.472   6
   5   3   9 2367.16 156.932  20
   5   3  10 2930.97 140.914   6
   5   4  -7 1012.84 91.7716   8
   5   4  -6 2386.94 184.144  10
   5   4  -6 2946.06 178.365   8
   5   4  -5 2315.21 202.601  10
   5   4  -4 3832.41 265.695  10
   5   4  -4 4300.28 252.256   8
   5   4  -3 3892.50 274.316  10
   5   4  -3 4736.48 267.579   8
   5   4  -2 4166.45 273.005  10
   5   4  -2 4392.98 339.352  20
   5   4  -2 5049.34 279.774   8
   5   4  -1 3271.83 241.570   6
   5   4  -1 3774.27 304.258  20
   5   4  -1 3256.89 228.449   8
   5   4   0 2686.99 224.047   6
   5   4   0 2936.19 270.922  20
   5   4   0 2691.24 209.666   8
   5   4   1 10623.8 432.768   6
   5   4   1 10033.5 478.898  20
   5   4   1 9094.32 377.594   8
   5   4   2 4960.13 300.368   6
   5   4   2 4753.09 330.842  20
   5   4   2 4303.41 254.935   8
   5   4   3 3445.00 263.227   6
   5   4   3 3627.53 281.833  11
   5   4   3 3341.30 275.130  20
   5   4   3 3313.40 218.517   8
   5   4   4 25546.6 696.411   6
   5   4   4 25832.8 736.778  11
   5   4   4 25479.2 748.494  20
   5   4   5 2294.12 211.529   6
   5   4   5 1941.01 215.288  11
   5   4   5 1886.86 207.992  20
   5   4   6 19114.7 616.337  11
   5   4   6 17776.8 601.319  20
   5   4   7 4367.69 266.256   6
   5   4   7 3813.78 265.914  11
   5   4   7 3669.13 267.154  20
   5   4   8 14995.3 457.207   6
   5   4   8 13443.0 456.587  20
   5   4   9 5435.75 243.218   6
   5   4   9 4283.79 228.033  20
   5   4  10 19.3819 23.5012   6
   5   5  -6 91.5502 37.5454   8
   5   5  -6 78.5188 43.3279  10
   5   5  -5 7379.01 330.169  10
   5   5  -5 9054.00 314.420   8
   5   5  -4 1585.22 168.964  10
   5   5  -4 1932.52 170.509   8
   5   5  -3 2871.31 233.237  10
   5   5  -2 32.9625 49.9856   8
   5   5  -2 2.01784 44.9139  10
   5   5  -1 13374.2 566.073  20
   5   5  -1 12476.1 445.225   8
   5   5   0 25591.3 681.165   6
   5   5   0 24114.4 754.707  20
   5   5   0 23686.3 617.097   8
   5   5   1 160.910 71.0374   8
   5   5   1 178.621 75.2359   6
   5   5   1 294.557 101.078  20
   5   5   2 685.800 130.331   6
   5   5   2 611.788 139.981  20
   5   5   2 739.171 115.606   8
   5   5   3 9084.20 421.089   6
   5   5   3 8481.80 369.337   8
   5   5   4 21478.9 631.025   6
   5   5   4 21163.6 687.153  20
   5   5   5 6901.96 392.940  20
   5   5   5 5940.60 285.417   8
   5   5   6 2747.94 226.974   6
   5   5   6 2597.80 236.308  20
   5   5   7 11478.2 426.751   6
   5   5   7 10996.2 456.431  20
   5   5   8 6639.12 298.371   6
   5   5   8 6525.93 321.564  20
   5   5   9 830.853 98.5347   6
   5   5   9 619.985 94.7947  20
   5   5  10 5002.10 181.113   6
   5   5  10 4512.76 197.961  20
   5   6  -6 1255.33 110.617  10
   5   6  -5 1868.50 151.481  10
   5   6  -5 2150.53 133.081   8
   5   6  -4 552.434 100.231  10
   5   6  -4 953.349 105.758   8
   5   6  -3 1230.40 146.841  10
   5   6  -3 1697.12 157.918   8
   5   6  -2 338.078 90.7296  10
   5   6  -2 582.325 99.9250   8
   5   6  -1 7514.86 425.767  20
   5   6   0 334.757 88.0599   8
   5   6   0 356.781 104.053   6
   5   6   0 340.031 114.780  20
   5   6   1 6803.53 373.356   6
   5   6   1 7198.30 415.928  20
   5   6   1 6679.64 334.520   8
   5   6   2 545.770 107.211  12
   5   6   2 767.213 131.240   6
   5   6   2 935.660 167.361  20
   5   6   2 840.159 127.403   8
   5   6   3 7598.76 375.534   6
   5   6   3 7582.03 424.779  20
   5   6   3 6634.70 335.154   8
   5   6   4 460.616 118.172  20
   5   6   4 529.520 96.5363   8
   5   6   5 3679.96 257.212   6
   5   6   5 3466.79 274.920  20
   5   6   5 2835.89 203.532   8
   5   6   6 4161.20 261.735   6
   5   6   6 3871.62 288.167  20
   5   6   6 3210.06 207.666   8
   5   6   7 6576.17 314.689   6
   5   6   7 6212.19 336.756  20
   5   6   8 525.309 86.8187   6
   5   6   8 560.764 99.5227  20
   5   6   9 42.6768 36.0330   6
   5   6   9 93.9447 53.2770  20
   5   6  10 1385.44 110.293  20
   5   7  -5 1070.86 97.8535  10
   5   7  -4 567.044 88.8608  10
   5   7  -4 663.874 74.9120   8
   5   7  -3 38.0675 37.6699  10
   5   7  -2 3150.86 156.999   3
   5   7  -2 3217.27 202.063   8
   5   7  -1 6727.66 248.812   3
   5   7  -1 7376.89 319.725   8
   5   7   0 3296.98 289.385  20
   5   7   0 2909.82 171.966   3
   5   7   1 5880.59 320.596  12
   5   7   1 7428.27 366.779   6
   5   7   1 6854.49 404.203  20
   5   7   1 6599.96 266.192   3
   5   7   1 6794.71 324.562   8
   5   7   2 5178.88 353.248  20
   5   7   2 5032.37 236.025   3
   5   7   2 5066.55 287.793   8
   5   7   3 4900.08 340.251  20
   5   7   3 4240.56 219.426   3
   5   7   3 4863.25 271.990   8
   5   7   4 2447.00 218.881   6
   5   7   4 2460.90 237.943  20
   5   7   4 2281.92 158.866   3
   5   7   4 2725.09 201.406   8
   5   7   5 2320.26 197.728   6
   5   7   5 2175.50 152.885   3
   5   7   5 2131.27 182.703   8
   5   7   6 1101.22 140.166   6
   5   7   6 1100.37 107.061   3
   5   7   6 1016.03 120.870   8
   5   7   7 1722.56 152.970   6
   5   7   7 1348.53 126.458   8
   5   7   8 81.3660 40.0767   6
   5   7   9 1527.48 108.872   6
   5   8  -3 3440.37 174.241  10
   5   8  -3 3380.15 153.515   8
   5   8  -2 7944.66 229.749   3
   5   8  -2 7361.86 259.947   8
   5   8  -1 2888.00 151.783   3
   5   8  -1 2820.94 178.214   8
   5   8   0 2420.08 150.413   3
   5   8   0 2578.42 179.271   8
   5   8   1 6227.31 321.887  12
   5   8   1 5368.83 294.891  21
   5   8   1 6399.15 360.079  20
   5   8   1 6875.23 259.226   3
   5   8   1 7453.86 321.134   8
   5   8   2 4257.52 255.994  12
   5   8   2 4789.17 319.117  20
   5   8   2 4738.09 218.158   3
   5   8   3 1654.14 154.530  12
   5   8   3 2041.81 194.926   6
   5   8   3 2103.79 213.176  20
   5   8   3 1987.02 146.318   3
   5   8   3 2182.84 181.676   8
   5   8   4 2221.13 193.343   6
   5   8   4 2520.69 228.733  20
   5   8   4 2132.49 149.971   3
   5   8   4 2325.44 182.473   8
   5   8   5 2562.04 195.175   6
   5   8   5 2723.99 226.205  20
   5   8   5 2362.35 155.127   3
   5   8   5 2604.18 188.351   8
   5   8   6 11010.9 374.138   6
   5   8   6 11067.5 431.033  20
   5   8   6 10195.2 305.201   3
   5   8   6 10129.0 346.747   8
   5   8   7 4835.99 225.761   6
   5   8   7 5185.90 281.522  20
   5   8   7 4757.53 196.133   3
   5   8   7 4798.98 225.116   8
   5   8   8 340.542 57.2475   6
   5   8   8 318.063 49.5687   3
   5   8   8 374.447 78.1492  20
   5   8   8 389.164 62.4281   8
   5   8   9 3307.19 175.624  20
   5   9  -2 74.5197 24.6742   3
   5   9  -1 633.721 64.5084   3
   5   9  -1 479.589 64.1016   8
   5   9   0 5013.69 188.678   3
   5   9   0 4379.94 200.133   8
   5   9   1 2137.56 132.430   3
   5   9   1 2127.01 150.325   8
   5   9   2 235.829 63.1869   8
   5   9   2 162.011 43.9544   3
   5   9   2 127.689 56.9836  12
   5   9   2 162.001 56.9600  21
   5   9   2 219.357 70.1467  20
   5   9   3 3374.33 208.001  12
   5   9   3 3671.97 254.760  20
   5   9   3 3534.35 178.512   3
   5   9   3 3245.73 197.904   8
   5   9   4 4559.27 272.478  20
   5   9   4 4831.66 205.867   3
   5   9   5 1472.20 153.603  20
   5   9   5 1519.16 116.775   3
   5   9   5 1432.93 132.433   8
   5   9   6 2288.41 156.873   6
   5   9   6 2566.61 191.239  20
   5   9   6 2494.51 138.913   3
   5   9   6 2661.64 168.421   8
   5   9   7 773.483 99.5785  20
   5   9   7 657.710 68.9363   3
   5   9   7 722.744 83.7102   8
   5   9   8 754.971 86.0170  20
   5   9   8 766.663 64.2089   3
   5   9   8 751.733 71.0612   8
   5  10   0 2081.57 99.9306   3
   5  10   1 539.667 59.6301   3
   5  10   1 370.738 53.0039   8
   5  10   2 311.076 53.3573   8
   5  10   2 305.562 48.2510   3
   5  10   3 975.022 82.8696   3
   5  10   3 909.808 94.1964   8
   5  10   4 156.840 48.8585   8
   5  10   4 195.692 42.2305   3
   5  10   4 89.8862 43.7194  20
   5  10   5 1762.03 137.434  20
   5  10   5 2084.09 116.388   3
   5  10   6 553.142 73.9693  20
   5  10   6 733.732 69.0362   3
   5  10   6 733.232 78.7144   8
   5  10   7 5095.70 177.611   8
   6  -4  -5 3162.95 145.445  17
   6  -4  -4 324.906 56.3299   4
   6  -4  -4 388.627 61.4310  17
   6  -4  -3 458.786 67.6314  13
   6  -4  -3 658.449 78.3878  17
   6  -4  -2 11158.6 343.239  13
   6  -4  -2 10973.9 301.225  17
   6  -4  -1 2107.83 154.450  13
   6  -4  -1 1962.43 124.040  17
   6  -4   0 3425.62 176.294   4
   6  -4   0 3170.29 187.486  13
   6  -4   1 311.286 60.9323   4
   6  -4   1 332.755 67.6297  13
   6  -3  -6 2402.50 128.228  17
   6  -3  -5 354.484 60.0029   4
   6  -3  -5 326.783 52.9066  10
   6  -3  -4 1627.21 128.511   4
   6  -3  -4 1857.29 133.443  17
   6  -3  -3 6348.48 260.875   4
   6  -3  -3 6549.75 255.411  17
   6  -3  -2 12128.8 366.291   4
   6  -3  -2 11860.0 378.196  13
   6  -3  -2 11331.1 336.970  17
   6  -3  -1 3428.66 196.329   4
   6  -3  -1 3122.88 205.007  13
   6  -3   0 7974.95 293.980   4
   6  -3   0 7549.68 316.468  13
   6  -3   1 866.693 101.234   4
   6  -3   1 1101.82 122.663  13
   6  -3   2 1610.75 128.200   4
   6  -3   2 1654.15 143.589  13
   6  -3   3 6382.64 229.648   4
   6  -2  -6 1825.93 116.386  10
   6  -2  -6 1957.54 127.403  17
   6  -2  -5 1597.85 116.654  10
   6  -2  -5 1833.36 136.573  17
   6  -2  -4 4114.67 204.678   4
   6  -2  -4 3888.16 189.516  10
   6  -2  -4 4420.39 219.261  17
   6  -2  -3 8687.27 311.685   4
   6  -2  -3 9080.85 319.856  17
   6  -2  -2 5459.68 258.091   4
   6  -2  -2 5116.95 237.920  17
   6  -2  -1 496.895 86.0684   4
   6  -2  -1 449.162 92.2538  13
   6  -2  -1 500.085 79.2936  17
   6  -2   0 3403.25 205.021   4
   6  -2   0 3510.16 232.025  13
   6  -2   1 5496.39 253.254   4
   6  -2   1 5637.40 285.514  13
   6  -2   2 15080.6 401.773   4
   6  -2   2 14294.8 446.754  13
   6  -2   3 5232.15 226.206   4
   6  -2   3 4116.42 197.165  11
   6  -2   4 1200.59 99.4177   4
   6  -2   4 1199.97 99.4344  11
   6  -1  -6 1284.76 102.368  10
   6  -1  -6 1127.42 99.6087  17
   6  -1  -5 140.353 44.4071  10
   6  -1  -5 187.196 55.1992  17
   6  -1  -4 5354.31 233.824  10
   6  -1  -4 5447.34 249.750  17
   6  -1  -3 10195.7 324.201  10
   6  -1  -3 10478.8 353.160  17
   6  -1   0 242.514 67.1668   4
   6  -1   0 240.318 82.8852  13
   6  -1   1 8664.55 322.718   4
   6  -1   1 9328.87 379.295  13
   6  -1   2 5894.59 262.606   4
   6  -1   2 5976.35 306.210  13
   6  -1   3 639.438 89.9641   4
   6  -1   3 573.265 87.4164  11
   6  -1   4 1801.70 128.600   4
   6  -1   4 1757.78 141.415  11
   6  -1   5 874.805 92.2773  11
   6   0  -6 168.156 42.0858  10
   6   0  -6 194.139 47.2600  17
   6   0  -5 751.754 89.8927  10
   6   0  -5 675.464 88.2813  17
   6   0  -4 2738.81 172.416  10
   6   0  -4 2734.91 174.172  17
   6   0  -3-4.02008 33.3180  10
   6   0   2 345.768 81.4372  11
   6   0   3 5290.67 267.570  11
   6   0   4 4043.38 224.988  11
   6   0   5 11163.8 345.741  11
   6   0   6 10051.6 287.955  11
   6   1  -6 559.303 69.8700  10
   6   1  -6 337.380 46.5664   8
   6   1  -5 3013.72 173.232  10
   6   1  -5 2303.33 127.821   8
   6   1  -4 4854.71 230.414  10
   6   1  -3 90.1395 43.2656  10
   6   1   2 764.167 113.805  11
   6   1   3 1392.50 146.134  11
   6   1   4 320.284 63.1939   6
   6   1   4 317.691 78.8763  11
   6   1   5 3692.01 185.876   6
   6   1   5 4192.73 227.418  11
   6   1   6 1799.81 118.188   6
   6   1   6 2136.69 149.093  11
   6   2  -6 2387.61 131.804  10
   6   2  -6 1967.65 104.272   8
   6   2  -5 3084.84 169.463  10
   6   2  -5 2519.69 137.580   8
   6   2  -4 1894.78 149.014  10
   6   2  -4 2028.53 140.220   8
   6   2  -3 270.092 57.1522   8
   6   2  -3 291.887 60.1967  10
   6   2   3 3736.45 212.586   6
   6   2   3 3637.55 238.105  11
   6   2   4 8852.42 320.785   6
   6   2   4 9133.54 366.266  11
   6   2   5 6180.24 257.465   6
   6   2   5 6577.30 295.882  11
   6   2   6 1439.17 114.944   6
   6   2   6 1519.44 133.980  11
   6   2   7 2630.61 134.087   6
   6   3  -5 771.397 84.3488  10
   6   3  -5 787.353 78.2566   8
   6   3  -4 479.424 74.2359  10
   6   3  -4 512.986 71.1184   8
   6   3  -3 1471.73 127.148  10
   6   3  -3 1581.46 129.165   8
   6   3  -2 1878.47 140.516   8
   6   3  -1 2644.46 167.440   8
   6   3   1 1377.14 134.073   6
   6   3   2 2213.07 170.106   6
   6   3   3 5935.10 275.739   6
   6   3   4 3560.64 210.686   6
   6   3   5 1765.07 144.326   6
   6   3   6 1271.37 114.190   6
   6   3   7 19992.4 394.563   6
   6   4  -5 74.7484 29.8239   8
   6   4  -4 1307.14 105.006  10
   6   4  -4 1506.00 111.059   8
   6   4  -3 5069.45 222.622   8
   6   4  -2 1338.38 119.782   8
   6   4  -1 1450.44 129.485   8
   6   4   0 671.277 111.991  20
   6   4   0 682.711 88.8871   8
   6   4   1 14358.4 493.586  20
   6   4   1 13580.2 370.213   8
   6   4   2 14273.5 430.763   6
   6   4   2 12627.3 450.117  20
   6   4   3 14927.9 441.979   6
   6   4   3 11916.7 427.990  20
   6   4   4 551.780 89.5382   6
   6   4   4 323.491 72.0704  20
   6   4   5 5564.41 252.958   6
   6   4   5 4732.93 243.261  20
   6   4   6 10825.1 330.445   6
   6   4   6 8008.54 288.262  20
   6   4   7 3537.75 169.862   6
   6   5  -4 83.3381 32.3530   8
   6   5  -3 1397.14 110.056   8
   6   5  -2 493.147 75.7349   8
   6   5  -1 209.164 56.6181   8
   6   5   0 3021.14 229.511  20
   6   5   0 3093.50 183.214   8
   6   5   1 7395.56 308.204   6
   6   5   1 6777.58 334.992  20
   6   5   1 6392.57 261.890   8
   6   5   2 1117.62 123.953   6
   6   5   2 1069.56 141.280  20
   6   5   2 840.319 94.5347   8
   6   5   3 2684.98 187.296   6
   6   5   3 2391.83 199.058  20
   6   5   4 3507.96 209.573   6
   6   5   4 2806.11 203.283  20
   6   5   5 10930.3 352.624   6
   6   5   5 9483.63 354.132  20
   6   5   6 2613.45 161.041   6
   6   5   6 2156.22 156.427  20
   6   5   7 217.722 50.3690  20
   6   6  -3 1761.12 106.455   8
   6   6  -2 943.765 87.9679   8
   6   6  -1 1764.81 129.340   8
   6   6   0 1657.34 130.114   8
   6   6   1 993.893 134.801  20
   6   6   1 964.667 102.846   8
   6   6   2 1710.57 150.256   6
   6   6   2 1703.89 172.553  20
   6   6   2 1394.95 122.828   8
   6   6   3 197.037 49.4974   8
   6   6   3 197.623 61.6031   6
   6   6   3 181.342 65.6450  20
   6   6   4 4358.48 229.472   6
   6   6   4 3976.38 238.356  20
   6   6   5 1078.34 110.740   6
   6   6   5 889.547 114.006  20
   6   6   6 224.034 56.3347  20
   6   6   7 1580.17 108.374   6
   6   6   7 1432.76 112.471  20
   6   7  -1 4483.83 179.713   8
   6   7   0 2734.42 151.877   8
   6   7   1 294.296 56.7976   8
   6   7   2 171.293 45.6796   8
   6   7   2 233.323 67.6823  20
   6   7   3 722.213 105.101  20
   6   7   3 825.320 86.8031   8
   6   7   4 5920.59 245.527   6
   6   7   4 5771.52 274.966  20
   6   7   5 3370.27 200.822  20
   6   7   6 617.560 74.2142   6
   6   7   6 544.444 78.7914  20
   6   8   1 414.103 55.5903   8
   6   8   2 124.452 36.5911   8
   6   8   3 4106.64 164.666   8
   6   8   4 1596.22 99.7921   8
;
_shelx_hkl_checksum              81467
loop_
_space_group_symop_operation_xyz
'x, y, z'
loop_
_atom_site_label
_atom_site_type_symbol
_atom_site_fract_x
_atom_site_fract_y
_atom_site_fract_z
_atom_site_U_iso_or_equiv
_atom_site_adp_type
_atom_site_occupancy
_atom_site_site_symmetry_order
_atom_site_calc_flag
_atom_site_refinement_flags_posn
_atom_site_refinement_flags_adp
_atom_site_refinement_flags_occupancy
_atom_site_disorder_assembly
_atom_site_disorder_group
N1 N 0.5839(6) 0.2397(3) 0.6381(2) 0.0344(6) Uani 1 1 d . . . . .
C2 C 0.3693(7) 0.3186(3) 0.6060(3) 0.0341(7) Uani 1 1 d . . . . .
N3 N 0.2294(6) 0.3031(3) 0.5167(2) 0.0349(6) Uani 1 1 d . . . . .
H3 H 0.0850 0.3505 0.5010 0.042 Uiso 1 1 calc R U . . .
C4 C 0.2961(8) 0.2204(3) 0.4506(3) 0.0412(8) Uani 1 1 d . . . . .
C5 C 0.5562(8) 0.1619(4) 0.4652(3) 0.0471(9) Uani 1 1 d . . . . .
H5A H 0.6496 0.2226 0.4045 0.057 Uiso 1 1 calc R U . . .
H5B H 0.5760 0.0798 0.4457 0.057 Uiso 1 1 calc R U . . .
C6 C 0.6623(8) 0.1320(3) 0.5931(3) 0.0405(8) Uani 1 1 d . . . . .
H6 H 0.8421 0.1227 0.5861 0.049 Uiso 1 1 calc R U . . .
S7 S 0.58793(17) -0.02193(8) 0.70336(8) 0.0455(2) Uani 1 1 d . . . . .
C8 C 0.8609(8) -0.0686(4) 0.7983(4) 0.0461(9) Uani 1 1 d . . . . .
H8A H 0.8522 -0.1537 0.8633 0.055 Uiso 1 1 calc R U . . .
H8B H 1.0007 -0.0814 0.7463 0.055 Uiso 1 1 calc R U . . .
C9 C 0.9071(7) 0.0288(3) 0.8597(3) 0.0370(7) Uani 1 1 d . . . . .
H9 H 1.0624 -0.0057 0.9079 0.044 Uiso 1 1 calc R U . . .
O10 O 0.9287(5) 0.1549(2) 0.7690(2) 0.0367(5) Uani 1 1 d . . . . .
C11 C 0.7035(7) 0.2373(3) 0.7518(3) 0.0331(7) Uani 1 1 d . . . . .
H11 H 0.7310 0.3278 0.7421 0.040 Uiso 1 1 calc R U . . .
O12 O 0.2944(5) 0.4017(2) 0.6547(2) 0.0376(5) Uani 1 1 d . . . . .
O13 O 0.1515(6) 0.2028(3) 0.3830(3) 0.0503(7) Uani 1 1 d . . . . .
C14 C 0.7105(7) 0.0572(3) 0.9456(3) 0.0374(7) Uani 1 1 d . . . . .
H14 H 0.6119 -0.0152 0.9761 0.045 Uiso 1 1 calc R U . . .
O15 O 0.8049(5) 0.0861(2) 1.0450(2) 0.0454(7) Uani 1 1 d . . . . .
C16 C 0.7342(7) 0.2221(4) 1.0288(3) 0.0397(8) Uani 1 1 d . . . . .
O17 O 0.5378(5) 0.2667(2) 0.9435(2) 0.0383(6) Uani 1 1 d . . . . .
C18 C 0.5558(7) 0.1863(3) 0.8687(3) 0.0330(7) Uani 1 1 d . . . . .
H18 H 0.3930 0.1719 0.8483 0.040 Uiso 1 1 calc R U . . .
C19 C 0.9441(8) 0.2959(4) 0.9787(4) 0.0472(9) Uani 1 1 d . . . . .
H19A H 1.0779 0.2635 1.0390 0.071 Uiso 1 1 calc R U . . .
H19B H 0.9975 0.2822 0.9014 0.071 Uiso 1 1 calc R U . . .
H19C H 0.8920 0.3893 0.9634 0.071 Uiso 1 1 calc R U . . .
C20 C 0.6467(9) 0.2372(5) 1.1496(4) 0.0548(11) Uani 1 1 d . . . . .
H20A H 0.7807 0.2067 1.2098 0.082 Uiso 1 1 calc R U . . .
H20B H 0.5860 0.3294 1.1367 0.082 Uiso 1 1 calc R U . . .
H20C H 0.5166 0.1853 1.1805 0.082 Uiso 1 1 calc R U . . .
N21 N 0.5376(5) 0.6634(3) 0.4465(2) 0.0338(6) Uani 1 1 d . . . . .
C22 C 0.7226(7) 0.5682(3) 0.5015(3) 0.0327(7) Uani 1 1 d . . . . .
N23 N 0.8064(6) 0.5606(3) 0.6161(2) 0.0340(6) Uani 1 1 d . . . . .
H23 H 0.9394 0.5060 0.6461 0.041 Uiso 1 1 calc R U . . .
C24 C 0.6955(7) 0.6329(3) 0.6861(3) 0.0377(8) Uani 1 1 d . . . . .
C25 C 0.4448(8) 0.6974(3) 0.6434(3) 0.0404(8) Uani 1 1 d . . . . .
H25A H 0.3933 0.7654 0.6816 0.048 Uiso 1 1 calc R U . . .
H25B H 0.3340 0.6318 0.6710 0.048 Uiso 1 1 calc R U . . .
C26 C 0.4259(7) 0.7600(3) 0.5028(3) 0.0361(7) Uani 1 1 d . . . . .
H26 H 0.5129 0.8374 0.4761 0.043 Uiso 1 1 calc R U . . .
S27 S 0.10650(15) 0.81351(8) 0.46157(7) 0.0386(2) Uani 1 1 d . . . . .
C28 C 0.1183(7) 0.9345(3) 0.3100(3) 0.0403(8) Uani 1 1 d . . . . .
H28A H -0.0481 0.9776 0.2819 0.048 Uiso 1 1 calc R U . . .
H28B H 0.2098 1.0021 0.3161 0.048 Uiso 1 1 calc R U . . .
C29 C 0.2348(7) 0.8782(3) 0.2145(3) 0.0359(7) Uani 1 1 d . . . . .
H29 H 0.2261 0.9491 0.1324 0.043 Uiso 1 1 calc R U . . .
O30 O 0.4846(4) 0.8247(2) 0.2479(2) 0.0359(5) Uani 1 1 d . . . . .
C31 C 0.5045(7) 0.6898(3) 0.3134(3) 0.0351(7) Uani 1 1 d . . . . .
H31 H 0.6526 0.6456 0.2844 0.042 Uiso 1 1 calc R U . . .
O32 O 0.8216(5) 0.4905(2) 0.4520(2) 0.0386(5) Uani 1 1 d . . . . .
O33 O 0.7946(6) 0.6345(3) 0.7779(2) 0.0461(6) Uani 1 1 d . . . . .
C34 C 0.1178(7) 0.7667(4) 0.2040(3) 0.0379(8) Uani 1 1 d . . . . .
H34 H -0.0497 0.7679 0.2370 0.045 Uiso 1 1 calc R U . . .
O35 O 0.1257(5) 0.7641(3) 0.0805(2) 0.0472(7) Uani 1 1 d . . . . .
C36 C 0.1979(7) 0.6318(4) 0.0872(3) 0.0430(9) Uani 1 1 d . . . . .
O37 O 0.3687(5) 0.5803(2) 0.1881(2) 0.0420(6) Uani 1 1 d . . . . .
C38 C 0.2882(7) 0.6424(3) 0.2768(3) 0.0358(7) Uani 1 1 d . . . . .
H38 H 0.2091 0.5846 0.3491 0.043 Uiso 1 1 calc R U . . .
C39 C 0.3247(9) 0.6298(5) -0.0295(4) 0.0566(12) Uani 1 1 d . . . . .
H39A H 0.3753 0.5391 -0.0259 0.085 Uiso 1 1 calc R U . . .
H39B H 0.2145 0.6755 -0.1002 0.085 Uiso 1 1 calc R U . . .
H39C H 0.4670 0.6736 -0.0386 0.085 Uiso 1 1 calc R U . . .
C40 C -0.0087(10) 0.5535(5) 0.1148(5) 0.0626(13) Uani 1 1 d . . . . .
H40A H 0.0513 0.4636 0.1183 0.094 Uiso 1 1 calc R U . . .
H40B H -0.0784 0.5529 0.1943 0.094 Uiso 1 1 calc R U . . .
H40C H -0.1329 0.5932 0.0497 0.094 Uiso 1 1 calc R U . . .
loop_
_atom_site_aniso_label
_atom_site_aniso_U_11
_atom_site_aniso_U_22
_atom_site_aniso_U_33
_atom_site_aniso_U_23
_atom_site_aniso_U_13
_atom_site_aniso_U_12
N1 0.0389(17) 0.0352(13) 0.0285(12) -0.0131(10) -0.0088(11) 0.0034(11)
C2 0.043(2) 0.0310(15) 0.0271(14) -0.0098(12) -0.0093(13) 0.0000(14)
N3 0.0420(18) 0.0334(13) 0.0292(12) -0.0139(11) -0.0111(11) 0.0047(12)
C4 0.054(2) 0.0393(17) 0.0315(15) -0.0160(14) -0.0094(15) 0.0026(16)
C5 0.054(3) 0.055(2) 0.0354(17) -0.0256(16) -0.0086(16) 0.0071(18)
C6 0.043(2) 0.0423(18) 0.0388(17) -0.0207(14) -0.0056(15) 0.0046(15)
S7 0.0515(6) 0.0344(4) 0.0521(5) -0.0188(3) -0.0168(4) 0.0031(4)
C8 0.047(2) 0.0386(17) 0.054(2) -0.0222(16) -0.0169(17) 0.0088(16)
C9 0.039(2) 0.0315(15) 0.0386(16) -0.0124(13) -0.0121(14) 0.0040(13)
O10 0.0336(14) 0.0383(11) 0.0360(11) -0.0117(9) -0.0047(10) 0.0005(10)
C11 0.037(2) 0.0307(15) 0.0301(15) -0.0104(12) -0.0098(13) 0.0015(13)
O12 0.0458(16) 0.0321(11) 0.0366(11) -0.0178(9) -0.0134(10) 0.0065(10)
O13 0.0550(19) 0.0541(15) 0.0494(15) -0.0314(13) -0.0188(13) 0.0049(13)
C14 0.045(2) 0.0338(15) 0.0325(15) -0.0104(13) -0.0079(14) -0.0013(14)
O15 0.0588(19) 0.0396(12) 0.0350(12) -0.0141(10) -0.0200(12) 0.0092(12)
C16 0.038(2) 0.0440(18) 0.0376(16) -0.0203(14) -0.0146(14) 0.0097(15)
O17 0.0374(15) 0.0446(13) 0.0345(11) -0.0215(10) -0.0128(10) 0.0102(10)
C18 0.0326(19) 0.0369(15) 0.0293(14) -0.0130(12) -0.0076(13) 0.0017(13)
C19 0.042(2) 0.056(2) 0.051(2) -0.0301(18) -0.0111(17) 0.0025(17)
C20 0.057(3) 0.070(3) 0.0377(18) -0.0263(18) -0.0143(17) 0.013(2)
N21 0.0348(17) 0.0372(13) 0.0277(12) -0.0118(10) -0.0067(11) 0.0037(12)
C22 0.0344(19) 0.0332(14) 0.0295(14) -0.0099(12) -0.0086(13) -0.0017(13)
N23 0.0397(17) 0.0315(12) 0.0290(12) -0.0090(10) -0.0112(11) 0.0002(11)
C24 0.048(2) 0.0319(15) 0.0352(16) -0.0135(12) -0.0078(15) -0.0051(14)
C25 0.047(2) 0.0399(17) 0.0372(17) -0.0191(14) -0.0024(15) -0.0024(15)
C26 0.038(2) 0.0332(15) 0.0369(16) -0.0142(13) -0.0054(14) 0.0013(14)
S27 0.0369(5) 0.0390(4) 0.0370(4) -0.0126(3) -0.0024(3) 0.0032(3)
C28 0.044(2) 0.0363(16) 0.0392(17) -0.0141(14) -0.0101(15) 0.0042(14)
C29 0.035(2) 0.0367(16) 0.0312(15) -0.0077(13) -0.0088(13) 0.0022(14)
O30 0.0328(14) 0.0374(11) 0.0333(11) -0.0068(9) -0.0057(9) -0.0031(10)
C31 0.039(2) 0.0381(16) 0.0251(14) -0.0095(12) -0.0060(13) 0.0029(14)
O32 0.0427(15) 0.0372(12) 0.0358(11) -0.0164(9) -0.0130(10) 0.0058(10)
O33 0.0572(18) 0.0473(13) 0.0362(12) -0.0189(11) -0.0157(11) -0.0006(12)
C34 0.032(2) 0.0464(19) 0.0383(16) -0.0207(14) -0.0074(14) 0.0006(15)
O35 0.0494(17) 0.0523(15) 0.0399(13) -0.0228(11) -0.0200(12) 0.0133(12)
C36 0.036(2) 0.054(2) 0.0428(18) -0.0260(16) -0.0121(16) 0.0092(16)
O37 0.0452(16) 0.0463(13) 0.0356(12) -0.0213(10) -0.0139(11) 0.0103(11)
C38 0.037(2) 0.0376(16) 0.0341(15) -0.0165(13) -0.0041(13) 0.0001(14)
C39 0.054(3) 0.074(3) 0.0404(19) -0.0279(19) -0.0141(18) 0.020(2)
C40 0.051(3) 0.083(3) 0.078(3) -0.060(3) -0.002(2) -0.006(2)
loop_
_atom_type_symbol
_atom_type_description
_atom_type_scat_dispersion_real
_atom_type_scat_dispersion_imag
_atom_type_scat_source
C C 0.0181 0.0091 'International Tables Vol C Tables 4.2.6.8 and 6.1.1.4'
H H 0.0000 0.0000 'International Tables Vol C Tables 4.2.6.8 and 6.1.1.4'
N N 0.0311 0.0180 'International Tables Vol C Tables 4.2.6.8 and 6.1.1.4'
O O 0.0492 0.0322 'International Tables Vol C Tables 4.2.6.8 and 6.1.1.4'
S S 0.3331 0.5567 'International Tables Vol C Tables 4.2.6.8 and 6.1.1.4'
loop_
_geom_angle_atom_site_label_1
_geom_angle_atom_site_label_2
_geom_angle_atom_site_label_3
_geom_angle
_geom_angle_site_symmetry_1
_geom_angle_site_symmetry_3
_geom_angle_publ_flag
C2 N1 C6 123.1(3) . . ?
C2 N1 C11 116.6(3) . . ?
C6 N1 C11 117.4(3) . . ?
O12 C2 N1 122.2(3) . . ?
O12 C2 N3 119.8(3) . . ?
N1 C2 N3 117.9(3) . . ?
C4 N3 C2 125.8(3) . . ?
O13 C4 N3 121.2(4) . . ?
O13 C4 C5 124.8(3) . . ?
N3 C4 C5 113.9(3) . . ?
C4 C5 C6 114.5(3) . . ?
N1 C6 C5 110.3(3) . . ?
N1 C6 S7 110.7(2) . . ?
C5 C6 S7 112.4(3) . . ?
C8 S7 C6 97.84(19) . . ?
C9 C8 S7 115.2(3) . . ?
O10 C9 C14 105.1(3) . . ?
O10 C9 C8 111.3(3) . . ?
C14 C9 C8 115.2(3) . . ?
C11 O10 C9 109.7(3) . . ?
O10 C11 N1 109.3(3) . . ?
O10 C11 C18 107.6(2) . . ?
N1 C11 C18 113.3(3) . . ?
O15 C14 C9 112.2(3) . . ?
O15 C14 C18 104.4(3) . . ?
C9 C14 C18 105.3(3) . . ?
C14 O15 C16 109.8(2) . . ?
O17 C16 O15 106.0(3) . . ?
O17 C16 C20 108.4(3) . . ?
O15 C16 C20 109.7(3) . . ?
O17 C16 C19 110.8(3) . . ?
O15 C16 C19 109.9(3) . . ?
C20 C16 C19 112.0(3) . . ?
C16 O17 C18 108.7(3) . . ?
O17 C18 C11 112.9(3) . . ?
O17 C18 C14 104.9(2) . . ?
C11 C18 C14 104.3(3) . . ?
C22 N21 C26 122.3(3) . . ?
C22 N21 C31 115.2(3) . . ?
C26 N21 C31 119.9(3) . . ?
O32 C22 N21 122.2(3) . . ?
O32 C22 N23 119.3(3) . . ?
N21 C22 N23 118.5(3) . . ?
C24 N23 C22 124.5(3) . . ?
O33 C24 N23 121.1(4) . . ?
O33 C24 C25 125.1(3) . . ?
N23 C24 C25 113.7(3) . . ?
C24 C25 C26 111.9(3) . . ?
N21 C26 C25 108.9(3) . . ?
N21 C26 S27 112.0(2) . . ?
C25 C26 S27 107.5(3) . . ?
C28 S27 C26 101.87(18) . . ?
C29 C28 S27 113.6(2) . . ?
O30 C29 C28 110.0(3) . . ?
O30 C29 C34 106.0(3) . . ?
C28 C29 C34 113.1(3) . . ?
C31 O30 C29 109.5(3) . . ?
O30 C31 N21 110.6(3) . . ?
O30 C31 C38 107.4(3) . . ?
N21 C31 C38 116.0(3) . . ?
O35 C34 C29 111.4(3) . . ?
O35 C34 C38 103.9(3) . . ?
C29 C34 C38 104.7(3) . . ?
C36 O35 C34 107.4(3) . . ?
O35 C36 O37 103.7(3) . . ?
O35 C36 C39 108.8(4) . . ?
O37 C36 C39 109.1(3) . . ?
O35 C36 C40 113.0(4) . . ?
O37 C36 C40 109.2(4) . . ?
C39 C36 C40 112.6(3) . . ?
C38 O37 C36 107.0(3) . . ?
O37 C38 C31 107.3(3) . . ?
O37 C38 C34 104.9(3) . . ?
C31 C38 C34 105.4(3) . . ?
loop_
_geom_bond_atom_site_label_1
_geom_bond_atom_site_label_2
_geom_bond_distance
_geom_bond_site_symmetry_2
_geom_bond_publ_flag
N1 C2 1.351(5) . ?
N1 C6 1.447(4) . ?
N1 C11 1.483(4) . ?
C2 O12 1.237(4) . ?
C2 N3 1.387(4) . ?
N3 C4 1.373(4) . ?
C4 O13 1.224(5) . ?
C4 C5 1.489(6) . ?
C5 C6 1.520(5) . ?
C6 S7 1.842(4) . ?
S7 C8 1.816(4) . ?
C8 C9 1.525(5) . ?
C9 O10 1.449(4) . ?
C9 C14 1.520(5) . ?
O10 C11 1.411(4) . ?
C11 C18 1.540(5) . ?
C14 O15 1.426(4) . ?
C14 C18 1.541(5) . ?
O15 C16 1.435(4) . ?
C16 O17 1.415(4) . ?
C16 C20 1.510(5) . ?
C16 C19 1.521(6) . ?
O17 C18 1.418(4) . ?
N21 C22 1.354(4) . ?
N21 C26 1.472(4) . ?
N21 C31 1.473(4) . ?
C22 O32 1.231(4) . ?
C22 N23 1.388(4) . ?
N23 C24 1.381(4) . ?
C24 O33 1.220(4) . ?
C24 C25 1.491(6) . ?
C25 C26 1.532(5) . ?
C26 S27 1.823(4) . ?
S27 C28 1.811(4) . ?
C28 C29 1.515(5) . ?
C29 O30 1.444(4) . ?
C29 C34 1.520(5) . ?
O30 C31 1.409(4) . ?
C31 C38 1.519(5) . ?
C34 O35 1.431(4) . ?
C34 C38 1.537(5) . ?
O35 C36 1.424(5) . ?
C36 O37 1.434(4) . ?
C36 C39 1.502(6) . ?
C36 C40 1.513(7) . ?
O37 C38 1.432(4) . ?
loop_
_geom_torsion_atom_site_label_1
_geom_torsion_atom_site_label_2
_geom_torsion_atom_site_label_3
_geom_torsion_atom_site_label_4
_geom_torsion
_geom_torsion_site_symmetry_1
_geom_torsion_site_symmetry_2
_geom_torsion_site_symmetry_3
_geom_torsion_site_symmetry_4
_geom_torsion_publ_flag
C6 N1 C2 O12 172.6(3) . . . . ?
C11 N1 C2 O12 12.3(5) . . . . ?
C6 N1 C2 N3 -6.4(5) . . . . ?
C11 N1 C2 N3 -166.7(3) . . . . ?
O12 C2 N3 C4 176.1(3) . . . . ?
N1 C2 N3 C4 -4.9(5) . . . . ?
C2 N3 C4 O13 172.1(3) . . . . ?
C2 N3 C4 C5 -10.5(5) . . . . ?
O13 C4 C5 C6 -147.6(4) . . . . ?
N3 C4 C5 C6 35.2(5) . . . . ?
C2 N1 C6 C5 30.2(5) . . . . ?
C11 N1 C6 C5 -169.7(3) . . . . ?
C2 N1 C6 S7 -94.8(3) . . . . ?
C11 N1 C6 S7 65.3(4) . . . . ?
C4 C5 C6 N1 -43.8(5) . . . . ?
C4 C5 C6 S7 80.3(4) . . . . ?
N1 C6 S7 C8 -87.9(3) . . . . ?
C5 C6 S7 C8 148.3(3) . . . . ?
C6 S7 C8 C9 59.6(3) . . . . ?
S7 C8 C9 O10 -59.9(4) . . . . ?
S7 C8 C9 C14 59.6(4) . . . . ?
C14 C9 O10 C11 -30.0(3) . . . . ?
C8 C9 O10 C11 95.3(4) . . . . ?
C9 O10 C11 N1 -100.2(3) . . . . ?
C9 O10 C11 C18 23.2(3) . . . . ?
C2 N1 C11 O10 -177.5(3) . . . . ?
C6 N1 C11 O10 21.1(4) . . . . ?
C2 N1 C11 C18 62.6(4) . . . . ?
C6 N1 C11 C18 -98.8(4) . . . . ?
O10 C9 C14 O15 -88.7(3) . . . . ?
C8 C9 C14 O15 148.5(3) . . . . ?
O10 C9 C14 C18 24.2(3) . . . . ?
C8 C9 C14 C18 -98.6(3) . . . . ?
C9 C14 O15 C16 109.4(3) . . . . ?
C18 C14 O15 C16 -4.1(4) . . . . ?
C14 O15 C16 O17 18.1(4) . . . . ?
C14 O15 C16 C20 134.9(3) . . . . ?
C14 O15 C16 C19 -101.6(3) . . . . ?
O15 C16 O17 C18 -25.8(4) . . . . ?
C20 C16 O17 C18 -143.5(3) . . . . ?
C19 C16 O17 C18 93.3(3) . . . . ?
C16 O17 C18 C11 -90.0(3) . . . . ?
C16 O17 C18 C14 22.9(4) . . . . ?
O10 C11 C18 O17 106.4(3) . . . . ?
N1 C11 C18 O17 -132.6(3) . . . . ?
O10 C11 C18 C14 -6.8(3) . . . . ?
N1 C11 C18 C14 114.1(3) . . . . ?
O15 C14 C18 O17 -11.3(4) . . . . ?
C9 C14 C18 O17 -129.6(3) . . . . ?
O15 C14 C18 C11 107.5(3) . . . . ?
C9 C14 C18 C11 -10.8(3) . . . . ?
C26 N21 C22 O32 -177.2(3) . . . . ?
C31 N21 C22 O32 -15.1(5) . . . . ?
C26 N21 C22 N23 1.1(5) . . . . ?
C31 N21 C22 N23 163.2(3) . . . . ?
O32 C22 N23 C24 -173.0(3) . . . . ?
N21 C22 N23 C24 8.6(5) . . . . ?
C22 N23 C24 O33 -170.2(3) . . . . ?
C22 N23 C24 C25 14.0(5) . . . . ?
O33 C24 C25 C26 140.9(4) . . . . ?
N23 C24 C25 C26 -43.6(4) . . . . ?
C22 N21 C26 C25 -30.1(5) . . . . ?
C31 N21 C26 C25 168.6(3) . . . . ?
C22 N21 C26 S27 -148.9(3) . . . . ?
C31 N21 C26 S27 49.9(4) . . . . ?
C24 C25 C26 N21 50.2(4) . . . . ?
C24 C25 C26 S27 171.8(2) . . . . ?
N21 C26 S27 C28 -81.0(3) . . . . ?
C25 C26 S27 C28 159.4(2) . . . . ?
C26 S27 C28 C29 64.7(3) . . . . ?
S27 C28 C29 O30 -63.6(4) . . . . ?
S27 C28 C29 C34 54.7(4) . . . . ?
C28 C29 O30 C31 94.8(3) . . . . ?
C34 C29 O30 C31 -27.8(3) . . . . ?
C29 O30 C31 N21 -103.2(3) . . . . ?
C29 O30 C31 C38 24.2(3) . . . . ?
C22 N21 C31 O30 -130.5(3) . . . . ?
C26 N21 C31 O30 32.0(4) . . . . ?
C22 N21 C31 C38 106.9(4) . . . . ?
C26 N21 C31 C38 -90.5(4) . . . . ?
O30 C29 C34 O35 -92.1(3) . . . . ?
C28 C29 C34 O35 147.4(3) . . . . ?
O30 C29 C34 C38 19.6(3) . . . . ?
C28 C29 C34 C38 -101.0(3) . . . . ?
C29 C34 O35 C36 135.4(3) . . . . ?
C38 C34 O35 C36 23.3(4) . . . . ?
C34 O35 C36 O37 -36.1(4) . . . . ?
C34 O35 C36 C39 -152.2(3) . . . . ?
C34 O35 C36 C40 82.0(4) . . . . ?
O35 C36 O37 C38 34.7(4) . . . . ?
C39 C36 O37 C38 150.4(3) . . . . ?
C40 C36 O37 C38 -86.1(3) . . . . ?
C36 O37 C38 C31 -131.9(3) . . . . ?
C36 O37 C38 C34 -20.1(4) . . . . ?
O30 C31 C38 O37 100.7(3) . . . . ?
N21 C31 C38 O37 -135.0(3) . . . . ?
O30 C31 C38 C34 -10.7(3) . . . . ?
N21 C31 C38 C34 113.6(3) . . . . ?
O35 C34 C38 O37 -1.8(4) . . . . ?
C29 C34 C38 O37 -118.8(3) . . . . ?
O35 C34 C38 C31 111.4(3) . . . . ?
C29 C34 C38 C31 -5.6(4) . . . . ?
