#------------------------------------------------------------------------------
#$Date: 2021-04-28 00:40:59 +0300 (Wed, 28 Apr 2021) $
#$Revision: 264596 $
#$URL: file:///home/coder/svn-repositories/cod/cif/4/51/86/4518634.cif $
#------------------------------------------------------------------------------
#
# This file is available in the Crystallography Open Database (COD),
# http://www.crystallography.net/
#
# All data on this site have been placed in the public domain by the
# contributors.
#
data_4518634
loop_
_publ_author_name
'Yan, Siyu'
'Tang, Kaixin'
'Lin, Yuejian'
'Ren, Yuanhang'
'Tian, Wanli'
'Chen, Hua'
'Lin, Tingting'
'Qiu, Longzhen'
'Pan, Xiaoyong'
'Wang, Weizhi'
_publ_section_title
;
 Light-Emitting Diodes with Manganese Halide Tetrahedron Embedded in
 Anti-Perovskites
;
_journal_name_full               'ACS Energy Letters'
_journal_page_first              1901
_journal_page_last               1911
_journal_paper_doi               10.1021/acsenergylett.1c00250
_journal_year                    2021
_chemical_formula_sum            'Cl2 Cs3 I3 Mn'
_chemical_formula_weight         905.27
_space_group_crystal_system      tetragonal
_space_group_IT_number           90
_space_group_name_Hall           'P 4ab 2ab'
_space_group_name_H-M_alt        'P 4 21 2'
_audit_creation_method           SHELXL-2016/6
_cell_angle_alpha                90
_cell_angle_beta                 90
_cell_angle_gamma                90
_cell_formula_units_Z            8
_cell_length_a                   14.4125(4)
_cell_length_b                   14.4125(4)
_cell_length_c                   15.2106(7)
_cell_measurement_reflns_used    9962
_cell_measurement_temperature    296(2)
_cell_measurement_theta_max      26.93
_cell_measurement_theta_min      2.41
_cell_volume                     3159.55(19)
_computing_cell_refinement       'Bruker SAINT'
_computing_data_collection       'Bruker APEX2'
_computing_data_reduction        'Bruker SAINT'
_computing_molecular_graphics    'Bruker SHELXTL'
_computing_publication_material  'Bruker SHELXTL'
_computing_structure_refinement  'SHELXL-2016/6 (Sheldrick, 2016)'
_computing_structure_solution    'SHELXT 2018/2 (Sheldrick, 2018)'
_diffrn_ambient_temperature      296(2)
_diffrn_measured_fraction_theta_full 0.998
_diffrn_measured_fraction_theta_max 0.996
_diffrn_measurement_device_type  'Bruker APEX-II CCD'
_diffrn_measurement_method       '\f and \w scans'
_diffrn_radiation_type           MoK\a
_diffrn_radiation_wavelength     0.71073
_diffrn_reflns_av_R_equivalents  0.0771
_diffrn_reflns_av_unetI/netI     0.0517
_diffrn_reflns_Laue_measured_fraction_full 0.998
_diffrn_reflns_Laue_measured_fraction_max 0.996
_diffrn_reflns_limit_h_max       17
_diffrn_reflns_limit_h_min       -18
_diffrn_reflns_limit_k_max       18
_diffrn_reflns_limit_k_min       -16
_diffrn_reflns_limit_l_max       19
_diffrn_reflns_limit_l_min       -19
_diffrn_reflns_number            23943
_diffrn_reflns_point_group_measured_fraction_full 0.999
_diffrn_reflns_point_group_measured_fraction_max 0.996
_diffrn_reflns_theta_full        25.242
_diffrn_reflns_theta_max         27.133
_diffrn_reflns_theta_min         1.947
_exptl_absorpt_coefficient_mu    13.801
_exptl_absorpt_correction_T_max  0.261
_exptl_absorpt_correction_T_min  0.082
_exptl_absorpt_correction_type   multi-scan
_exptl_absorpt_process_details   sadabs
_exptl_crystal_colour            yellow
_exptl_crystal_density_diffrn    3.806
_exptl_crystal_description       block
_exptl_crystal_F_000             3064
_exptl_crystal_size_max          0.220
_exptl_crystal_size_mid          0.180
_exptl_crystal_size_min          0.160
_refine_diff_density_max         5.125
_refine_diff_density_min         -2.360
_refine_diff_density_rms         0.854
_refine_ls_abs_structure_details
; 
 Refined as an inversion twin. 
;
_refine_ls_abs_structure_Flack   0.5(4)
_refine_ls_extinction_coef       0.0035(7)
_refine_ls_extinction_expression Fc^*^=kFc[1+0.001xFc^2^\l^3^/sin(2\q)]^-1/4^
_refine_ls_extinction_method     'SHELXL-2016/6 (Sheldrick 2016)'
_refine_ls_goodness_of_fit_ref   1.067
_refine_ls_hydrogen_treatment    undef
_refine_ls_matrix_type           full
_refine_ls_number_parameters     154
_refine_ls_number_reflns         3512
_refine_ls_number_restraints     114
_refine_ls_restrained_S_all      1.073
_refine_ls_R_factor_all          0.1546
_refine_ls_R_factor_gt           0.1385
_refine_ls_shift/su_max          0.001
_refine_ls_shift/su_mean         0.000
_refine_ls_structure_factor_coef Fsqd
_refine_ls_weighting_details
'w=1/[\s^2^(Fo^2^)+(0.1850P)^2^+198.0000P] where P=(Fo^2^+2Fc^2^)/3'
_refine_ls_weighting_scheme      calc
_refine_ls_wR_factor_gt          0.3953
_refine_ls_wR_factor_ref         0.4101
_reflns_Friedel_coverage         0.705
_reflns_Friedel_fraction_full    1.000
_reflns_Friedel_fraction_max     0.997
_reflns_number_gt                2925
_reflns_number_total             3512
_reflns_threshold_expression     'I > 2\s(I)'
_cod_data_source_file            nz1c00250_si_008.cif
_cod_data_source_block           mo_210302b_a
_cod_original_cell_volume        3159.5(2)
_cod_database_code               4518634
_shelx_shelxl_version_number     2016/6
_shelx_space_group_comment
; 
The symmetry employed for this shelxl refinement is uniquely defined 
by the following loop, which should always be used as a source of 
symmetry information in preference to the above space-group names. 
They are only intended as comments. 
;
_shelx_estimated_absorpt_t_min   0.151
_shelx_estimated_absorpt_t_max   0.216
_shelx_res_file
; 
TITL mo_210302b_a.res in P42(1)2 
    mo_210302b_a.res 
    created by SHELXL-2016/6 at 15:52:02 on 03-Mar-2021 
CELL  0.71073  14.4125  14.4125  15.2106   90.000   90.000   90.000 
ZERR    8.000   0.0004   0.0004   0.0007    0.000    0.000    0.000 
LATT -1 
SYMM -X, -Y, Z 
SYMM 1/2-Y, 1/2+X, Z 
SYMM 1/2+Y, 1/2-X, Z 
SYMM 1/2-X, 1/2+Y, -Z 
SYMM 1/2+X, 1/2-Y, -Z 
SYMM Y, X, -Z 
SYMM -Y, -X, -Z 
SFAC Cl Cs I  Mn 
UNIT 16 24 24 8 
OMIT 1 1 4 
L.S. 7 
ACTA 
BOND 
FMAP 2 
PLAN 20 
ISOR 0.01 Cs1' Cs2' Cs4' 
ISOR 0.02 Cs6 
ISOR 0.02 Cs1 Cs2 Cs3 Cs4 Cl1 I4 I4' Cl2 I5 Cl2' I5' 
SIMU 0.02 0.05 2.0 Cl1 I4' 
SIMU 0.02 0.05 2.0 Cl1' I4 
SIMU 0.02 0.05 2.0 Cl2 I5' 
SIMU 0.02 0.05 2.0 Cl2' I5 
TWIN 
EADP I4 Cl1' 
SIZE 0.16 0.18 0.22 
TEMP 22.850 
WGHT    0.185000  198.000000 
EXTI    0.003506 
BASF   0.47808 
FVAR       0.09503   0.79360   0.83497   0.76704   0.69478   0.40092 
I1    3    0.500000    0.000000    0.237730    10.25000    0.04216    0.04216 = 
         0.05076    0.00000    0.00000    0.00000 
I2    3    0.500000    0.000000    0.736744    10.25000    0.06891    0.06891 = 
         0.05004    0.00000    0.00000    0.00000 
I3    3    1.000000    0.000000    0.248489    10.50000    0.04042    0.06681 = 
         0.08298    0.00000    0.00000    0.00994 
CS1   2    0.747406    0.081149    0.230872    31.00000    0.04243    0.06373 = 
         0.09398    0.01326   -0.01985    0.00232 
CS1'  2    0.757574    0.096956    0.274812   -31.00000    0.04293    0.04447 = 
         0.06596   -0.01348    0.02087   -0.00409 
CS2   2    0.500000    0.000000    0.482475    60.25000    0.08511    0.08511 = 
         0.10799    0.00000    0.00000    0.00000 
CS2'  2    0.509298    0.034250    0.491397   -60.25000    0.03584    0.03908 = 
         0.03288    0.01378    0.00657    0.00208 
CS3   2    1.025335    0.025335    0.000000    10.25000    0.07071    0.07071 = 
         0.06255   -0.01938    0.01938    0.00675 
CS4   2    0.752765    0.411892    0.270358    21.00000    0.06361    0.05967 = 
         0.10335    0.00862   -0.01674   -0.00444 
CS4'  2    0.750351    0.433571    0.227042   -21.00000    0.08399    0.07467 = 
         0.07882   -0.00189    0.04883    0.00685 
CS5   2    1.000000    0.000000    0.500000    10.25000    0.10501    0.10501 = 
         0.04043    0.00000    0.00000    0.01490 
CS6   2    0.500000    0.000000    0.986174    10.25000    0.22189    0.22189 = 
         0.08133    0.00000    0.00000    0.00000 
MN1   4    0.754914    0.245086    0.500000    10.50000    0.08591    0.08591 = 
         0.07466   -0.00137   -0.00137    0.02837 
PART 1  41 
CL1   1    0.785499    0.116696    0.585201    41.00000    0.06450    0.07876 = 
         0.10540    0.05814    0.04966    0.00511 
I4    3    0.595965    0.241495    0.418793    41.00000    0.06785    0.10449 = 
         0.12634   -0.00757   -0.03916   -0.01736 
PART 2  -41 
CL1'  1    0.598966    0.203223    0.445632   -41.00000    0.06785    0.10449 = 
         0.12634   -0.00757   -0.03916   -0.01736 
I4'   3    0.765436    0.105237    0.606291   -41.00000    0.06511    0.04915 = 
         0.07637    0.02926    0.02607   -0.00874 
PART 0 
MN2   4    0.744263    0.255737    0.000000    10.50000    0.06006    0.06006 = 
         0.04969    0.00425    0.00425   -0.00102 
PART 1  51 
CL2   1    0.628056    0.253568    0.113987    51.00000    0.06614    0.08780 = 
         0.04430    0.00564    0.03164    0.01504 
I5    3    0.910109    0.253128    0.081403    51.00000    0.07489    0.07317 = 
         0.10658    0.00050   -0.02628    0.00443 
PART 2  -51 
CL2'  1    0.935413    0.287918    0.067034   -51.00000    0.07235    0.03878 = 
         0.05416   -0.02660   -0.00427   -0.00862 
I5'   3    0.575396    0.277097    0.078209   -51.00000    0.08552    0.09214 = 
         0.10696    0.01632    0.02774   -0.00428 
PART 0 
  
HKLF 4 
  
  
  
  
REM  mo_210302b_a.res in P42(1)2 
REM R1 =  0.1385 for    2925 Fo > 4sig(Fo)  and  0.1546 for all    3512 data 
REM    154 parameters refined using    114 restraints 
  
END 
  
WGHT      0.1885    162.2036 
  
REM Highest difference peak  5.125,  deepest hole -2.360,  1-sigma level  0.854 
Q1    1   1.0392 -0.0007  0.5211  11.00000  0.05    5.12 
Q2    1   0.5000  0.0000  1.0567  10.25000  0.05    5.07 
Q3    1   0.5000  0.0000  0.6600  10.25000  0.05    4.71 
Q4    1   0.5000  0.0000  0.8093  10.25000  0.05    4.59 
Q5    1   0.5000  0.0000  0.9286  10.25000  0.05    4.59 
Q6    1   0.5000  0.0000  0.4237  10.25000  0.05    4.32 
Q7    1   0.5000  0.0000  0.3221  10.25000  0.05    4.20 
Q8    1   0.6228  0.2338  0.3777  11.00000  0.05    3.96 
Q9    1   0.7568  0.1021  0.5338  11.00000  0.05    3.84 
Q10   1   0.5904  0.2477  0.0258  11.00000  0.05    3.69 
Q11   1   0.5000  0.0000  0.5978  10.25000  0.05    3.60 
Q12   1   0.8659  0.2690  0.1215  11.00000  0.05    3.46 
Q13   1   0.5000  0.0000  0.5577  10.25000  0.05    3.39 
Q14   1   0.6045  0.2464  0.1190  11.00000  0.05    3.20 
Q15   1   0.5000  0.0000  0.1746  10.25000  0.05    3.13 
Q16   1   0.7195  0.1191  0.6159  11.00000  0.05    3.12 
Q17   1   0.6141  0.2659  0.4423  11.00000  0.05    3.07 
Q18   1   1.0310  0.0190  0.1969  11.00000  0.05    3.06 
Q19   1   1.0000  0.0000  0.0000  10.25000  0.05    3.05 
Q20   1   0.9161  0.2408  0.1322  11.00000  0.05    3.01 
;
_shelx_res_checksum              93247
_shelx_hkl_file
; 
  -1   1   0    0.20    0.10 
  -1  -1   0    0.00    0.10 
   1  -2   0    2.10    0.40 
  -2  -1   0    1.40    0.30 
   2   1   0    1.40    0.30 
   0  -2   0    6.90    0.70 
   2   0   0    5.70    0.70 
   0   2   0    7.20    0.70 
  -2   0   0    7.40    0.70 
  -2   0   0    5.70    0.70 
   1   2   0    1.80    0.30 
  -2   1   0    2.70    0.30 
   2  -1   0    2.00    0.30 
  -1  -2   0    1.30    0.30 
   2   2   0  400.86   40.20 
   2  -2   0  348.67   36.70 
  -2   2   0  340.97   36.60 
   2   2   0  305.67   35.70 
   2  -2   0  414.46   44.80 
  -2   2   0  384.36   43.30 
   2  -3   0   10.80    1.20 
  -3  -2   0    8.80    1.10 
   3   2   0    9.70    1.10 
  -3  -1   0    0.20    0.20 
   3   1   0    0.30    0.20 
  -3  -1   0    0.40    0.10 
   1  -3   0    0.20    0.40 
  -3   0   0   -0.10    0.20 
   0   3   0    0.50    0.10 
   0  -3   0    0.00    0.10 
  -3   0   0    0.00    0.10 
  -1  -3   0    0.60    0.20 
   1   3   0    0.20    0.20 
  -3   1   0    0.10    0.20 
   3  -1   0    0.40    0.20 
   2   3   0    8.30    1.00 
  -2  -3   0    7.50    1.00 
  -3   2   0   11.20    1.10 
   3   3   0    0.20    0.30 
   3  -3   0   -0.40    0.40 
  -3  -3   0   -0.20    0.30 
  -3   3   0   -0.10    0.40 
  -4  -3   0   64.39    6.80 
   4   3   0   68.99    6.90 
   2  -4   0 9841.02  918.61 
  -4  -2   0 7573.34  903.91 
  -2   4   0 9999.00  916.11 
   4   2   0 8625.94  904.81 
  -4  -1   0  110.29   12.50 
  -4  -1   0  134.09   12.40 
  -4   0   0 5597.24  615.24 
   0  -4   0 6565.34  623.54 
  -4   1   0  143.79   12.90 
  -4   1   0  110.59   12.90 
  -1  -4   0  127.39   12.90 
   4  -1   0  139.59   12.80 
   1   4   0  113.19   12.90 
  -4   2   0 8298.27  797.92 
  -2  -4   0 7323.77  795.22 
   3   4   0   75.49    7.80 
  -4   3   0   86.69    7.90 
  -3  -4   0   68.79    7.80 
   4   4   0  236.68   22.40 
  -4  -4   0  204.58   22.30 
  -5  -4   0    1.50    0.40 
   5   4   0    1.90    0.50 
   4  -5   0    1.10    0.60 
  -5  -3   0    0.10    0.30 
   5   3   0   -0.20    0.30 
   3  -5   0    0.50    0.50 
   5   2   0   30.90    3.50 
  -5  -2   0   31.70    3.50 
   2  -5   0   35.50    3.70 
  -5  -2   0   34.70    3.40 
  -5  -1   0    0.40    0.20 
  -5  -1   0    0.50    0.40 
   1  -5   0    0.60    0.60 
  -1   5   0    0.90    0.20 
  -5   0   0    0.00    0.20 
   0  -5   0    1.20    0.60 
  -5   0   0    0.50    0.40 
   5   0   0    0.70    0.20 
  -5   1   0    0.40    0.30 
   1   5   0    0.90    0.30 
   5  -1   0    0.40    0.20 
  -1  -5   0    1.00    0.30 
  -5   1   0    0.40    0.30 
  -2  -5   0   26.00    2.80 
  -5   2   0   29.30    2.80 
   2   5   0   23.80    2.70 
  -3  -5   0    0.40    0.40 
  -5   3   0    0.10    0.40 
   5  -3   0    0.40    0.30 
   3   5   0    0.30    0.30 
   4   5   0    1.30    0.40 
   5  -4   0    2.80    0.50 
  -4  -5   0    1.20    0.40 
  -5  -5   0    0.60    0.40 
   5   5   0   -0.10    0.40 
   5  -5   0    0.10    0.50 
   5  -6   0  127.39   11.30 
   6   5   0  100.19   11.10 
  -6  -5   0   99.99   11.10 
  -6  -4   0  191.98   21.20 
   6   4   0  225.58   21.20 
   3  -6   0   57.59    5.30 
   6   3   0   45.90    5.10 
  -6  -3   0   50.49    5.00 
  -6  -3   0   44.00    5.10 
   2  -6   0 4192.98  479.65 
   2  -6   0 4852.81  499.75 
  -2   6   0 4715.63  480.15 
  -2   6   0 5312.67  497.55 
   6   2   0 4806.72  486.85 
  -1   6   0    4.90    0.60 
  -6  -1   0    6.30    0.60 
  -6  -1   0    3.60    0.80 
   0   6   0 3666.03  328.67 
   0  -6   0 3278.97  343.57 
  -6   0   0 2843.02  333.37 
  -6   0   0 3012.30  332.67 
   6   0   0 3049.79  325.87 
   0  -6   0 3118.89  328.07 
   6   0   0 3476.35  326.97 
  -1  -6   0    3.50    1.00 
  -6   1   0    4.50    0.70 
   1   6   0    4.90    0.70 
  -6   1   0    3.90    0.80 
  -1  -6   0    5.40    0.70 
   6  -1   0    6.20    0.60 
  -6   2   0 4486.05  456.45 
   2   6   0 4677.03  445.16 
  -6   2   0 4315.27  455.65 
  -2  -6   0 3645.54  453.95 
   6  -2   0 4623.04  444.46 
  -6   3   0   53.39    5.20 
  -6   3   0   45.30    5.20 
   6  -3   0   52.99    5.10 
   3   6   0   46.00    5.10 
  -3  -6   0   48.00    5.10 
  -4  -6   0  176.68   19.00 
   4   6   0  196.08   18.90 
   6  -5   0  119.89   11.60 
   5   6   0  101.79   11.50 
  -5  -6   0  113.19   11.40 
   6  -6   0 7246.27  752.02 
  -6   6   0 7372.96  769.22 
   6   6   0 7568.34  748.03 
   6  -7   0  128.49   12.30 
   7   6   0  115.39   12.10 
  -7  -6   0  111.09   12.10 
   7   5   0    0.30    0.60 
   5  -7   0   -1.00    0.60 
  -7  -5   0   -0.30    0.50 
   4  -7   0    1.70    0.90 
  -7  -4   0    3.60    0.60 
   7   4   0    4.60    0.90 
  -7  -4   0    2.70    0.70 
  -7  -3   0    0.70    0.30 
   3  -7   0    0.10    0.70 
  -7  -3   0    0.20    0.40 
  -7  -2   0   38.60    3.60 
   2  -7   0   34.30    4.00 
  -2   7   0   34.80    3.60 
  -7  -2   0   30.40    3.70 
  -7  -1   0    0.30    0.20 
  -1   7   0    0.30    0.30 
   1  -7   0   -0.40    0.70 
  -7  -1   0   -0.20    0.40 
  -7   0   0    0.00    0.50 
   0   7   0   -0.10    0.30 
   0  -7   0   -0.20    0.60 
  -7   0   0    0.30    0.30 
   7   0   0    0.10    0.20 
  -7   1   0    0.40    0.40 
  -1  -7   0   -0.20    0.30 
  -1  -7   0   -0.10    0.70 
  -2  -7   0   34.10    3.50 
  -2  -7   0   31.10    3.20 
  -7   2   0   28.90    3.30 
   2   7   0   27.80    3.10 
   3   7   0    0.10    0.30 
  -7   3   0    0.10    0.50 
  -7   3   0    0.30    0.60 
  -3  -7   0    0.30    0.50 
  -7   4   0    3.70    0.80 
   4   7   0    2.40    0.60 
  -4  -7   0    2.80    0.70 
  -5  -7   0    0.10    0.60 
   5   7   0    0.00    0.40 
   6   7   0   99.49   10.60 
  -6  -7   0  107.79   10.70 
   7  -7   0   -0.40    0.70 
   7   7   0    0.30    0.60 
  -7  -7   0    0.80    0.60 
   8   7   0    6.60    1.20 
   7  -8   0    9.40    1.50 
  -8  -7   0    7.60    1.20 
   6  -8   0   18.10    2.90 
  -8  -6   0   24.90    2.70 
   8   6   0   27.50    2.80 
  -8  -5   0    7.40    1.00 
  -8  -5   0    5.50    1.00 
   5  -8   0    6.80    1.40 
  -8  -4   0   58.99    5.60 
   4  -8   0   45.70    5.90 
  -8  -3   0   42.20    4.40 
   3  -8   0   45.60    4.90 
   2  -8   0 1008.90  102.09 
  -8  -1   0  182.28   19.10 
   1  -8   0  202.58   19.60 
  -1   8   0  186.08   19.10 
   8   0   0 3987.20  350.96 
   0  -8   0 3460.35  352.26 
   8   0   0 3432.06  349.07 
  -8   0   0 3350.06  357.96 
   0  -8   0 3254.17  370.16 
  -8   0   0 2962.50  359.36 
  -8   1   0  174.38   18.00 
   1   8   0  165.08   18.00 
  -1  -8   0  192.68   18.40 
   8  -1   0  181.48   17.90 
  -8   2   0 1096.49  107.09 
  -2  -8   0 1023.10  107.29 
  -8   3   0   44.60    4.30 
   3   8   0   37.80    4.10 
  -8   3   0   33.10    4.30 
  -3  -8   0   45.70    4.60 
  -3  -8   0   37.70    4.20 
   8  -3   0   42.40    4.10 
  -8   4   0   84.49    8.20 
  -4  -8   0   73.49    8.10 
   4   8   0   79.19    8.10 
   8  -5   0    7.00    1.00 
  -5  -8   0    7.40    1.20 
   5   8   0    6.10    1.00 
  -8   5   0    5.70    1.20 
   8  -6   0   20.70    2.60 
  -8   6   0   28.60    2.80 
  -6  -8   0   23.50    2.70 
   6   8   0   21.00    2.60 
  -8   7   0    4.70    1.10 
   8  -7   0    8.50    1.20 
   7   8   0    6.40    1.10 
  -7  -8   0    7.10    1.10 
  -8   8   0  135.69   13.70 
  -8  -8   0  120.79   13.60 
   8   8   0  142.89   13.70 
   8  -9   0   28.30    3.50 
  -9  -8   0   28.00    3.40 
  -9  -8   0   31.90    3.30 
  -8   9   0   26.60    3.40 
   7  -9   0   -0.50    0.80 
  -9  -7   0   -0.80    0.60 
  -9  -6   0    5.50    1.00 
  -9  -6   0    4.90    0.90 
   6  -9   0    3.10    1.30 
  -9  -5   0    0.30    0.50 
  -9  -5   0    0.00    0.60 
   5  -9   0   -1.20    0.90 
  -9  -4   0    0.50    0.40 
   4  -9   0    0.10    0.90 
  -9  -4   0    0.20    0.60 
  -9  -3   0   -0.10    0.30 
  -3   9   0    0.10    0.40 
   3  -9   0   -0.90    0.80 
  -9  -3   0    0.80    0.60 
  -2   9   0    0.30    0.30 
   2  -9   0    0.60    0.90 
  -9  -2   0    0.50    0.30 
  -9  -2   0    0.30    0.60 
  -9  -1   0    0.30    0.30 
  -1   9   0    0.10    0.30 
   1  -9   0    0.40    1.00 
  -9  -1   0   -0.80    0.50 
   0  -9   0   -0.50    0.80 
   0   9   0    0.40    0.30 
   9   0   0    0.10    0.20 
  -9   0   0    0.80    0.50 
  -9   0   0    1.00    0.70 
  -1  -9   0   -1.10    0.80 
  -9   1   0    0.20    0.50 
  -9   1   0    0.10    0.60 
   1   9   0    0.40    0.40 
   9  -1   0    0.10    0.20 
  -2  -9   0    0.50    0.50 
  -2  -9   0   -0.80    0.80 
   2   9   0    0.10    0.30 
   9  -2   0    0.10    0.30 
  -9   2   0    0.60    0.60 
  -9   2   0    0.70    0.70 
   3   9   0    0.10    0.40 
   9  -3   0   -0.50    0.30 
  -3  -9   0    0.30    0.90 
  -9   3   0   -0.20    0.60 
  -3  -9   0    0.20    0.50 
   4   9   0    0.30    0.40 
  -9   4   0    0.10    0.60 
  -4  -9   0    0.90    0.90 
  -4  -9   0    1.60    0.70 
   9  -4   0    0.90    0.40 
  -9   5   0    0.00    0.60 
   5   9   0   -0.20    0.40 
  -5  -9   0   -1.30    0.80 
   9  -5   0    0.40    0.50 
  -5  -9   0    0.20    0.70 
  -6  -9   0    3.80    0.90 
  -9   6   0    3.60    0.90 
  -6  -9   0    5.00    1.30 
   9  -6   0    4.60    0.80 
  -9   7   0   -0.20    0.70 
  -7  -9   0    0.70    0.90 
   9  -7   0    0.40    0.70 
  -7  -9   0    1.00    0.80 
   7   9   0   -0.50    0.50 
  -8  -9   0   31.70    3.30 
   9  -8   0   32.20    3.40 
  -8  -9   0   27.80    3.50 
  -9   8   0   27.90    3.40 
   8   9   0   25.30    3.20 
   9  -9   0    0.00    1.00 
  -9  -9   0   -0.40    0.90 
  -9  -9   0   -0.70    0.70 
  -9   9   0   -0.80    0.80 
  -9  10   0   10.80    1.90 
 -10  -9   0   13.50    1.90 
   9 -10   0   15.50    2.20 
 -10  -9   0   15.60    2.10 
 -10  -8   0  481.95   47.20 
 -10  -8   0  448.86   47.10 
 -10  -7   0   38.10    3.80 
 -10  -7   0   33.40    3.90 
   7 -10   0   30.90    4.10 
 -10  -6   0  464.35   44.60 
 -10  -6   0  415.56   44.50 
 -10  -5   0   91.29   10.10 
 -10  -5   0  102.99   10.00 
   4 -10   0 1016.00  111.19 
 -10  -4   0 1174.98  110.79 
   3 -10   0    9.30    2.00 
  -3  10   0   14.30    1.50 
 -10  -3   0   11.40    1.70 
 -10  -3   0   11.80    1.40 
   2 -10   0    9.00    2.20 
 -10  -2   0   18.50    2.00 
  -2  10   0   14.90    1.70 
   1 -10   0    3.40    1.30 
 -10  -1   0    3.20    0.90 
 -10  -1   0    3.50    0.60 
  -1  10   0    3.20    0.60 
  10   0   0   94.39    9.40 
   0 -10   0   72.99    9.90 
   0  10   0  104.59    9.50 
 -10   1   0    4.30    0.80 
  -1 -10   0    2.70    1.20 
  10  -1   0    3.90    0.50 
   1  10   0    2.90    0.60 
 -10   1   0    2.90    0.90 
  10  -2   0   10.50    1.30 
 -10   2   0   15.60    1.70 
  -2 -10   0   11.10    2.10 
  10  -3   0   13.40    1.50 
   3  10   0   13.30    1.50 
 -10   3   0   11.90    1.80 
  -3 -10   0   13.10    1.60 
  -3 -10   0   11.10    2.20 
  -4 -10   0 1390.26  140.29 
 -10   5   0   83.99   10.20 
  -5 -10   0  105.69   10.50 
  -5 -10   0  107.99   10.10 
   5  10   0   90.59   10.00 
  10  -5   0  102.79   10.10 
  10  -6   0  401.06   45.10 
  -6 -10   0  457.95   45.10 
 -10   6   0  479.75   45.30 
  10  -7   0   36.30    3.80 
 -10   7   0   28.80    3.80 
  -7 -10   0   42.80    4.20 
  -7 -10   0   36.20    3.90 
   7  10   0   30.40    3.70 
 -10   8   0  493.25   50.69 
  -8 -10   0  491.05   50.59 
   8  10   0  512.75   50.59 
  -9 -10   0   14.40    2.10 
 -10   9   0    9.20    1.90 
  10  -9   0   10.50    2.00 
  -9 -10   0   15.70    1.90 
  10 -10   0   14.20    2.10 
 -10 -10   0   12.50    2.10 
 -10  11   0    7.20    1.50 
 -11 -10   0    6.80    1.40 
 -11 -10   0    7.50    1.50 
 -11 -10   0    7.90    1.30 
  -9  11   0    1.00    0.90 
 -11  -9   0    0.00    0.60 
 -11  -9   0    0.40    0.90 
 -11  -9   0    0.00    0.70 
  -8  11   0   15.80    2.30 
 -11  -8   0   15.40    2.20 
 -11  -8   0   17.10    2.20 
 -11  -8   0   17.70    2.20 
 -11  -7   0   -0.50    0.60 
 -11  -7   0    0.40    0.70 
   7 -11   0   -0.10    1.00 
 -11  -7   0   -0.20    0.70 
 -11  -6   0    2.50    0.90 
 -11  -6   0    1.60    0.70 
   6 -11   0    2.80    1.40 
   5 -11   0    1.10    1.40 
  -5  11   0   -0.80    0.40 
 -11  -5   0    0.20    0.50 
 -11  -5   0   -0.10    0.70 
 -11  -4   0   49.30    5.70 
 -11  -4   0   57.39    5.50 
  -4  11   0   52.39    5.60 
 -11  -3   0    0.80    0.40 
   3 -11   0    0.50    1.10 
 -11  -3   0    0.00    0.80 
   2 -11   0    0.10    1.10 
  -2  11   0    0.40    0.40 
 -11  -2   0    0.50    0.70 
  -1  11   0    0.40    0.40 
 -11  -1   0   -0.60    0.60 
   1 -11   0   -0.60    1.10 
 -11   0   0    1.30    0.80 
   0  11   0   -0.20    0.40 
   0 -11   0    0.90    1.20 
 -11   0   0   -0.20    0.50 
  -1 -11   0   -0.50    1.10 
   1  11   0   -0.30    0.30 
  11  -1   0    0.00    0.20 
 -11   1   0    0.70    0.70 
  11  -2   0    0.80    0.30 
   2  11   0    0.70    0.40 
  -2 -11   0    1.50    1.30 
 -11   2   0    0.70    0.70 
  -3 -11   0    0.70    0.50 
   3  11   0    0.30    0.40 
 -11   3   0    0.30    0.90 
  11  -3   0   -0.40    0.40 
  -3 -11   0   -1.20    1.20 
  -4 -11   0   40.80    5.70 
  -4 -11   0   49.30    5.00 
   4  11   0   42.80    4.90 
 -11   4   0   47.30    5.20 
  11  -4   0   54.59    5.10 
  -5 -11   0    0.30    0.70 
  11  -5   0    0.00    0.50 
 -11   5   0   -0.70    0.80 
  -5 -11   0   -1.60    1.20 
   5  11   0    0.00    0.40 
  11  -6   0    2.30    0.70 
  -6 -11   0    3.50    0.80 
 -11   6   0    0.80    0.90 
  -6 -11   0    0.10    1.70 
  -7 -11   0    0.10    0.80 
   7  11   0    0.60    0.50 
  11  -7   0   -0.30    0.60 
 -11   7   0   -0.90    0.70 
 -11   8   0   10.40    2.00 
  -8 -11   0   13.30    2.50 
  11  -8   0   17.00    1.90 
  -8 -11   0   14.20    1.90 
  -9 -11   0   -0.10    0.70 
  -9 -11   0   -1.00    1.10 
  11  -9   0    0.20    0.70 
 -11   9   0    0.10    0.80 
 -10 -11   0    7.60    1.30 
  11 -10   0    5.60    1.40 
 -11  11   0    1.00    0.90 
 -11 -11   0   -0.20    0.80 
 -12 -11   0   17.80    2.20 
 -11  12   0   10.10    2.10 
 -12 -11   0   15.20    2.00 
 -10  12   0   19.60    2.50 
 -12 -10   0   19.30    2.40 
 -12 -10   0   14.00    2.40 
 -12 -10   0   21.50    2.50 
  -9  12   0    1.20    0.90 
 -12  -9   0    2.00    0.90 
 -12  -9   0    1.50    0.90 
 -12  -9   0    1.10    0.70 
 -12  -8   0  238.48   25.40 
  -8  12   0  259.07   25.50 
 -12  -7   0    0.00    0.60 
 -12  -7   0    0.80    0.70 
  -7  12   0   -0.40    0.70 
 -12  -6   0  207.28   19.50 
 -12  -6   0  191.58   19.40 
 -12  -6   0  178.08   19.40 
  -6  12   0  185.98   19.40 
 -12  -5   0    0.60    0.80 
  -5  12   0    0.50    0.50 
 -12  -5   0    0.50    0.50 
  -4  12   0  327.67   32.90 
 -12  -4   0  348.27   33.10 
 -12  -4   0  301.37   32.80 
 -12  -3   0   18.30    2.50 
  -3  12   0   21.30    2.30 
 -12  -2   0   26.90    3.30 
  -2  12   0   28.20    3.00 
   1 -12   0   36.80    5.10 
 -12  -1   0   37.50    4.60 
  -1  12   0   45.90    4.40 
   0 -12   0 1306.67  154.08 
   0  12   0 1731.33  153.68 
  12  -1   0   45.10    4.40 
   1  12   0   44.20    4.40 
 -12   1   0   38.00    4.80 
  -1 -12   0   39.30    5.10 
   2  12   0   25.90    2.70 
  12  -2   0   25.20    2.70 
 -12   2   0   26.60    3.10 
  -3 -12   0   17.60    3.10 
   3  12   0   21.80    2.30 
  12  -3   0   23.50    2.30 
 -12   3   0   17.10    2.70 
  -4 -12   0  347.67   35.70 
   4  12   0  357.56   35.60 
 -12   4   0  350.96   35.90 
   5  12   0   -0.10    0.40 
 -12   5   0   -0.40    0.80 
  -5 -12   0    0.50    0.60 
  -5 -12   0   -0.50    1.10 
  12  -5   0    0.90    0.50 
  -6 -12   0  216.28   20.10 
 -12   6   0  203.58   20.30 
  12  -6   0  191.38   20.00 
  -6 -12   0  173.78   20.40 
  12  -7   0   -0.50    0.60 
   7  12   0   -0.40    0.50 
  -7 -12   0   -0.20    1.10 
  -7 -12   0    1.40    0.90 
 -12   7   0    0.90    1.50 
 -12   8   0  221.08   23.10 
  -8 -12   0  224.38   22.90 
  12  -8   0  227.78   22.90 
  -9 -12   0    1.40    1.10 
  -9 -12   0    2.10    0.80 
 -12   9   0    0.70    0.90 
  12  -9   0    1.70    0.80 
 -10 -12   0   12.60    2.50 
 -12  10   0   20.60    2.50 
 -10 -12   0   19.10    2.30 
 -11 -12   0   17.00    2.20 
 -12  11   0   12.00    2.20 
 -11 -12   0   14.90    2.30 
 -12 -12   0  250.27   26.70 
 -12 -12   0  275.47   26.80 
 -12  12   0  260.17   26.90 
 -13 -12   0    2.60    0.90 
 -13 -12   0    1.40    1.10 
 -13 -11   0   -0.70    1.00 
 -11  13   0   -0.60    0.90 
 -13 -11   0   -0.40    0.90 
 -13 -11   0    0.40    0.70 
 -13 -10   0    1.70    0.80 
 -13 -10   0    0.00    0.90 
 -13 -10   0    0.20    0.90 
 -10  13   0    0.50    1.10 
  -9  13   0    0.20    0.90 
 -13  -9   0   -0.20    0.60 
 -13  -9   0    0.60    0.90 
 -13  -9   0   -0.20    0.80 
  -8  13   0   16.50    2.50 
 -13  -8   0   20.60    2.40 
 -13  -8   0   17.20    2.40 
 -13  -8   0   19.20    2.30 
 -13  -7   0   -0.10    0.80 
  -7  13   0    0.80    0.60 
 -13  -7   0    1.00    0.70 
 -13  -7   0    0.10    0.50 
  -7  13   0    0.50    0.80 
 -13  -6   0    0.60    0.80 
  -6  13   0    0.40    0.50 
 -13  -6   0    0.80    0.60 
 -13  -6   0    0.20    0.50 
 -13  -5   0    0.50    0.50 
  -5  13   0    0.50    0.50 
 -13  -5   0    0.10    0.40 
 -13  -5   0    0.30    0.70 
 -13  -4   0    0.10    0.70 
  -4  13   0    0.10    0.50 
 -13  -3   0    0.60    0.80 
  -3  13   0    0.70    0.50 
  -2  13   0    2.80    0.60 
 -13  -2   0    2.90    1.00 
 -13  -1   0    0.40    0.90 
  -1  13   0    0.10    0.40 
 -13   0   0   -1.40    0.80 
   0  13   0    0.30    0.40 
 -13   1   0   -0.70    0.90 
   1  13   0    0.10    0.30 
  13  -2   0    2.90    0.40 
   2  13   0    1.90    0.50 
  13  -3   0    0.20    0.30 
   3  13   0    0.00    0.30 
 -13   3   0   -0.10    0.90 
   4  13   0    0.10    0.30 
 -13   4   0    0.70    0.80 
   5  13   0    0.10    0.40 
 -13   5   0   -0.90    0.70 
  -5 -13   0    0.40    0.60 
  13  -5   0    0.70    0.50 
 -13   6   0   -0.70    0.80 
  -6 -13   0    0.30    0.60 
  13  -6   0    0.00    0.50 
 -13   7   0    0.70    0.90 
  -7 -13   0    0.30    0.70 
  13  -7   0    0.80    0.70 
 -13   8   0   13.70    2.40 
  13  -8   0   22.70    2.30 
  -8 -13   0   17.60    2.20 
  -9 -13   0    0.00    0.70 
  13  -9   0   -0.20    0.70 
 -13   9   0    0.40    0.90 
 -10 -13   0    0.10    0.70 
 -13  10   0    0.60    0.90 
 -13  11   0    1.50    1.20 
 -11 -13   0   -0.80    0.70 
 -12 -13   0    1.80    0.80 
 -12 -13   0    2.80    1.00 
 -13  12   0    1.10    1.10 
 -13  13   0    0.40    0.90 
 -13 -13   0   -0.40    0.70 
 -12  14   0    1.00    1.10 
 -14 -12   0    5.80    1.40 
 -14 -12   0    2.10    0.80 
 -14 -11   0    0.40    0.70 
 -11  14   0    0.20    0.90 
 -14 -11   0    1.40    1.00 
 -14 -11   0   -0.60    0.90 
 -14 -10   0    0.80    0.70 
 -14 -10   0    0.10    0.80 
 -10  14   0    2.30    1.00 
 -14 -10   0    4.60    1.20 
 -14  -9   0    0.20    0.70 
  -9  14   0   -0.60    0.80 
 -14  -9   0    0.40    0.90 
  -8  14   0   42.70    4.90 
 -14  -8   0   50.79    4.90 
  -7  14   0   19.20    2.40 
 -14  -7   0   16.90    2.10 
 -14  -7   0   18.00    2.20 
 -14  -7   0   19.20    2.50 
  -7  14   0   19.60    2.60 
  -6  14   0  189.68   17.70 
 -14  -6   0  158.38   17.60 
  -5  14   0    8.00    1.10 
 -14  -5   0    4.50    1.30 
  -4  14   0  116.09   12.20 
 -14  -4   0  124.69   12.50 
 -14  -3   0    5.60    1.30 
  -3  14   0    6.70    1.00 
  -2  14   0   25.50    3.00 
 -14  -2   0   29.80    3.30 
 -14  -1   0   -0.10    0.80 
  -1  14   0    0.20    0.40 
   0  14   0   12.80    1.50 
 -14   0   0   15.90    2.10 
 -14   1   0    0.00    0.70 
   1  14   0   -0.30    0.30 
  14  -2   0   22.90    2.70 
   2  14   0   30.20    2.80 
   3  14   0    7.10    0.90 
  14  -3   0    6.50    0.90 
 -14   3   0    5.40    1.40 
   4  14   0  128.69   13.10 
   5  14   0    7.20    1.00 
  14  -5   0    7.40    1.10 
 -14   5   0    6.20    1.50 
  14  -6   0  190.88   22.30 
  -6 -14   0  224.08   22.30 
 -14   6   0  249.48   22.70 
  -7 -14   0   20.00    2.30 
  14  -7   0   21.30    2.30 
 -14   7   0   13.30    2.70 
  -8 -14   0   57.19    5.90 
 -14   8   0   53.79    6.30 
  -9 -14   0   -0.30    0.50 
  14  -9   0    0.80    0.80 
 -14   9   0   -1.10    0.80 
 -14  10   0    1.40    1.00 
 -10 -14   0    1.60    0.70 
 -11 -14   0    0.70    0.70 
 -14  11   0    0.10    0.90 
 -12 -14   0    0.80    0.70 
 -12 -14   0    1.30    0.80 
 -14  12   0    0.90    1.00 
 -15 -10   0    0.10    0.90 
 -10  15   0    0.30    0.80 
 -15 -10   0   -0.50    0.60 
 -15  -9   0   -0.10    0.50 
 -15  -9   0    1.30    0.90 
  -9  15   0   -0.20    0.80 
 -15  -8   0    1.80    0.60 
  -8  15   0    1.80    0.80 
  -8  15   0    1.20    0.60 
 -15  -8   0    0.90    0.90 
 -15  -8   0    0.80    0.50 
 -15  -7   0    0.50    0.80 
  -7  15   0   -0.80    0.70 
  -7  15   0   -0.30    0.50 
 -15  -6   0    1.60    0.90 
  -6  15   0    0.60    0.70 
  -6  15   0    1.20    0.60 
  -5  15   0   -0.10    0.50 
 -15  -5   0    0.00    0.80 
  -5  15   0   -0.30    0.60 
 -15  -4   0    2.50    0.90 
  -4  15   0    0.70    0.50 
  -3  15   0    0.00    0.50 
 -15  -3   0    0.80    0.90 
 -15  -2   0    3.80    1.20 
 -15  -1   0    0.20    0.80 
  -1  15   0    0.00    0.40 
   0  15   0   -0.10    0.30 
 -15   0   0    0.80    0.90 
   1  15   0   -0.10    0.30 
 -15   1   0    0.20    0.90 
   2  15   0    4.00    0.60 
 -15   2   0    3.70    1.20 
   3  15   0   -0.20    0.30 
  15  -3   0    0.40    0.30 
 -15   4   0    0.80    1.00 
  15  -4   0    1.50    0.50 
 -15   5   0    0.10    0.90 
  15  -5   0   -0.40    0.50 
 -15   6   0    4.10    1.30 
  15  -6   0    3.20    0.70 
  15  -7   0    0.30    0.60 
 -15   7   0   -0.50    0.80 
  -7 -15   0    0.40    0.50 
 -15   8   0    1.20    0.90 
 -15   9   0   -0.20    0.70 
  -9 -15   0   -0.30    0.50 
  15  -9   0    0.10    0.80 
 -10 -15   0    0.10    0.50 
 -15  10   0   -0.70    0.80 
  -9  16   0    1.00    0.90 
 -16  -9   0    1.10    0.90 
  -8  16   0    0.70    0.80 
 -16  -8   0    0.80    0.90 
  -7  16   0   -0.70    0.60 
  -7  16   0    0.00    0.50 
 -16  -7   0    0.30    0.80 
 -16  -6   0    7.60    1.50 
  -6  16   0    8.50    1.30 
  -6  16   0    7.10    1.10 
  -5  16   0   -0.50    0.40 
 -16  -5   0    0.40    0.80 
  -5  16   0    0.30    0.60 
 -16  -4   0    1.20    0.80 
  -4  16   0    2.40    0.70 
  -4  16   0    0.80    0.50 
  -3  16   0    1.80    0.50 
 -16  -3   0    3.50    1.20 
 -16  -2   0  163.28   14.60 
  -2  16   0  123.09   14.20 
  -1  16   0    6.60    0.90 
 -16  -1   0    5.40    1.50 
 -16   0   0   77.69    7.30 
   0  16   0   61.49    6.80 
 -16   1   0    4.20    1.40 
 -16   2   0  154.18   16.10 
 -16   3   0    0.90    1.00 
 -16   4   0    5.30    1.40 
  16  -5   0    0.10    0.50 
 -16   5   0   -0.20    0.80 
  16  -6   0    7.80    1.10 
 -16   6   0    8.50    1.70 
 -16   7   0   -1.80    0.70 
  16  -7   0    0.20    0.60 
 -16   8   0   -0.10    0.80 
  -8 -16   0    0.80    0.40 
 -16   9   0   -0.10    1.10 
 -17  -7   0   -0.10    0.80 
  -7  17   0   -0.70    0.60 
 -17  -6   0    0.10    0.90 
  -6  17   0    1.40    0.70 
  -6  17   0    1.90    1.00 
  -5  17   0    0.00    0.50 
  -5  17   0   -0.50    0.50 
 -17  -5   0   -0.50    0.80 
  -4  17   0    1.10    0.60 
  -4  17   0    1.20    0.50 
 -17  -4   0    1.10    0.90 
  -3  17   0    0.00    0.40 
 -17  -3   0   -0.50    0.70 
 -17  -2   0    0.60    1.00 
  -2  17   0    0.20    0.40 
  -2  17   0    0.20    0.40 
  -1  17   0   -0.20    0.30 
 -17  -1   0   -0.50    0.80 
  -1  17   0    0.40    0.30 
 -17   0   0   -1.00    0.90 
 -17   1   0    1.20    1.00 
 -17   2   0   -0.20    1.00 
 -17   3   0    1.50    1.10 
 -17   4   0    2.30    1.40 
 -17   6   0   -0.40    1.00 
 -17   7   0   -0.50    0.80 
 -18  -4   0    3.30    1.20 
 -18  -3   0   -0.60    0.90 
  -3  18   0    0.30    0.40 
 -18  -2   0   33.70    4.10 
 -18  -1   0   -0.80    0.90 
 -18   0   0   21.20    2.80 
 -18   1   0    0.00    1.00 
 -18   2   0   37.50    4.50 
 -18   3   0    0.20    1.10 
 -18   4   0    5.40    1.60 
   0  -1  -1    0.00    0.10 
   0  -1  -1    0.00    0.10 
  -1   0   1    0.10    0.10 
   0  -1   1   -0.10    0.10 
  -1  -1  -1    2.20    0.30 
  -1   1  -1    1.50    0.20 
   1   1   1    2.20    0.30 
   1  -1   1    1.20    0.20 
   1  -2  -1   26.10    2.70 
  -2  -1  -1   27.00    2.70 
  -1   2  -1   30.10    2.60 
   2   1  -1   23.40    2.60 
  -2  -1  -1   22.30    2.60 
   2   1   1   25.70    2.60 
   2   1   1   27.50    2.70 
  -2  -1   1   23.10    2.60 
  -1   2   1   27.80    2.70 
  -2   0  -1    6.10    0.70 
   0  -2  -1    5.60    0.70 
   2   0  -1    6.00    0.60 
   0  -2  -1    5.70    0.70 
   0   2   1    7.30    0.70 
  -2   0   1    6.50    0.60 
   2   0   1    5.10    0.70 
   0   2   1    5.30    0.70 
  -1  -2  -1   22.20    2.60 
  -1  -2  -1   24.50    2.60 
   2  -1  -1   22.60    2.60 
  -2   1  -1   26.10    2.60 
   1   2   1   28.10    2.60 
   2  -1   1   28.00    2.60 
  -2   1   1   23.40    2.60 
   1   2   1   22.90    2.60 
  -1  -2   1   28.90    2.60 
  -2  -2  -1   84.89    7.70 
  -2   2  -1   71.99    7.70 
  -2  -2  -1   73.69    7.70 
   2   2   1   70.19    7.70 
  -2  -2   1   71.19    7.70 
  -2   2   1   82.39    7.70 
   2  -3  -1  181.28   19.80 
  -2   3  -1  189.88   19.80 
  -3  -2  -1  199.18   19.80 
  -3  -2  -1  195.18   19.80 
  -3  -2   1  196.78   19.80 
  -3  -2   1  196.08   19.80 
  -2   3   1  192.18   19.80 
   3   2   1  212.58   19.80 
  -3  -1  -1  178.78   19.80 
  -3  -1  -1  204.88   19.90 
  -1   3   1  191.88   19.80 
  -1   3   1  189.48   19.90 
   3   1   1  217.08   19.90 
   3   0  -1    0.20    0.10 
  -3   0  -1    0.10    0.20 
   0  -3  -1    0.00    0.20 
   0  -3  -1    0.60    0.40 
  -3   0   1    0.30    0.20 
   3   0   1    0.50    0.20 
   0   3   1    0.30    0.20 
   0   3   1    0.40    0.40 
  -1  -3  -1  186.48   19.70 
  -3   1  -1  213.78   19.70 
  -1  -3  -1  172.18   19.70 
   3  -1   1  216.78   19.70 
   1   3   1  185.98   19.70 
   1   3   1  209.68   19.70 
   3  -1   1  191.18   19.70 
  -1  -3   1  180.98   19.60 
  -3   2  -1  208.38   18.90 
   3  -2  -1  201.58   18.90 
  -2  -3  -1  166.08   18.90 
  -2  -3  -1  182.88   18.90 
   2   3  -1  188.28   18.80 
  -2  -3   1  171.58   18.80 
   3  -2   1  189.58   18.90 
  -3   2   1  206.28   18.90 
   2   3   1  161.88   18.90 
   3  -3  -1    0.70    0.30 
  -3   3  -1    0.00    0.30 
  -3  -3  -1    0.80    0.40 
  -3  -3  -1    1.20    0.40 
  -3  -3   1    1.80    0.30 
   3  -3   1    1.00    0.50 
  -3   3   1    1.10    0.40 
   3  -4  -1   39.20    4.00 
  -4  -3  -1   34.90    3.90 
  -4  -3  -1   37.60    3.90 
   3  -4   1   39.20    4.10 
   4   3   1   38.20    4.00 
  -4  -3   1   36.50    3.90 
  -3   4   1   38.50    4.00 
   2  -4  -1  146.69   13.80 
  -4  -2  -1  126.69   13.70 
  -2   4   1  157.38   13.80 
  -4  -2   1  122.39   13.70 
  -4  -2   1  141.59   13.70 
   4   2   1  116.49   13.70 
   4   1  -1  281.47   29.80 
  -4  -1  -1  299.17   29.90 
   1  -4  -1  297.67   30.00 
  -4  -1   1  298.87   29.90 
  -4  -1   1  291.17   29.80 
  -1   4   1  301.57   29.80 
   4   1   1  297.27   29.90 
   4   0  -1   78.49    7.10 
  -4   0  -1   70.49    7.20 
   0  -4  -1   64.89    7.10 
   0  -4  -1   64.59    7.30 
   0   4  -1   62.49    7.10 
  -4   0   1   77.89    7.10 
   4   0   1   70.29    7.20 
   0   4   1   65.99    7.10 
   0   4   1   77.19    7.30 
  -4   1  -1  286.17   30.50 
   4  -1  -1  294.47   30.40 
   1   4  -1  330.37   30.40 
  -1  -4  -1  312.67   30.60 
  -1  -4  -1  295.47   30.50 
   1   4   1  284.97   30.50 
   4  -1   1  309.97   30.40 
  -4   1   1  287.67   30.50 
  -1  -4   1  299.17   30.40 
   4  -1   1  313.97   30.50 
   2   4  -1  117.19   12.20 
   4  -2  -1  143.69   12.20 
  -4   2  -1  116.29   12.20 
  -2  -4  -1  144.29   12.40 
  -2  -4  -1  104.69   12.20 
   2   4   1  111.99   12.20 
  -2  -4   1  105.99   12.20 
  -3  -4  -1   38.40    4.00 
   3   4  -1   44.40    3.90 
   4  -3  -1   37.40    3.90 
  -3  -4  -1   34.00    4.00 
  -4   3  -1   37.90    4.00 
   4  -3   1   35.80    4.00 
  -3  -4   1   37.20    3.90 
   3   4   1   35.90    3.90 
  -4   3   1   37.90    4.00 
  -4  -4  -1   14.90    1.60 
   4  -4  -1   15.20    1.60 
  -4   4  -1   12.80    1.50 
  -4  -4  -1   11.80    1.50 
  -4  -4   1   11.40    1.40 
   4  -4   1   15.20    1.70 
  -4   4   1   15.40    1.60 
   4   4   1   12.20    1.50 
  -5  -4  -1   70.99    7.30 
   4  -5  -1   69.39    7.40 
  -5  -4  -1   74.79    7.40 
  -5  -4   1   73.99    7.30 
   4  -5   1   61.79    7.40 
   5   4   1   76.99    7.40 
  -4   5   1   68.09    7.40 
   3  -5  -1  472.95   48.50 
   3  -5   1  460.75   48.50 
  -3   5   1  501.55   48.50 
  -5  -2  -1   42.50    4.30 
  -5  -2   1   37.40    4.20 
  -5  -2   1   43.40    4.30 
   5   2   1   47.10    4.40 
  -2   5   1   37.00    4.40 
   5   1  -1   69.19    7.20 
  -5  -1  -1   71.39    7.30 
  -1   5   1   67.59    7.20 
  -5  -1   1   67.19    7.20 
  -5  -1   1   72.89    7.30 
   5   1   1   75.59    7.40 
  -1   5   1   76.79    7.40 
   0  -5  -1    0.30    0.30 
  -5   0  -1   -0.30    0.30 
   0  -5  -1    0.30    0.50 
   5   0  -1    0.30    0.20 
  -5   0   1    0.40    0.20 
   5   0   1    0.50    0.30 
   0   5   1    1.10    0.30 
   1   5  -1   66.19    6.60 
   5  -1  -1   65.09    6.70 
  -1  -5  -1   67.29    6.70 
  -1  -5   1   65.69    6.60 
   5  -1   1   66.09    6.60 
   1   5   1   64.49    6.70 
  -5   1   1   63.69    6.70 
  -5   2  -1   42.60    4.00 
   5  -2  -1   36.80    3.90 
  -2  -5  -1   33.00    4.10 
   2   5  -1   42.90    3.90 
  -2  -5  -1   33.40    3.90 
  -5   2   1   38.00    3.90 
   2   5   1   36.70    3.90 
  -2  -5   1   34.40    3.90 
   5  -2   1   39.00    3.90 
  -3  -5  -1  488.75   49.90 
  -3  -5  -1  470.95   49.90 
  -3  -5   1  509.95   49.80 
   5  -3   1  505.45   49.80 
   3   5   1  491.15   49.80 
  -5   3   1  489.55   49.80 
   4   5  -1   75.39    7.20 
   5  -4  -1   73.99    7.30 
  -5   4  -1   76.89    7.30 
  -4  -5  -1   69.99    7.40 
  -4  -5  -1   61.69    7.30 
   5  -4   1   74.19    7.30 
  -5   4   1   73.89    7.30 
   4   5   1   65.39    7.30 
  -4  -5   1   64.39    7.20 
  -5  -5  -1    1.70    0.50 
  -5   5  -1   -0.30    0.40 
  -5  -5  -1    3.70    0.80 
  -5   5   1    0.00    0.60 
  -5  -5   1    0.20    0.30 
   5  -5   1    1.10    0.60 
   5   5   1    1.00    0.50 
  -5   6  -1   26.70    3.10 
  -6  -5  -1   24.50    3.10 
  -6  -5  -1   34.40    3.20 
   5  -6  -1   33.90    3.20 
  -6  -5   1   25.70    3.10 
  -5   6   1   35.90    3.40 
   5  -6   1   30.40    3.30 
   6   5   1   23.90    3.10 
   4  -6  -1   28.70    3.10 
  -6  -4  -1   25.20    3.00 
  -4   6   1   31.20    3.10 
  -6  -4   1   26.50    2.90 
   4  -6   1   28.70    3.20 
  -6  -4   1   25.60    2.90 
  -6  -3  -1   69.79    7.80 
   3  -6  -1   82.39    8.00 
  -6  -3   1   76.49    7.70 
  -6  -3   1   68.89    7.80 
   3  -6   1   85.09    8.00 
  -6  -2  -1   30.00    2.90 
  -6  -2  -1   26.70    3.10 
   2  -6  -1   26.60    3.20 
   2  -6   1   35.10    3.30 
  -6  -2   1   29.40    2.90 
  -6  -2   1   23.40    3.00 
  -2   6   1   28.90    3.00 
  -1   6  -1   57.99    5.50 
  -6  -1  -1   54.39    5.60 
   6   1  -1   52.39    5.50 
   1  -6  -1   48.60    5.70 
  -6  -1   1   52.09    5.50 
  -1   6   1   56.59    5.50 
  -6  -1   1   53.29    5.60 
   0  -6  -1   22.60    2.50 
   0   6  -1   22.50    2.40 
  -6   0  -1   24.30    2.60 
   6   0  -1   25.30    2.40 
   0   6   1   20.80    2.50 
  -6   0   1   26.50    2.50 
  -6   0   1   23.20    2.60 
  -1  -6  -1   54.09    5.60 
  -6   1  -1   56.59    5.60 
  -1  -6  -1   54.29    5.80 
   6  -1  -1   52.19    5.50 
   1   6  -1   54.79    5.50 
   1   6   1   55.29    5.50 
  -6   1   1   51.99    5.50 
   6  -1   1   53.59    5.50 
   6  -2  -1   30.90    2.70 
   2   6  -1   23.70    2.60 
  -6   2  -1   24.70    2.80 
  -2  -6  -1   30.70    3.00 
  -2  -6  -1   24.40    2.80 
   2   6   1   22.90    2.70 
  -2  -6   1   23.20    2.70 
   3   6  -1   80.79    8.00 
   6  -3  -1   78.79    8.00 
  -3  -6  -1   86.59    8.20 
  -3  -6  -1   72.19    8.10 
  -6   3  -1   72.59    8.10 
   3   6   1   72.89    8.00 
  -6   3   1   83.09    8.10 
   6  -3   1   83.99    8.00 
  -3  -6   1   74.39    8.00 
   6  -4  -1   25.80    2.90 
  -4  -6  -1   27.80    3.10 
  -6   4  -1   28.60    3.00 
  -4  -6  -1   26.50    3.10 
   6  -4   1   29.10    3.00 
  -4  -6   1   26.70    2.90 
   4   6   1   29.20    3.00 
  -6   4   1   26.50    3.00 
   6  -5  -1   30.50    3.20 
  -5  -6  -1   29.10    3.20 
  -6   5  -1   25.10    3.20 
  -5  -6  -1   33.60    3.30 
   5   6  -1   27.60    3.10 
   5   6   1   25.10    3.10 
   6  -5   1   34.20    3.30 
  -5  -6   1   27.40    3.10 
  -6   5   1   32.30    3.30 
  -6  -6  -1    2.70    0.90 
  -6   6  -1    2.80    1.00 
   6  -6  -1    5.10    1.00 
  -6  -6  -1    3.90    1.00 
   6   6   1    3.10    0.80 
  -6   6   1    4.60    1.30 
  -6  -6   1    2.70    0.70 
   6  -6   1    4.40    1.00 
  -7  -6  -1   13.80    2.00 
   6  -7  -1   14.20    2.00 
  -7  -6  -1   15.70    2.10 
  -6   7  -1   18.40    2.00 
   7   6   1   17.90    2.10 
   6  -7   1   13.20    2.10 
  -7  -6   1   15.90    1.90 
   5  -7  -1   31.20    3.70 
  -7  -5  -1   34.70    3.60 
   5  -7   1   31.80    3.80 
   7   5   1   33.70    3.60 
  -7  -5   1   32.30    3.50 
  -7  -5   1   33.20    3.50 
  -7  -4  -1  186.98   19.40 
   4  -7  -1  172.78   19.40 
  -7  -4   1  197.48   19.30 
  -7  -4   1  199.68   19.30 
   7   4   1  211.48   19.40 
   4  -7   1  166.48   19.50 
  -7  -3  -1  142.79   14.80 
   3  -7  -1  129.29   15.00 
  -7  -3  -1  165.08   15.00 
  -7  -3   1  144.49   14.80 
   3  -7   1  139.09   15.10 
  -7  -3   1  155.68   14.90 
  -7  -2  -1   37.90    3.60 
  -7  -2  -1   34.80    3.90 
   2  -7  -1   34.30    4.00 
  -7  -2   1   35.90    3.80 
   2  -7   1   35.20    4.10 
   7   2   1   33.90    3.90 
  -2   7   1   32.90    3.70 
  -7  -2   1   38.50    3.70 
  -1   7  -1   20.20    2.10 
  -7  -1  -1   21.60    2.40 
   1  -7  -1   19.20    2.50 
  -7  -1   1   18.00    2.10 
  -1   7   1   20.20    2.10 
  -7  -1   1   20.60    2.20 
   7   1   1   22.60    2.30 
   0  -7  -1    0.50    0.80 
   7   0  -1   -0.10    0.20 
   0   7  -1   -0.20    0.20 
  -7   0   1    0.10    0.40 
   0   7   1    0.10    0.30 
  -7   0   1    0.00    0.30 
   1   7  -1   20.70    2.00 
   7  -1  -1   18.90    2.10 
  -1  -7  -1   21.50    2.50 
  -1  -7  -1   19.40    2.20 
  -7   1   1   17.20    2.10 
   7  -1   1   19.00    2.00 
   1   7   1   21.10    2.10 
   2   7  -1   30.50    3.50 
  -2  -7  -1   34.50    3.70 
   7  -2  -1   38.80    3.60 
  -2  -7  -1   36.60    3.90 
  -7   2  -1   33.50    3.70 
  -2  -7   1   31.50    3.60 
   7  -2   1   38.10    3.60 
   2   7   1   30.10    3.60 
  -7   2   1   38.20    3.70 
   7  -3  -1  142.79   15.00 
  -3  -7  -1  139.89   15.30 
  -7   3  -1  164.68   15.20 
  -3  -7  -1  146.29   15.10 
  -3  -7   1  147.69   15.10 
   3   7   1  159.68   15.20 
   7  -3   1  143.39   15.00 
  -7   3   1  143.19   15.10 
   7  -4  -1  191.08   19.20 
  -4  -7  -1  168.58   19.40 
  -4  -7  -1  181.48   19.30 
   4   7  -1  200.88   19.20 
  -7   4  -1  197.58   19.30 
   4   7   1  175.38   19.20 
  -4  -7   1  182.98   19.20 
   7  -4   1  207.18   19.20 
  -7   4   1  193.78   19.30 
   7  -5  -1   30.20    3.60 
  -7   5  -1   34.30    3.80 
   5   7  -1   39.60    3.60 
  -5  -7  -1   33.10    3.90 
  -5  -7  -1   39.50    3.80 
   7  -5   1   33.50    3.80 
   5   7   1   31.90    3.60 
  -5  -7   1   35.10    3.60 
  -7   5   1   30.50    3.80 
  -6  -7  -1   14.30    2.10 
   7  -6  -1   14.10    1.90 
  -6  -7  -1   17.60    2.00 
  -7   6  -1   19.20    2.00 
  -7   6   1   13.80    2.20 
   7  -6   1   16.90    2.10 
  -6  -7   1   15.20    1.90 
   6   7   1   15.40    1.90 
   7  -7  -1    1.30    0.90 
  -7  -7  -1    3.20    0.90 
  -7  -7  -1    0.80    0.80 
  -7   7  -1    1.10    0.70 
  -7  -7   1    3.40    0.70 
   7  -7   1    2.50    0.90 
   7   7   1    2.00    0.70 
  -7   8  -1    4.80    1.30 
   7  -8  -1    6.60    1.80 
  -8  -7  -1    2.90    0.90 
  -8  -7  -1    2.30    1.00 
   7  -8   1    4.70    1.20 
  -8  -7   1    2.80    0.70 
   8   7   1    2.10    0.70 
  -6   8  -1    1.30    0.60 
   6  -8  -1    1.10    0.90 
  -8  -6  -1    1.50    0.70 
  -8  -6  -1    0.60    0.70 
  -8  -6   1    0.80    0.50 
   6  -8   1    1.60    1.00 
  -8  -6   1    0.60    0.60 
   8   6   1    1.30    0.70 
  -8  -5  -1   47.10    4.80 
   5  -8  -1   44.00    5.00 
  -8  -5  -1   38.80    4.80 
  -8  -5   1   46.30    4.80 
   5  -8   1   44.90    5.00 
  -8  -5   1   43.70    4.80 
   8   5   1   52.99    4.90 
  -8  -4  -1   72.19    7.60 
  -8  -4  -1   77.49    7.60 
   4  -8  -1   70.79    7.80 
  -8  -4  -1   77.69    7.50 
   8   4   1   72.29    7.70 
   4  -8   1   67.99    7.90 
  -8  -4   1   74.19    7.50 
  -8  -4   1   70.29    7.60 
  -8  -3  -1  144.29   15.10 
   3  -8  -1  143.49   15.30 
  -8  -3  -1  143.49   14.90 
  -8  -3   1  139.89   15.00 
   8   3   1  159.18   15.20 
  -3   8   1  162.68   15.00 
   3  -8   1  149.39   15.40 
  -8  -3   1  140.69   15.10 
  -8  -2  -1    4.90    0.90 
  -2   8  -1    5.50    0.70 
   2  -8  -1    4.30    1.30 
   2  -8   1    5.00    1.30 
  -8  -2   1    6.10    0.80 
  -2   8   1    5.70    0.80 
   8   2   1    4.40    1.00 
  -8  -2   1    5.20    0.90 
  -8  -1  -1   28.70    3.40 
   1  -8  -1   28.70    3.60 
   8   1  -1   31.10    3.20 
  -1   8  -1   30.80    3.20 
  -1   8   1   30.80    3.20 
  -8  -1   1   26.40    3.30 
  -8  -1   1   36.10    3.20 
   1  -8   1   32.00    3.70 
   0  -8  -1   49.20    5.10 
  -8   0  -1   42.40    4.90 
   8   0  -1   51.59    4.70 
   0   8  -1   42.10    4.70 
  -8   0   1   46.50    4.90 
   0   8   1   44.00    4.70 
  -8   1  -1   26.80    3.40 
  -1  -8  -1   28.70    3.30 
   8  -1  -1   34.10    3.20 
   1   8  -1   27.90    3.20 
  -1  -8  -1   34.10    3.70 
   8  -1   1   34.50    3.10 
   1   8   1   26.70    3.20 
  -8   1   1   36.60    3.30 
  -8   1   1   26.60    3.40 
   2   8  -1    5.20    0.70 
  -2  -8  -1    4.40    1.20 
  -2  -8  -1    5.10    0.90 
  -8   2  -1    6.90    1.10 
   8  -2  -1    6.00    0.80 
   2   8   1    4.10    0.80 
   8  -2   1    6.70    0.70 
  -2  -8   1    6.10    0.80 
  -8   2   1    6.10    1.10 
  -8   2   1    4.50    0.90 
  -8   3  -1  154.28   15.60 
   8  -3  -1  141.49   15.40 
  -3  -8  -1  144.69   15.70 
   3   8  -1  167.68   15.40 
  -3  -8  -1  150.48   15.50 
  -3  -8   1  147.69   15.40 
  -8   3   1  145.19   15.50 
   8  -3   1  145.99   15.40 
   3   8   1  169.38   15.50 
  -4  -8  -1   67.49    7.30 
  -8   4  -1   70.89    7.30 
   8  -4  -1   72.09    7.20 
  -4  -8  -1   61.89    7.40 
   4   8  -1   69.19    7.20 
   8  -4   1   78.99    7.20 
   4   8   1   62.99    7.20 
  -8   4   1   76.69    7.40 
  -4  -8   1   66.89    7.20 
  -5  -8  -1   42.10    5.40 
   8  -5  -1   43.90    5.10 
  -8   5  -1   46.60    5.30 
   5   8  -1   54.89    5.10 
  -5  -8  -1   52.69    5.30 
   5   8   1   51.79    5.20 
  -8   5   1   44.00    5.30 
  -5  -8   1   54.39    5.20 
  -8   6  -1    0.30    0.70 
   8  -6  -1    0.90    0.60 
  -6  -8  -1    2.00    0.80 
  -6  -8  -1    1.30    0.90 
   6   8   1    1.10    0.50 
   8  -6   1    1.00    0.60 
  -8   6   1    0.30    0.90 
  -6  -8   1    1.30    0.60 
  -7  -8  -1    3.60    1.00 
  -7  -8  -1    2.40    1.10 
   8  -7  -1    3.10    0.90 
  -8   7  -1    4.20    0.90 
   8  -7   1    5.40    1.00 
   7   8   1    3.10    0.80 
  -7  -8   1    3.60    0.80 
  -8  -8  -1    0.70    0.80 
  -8  -8  -1    1.20    0.90 
   8  -8  -1    0.40    0.70 
   8   8   1   -0.10    0.50 
  -8  -8   1   -0.30    0.60 
   8  -8   1    2.90    1.00 
   8  -9  -1   61.09    6.90 
  -8   9  -1   55.89    6.60 
  -9  -8  -1   63.19    6.70 
  -9  -8  -1   65.19    6.60 
   9   8   1   62.29    6.60 
  -9  -8   1   64.59    6.50 
  -9  -8   1   67.69    6.60 
   8  -9   1   55.59    6.70 
  -9  -7  -1  132.39   13.10 
  -9  -7  -1  106.49   13.20 
  -9  -7   1  130.19   13.00 
   9   7   1  134.79   13.10 
   6  -9  -1    0.80    1.00 
  -6   9  -1    2.60    0.80 
  -9  -6  -1    3.40    0.90 
  -9  -6  -1    3.40    0.90 
   9   6   1    1.90    0.80 
   6  -9   1    2.20    1.20 
  -9  -6   1    2.00    0.70 
  -9  -6   1    2.10    0.70 
  -9  -5  -1  238.98   21.60 
   5  -9  -1  182.68   21.70 
  -9  -5  -1  202.38   21.50 
  -9  -5  -1  216.38   21.50 
  -9  -5   1  215.78   21.50 
  -9  -5   1  237.28   21.60 
   5  -9   1  184.18   21.80 
   4  -9  -1    0.00    1.00 
  -9  -4  -1    3.30    0.80 
  -9  -4  -1    1.90    0.50 
  -9  -4  -1    2.80    0.70 
   4  -9   1    0.60    1.10 
  -9  -4   1    2.90    0.70 
  -9  -4   1    1.50    0.60 
   9   4   1    4.10    0.90 
  -4   9   1    2.30    0.60 
  -9  -3  -1    2.50    0.50 
  -9  -3  -1    1.90    0.40 
  -9  -3  -1    1.60    0.70 
   3  -9  -1    2.10    1.10 
   3  -9   1    1.30    1.00 
   9   3   1    0.90    0.70 
  -9  -2  -1   32.10    3.30 
   2  -9  -1   29.20    3.60 
  -2   9  -1   27.70    3.10 
  -2   9   1   29.40    3.10 
  -9  -2   1   30.10    3.10 
   2  -9   1   27.50    3.60 
  -9  -2   1   30.70    3.30 
  -1   9  -1  256.47   25.00 
   1  -9  -1  228.28   25.40 
  -9  -1  -1  267.57   25.20 
  -1   9   1  253.07   25.00 
  -9  -1   1  238.28   25.00 
  -9  -1   1  266.77   25.20 
   1  -9   1  215.58   25.40 
   0  -9  -1   -1.00    0.90 
   9   0  -1    0.10    0.20 
   0   9  -1    0.00    0.30 
  -9   0  -1    0.00    0.60 
  -9   0   1    0.30    0.40 
   0  -9   1    1.30    1.00 
  -9   0   1    0.00    0.50 
   0   9   1    0.50    0.40 
  -1  -9  -1  217.68   25.40 
   1   9  -1  268.37   25.10 
   9  -1  -1  234.28   25.10 
  -9   1  -1  266.07   25.30 
   1   9   1  245.18   25.10 
  -9   1   1  281.47   25.30 
  -9   1   1  229.38   25.10 
   9  -1   1  242.68   25.00 
   9  -2  -1   30.90    3.10 
  -2  -9  -1   28.60    3.20 
  -2  -9  -1   25.90    3.50 
   2   9  -1   27.70    3.10 
  -9   2  -1   29.10    3.30 
  -9   2   1   32.00    3.30 
  -9   2   1   32.30    3.30 
   9  -2   1   31.80    3.10 
   2   9   1   29.50    3.20 
  -9   3  -1    2.40    0.70 
   9  -3  -1    1.90    0.40 
  -3  -9  -1    1.60    1.00 
   3   9  -1    1.30    0.40 
  -3  -9  -1    2.40    0.70 
  -3  -9   1    1.20    0.50 
  -9   3   1    0.80    0.70 
   9  -3   1    1.50    0.40 
  -9   3   1    2.90    0.80 
   9  -4  -1    1.70    0.70 
  -4  -9  -1    4.60    0.90 
  -4  -9  -1    1.60    1.10 
  -9   4  -1    3.40    0.90 
   4   9  -1    3.80    0.60 
   4   9   1    3.00    0.60 
  -9   4   1    1.40    0.90 
  -9   4   1    3.10    0.80 
   9  -4   1    2.00    0.50 
  -4  -9   1    1.70    0.60 
   5   9  -1  265.07   23.90 
  -5  -9  -1  242.58   24.00 
  -9   5  -1  252.27   24.00 
   9  -5  -1  207.58   23.80 
  -5  -9   1  242.28   23.90 
   5   9   1  241.08   24.00 
  -9   5   1  247.38   24.00 
  -9   5   1  196.58   24.10 
   9  -5   1  220.58   23.90 
  -6  -9  -1    2.20    1.20 
   9  -6  -1    2.70    0.70 
  -9   6  -1    2.90    0.90 
  -6  -9  -1    2.70    0.90 
  -6  -9   1    2.20    0.80 
   9  -6   1    3.10    0.80 
   6   9   1    2.10    0.60 
   9  -7  -1  113.09   13.00 
  -7  -9  -1  134.39   13.10 
  -9   7  -1  134.09   13.20 
  -7  -9   1  133.19   13.00 
   9  -7   1  117.49   13.10 
   7   9   1  130.99   13.00 
  -8  -9  -1   56.69    6.80 
  -8  -9  -1   68.49    6.70 
   9  -8  -1   66.59    6.70 
  -8  -9   1   61.89    6.60 
   8   9   1   57.89    6.60 
   9  -8   1   63.79    6.70 
  -9   9  -1    2.00    1.10 
  -9  -9  -1    4.90    1.20 
   9  -9  -1    5.50    1.40 
  -9  -9  -1    7.80    1.40 
  -9  -9   1    4.20    1.00 
   9  -9   1    6.40    1.40 
   9   9   1    3.30    1.00 
 -10  -9  -1   13.60    2.00 
  -9  10  -1   14.10    2.00 
 -10  -9  -1   13.30    2.10 
   9 -10  -1   14.70    2.10 
 -10  -9   1   13.50    1.90 
 -10  -9   1   15.50    1.90 
  10   9   1   12.10    1.90 
   9 -10   1   13.50    2.20 
 -10  -8  -1    5.60    1.30 
   8 -10  -1    5.90    1.40 
  -8  10  -1    4.70    1.20 
 -10  -8  -1    6.80    1.30 
 -10  -8   1    5.70    1.20 
   8 -10   1    3.60    1.40 
 -10  -8   1    7.00    1.20 
  10   8   1    6.80    1.30 
  -7  10  -1   49.30    4.70 
 -10  -7  -1   44.60    4.50 
   7 -10  -1   35.20    5.00 
 -10  -7  -1   45.80    4.70 
   7 -10   1   34.30    4.90 
 -10  -7   1   39.40    4.80 
 -10  -7   1   41.30    4.60 
  10   7   1   45.30    4.70 
  -6  10  -1    5.50    1.20 
 -10  -6  -1   11.30    1.40 
 -10  -6  -1    7.10    1.10 
 -10  -6  -1    6.30    1.20 
   6 -10  -1    6.10    1.60 
 -10  -6   1    7.40    1.30 
   6 -10   1    4.20    1.80 
  10   6   1    8.00    1.40 
 -10  -6   1    8.20    1.20 
 -10  -5  -1   80.99    8.40 
   5 -10  -1   75.69    9.00 
 -10  -5  -1   81.29    8.60 
 -10  -5  -1   83.29    8.40 
  -5  10   1   86.59    8.40 
 -10  -5   1   84.89    8.40 
 -10  -5   1   75.69    8.50 
 -10  -4  -1   23.90    2.60 
   4 -10  -1   26.30    3.80 
 -10  -4  -1   23.60    2.50 
 -10  -4  -1   20.80    2.70 
 -10  -4   1   23.80    2.80 
  -4  10   1   23.00    2.60 
   4 -10   1   20.00    3.20 
 -10  -4   1   26.40    2.60 
   3 -10  -1    3.40    1.30 
 -10  -3  -1    3.10    1.00 
  -3  10  -1    3.60    0.60 
  -3  10   1    3.00    0.70 
 -10  -3   1    5.00    0.70 
   3 -10   1    4.80    1.50 
 -10  -3   1    3.20    0.80 
 -10  -2  -1    6.50    1.20 
   2 -10  -1    5.10    1.50 
  -2  10  -1    6.50    0.90 
 -10  -2   1    8.70    1.00 
 -10  -2   1    5.50    1.10 
   2 -10   1    4.90    1.50 
  -2  10   1    6.90    1.00 
   1 -10  -1  132.59   14.70 
  -1  10  -1  148.09   14.20 
 -10  -1  -1  147.09   14.50 
  -1  10   1  148.59   14.30 
 -10  -1   1  138.39   14.30 
   1 -10   1  120.89   14.70 
 -10  -1   1  140.19   14.40 
   0  10  -1  103.29   11.80 
  10   0  -1  127.09   11.80 
 -10   0  -1  115.79   12.10 
   0 -10  -1  116.39   12.40 
   0 -10   1  110.69   12.30 
   0  10   1  112.69   11.90 
 -10   0   1  136.59   11.90 
 -10   0   1  109.79   12.00 
  -1 -10  -1  124.89   14.30 
   1  10  -1  151.48   13.90 
  10  -1  -1  133.49   13.90 
 -10   1  -1  140.39   14.10 
  -1 -10   1  128.29   14.30 
   1  10   1  144.99   14.00 
 -10   1   1  140.29   14.10 
 -10   1   1  130.09   14.00 
  10  -1   1  134.39   13.90 
 -10   2  -1    7.20    1.30 
  -2 -10  -1    5.80    1.00 
  -2 -10  -1    6.00    1.60 
   2  10  -1    5.70    0.80 
  10  -2  -1    7.80    0.90 
  10  -2   1    7.60    0.80 
 -10   2   1    6.70    1.20 
   2  10   1    6.20    1.00 
  -2 -10   1    5.70    1.50 
 -10   2   1    7.20    1.30 
  -3 -10  -1    4.20    0.90 
  -3 -10  -1    4.80    1.50 
  10  -3  -1    4.90    0.70 
   3  10  -1    2.80    0.50 
 -10   3  -1    3.00    1.00 
 -10   3   1    4.20    1.00 
 -10   3   1    2.70    0.80 
  -3 -10   1    2.30    0.60 
  10  -3   1    4.40    0.60 
   3  10   1    3.60    0.70 
  10  -4  -1   23.70    2.40 
  -4 -10  -1   16.70    2.50 
   4  10  -1   18.10    2.30 
 -10   4  -1   20.70    2.70 
  -4 -10  -1   18.70    2.90 
   4  10   1   22.60    2.40 
 -10   4   1   19.70    2.60 
 -10   4   1   26.30    2.70 
  10  -4   1   24.00    2.30 
  -4 -10   1   21.00    2.40 
  10  -5  -1   83.29    8.50 
  -5 -10  -1   89.19    8.60 
 -10   5  -1   73.59    8.60 
   5  10  -1   83.99    8.40 
  -5 -10  -1   77.99    8.80 
 -10   5   1   85.69    8.80 
  10  -5   1   84.79    8.50 
  -5 -10   1   83.99    8.50 
 -10   5   1   74.99    8.60 
  -6 -10  -1    8.10    1.40 
  10  -6  -1    9.20    1.20 
  -6 -10  -1    6.40    1.60 
 -10   6  -1    8.40    1.50 
   6  10   1    6.30    1.10 
 -10   6   1    7.30    1.40 
  -6 -10   1    6.40    1.20 
  10  -6   1    7.00    1.10 
 -10   7  -1   44.30    4.90 
  10  -7  -1   39.20    4.70 
  -7 -10  -1   37.70    5.00 
  -7 -10  -1   48.90    4.80 
  -7 -10   1   48.50    4.70 
   7  10   1   46.80    4.70 
 -10   7   1   39.70    4.80 
  10  -7   1   41.80    4.70 
  10  -8  -1    5.10    1.20 
  -8 -10  -1    5.60    1.40 
  -8 -10  -1    7.50    1.30 
 -10   8   1    6.50    1.40 
   8  10   1    7.00    1.10 
  10  -8   1    6.00    1.30 
  -8 -10   1    7.10    1.20 
 -10   9  -1   12.00    2.10 
  10  -9  -1   12.00    2.00 
  -9 -10  -1   17.20    2.20 
  -9 -10  -1   15.00    2.10 
  10  -9   1   18.90    2.90 
 -10   9   1   12.20    2.10 
  -9 -10   1   16.30    1.90 
   9  10   1   13.60    1.90 
 -10  10  -1    1.10    0.90 
 -10 -10  -1    0.90    0.90 
  10 -10  -1    1.00    0.90 
 -10 -10  -1    1.80    1.00 
 -10 -10   1    1.80    0.70 
  10  10   1    1.10    0.70 
 -10  10   1    1.50    0.90 
  10 -10   1    1.90    1.00 
 -10 -10   1    0.70    0.70 
 -10 -10   1    1.10    0.90 
 -11 -10  -1    1.20    1.00 
 -11 -10  -1    2.20    1.00 
 -10  11  -1    1.40    0.90 
 -10  11   1    1.80    0.90 
 -11 -10   1    2.60    0.90 
 -11 -10   1    2.20    1.00 
 -11 -10   1    2.30    0.80 
  -9  11  -1   98.49    9.60 
 -11  -9  -1   92.79    9.50 
 -11  -9  -1   93.39    9.40 
 -11  -9  -1   73.19    9.40 
 -11  -9   1   91.39    9.40 
 -11  -9   1   93.39    9.40 
 -11  -8  -1    0.20    0.80 
 -11  -8  -1    1.40    0.70 
  -8  11  -1    0.90    0.80 
 -11  -8  -1    3.70    1.00 
 -11  -8   1    1.60    0.80 
   8 -11   1    1.90    1.90 
 -11  -8   1    1.50    0.80 
 -11  -7  -1    2.20    0.90 
 -11  -7  -1    4.40    0.80 
  -7  11  -1    2.90    0.90 
 -11  -7  -1    3.50    1.00 
   7 -11  -1    3.30    2.20 
   7 -11   1    3.30    1.40 
 -11  -7   1    1.90    0.80 
 -11  -7   1    5.20    1.00 
  -6  11  -1    2.40    0.80 
 -11  -6  -1    1.50    0.90 
   6 -11  -1    1.10    1.20 
 -11  -6  -1    2.40    0.60 
 -11  -6  -1    2.00    0.80 
   6 -11   1    0.70    1.20 
 -11  -6   1    3.20    0.80 
  -6  11   1    2.70    0.70 
 -11  -6   1    1.60    0.80 
 -11  -5  -1    1.10    0.90 
  -5  11  -1    2.50    0.80 
 -11  -5  -1    1.40    0.50 
   5 -11  -1    0.50    1.10 
 -11  -5  -1    1.90    0.70 
  -5  11   1    1.10    0.60 
 -11  -5   1    5.90    1.00 
 -11  -5   1    1.70    0.70 
   5 -11   1    0.10    1.30 
  -4  11  -1   34.60    3.80 
   4 -11  -1   35.00    4.50 
 -11  -4  -1   33.30    4.00 
  -4  11   1   37.00    3.80 
   4 -11   1   33.40    4.50 
 -11  -4   1   42.40    3.90 
 -11  -4   1   32.90    4.00 
   3 -11  -1  203.58   23.40 
 -11  -3  -1  244.38   23.20 
  -3  11  -1  236.48   23.00 
   3 -11   1  192.28   23.40 
  -3  11   1  234.38   23.00 
 -11  -3   1  246.88   23.20 
 -11  -3   1  220.08   23.00 
  -2  11  -1   26.40    2.80 
 -11  -2  -1   28.10    3.10 
   2 -11  -1   25.20    3.60 
 -11  -2   1   27.10    2.90 
   2 -11   1   21.70    3.50 
 -11  -2   1   28.20    3.10 
   1 -11  -1    2.80    1.40 
  -1  11  -1    5.40    0.70 
 -11  -1  -1    5.30    1.10 
 -11  -1   1    4.90    0.80 
 -11  -1   1    5.50    1.10 
   1 -11   1    4.00    1.50 
  -1  11   1    3.40    0.70 
   0  11  -1    0.10    0.30 
   0 -11  -1    2.00    1.30 
 -11   0  -1    0.30    0.70 
  11   0  -1    1.50    0.30 
 -11   0   1    0.50    0.60 
   0  11   1    0.10    0.40 
   0 -11   1    1.10    1.10 
 -11   0   1   -0.50    0.60 
  -1 -11  -1    3.20    1.60 
 -11   1  -1    5.60    1.20 
  11  -1  -1    4.50    0.70 
   1  11  -1    5.10    0.70 
 -11   1   1    5.90    1.10 
 -11   1   1    5.30    1.20 
   1  11   1    5.30    0.80 
  -1 -11   1    5.60    1.60 
  -2 -11  -1   24.30    3.90 
  11  -2  -1   29.20    2.90 
   2  11  -1   27.10    2.90 
 -11   2  -1   29.50    3.30 
 -11   2   1   28.40    3.20 
 -11   2   1   28.90    3.20 
  -2 -11   1   24.70    3.50 
  11  -2   1   29.90    2.90 
   2  11   1   23.70    2.90 
   3  11  -1  253.97   23.30 
  -3 -11  -1  235.68   23.50 
  11  -3  -1  223.48   23.40 
   3  11   1  254.77   23.40 
  -3 -11   1  192.18   23.70 
 -11   3   1  209.28   23.50 
  11  -3   1  225.18   23.30 
 -11   3   1  244.08   23.60 
   4  11  -1   32.20    3.90 
  -4 -11  -1   36.90    4.10 
  11  -4  -1   42.40    4.00 
 -11   4  -1   33.00    4.20 
   4  11   1   34.50    3.90 
 -11   4   1   31.10    4.10 
  -4 -11   1   35.50    3.90 
  -4 -11   1   39.20    4.50 
  11  -4   1   44.20    3.90 
 -11   4   1   47.30    4.40 
  11  -5  -1    2.70    0.70 
  -5 -11  -1    0.80    0.80 
 -11   5  -1    2.50    1.00 
   5  11   1    2.10    0.70 
  -5 -11   1    2.00    0.70 
  -5 -11   1    2.50    1.20 
  11  -5   1    1.60    0.60 
 -11   5   1    0.80    0.80 
 -11   6  -1    1.90    0.90 
  11  -6  -1    3.00    0.70 
  -6 -11  -1    2.10    0.90 
  11  -6   1    1.00    0.60 
 -11   6   1    1.00    0.90 
   6  11   1    2.30    0.60 
  -6 -11   1    2.40    1.10 
  -6 -11   1    1.40    0.70 
  -7 -11  -1    3.90    1.00 
  11  -7  -1    3.80    0.80 
  -7 -11  -1    2.50    1.40 
 -11   7  -1    2.10    1.00 
  11  -7   1    3.60    0.80 
  -7 -11   1    3.70    1.20 
 -11   7   1    2.10    0.90 
   7  11   1    2.50    0.70 
  -7 -11   1    2.30    0.80 
  -8 -11  -1    0.20    1.20 
  11  -8  -1    0.80    0.70 
  -8 -11  -1    1.60    0.90 
  11  -8   1    0.80    0.80 
  -8 -11   1    2.40    1.00 
 -11   8   1    1.30    0.90 
  -8 -11   1    1.40    1.20 
   8  11   1    0.70    0.60 
 -11   9  -1   89.39    9.40 
  -9 -11  -1   76.79    9.40 
  -9 -11  -1   96.69    9.20 
  11  -9  -1   80.49    9.20 
  -9 -11   1   96.09    9.20 
  -9 -11   1   80.19    9.40 
  11  -9   1   80.79    9.30 
 -11   9   1   94.19    9.50 
   9  11   1   96.49    9.20 
 -10 -11  -1    2.00    0.90 
 -10 -11  -1    1.90    1.00 
 -11  10  -1    1.40    1.10 
 -11  10   1    1.50    0.90 
 -10 -11   1    1.70    0.90 
 -10 -11   1    3.00    1.10 
 -11 -11  -1    0.10    0.90 
 -11  11  -1    1.00    1.00 
 -11 -11  -1    1.60    1.00 
 -11 -11   1    0.40    0.70 
 -11  11   1    1.00    0.90 
 -11 -11   1    0.00    0.80 
 -11 -11   1    0.20    0.90 
 -12 -11  -1    3.70    1.20 
 -12 -11  -1    6.60    1.40 
 -12 -11  -1    5.10    1.10 
 -11  12  -1    4.60    1.30 
 -12 -11   1    6.10    1.30 
 -11  12   1    5.30    1.40 
 -12 -11   1    4.30    1.10 
 -12 -11   1    6.20    1.40 
 -12 -10  -1    1.60    0.80 
 -10  12  -1    0.80    0.90 
 -12 -10  -1    2.70    1.00 
 -12 -10  -1    1.80    1.00 
 -12 -10   1    1.50    1.00 
 -12 -10   1    1.90    0.80 
 -12 -10   1    2.30    0.90 
 -12  -9  -1    1.40    0.90 
 -12  -9  -1    0.60    0.90 
  -9  12  -1    0.60    0.80 
 -12  -9  -1    0.30    0.60 
 -12  -9   1    0.30    0.80 
 -12  -9   1    0.40    0.70 
 -12  -9   1    0.00    0.70 
  -9  12   1    0.30    0.80 
  -8  12  -1    1.00    0.90 
 -12  -8  -1    2.30    0.80 
 -12  -8  -1    3.20    1.00 
 -12  -8  -1    2.70    0.90 
 -12  -8   1    2.60    0.80 
 -12  -8   1    1.40    0.90 
 -12  -7  -1   22.50    3.00 
 -12  -7  -1   24.90    2.90 
 -12  -7  -1   27.60    3.10 
  -7  12  -1   31.40    3.10 
 -12  -7   1   28.60    3.10 
 -12  -7   1   28.20    3.00 
  -7  12   1   23.00    2.90 
  -6  12  -1    3.10    0.90 
 -12  -6  -1    3.80    0.80 
 -12  -6  -1    3.10    1.00 
 -12  -6  -1    4.20    0.70 
 -12  -6   1    3.80    0.80 
  -6  12   1    3.60    0.80 
 -12  -6   1    3.20    0.90 
 -12  -5  -1    7.40    1.30 
  -5  12  -1    7.70    1.20 
  -5  12  -1    6.30    0.90 
 -12  -5  -1    5.30    0.80 
  -5  12   1    6.30    1.00 
 -12  -5   1    6.10    1.10 
 -12  -5   1    7.40    1.10 
  -4  12  -1    2.60    0.60 
 -12  -4  -1    2.40    1.00 
 -12  -4   1    3.60    1.00 
 -12  -4   1    3.90    0.70 
  -4  12   1    2.20    0.70 
 -12  -3  -1    4.30    1.10 
  -3  12  -1    4.40    0.70 
 -12  -3   1    4.40    0.80 
  -3  12   1    3.90    0.80 
 -12  -3   1    1.90    1.00 
 -12  -2  -1    9.20    1.60 
  -2  12  -1    9.60    1.20 
 -12  -2   1    8.90    1.60 
  -2  12   1    8.40    1.30 
 -12  -2   1   10.80    1.30 
 -12  -1  -1   48.20    5.00 
  -1  12  -1   46.30    4.60 
   1 -12  -1   38.70    5.30 
 -12  -1   1   46.70    4.90 
  -1  12   1   42.90    4.70 
   1 -12   1   40.10    5.30 
 -12  -1   1   45.50    4.70 
 -12   0  -1    1.00    0.90 
   0  12  -1    0.80    0.40 
   0 -12  -1    0.70    1.40 
   0 -12   1    2.50    1.30 
   0  12   1   -0.10    0.50 
 -12   0   1    1.40    0.80 
 -12   0   1    1.60    1.00 
   1  12  -1   48.90    4.80 
  -1 -12  -1   43.60    5.50 
 -12   1  -1   46.00    5.20 
  12  -1  -1   48.40    4.80 
 -12   1   1   46.70    5.00 
  -1 -12   1   40.60    5.50 
 -12   1   1   47.50    5.20 
   1  12   1   46.00    4.90 
  -2 -12  -1    4.60    1.80 
 -12   2  -1    5.20    1.40 
   2  12  -1    8.20    1.00 
  12  -2  -1   10.50    1.10 
 -12   2   1    6.90    1.50 
   2  12   1    9.10    1.20 
 -12   2   1   13.60    1.70 
  12  -2   1   11.10    1.00 
  -2 -12   1    6.80    1.90 
  -3 -12  -1    3.60    0.80 
  -3 -12  -1    5.80    1.60 
  12  -3  -1    6.00    0.80 
   3  12  -1    3.00    0.60 
 -12   3  -1    3.50    1.10 
 -12   3   1    6.70    1.20 
  12  -3   1    5.40    0.70 
  -3 -12   1    4.60    1.40 
 -12   3   1    3.50    1.10 
   3  12   1    3.30    0.70 
 -12   4  -1    3.40    1.10 
  -4 -12  -1    3.70    1.40 
  12  -4  -1    4.60    0.70 
  -4 -12  -1    2.20    0.80 
  12  -4   1    3.10    0.60 
  -4 -12   1    2.60    1.30 
   4  12   1    2.80    0.60 
 -12   4   1    2.30    1.00 
  12  -5  -1    6.30    1.00 
  -5 -12  -1    6.60    1.20 
 -12   5  -1    7.30    1.40 
  -5 -12  -1    5.80    1.60 
 -12   5   1    6.40    1.40 
  12  -5   1    5.90    0.90 
  -5 -12   1    5.30    1.50 
  -5 -12   1    7.00    1.00 
   5  12   1    6.80    1.00 
 -12   6  -1    3.20    1.00 
  -6 -12  -1    0.70    1.10 
  12  -6  -1    2.90    0.70 
  -6 -12   1    2.20    1.20 
  -6 -12   1    4.40    0.70 
  12  -6   1    3.30    0.70 
 -12   6   1    6.00    1.80 
   6  12   1    2.90    0.70 
  -7 -12  -1   29.90    3.10 
  -7 -12  -1   19.60    3.30 
  12  -7  -1   23.90    3.00 
   7  12   1   31.50    3.00 
 -12   7   1   25.60    3.20 
  12  -7   1   24.80    3.00 
  -7 -12   1   21.20    3.30 
  -7 -12   1   30.80    3.00 
  -8 -12  -1    2.00    1.20 
  -8 -12  -1    1.40    0.80 
   8  12   1    1.00    0.60 
  -8 -12   1    2.20    1.10 
 -12   8   1    2.00    1.00 
  12  -8   1    2.50    0.90 
 -12   9  -1    1.70    0.90 
  -9 -12  -1    0.30    1.00 
  -9 -12  -1    1.00    0.80 
  12  -9  -1   -0.30    0.70 
   9  12   1    1.20    0.70 
  -9 -12   1   -0.10    0.70 
 -12   9   1   -0.30    0.80 
  12  -9   1    0.10    0.70 
  -9 -12   1    1.00    1.10 
 -10 -12  -1    0.30    0.80 
 -12  10  -1    2.00    1.00 
 -10 -12  -1    1.70    1.10 
 -12  10   1    0.40    0.90 
 -10 -12   1    3.40    1.40 
 -10 -12   1    2.40    0.90 
  12 -10   1    1.10    0.90 
 -12  11  -1    3.80    1.30 
 -11 -12  -1    5.50    1.20 
 -11 -12  -1    6.30    1.40 
 -12  11   1    3.90    1.20 
 -11 -12   1    3.70    1.10 
 -11 -12   1    4.50    1.20 
 -11 -12   1    5.60    1.90 
 -12 -12  -1   -0.40    0.70 
 -12 -12  -1   -1.70    0.90 
 -12 -12  -1    1.40    1.10 
 -12  12  -1    2.40    1.20 
 -12  12   1    0.70    1.10 
 -12 -12   1    0.90    1.00 
 -12 -12   1    0.00    0.80 
 -13 -12  -1    0.70    0.70 
 -12  13  -1    3.80    1.20 
 -13 -12  -1    2.20    1.10 
 -13 -12  -1    3.20    1.10 
 -13 -12   1    2.00    1.30 
 -13 -12   1    0.90    1.00 
 -12  13   1    1.20    1.00 
 -13 -12   1    2.30    0.90 
 -13 -11  -1    0.70    0.90 
 -13 -11  -1    1.40    0.70 
 -13 -11  -1   -0.10    1.00 
 -11  13  -1    1.80    1.10 
 -11  13   1    2.10    1.10 
 -13 -11   1    1.90    0.80 
 -13 -11   1    0.00    0.90 
 -13 -11   1    4.00    1.10 
 -13 -10  -1   10.00    1.90 
 -13 -10  -1   17.10    1.90 
 -13 -10  -1   14.80    2.20 
 -10  13  -1   12.10    2.10 
 -13 -10   1   15.00    2.10 
 -13 -10   1   15.80    2.10 
 -13 -10   1   13.30    1.90 
 -10  13   1   14.50    2.20 
  -9  13  -1   41.90    4.20 
 -13  -9  -1   36.20    4.80 
 -13  -9   1   28.70    4.10 
 -13  -9   1   36.40    4.10 
 -13  -9   1   37.10    4.10 
  -9  13   1   41.20    4.30 
 -13  -8  -1    4.80    0.90 
  -8  13  -1    3.30    1.10 
 -13  -8   1    3.80    1.10 
 -13  -8   1    5.20    1.10 
  -8  13   1    3.40    0.90 
 -13  -8   1    4.90    1.00 
 -13  -7  -1    3.70    0.80 
 -13  -7  -1    3.20    0.70 
  -7  13  -1    5.00    1.10 
 -13  -7  -1    2.20    1.20 
 -13  -7   1    2.10    0.80 
  -7  13   1    4.90    1.00 
 -13  -7   1    3.20    1.00 
 -13  -6  -1   14.20    1.50 
 -13  -6  -1   15.40    2.00 
  -6  13  -1   11.80    1.60 
  -6  13  -1   14.60    1.90 
 -13  -6   1   14.80    1.70 
  -6  13   1   11.30    1.70 
 -13  -6   1   14.70    1.90 
  -5  13  -1    3.20    0.80 
 -13  -5  -1    1.90    0.90 
 -13  -5   1    2.40    0.70 
  -5  13   1    3.80    0.80 
 -13  -5   1    2.70    0.90 
 -13  -4  -1    7.70    1.40 
  -4  13  -1    6.00    1.10 
  -4  13  -1    6.60    1.00 
 -13  -4   1    7.50    1.00 
 -13  -4   1    7.60    1.40 
  -4  13   1    6.20    1.00 
  -3  13  -1   88.69    8.90 
 -13  -3  -1   89.59    9.20 
  -3  13   1   88.89    9.00 
 -13  -3   1   78.49    8.90 
 -13  -3   1   92.79    9.20 
  -2  13  -1    2.90    0.60 
 -13  -2  -1    3.30    1.10 
  -2  13   1    2.60    0.60 
 -13  -2   1    4.10    1.00 
 -13  -2   1    2.70    0.70 
  -1  13  -1    5.90    0.80 
 -13  -1  -1    6.10    1.30 
 -13  -1   1    7.00    1.40 
 -13  -1   1    6.30    1.00 
 -13   0  -1   -0.50    0.70 
   0  13  -1   -0.60    0.30 
 -13   0   1    1.10    0.90 
 -13   0   1   -0.90    0.60 
   0  13   1    0.50    0.50 
  13  -1  -1    5.90    0.80 
 -13   1  -1    8.00    1.60 
 -13   1   1    4.90    1.40 
 -13   1   1    6.80    1.20 
   1  13   1    6.10    0.90 
  13  -2  -1    3.40    0.60 
   2  13   1    3.30    0.60 
  13  -3  -1   75.49    9.40 
 -13   3  -1   97.79    9.70 
  13  -3   1   89.39    9.30 
   3  13   1   99.09    9.30 
 -13   3   1   96.99    9.70 
 -13   4  -1    5.50    1.30 
  13  -4  -1    6.30    1.00 
  -4 -13  -1    7.80    1.10 
   4  13   1    6.70    1.30 
 -13   4   1    9.50    1.60 
  13  -4   1    7.40    1.00 
  13  -5  -1    3.70    0.70 
  -5 -13  -1    2.80    0.80 
 -13   5  -1    1.60    1.00 
   5  13   1    3.10    0.60 
  13  -5   1    3.50    0.70 
 -13   5   1    1.40    0.90 
 -13   6  -1   14.30    2.10 
  13  -6  -1   16.40    1.80 
   6  13   1   12.00    1.70 
  13  -6   1   16.10    1.70 
  -6 -13   1   12.70    1.70 
 -13   6   1   14.60    2.00 
  13  -7  -1    4.40    0.90 
 -13   7  -1    2.80    1.10 
  -7 -13  -1    3.90    1.00 
  -7 -13   1    5.70    0.90 
  13  -7   1    3.60    0.90 
   7  13   1    3.90    0.80 
 -13   7   1    4.70    1.30 
  13  -8  -1    4.90    1.10 
  -8 -13  -1    4.00    1.00 
  -8 -13   1    5.50    1.00 
  13  -8   1    5.00    1.00 
 -13   8   1    3.40    1.20 
   8  13   1    5.40    0.90 
  -9 -13  -1   36.50    3.90 
  13  -9  -1   30.00    3.90 
 -13   9  -1   38.80    4.20 
  13  -9   1   33.90    3.90 
 -13   9   1   35.00    4.10 
  -9 -13   1   35.60    3.80 
 -13  10  -1   15.30    2.20 
 -10 -13  -1   14.00    1.90 
 -10 -13   1   11.70    1.80 
 -11 -13  -1    1.00    0.80 
 -11 -13   1    1.90    0.80 
 -13  11   1    1.60    1.00 
 -13  12  -1    0.80    1.10 
 -12 -13  -1    2.00    0.90 
 -12 -13   1    2.20    0.90 
 -13  12   1    1.30    1.00 
 -13 -13  -1   -1.00    0.60 
 -13 -13  -1    0.20    0.80 
 -13  13  -1   -0.40    0.90 
 -13  13   1    1.00    1.10 
 -13 -13   1    0.30    0.80 
 -14 -12  -1    0.10    0.70 
 -14 -12   1    0.30    0.70 
 -11  14  -1    1.10    1.00 
 -14 -11  -1    1.40    0.70 
 -14 -11  -1    1.50    1.10 
 -14 -11   1    2.30    1.10 
 -14 -11   1    1.50    0.80 
 -11  14   1    2.10    1.00 
 -10  14  -1    0.20    0.80 
 -14 -10  -1    0.70    0.70 
 -14 -10  -1    1.20    1.00 
 -14 -10  -1    0.90    0.60 
 -14 -10   1   -0.40    0.80 
 -10  14   1    0.40    0.90 
 -14 -10   1    1.00    0.80 
 -14 -10   1   -0.40    0.60 
 -14  -9  -1    3.00    1.10 
  -9  14  -1    4.10    1.10 
 -14  -9  -1    3.70    0.80 
 -14  -9   1    3.40    0.90 
 -14  -9   1    3.70    1.00 
 -14  -9   1    4.90    1.20 
  -8  14  -1    0.20    0.80 
 -14  -8  -1   -0.20    0.90 
 -14  -8  -1    0.80    0.50 
 -14  -8  -1    0.50    0.50 
  -8  14  -1    0.30    0.50 
 -14  -8   1    0.30    0.80 
  -8  14   1    0.30    0.80 
  -8  14   1    0.40    0.60 
 -14  -8   1    0.10    0.70 
  -7  14  -1    8.40    1.10 
 -14  -7  -1    7.10    1.50 
  -7  14  -1    6.80    1.30 
 -14  -7   1    7.20    1.10 
  -7  14   1    5.20    1.10 
 -14  -7   1    6.70    1.40 
  -6  14  -1    0.60    0.60 
  -6  14  -1    1.00    0.80 
 -14  -6  -1    0.80    1.00 
  -6  14   1    0.30    0.60 
 -14  -6   1    2.10    0.60 
 -14  -6   1    1.40    0.90 
  -5  14  -1    8.30    1.30 
 -14  -5  -1    4.90    1.40 
  -5  14  -1    8.20    1.10 
  -5  14   1    8.70    1.20 
 -14  -5   1    9.00    1.10 
 -14  -5   1    5.90    1.40 
  -4  14  -1    2.30    0.80 
  -4  14  -1    3.20    0.70 
 -14  -4  -1    5.50    1.20 
 -14  -4   1    3.10    0.70 
 -14  -4   1    3.70    1.10 
  -4  14   1    2.80    0.70 
  -3  14  -1   32.40    3.20 
 -14  -3  -1   27.80    3.50 
  -3  14  -1   29.40    3.20 
 -14  -3   1   28.00    3.50 
  -3  14   1   29.80    3.20 
 -14  -2  -1   17.80    2.20 
  -2  14  -1   14.20    1.70 
  -2  14  -1   14.30    1.70 
  -2  14   1   14.00    1.80 
 -14  -2   1   19.60    2.20 
  -1  14  -1    3.00    0.50 
 -14  -1  -1    3.10    1.10 
  -1  14   1    2.40    0.60 
 -14  -1   1    2.90    1.00 
 -14   0  -1    0.90    0.90 
   0  14   1   -0.40    0.70 
 -14   0   1    0.10    0.80 
 -14   1  -1    2.60    1.10 
 -14   1   1    3.10    1.10 
   1  14   1    3.60    0.60 
 -14   2  -1   16.60    2.30 
  14  -2  -1   19.70    1.90 
   2  14   1   14.50    1.90 
 -14   2   1   17.20    2.30 
 -14   3  -1   27.70    3.60 
  14  -3  -1   28.30    3.30 
  14  -3   1   30.40    3.10 
 -14   3   1   26.80    3.50 
   3  14   1   31.90    3.20 
 -14   4  -1    4.20    1.30 
 -14   4   1    3.40    1.20 
  14  -4   1    3.60    0.60 
 -14   5  -1    5.40    1.50 
  -5 -14  -1    8.30    1.20 
  14  -5  -1    9.90    1.20 
  14  -5   1    8.30    1.20 
   5  14   1    6.50    1.10 
 -14   5   1    5.00    1.40 
 -14   6  -1    3.10    1.20 
  14  -6  -1    0.80    0.70 
  14  -6   1    1.20    0.60 
  -6 -14   1    1.40    0.50 
   6  14   1    1.50    0.60 
 -14   6   1    1.40    1.00 
 -14   7  -1    6.40    1.60 
  -7 -14  -1    6.50    1.20 
  14  -7  -1   10.50    1.30 
 -14   7   1    9.60    2.40 
  -7 -14   1    9.00    1.10 
  14  -7   1    7.40    1.20 
   7  14   1    5.10    1.00 
  14  -8  -1   -0.50    0.60 
  -8 -14  -1   -0.40    0.60 
  -8 -14   1    0.40    0.50 
 -14   8   1    1.40    1.00 
   8  14   1    2.10    0.60 
  14  -8   1    0.60    0.70 
 -14   9  -1    4.20    1.30 
  14  -9  -1    3.50    1.20 
  -9 -14  -1    5.10    1.00 
  -9 -14   1    3.90    0.80 
 -14   9   1    3.00    1.20 
  14  -9   1    4.00    1.00 
 -14  10  -1   -0.20    0.90 
 -10 -14  -1   -0.40    0.60 
 -10 -14   1   -0.30    0.50 
 -14  10   1   -0.70    0.80 
 -11 -14  -1    2.20    0.80 
 -14  11  -1    1.50    1.10 
 -11 -14   1    1.90    0.70 
 -14  11   1    2.20    1.10 
 -12 -14   1    0.10    0.70 
 -10  15  -1   -1.30    0.70 
 -15 -10  -1    0.90    1.60 
 -15 -10  -1    0.60    0.60 
 -15 -10   1    0.50    0.70 
 -15 -10   1   -0.40    0.80 
 -10  15   1   -0.20    0.80 
 -15  -9  -1    0.00    0.40 
 -15  -9  -1    0.80    0.50 
  -9  15  -1    0.20    0.70 
 -15  -9   1   -0.40    0.60 
 -15  -9   1    0.90    0.70 
  -9  15   1   -0.10    0.80 
 -15  -9   1   -0.80    0.70 
  -8  15  -1    3.10    0.70 
  -8  15  -1    1.90    0.80 
 -15  -8  -1    2.50    1.10 
  -8  15   1    1.20    0.90 
 -15  -8   1    2.80    0.90 
 -15  -8   1    3.10    1.00 
 -15  -8   1    2.00    0.70 
  -7  15  -1   26.70    2.70 
 -15  -7   1   21.90    2.70 
 -15  -7   1   21.60    2.70 
  -7  15   1   27.00    2.80 
 -15  -7   1   27.10    3.00 
  -6  15  -1    0.30    0.70 
  -6  15  -1    1.40    0.60 
 -15  -6  -1    0.60    1.00 
 -15  -6   1    3.30    0.60 
  -6  15   1    2.20    1.10 
 -15  -6   1    2.80    0.60 
 -15  -6   1    2.40    1.00 
  -5  15  -1   35.40    3.90 
  -5  15  -1   39.30    4.10 
 -15  -5  -1   36.10    4.30 
 -15  -5   1   38.80    4.30 
  -5  15   1   37.50    4.00 
 -15  -4  -1    5.30    1.20 
  -4  15  -1    5.00    1.20 
  -4  15  -1    4.50    0.80 
  -4  15   1    4.60    0.90 
 -15  -4   1    5.30    1.20 
  -3  15  -1    4.50    0.70 
 -15  -3  -1    5.00    1.30 
  -3  15  -1    5.10    0.80 
  -3  15   1    4.00    0.80 
 -15  -3   1    3.60    1.20 
  -2  15  -1    8.70    1.10 
 -15  -2  -1    8.00    1.60 
  -2  15  -1    8.40    1.00 
 -15  -2   1    8.00    1.50 
  -2  15   1    9.00    1.20 
  -1  15  -1   51.19    5.60 
 -15  -1  -1   61.29    6.10 
 -15  -1   1   60.69    6.00 
  -1  15   1   51.49    5.70 
 -15   0  -1    0.10    0.90 
 -15   0   1    0.30    0.80 
 -15   1  -1   63.69    6.50 
 -15   1   1   57.59    6.40 
   1  15   1   57.29    6.10 
 -15   2  -1   13.10    2.10 
 -15   2   1    7.80    1.60 
   2  15   1    7.90    1.00 
  15  -3  -1    5.50    0.80 
   3  15   1    4.00    0.70 
 -15   4  -1    4.30    1.50 
  15  -4  -1    5.40    0.80 
   4  15   1    4.70    0.80 
  15  -4   1    4.80    0.70 
 -15   4   1    4.10    1.30 
  15  -5  -1   38.60    4.10 
 -15   5  -1   41.00    4.60 
 -15   5   1   36.80    4.40 
  15  -6  -1    2.70    0.70 
 -15   6  -1    1.30    1.00 
  -6 -15  -1    1.90    0.80 
  15  -6   1    3.50    0.70 
   6  15   1    1.30    0.50 
 -15   6   1   -0.30    0.90 
  15  -7  -1   32.00    3.60 
  -7 -15  -1   32.30    3.60 
 -15   7  -1   37.20    4.10 
  15  -7   1   31.20    3.60 
 -15   7   1   32.00    3.90 
   7  15   1   34.40    3.50 
 -15   8  -1    1.50    1.70 
  15  -8  -1    2.20    0.80 
  -8 -15  -1    2.20    0.70 
  -8 -15   1    2.30    0.50 
 -15   8   1    2.10    1.10 
  15  -8   1    3.00    0.80 
  -9 -15  -1    0.60    0.60 
 -15   9  -1    0.90    1.00 
 -15   9   1    1.80    1.00 
  15  -9   1    0.20    0.80 
 -10 -15  -1    0.50    0.60 
 -15  10  -1    0.20    1.00 
 -15  10   1   -0.70    0.70 
 -10 -15   1   -0.10    0.50 
 -16  -9  -1    0.80    1.00 
  -9  16  -1    1.50    0.80 
  -9  16   1    2.40    1.00 
 -16  -9   1    0.30    0.90 
 -16  -9   1    0.90    0.70 
 -16  -8  -1    0.20    0.90 
  -8  16  -1    2.00    0.60 
  -8  16  -1    0.00    0.70 
 -16  -8   1    1.30    0.90 
 -16  -8   1    0.90    0.50 
  -8  16   1    1.40    0.90 
  -7  16  -1    3.20    1.00 
 -16  -7  -1    5.00    1.30 
  -7  16  -1    5.40    1.00 
  -7  16   1    3.60    0.90 
  -7  16   1    4.90    1.20 
 -16  -7   1    4.70    1.20 
 -16  -6  -1    0.50    0.90 
  -6  16  -1    1.40    0.60 
  -6  16  -1    1.40    0.50 
 -16  -6   1    2.40    1.00 
  -6  16   1    2.10    0.70 
 -16  -5  -1    1.40    1.00 
  -5  16  -1    3.50    0.70 
  -5  16  -1    3.20    0.60 
 -16  -5   1    3.10    1.00 
  -5  16   1    2.20    0.70 
 -16  -4  -1   -0.40    0.70 
  -4  16  -1   -0.70    0.40 
  -4  16  -1   -0.20    0.40 
 -16  -4   1    0.30    0.70 
  -4  16   1    0.50    0.50 
  -3  16  -1    2.10    0.50 
  -3  16  -1    1.90    0.50 
 -16  -3  -1    1.40    1.00 
  -3  16   1    1.60    0.60 
 -16  -3   1    2.70    1.10 
  -2  16  -1    4.30    0.60 
 -16  -2  -1    4.20    1.30 
  -2  16  -1    2.90    0.50 
 -16  -2   1    3.20    1.20 
  -2  16   1    4.10    0.70 
 -16  -1  -1   11.30    2.10 
 -16  -1   1   11.70    2.00 
  -1  16   1   11.60    1.50 
 -16   0  -1   -0.70    0.80 
 -16   0   1    1.00    1.00 
 -16   1  -1   12.80    2.10 
   1  16   1   11.00    1.30 
 -16   1   1   11.10    1.90 
 -16   2  -1    3.40    1.30 
   2  16   1    4.00    0.60 
 -16   2   1    3.30    1.20 
  16  -3  -1    3.00    0.50 
 -16   3  -1    1.20    1.00 
 -16   3   1    0.60    1.00 
   3  16   1    1.90    0.50 
 -16   4  -1    0.70    0.90 
 -16   4   1   -0.30    0.80 
   4  16   1   -0.30    0.30 
 -16   5  -1    2.70    1.20 
  16  -5  -1    3.60    0.70 
 -16   5   1    2.60    1.00 
  16  -5   1    3.50    0.60 
   5  16   1    3.80    0.90 
  16  -6  -1    2.30    0.70 
 -16   6  -1    1.40    1.10 
 -16   6   1    1.20    1.10 
  16  -6   1    2.40    0.60 
  16  -7  -1    4.70    1.00 
 -16   7  -1    4.60    1.40 
 -16   7   1    4.20    1.20 
  16  -7   1    5.00    0.90 
  -8 -16  -1    0.90    0.60 
  16  -8  -1    1.00    0.80 
 -16   8  -1    0.40    0.90 
  16  -8   1    1.40    0.70 
 -16   8   1    2.00    1.40 
 -16   9  -1    0.20    1.70 
  -9 -16  -1    1.80    0.60 
 -16   9   1   -0.10    0.90 
  -9 -16   1    1.90    0.60 
  -7  17  -1    0.40    0.60 
 -17  -7  -1    1.70    1.10 
 -17  -7   1   -0.20    0.80 
  -7  17   1    0.50    0.80 
 -17  -6  -1    0.10    0.90 
  -6  17  -1    0.60    0.60 
  -6  17   1    2.20    0.70 
  -6  17   1    0.30    0.70 
 -17  -6   1    1.90    1.00 
  -5  17  -1   -0.20    0.40 
  -5  17  -1   -0.30    0.40 
 -17  -5  -1    0.00    0.90 
  -5  17   1   -0.40    0.50 
 -17  -5   1    0.20    0.80 
  -5  17   1    0.30    0.60 
 -17  -4  -1    0.30    0.80 
  -4  17  -1    0.00    0.40 
 -17  -4   1    0.60    0.90 
  -4  17   1    0.70    0.60 
  -3  17  -1   35.60    3.50 
  -3  17  -1   29.70    3.50 
 -17  -3  -1   39.40    4.10 
  -3  17   1   33.10    3.60 
 -17  -3   1   35.80    4.00 
 -17  -2  -1    1.30    1.10 
  -2  17   1    1.30    0.50 
 -17  -2   1    1.70    1.00 
 -17  -1  -1    0.20    0.80 
 -17  -1   1    0.30    0.90 
 -17   0  -1    0.40    1.00 
   0  17   1    0.50    0.30 
 -17   0   1   -0.10    0.90 
 -17   1  -1    0.20    1.00 
 -17   1   1   -1.30    0.80 
   1  17   1    0.20    0.30 
 -17   2  -1    2.20    1.20 
 -17   2   1    2.70    1.20 
 -17   3  -1   40.10    4.50 
   3  17   1   35.90    3.80 
 -17   3   1   37.70    4.40 
 -17   4  -1    2.20    1.30 
 -17   4   1   -0.30    1.40 
   4  17   1    0.80    0.30 
  17  -5  -1    0.80    0.50 
 -17   5   1    0.20    1.30 
 -17   6  -1    2.00    1.20 
 -17   6   1    1.40    1.10 
 -17   7  -1   -0.20    0.90 
 -17   7   1    0.40    0.90 
 -18  -3  -1    1.30    1.00 
 -18  -3   1    3.20    1.30 
 -18  -2  -1   -1.00    0.70 
 -18  -2   1   -1.00    1.00 
 -18  -1  -1    5.50    1.40 
 -18  -1   1    4.60    1.30 
 -18   0  -1    4.00    1.30 
 -18   0   1    1.10    1.10 
 -18   1  -1    3.10    1.30 
 -18   1   1    2.20    1.10 
 -18   2  -1   -1.50    0.80 
 -18   2   1   -0.70    1.00 
 -18   3  -1    1.50    1.10 
 -18   3   1    3.70    1.30 
   0   0  -2   64.09    6.80 
   0   0  -2   70.19    6.80 
   0   0   2   66.29    6.80 
   0   0   2   68.59    6.80 
   1   0  -2   15.90    1.60 
   0   1  -2   15.60    1.60 
   0   1  -2   18.00    1.60 
  -1   0  -2   15.20    1.60 
  -1   0  -2   15.00    1.70 
   0  -1  -2   16.60    1.60 
   0  -1  -2   14.70    1.70 
   1   0   2   13.50    1.70 
   0  -1   2   15.70    1.60 
  -1   0   2   16.10    1.60 
   1   0   2   14.20    1.60 
  -1   0   2   16.70    1.60 
   0   1   2   18.00    1.60 
   0   1   2   14.70    1.60 
   0  -1   2   15.90    1.60 
   1  -1  -2    5.20    0.60 
  -1  -1  -2    6.00    0.60 
  -1   1  -2    4.30    0.70 
   1  -1  -2    5.20    0.60 
  -1  -1  -2    4.00    0.70 
   1   1  -2    5.90    0.60 
  -1   1   2    6.40    0.60 
  -1   1   2    5.80    0.60 
   1  -1   2    4.80    0.70 
  -1  -1   2    5.10    0.60 
  -1  -1   2    6.20    0.60 
   1  -1   2    5.90    0.60 
   1   1   2    5.40    0.70 
   1   1   2    6.30    0.60 
  -1   2  -2    8.50    0.90 
  -2  -1  -2    7.30    1.00 
   2   1  -2    9.30    0.90 
   1  -2  -2    9.20    1.00 
   1  -2  -2    8.70    1.00 
  -2  -1  -2    8.60    0.90 
  -2  -1   2    8.90    0.90 
   1  -2   2    8.20    0.90 
   2   1   2    8.70    0.90 
  -1   2   2    8.00    1.00 
   2   1   2    8.00    1.00 
  -1   2   2    8.00    0.90 
   0  -2  -2   67.99    7.20 
  -2   0  -2   71.99    7.20 
   0  -2  -2   72.99    7.20 
  -2   0  -2   69.89    7.20 
   2   0  -2   71.49    7.20 
   0   2  -2   69.59    7.20 
  -2   0   2   73.89    7.20 
   2   0   2   74.49    7.20 
   0   2   2   73.19    7.20 
   0   2   2   67.29    7.20 
   0  -2   2   65.89    7.20 
   2  -1  -2    7.20    0.90 
  -1  -2  -2    8.00    1.00 
  -1  -2  -2    7.80    0.90 
  -2   1  -2    8.00    0.90 
  -2   1   2    8.10    0.90 
   2  -1   2    8.50    1.00 
   1   2   2    8.20    0.90 
   1   2   2    8.40    1.00 
  -1  -2   2    8.70    0.90 
  -2  -2  -2  568.94   69.89 
  -2   2  -2  596.54   63.89 
   2   2  -2  613.74   62.89 
  -2   2  -2  716.13   72.39 
   2  -2  -2  602.44   65.49 
  -2  -2  -2  540.45   64.29 
  -2  -2   2  640.44   63.09 
   2  -2   2  632.74   63.99 
  -2  -2   2  646.94   64.99 
   2   2   2  657.43   64.39 
  -2   2   2  597.94   64.99 
  -2   2   2  780.72   78.99 
   2  -2   2  602.94   70.79 
   2  -3  -2   25.80    2.60 
  -3  -2  -2   22.70    2.60 
  -3  -2  -2   22.10    2.50 
  -2   3  -2   25.30    2.50 
   2  -3   2   23.40    2.50 
   3   2   2   22.30    2.60 
  -3  -2   2   23.10    2.50 
   3   2   2   26.90    2.50 
  -2   3   2   27.60    2.60 
  -1   3  -2    1.30    0.30 
  -3  -1  -2    2.10    0.30 
   1  -3  -2    1.40    0.40 
   3   1  -2    1.40    0.30 
  -3  -1  -2    1.40    0.50 
  -1   3   2    1.90    0.50 
  -3  -1   2    2.10    0.30 
   3   1   2    2.40    0.30 
  -1   3   2    1.70    0.30 
   3   1   2    1.90    0.50 
  -3   0  -2   25.50    2.90 
   0   3  -2   25.20    2.80 
   0  -3  -2   28.80    2.90 
   3   0  -2   26.70    2.80 
   0  -3  -2   27.80    2.90 
  -3   0   2   26.80    2.80 
   0   3   2   32.90    2.90 
   3   0   2   26.00    2.80 
   3   0   2   29.40    2.90 
   0  -3   2   28.60    2.80 
   0   3   2   27.60    2.90 
   3  -1  -2    1.50    0.30 
  -3   1  -2    2.80    0.50 
  -1  -3  -2    1.40    0.40 
  -1  -3  -2    1.10    0.40 
   1   3   2    2.40    0.50 
  -3   1   2    2.10    0.40 
   3  -1   2    1.70    0.40 
   1   3   2    1.30    0.40 
  -1  -3   2    1.60    0.20 
  -2  -3  -2   21.30    2.60 
  -2  -3  -2   23.70    2.50 
   3  -2  -2   22.30    2.40 
  -3   2  -2   23.70    2.50 
   3  -2   2   21.70    2.50 
   2   3   2   27.70    2.50 
  -3   2   2   25.00    2.50 
   2   3   2   21.40    2.50 
   3  -3  -2   27.30    2.80 
  -3   3  -2   24.00    2.80 
  -3  -3  -2   25.40    2.90 
  -3  -3  -2   27.00    2.80 
  -3  -3   2   24.90    2.70 
  -3   3   2   30.60    2.80 
   3  -3   2   24.90    2.70 
   3  -4  -2   39.60    4.00 
  -4  -3  -2   35.00    4.00 
  -4  -3  -2   36.30    4.00 
  -3   4  -2   39.50    4.00 
  -4  -3   2   37.10    3.90 
  -4  -3   2   37.20    4.00 
   4   3   2   39.00    4.00 
  -3   4   2   42.30    4.00 
   2  -4  -2  582.64   65.89 
  -2   4  -2  701.43   77.09 
   2  -4  -2  652.93   82.79 
  -4  -2  -2  552.14   63.59 
  -2   4  -2  598.54   71.79 
  -4  -2  -2  643.14   70.89 
   4   2   2  622.04   63.39 
   2  -4   2  630.44   64.19 
   4   2   2  741.13   73.89 
   2  -4   2  569.54   64.29 
  -2   4   2  634.74   65.69 
   1  -4  -2   54.39    5.20 
   4   1  -2   52.49    5.10 
  -1   4  -2   46.30    5.10 
   4   1   2   40.80    5.20 
  -4  -1   2   53.79    5.10 
  -1   4   2   52.89    5.10 
   0  -4  -2    8.40    1.10 
   0  -4  -2   10.20    1.20 
  -4   0  -2    7.30    1.10 
   4   0  -2    9.60    1.00 
   4   0   2    7.70    1.10 
   0   4   2   10.50    1.20 
  -4   0   2   10.00    1.00 
   4   0   2    9.00    0.90 
   0   4   2   10.10    1.10 
   4  -1  -2   53.59    5.10 
  -1  -4  -2   48.70    5.10 
  -4   1  -2   44.50    5.10 
  -1  -4  -2   57.69    5.20 
   4  -1   2   41.30    5.10 
   1   4   2   47.50    5.10 
  -4   1   2   53.29    5.10 
  -4   2  -2  623.24   70.79 
  -4   2  -2  544.95   60.49 
  -2  -4  -2  445.96   68.59 
  -2  -4   2  556.74   59.59 
  -4   2   2  568.44   61.09 
   2   4   2  646.84   61.99 
  -2  -4   2  588.74   59.79 
   4  -2   2  600.04   60.59 
  -4   2   2  712.13   77.29 
   4  -2   2  565.24   70.59 
  -3  -4  -2   33.90    3.90 
  -4   3  -2   39.60    3.90 
   4  -3  -2   37.50    3.80 
  -3  -4  -2   36.10    3.90 
   3   4   2   34.90    3.80 
  -3  -4   2   34.90    3.80 
  -4   3   2   40.10    3.80 
  -4  -4  -2  159.98   14.60 
   4  -4  -2  125.79   14.50 
   4   4   2  153.98   14.50 
  -4   4   2  130.99   14.50 
   4  -5  -2  108.99   10.60 
  -4   5  -2  115.49   10.40 
  -5  -4  -2   97.69   10.50 
  -5  -4  -2   95.09   10.40 
  -5  -4   2   98.79   10.40 
  -4   5   2  106.19   10.50 
   5   4   2   94.79   10.50 
  -5  -4   2   99.49   10.40 
  -5  -3  -2   10.80    1.30 
  -5  -3  -2   10.30    1.40 
   3  -5  -2   11.40    1.40 
  -3   5  -2   11.20    1.30 
  -3   5   2   12.30    1.50 
   5   3   2   10.50    1.40 
  -5  -3   2   11.90    1.30 
  -5  -3   2   11.00    1.30 
  -2   5  -2   40.80    4.40 
  -5  -2  -2   38.80    4.50 
   2  -5  -2   45.70    4.50 
  -5  -2  -2   42.90    4.30 
  -2   5   2   42.40    4.40 
   5   2   2   41.00    4.50 
  -2   5   2   46.50    4.50 
  -5  -2   2   41.60    4.40 
   5   1  -2    1.80    0.30 
  -5  -1  -2    1.20    0.50 
  -1   5  -2    1.20    0.30 
   1  -5  -2    2.80    0.70 
  -1   5   2    2.10    0.40 
  -1   5   2    2.40    0.60 
  -5  -1   2    2.60    0.40 
   5   1   2    0.90    0.40 
   0  -5  -2   17.50    2.30 
  -5   0  -2   18.90    2.20 
   5   0  -2   20.60    2.10 
   0  -5  -2   21.90    2.20 
   0   5   2   22.40    2.20 
  -5   0   2   20.00    2.20 
   0   5   2   22.90    2.30 
   5   0   2   20.10    2.30 
  -1  -5  -2    1.20    0.50 
  -1  -5  -2    2.00    0.60 
  -5   1  -2    1.50    0.50 
   5  -1  -2    2.40    0.30 
   5  -1   2    1.40    0.40 
  -5   1   2    2.10    0.40 
   1   5   2    1.90    0.60 
   1   5   2    1.60    0.40 
   5  -1   2    2.20    0.40 
  -2  -5  -2   36.10    4.20 
   5  -2  -2   43.20    4.20 
  -2  -5  -2   41.90    4.30 
  -5   2  -2   37.40    4.20 
  -2  -5   2   36.60    4.10 
   2   5   2   37.10    4.20 
   5  -2   2   46.90    4.20 
   5  -2   2   40.20    4.20 
  -5   2   2   44.40    4.20 
   5  -3  -2   11.70    1.30 
  -3  -5  -2   11.60    1.50 
  -5   3  -2   11.30    1.40 
  -3  -5  -2   12.30    1.50 
   3   5   2   11.10    1.40 
  -3  -5   2   10.30    1.20 
  -5   3   2   12.10    1.40 
   5  -3   2   11.90    1.40 
   5  -4  -2   97.29   10.30 
  -4  -5  -2   98.19   10.40 
  -4  -5  -2  103.39   10.40 
  -5   4  -2  100.29   10.30 
  -4  -5   2  105.29   10.30 
   5  -4   2   92.49   10.40 
  -5   4   2  108.89   10.40 
   4   5   2  100.09   10.30 
   5  -5  -2   11.60    1.40 
  -5   5  -2   10.30    1.40 
  -5  -5  -2   10.80    1.50 
  -5  -5  -2    9.80    1.50 
   5   5   2   10.40    1.40 
  -5   5   2   13.10    1.50 
   5  -5   2   11.50    1.50 
  -5  -5   2   10.60    1.30 
  -6  -5  -2   31.30    3.70 
  -6  -5  -2   36.00    3.70 
   5  -6  -2   39.40    3.70 
  -5   6  -2   34.40    3.60 
  -6  -5   2   28.40    3.50 
  -5   6   2   40.40    3.80 
   6   5   2   27.80    3.60 
   5  -6   2   31.70    3.80 
  -6  -5   2   35.60    3.60 
  -6  -4  -2   97.49   10.30 
  -4   6  -2  111.29   10.30 
   4  -6  -2  101.39   10.40 
  -6  -4  -2   95.29   10.30 
  -6  -4   2   93.49   10.20 
  -4   6   2  118.89   10.80 
   6   4   2   95.39   10.30 
  -6  -4   2   95.79   10.20 
   4  -6   2  100.89   10.50 
  -6  -3  -2   21.80    2.30 
  -3   6  -2   22.50    2.40 
   3  -6  -2   23.90    2.60 
  -6  -3  -2   21.30    2.50 
   6   3   2   19.00    2.50 
  -6  -3   2   19.90    2.40 
  -3   6   2   24.50    2.40 
  -6  -3   2   22.10    2.40 
  -3   6   2   25.50    2.60 
  -2   6  -2    1.40    0.30 
   2  -6  -2    0.20    0.50 
  -6  -2  -2    1.80    0.60 
   6   2   2    0.80    0.50 
  -2   6   2    2.00    0.40 
  -6  -2   2    1.40    0.40 
  -2   6   2    1.90    0.60 
  -1   6  -2   27.70    2.90 
   1  -6  -2   29.70    3.20 
   6   1  -2   26.50    2.90 
  -6  -1  -2   27.40    3.00 
  -1   6   2   31.20    3.10 
   6   1   2   27.20    3.00 
  -1   6   2   27.10    2.90 
  -6  -1   2   27.00    2.90 
   0  -6  -2   47.60    4.60 
   6   0  -2   43.00    4.50 
  -6   0   2   39.50    4.60 
   0   6   2   48.60    4.60 
   6  -1  -2   28.10    2.90 
  -6   1  -2   26.30    3.00 
  -1  -6  -2   26.60    3.00 
   1   6   2   25.40    2.90 
   6  -1   2   28.40    2.80 
   6  -1   2   29.40    3.00 
  -6   1   2   28.30    2.90 
   6  -2  -2    1.90    0.40 
  -2  -6  -2    2.10    0.60 
  -2  -6  -2    2.30    0.80 
  -6   2  -2    0.90    0.50 
  -6   2   2    2.70    0.50 
   6  -2   2    0.40    0.40 
   2   6   2    1.00    0.40 
   6  -2   2    1.80    0.40 
  -3  -6  -2   24.00    2.70 
  -6   3  -2   20.60    2.50 
   6  -3  -2   23.00    2.40 
  -3  -6  -2   21.50    2.60 
  -6   3   2   22.30    2.50 
  -3  -6   2   20.50    2.30 
   3   6   2   23.00    2.40 
   6  -3   2   25.20    2.50 
   6  -4  -2   98.69   10.40 
  -6   4  -2  102.09   10.50 
  -4  -6  -2  102.69   10.60 
  -4  -6  -2   97.09   10.50 
   6  -4   2  101.19   10.50 
  -6   4   2  103.89   10.50 
  -4  -6   2  102.29   10.30 
   4   6   2  105.69   10.40 
   6  -5  -2   34.80    3.60 
  -5  -6  -2   36.70    3.80 
  -5  -6  -2   33.20    3.70 
  -6   5  -2   31.00    3.70 
   6  -5   2   34.10    3.70 
  -5  -6   2   32.50    3.50 
  -6   5   2   35.10    3.70 
  -6  -6  -2  375.56   41.80 
  -6   6  -2  469.65   41.80 
   6  -6  -2  387.26   41.70 
  -6  -6  -2  448.36   41.80 
  -6   6   2  409.86   41.80 
  -6  -6   2  434.56   41.70 
   6   6   2  425.76   41.80 
   6  -6   2  345.17   41.80 
  -7  -6  -2   48.20    4.90 
   6  -7  -2   47.60    4.90 
  -7  -6  -2   43.50    4.80 
   7   6   2   42.60    4.80 
  -7  -6   2   45.70    4.80 
   6  -7   2   39.20    4.90 
  -6   7   2   49.99    5.00 
  -7  -6   2   42.30    4.70 
   5  -7  -2    7.50    1.20 
  -7  -5  -2    6.80    1.00 
  -5   7  -2    5.60    0.90 
  -7  -5  -2    4.10    1.00 
   5  -7   2    6.20    1.30 
  -7  -5   2    4.90    0.90 
   7   5   2    4.20    1.00 
  -7  -5   2    5.10    0.90 
  -5   7   2    7.10    1.30 
  -7  -4  -2    0.40    0.50 
  -7  -4  -2    1.30    0.70 
  -4   7  -2    1.60    0.50 
   4  -7  -2    1.00    0.70 
   7   4   2    0.50    0.50 
  -4   7   2    0.80    0.70 
  -7  -4   2    1.20    0.50 
  -7  -4   2    0.60    0.50 
   4  -7   2    1.90    1.00 
  -3   7  -2    4.00    1.00 
   3  -7  -2    6.10    1.10 
  -7  -3  -2    3.40    0.80 
  -7  -3  -2    5.60    0.70 
  -3   7   2    4.80    0.80 
  -7  -3   2    3.90    0.80 
   7   3   2    2.90    0.80 
  -7  -3   2    5.90    0.80 
  -3   7   2    4.50    1.10 
  -7  -2  -2    2.80    0.70 
   2  -7  -2    3.70    1.00 
  -2   7   2    2.70    0.90 
   7   2   2    3.60    0.90 
  -7  -2   2    3.20    0.60 
  -2   7   2    3.10    0.60 
  -7  -2   2    3.90    0.70 
   7   1  -2   44.40    4.30 
   1  -7  -2   40.30    4.60 
  -1   7  -2   41.90    4.30 
  -7  -1  -2   35.60    4.40 
  -1   7  -2   37.80    4.30 
  -7  -1   2   41.20    4.40 
  -1   7   2   39.40    4.30 
   7   1   2   38.30    4.50 
  -7  -1   2   48.70    4.30 
  -1   7   2   51.49    4.60 
   0  -7  -2  209.98   22.40 
  -7   0  -2  227.78   22.30 
   7   0  -2  206.38   22.10 
   0  -7  -2  230.98   22.20 
  -7   0   2  209.38   22.10 
   7   0   2  219.88   22.30 
   0   7   2  227.88   22.20 
   7  -1  -2   47.30    4.50 
  -1  -7  -2   43.20    4.60 
  -1  -7  -2   40.90    4.90 
  -7   1  -2   41.90    4.70 
  -7   1   2   48.70    4.60 
   1   7   2   37.60    4.60 
   7  -1   2   46.50    4.50 
   7  -1   2   43.50    4.70 
   7  -2  -2    2.80    0.50 
  -2  -7  -2    2.00    0.90 
  -2  -7  -2    4.30    0.80 
  -7   2  -2    4.80    0.90 
   2   7   2    2.90    0.60 
   7  -2   2    3.30    0.50 
  -7   2   2    3.90    0.70 
   7  -3  -2    5.70    0.70 
  -3  -7  -2    3.10    0.90 
  -7   3  -2    4.10    0.90 
  -3  -7  -2    4.00    1.10 
  -7   3   2    5.60    0.90 
  -3  -7   2    2.70    0.60 
   7  -3   2    6.00    0.80 
   3   7   2    3.40    0.70 
  -7   4  -2    1.10    0.60 
   7  -4  -2    2.30    0.60 
  -4  -7  -2    0.80    0.80 
  -4  -7  -2    1.00    0.80 
  -7   4   2    0.30    0.60 
  -4  -7   2    1.40    0.50 
   7  -4   2    1.90    0.60 
  -5  -7  -2    6.10    1.20 
  -7   5  -2    4.30    1.00 
   7  -5  -2    5.70    0.90 
  -5  -7  -2    5.50    1.10 
  -5  -7   2    5.00    0.80 
   7  -5   2    6.50    1.10 
   5   7   2    5.10    0.90 
  -7   5   2    6.50    1.20 
   7  -6  -2   44.80    5.00 
  -6  -7  -2   43.80    5.10 
  -7   6  -2   47.80    5.00 
  -6  -7  -2   50.09    5.30 
  -7   6   2   45.70    5.10 
   7  -6   2   46.70    5.10 
   6   7   2   48.20    5.00 
  -6  -7   2   47.90    4.90 
  -7  -7  -2    4.70    1.10 
   7  -7  -2    3.60    0.90 
  -7   7  -2    5.50    1.00 
  -7  -7  -2    3.00    1.10 
   7   7   2    4.90    0.90 
   7  -7   2    4.10    1.10 
  -7  -7   2    4.80    0.80 
  -7   7   2    4.50    1.20 
  -7   8  -2   16.30    1.90 
   7  -8  -2   11.60    1.90 
  -8  -7  -2   15.20    1.90 
  -7   8   2   13.30    2.10 
  -8  -7   2   14.40    1.80 
   8   7   2   15.00    1.80 
   7  -8   2   10.80    2.00 
  -8  -6  -2   97.49    9.60 
   6  -8  -2   88.79    9.70 
  -8  -6  -2   95.09    9.60 
  -6   8  -2   96.89    9.60 
   8   6   2   94.99    9.80 
   6  -8   2   77.79    9.70 
  -8  -6   2   89.79    9.50 
  -8  -6   2   90.39    9.50 
  -6   8   2   99.49    9.70 
  -8  -5  -2    7.30    1.10 
   5  -8  -2    6.80    1.30 
  -5   8  -2    6.40    1.00 
  -8  -5  -2    5.00    1.10 
  -5   8   2    7.70    1.40 
   8   5   2    5.80    1.10 
  -8  -5   2    7.60    1.10 
   5  -8   2    8.00    1.60 
  -8  -5   2    4.60    0.90 
  -8  -4  -2   60.99    5.20 
  -8  -4  -2   44.30    5.00 
   4  -8  -2   42.50    5.30 
  -8  -4   2   47.40    5.10 
  -4   8   2   53.59    5.20 
   4  -8   2   40.70    5.40 
  -4   8   2   51.59    5.30 
  -8  -3  -2   18.20    2.30 
  -3   8  -2   21.00    2.10 
   3  -8  -2   20.10    2.50 
   3  -8   2   21.60    2.70 
  -8  -3   2   17.50    2.20 
  -8  -3   2   19.90    2.10 
   8   3   2   17.30    2.30 
  -3   8   2   18.90    2.20 
  -8  -2  -2  695.53   72.19 
  -2   8  -2  807.02   72.09 
   2  -8  -2  601.14   72.29 
  -2   8   2  705.53   72.09 
   8   2   2  756.72   72.29 
  -1   8  -2   33.30    3.30 
   8   1  -2   30.40    3.40 
   1  -8  -2   36.90    3.90 
  -8  -1  -2   32.40    3.60 
  -1   8  -2   34.60    3.40 
  -8  -1   2   29.10    3.50 
  -1   8   2   33.30    3.40 
  -8  -1   2   33.40    3.40 
   8   1   2   30.20    3.60 
   8   0  -2   63.39    6.40 
  -8   0  -2   58.29    6.60 
   0  -8  -2   69.09    6.80 
   8   0   2   58.09    6.60 
  -8   0   2   58.49    6.50 
  -8   0   2   64.89    6.40 
   0   8   2   65.49    6.40 
  -8   1  -2   30.80    3.60 
  -1  -8  -2   32.80    3.50 
   8  -1  -2   31.80    3.40 
  -1  -8  -2   35.60    3.90 
   8  -1   2   32.80    3.30 
  -8   1   2   34.60    3.50 
   1   8   2   31.50    3.50 
  -2  -8  -2  606.94   66.59 
  -2  -8  -2  654.43   66.49 
  -8   2  -2  702.43   66.49 
   2   8   2  672.53   66.39 
  -8   2   2  649.93   66.39 
  -3  -8  -2   23.30    2.70 
  -8   3  -2   16.40    2.30 
   8  -3  -2   20.70    2.20 
  -3  -8  -2   19.30    2.40 
  -3  -8   2   18.70    2.10 
   8  -3   2   22.20    2.20 
   3   8   2   20.70    2.20 
  -8   3   2   21.10    2.30 
  -4  -8  -2   56.69    5.50 
   8  -4  -2   43.60    5.30 
  -4  -8   2   61.49    5.30 
   8  -4   2   49.60    5.30 
  -8   4   2   45.80    5.40 
  -5  -8  -2    7.90    1.30 
  -5  -8  -2    8.60    1.50 
   8  -5  -2    7.00    1.00 
  -8   5  -2    5.40    1.20 
   8  -5   2    9.30    1.30 
  -5  -8   2    6.20    1.00 
   5   8   2    6.00    1.00 
  -8   5   2    9.20    1.40 
  -6  -8  -2   98.79   10.00 
  -6  -8  -2   87.99    9.90 
   8  -6  -2   90.09    9.70 
  -8   6  -2   96.29    9.80 
   6   8   2   95.89    9.80 
  -6  -8   2   91.89    9.70 
  -8   6   2   98.89    9.90 
   8  -6   2   98.49    9.80 
   8  -7  -2   15.00    1.90 
  -7  -8  -2   15.70    2.10 
  -7  -8  -2   11.40    2.10 
  -8   7  -2   16.20    1.90 
  -8   7   2   15.40    2.30 
   7   8   2   15.60    1.80 
  -7  -8   2   14.60    1.70 
   8  -7   2   12.20    2.00 
  -8   8  -2   14.20    1.90 
  -8  -8  -2   13.30    1.90 
   8  -8  -2   11.80    1.80 
  -8  -8  -2   15.00    2.10 
   8  -8   2   12.00    2.00 
   8   8   2   13.10    1.70 
  -8   8   2   16.90    2.30 
  -8   9  -2    2.60    0.90 
  -9  -8  -2    0.70    1.00 
   8  -9  -2    1.20    1.00 
  -9  -8  -2    2.30    1.00 
   9   8   2   -0.10    0.70 
   8  -9   2    1.10    1.10 
  -9  -8   2    1.80    0.80 
  -9  -8   2    1.60    0.70 
  -9  -7  -2    1.10    0.90 
  -9  -7  -2    1.60    0.90 
  -7   9  -2    2.20    0.80 
   7  -9  -2    1.50    1.20 
   9   7   2    2.00    0.80 
  -9  -7   2    1.50    0.70 
   7  -9   2   -0.70    1.00 
  -9  -7   2    1.30    0.80 
  -9  -6  -2   34.20    3.60 
   6  -9  -2   29.90    3.70 
  -6   9  -2   37.20    3.50 
  -9  -6  -2   29.20    3.50 
   9   6   2   30.90    3.60 
  -9  -6   2   31.60    3.40 
   6  -9   2   27.90    3.90 
  -9  -6   2   29.70    3.50 
  -9  -5  -2    5.90    1.20 
   5  -9  -2    7.60    1.50 
  -9  -5  -2    9.30    1.20 
  -5   9  -2    5.60    1.10 
   5  -9   2    7.60    1.70 
   9   5   2    5.30    1.20 
  -9  -5   2    8.50    1.20 
  -9  -5   2    5.80    1.10 
  -5   9   2    8.20    1.10 
  -4   9  -2   31.00    3.10 
  -9  -4  -2   26.20    2.90 
  -9  -4  -2   27.70    2.90 
   4  -9  -2   24.80    3.40 
  -9  -4  -2   27.90    3.20 
   4  -9   2   30.10    3.60 
  -9  -4   2   27.20    3.10 
  -9  -4   2   28.80    3.00 
   9   4   2   27.20    3.20 
  -4   9   2   27.70    3.00 
  -3   9  -2    1.30    0.50 
  -9  -3  -2    0.40    0.70 
   3  -9  -2    2.70    1.10 
   9   3   2    1.30    0.70 
  -9  -3   2    1.00    0.60 
  -9  -3   2    2.20    0.50 
  -3   9   2    0.70    0.50 
   3  -9   2    0.80    1.10 
  -2   9  -2    5.30    0.80 
   2  -9  -2    5.50    1.40 
  -2   9  -2    6.80    0.70 
  -9  -2  -2    5.00    1.10 
   2  -9   2    6.70    1.40 
  -9  -2   2    7.20    0.90 
  -2   9   2    5.70    0.90 
  -9  -2   2    3.20    0.90 
   9   2   2    3.80    1.10 
   9   1  -2    4.90    0.70 
  -1   9  -2    5.40    0.70 
  -9  -1  -2    4.50    1.00 
   1  -9  -2    8.40    1.60 
  -1   9  -2    5.40    0.70 
  -1   9   2    6.30    0.90 
  -9  -1   2    6.30    0.90 
  -9  -1   2    5.10    1.00 
   9   1   2    4.50    1.10 
  -9   0  -2   54.69    5.70 
   0  -9  -2   50.89    5.90 
   9   0  -2   48.40    5.40 
  -9   0   2   52.99    5.50 
   0   9   2   56.69    5.50 
  -9   0   2   55.19    5.60 
   9  -1  -2    6.80    0.70 
  -9   1  -2    3.80    1.00 
  -1  -9  -2    8.50    1.60 
  -1  -9  -2    5.40    1.00 
   1   9   2    4.90    0.80 
  -9   1   2    5.40    0.90 
  -9   1   2    3.30    0.90 
   9  -2  -2    7.90    0.90 
  -9   2  -2    6.40    1.20 
  -2  -9  -2    4.50    1.50 
  -2  -9  -2    5.00    1.10 
  -9   2   2    7.30    1.10 
   9  -2   2    7.80    0.80 
   2   9   2    5.70    1.00 
  -9   3  -2    1.30    0.70 
  -3  -9  -2    1.20    1.10 
  -3  -9  -2    1.20    0.70 
  -9   3   2    1.00    0.70 
   3   9   2    1.30    0.50 
   9  -3   2    1.50    0.40 
  -4  -9  -2   25.70    3.50 
   9  -4  -2   28.00    3.10 
  -9   4  -2   28.90    3.30 
  -4  -9  -2   29.70    3.30 
  -4  -9   2   27.90    3.00 
   9  -4   2   28.10    3.10 
   4   9   2   33.30    3.20 
  -9   4   2   28.00    3.30 
  -5  -9  -2    7.00    1.30 
  -5  -9  -2    6.80    1.50 
   9  -5  -2    7.80    1.10 
  -5  -9   2    6.50    1.00 
  -9   5   2    8.70    1.50 
   5   9   2    6.70    1.10 
  -9   6  -2   32.40    3.80 
   9  -6  -2   30.40    3.70 
  -6  -9  -2   31.70    4.00 
  -6  -9  -2   37.60    3.90 
   9  -6   2   33.70    3.70 
  -9   6   2   35.70    4.00 
  -6  -9   2   35.40    3.70 
   6   9   2   36.90    3.70 
  -7  -9  -2    0.60    0.90 
  -7  -9  -2    0.00    1.00 
   9  -7  -2    2.30    0.80 
  -9   7  -2    1.80    0.90 
  -7  -9   2    1.00    0.60 
   9  -7   2    0.80    0.80 
  -9   7   2    1.40    1.10 
   7   9   2    1.40    0.70 
  -8  -9  -2    2.70    1.00 
   9  -8  -2    0.70    0.80 
  -8  -9  -2    1.90    1.10 
  -9   8  -2    1.40    0.80 
   9  -8   2    1.60    1.00 
   8   9   2    3.30    0.80 
  -8  -9   2    2.30    0.80 
  -9  -9  -2    1.50    1.00 
   9  -9  -2    0.50    0.80 
  -9   9  -2   -0.90    0.70 
  -9  -9  -2    0.90    0.90 
  -9  -9   2   -0.30    0.70 
   9   9   2   -0.80    0.60 
   9  -9   2    0.40    1.00 
  -9  -9   2   -0.40    0.60 
 -10  -9  -2   -0.20    0.80 
   9 -10  -2    0.50    0.90 
 -10  -9  -2   -0.60    0.80 
  -9  10  -2    0.50    0.80 
 -10  -9   2    0.90    0.70 
   9 -10   2    0.50    1.00 
 -10  -9   2    0.50    0.70 
  10   9   2    1.20    0.80 
  -8  10  -2  294.17   27.40 
   8 -10  -2  238.58   27.40 
 -10  -8  -2  229.08   27.30 
 -10  -8  -2  293.97   27.40 
  10   8   2  271.47   27.80 
 -10  -8   2  280.07   27.20 
 -10  -8   2  269.37   27.30 
   7 -10  -2    9.80    2.40 
  -7  10  -2   11.10    1.60 
 -10  -7  -2    9.90    1.60 
 -10  -7  -2    8.10    1.40 
 -10  -7   2    9.10    1.40 
   7 -10   2    4.50    1.70 
 -10  -7   2   10.80    1.50 
  10   7   2    8.70    1.50 
 -10  -6  -2  131.89   13.20 
  -6  10  -2  148.09   13.40 
 -10  -6  -2  128.19   13.40 
   6 -10  -2  134.49   13.60 
 -10  -6  -2  125.99   13.30 
 -10  -6   2  125.99   13.30 
 -10  -6   2  121.39   13.30 
  10   6   2  123.49   13.40 
 -10  -5  -2   12.40    1.70 
 -10  -5  -2    9.50    1.40 
   5 -10  -2    8.80    1.90 
  -5  10  -2   11.40    1.50 
 -10  -5  -2   11.00    1.30 
 -10  -5   2    9.80    1.50 
 -10  -5   2   12.10    1.60 
  -5  10   2   10.80    1.40 
  10   5   2   12.70    1.80 
 -10  -4  -2  396.46   39.00 
  -4  10  -2  432.06   38.90 
 -10  -4   2  367.16   39.00 
  -4  10   2  366.36   38.90 
  10   4   2  411.36   39.10 
 -10  -4   2  335.57   38.90 
  -3  10  -2   10.50    1.20 
 -10  -3  -2    7.90    1.40 
   3 -10  -2    7.40    1.90 
  -3  10  -2    8.60    1.10 
  -3  10   2   10.20    1.20 
 -10  -3   2    9.20    1.20 
 -10  -3   2    8.40    1.40 
   3 -10   2    7.10    1.90 
  10   3   2    9.10    1.60 
   2 -10  -2   11.90    2.20 
 -10  -2  -2   15.10    1.80 
  -2  10  -2   11.80    1.50 
  -2  10  -2   16.70    1.60 
  -2  10   2   13.30    1.60 
 -10  -2   2   14.70    1.80 
  10   2   2   17.80    2.00 
 -10  -2   2   12.30    1.60 
   2 -10   2    9.80    2.20 
  -1  10  -2    6.50    0.70 
   1 -10  -2    6.50    1.70 
 -10  -1  -2    4.20    1.10 
  10   1  -2    6.60    0.80 
  -1  10  -2    5.30    0.80 
 -10  -1   2    7.30    1.00 
   1 -10   2    4.00    1.40 
 -10  -1   2    5.70    1.10 
  -1  10   2    6.90    1.10 
   0 -10  -2   18.20    3.00 
 -10   0  -2   24.10    2.80 
  10   0  -2   22.90    2.40 
 -10   0   2   24.90    2.70 
 -10   0   2   24.50    2.60 
   0  10   2   22.70    2.50 
  10  -1  -2    6.00    0.80 
  -1 -10  -2    7.30    1.10 
  -1 -10  -2    4.70    1.50 
 -10   1  -2    6.40    1.30 
 -10   1   2    5.40    1.10 
   1  10   2    6.20    0.90 
 -10   1   2    6.70    1.10 
 -10   2  -2   18.30    1.90 
  -2 -10  -2    9.00    2.00 
  -2 -10  -2   11.20    1.70 
  10  -2  -2   12.60    1.50 
   2  10   2   14.00    1.60 
  10  -2   2   12.40    1.40 
 -10   2   2   11.50    1.70 
 -10   2   2   17.00    1.80 
  -3 -10  -2    7.10    1.30 
  10  -3  -2    8.80    1.10 
 -10   3  -2    9.50    1.50 
  -3 -10  -2    6.80    1.70 
  10  -3   2    8.50    1.00 
 -10   3   2    8.00    1.40 
 -10   3   2    8.90    1.40 
  10  -4  -2  332.27   35.50 
  -4 -10  -2  377.36   35.60 
 -10   4  -2  382.06   35.70 
  -4 -10  -2  306.17   35.80 
  -4 -10   2  362.76   35.40 
 -10   4   2  303.27   35.70 
   4  10   2  396.76   35.50 
  10  -4   2  338.67   35.40 
  -5 -10  -2   11.00    1.90 
  10  -5  -2   10.40    1.50 
 -10   5  -2   14.30    1.80 
  -5 -10  -2    7.30    1.90 
  10  -5   2   12.60    1.80 
   5  10   2   11.90    1.50 
 -10   5   2   11.80    1.90 
  -5 -10   2   11.40    1.40 
  -6 -10  -2  146.59   13.80 
  -6 -10  -2  121.89   13.90 
 -10   6  -2  126.79   13.80 
  10  -6  -2  120.19   13.60 
 -10   6   2  136.99   13.90 
  -6 -10   2  137.89   13.60 
  10  -6   2  132.79   13.60 
   6  10   2  140.39   13.60 
  -7 -10  -2   12.00    1.70 
  -7 -10  -2    9.70    1.90 
 -10   7  -2    8.40    1.70 
  10  -7  -2    9.80    1.50 
  10  -7   2   10.30    1.60 
  -7 -10   2   10.90    1.50 
 -10   7   2    9.50    1.90 
   7  10   2    9.40    1.40 
  10  -8  -2  250.07   28.10 
 -10   8  -2  284.47   28.20 
  -8 -10  -2  295.97   28.10 
  -8 -10   2  275.67   28.00 
  10  -8   2  259.57   28.10 
   8  10   2  289.87   28.10 
 -10   9  -2    0.90    0.90 
  -9 -10  -2   -0.20    0.80 
  10  -9  -2   -0.30    0.70 
  -9 -10  -2   -0.40    0.90 
  10  -9   2   -0.40    0.90 
   9  10   2    0.80    0.70 
  -9 -10   2   -0.50    0.60 
 -10 -10  -2    1.90    1.10 
 -10 -10  -2    1.00    0.90 
 -10  10  -2    0.50    0.80 
 -10 -10   2    1.20    0.70 
  10 -10   2    2.20    1.00 
 -10 -10   2    0.70    0.70 
  10  10   2    4.10    0.90 
 -10  11  -2   11.80    1.80 
 -11 -10  -2   10.10    1.70 
 -11 -10  -2    7.10    1.50 
 -11 -10   2   10.30    1.50 
  11  10   2    8.60    1.50 
 -11 -10   2   10.00    1.60 
 -11  -9  -2    2.90    1.00 
 -11  -9  -2    1.00    1.00 
  -9  11  -2    0.00    0.80 
 -11  -9   2    1.30    0.80 
 -11  -9   2    1.40    0.80 
  11   9   2    0.80    0.80 
  -8  11  -2    4.30    1.10 
 -11  -8  -2    4.80    0.90 
 -11  -8  -2    3.10    1.00 
 -11  -8  -2    4.50    1.20 
 -11  -8   2    4.70    1.00 
   8 -11   2    4.70    1.70 
 -11  -8   2    5.00    1.10 
  11   8   2    3.20    1.00 
  -7  11  -2    3.70    1.00 
 -11  -7  -2    5.00    1.00 
 -11  -7  -2    2.80    1.00 
 -11  -7  -2    4.00    0.80 
 -11  -7   2    2.60    0.90 
 -11  -7   2    4.00    0.90 
  11   7   2    2.30    0.90 
   7 -11   2    5.00    1.60 
  -7  11   2    4.70    0.90 
  -6  11  -2    3.00    0.80 
   6 -11  -2    3.20    2.00 
 -11  -6  -2    2.50    0.60 
 -11  -6  -2    2.20    0.70 
 -11  -6  -2    0.30    0.80 
  -6  11   2    2.90    0.70 
 -11  -6   2    1.60    0.70 
  11   6   2    1.80    0.90 
 -11  -6   2    1.60    0.70 
   5 -11  -2    8.00    1.80 
 -11  -5  -2    8.60    1.40 
  -5  11  -2    6.30    1.10 
  -5  11   2    7.70    1.10 
   5 -11   2    8.60    1.80 
 -11  -5   2    6.30    1.20 
  11   5   2    5.30    1.40 
 -11  -5   2    9.00    1.20 
   4 -11  -2   31.00    4.20 
 -11  -4  -2   37.50    4.00 
 -11  -4   2   33.30    3.80 
  11   4   2   38.80    4.10 
   4 -11   2   29.70    4.40 
 -11  -4   2   33.00    3.90 
  -4  11   2   39.00    3.80 
   3 -11  -2   11.60    2.30 
  -3  11  -2   13.20    1.50 
  -3  11  -2   13.60    1.60 
 -11  -3  -2   12.40    1.90 
 -11  -3   2   14.90    1.70 
   3 -11   2    8.00    2.20 
  -3  11   2   14.30    1.70 
 -11  -3   2   15.20    1.90 
  -2  11  -2   48.40    4.90 
  -2  11  -2   53.09    5.00 
 -11  -2  -2   48.00    5.20 
   2 -11  -2   44.10    5.60 
   2 -11   2   38.10    5.50 
  -2  11   2   51.59    5.00 
 -11  -2   2   44.80    5.00 
 -11  -2   2   48.90    5.20 
 -11  -1  -2    8.90    1.50 
  -1  11  -2    8.70    1.00 
  -1  11  -2    7.90    1.00 
   1 -11  -2    6.80    1.80 
  -1  11   2    9.80    1.20 
   1 -11   2    5.60    1.80 
 -11  -1   2   10.00    1.40 
 -11  -1   2   12.00    1.30 
 -11   0  -2    2.60    1.00 
  11   0  -2    2.00    0.40 
   0 -11  -2    1.60    1.40 
 -11   0   2    2.60    0.90 
 -11   0   2    2.40    0.80 
   0  11   2    2.70    0.70 
   0 -11   2    2.20    1.30 
  -1 -11  -2   10.90    2.10 
  11  -1  -2    9.40    1.10 
 -11   1  -2    6.70    1.40 
 -11   1   2   11.70    1.50 
 -11   1   2    8.20    1.50 
  -2 -11  -2   43.50    5.40 
  -2 -11  -2   49.50    5.00 
  11  -2  -2   44.40    4.80 
 -11   2  -2   49.30    5.10 
 -11   2   2   44.80    5.00 
 -11   2   2   46.50    5.10 
  11  -2   2   47.30    4.70 
  -3 -11  -2    8.00    2.90 
 -11   3  -2   15.00    2.00 
  11  -3  -2   16.00    1.70 
  -3 -11  -2   13.70    2.00 
 -11   3   2   15.30    2.10 
   3  11   2   14.30    1.70 
  11  -3   2   14.30    1.60 
 -11   3   2   13.70    1.90 
  -4 -11  -2   43.50    4.20 
  11  -4  -2   34.90    3.90 
 -11   4  -2   39.00    4.20 
 -11   4   2   33.60    4.10 
  11  -4   2   34.80    3.90 
 -11   4   2   32.50    4.30 
   4  11   2   42.00    4.00 
 -11   5  -2    8.10    1.50 
  -5 -11  -2    9.50    1.60 
  -5 -11  -2    6.10    2.60 
  11  -5  -2    9.20    1.20 
 -11   5   2    4.70    1.30 
 -11   5   2    9.70    1.70 
   5  11   2    8.10    1.20 
  -5 -11   2    7.90    1.10 
  -6 -11  -2    3.80    1.40 
  -6 -11  -2    3.50    1.00 
  11  -6  -2    2.30    0.70 
 -11   6  -2    1.10    0.90 
  -6 -11   2    2.00    0.60 
  11  -6   2    3.30    0.70 
   6  11   2    1.50    0.60 
 -11   6   2    1.80    1.20 
 -11   6   2    1.00    0.80 
  -7 -11  -2    6.50    1.40 
  11  -7  -2    5.10    0.90 
 -11   7  -2    2.10    1.00 
  -7 -11  -2    5.10    1.10 
  -7 -11   2    4.10    0.80 
   7  11   2    2.80    0.80 
 -11   7   2    1.90    0.90 
  11  -7   2    5.60    1.00 
  11  -8  -2    5.00    1.20 
  -8 -11  -2    3.40    1.30 
 -11   8  -2    5.40    1.20 
  -8 -11  -2    3.80    1.10 
  -8 -11   2    3.40    0.90 
   8  11   2    2.90    0.80 
  11  -8   2    5.20    1.10 
  -9 -11  -2    2.60    1.20 
 -11   9  -2    0.90    0.90 
  -9 -11  -2   -0.10    0.80 
  11  -9  -2    1.90    0.90 
   9  11   2    1.50    0.70 
  -9 -11   2    1.10    0.70 
 -10 -11  -2   10.20    1.60 
 -10 -11  -2    6.30    1.60 
 -11  10  -2   10.80    1.70 
 -10 -11   2   10.90    1.60 
 -10 -11   2   10.50    1.50 
  10  11   2   12.30    1.50 
  11 -10   2    7.20    1.60 
 -11  10   2    8.30    1.60 
 -11 -11  -2    0.80    0.90 
 -11 -11  -2    2.00    1.10 
  11  11   2    0.50    0.70 
 -11 -11   2   -0.50    0.70 
 -11  11   2   -1.00    0.70 
 -11 -11   2   -0.70    0.70 
 -12 -11  -2   -0.80    0.90 
 -11  12  -2   -0.20    0.80 
 -12 -11  -2    1.30    0.90 
 -12 -11   2    0.20    0.80 
 -12 -11   2    1.10    0.90 
 -12 -11   2    0.20    0.90 
 -11  12   2    0.50    0.90 
 -12 -10  -2   35.70    3.80 
 -12 -10  -2   23.50    3.60 
 -12 -10  -2   32.90    3.50 
 -10  12  -2   36.80    3.80 
 -12 -10   2   29.80    3.60 
 -12 -10   2   32.00    3.60 
 -12  -9  -2    0.50    1.00 
  -9  12  -2    0.50    0.80 
 -12  -9  -2    1.90    0.80 
 -12  -9   2    0.60    0.80 
 -12  -9   2    0.70    0.80 
 -12  -8  -2   29.30    4.80 
  -8  12  -2   47.20    4.60 
 -12  -8  -2   43.30    4.60 
 -12  -8  -2   43.00    4.40 
 -12  -8   2   48.50    4.50 
  -8  12   2   34.40    4.30 
 -12  -8   2   39.90    4.50 
  -7  12  -2    3.00    0.90 
 -12  -7  -2    4.30    0.90 
 -12  -7  -2    4.80    0.80 
 -12  -7  -2    2.10    1.00 
 -12  -7   2    4.40    1.00 
  -7  12   2    3.60    0.80 
 -12  -7   2    3.20    0.90 
 -12  -6  -2    2.60    0.60 
 -12  -6  -2    3.90    1.10 
 -12  -6  -2    3.20    0.60 
 -12  -6   2    4.70    1.00 
  -6  12   2    3.90    0.80 
 -12  -6   2    2.60    0.80 
 -12  -5  -2    0.30    0.80 
  -5  12   2    0.00    0.50 
 -12  -5   2    1.20    0.60 
 -12  -5   2    1.10    0.70 
 -12  -4  -2   39.80    4.40 
  -4  12  -2   37.60    4.10 
  -4  12  -2   44.00    4.20 
 -12  -4   2   39.50    4.30 
  -4  12   2   39.10    4.20 
 -12  -4   2   37.20    4.20 
  -3  12  -2    4.80    0.70 
  -3  12  -2    4.80    0.80 
 -12  -3  -2    4.40    1.20 
 -12  -3   2    5.80    1.10 
  -3  12   2    5.00    0.90 
 -12  -3   2    6.10    1.00 
  -2  12  -2  116.99   11.90 
  -2  12  -2  118.49   11.90 
 -12  -2  -2  115.49   12.20 
  -2  12   2  118.89   12.00 
 -12  -2   2  117.89   12.00 
 -12  -2   2  115.29   12.10 
 -12  -1  -2    3.50    1.00 
   1 -12  -2    1.90    2.20 
  -1  12  -2    1.00    0.30 
  -1  12  -2    1.00    0.30 
  -1  12   2    0.70    0.60 
 -12  -1   2    1.20    0.70 
 -12  -1   2    1.40    0.80 
 -12   0  -2  378.76   37.00 
  12   0  -2  357.96   36.70 
 -12   0   2  345.37   36.80 
 -12   0   2  370.16   36.90 
   0  12   2  364.16   36.70 
  -1 -12  -2    0.00    1.40 
 -12   1  -2    1.60    0.90 
  12  -1  -2    1.30    0.40 
 -12   1   2    1.00    0.80 
 -12   1   2    1.60    0.90 
   1  12   2    1.50    0.60 
  -1 -12   2    1.10    1.40 
 -12   2  -2  114.59   11.70 
  -2 -12  -2  109.39   11.90 
   2  12   2  116.59   11.40 
 -12   2   2  110.19   11.60 
  -2 -12   2  104.89   11.90 
  12  -3  -2    6.50    0.90 
  -3 -12  -2    4.10    1.50 
  -3 -12  -2    4.90    1.10 
 -12   3  -2    4.90    1.20 
   3  12   2    5.80    0.90 
 -12   3   2    5.70    1.30 
  12  -3   2    5.50    0.70 
 -12   3   2    5.10    1.20 
  -4 -12  -2   36.20    4.30 
  -4 -12  -2   36.70    4.70 
  12  -4  -2   39.90    4.10 
 -12   4  -2   40.20    4.40 
 -12   4   2   36.10    4.40 
 -12   4   2   38.50    4.40 
  12  -4   2   39.10    4.00 
   4  12   2   41.80    4.10 
  12  -5  -2    0.20    0.50 
 -12   5  -2    1.00    0.90 
  -5 -12  -2    0.90    0.80 
  -5 -12  -2    2.10    1.30 
 -12   5   2    0.80    1.00 
   5  12   2    1.20    0.50 
 -12   5   2    0.00    0.70 
  -6 -12  -2    5.40    1.00 
 -12   6  -2    3.40    1.00 
  12  -6  -2    2.60    0.80 
  -6 -12  -2    2.50    1.30 
 -12   6   2    5.20    1.20 
 -12   6   2    2.70    1.20 
  -6 -12   2    5.20    0.70 
  12  -6   2    2.50    0.70 
  -7 -12  -2    3.10    1.00 
  -7 -12  -2    4.80    1.40 
  12  -7  -2    4.00    0.90 
   7  12   2    4.10    0.80 
 -12   7   2    2.60    1.10 
  -7 -12   2    4.00    0.70 
  12  -7   2    4.30    0.90 
  -8 -12  -2   35.40    5.00 
  12  -8  -2   39.70    4.70 
 -12   8  -2   49.99    5.00 
  -8 -12  -2   48.30    4.80 
  -8 -12   2   43.80    4.60 
   8  12   2   43.80    4.60 
  12  -8   2   41.70    4.70 
 -12   8   2   42.00    4.80 
  -9 -12  -2    0.80    1.10 
  -9 -12  -2    1.00    0.90 
 -12   9  -2   -0.60    0.80 
  12  -9  -2    0.40    0.80 
  -9 -12   2    1.20    0.70 
   9  12   2    0.20    0.60 
  12  -9   2    1.00    0.80 
 -12   9   2    0.30    0.90 
 -12  10  -2   30.80    3.80 
 -10 -12  -2   31.20    3.80 
 -10 -12  -2   34.10    3.70 
 -12  10   2   30.70    3.80 
 -10 -12   2   33.50    3.50 
 -10 -12   2   32.60    3.70 
  10  12   2   33.70    3.60 
  12 -10   2   26.20    3.70 
 -12  11  -2    0.50    0.90 
 -11 -12  -2    0.50    1.00 
 -11 -12  -2    0.00    0.90 
 -12  11   2   -0.40    0.80 
 -11 -12   2    0.70    0.80 
 -11 -12   2   -0.10    0.80 
  11  12   2   -0.40    0.70 
 -12  12  -2  117.69   12.40 
 -12 -12   2  109.99   12.20 
 -12 -12   2  123.19   12.20 
 -13 -12  -2    0.90    1.00 
 -13 -12  -2    0.30    0.70 
 -12  13  -2    0.00    0.90 
 -13 -12   2    0.40    0.90 
 -13 -12   2    1.40    0.80 
 -12  13   2    0.10    0.90 
 -11  13  -2    2.30    1.00 
 -13 -11  -2    1.30    0.70 
 -13 -11  -2    2.80    1.00 
 -13 -11  -2    1.80    1.20 
 -13 -11   2    2.00    1.00 
 -13 -11   2    3.10    0.90 
 -13 -11   2    0.00    0.80 
 -11  13   2   -0.60    0.90 
 -13 -10  -2    0.90    0.80 
 -13 -10  -2    2.30    0.70 
 -13 -10  -2    2.10    1.10 
 -10  13  -2    0.80    0.90 
 -13 -10   2    1.60    0.90 
 -13 -10   2    0.50    0.80 
 -13  -9  -2   -1.30    0.50 
  -9  13  -2    0.80    0.90 
 -13  -9  -2    0.30    1.00 
 -13  -9  -2   -0.40    0.70 
 -13  -9   2    2.20    0.90 
 -13  -9   2   -0.10    0.70 
 -13  -8  -2    0.40    0.90 
 -13  -8  -2    0.30    0.60 
 -13  -8  -2    0.80    0.50 
  -8  13  -2    0.10    0.80 
 -13  -8   2    0.90    0.80 
 -13  -8   2    0.60    0.80 
  -8  13   2    1.60    1.10 
 -13  -7  -2    2.30    1.10 
 -13  -7  -2    3.70    0.60 
  -7  13  -2    3.10    0.90 
 -13  -7   2    2.50    0.90 
  -7  13   2    3.00    0.80 
 -13  -7   2    2.70    0.90 
  -6  13  -2   10.00    1.20 
 -13  -6  -2    8.70    2.20 
  -6  13  -2    6.00    0.90 
  -6  13   2    7.70    1.10 
 -13  -6   2    4.30    1.00 
 -13  -6   2    5.50    1.20 
  -5  13  -2    2.10    0.50 
 -13  -5   2    2.90    0.70 
  -5  13   2    1.50    0.70 
 -13  -5   2    1.40    0.80 
  -4  13  -2    9.00    1.30 
  -4  13  -2    7.90    1.20 
  -4  13   2   10.00    1.30 
 -13  -4   2    8.10    1.20 
 -13  -4   2    5.90    1.30 
  -3  13  -2    0.70    0.40 
 -13  -3  -2    0.50    1.50 
  -3  13  -2   -0.10    0.40 
 -13  -3   2    0.10    0.70 
 -13  -3   2   -0.30    0.60 
  -3  13   2   -0.80    0.50 
  -2  13  -2    2.20    0.40 
 -13  -2  -2    1.90    1.00 
  -2  13  -2    2.10    0.40 
 -13  -2   2    2.40    0.70 
 -13  -2   2    1.50    0.90 
  -2  13   2    0.90    0.60 
 -13  -1  -2    3.90    1.30 
 -13  -1   2    5.90    1.00 
 -13  -1   2    5.50    1.10 
  -1  13   2    5.90    0.90 
 -13   0  -2   11.60    2.30 
  13   0  -2    6.30    0.90 
 -13   0   2    6.70    1.20 
 -13   0   2    7.90    1.40 
   0  13   2    7.90    1.10 
  13  -1  -2    6.20    0.80 
 -13   1   2    4.70    1.80 
   1  13   2    4.50    0.90 
 -13   1   2    5.00    1.20 
 -13   2  -2    2.30    1.30 
 -13   2   2    2.60    1.00 
   2  13   2    2.40    0.60 
 -13   2   2    1.50    1.10 
  -3 -13  -2   -0.90    0.60 
 -13   3  -2   -0.90    0.70 
  13  -3  -2   -0.10    0.40 
  13  -3   2    0.30    0.30 
   3  13   2    0.50    0.50 
 -13   3   2   -1.80    0.80 
 -13   3   2   -0.20    0.70 
  13  -4  -2    9.30    1.20 
 -13   4  -2    7.00    1.50 
  13  -4   2    9.80    1.10 
 -13   4   2   11.30    1.80 
 -13   4   2    6.20    1.50 
   4  13   2   10.40    1.20 
 -13   5  -2    2.70    1.00 
  13  -5  -2    1.70    0.60 
  -5 -13  -2    1.80    0.80 
   5  13   2    2.20    0.60 
 -13   5   2    1.80    1.10 
 -13   5   2    0.90    0.80 
  -6 -13  -2    8.10    1.30 
  13  -6  -2    6.80    1.10 
 -13   6  -2    7.50    1.50 
  13  -6   2    6.40    1.00 
 -13   6   2    5.80    1.40 
  -6 -13   2    6.70    0.90 
   6  13   2    7.50    1.10 
  13  -7  -2    3.30    0.80 
 -13   7  -2    1.20    0.90 
  -7 -13  -2    1.50    0.80 
   7  13   2    2.20    0.70 
  13  -7   2    4.00    0.80 
  -7 -13   2    3.10    0.60 
 -13   7   2    0.80    0.90 
  13  -8  -2    0.80    0.70 
  -8 -13  -2    0.50    0.80 
 -13   8  -2    1.90    1.10 
   8  13   2    0.40    0.60 
 -13   8   2    0.20    0.70 
  13  -8   2   -0.90    0.60 
  -8 -13   2    1.30    0.50 
 -13   9  -2    0.40    1.00 
  -9 -13  -2   -0.20    0.80 
  13  -9   2    0.30    0.80 
 -13   9   2    0.90    1.10 
   9  13   2    0.40    0.60 
 -10 -13  -2    1.10    0.80 
 -13  10  -2    1.70    1.10 
  10  13   2    0.60    0.60 
 -13  10   2    0.20    0.90 
 -10 -13   2    1.40    0.70 
  13 -10   2    0.90    1.00 
 -11 -13  -2    1.30    0.90 
 -13  11  -2    0.70    1.60 
 -11 -13   2    1.30    0.90 
 -13  11   2    0.90    0.90 
 -11 -13   2    1.10    0.70 
 -13  12  -2    0.80    1.10 
 -12 -13  -2    0.60    1.00 
 -12 -13   2    0.10    0.80 
 -13  12   2   -1.30    0.80 
 -12 -13   2    0.60    0.90 
 -13 -13  -2    0.30    0.60 
 -13 -13   2    0.40    0.80 
 -14 -11  -2    1.10    1.10 
 -11  14  -2    0.30    0.90 
 -14 -11  -2    0.80    0.60 
 -14 -11   2   -0.40    0.80 
 -14 -11   2    1.20    0.90 
 -14 -11   2    1.00    0.80 
 -14 -10  -2    0.00    1.00 
 -14 -10  -2    1.00    0.70 
 -10  14  -2    0.80    0.90 
 -10  14   2    0.90    0.90 
 -14 -10   2   -0.90    0.70 
 -14 -10   2    0.00    0.70 
 -14 -10   2    0.20    0.90 
 -14  -9  -2    0.80    0.50 
 -14  -9  -2    0.20    0.60 
  -9  14  -2    1.00    0.80 
 -14  -9  -2    1.60    1.10 
 -14  -9   2    1.00    0.80 
 -14  -9   2    0.20    0.70 
  -8  14  -2  116.19   11.40 
 -14  -8  -2  112.79   11.60 
 -14  -8   2  113.99   11.40 
 -14  -8   2   97.89   11.30 
  -7  14  -2    0.50    0.50 
  -7  14  -2    0.20    0.70 
 -14  -7  -2    0.80    1.00 
  -7  14   2    0.40    0.60 
 -14  -7   2    1.10    0.80 
  -6  14  -2   66.69    6.10 
 -14  -6  -2   62.89    6.30 
  -6  14  -2   53.09    5.90 
 -14  -6   2   58.09    6.20 
 -14  -6   2   51.09    6.00 
  -6  14   2   55.89    6.00 
  -5  14  -2    0.40    0.50 
 -14  -5  -2    1.10    1.00 
  -5  14   2    0.90    0.60 
 -14  -5   2    0.90    0.70 
 -14  -5   2    0.90    0.80 
 -14  -4  -2  209.48   20.20 
  -4  14  -2  197.28   19.90 
 -14  -4   2  173.98   19.90 
  -4  14   2  201.48   19.90 
 -14  -4   2  199.08   20.10 
  -3  14  -2    0.40    0.40 
 -14  -3  -2    0.20    0.90 
  -3  14  -2    0.00    0.40 
 -14  -3   2    0.40    0.60 
  -3  14   2   -0.60    0.50 
 -14  -3   2    0.10    0.80 
  -2  14  -2    2.00    0.40 
 -14  -2  -2    3.90    1.10 
  -2  14  -2    1.90    0.40 
 -14  -2   2    1.10    0.70 
  -2  14   2    1.70    0.60 
 -14  -2   2    2.40    0.90 
 -14  -1  -2    1.90    1.00 
 -14  -1   2    1.40    0.80 
 -14  -1   2    1.70    0.70 
  -1  14   2    2.10    0.60 
 -14   0  -2   24.20    2.90 
 -14   0   2   25.70    2.80 
 -14   0   2   25.40    2.90 
   0  14   2   21.10    2.60 
 -14   1  -2    0.80    0.80 
  14  -1  -2    1.60    0.40 
 -14   1   2    0.70    0.80 
   1  14   2    1.80    0.60 
 -14   1   2    3.00    0.90 
 -14   2  -2    2.50    1.10 
 -14   2   2    1.40    0.90 
   2  14   2    2.10    0.60 
 -14   2   2    1.60    0.90 
 -14   3  -2    0.70    1.00 
  14  -3  -2    0.10    0.40 
 -14   3   2    1.80    1.00 
   3  14   2   -0.70    0.40 
 -14   3   2   -0.30    1.10 
  -4 -14  -2  217.98   21.10 
  14  -4  -2  197.68   20.70 
 -14   4  -2  204.78   21.10 
   4  14   2  208.98   20.70 
 -14   4   2  189.68   21.00 
  14  -4   2  206.28   20.70 
  -5 -14  -2    0.90    0.80 
 -14   5  -2    0.40    1.10 
  14  -5  -2    2.00    0.60 
   5  14   2    0.30    0.50 
  14  -5   2    0.90    0.50 
 -14   5   2    1.00    1.00 
 -14   6  -2   61.89    6.80 
  -6 -14  -2   66.99    6.60 
  14  -6  -2   59.89    6.50 
 -14   6   2   58.59    6.80 
   6  14   2   64.89    6.50 
  14  -6   2   60.29    6.40 
  -7 -14  -2    1.80    0.80 
 -14   7  -2    0.10    1.00 
  14  -7   2    1.20    0.70 
  -7 -14   2    0.90    0.40 
   7  14   2    0.60    0.60 
 -14   7   2   -0.10    1.40 
  14  -8  -2  108.39   11.60 
  -8 -14  -2  112.59   11.60 
 -14   8   2  106.99   11.80 
  14  -8   2  116.19   11.60 
   8  14   2  118.19   11.50 
  -8 -14   2  109.99   11.40 
  -9 -14  -2    1.30    0.80 
 -14   9  -2    0.20    1.00 
   9  14   2    0.60    0.70 
  -9 -14   2    0.40    0.50 
  14  -9   2    2.10    0.80 
 -14  10  -2   -1.20    0.90 
 -10 -14  -2   -0.60    0.70 
 -10 -14   2    1.30    0.60 
  10  14   2    1.30    0.70 
 -14  10   2    0.70    0.90 
 -14  11  -2   -0.80    1.00 
 -11 -14  -2    0.30    0.80 
 -11 -14   2    0.20    0.70 
 -14  11   2    0.30    0.80 
 -11 -14   2    1.50    0.70 
 -15 -10  -2    0.40    0.50 
 -10  15  -2   -0.60    0.80 
 -15 -10  -2    1.90    1.10 
 -10  15   2    0.00    0.90 
 -15 -10   2    0.20    0.70 
 -15 -10   2    0.80    0.80 
  -9  15  -2    0.70    0.80 
 -15  -9  -2   -0.90    0.80 
  -9  15  -2    0.50    0.50 
 -15  -9   2   -0.30    0.70 
 -15  -9   2    0.20    0.80 
  -9  15   2   -1.00    0.70 
 -15  -9   2    0.20    0.60 
  -8  15  -2    2.60    0.90 
  -8  15  -2    2.80    0.70 
 -15  -8  -2    3.60    1.50 
 -15  -8   2    4.20    1.00 
 -15  -8   2    2.20    0.80 
 -15  -8   2    2.90    0.90 
  -7  15  -2    1.00    0.50 
  -7  15  -2    1.10    0.60 
  -7  15   2    0.20    0.60 
 -15  -7   2    0.40    0.80 
 -15  -7   2    2.40    0.90 
  -6  15  -2    3.20    0.70 
 -15  -6  -2    3.60    1.40 
  -6  15  -2    4.60    0.80 
  -6  15   2    3.50    0.80 
 -15  -6   2    4.30    1.10 
 -15  -6   2    2.50    0.80 
  -5  15  -2    1.40    0.50 
 -15  -5  -2    1.80    1.00 
 -15  -5   2    1.20    0.90 
 -15  -5   2    1.40    0.60 
  -5  15   2    2.40    0.70 
  -4  15  -2    3.90    0.70 
  -4  15  -2    3.20    0.70 
 -15  -4  -2    3.80    1.20 
 -15  -4   2    3.10    0.70 
 -15  -4   2    4.20    1.10 
  -4  15   2    2.50    0.80 
 -15  -3  -2    1.00    0.90 
  -3  15  -2    0.50    0.30 
  -3  15  -2    0.90    0.40 
  -3  15   2    1.00    0.60 
 -15  -3   2    1.00    0.60 
 -15  -3   2    0.20    0.80 
 -15  -2  -2    2.80    1.10 
 -15  -2   2    1.60    0.90 
  -2  15   2    1.80    0.60 
 -15  -2   2    2.70    0.70 
 -15  -1  -2    3.70    1.20 
  -1  15   2    3.00    0.70 
 -15  -1   2    4.60    1.20 
 -15  -1   2    3.60    0.80 
 -15   0  -2   20.40    2.60 
 -15   0   2   16.00    2.20 
 -15   0   2   21.10    2.50 
   0  15   2   19.60    2.20 
 -15   1  -2    4.30    1.30 
   1  15   2    4.00    0.70 
 -15   1   2    2.90    0.90 
 -15   1   2    4.00    1.20 
 -15   2  -2    3.00    1.50 
 -15   2   2    3.60    1.20 
   2  15   2    1.80    0.50 
  15  -3  -2    1.90    0.50 
   3  15   2    0.80    0.50 
 -15   3   2    0.30    1.40 
 -15   4  -2    2.70    1.30 
  15  -4  -2    3.40    0.70 
   4  15   2    2.30    0.60 
 -15   4   2    1.50    1.10 
  15  -5  -2    1.20    0.60 
  -5 -15  -2    1.30    0.60 
 -15   5  -2    1.50    1.00 
 -15   5   2    0.50    0.90 
   5  15   2    1.50    0.50 
  15  -5   2    2.00    0.50 
  -6 -15  -2    3.00    0.80 
  15  -6  -2    3.00    0.80 
 -15   6  -2    3.80    1.30 
  15  -6   2    2.40    0.70 
 -15   6   2    1.90    1.10 
   6  15   2    4.40    0.70 
 -15   7  -2    1.70    1.00 
  15  -7  -2    1.80    0.80 
  -7 -15  -2    0.20    0.60 
   7  15   2    0.50    0.50 
 -15   7   2    0.40    0.80 
  15  -7   2    1.30    0.60 
  -8 -15  -2    3.80    0.90 
  15  -8  -2    5.10    1.00 
 -15   8  -2    2.20    1.20 
  15  -8   2    3.20    0.90 
   8  15   2    3.80    0.80 
 -15   8   2    4.70    1.20 
 -15   9  -2    2.30    1.10 
  -9 -15  -2    0.30    0.60 
  15  -9   2   -0.10    0.80 
  -9 -15   2    0.10    0.40 
 -10 -15  -2   -0.20    0.60 
 -15  10  -2   -0.30    1.00 
 -15  10   2    0.40    0.80 
 -10 -15   2    0.40    0.50 
 -16  -9   2   -0.30    0.60 
  -8  16  -2    1.00    0.60 
  -8  16  -2    2.50    0.80 
 -16  -8  -2    1.80    1.10 
 -16  -8   2    0.80    0.80 
  -7  16  -2   -0.50    0.40 
  -7  16  -2    0.90    0.60 
 -16  -7  -2    0.90    0.90 
 -16  -7   2   -0.30    0.50 
 -16  -7   2    0.10    0.70 
  -6  16  -2    6.10    1.00 
  -6  16  -2    4.70    0.80 
 -16  -6  -2    8.40    1.50 
 -16  -6   2    5.40    0.80 
  -6  16   2    4.80    1.00 
 -16  -6   2    5.10    1.20 
 -16  -5  -2    2.50    1.10 
  -5  16  -2    0.70    0.40 
 -16  -5   2    1.20    0.80 
  -5  16   2    0.40    0.70 
 -16  -4  -2    0.80    0.90 
  -4  16  -2    1.50    0.40 
  -4  16  -2    1.20    0.40 
 -16  -4   2    0.90    0.80 
  -4  16   2    1.80    0.60 
 -16  -3  -2    1.50    1.00 
  -3  16   2    0.80    0.60 
 -16  -3   2    0.60    0.80 
 -16  -2  -2  102.49   10.20 
 -16  -2   2   99.29   10.10 
  -2  16   2   88.49    9.80 
 -16  -1  -2    3.30    1.30 
 -16  -1   2    1.00    1.00 
  -1  16   2    1.70    0.70 
 -16   0  -2   77.09    8.00 
 -16   0   2   76.49    8.00 
   0  16   2   70.59    7.60 
 -16   1  -2    1.80    1.20 
 -16   1   2    2.80    1.10 
   1  16   2    1.30    0.50 
  16  -2  -2   99.29    9.80 
   2  16   2   90.29    9.70 
 -16   2   2   95.49   10.10 
 -16   3  -2    0.90    1.00 
  16  -3  -2    1.10    0.50 
 -16   3   2    0.80    0.90 
   3  16   2    0.30    0.40 
  16  -4  -2    1.70    0.50 
 -16   4  -2    2.80    1.20 
 -16   4   2    0.80    0.80 
   4  16   2    0.80    0.50 
 -16   5  -2    2.10    1.20 
  16  -5  -2    1.50    0.60 
   5  16   2    1.10    0.50 
 -16   5   2    0.80    0.90 
  16  -5   2    2.10    0.40 
  16  -6  -2    8.30    1.20 
  -6 -16  -2    6.50    1.10 
 -16   6  -2    8.10    1.70 
   6  16   2    6.50    1.00 
 -16   6   2    6.80    1.50 
 -16   7  -2   -0.10    1.00 
  -7 -16  -2    0.00    0.50 
  16  -7  -2    1.00    0.70 
 -16   7   2    1.00    0.90 
   7  16   2    0.30    0.50 
  16  -7   2   -0.60    0.50 
  16  -8  -2    0.70    1.00 
  -8 -16  -2    0.60    0.60 
 -16   8  -2    4.40    1.40 
 -16   8   2   -0.20    1.20 
  16  -8   2    1.10    1.00 
  -9 -16  -2   -0.10    0.60 
  -6  17  -2    0.00    0.50 
 -17  -6  -2   -0.80    1.00 
  -6  17   2    0.20    0.70 
 -17  -6   2   -1.10    0.70 
 -17  -5  -2   -0.40    0.80 
  -5  17  -2    0.90    0.40 
 -17  -5   2    0.30    0.90 
  -5  17   2    2.20    0.70 
 -17  -4  -2    1.40    1.00 
  -4  17  -2    3.10    0.50 
  -4  17   2    2.40    0.80 
 -17  -4   2    2.40    1.00 
 -17  -3  -2    1.30    1.00 
 -17  -3   2    0.40    0.90 
  -3  17   2    0.40    0.60 
 -17  -2  -2    1.50    1.10 
 -17  -2   2    1.40    1.00 
  -2  17   2    1.00    0.60 
 -17  -1  -2    1.80    1.10 
 -17  -1   2    1.50    1.00 
  -1  17   2    1.20    0.60 
 -17   0  -2   -1.20    0.90 
 -17   0   2    0.00    0.90 
   0  17   2    0.60    0.50 
 -17   1  -2    1.70    1.20 
   1  17   2    1.60    0.50 
 -17   1   2    0.80    1.00 
 -17   2  -2    0.30    1.20 
 -17   2   2    0.80    0.90 
   2  17   2    0.80    0.40 
 -17   3  -2    0.90    1.10 
   3  17   2    0.30    0.40 
 -17   3   2    1.00    0.90 
  17  -4  -2    3.80    0.70 
 -17   4  -2    3.50    1.90 
   4  17   2    3.70    0.60 
  17  -5  -2    1.10    0.60 
 -17   5  -2    2.80    2.10 
   5  17   2    1.20    0.50 
 -17   5   2    1.30    1.20 
 -17   6  -2    1.00    1.20 
 -17   6   2    0.60    0.90 
 -18  -3  -2    0.80    1.00 
 -18  -3   2    1.30    1.10 
 -18  -2  -2   10.00    2.00 
 -18  -2   2   10.30    1.80 
 -18  -1  -2   -0.50    0.80 
 -18  -1   2    0.40    0.90 
 -18   0  -2    2.30    1.20 
 -18   0   2    3.80    1.20 
 -18   1  -2   -0.90    0.80 
 -18   1   2    1.30    0.90 
 -18   2  -2   12.00    2.10 
 -18   2   2   11.30    2.00 
 -18   3  -2    0.80    1.00 
 -18   3   2    1.20    1.00 
   0   0  -3    0.20    0.10 
   0   0  -3    0.20    0.20 
   0   0   3    0.30    0.20 
   0   0   3    0.10    0.20 
   0   1  -3    0.10    0.10 
   0  -1  -3    0.00    0.10 
   0   1  -3    0.00    0.20 
  -1   0  -3    0.00    0.10 
   0  -1  -3    0.00    0.20 
   1   0  -3    0.20    0.10 
  -1   0  -3    0.50    0.30 
   1   0  -3    0.10    0.10 
   0  -1   3    0.30    0.20 
  -1   0   3    0.10    0.20 
   0   1   3    0.00    0.20 
  -1   0   3    0.60    0.20 
   0   1   3   -0.10    0.20 
   0  -1   3    0.20    0.20 
   1   0   3   -0.10    0.10 
   1   0   3   -0.30    0.20 
  -1  -1  -3    0.00    0.30 
   1  -1  -3    0.70    0.20 
   1  -1  -3    1.30    0.30 
   1   1  -3    0.50    0.20 
  -1   1  -3    0.90    0.20 
  -1   1  -3    0.60    0.30 
   1  -1   3    0.40    0.20 
  -1  -1   3    0.50    0.20 
  -1   1   3    0.90    0.20 
  -1  -1   3    0.80    0.20 
  -1   1   3    0.90    0.30 
   1   1   3    0.40    0.30 
   1  -1   3    1.80    0.40 
   1  -2  -3    4.30    0.60 
  -1   2  -3    3.30    0.60 
   2   1  -3    3.80    0.50 
   1  -2  -3    4.30    0.60 
  -2  -1  -3    3.90    0.50 
  -2  -1  -3    4.30    0.80 
  -1   2   3    5.90    0.60 
   1  -2   3    3.70    0.60 
  -1   2   3    3.90    0.50 
  -2  -1   3    4.50    0.60 
   2   1   3    4.20    0.70 
   2   1   3    4.00    0.50 
   0  -2  -3    0.50    0.30 
   0   2  -3    0.70    0.20 
  -2   0  -3    0.80    0.20 
  -2   0  -3    0.80    0.40 
   2   0  -3    0.10    0.20 
   0  -2  -3    0.80    0.30 
   0  -2   3    0.80    0.30 
   0  -2   3    0.60    0.20 
   0   2   3    0.50    0.30 
   2   0   3    0.00    0.30 
  -2   0   3    0.80    0.30 
   0   2   3    0.30    0.30 
   2   0   3    0.30    0.20 
   2  -1  -3    4.30    0.60 
  -2   1  -3    3.70    0.70 
  -1  -2  -3    3.90    0.60 
  -1  -2  -3    4.10    0.70 
   1   2   3    3.50    0.60 
   2  -1   3    3.80    0.50 
  -2   1   3    3.80    0.50 
   1   2   3    4.50    0.60 
  -1  -2   3    4.10    0.50 
  -2   1   3    4.10    0.50 
  -1  -2   3    3.70    0.50 
   2  -1   3    3.50    0.60 
  -2  -2  -3    6.60    0.70 
   2   2  -3    5.20    0.70 
  -2   2  -3    3.70    0.70 
   2  -2  -3    6.20    0.70 
  -2   2   3    6.90    0.80 
  -2  -2   3    6.20    0.70 
  -2   2   3    5.40    0.70 
   2   2   3    5.40    0.80 
   2  -2   3    4.50    0.70 
   2   2   3    7.60    0.70 
   2  -3  -3   15.90    1.60 
  -3  -2  -3   13.60    1.70 
  -2   3  -3   12.70    1.50 
   3   2  -3   13.20    1.50 
  -3  -2  -3   14.00    1.50 
   3   2   3   12.60    1.60 
   3   2   3   14.30    1.50 
   2  -3   3   11.80    1.50 
  -2   3   3   15.40    1.60 
  -3  -2   3   13.90    1.50 
  -2   3   3   17.00    1.60 
  -3  -1  -3 6548.04  576.04 
   1  -3  -3 5032.10  580.24 
   1  -3   3 5440.96  576.94 
  -1   3   3 6311.67  585.04 
   3   1   3 4920.11  573.24 
  -3  -1   3 5410.36  568.64 
  -3   0  -3    0.60    0.20 
   0  -3  -3   -0.20    0.30 
  -3   0  -3    0.20    0.40 
   3   0  -3    0.20    0.20 
   0  -3  -3   -0.40    0.30 
   0   3  -3    0.00    0.20 
   0   3   3    0.20    0.30 
   3   0   3    0.50    0.20 
   0  -3   3    0.00    0.30 
  -3   0   3    0.10    0.30 
   0   3   3    0.20    0.30 
   3   0   3    0.30    0.40 
  -1  -3   3 5697.33  580.84 
   3  -2  -3   14.10    1.50 
  -3   2  -3   12.30    1.60 
  -2  -3  -3   15.30    1.60 
  -2  -3  -3   12.40    1.70 
  -3   2   3   15.90    1.60 
   2   3   3   16.10    1.60 
   2   3   3   12.50    1.60 
   3  -2   3   11.90    1.60 
  -2  -3   3   15.60    1.60 
   3  -3  -3    1.20    0.30 
  -3  -3  -3    1.80    0.40 
  -3   3  -3    0.50    0.40 
  -3  -3  -3    0.80    0.60 
   3   3   3    1.10    0.40 
  -3   3   3    1.80    0.40 
   3   3   3    1.40    0.40 
  -3  -3   3    1.00    0.30 
   3  -4  -3    6.30    0.80 
  -3   4  -3    4.70    0.80 
  -4  -3  -3    4.30    1.00 
  -4  -3  -3    6.70    0.80 
  -4  -3   3    6.30    0.80 
   3  -4   3    4.90    0.80 
  -3   4   3    7.50    0.90 
   4   3   3    7.90    0.80 
  -2   4  -3    7.10    0.90 
   2  -4  -3    9.20    1.00 
  -4  -2  -3    8.20    0.90 
   4   2  -3    7.80    0.90 
  -4  -2  -3    5.90    1.10 
  -2   4   3    7.00    0.90 
  -2   4   3    9.30    1.00 
  -4  -2   3    8.00    0.90 
   2  -4   3    6.40    0.90 
   4   2   3    8.80    0.90 
   4   2   3    5.40    1.00 
   1  -4  -3   18.60    2.10 
   1  -4  -3   18.40    2.10 
  -1   4  -3   16.10    2.00 
  -4  -1  -3   19.40    1.90 
   4   1  -3   19.50    2.00 
  -4  -1  -3   19.20    2.20 
   1  -4   3   18.00    2.00 
  -1   4   3   18.70    2.00 
  -1   4   3   18.90    2.10 
   4   1   3   19.10    2.10 
  -4  -1   3   20.40    2.00 
   4   1   3   20.20    1.90 
   4   0  -3   43.40    3.90 
   0  -4  -3   39.70    4.00 
   0  -4  -3   31.80    4.00 
   0   4  -3   33.00    3.90 
  -4   0  -3   36.10    4.00 
   4   0   3   36.50    4.00 
   0   4   3   44.00    4.00 
   0   4   3   36.60    4.00 
   4   0   3   42.20    3.90 
   4  -1  -3   19.70    2.00 
  -1  -4  -3   19.60    2.10 
  -4   1  -3   17.10    2.10 
  -1  -4  -3   19.70    2.10 
   1   4   3   21.50    2.10 
   1   4   3   18.30    2.00 
  -4   1   3   20.60    2.00 
  -1  -4   3   15.90    1.90 
   4  -1   3   18.90    2.10 
   4  -1   3   18.40    1.90 
  -2  -4  -3    6.90    1.00 
   4  -2  -3    8.00    0.90 
  -2  -4  -3    7.30    1.10 
  -4   2  -3    6.30    0.90 
   2   4   3    9.90    1.00 
   2   4   3    6.50    1.00 
  -4   2   3    8.10    0.90 
   4  -2   3    6.30    0.90 
   4  -3  -3    6.70    0.80 
  -4   3  -3    5.40    0.80 
  -3  -4  -3    5.90    0.90 
  -3  -4  -3    4.40    1.00 
   3   4   3    6.90    0.90 
  -4   3   3    5.60    0.80 
   4  -3   3    5.80    0.80 
   3   4   3    5.50    0.90 
   4  -4  -3   16.00    1.80 
  -4   4  -3   15.70    1.80 
  -4  -4  -3   18.30    1.80 
  -4  -4  -3   13.70    2.00 
  -4  -4   3   17.70    1.80 
  -4  -4   3   14.10    1.70 
  -4   4   3   19.40    1.80 
   4   4   3   16.30    1.80 
   4  -4   3   12.70    1.70 
   4  -5  -3   34.60    3.30 
  -4   5  -3   32.60    3.30 
  -5  -4  -3   26.00    3.40 
  -5  -4  -3   34.30    3.30 
   5   4   3   27.50    3.30 
  -5  -4   3   33.80    3.30 
  -5  -4   3   27.10    3.20 
  -3   5  -3 2459.05  229.38 
  -5  -3  -3 1834.32  210.08 
   3  -5  -3 2550.64  241.08 
   3  -5  -3 1995.20  213.18 
  -5  -3  -3 1997.50  219.28 
   5   3   3 2144.79  209.58 
  -3   5   3 1961.30  214.08 
   3  -5   3 2006.00  210.28 
  -5  -2  -3   49.99    4.90 
   5   2  -3   46.20    4.90 
  -2   5  -3   47.60    5.00 
  -5  -2  -3   42.40    5.10 
  -5  -2   3   50.19    5.00 
   5   2   3   41.80    5.20 
  -2   5   3   57.69    5.10 
  -2   5   3   48.80    5.00 
   5   1  -3  161.28   16.50 
  -1   5  -3  182.08   16.50 
  -5  -1  -3  158.38   16.40 
   1  -5  -3  170.38   16.60 
   5   1   3  146.09   16.40 
  -1   5   3  170.08   16.50 
  -5  -1   3  152.18   16.50 
   0  -5  -3    0.30    0.50 
  -5   0  -3    1.50    0.50 
   5   0  -3    0.20    0.20 
   0  -5  -3   -0.20    0.30 
   5   0   3    0.70    0.40 
   5   0   3    0.20    0.10 
   0   5   3    0.30    0.30 
  -5   0   3   -0.10    0.30 
   0   5   3    0.60    0.40 
   5  -1  -3  149.79   16.30 
  -1  -5  -3  172.58   16.40 
   1   5   3  180.18   16.30 
  -5   1   3  146.69   16.30 
   5  -1   3  166.08   16.20 
   1   5   3  149.69   16.30 
  -2  -5  -3   45.40    5.00 
  -5   2  -3   43.60    5.00 
  -2  -5  -3   51.19    5.00 
   5  -2  -3   50.29    4.90 
   5  -2   3   42.80    5.00 
  -2  -5   3   47.80    4.80 
   2   5   3   56.69    5.00 
   2   5   3   46.90    5.00 
  -2  -5   3   40.80    4.80 
  -5   2   3   52.79    4.90 
  -5   3  -3 2054.19  210.88 
   5  -3  -3 2237.38  213.88 
  -5   3   3 2531.45  235.58 
   3   5   3 2063.89  211.68 
   5  -3   3 1954.30  224.58 
  -3  -5   3 1936.21  209.28 
  -5   3   3 1914.91  211.38 
  -4  -5  -3   36.40    3.30 
  -5   4  -3   29.90    3.30 
  -4  -5  -3   29.10    3.40 
   5  -4  -3   29.10    3.30 
  -4  -5   3   27.20    3.10 
  -5   4   3   35.30    3.30 
   4   5   3   27.90    3.30 
   5  -5  -3    1.50    0.50 
  -5  -5  -3    2.30    0.70 
  -5  -5  -3    2.30    0.80 
  -5  -5   3    4.50    0.70 
  -5  -5   3    1.40    0.40 
   5   5   3    3.80    0.70 
  -5   5   3    1.80    0.70 
  -5   6  -3   45.90    5.00 
  -6  -5  -3   49.20    5.00 
   5  -6  -3   55.09    5.00 
  -6  -5  -3   43.70    5.10 
  -5   6   3   55.19    5.10 
   6   5   3   41.90    5.00 
  -6  -5   3   42.00    4.90 
  -6  -5   3   45.20    4.90 
  -6  -4  -3   32.40    3.20 
   4  -6  -3   32.50    3.30 
  -4   6  -3   26.90    3.20 
  -4   6   3   32.50    3.40 
  -6  -4   3   32.10    3.20 
  -6  -4   3   25.80    3.20 
  -6  -3  -3    3.60    0.80 
  -3   6  -3    4.30    0.70 
   3  -6  -3    2.70    0.80 
  -6  -3  -3    3.20    0.50 
  -3   6   3    3.30    0.70 
  -6  -3   3    3.00    0.60 
   6   3   3    3.20    0.80 
  -6  -3   3    4.10    0.70 
  -3   6   3    2.80    0.90 
   2  -6  -3    3.70    0.80 
  -2   6  -3    2.20    0.50 
   6   2  -3    3.40    0.50 
  -6  -2  -3    2.20    0.70 
  -2   6   3    2.40    0.50 
  -6  -2   3    2.50    0.50 
  -2   6   3    3.00    0.80 
   6   2   3    4.00    0.80 
  -1   6  -3   11.80    1.40 
   6   1  -3   12.30    1.40 
   1  -6  -3   14.20    1.70 
  -6  -1  -3   11.20    1.60 
  -6  -1   3   13.30    1.40 
   6   1   3   12.00    1.60 
  -1   6   3   12.60    1.40 
  -1   6   3   16.30    1.60 
  -6   0  -3   15.80    2.00 
   0  -6  -3   15.30    2.10 
   6   0  -3   17.70    1.90 
   0  -6  -3   17.60    2.00 
  -6   0   3   21.20    1.90 
   0   6   3   15.20    1.90 
   0   6   3   19.20    2.00 
   6   0   3   16.40    2.00 
  -1  -6  -3   15.10    1.60 
   6  -1  -3   12.30    1.40 
  -1  -6  -3   13.90    1.70 
  -6   1  -3   13.00    1.60 
   1   6   3   12.70    1.50 
   1   6   3   15.50    1.60 
   6  -1   3   11.40    1.60 
  -6   1   3   13.80    1.50 
   6  -1   3   11.50    1.30 
  -6   2  -3    2.20    0.70 
  -2  -6  -3    3.10    0.80 
   6  -2  -3    3.40    0.50 
  -6   2   3    3.50    0.60 
   2   6   3    3.20    0.70 
   6  -2   3    1.50    0.60 
   2   6   3    2.50    0.60 
  -6   3  -3    3.70    0.80 
   6  -3  -3    2.20    0.60 
  -3  -6  -3    4.30    1.00 
  -3  -6  -3    2.60    0.90 
   6  -3   3    3.60    0.70 
  -3  -6   3    3.50    0.50 
   3   6   3    3.90    0.70 
  -6   3   3    2.00    0.60 
  -4  -6  -3   26.80    3.30 
  -4  -6  -3   27.50    3.20 
   6  -4  -3   31.70    3.10 
  -6   4  -3   26.40    3.10 
  -4  -6   3   24.80    2.90 
   6  -4   3   29.00    3.20 
  -6   4   3   34.00    3.10 
   6  -5  -3   48.10    5.00 
  -5  -6  -3   53.19    5.20 
  -5  -6  -3   46.50    5.20 
  -6   5  -3   44.20    5.10 
  -6   5   3   51.79    5.30 
   5   6   3   49.20    5.10 
  -5  -6   3   44.10    4.90 
   6  -5   3   49.40    5.30 
   6  -6  -3    0.70    0.60 
  -6  -6  -3   -0.30    0.70 
  -6  -6  -3    0.00    0.80 
  -6   6  -3    0.30    0.60 
  -6  -6   3    0.30    0.40 
   6   6   3    0.40    0.60 
   6  -6   3    1.70    1.40 
  -6   6   3    0.40    0.80 
  -7  -6  -3    9.60    1.40 
  -7  -6  -3    7.10    1.50 
   6  -7  -3   11.00    1.40 
  -7  -6   3    9.80    1.20 
  -7  -6   3    7.60    1.30 
  -6   7   3   11.90    1.60 
   7   6   3    7.00    1.30 
   5  -7  -3  103.49   11.40 
  -5   7   3  100.39   11.40 
   7   5   3  132.79   11.40 
   5  -7   3  103.19   11.60 
  -7  -5   3  111.99   11.30 
   4  -7  -3   44.80    4.40 
  -4   7  -3   37.60    4.20 
  -7  -4  -3   43.70    4.20 
  -4   7   3   46.80    4.30 
   7   4   3   33.10    4.30 
  -7  -4   3   43.20    4.30 
  -7  -4   3   32.30    4.20 
   3  -7  -3 2232.08  241.68 
  -3   7  -3 2764.42  263.67 
  -7  -3  -3 2684.43  251.37 
   3  -7  -3 2152.18  265.47 
  -7  -3  -3 2043.70  237.48 
  -3   7  -3 2404.46  252.27 
  -3   7   3 2420.16  240.98 
   3  -7   3 2308.77  238.88 
   7   3   3 2387.46  236.98 
   3  -7   3 2197.98  238.48 
   7   2  -3   12.20    1.50 
   2  -7  -3   14.00    1.80 
  -2   7  -3   12.70    1.50 
  -7  -2  -3   11.60    1.70 
  -7  -2   3   14.00    1.50 
   7   2   3   11.20    1.80 
  -2   7   3   15.90    1.80 
  -1   7  -3   69.79    6.20 
   7   1  -3   58.09    6.20 
  -1   7   3   65.19    6.30 
  -1   7   3   55.69    6.40 
  -7  -1   3   54.69    6.30 
   7   0  -3    0.20    0.30 
   0  -7  -3    0.30    0.50 
   0  -7  -3    0.00    0.70 
  -7   0  -3   -0.10    0.50 
  -7   0   3    0.10    0.40 
   0   7   3    0.20    0.70 
   7   0   3   -0.10    0.50 
   0   7   3   -0.20    0.30 
  -1  -7  -3   63.59    6.30 
   7  -1  -3   59.79    6.20 
   1   7   3   64.89    6.50 
   7  -1   3   54.69    6.10 
   1   7   3   69.99    6.20 
   7  -1   3   58.89    6.10 
  -7   1   3   53.99    6.20 
  -2  -7  -3   12.10    1.80 
  -2  -7  -3   13.80    2.00 
  -7   2  -3   13.40    1.80 
   7  -2  -3   14.30    1.60 
   7  -2   3   13.20    1.80 
   7  -2   3   15.00    1.60 
   2   7   3   15.50    1.70 
  -7   2   3   13.90    1.70 
  -7   3  -3 2207.78  232.18 
  -7   3  -3 2522.85  249.78 
  -3  -7   3 2101.19  230.68 
  -3  -7   3 2190.58  230.88 
  -7   3   3 2427.06  255.57 
   7  -3   3 2505.75  232.28 
  -7   3   3 2144.49  232.18 
   7  -3   3 2265.87  250.97 
  -4  -7  -3   45.40    4.50 
   7  -4  -3   39.40    4.20 
  -4  -7  -3   39.50    4.40 
  -7   4  -3   34.20    4.30 
  -4  -7   3   36.90    4.10 
  -7   4   3   44.60    4.30 
   7  -4   3   42.70    4.30 
   4   7   3   38.10    4.20 
  -5  -7  -3   93.89   10.00 
   7  -5  -3   93.19    9.90 
   7  -5   3   96.29   10.00 
  -7   5   3  100.79   10.00 
  -6  -7  -3    7.90    1.60 
   7  -6  -3   11.50    1.40 
  -7   6  -3    8.20    1.40 
  -6  -7  -3   10.40    1.60 
  -6  -7   3    9.00    1.20 
  -7   6   3   11.00    1.60 
   6   7   3    9.60    1.40 
   7  -6   3   10.10    1.60 
  -7  -7  -3    5.40    1.30 
  -7   7  -3    3.70    1.20 
  -7  -7  -3    8.80    1.40 
   7  -7  -3    5.40    1.00 
   7   7   3    4.30    1.00 
  -7   7   3    6.70    1.30 
  -7  -7   3    4.50    0.80 
  -7  -7   3    4.70    1.00 
   7  -7   3    8.10    1.40 
  -8  -7  -3   35.20    3.80 
   7  -8  -3   34.00    3.70 
  -7   8  -3   34.30    3.60 
   8   7   3   28.90    3.60 
  -7   8   3   38.70    3.90 
  -8  -7   3   28.40    3.60 
   7  -8   3   28.10    3.80 
  -8  -7   3   33.90    3.60 
  -8  -6  -3   10.20    1.60 
   6  -8  -3   10.30    1.50 
  -6   8  -3    9.40    1.40 
  -8  -6  -3   11.70    1.50 
   8   6   3    8.60    1.50 
  -6   8   3    8.40    1.60 
  -8  -6   3    9.30    1.70 
  -8  -6   3   10.20    1.50 
   5  -8  -3   27.30    3.50 
  -5   8  -3   29.60    3.30 
  -8  -5  -3   31.80    3.50 
  -8  -5  -3   32.10    3.20 
  -5   8   3   31.20    3.50 
  -8  -5   3   30.10    3.20 
   8   5   3   27.40    3.40 
   5  -8   3   28.60    3.70 
  -8  -5   3   31.20    3.30 
  -5   8   3   28.10    3.20 
  -8  -4  -3    5.20    1.20 
  -8  -4  -3    7.60    0.90 
  -4   8  -3    7.20    1.00 
   4  -8  -3    5.60    1.20 
  -8  -4   3    4.20    0.90 
   8   4   3    6.40    1.20 
  -4   8   3    8.30    1.40 
  -8  -4   3    7.00    1.00 
  -4   8   3    6.50    1.00 
   3  -8  -3   56.39    6.20 
  -8  -3  -3   54.59    6.10 
  -3   8  -3   60.19    6.00 
  -3   8   3   60.99    6.20 
  -8  -3   3   59.09    6.00 
  -3   8   3   59.69    6.00 
   8   3   3   53.39    6.10 
  -8  -3   3   54.99    6.00 
  -2   8  -3   35.20    4.00 
   8   2  -3   38.80    4.00 
   2  -8  -3   40.90    4.40 
  -8  -2  -3   36.30    4.20 
  -2   8   3   42.70    4.30 
  -8  -2   3   36.40    4.10 
  -8  -2   3   42.50    4.00 
  -2   8   3   38.00    4.10 
   8   2   3   35.70    4.20 
  -1   8  -3   13.00    1.40 
   8   1  -3   12.50    1.50 
  -8  -1  -3   11.80    1.70 
  -1   8  -3   13.90    1.40 
   1  -8  -3    8.80    1.80 
  -8  -1   3   12.10    1.50 
  -1   8   3   17.20    1.90 
   8   1   3   13.20    1.80 
   8   0  -3   10.40    1.30 
   0  -8  -3   11.10    1.50 
  -8   0  -3    9.20    1.50 
   0  -8  -3   13.10    1.90 
   0   8   3    8.70    1.70 
  -8   0   3   13.90    1.40 
   0   8   3   14.70    1.70 
  -8   1  -3   12.80    1.70 
  -1  -8  -3   10.10    1.90 
  -1  -8  -3   13.90    1.70 
   8  -1  -3   13.30    1.50 
  -8   1   3   12.80    1.60 
   1   8   3   13.80    1.50 
   8  -1   3   10.50    1.70 
   8  -2  -3   42.30    4.30 
  -2  -8  -3   41.80    4.70 
  -2  -8  -3   37.10    4.40 
  -8   2  -3   37.40    4.40 
  -8   2   3   45.60    4.40 
   8  -2   3   33.40    4.40 
   8  -2   3   46.00    4.20 
  -3  -8  -3   58.89    6.40 
  -8   3  -3   55.89    6.40 
  -3  -8  -3   61.79    6.60 
   8  -3  -3   59.49    6.20 
   8  -3   3   67.59    6.20 
  -8   3   3   61.79    6.30 
   3   8   3   57.29    6.30 
  -4  -8  -3    6.60    1.40 
  -8   4  -3    6.70    1.20 
  -4  -8  -3    6.70    1.30 
   8  -4  -3    7.00    1.00 
  -4  -8   3    7.40    1.00 
   8  -4   3    8.80    1.20 
   4   8   3    7.20    1.10 
  -8   5  -3   31.40    3.50 
  -5  -8  -3   32.40    3.70 
   8  -5  -3   30.50    3.40 
  -5  -8  -3   32.50    3.60 
  -5  -8   3   30.20    3.30 
  -8   5   3   33.90    3.60 
   8  -5   3   32.50    3.70 
   5   8   3   29.90    3.40 
  -8   6  -3   10.60    1.60 
  -6  -8  -3   10.60    1.70 
  -6  -8  -3    8.80    1.70 
   8  -6  -3   10.70    1.50 
  -6  -8   3   10.70    1.30 
   8  -6   3   12.00    1.70 
   6   8   3   10.30    1.50 
  -8   6   3   11.40    1.70 
  -7  -8  -3   35.50    4.00 
  -7  -8  -3   37.00    4.00 
  -8   7  -3   33.00    3.90 
   8  -7  -3   35.50    3.80 
  -7  -8   3   32.30    3.70 
   7   8   3   36.70    3.90 
  -8   7   3   38.30    4.10 
   8  -7   3   32.70    4.00 
  -8  -8  -3    3.40    1.10 
  -8   8  -3    1.80    0.80 
  -8  -8  -3    1.50    1.10 
   8  -8  -3    3.50    0.90 
  -8  -8   3    2.00    0.60 
  -8  -8   3    2.50    0.90 
  -8   8   3    1.60    1.00 
   8   8   3    0.80    0.70 
   8  -8   3    2.50    1.10 
  -9  -8  -3    6.90    1.50 
  -8   9  -3    6.20    1.30 
   8  -9  -3    7.40    1.40 
  -9  -8  -3    7.70    1.40 
  -9  -8   3    6.80    1.10 
   9   8   3    5.50    1.20 
  -8   9   3    6.60    1.60 
  -9  -8   3    6.90    1.30 
   8  -9   3    7.10    1.70 
  -9  -7  -3  475.05   55.49 
  -9  -7  -3  634.34   55.69 
   7  -9  -3  475.15   55.59 
   9   7   3  623.54   55.59 
  -7   9   3  512.55   55.69 
  -9  -7   3  602.34   55.49 
  -9  -7   3  518.85   55.59 
  -9  -6  -3    6.40    1.40 
  -6   9  -3    8.30    1.30 
  -9  -6  -3    8.70    1.20 
  -9  -6   3    8.20    1.30 
   9   6   3    4.10    1.20 
  -6   9   3    8.80    1.70 
   6  -9   3    3.30    1.60 
  -6   9   3    8.10    1.20 
  -9  -6   3    7.20    1.10 
  -9  -5  -3  469.05   50.49 
  -9  -5  -3  546.05   50.69 
   5  -9  -3  440.06   50.69 
  -5   9   3  501.65   50.69 
  -9  -5   3  478.35   50.59 
  -5   9   3  498.65   50.49 
  -9  -5   3  537.55   50.59 
   9   5   3  526.15   50.69 
   4  -9  -3   52.59    5.60 
  -9  -4  -3   45.40    5.40 
  -4   9  -3   48.70    5.20 
   4  -9   3   51.19    5.70 
  -9  -4   3   46.00    5.30 
   9   4   3   42.20    5.40 
  -4   9   3   57.49    5.50 
  -4   9   3   53.89    5.30 
  -9  -4   3   54.29    5.30 
  -3   9  -3   12.50    1.50 
  -9  -3  -3   12.40    1.80 
   3  -9  -3   13.50    2.10 
  -3   9   3   17.80    2.00 
  -9  -3   3   12.50    1.60 
   9   3   3   11.20    1.80 
  -9  -3   3   12.70    1.60 
  -3   9   3   13.30    1.60 
  -9  -2  -3   27.70    3.40 
  -2   9  -3   29.10    3.10 
   2  -9  -3   27.90    3.60 
  -2   9   3   31.60    3.20 
  -9  -2   3   31.40    3.20 
  -9  -2   3   26.40    3.30 
   9   2   3   29.40    3.50 
  -2   9   3   36.20    3.50 
   9   1   3 1168.48  118.09 
  -9   0  -3    0.20    0.60 
   9   0  -3    0.10    0.30 
   0  -9  -3    0.20    1.00 
   0   9   3    0.00    0.50 
   9   0   3    0.40    0.70 
  -9   0   3    0.80    0.50 
  -1  -9  -3  824.92   94.49 
  -1  -9  -3  974.80   94.39 
   1   9   3  999.60   94.29 
  -9   2  -3   25.00    3.20 
  -2  -9  -3   27.60    3.30 
  -2  -9  -3   34.50    3.60 
   9  -2  -3   30.00    3.10 
  -9   2   3   29.50    3.20 
   9  -2   3   30.60    3.00 
   2   9   3   25.10    3.10 
   9  -3  -3   13.10    1.60 
  -3  -9  -3   12.80    1.90 
  -3  -9  -3   11.30    2.10 
  -9   3  -3   12.60    1.90 
   9  -3   3   14.50    1.50 
   3   9   3   13.80    1.70 
  -9   3   3   14.80    1.80 
  -4  -9  -3   55.19    5.80 
  -9   4  -3   47.10    5.50 
   9  -4  -3   50.49    5.40 
  -4  -9  -3   42.40    5.70 
   9  -4   3   61.09    5.40 
  -4  -9   3   47.20    5.30 
   4   9   3   51.59    5.40 
  -9   4   3   57.29    5.60 
  -9   5  -3  555.54   52.59 
  -5  -9  -3  558.94   52.59 
   9  -5  -3  444.36   52.39 
  -5  -9  -3  442.26   52.59 
  -5  -9   3  560.14   52.29 
   5   9   3  571.44   52.39 
  -9   5   3  494.15   52.49 
   9  -6  -3    8.10    1.20 
  -6  -9  -3    7.40    1.70 
  -6  -9  -3    7.60    1.50 
  -9   6  -3    7.60    1.40 
  -9   6   3    7.70    1.50 
  -6  -9   3    7.10    1.10 
   9  -6   3   10.20    1.40 
   6   9   3    7.90    1.20 
  -7  -9  -3  643.54   59.29 
  -9   7  -3  642.64   59.29 
  -7  -9   3  611.74   59.09 
  -9   7   3  519.95   59.29 
   9  -7   3  505.45   59.19 
   9  -8  -3    8.90    1.90 
  -8  -9  -3    7.90    1.50 
  -8  -9  -3    8.30    1.50 
  -9   8  -3    5.40    1.30 
  -8  -9   3    7.00    1.10 
   9  -8   3    5.90    1.50 
   8   9   3    6.70    1.20 
  -9   8   3    6.40    1.60 
  -8  -9   3    8.20    1.40 
  -9  -9  -3   12.70    2.10 
   9  -9  -3   16.00    2.00 
  -9   9  -3   11.50    1.90 
  -9  -9  -3   17.90    2.20 
  -9   9   3   15.00    2.30 
  -9  -9   3   14.70    1.80 
   9  -9   3   12.40    2.20 
  -9  -9   3   15.60    2.00 
   9   9   3   10.80    1.80 
 -10  -9  -3    4.10    1.10 
  -9  10  -3    2.00    0.90 
 -10  -9  -3    5.30    1.30 
   9 -10   3    1.70    1.20 
 -10  -9   3    3.00    0.80 
 -10  -9   3    1.90    1.00 
  10   9   3    1.00    0.80 
  -8  10  -3    2.20    0.90 
 -10  -8  -3    2.50    1.10 
 -10  -8  -3    0.60    0.90 
   8 -10  -3    3.00    1.10 
   8 -10   3    1.50    1.20 
 -10  -8   3    2.60    0.90 
 -10  -8   3    2.10    0.70 
  10   8   3    1.40    0.80 
 -10  -7  -3   51.09    4.80 
 -10  -7  -3   43.80    5.00 
  -7  10  -3   41.50    4.80 
   7 -10  -3   44.10    5.10 
  -7  10   3   47.00    5.20 
   7 -10   3   45.00    5.30 
  10   7   3   38.60    4.90 
 -10  -7   3   48.20    4.90 
 -10  -7   3   41.90    4.70 
 -10  -6  -3   10.90    1.30 
 -10  -6  -3    7.90    1.50 
  -6  10  -3    6.20    1.20 
   6 -10  -3    9.80    1.70 
 -10  -6   3    9.80    1.40 
  -6  10   3    7.60    1.20 
 -10  -6   3    8.50    1.30 
   6 -10   3    7.60    1.90 
  10   6   3    3.90    1.30 
  -5  10  -3    3.10    0.80 
 -10  -5  -3    2.80    0.50 
 -10  -5  -3    3.30    1.10 
   5 -10  -3    1.20    1.10 
 -10  -5  -3    3.10    0.60 
 -10  -5   3    2.50    0.80 
   5 -10   3    4.40    1.80 
 -10  -5   3    3.70    1.00 
  -5  10   3    2.00    0.80 
  -4  10  -3    5.10    0.90 
   4 -10  -3    6.00    1.50 
 -10  -4  -3    5.20    1.20 
  10   4   3    3.80    1.20 
 -10  -4   3    6.30    1.10 
  -4  10   3    6.10    1.00 
 -10  -4   3    8.80    1.10 
 -10  -3  -3   10.60    1.60 
   3 -10  -3    6.50    1.80 
  -3  10  -3    9.00    1.20 
   3 -10   3    8.90    2.00 
  10   3   3    9.00    1.60 
 -10  -3   3   12.40    1.40 
  -3  10   3   12.50    1.40 
 -10  -3   3    8.90    1.40 
  -2  10  -3   17.00    2.00 
 -10  -2  -3   17.60    2.30 
  -2  10  -3   19.40    1.90 
  -2  10   3   18.20    2.10 
  10   2   3   13.40    2.30 
 -10  -2   3   17.80    2.20 
 -10  -2   3   22.70    2.20 
  10   1  -3    3.00    0.60 
 -10  -1  -3    2.60    0.90 
   1 -10  -3    2.40    1.20 
  10   1   3    4.10    1.00 
 -10  -1   3    3.60    0.90 
  -1  10   3    3.40    0.70 
 -10  -1   3    2.50    0.70 
 -10   0  -3    0.90    0.80 
  10   0  -3    0.90    0.40 
   0 -10  -3    0.70    1.20 
 -10   0   3    0.80    0.70 
   0  10   3    0.70    0.50 
 -10   0   3    1.20    0.60 
  10   0   3    0.50    0.70 
  -1 -10  -3    3.50    0.90 
 -10   1  -3    3.50    1.00 
  -1 -10  -3    3.60    1.50 
   1  10   3    2.20    0.70 
 -10   1   3    3.40    0.80 
 -10   2  -3   16.30    2.60 
  -2 -10  -3   18.50    2.60 
  10  -2  -3   23.10    2.30 
  -2 -10  -3   23.60    3.00 
 -10   2   3   24.50    2.50 
   2  10   3   18.30    2.40 
  10  -2   3   22.30    2.20 
 -10   3  -3    7.90    1.60 
  -3 -10  -3    8.50    1.90 
  10  -3  -3   12.40    1.40 
  -3 -10  -3    9.80    1.80 
  10  -3   3   13.50    1.30 
   3  10   3   10.80    1.50 
  -4 -10  -3    7.40    1.70 
 -10   4  -3    6.30    1.40 
  -4 -10  -3    5.60    1.40 
  10  -4  -3    8.30    1.10 
   4  10   3    5.90    1.10 
  10  -4   3   10.00    1.10 
 -10   4   3    9.90    1.50 
 -10   5  -3    1.90    1.00 
  -5 -10  -3    4.80    1.20 
  -5 -10  -3    3.20    1.40 
  10  -5  -3    2.80    0.70 
  -5 -10   3    2.80    0.60 
 -10   5   3    3.70    1.10 
   5  10   3    2.80    0.70 
  -6 -10  -3    6.00    1.70 
 -10   6  -3    8.80    1.60 
  10  -6  -3    9.10    1.30 
  -6 -10  -3    7.80    1.50 
  -6 -10   3    6.20    1.10 
   6  10   3    6.30    1.20 
  10  -6   3   10.20    1.30 
 -10   6   3   11.40    1.70 
 -10   7  -3   42.20    5.20 
  -7 -10  -3   47.20    5.30 
  10  -7  -3   51.19    5.00 
  -7 -10  -3   47.50    5.20 
  -7 -10   3   41.90    4.90 
  10  -7   3   51.49    5.10 
 -10   7   3   58.69    5.40 
   7  10   3   39.70    5.00 
 -10   8  -3    2.00    1.00 
  10  -8  -3    2.20    0.90 
  -8 -10  -3    1.50    1.00 
  -8 -10  -3    3.10    1.20 
  10  -8   3    2.40    1.00 
 -10   8   3    1.30    1.20 
  -8 -10   3    1.00    0.70 
   8  10   3    1.00    0.70 
  -9 -10  -3    3.00    1.20 
  10  -9  -3    2.50    1.00 
  -9 -10  -3    4.40    1.20 
 -10   9  -3    3.90    1.10 
  10  -9   3    2.80    1.10 
  -9 -10   3    3.30    1.00 
  -9 -10   3    2.70    0.80 
 -10 -10  -3    1.80    1.00 
 -10  10  -3    0.60    0.90 
 -10 -10  -3    0.70    1.00 
  10  10   3    0.30    0.70 
  10 -10   3    1.70    1.10 
 -10 -10   3    0.90    0.70 
 -10 -10   3    1.50    0.80 
 -10  11  -3    4.00    1.10 
 -11 -10  -3    2.70    1.20 
 -11 -10  -3    1.80    1.00 
 -11 -10   3    3.50    0.90 
 -11 -10   3    5.40    1.20 
 -11  -9  -3  104.79   10.30 
  -9  11  -3  104.39   10.20 
 -11  -9  -3   79.49   10.10 
 -11  -9   3   96.49   10.10 
  11   9   3   98.99   10.40 
 -11  -9   3  103.09   10.20 
 -11  -8  -3   48.50    5.20 
  -8  11  -3   47.40    5.00 
 -11  -8   3   43.70    4.90 
  11   8   3   42.50    5.00 
  -8  11   3   43.10    4.90 
 -11  -8   3   49.70    5.00 
 -11  -7  -3   34.20    3.30 
   7 -11   3   21.90    3.90 
  -7  11   3   29.20    3.40 
  11   7   3   40.30    3.70 
 -11  -7   3   27.00    3.50 
 -11  -6  -3    1.00    0.80 
  -6  11  -3    0.50    0.60 
 -11  -6  -3    0.50    0.40 
 -11  -6  -3    1.20    0.60 
   6 -11   3    2.00    1.30 
  -6  11   3    1.30    0.60 
  11   6   3    0.40    0.80 
 -11  -6   3    1.80    0.70 
 -11  -6   3    1.90    0.80 
 -11  -5  -3   22.30    2.60 
  -5  11  -3   20.30    2.30 
   5 -11  -3   17.90    3.70 
 -11  -5   3   18.40    2.30 
  11   5   3   25.50    2.80 
  -5  11   3   15.70    2.20 
 -11  -4  -3    3.80    1.20 
   4 -11  -3    4.20    1.60 
  -4  11  -3    3.40    0.80 
   4 -11   3    6.50    1.70 
  11   4   3    4.10    1.20 
  -4  11   3    4.80    0.90 
 -11  -4   3    5.00    0.90 
 -11  -4   3    2.10    0.90 
   3 -11  -3  217.38   24.70 
  -3  11  -3  230.98   24.30 
  -3  11  -3  245.28   24.30 
 -11  -3  -3  262.87   24.60 
 -11  -3   3  235.18   24.40 
  -3  11   3  245.68   24.40 
 -11  -3   3  241.08   24.40 
  11   3   3  272.47   24.70 
   3 -11   3  205.28   24.80 
   2 -11  -3   11.00    2.20 
 -11  -2  -3   16.90    2.10 
  -2  11  -3   14.50    1.50 
  -2  11  -3   14.30    1.50 
  11   2   3   12.90    2.00 
   2 -11   3   10.00    2.20 
 -11  -2   3   11.20    1.90 
 -11  -2   3   14.80    1.80 
  11   1  -3   46.20    5.00 
  -1  11   3   50.89    5.10 
  11   0  -3   -0.10    0.60 
   0 -11  -3    0.50    1.30 
 -11   0  -3    0.80    0.80 
   0  11   3    1.00    0.60 
 -11   0   3    0.40    0.70 
 -11   0   3   -0.40    0.70 
  11  -1  -3   40.10    4.00 
  -1 -11  -3   37.30    4.70 
 -11   1   3   36.80    4.20 
 -11   2  -3   14.30    2.00 
  11  -2  -3   15.70    1.70 
  -2 -11  -3   13.10    2.40 
  -2 -11  -3   17.20    3.00 
 -11   2   3   14.00    2.00 
 -11   2   3   13.10    2.00 
   2  11   3   14.10    1.80 
  -3 -11  -3  198.08   24.60 
  -3 -11  -3  244.28   24.40 
 -11   3  -3  255.77   24.50 
  11  -3  -3  238.48   24.20 
  11  -3   3  246.08   24.10 
   3  11   3  247.28   24.30 
 -11   3   3  237.88   24.40 
  11  -4  -3    5.60    0.90 
  -4 -11  -3    2.00    2.30 
 -11   4  -3    4.80    1.20 
  -4 -11  -3    5.50    1.30 
  11  -4   3    6.00    0.90 
 -11   4   3    6.00    1.40 
   4  11   3    3.80    0.90 
 -11   5  -3   21.60    2.40 
  11  -5  -3   13.60    2.00 
  -5 -11  -3   17.50    2.40 
 -11   5   3   14.80    2.40 
   5  11   3   21.30    2.10 
  11  -6  -3    1.60    0.70 
  -6 -11  -3    0.40    0.90 
 -11   6  -3    2.10    1.00 
  -6 -11  -3    3.90    1.50 
  -6 -11   3    0.60    0.40 
  11  -6   3    2.80    0.70 
   6  11   3    0.40    0.60 
 -11   6   3    2.30    1.10 
  -7 -11  -3   38.80    3.70 
  -7 -11  -3   22.20    3.80 
 -11   7   3   29.70    3.90 
  -7 -11   3   36.60    3.40 
  11  -7   3   26.70    3.50 
  -8 -11  -3   47.70    5.60 
  11  -8  -3   49.00    5.40 
 -11   8  -3   47.20    5.50 
  -8 -11  -3   51.59    5.50 
  11  -8   3   51.59    5.40 
  -8 -11   3   49.90    5.20 
   8  11   3   47.30    5.30 
 -11   8   3   56.19    5.70 
  -9 -11  -3   79.69    9.60 
  11  -9  -3   81.59    9.60 
  -9 -11  -3  101.59    9.60 
  -9 -11   3   91.19    9.60 
   9  11   3  101.49    9.50 
  11  -9   3   89.49    9.80 
 -10 -11  -3    2.90    1.10 
 -11  10  -3    3.80    1.20 
  11 -10   3    4.50    1.20 
 -10 -11   3    3.70    1.10 
 -10 -11   3    3.70    0.90 
  10  11   3    2.10    0.80 
 -11 -11  -3    0.10    1.00 
 -11 -11  -3    0.00    0.90 
 -11 -11   3    4.00    0.90 
 -11 -11   3    1.30    0.80 
 -12 -11  -3    3.80    1.20 
 -12 -11  -3    4.50    1.30 
 -11  12  -3    4.10    1.30 
 -12 -11   3    6.20    1.10 
 -12 -11   3    5.60    1.20 
 -12 -10  -3    2.20    1.00 
 -12 -10  -3    0.10    1.20 
 -10  12  -3    3.00    1.10 
 -12 -10   3    1.40    0.90 
 -12 -10   3    1.10    0.80 
  -9  12  -3    2.50    1.10 
 -12  -9  -3    6.40    1.10 
 -12  -9  -3    4.30    0.90 
 -12  -9   3    4.20    1.00 
 -12  -9   3    5.60    1.20 
 -12  -8  -3    1.40    1.10 
 -12  -8  -3    2.10    0.80 
  -8  12  -3    1.40    0.80 
 -12  -8  -3    2.20    0.70 
 -12  -8   3    1.30    0.80 
 -12  -8   3    3.30    1.00 
 -12  -7  -3    4.20    0.70 
 -12  -7  -3    3.40    1.20 
 -12  -7  -3    4.00    0.80 
  -7  12  -3    2.10    0.90 
 -12  -7   3    5.60    1.00 
 -12  -7   3    3.10    1.00 
  -7  12   3    3.00    0.80 
 -12  -6  -3    0.30    0.90 
  -6  12  -3    2.20    0.70 
 -12  -6   3    0.70    0.70 
 -12  -6   3    0.10    0.60 
  -5  12  -3    2.70    0.70 
 -12  -5  -3    1.00    0.90 
 -12  -5   3    1.80    0.80 
  -5  12   3    2.40    0.70 
  -4  12  -3    0.90    0.50 
  -4  12  -3    1.50    0.50 
 -12  -4  -3    1.20    0.90 
 -12  -4   3    2.20    0.80 
  -4  12   3    2.30    0.70 
 -12  -4   3    1.40    0.80 
  -3  12  -3    5.20    0.80 
  -3  12  -3    5.70    0.90 
 -12  -3  -3    5.60    1.30 
 -12  -3   3    5.30    1.20 
 -12  -3   3    6.00    1.10 
  -3  12   3    8.10    1.10 
 -12  -2  -3    9.10    1.70 
  -2  12  -3    9.90    1.10 
  -2  12  -3    9.60    1.10 
  -2  12   3   11.80    1.40 
 -12  -2   3    9.10    1.60 
 -12  -2   3   13.00    1.50 
 -12  -1  -3    7.20    1.60 
 -12  -1   3   11.20    1.50 
  -1  12   3    8.60    1.30 
 -12  -1   3    8.40    1.50 
  12   0  -3   16.80    1.90 
   0 -12  -3   13.50    3.40 
 -12   0  -3   13.20    2.00 
 -12   0   3    9.20    1.90 
 -12   0   3   17.00    1.90 
   0  12   3   13.60    1.80 
  12  -1  -3   10.60    1.10 
 -12   1  -3    6.60    1.60 
  -1 -12  -3    6.60    1.90 
 -12   1   3   10.50    1.50 
 -12   1   3    7.40    1.40 
   1  12   3    7.20    1.20 
 -12   2  -3    9.00    1.80 
  12  -2  -3   11.80    1.30 
  -2 -12  -3    9.60    1.60 
  -2 -12  -3   12.60    2.30 
 -12   2   3   12.00    2.20 
   2  12   3    9.90    1.40 
 -12   2   3    9.30    1.70 
 -12   3  -3    3.50    1.30 
  12  -3  -3    6.30    0.90 
  -3 -12  -3    4.10    1.60 
  -3 -12  -3    6.50    1.20 
   3  12   3    6.20    1.00 
 -12   3   3    5.90    1.30 
  12  -3   3    6.10    0.70 
 -12   3   3    2.30    1.00 
  -4 -12  -3    2.00    1.40 
  12  -4  -3    2.00    0.60 
  -4 -12  -3    1.40    1.00 
 -12   4  -3    2.40    1.00 
 -12   4   3    1.40    0.80 
  12  -4   3    2.40    0.50 
   4  12   3    1.80    0.60 
 -12   4   3    1.70    1.10 
 -12   5  -3    1.40    0.90 
  -5 -12  -3    1.70    0.90 
  12  -5  -3    1.60    0.60 
  -5 -12  -3    1.30    1.30 
  12  -5   3    1.80    0.60 
 -12   5   3    0.80    1.10 
   5  12   3    1.10    0.60 
 -12   5   3    2.60    1.10 
  -6 -12  -3    1.40    0.90 
  -6 -12  -3    0.60    1.10 
 -12   6  -3    1.80    1.00 
  12  -6  -3    1.00    0.60 
   6  12   3    1.20    0.60 
  12  -6   3    1.40    0.60 
 -12   6   3    1.40    1.10 
  -7 -12  -3    4.40    1.10 
  -7 -12  -3    5.30    1.50 
  12  -7   3    4.20    0.90 
  -7 -12   3    3.40    0.70 
 -12   7   3    3.30    1.40 
   7  12   3    4.80    0.90 
  -8 -12  -3    3.30    1.00 
 -12   8  -3    1.90    1.10 
  -8 -12  -3    2.60    1.30 
  12  -8  -3    1.70    0.80 
  12  -8   3    2.60    0.90 
  -8 -12   3    2.80    0.70 
   8  12   3    2.10    0.70 
  -9 -12  -3    4.10    1.10 
  -9 -12  -3    5.60    1.40 
 -12   9  -3    4.00    1.30 
   9  12   3    2.10    0.80 
  -9 -12   3    3.80    1.10 
  -9 -12   3    4.00    0.80 
 -10 -12  -3    3.20    1.20 
 -12  10  -3    1.40    1.10 
 -10 -12  -3    1.20    1.00 
 -10 -12   3    1.40    0.70 
 -10 -12   3    1.80    0.90 
  12 -10   3    4.00    1.10 
  10  12   3    1.20    0.70 
 -11 -12  -3    3.70    1.30 
 -12  11  -3    5.30    1.50 
 -11 -12  -3    5.80    1.40 
 -11 -12   3    6.00    1.10 
 -11 -12   3    8.80    1.40 
 -12 -12  -3    0.40    1.10 
 -12  12  -3    0.30    1.10 
 -12 -12   3    0.70    0.90 
 -12  12   3    1.40    1.00 
 -12  13  -3    2.80    1.20 
 -13 -12  -3    2.30    1.20 
 -13 -12  -3    2.10    0.80 
 -13 -12   3    2.30    1.00 
 -12  13   3    0.30    0.90 
 -13 -11  -3    3.70    1.20 
 -13 -11  -3    6.40    1.10 
 -11  13  -3   12.40    1.80 
 -13 -11  -3    9.20    1.70 
 -13 -11   3    5.30    1.30 
 -13 -11   3    8.10    1.40 
 -13 -10  -3    1.80    0.80 
 -13 -10  -3    1.80    1.20 
 -10  13  -3    0.60    1.00 
 -13 -10   3    2.30    0.90 
 -13 -10   3    1.80    0.90 
 -13  -9  -3  114.89   12.70 
 -13  -9  -3  135.19   13.10 
  -9  13  -3  131.39   13.00 
 -13  -9   3  121.29   12.90 
 -13  -8  -3   -0.20    0.40 
 -13  -8  -3   -0.80    1.00 
  -8  13  -3    1.20    0.80 
 -13  -8  -3    0.60    0.60 
 -13  -8   3    0.90    0.70 
 -13  -8   3    0.80    0.80 
  -7  13  -3    8.30    1.20 
 -13  -7  -3    3.80    1.30 
 -13  -7   3    6.80    1.20 
 -13  -7   3    5.80    1.20 
  -7  13   3    5.00    1.00 
  -6  13  -3    4.40    1.00 
 -13  -6  -3    5.50    1.30 
 -13  -6   3    5.80    1.10 
  -6  13   3    5.90    1.00 
 -13  -6   3    6.60    1.10 
 -13  -5  -3   18.00    2.30 
  -5  13  -3   13.30    1.70 
  -5  13  -3   18.20    1.90 
  -5  13   3   13.80    1.90 
 -13  -5   3   15.20    2.00 
  -4  13  -3   13.20    1.60 
  -4  13  -3   15.10    1.70 
 -13  -4  -3   13.50    2.10 
  -4  13   3   14.80    1.80 
 -13  -4   3   11.70    2.00 
 -13  -4   3   15.20    1.90 
  -3  13  -3  328.67   31.90 
 -13  -3  -3  332.97   32.30 
  -3  13  -3  278.17   31.80 
 -13  -3   3  344.17   32.10 
  -3  13   3  298.07   32.00 
 -13  -2  -3   10.20    2.00 
  -2  13   3   11.50    1.60 
 -13  -2   3   10.80    1.70 
 -13  -2   3   13.40    1.70 
 -13  -1  -3   17.50    2.60 
 -13  -1   3   15.30    2.10 
  -1  13   3   17.60    2.00 
 -13  -1   3   17.90    2.30 
 -13   0  -3   -0.20    0.90 
  13   0  -3    0.20    0.40 
 -13   0   3   -0.40    0.70 
   0  13   3    0.20    0.60 
 -13   0   3   -0.70    1.20 
  13  -1  -3   16.30    1.90 
 -13   1  -3   18.80    2.30 
   1  13   3   16.20    2.00 
 -13   1   3   19.30    3.10 
 -13   1   3   16.10    2.20 
  13  -2  -3   12.00    1.50 
 -13   2  -3   14.80    2.10 
   2  13   3   13.40    1.60 
 -13   2   3   11.80    1.80 
  -3 -13  -3  327.87   32.00 
  13  -3  -3  275.27   31.80 
   3  13   3  330.67   31.90 
 -13   3   3  327.47   32.10 
 -13   4  -3   11.40    2.10 
  -4 -13  -3   17.70    2.10 
  13  -4  -3   16.20    1.80 
  13  -4   3   15.40    1.60 
 -13   4   3   11.60    2.10 
 -13   4   3   15.60    2.30 
   4  13   3   13.60    1.80 
  13  -5  -3   12.90    2.00 
 -13   5  -3   17.90    2.40 
  -5 -13  -3   19.50    2.30 
  13  -5   3   17.50    1.90 
   5  13   3   16.30    2.00 
 -13   5   3   23.20    2.70 
 -13   6  -3    5.60    1.40 
  -6 -13  -3    5.30    1.20 
  13  -6  -3    5.70    1.00 
  13  -6   3    6.60    0.90 
 -13   6   3    5.20    1.50 
   6  13   3    5.30    1.00 
 -13   6   3    4.20    1.20 
  13  -7  -3    6.40    1.10 
 -13   7  -3    3.50    1.30 
  -7 -13  -3    5.20    1.20 
   7  13   3    6.70    1.00 
  13  -7   3    5.80    1.00 
 -13   7   3    5.60    1.20 
 -13   7   3    2.80    1.40 
  13  -8  -3    1.70    0.80 
 -13   8  -3    0.20    1.00 
  -8 -13  -3   -0.10    0.80 
  13  -8   3    0.80    0.70 
  -8 -13   3    1.00    0.40 
 -13   8   3   -0.70    0.80 
   8  13   3    1.10    0.60 
  -9 -13  -3  120.69   11.90 
 -13   9  -3  123.29   12.10 
  -9 -13   3  108.99   11.60 
  13  -9   3   95.59   11.80 
   9  13   3  126.79   11.80 
 -13   9   3  109.29   12.70 
 -13  10  -3    1.20    1.10 
 -10 -13  -3    1.30    1.00 
  10  13   3    1.60    0.70 
 -10 -13   3    1.00    0.90 
  13 -10   3    0.50    0.90 
 -10 -13   3    1.80    0.70 
 -13  10   3    0.70    0.90 
 -11 -13  -3    8.50    1.50 
 -13  11  -3    6.80    1.70 
 -13  11   3    6.90    1.50 
 -11 -13   3    6.80    1.10 
 -11 -13   3    4.00    1.30 
 -12 -13  -3    0.80    1.10 
 -13  12  -3    0.50    1.20 
 -12 -13  -3    3.20    1.10 
 -13  12   3    1.40    1.00 
 -12 -13   3    2.20    0.80 
 -12 -13   3    3.50    1.10 
 -14 -11  -3    3.90    1.00 
 -14 -11  -3    6.30    2.50 
 -11  14  -3    2.30    1.10 
 -14 -11   3    4.20    1.10 
 -14 -11   3    3.80    1.30 
 -11  14   3    2.70    1.10 
 -14 -10  -3    0.80    0.50 
 -14 -10  -3    0.50    1.30 
 -10  14  -3    1.10    0.80 
 -14 -10   3    1.40    0.90 
 -14 -10   3    1.50    0.90 
 -14  -9  -3    7.90    1.10 
 -14  -9  -3    8.40    1.80 
  -9  14  -3    8.20    1.50 
 -14  -9  -3   10.40    1.20 
 -14  -9   3    8.50    1.50 
 -14  -9   3    9.80    1.60 
 -14  -8  -3    1.50    1.10 
  -8  14  -3    1.50    0.80 
 -14  -8   3    0.70    0.80 
 -14  -8   3    1.30    0.80 
  -7  14  -3    1.10    0.70 
 -14  -7  -3    1.20    1.10 
 -14  -7   3    1.20    0.80 
 -14  -7   3    2.10    0.90 
  -6  14  -3   -0.20    0.50 
 -14  -6  -3    0.20    1.10 
  -6  14  -3    0.60    0.50 
 -14  -6   3    1.80    0.80 
  -6  14   3   -0.50    0.60 
 -14  -6   3    1.20    0.80 
 -14  -5  -3   21.00    3.00 
  -5  14  -3   20.80    2.40 
  -5  14  -3   21.80    2.50 
 -14  -5   3   26.20    2.80 
  -5  14   3   23.60    2.60 
  -4  14  -3    9.40    1.20 
 -14  -4  -3    7.00    1.60 
  -4  14  -3    9.40    1.20 
  -4  14   3   11.00    1.50 
 -14  -4   3    9.20    1.60 
 -14  -4   3   11.00    1.50 
  -3  14  -3    6.40    0.80 
 -14  -3  -3   10.00    1.60 
  -3  14  -3    6.70    0.80 
 -14  -3   3    7.20    1.30 
  -3  14   3    6.20    1.10 
 -14  -3   3    6.10    1.10 
 -14  -2  -3    2.00    1.10 
 -14  -2   3    2.60    0.90 
  -2  14   3    3.60    0.80 
 -14  -2   3    3.30    0.90 
 -14  -1  -3    6.80    1.40 
 -14  -1   3    3.50    1.00 
 -14  -1   3    5.50    1.20 
  -1  14   3    4.70    0.90 
 -14   0  -3    7.60    1.60 
  14   0  -3    6.60    1.00 
 -14   0   3    7.50    1.40 
   0  14   3    6.70    1.10 
 -14   0   3    7.50    1.30 
 -14   1  -3    4.60    1.20 
  14  -1  -3    5.10    0.80 
   1  14   3    5.70    0.90 
 -14   1   3    3.50    1.10 
 -14   1   3    3.10    1.10 
 -14   2  -3    2.70    1.20 
  14  -2  -3    3.70    0.60 
 -14   2   3    1.30    1.10 
 -14   2   3    2.40    1.00 
   2  14   3    2.20    0.70 
 -14   3  -3    6.10    1.40 
  14  -3  -3    6.40    1.00 
 -14   3   3    8.30    1.50 
 -14   3   3    4.80    1.40 
   3  14   3    6.80    1.00 
 -14   4  -3    8.20    1.80 
  -4 -14  -3    9.50    1.60 
  14  -4  -3   11.60    1.50 
   4  14   3    8.60    1.40 
 -14   4   3   11.50    1.90 
 -14   4   3    9.90    1.80 
  14  -4   3   12.30    1.20 
  14  -5  -3   29.90    3.00 
 -14   5  -3   26.40    3.40 
  -5 -14  -3   25.80    3.20 
 -14   5   3   20.50    3.20 
 -14   5   3   28.80    3.50 
   5  14   3   23.20    2.90 
  14  -5   3   30.20    2.90 
 -14   6  -3    1.50    1.20 
  14  -6  -3    1.40    0.70 
  -6 -14  -3    0.50    0.80 
  14  -6   3    1.10    0.60 
 -14   6   3    0.80    1.20 
   6  14   3    0.80    0.60 
 -14   7  -3    1.50    1.30 
  14  -7  -3    2.10    0.80 
  -7 -14  -3    1.80    0.90 
   7  14   3    0.80    0.60 
 -14   7   3    1.40    1.00 
  14  -7   3    2.20    0.70 
 -14   8  -3    0.60    1.90 
  -8 -14  -3    2.00    0.90 
  14  -8   3    2.30    0.80 
 -14   8   3    0.60    1.00 
 -14   9  -3    7.30    1.70 
  -9 -14  -3    6.40    1.30 
 -14   9   3    6.60    1.50 
  14  -9   3    9.20    1.40 
   9  14   3    6.80    1.20 
  -9 -14   3    8.60    1.00 
 -10 -14  -3    1.10    0.80 
 -14  10  -3    0.50    1.00 
 -10 -14   3    0.00    0.80 
 -10 -14   3    0.40    0.50 
 -14  10   3    2.40    1.00 
  14 -10   3    1.20    1.00 
 -14  11  -3    2.50    1.20 
 -11 -14   3    2.80    1.00 
 -14  11   3    1.70    1.00 
 -11 -14   3    2.10    0.70 
 -15 -10  -3    7.60    1.60 
 -10  15  -3    4.70    1.30 
 -15 -10   3    4.60    1.10 
 -15 -10   3    2.70    1.00 
  -9  15  -3    3.70    1.00 
 -15  -9  -3    4.70    1.40 
 -15  -9   3    4.10    1.00 
 -15  -9   3    3.80    1.00 
  -8  15  -3    2.40    0.70 
 -15  -8  -3    2.70    1.30 
  -8  15  -3    4.40    1.00 
 -15  -8   3    4.50    0.90 
 -15  -8   3    3.40    1.00 
  -7  15  -3   47.20    4.50 
  -7  15  -3   37.20    4.30 
 -15  -7   3   35.00    4.50 
 -15  -7   3   50.79    4.70 
  -6  15  -3    1.60    0.60 
 -15  -6  -3    0.60    1.20 
  -6  15  -3    1.00    0.50 
  -6  15   3    2.60    0.80 
 -15  -6   3    1.00    0.90 
  -5  15  -3   62.59    6.20 
 -15  -5   3   61.39    6.50 
  -5  15   3   59.59    6.30 
 -15  -5   3   55.49    6.30 
  -4  15  -3    2.10    0.40 
  -4  15  -3    1.90    0.50 
  -4  15   3    4.00    1.30 
 -15  -4   3    2.50    0.90 
 -15  -4   3    0.90    0.70 
 -15  -3  -3    6.80    2.30 
  -3  15   3    6.70    1.00 
 -15  -3   3    5.00    1.20 
 -15  -3   3    4.50    1.00 
 -15  -2  -3    1.30    1.10 
  -2  15   3    1.10    0.60 
 -15  -2   3    1.60    0.70 
 -15  -2   3    0.00    0.70 
 -15  -1  -3  101.49    9.20 
 -15  -1   3   78.29    8.60 
 -15  -1   3   77.89    8.80 
  -1  15   3   80.59    8.50 
 -15   0  -3    0.30    1.50 
 -15   0   3    0.10    0.70 
   0  15   3   -0.10    0.60 
 -15   0   3    0.30    0.70 
  15  -1  -3   90.99    8.90 
   1  15   3   86.29    9.00 
 -15   1   3   88.29    9.40 
 -15   1   3   81.49    9.10 
  15  -2  -3    1.40    0.50 
 -15   2   3    1.90    1.20 
   2  15   3    1.00    0.60 
  15  -3  -3    5.60    0.90 
 -15   3  -3    5.90    1.60 
 -15   3   3    5.40    1.30 
 -15   3   3    6.60    1.40 
   3  15   3    4.40    0.80 
  15  -4  -3    2.50    0.70 
 -15   4  -3    4.70    1.30 
   4  15   3    1.50    0.60 
 -15   4   3    0.80    1.10 
 -15   4   3    2.10    1.00 
 -15   5  -3   61.99    7.20 
  15  -5  -3   67.79    6.80 
  -5 -15  -3   66.19    6.90 
   5  15   3   63.09    6.80 
  15  -5   3   70.59    6.70 
 -15   5   3   56.69    7.00 
  -6 -15  -3    2.90    0.90 
 -15   6  -3    1.40    1.00 
   6  15   3    1.40    0.60 
 -15   6   3    1.50    1.00 
  15  -7  -3   46.20    5.20 
  -7 -15  -3   49.00    5.30 
 -15   7  -3   54.79    6.30 
   7  15   3   48.00    5.20 
  15  -7   3   51.29    5.20 
 -15   8  -3    3.00    1.30 
  -8 -15  -3    4.60    1.00 
 -15   8   3    3.20    1.10 
   8  15   3    4.00    1.10 
  15  -8   3    5.30    1.00 
 -15   9  -3    3.50    1.30 
  -9 -15  -3    3.60    1.00 
 -15   9   3    2.90    1.10 
  15  -9   3    4.50    1.50 
   9  15   3    2.90    0.80 
 -15  10  -3    3.30    1.40 
 -10 -15  -3    4.60    1.00 
 -10 -15   3    3.30    0.70 
 -10 -15   3    3.90    1.10 
 -16  -8  -3    0.40    1.10 
  -8  16  -3   -0.20    0.60 
 -16  -8   3    0.20    0.70 
 -16  -8   3    1.20    0.80 
  -7  16  -3   -0.70    0.50 
  -7  16  -3   -0.40    0.40 
 -16  -7  -3   -0.30    1.00 
 -16  -7   3    0.90    0.80 
 -16  -7   3   -0.20    0.70 
 -16  -6  -3    1.00    1.00 
  -6  16  -3    0.20    0.40 
  -6  16  -3   -0.10    0.70 
 -16  -6   3    0.20    0.70 
 -16  -5  -3   -0.60    0.90 
  -5  16  -3    0.30    0.40 
  -5  16  -3   -0.10    0.40 
 -16  -5   3   -0.80    0.70 
  -5  16   3    0.50    0.60 
 -16  -5   3    0.60    0.60 
 -16  -4  -3    1.30    1.00 
 -16  -4   3    0.50    0.80 
 -16  -4   3    0.40    0.60 
  -4  16   3    1.70    0.70 
 -16  -3  -3    2.50    1.10 
  -3  16   3    1.60    0.70 
 -16  -3   3    0.30    0.80 
 -16  -3   3    0.50    0.60 
 -16  -2  -3    3.90    1.30 
 -16  -2   3    2.50    0.80 
  -2  16   3    2.30    0.70 
 -16  -2   3    1.90    1.00 
 -16  -1  -3    4.30    1.20 
  -1  16   3    2.60    0.80 
 -16  -1   3    2.20    1.00 
 -16  -1   3    3.80    0.90 
 -16   0  -3    1.90    1.20 
   0  16   3    2.50    0.80 
 -16   0   3    2.70    1.10 
 -16   0   3    5.10    1.00 
 -16   1  -3    4.00    1.50 
 -16   1   3    2.70    1.30 
   1  16   3    5.80    0.90 
 -16   1   3    7.20    1.20 
 -16   2  -3    4.10    1.50 
  16  -2  -3    4.90    0.70 
   2  16   3    2.30    0.70 
 -16   2   3    3.20    1.10 
  16  -3  -3    1.10    0.50 
 -16   3  -3    1.30    1.20 
 -16   3   3    0.10    0.90 
   3  16   3    0.40    0.50 
 -16   3   3    1.20    0.80 
  16  -4  -3    0.40    0.50 
 -16   4  -3    1.30    1.20 
   4  16   3    0.70    0.50 
 -16   4   3    0.40    0.80 
 -16   5  -3   -0.30    1.00 
  16  -5  -3   -0.10    0.50 
 -16   5   3   -0.20    0.90 
   5  16   3    0.50    0.50 
  -6 -16  -3    0.30    0.60 
  16  -6  -3   -0.40    1.00 
 -16   6  -3    1.00    1.10 
   6  16   3    0.00    0.40 
 -16   6   3    0.00    0.70 
  16  -6   3   -0.30    0.40 
  -7 -16  -3    0.10    0.60 
  16  -7  -3    0.80    0.70 
  16  -7   3    1.00    0.60 
   7  16   3   -0.50    0.50 
 -16   8  -3   -0.70    1.10 
  -8 -16  -3    0.30    0.70 
 -16   8   3    0.10    0.80 
 -17  -6  -3    2.40    1.80 
 -17  -6   3    0.90    0.60 
 -17  -6   3    1.60    0.90 
 -17  -5  -3    5.30    1.40 
  -5  17  -3    2.00    0.60 
  -5  17  -3    3.30    0.50 
 -17  -5   3    1.40    1.00 
  -5  17   3    3.60    0.90 
 -17  -4  -3    3.00    1.20 
 -17  -4   3    1.30    0.50 
  -4  17   3    1.90    0.70 
 -17  -4   3    2.30    1.00 
 -17  -3  -3   20.10    2.80 
 -17  -3   3   19.30    2.60 
 -17  -2  -3    4.30    1.40 
  -2  17   3    3.30    0.80 
 -17  -2   3    2.70    1.10 
 -17  -2   3    2.90    0.70 
 -17  -1  -3    7.70    1.60 
 -17  -1   3    5.10    0.90 
  -1  17   3    4.10    0.90 
 -17   0  -3    0.60    1.10 
   0  17   3   -0.10    0.50 
 -17   0   3   -0.10    0.80 
 -17   0   3    0.30    0.60 
 -17   1  -3    5.70    1.50 
   1  17   3    4.70    0.80 
 -17   1   3    6.00    1.40 
 -17   2  -3    3.10    1.40 
  17  -2  -3    2.50    0.60 
 -17   2   3    1.80    1.10 
   2  17   3    2.50    0.60 
  17  -3  -3   24.80    2.50 
 -17   3  -3   22.70    3.50 
   3  17   3   19.00    2.40 
 -17   3   3   22.40    3.80 
  17  -4  -3    1.10    0.60 
 -17   4   3   -0.60    1.40 
   4  17   3    1.20    0.50 
 -17   5  -3    3.40    1.50 
  17  -5  -3    1.60    0.80 
   5  17   3    4.20    1.00 
 -17   5   3    8.10    1.50 
 -17   6  -3    1.60    1.30 
 -17   6   3    0.20    0.90 
 -18  -2  -3    1.00    1.20 
 -18  -2   3    0.10    0.90 
 -18  -1  -3   -0.20    1.00 
 -18  -1   3   -0.50    0.80 
 -18   0  -3    0.70    1.10 
 -18   0   3    1.50    1.00 
 -18   1  -3    1.00    1.00 
 -18   1   3    0.00    0.80 
 -18   2  -3    0.40    1.00 
 -18   2   3    0.60    0.90 
   0   0  -4 5314.17  506.05 
   0   0   4 4499.95  501.65 
  -1   0  -4  605.04   64.59 
   0   1  -4  649.04   64.59 
   1   0  -4  615.54   64.59 
   0   1  -4  622.54   64.59 
   0  -1  -4  687.83   64.59 
   0  -1  -4  609.74   64.59 
  -1   0  -4  596.84   64.69 
   1   0  -4  634.34   64.59 
   0   1   4  713.23   64.59 
   1   0   4  632.74   64.59 
  -1   0   4  595.84   64.59 
   0  -1   4  706.83   64.59 
   0  -1   4  649.54   64.59 
   0   1   4  678.33   64.69 
   1   0   4  598.34   64.69 
  -1   0   4  646.74   64.59 
  -1  -1  -4  226.48   23.10 
   1  -1  -4  250.97   23.10 
   1  -1  -4  233.28   23.20 
   1   1  -4  215.68   23.10 
  -1   1  -4  220.48   23.10 
  -1   1  -4  196.38   23.20 
  -1  -1  -4  215.98   23.20 
   1   1  -4  228.68   23.10 
   1   1   4  199.98   23.20 
   1   1   4  255.07   23.10 
  -1  -1   4  223.68   23.10 
  -1   1   4  262.07   23.10 
   1  -1   4  240.68   23.10 
  -1  -1   4  253.37   23.10 
  -1   1   4  206.58   23.10 
   1  -2  -4   66.59    6.70 
   1  -2  -4   63.59    6.80 
  -2  -1  -4   67.29    6.90 
  -2  -1  -4   68.49    6.70 
  -1   2  -4   65.19    6.80 
   2   1  -4   69.49    6.70 
   1  -2   4   57.29    6.80 
  -1   2   4   63.79    6.80 
   2   1   4   70.59    6.70 
  -2  -1   4   70.39    6.70 
  -1   2   4   63.99    6.70 
  -2  -1   4   72.39    6.80 
   2   1   4   62.09    6.80 
   1  -2   4   60.49    6.70 
   2   0  -4 1748.63  170.68 
   0  -2  -4 1333.77  167.28 
   2   0  -4 1330.77  156.88 
   0   2   4 1642.44  169.98 
   0  -2   4 1543.65  161.78 
   2   0   4 1607.64  164.78 
   0   2   4 1428.36  156.28 
  -2   0   4 1463.05  162.28 
   2   0   4 1586.54  155.48 
   0  -2   4 1625.54  155.28 
   1   2  -4   67.59    6.80 
  -1  -2  -4   62.09    6.90 
  -2   1  -4   67.39    6.80 
  -1  -2  -4   61.19    6.80 
  -2   1  -4   67.29    6.90 
   1   2  -4   65.49    6.80 
   2  -1  -4   65.09    6.80 
   2  -1   4   66.29    6.90 
   1   2   4   68.89    6.90 
   2  -1   4   68.89    6.80 
   1   2   4   64.29    6.80 
  -2   1   4   67.39    6.80 
  -2   1   4   72.59    6.80 
  -1  -2   4   69.39    6.80 
  -1  -2   4   64.79    6.80 
  -2  -2  -4 1460.65  167.08 
   2  -2  -4 1538.45  183.58 
  -2  -2  -4 1756.72  178.68 
  -2   2  -4 1624.54  166.08 
   2   2  -4 1683.83  165.28 
   2   2   4 1747.73  167.08 
  -2   2   4 1385.86  178.68 
  -2  -2   4 1668.83  170.78 
   2  -2   4 1471.15  174.18 
   2  -2   4 1695.43  166.28 
   2   2   4 1787.92  180.48 
  -2  -2   4 1627.24  166.08 
   3   2  -4   55.49    5.50 
   2  -3  -4   56.39    5.50 
  -2   3  -4   45.30    5.50 
  -3  -2  -4   49.80    5.70 
  -3  -2  -4   53.99    5.50 
   2  -3   4   48.10    5.50 
  -2   3   4   60.39    5.50 
   3   2   4   49.70    5.60 
  -2   3   4   52.49    5.50 
   3   2   4   57.99    5.50 
  -3  -2   4   57.29    5.50 
   1  -3  -4  116.19   11.20 
   1  -3  -4  112.29   11.20 
   3   1  -4  110.19   11.20 
  -3  -1  -4  111.89   11.10 
  -1   3  -4   97.69   11.20 
   1  -3   4   94.39   11.20 
  -1   3   4  117.49   11.20 
  -3  -1   4  113.39   11.20 
  -1   3   4  109.19   11.20 
   3   1   4  116.69   11.10 
   3   0  -4    0.10    0.30 
  -3   0  -4    0.10    0.20 
  -3   0  -4    0.70    0.50 
   0  -3  -4    0.30    0.40 
   0  -3  -4    0.60    0.30 
   0   3  -4    0.40    0.20 
   3   0   4    0.20    0.40 
   0  -3   4    0.30    0.30 
  -3   0   4    0.40    0.30 
   0   3   4    1.00    0.40 
   0  -3   4    0.10    0.40 
   1   3  -4  113.69   11.30 
  -1  -3  -4  115.69   11.40 
  -1  -3  -4  109.29   11.50 
   3  -1  -4  114.69   11.40 
  -1  -3   4  108.99   11.40 
   1   3   4  103.19   11.40 
  -3   1   4  117.19   11.40 
   3  -1   4   93.79   11.40 
  -1  -3   4  122.69   11.40 
   3  -1   4  106.49   11.30 
   1   3   4  125.09   11.40 
  -3   2  -4   49.20    5.50 
  -2  -3  -4   52.69    5.50 
  -2  -3  -4   49.90    5.60 
   3  -2  -4   53.89    5.50 
  -3   2   4   59.39    5.50 
   2   3   4   50.99    5.50 
  -3   2   4   55.79    5.50 
   2   3   4   57.19    5.50 
   3  -2   4   51.59    5.50 
  -2  -3   4   54.19    5.50 
   3  -2   4   52.79    5.40 
  -2  -3   4   49.80    5.40 
   3  -3  -4   15.60    1.70 
  -3   3  -4   13.90    1.80 
  -3  -3  -4   17.50    1.70 
  -3  -3  -4   14.00    1.90 
   3   3   4   17.70    1.70 
  -3   3   4   16.00    1.70 
  -3   3   4   19.50    1.80 
   3   3   4   12.80    1.80 
  -3  -3   4   16.40    1.80 
   3  -3   4   12.00    1.70 
  -4  -3  -4   93.89   10.10 
   3  -4  -4   98.69   10.00 
  -4  -3  -4  100.39    9.90 
  -3   4  -4   94.59    9.90 
   3  -4   4   81.89    9.90 
  -4  -3   4   99.79    9.90 
   4   3   4  107.49    9.90 
  -3   4   4   99.69    9.90 
  -4  -2  -4 1171.18  119.39 
  -4  -2  -4  997.30  106.59 
   2  -4  -4  946.11  127.19 
   4   2  -4 1034.50  104.79 
  -2   4  -4 1012.00  105.49 
  -2   4  -4 1298.37  121.89 
   2  -4   4  964.20  116.39 
  -2   4   4  850.41  107.19 
   4   2   4 1078.79  105.99 
  -4  -2   4  972.90  108.19 
  -2   4   4 1293.77  133.89 
   2  -4   4 1039.00  105.99 
  -4  -1  -4  415.26   39.50 
  -4  -1  -4  392.06   39.70 
   4   1  -4  410.06   39.60 
   1  -4  -4  385.26   39.60 
  -1   4  -4  358.36   39.50 
   1  -4  -4  363.06   39.60 
   1  -4   4  362.56   39.50 
  -4  -1   4  421.96   39.60 
  -1   4   4  408.86   39.60 
   4   1   4  372.86   39.70 
   4   1   4  428.76   39.50 
  -1   4   4  377.56   39.60 
   4   0  -4 3243.48  337.17 
  -4   0  -4 3325.77  336.97 
   4   0   4 3446.76  348.17 
   4   0   4 3513.55  336.67 
  -4   0   4 2818.72  343.67 
   0  -4   4 3425.76  345.37 
   0  -4   4 3400.76  336.57 
   0   4   4 3304.67  338.77 
  -1  -4  -4  360.36   40.80 
   4  -1  -4  419.76   40.70 
  -1  -4  -4  385.46   40.70 
  -4   1  -4  421.56   40.80 
  -1  -4   4  369.56   40.70 
   4  -1   4  434.86   40.80 
  -4   1   4  425.66   40.70 
   1   4   4  391.26   40.70 
   4  -1   4  414.16   40.70 
   1   4   4  405.66   40.70 
  -4   2  -4 1202.58  119.59 
   2   4  -4 1042.80  103.89 
  -4   2  -4 1062.69  105.49 
  -4   2   4  837.22  105.49 
  -4   2   4  918.51  119.59 
   2   4   4  936.01  106.29 
  -2  -4   4 1010.10  110.19 
   4  -2   4 1154.28  105.59 
  -2  -4   4 1037.80  104.59 
   4  -2   4 1037.70  117.39 
  -3  -4  -4   88.79   10.00 
   4  -3  -4   99.19    9.80 
  -3  -4  -4   96.69    9.80 
  -4   3  -4   93.59    9.90 
   3   4   4  104.99    9.80 
   4  -3   4   88.49    9.80 
  -4   3   4  100.09    9.80 
   3   4   4   92.59    9.90 
  -3  -4   4   99.19    9.90 
   4  -4  -4 1702.73  184.48 
   4   4  -4 1900.61  178.58 
  -4   4  -4 2099.89  199.28 
  -4  -4  -4 1624.54  192.28 
   4  -4   4 1855.81  181.18 
   4   4   4 1852.21  181.28 
  -4  -4   4 1574.44  179.18 
  -4   4   4 2208.18  211.58 
  -4   4   4 1556.14  181.88 
  -4  -4   4 1680.43  182.08 
  -5  -4  -4  132.09   15.50 
  -5  -4  -4  143.19   15.30 
  -4   5  -4  165.58   15.40 
   4  -5  -4  147.29   15.40 
   5   4   4  143.69   15.40 
  -5  -4   4  147.59   15.40 
  -4   5   4  167.48   15.40 
   5   4   4  161.38   15.30 
  -4   5   4  139.79   15.60 
   4  -5   4  154.28   15.30 
   3  -5  -4   66.09    7.30 
  -3   5  -4   64.29    7.30 
  -5  -3  -4   77.09    7.20 
  -5  -3  -4   62.79    7.40 
   5   3   4   67.69    7.40 
  -3   5   4   69.19    7.30 
  -5  -3   4   75.19    7.30 
   5   3   4   80.09    7.20 
  -3   5   4   71.29    7.30 
  -5  -2  -4  409.26   42.90 
   2  -5  -4  437.66   42.80 
  -2   5  -4  423.26   42.70 
  -5  -2  -4  414.66   42.70 
   5   2  -4  418.46   42.70 
  -2   5   4  476.35   42.80 
  -5  -2   4  424.56   42.70 
   2  -5   4  440.36   42.70 
  -2   5   4  391.46   43.00 
   5   2   4  427.16   42.70 
   5   2   4  384.76   42.80 
  -5  -1  -4   87.19   10.10 
  -1   5  -4   83.09   10.00 
   5   1  -4  103.79   10.00 
   1  -5  -4   98.69   10.10 
  -5  -1  -4  102.49   10.00 
   1  -5  -4   97.29   10.10 
  -1   5   4  110.79   10.10 
   5   1   4  107.19   10.00 
  -1   5   4   96.59   10.00 
   5   1   4   86.19   10.10 
  -5  -1   4  105.39   10.00 
   0  -5  -4    3.30    0.70 
  -5   0  -4    3.30    0.70 
   5   0  -4    4.30    0.50 
   5   0   4    2.30    0.40 
   5   0   4    2.40    0.70 
  -5   0   4    2.60    0.50 
   0   5   4    2.70    0.60 
   5  -1  -4  104.09   10.00 
  -1  -5  -4   94.49   10.10 
  -5   1  -4   90.09   10.10 
  -1  -5  -4   94.39   10.10 
   1   5   4  107.39   10.10 
   1   5   4   96.59   10.10 
   5  -1   4   82.39   10.20 
   5  -1   4  100.09    9.90 
  -5   1   4  109.79   10.00 
  -2  -5  -4  448.36   44.60 
  -5   2  -4  436.46   44.60 
   5  -2  -4  435.46   44.50 
  -2  -5  -4  428.16   44.60 
   2   5   4  464.85   44.50 
  -2  -5   4  455.45   44.40 
   5  -2   4  422.46   44.40 
   2   5   4  442.76   44.50 
  -5   2   4  427.06   44.50 
  -3  -5  -4   64.49    7.50 
  -3  -5  -4   69.09    7.40 
   5  -3  -4   74.59    7.40 
  -5   3  -4   69.69    7.40 
   3   5   4   81.99    7.40 
  -5   3   4   82.99    7.40 
   5  -3   4   59.49    7.70 
  -3  -5   4   64.29    7.40 
  -4  -5  -4  148.29   15.50 
  -5   4  -4  152.98   15.60 
  -4  -5  -4  151.68   15.70 
   5  -4  -4  134.69   15.50 
   4   5   4  164.58   15.60 
  -5   4   4  147.29   15.50 
  -4  -5   4  149.29   15.50 
   4   5   4  169.68   15.50 
  -5   5  -4  101.59   10.00 
  -5  -5  -4   87.19   10.30 
   5  -5  -4  100.09   10.00 
  -5  -5  -4  103.99   10.00 
  -5  -5   4   91.89   10.00 
  -5  -5   4   88.09    9.90 
  -5   5   4  106.99   10.00 
   5   5   4   95.59   10.00 
  -6  -5  -4  125.39   13.00 
   5  -6  -4  118.59   12.80 
  -5   6  -4  127.89   12.80 
  -6  -5  -4  120.89   12.80 
  -6  -5   4  123.19   12.80 
   6   5   4  128.49   12.90 
  -5   6   4  133.29   12.90 
  -6  -4  -4   97.39   10.70 
  -6  -4  -4  127.59   11.00 
   4  -6  -4   91.29   10.80 
  -4   6   4  112.69   10.80 
  -6  -4   4  105.39   10.80 
  -4   6   4   99.69   10.80 
  -6  -3  -4  126.49   12.30 
  -3   6  -4  112.79   12.40 
  -6  -3  -4  115.29   12.50 
   3  -6  -4  124.79   12.50 
  -6  -3   4  128.99   12.40 
  -3   6   4  132.99   12.50 
   6   3   4  102.09   12.50 
  -3   6   4  125.89   12.40 
   2  -6  -4 1410.16  191.28 
   6   2  -4 1794.82  165.98 
  -6  -2  -4 2063.89  185.48 
   2  -6  -4 1400.26  171.18 
  -6  -2  -4 1593.04  168.28 
  -2   6   4 1590.74  170.48 
   2  -6   4 1690.03  168.28 
  -6  -2   4 1588.54  169.98 
  -6  -2   4 1493.25  165.78 
   6   2   4 1774.62  167.58 
   6   1  -4  108.09   10.40 
  -1   6  -4   88.59   10.40 
   1  -6  -4  101.39   10.60 
  -6  -1  -4   88.59   10.70 
   1  -6  -4  104.79   10.50 
  -6  -1   4  112.79   10.50 
   6   1   4  104.59   10.40 
   6   1   4  104.89   10.60 
  -1   6   4  104.69   10.50 
   0  -6  -4   51.69    5.90 
   6   0  -4   61.69    5.80 
   0  -6  -4   53.29    5.90 
   0   6   4   56.99    5.90 
  -1  -6  -4  102.29   10.80 
   6  -1  -4  107.49   10.70 
  -6   1  -4   95.99   11.00 
  -1  -6  -4  102.59   10.90 
   6  -1   4  114.69   10.70 
  -6   1   4  115.59   10.80 
   1   6   4   89.89   10.80 
   1   6   4  111.09   10.80 
   6  -1   4  104.09   10.90 
  -6   2  -4 1625.74  166.68 
   6  -2  -4 1680.83  169.28 
  -6   2  -4 1882.51  182.88 
  -6   2   4 1504.15  183.48 
   6  -2   4 1698.33  166.28 
   2   6   4 1886.31  168.98 
  -2  -6   4 1465.85  165.08 
  -2  -6   4 1551.84  165.48 
  -6   2   4 1403.56  166.08 
  -3  -6  -4  108.09   11.90 
  -3  -6  -4  115.49   11.90 
  -6   3  -4  117.39   11.90 
   6  -3  -4  120.79   11.70 
  -3  -6   4  102.49   11.60 
   6  -3   4  110.09   11.80 
  -6   3   4  131.49   11.80 
   3   6   4  115.29   11.80 
  -3  -6   4  114.59   11.70 
  -6   4  -4  147.19   14.00 
  -4  -6  -4  127.29   14.10 
   4   6   4  131.59   13.90 
   6  -4   4  135.09   13.90 
  -4  -6   4  139.79   13.80 
  -6   5  -4  125.79   12.70 
  -5  -6  -4  113.79   12.60 
   6  -5  -4  121.09   12.50 
  -5  -6  -4  117.69   12.50 
   5   6   4  128.69   12.50 
  -5  -6   4  116.79   12.40 
  -6   5   4  128.29   12.50 
  -5  -6   4  123.19   12.50 
   6  -6  -4 1734.63  182.58 
  -6   6  -4 2058.59  205.18 
   6  -6   4 1643.24  178.58 
  -6   6   4 1519.75  178.78 
   6   6   4 1572.04  177.08 
  -6   6   4 2049.29  216.58 
   6  -6   4 1959.80  179.08 
  -7  -6  -4  256.17   25.30 
   6  -7  -4  250.07   25.20 
  -6   7  -4  246.18   25.30 
  -7  -6  -4  237.78   25.10 
  -7  -6   4  227.48   25.10 
  -6   7   4  283.57   25.30 
  -7  -6   4  240.98   25.20 
   7   6   4  239.78   25.20 
  -7  -5  -4   48.90    4.60 
   5  -7  -4   44.40    4.70 
  -7  -5  -4   44.50    4.80 
  -5   7  -4   38.20    4.60 
   7   5   4   41.70    4.70 
  -5   7   4   47.90    4.70 
  -7  -5   4   43.50    4.60 
  -7  -5   4   39.70    4.50 
  -5   7   4   40.30    4.50 
  -7  -4  -4   35.20    3.30 
  -7  -4  -4   29.10    3.50 
   4  -7  -4   32.00    3.50 
  -4   7  -4   29.80    3.40 
  -7  -4   4   27.80    3.30 
  -4   7   4   30.80    3.40 
  -7  -4   4   35.80    3.40 
  -4   7   4   34.60    3.60 
   7   4   4   26.90    3.50 
   3  -7  -4   25.50    3.00 
  -7  -3  -4   27.40    2.60 
  -3   7  -4   22.60    2.70 
  -7  -3  -4   23.40    3.00 
  -3   7   4   24.80    2.80 
   7   3   4   23.50    2.90 
  -3   7   4   26.60    2.90 
  -7  -3   4   27.80    2.80 
  -2   7  -4  143.09   14.20 
   2  -7  -4  139.29   14.40 
   7   2  -4  130.69   14.20 
  -7  -2  -4  134.79   14.40 
  -2   7   4  147.79   14.30 
  -2   7   4  145.59   14.30 
  -7  -2   4  139.09   14.20 
   7   2   4  137.09   14.40 
  -7  -1  -4  127.59   13.90 
   1  -7  -4  131.19   13.90 
   7   1  -4  141.59   13.70 
  -1   7  -4  116.49   13.60 
  -7  -1   4  152.18   13.70 
   7   1   4  128.49   13.90 
  -1   7   4  135.59   13.70 
  -1   7   4  144.59   13.80 
   7   0  -4  205.78   21.40 
  -7   0  -4  192.68   21.50 
   0  -7  -4  222.38   21.50 
   0  -7  -4  211.48   21.60 
   0   7   4  213.18   21.40 
  -7   0   4  213.28   21.40 
   7   0   4  195.68   21.50 
   0   7   4  232.38   21.50 
  -7   1  -4  121.29   14.00 
  -1  -7  -4  135.09   14.10 
  -1  -7  -4  131.39   14.00 
   7  -1   4  141.49   13.80 
   1   7   4  147.19   14.00 
  -7   1   4  150.28   13.90 
   1   7   4  129.09   13.90 
   7  -1   4  131.89   14.00 
  -2  -7  -4  142.09   14.50 
   7  -2  -4  139.49   14.30 
  -7   2  -4  138.39   14.50 
  -2  -7  -4  129.29   14.50 
   2   7   4  157.58   14.40 
   7  -2   4  138.69   14.50 
   7  -2   4  136.99   14.20 
   2   7   4  143.89   14.40 
  -7   2   4  140.59   14.40 
  -3  -7  -4   23.30    3.00 
  -3  -7  -4   23.30    3.00 
  -7   3  -4   24.30    2.90 
   7  -3  -4   27.10    2.70 
   3   7   4   22.20    2.80 
   7  -3   4   22.70    2.80 
  -7   3   4   29.50    2.80 
   7  -4  -4   34.80    3.30 
  -4  -7  -4   30.40    3.50 
  -7   4  -4   32.10    3.40 
  -4  -7  -4   26.00    3.70 
  -7   4   4   37.00    3.40 
   4   7   4   30.50    3.30 
  -4  -7   4   26.80    3.10 
   7  -4   4   26.60    3.30 
  -5  -7  -4   41.30    4.70 
   7  -5  -4   46.80    4.50 
  -5  -7  -4   42.40    4.60 
  -7   5  -4   41.50    4.50 
  -5  -7   4   35.80    4.30 
   5   7   4   39.30    4.50 
  -7   5   4   49.40    4.60 
  -6  -7  -4  253.97   25.40 
  -6  -7  -4  272.67   25.50 
   7  -6  -4  232.68   25.30 
  -7   6  -4  250.27   25.40 
  -7   6   4  263.87   25.40 
  -6  -7   4  246.98   25.20 
  -6  -7   4  258.47   25.40 
   7  -6   4  217.08   25.50 
  -7  -7  -4   29.70    3.40 
  -7   7  -4   31.40    3.40 
  -7  -7  -4   29.30    3.50 
   7  -7  -4   28.60    3.30 
  -7  -7   4   28.10    3.10 
   7   7   4   28.10    3.30 
   7  -7   4   24.00    3.50 
  -7  -7   4   30.90    3.30 
  -7   7   4   30.30    3.40 
  -7   8  -4   34.00    3.50 
   7  -8  -4   26.60    3.50 
  -8  -7  -4   33.20    3.70 
  -7   8   4   33.00    3.60 
   8   7   4   32.10    3.40 
  -8  -7   4   27.20    3.30 
  -8  -7   4   32.20    3.50 
   7  -8   4   25.50    3.70 
   6  -8  -4  107.19   12.60 
  -8  -6  -4  112.39   12.50 
  -6   8   4  123.99   12.50 
  -8  -6   4  124.59   12.50 
  -8  -6   4  147.79   12.60 
  -6   8   4  113.59   12.60 
   5  -8  -4   54.59    6.20 
  -8  -5  -4   64.59    6.00 
  -5   8  -4   59.19    6.10 
  -8  -5  -4   55.89    6.30 
  -8  -5   4   51.49    6.00 
  -8  -5   4   57.89    6.10 
   8   5   4   50.49    6.10 
  -5   8   4   67.59    6.30 
  -5   8   4   58.29    6.00 
  -8  -4  -4  230.28   20.90 
  -8  -4  -4  168.98   20.50 
  -4   8  -4  230.48   20.70 
  -8  -4   4  227.88   20.70 
  -4   8   4  169.78   20.70 
  -4   8   4  201.38   20.60 
   8   4   4  223.18   20.80 
  -8  -4   4  179.38   20.70 
   3  -8  -4   41.70    4.40 
  -3   8  -4   34.80    4.00 
  -8  -3  -4   32.00    4.20 
  -8  -3   4   40.90    4.10 
   8   3   4   36.00    4.20 
  -3   8   4   42.00    4.10 
  -8  -3   4   36.10    4.10 
  -3   8   4   46.30    4.30 
   2  -8  -4  797.52   92.09 
  -2   8  -4 1013.00   91.89 
  -2   8   4  948.31   91.89 
  -2   8   4  878.41   91.99 
  -8  -1  -4  221.48   23.00 
   1  -8  -4  194.58   23.10 
  -1   8   4  242.98   23.00 
   8   1   4  233.28   23.10 
  -8  -1   4  240.98   22.90 
  -1   8   4  219.38   22.90 
   0  -8  -4  665.83   65.09 
  -8   0  -4  694.93   65.09 
   8   0  -4  606.74   64.99 
   0   8   4  651.03   64.99 
   0   8   4  596.54   64.99 
  -1  -8  -4  203.18   23.80 
  -1  -8  -4  218.58   23.70 
  -8   1  -4  232.28   23.70 
   8  -1  -4  235.78   23.60 
   8  -1   4  253.37   23.50 
  -8   1   4  239.08   23.60 
   8  -1   4  233.88   23.50 
   1   8   4  247.78   23.70 
   1   8   4  226.78   23.90 
   8  -1   4  230.28   23.80 
  -8   2  -4 1062.49   97.49 
  -2  -8  -4  939.11   97.49 
   8  -2   4  978.80   97.29 
   2   8   4  894.81   97.39 
   8  -2   4  945.71   97.19 
  -8   3  -4   36.90    4.20 
  -3  -8  -4   38.60    4.30 
   8  -3  -4   40.20    4.00 
  -8   3   4   37.20    4.20 
   3   8   4   35.90    4.00 
   8  -4  -4  167.88   18.90 
  -4  -8  -4  201.08   19.10 
  -8   4   4  172.58   18.90 
  -4  -8   4  211.48   18.80 
   8  -4   4  175.38   18.90 
  -5  -8  -4   58.39    6.30 
  -5  -8  -4   55.59    6.30 
  -8   5  -4   58.39    6.20 
   8  -5  -4   56.59    6.00 
  -8   5   4   67.49    6.20 
  -5  -8   4   53.89    5.90 
   5   8   4   57.59    6.10 
  -6  -8  -4  156.48   14.30 
   8  -6  -4  112.29   14.10 
  -6  -8   4  147.69   14.00 
  -8   6   4  121.99   14.20 
   6   8   4  157.08   14.10 
  -6  -8   4  132.59   14.20 
  -8   7  -4   26.30    3.40 
   8  -7  -4   30.30    3.40 
  -7  -8  -4   31.00    3.60 
  -7  -8  -4   31.90    3.60 
  -8   7   4   30.50    3.60 
  -7  -8   4   30.80    3.50 
   7   8   4   30.80    3.40 
  -7  -8   4   30.50    3.20 
   8  -7   4   27.30    3.60 
   8  -8  -4   23.00    3.50 
  -8  -8  -4   33.40    3.30 
  -8  -8  -4   22.00    3.10 
  -8   8   4   23.50    3.20 
   8  -8   4   20.30    3.20 
  -8  -8   4   30.80    3.10 
  -8   9  -4   14.70    1.80 
  -9  -8  -4   11.20    1.80 
   8  -9  -4    9.00    1.70 
  -9  -8  -4   15.00    2.10 
  -9  -8   4   13.60    1.50 
   8  -9   4    7.30    1.90 
  -9  -8   4   10.90    1.70 
   9   8   4   10.60    1.80 
  -8   9   4    9.20    1.90 
  -9  -7  -4    5.30    1.50 
   7  -9  -4    7.80    1.50 
  -7   9  -4    8.60    1.30 
  -9  -7  -4    8.20    1.30 
  -9  -7   4    6.50    1.10 
  -7   9   4    7.90    1.60 
  -7   9   4    7.30    1.50 
   7  -9   4    2.80    1.50 
   9   7   4    4.90    1.70 
  -9  -7   4    7.20    1.30 
  -6   9  -4   26.30    3.00 
   6  -9  -4   24.20    3.10 
  -9  -6  -4   27.50    3.00 
  -9  -6  -4   27.60    3.30 
  -6   9   4   28.70    3.30 
   9   6   4   23.40    3.10 
  -9  -6   4   23.10    2.90 
  -6   9   4   27.80    2.90 
  -9  -6   4   29.50    3.10 
   6  -9   4   24.00    3.50 
  -9  -5  -4    8.50    1.80 
  -5   9  -4   13.00    1.60 
  -9  -5  -4   13.70    1.50 
  -5   9   4   13.50    2.00 
  -5   9   4   11.70    1.60 
  -9  -5   4   11.40    1.60 
  -9  -5   4   13.50    1.70 
  -9  -4  -4    1.20    1.00 
   4  -9  -4    1.20    1.00 
  -4   9  -4    1.20    0.60 
   9   4   4    3.30    0.90 
  -4   9   4    1.10    0.60 
  -4   9   4    3.30    1.00 
  -9  -4   4    1.50    0.60 
  -3   9  -4    1.80    0.50 
   3  -9  -4    2.70    1.00 
  -9  -3  -4    1.80    1.00 
  -3   9   4    1.90    1.00 
  -9  -3   4    2.70    0.70 
  -9  -3   4    1.80    0.70 
  -3   9   4    2.90    0.70 
   9   3   4    2.60    0.90 
  -2   9  -4   14.30    1.60 
  -9  -2  -4   14.60    2.00 
   2  -9  -4   12.20    2.10 
   9   2  -4   13.20    1.60 
   9   2   4   16.30    2.00 
  -9  -2   4   12.70    1.70 
  -2   9   4   18.40    2.00 
  -9  -2   4   14.60    1.80 
  -9  -1  -4    1.00    0.80 
   9   1  -4    1.50    0.40 
   1  -9  -4    1.30    1.10 
  -1   9   4    1.90    0.60 
   9   1   4    2.80    0.90 
  -1   9   4    0.30    0.90 
  -9  -1   4    0.30    0.60 
   0  -9  -4  103.79   10.40 
  -9   0  -4   93.99   10.30 
   9   0  -4   94.09   10.10 
   0  -9  -4   90.09   10.50 
   0   9   4  106.89   10.20 
   0   9   4  107.39   10.40 
  -9   0   4   98.09   10.20 
   9   0   4  100.29   10.40 
   9  -1  -4    1.70    0.50 
  -1  -9  -4    0.20    0.90 
  -1  -9  -4    0.40    1.10 
  -9   1  -4    2.60    0.90 
  -9   1   4    1.40    0.70 
   1   9   4    0.60    0.60 
   1   9   4    0.50    0.70 
   9  -1   4    1.30    0.80 
   9  -2  -4   15.10    1.70 
  -9   2  -4   12.30    2.00 
  -2  -9  -4   13.10    2.00 
  -2  -9  -4   16.50    2.30 
   9  -2   4   13.70    1.50 
   9  -2   4   15.10    1.60 
   2   9   4   14.40    1.80 
   9  -2   4   14.70    2.00 
  -3  -9  -4    2.80    1.00 
   9  -3  -4    3.60    0.70 
  -3  -9  -4    2.30    1.30 
  -9   3  -4    0.90    0.80 
   9  -3   4    3.80    0.70 
   3   9   4    1.10    0.70 
  -9   3   4    4.10    0.90 
  -4  -9  -4    2.20    1.20 
  -9   4  -4    2.50    0.90 
  -4  -9  -4    1.00    1.00 
   9  -4  -4    0.70    0.50 
  -9   4   4    1.30    0.80 
   9  -4   4    1.00    0.70 
   4   9   4    0.70    0.60 
   9  -5  -4   12.90    1.60 
  -5  -9  -4   15.90    2.20 
  -9   5  -4   12.10    1.90 
  -5  -9  -4   17.30    2.20 
  -5  -9   4   13.00    1.50 
  -9   5   4   10.00    1.80 
   5   9   4   12.60    1.70 
  -9   6  -4   25.60    3.20 
  -6  -9  -4   26.10    3.30 
   9  -6  -4   26.50    3.00 
  -6  -9  -4   28.10    3.40 
   6   9   4   24.80    3.00 
  -9   6   4   31.20    3.30 
  -6  -9   4   23.70    2.80 
   9  -6   4   30.50    3.20 
  -9   7  -4    6.20    1.40 
  -7  -9  -4    5.30    1.50 
  -7  -9  -4    6.20    1.50 
   9  -7  -4    9.50    1.30 
   9  -7   4    6.70    1.50 
  -7  -9   4    8.50    1.40 
   7   9   4    8.10    1.30 
  -9   7   4    7.40    1.60 
  -7  -9   4    8.00    1.10 
  -8  -9  -4   13.00    2.00 
  -9   8  -4   12.50    1.90 
  -8  -9  -4   11.20    2.00 
   9  -8  -4   12.70    1.80 
  -8  -9   4   14.70    1.90 
   8   9   4   13.70    1.80 
  -8  -9   4   13.70    1.60 
  -9   8   4   13.90    2.10 
   9  -8   4    9.10    2.00 
  -9  -9  -4    4.80    1.40 
  -9  -9  -4    6.50    1.40 
   9  -9  -4    6.00    1.20 
  -9   9  -4    4.10    1.20 
   9  -9   4    7.00    1.50 
   9   9   4    4.20    1.00 
  -9  -9   4    6.10    1.30 
  -9  -9   4    4.90    0.90 
  -9   9   4    7.90    1.60 
 -10  -9  -4   19.00    2.40 
  -9  10  -4   16.70    2.20 
 -10  -9  -4   17.60    2.20 
  10   9   4   14.30    2.00 
   9 -10   4   13.40    2.40 
  -9  10   4   14.40    2.40 
 -10  -9   4   15.40    2.20 
 -10  -9   4   13.70    1.90 
 -10  -8  -4  118.99   13.10 
 -10  -8  -4  154.18   13.30 
  -8  10   4  112.69   13.00 
 -10  -8   4  123.49   13.10 
 -10  -8   4  138.09   13.00 
  -8  10   4  116.89   13.30 
 -10  -7  -4   29.90    2.90 
  -7  10  -4   25.60    2.90 
   7 -10  -4   22.20    3.20 
 -10  -7  -4   27.50    3.20 
  -7  10   4   21.10    2.80 
 -10  -7   4   24.40    2.80 
  -7  10   4   26.50    3.20 
  10   7   4   25.90    3.00 
   7 -10   4   22.20    3.40 
 -10  -7   4   24.50    3.00 
 -10  -6  -4  333.17   36.00 
   6 -10  -4  306.07   36.30 
 -10  -6  -4  417.26   36.30 
  10   6   4  390.26   36.30 
 -10  -6   4  387.66   36.10 
  -6  10   4  348.87   36.10 
  -6  10   4  334.67   36.30 
 -10  -6   4  332.57   36.10 
   5 -10  -4  123.29   13.70 
 -10  -5  -4  150.18   13.70 
  -5  10  -4  131.09   13.50 
  -5  10   4  130.69   13.50 
   5 -10   4  114.19   13.90 
 -10  -5   4  130.19   13.50 
 -10  -5   4  141.39   13.50 
  10   5   4  127.29   13.60 
  -5  10   4  133.29   13.70 
 -10  -4  -4  219.78   20.40 
  -4  10  -4  211.08   20.20 
  10   4   4  213.78   20.40 
  -4  10   4  191.88   20.20 
 -10  -4   4  209.58   20.30 
 -10  -4   4  174.88   20.20 
  -4  10   4  171.68   20.40 
  -3  10  -4   27.80    3.10 
   3 -10  -4   30.10    3.60 
 -10  -3  -4   26.70    3.40 
  -3  10   4   32.40    3.20 
 -10  -3   4   27.50    3.20 
 -10  -3   4   30.40    3.30 
  -3  10   4   33.10    3.50 
  10   3   4   23.70    3.40 
  -2  10  -4  233.18   21.70 
  10   2  -4  210.18   21.80 
  -2  10  -4  204.78   21.70 
 -10  -2  -4  248.78   22.10 
 -10  -2   4  192.58   21.80 
  -2  10   4  218.78   21.90 
  -2  10   4  198.78   22.00 
 -10  -1  -4   31.40    3.40 
  10   1  -4   29.20    3.10 
  -1  10   4   33.80    3.50 
 -10  -1   4   25.70    3.30 
  -1  10   4   28.60    3.20 
 -10  -1   4   31.40    3.30 
  10   0  -4   35.20    3.60 
   0 -10  -4   29.60    4.10 
 -10   0   4   32.50    3.70 
   0  10   4   36.80    3.70 
  -1 -10  -4   28.20    3.60 
 -10   1  -4   28.50    3.40 
  -1 -10  -4   29.20    3.40 
  10  -1  -4   30.40    3.10 
   1  10   4   30.80    3.20 
 -10   1   4   27.70    3.40 
  -2 -10  -4  210.48   21.70 
 -10   2  -4  247.08   21.80 
  10  -2  -4  198.98   21.50 
  10  -2   4  198.68   21.40 
   2  10   4  222.58   21.60 
 -10   2   4  200.08   21.60 
  -3 -10  -4   32.30    3.90 
 -10   3  -4   27.30    3.60 
  10  -3  -4   30.60    3.40 
  -3 -10  -4   33.60    3.70 
  10  -3   4   33.80    3.30 
 -10   3   4   33.70    3.60 
   3  10   4   30.10    3.50 
  -4 -10  -4  162.68   19.10 
  10  -4  -4  170.98   18.80 
  -4 -10  -4  202.38   19.00 
   4  10   4  215.18   18.90 
  10  -4   4  180.58   18.80 
 -10   4   4  177.08   18.90 
 -10   5  -4  148.69   14.30 
  -5 -10  -4  127.59   14.40 
  -5 -10  -4  136.19   14.30 
  10  -5  -4  136.09   14.10 
 -10   5   4  143.39   14.30 
   5  10   4  135.59   14.10 
 -10   6  -4  431.56   40.30 
  -6 -10  -4  417.06   40.30 
  -6 -10   4  399.16   40.00 
 -10   6   4  343.07   40.20 
  10  -6   4  356.66   40.10 
   6  10   4  429.36   40.10 
  -7 -10  -4   23.20    3.10 
  10  -7  -4   26.90    3.30 
  -7 -10  -4   22.80    3.20 
 -10   7  -4   28.00    3.10 
 -10   7   4   29.10    3.20 
   7  10   4   23.90    2.90 
  -7 -10   4   22.40    2.70 
  10  -7   4   26.40    3.00 
  -8 -10  -4  107.39   13.60 
  10  -8  -4  110.99   13.50 
  -8 -10  -4  144.49   13.70 
 -10   8  -4  156.78   13.70 
  10  -8   4  114.69   13.60 
 -10   8   4  119.19   13.70 
   8  10   4  153.28   13.60 
  -8 -10   4  134.99   13.60 
  -8 -10   4  140.19   13.40 
  -9 -10  -4   16.20    2.20 
  -9 -10  -4   10.80    2.10 
 -10   9  -4   11.70    2.10 
   9  10   4   14.20    1.90 
 -10   9   4   12.40    2.20 
  10  -9   4   16.00    2.20 
  -9 -10   4   16.30    2.10 
 -10 -10  -4   33.00    4.50 
 -10 -10  -4   40.10    4.60 
 -10  10  -4   47.00    4.70 
 -10 -10   4   44.50    4.40 
  10 -10   4   34.80    4.70 
  10  10   4   42.10    4.50 
 -10 -10   4   40.10    4.60 
 -10  11  -4   20.90    2.60 
 -11 -10  -4   14.90    2.50 
 -11 -10  -4   20.50    2.60 
 -11 -10   4   19.40    2.50 
 -11 -10   4   19.00    2.30 
  -9  11  -4    1.40    0.90 
 -11  -9  -4    2.40    1.20 
 -11  -9  -4    1.90    1.00 
 -11  -9   4    1.40    0.70 
 -11  -9   4    1.50    0.90 
 -11  -8  -4   38.60    4.40 
  -8  11  -4   41.60    4.40 
 -11  -8  -4   43.00    4.60 
 -11  -8   4   37.50    4.40 
 -11  -8   4   35.90    4.20 
  -7  11  -4    2.20    0.80 
 -11  -7  -4    2.90    1.10 
 -11  -7  -4    1.60    0.70 
 -11  -7   4    2.60    0.90 
 -11  -7   4    1.70    0.70 
   7 -11   4    0.60    1.50 
  -7  11   4    2.00    0.70 
  -6  11  -4    7.10    1.10 
 -11  -6  -4    7.90    1.50 
 -11  -6  -4    6.60    0.90 
 -11  -6   4    4.80    1.00 
 -11  -6   4    7.70    1.20 
  11   6   4    3.00    1.20 
  -6  11   4    6.90    1.10 
   6 -11   4    4.20    1.60 
 -11  -5  -4    8.40    1.50 
  -5  11  -4    5.80    1.00 
 -11  -5   4    5.80    1.20 
  -5  11   4    6.50    1.10 
  11   5   4    6.80    1.40 
   5 -11   4    4.30    1.70 
 -11  -5   4    6.90    1.20 
 -11  -4  -4  120.89   12.20 
  -4  11  -4  122.49   11.90 
  11   4   4  113.39   12.20 
 -11  -4   4  112.39   12.00 
 -11  -4   4  108.89   12.00 
  -4  11   4  127.89   12.00 
   4 -11   4  106.89   12.40 
  -3  11  -4   34.70    4.00 
   3 -11  -4   36.80    4.70 
 -11  -3  -4   40.10    4.50 
  11   3   4   38.80    4.40 
  -3  11   4   40.50    4.20 
 -11  -3   4   37.70    4.30 
 -11  -3   4   51.09    4.80 
   2 -11  -4   63.29    7.30 
 -11  -2  -4   64.39    7.10 
  -2  11   4   71.09    6.90 
 -11  -2   4   65.19    7.00 
  11   2   4   66.89    7.10 
 -11  -2   4   62.29    7.00 
 -11  -1  -4   19.70    2.60 
   1 -11  -4   21.20    3.10 
  11   1  -4   21.00    2.20 
  -1  11   4   19.40    2.30 
  11   1   4   18.90    2.60 
 -11  -1   4   20.50    2.40 
 -11  -1   4   19.30    2.40 
  11   0  -4   22.70    2.60 
 -11   0  -4   27.40    3.10 
   0 -11  -4   23.60    3.40 
  11   0   4   25.50    3.10 
 -11   0   4   25.60    2.90 
   0  11   4   26.60    2.80 
 -11   0   4   20.10    3.20 
  11  -1  -4   21.50    2.30 
 -11   1  -4   20.00    2.70 
  -1 -11  -4   20.70    2.60 
  -1 -11  -4   20.50    3.10 
   1  11   4   20.20    2.40 
 -11   1   4   20.50    2.50 
  -2 -11  -4   69.19    7.20 
 -11   2  -4   63.09    7.20 
  11  -2  -4   66.89    7.00 
  -2 -11  -4   67.69    7.50 
   2  11   4   67.19    7.00 
 -11   2   4   70.19    7.10 
  -3 -11  -4   36.00    4.60 
 -11   3  -4   37.50    4.60 
  11  -3  -4   44.10    4.40 
  -3 -11  -4   39.90    5.00 
  11  -3   4   44.20    4.20 
 -11   3   4   42.80    4.60 
  11  -3   4   42.50    4.20 
   3  11   4   36.40    4.40 
 -11   4  -4  114.69   12.30 
  -4 -11  -4  110.49   12.50 
  -4 -11  -4  128.39   12.40 
  11  -4  -4  107.19   12.10 
   4  11   4  131.69   12.20 
 -11   4   4  117.19   12.30 
  11  -4   4  117.69   12.00 
  -5 -11  -4    6.20    1.40 
 -11   5  -4    5.40    1.30 
  -5 -11  -4    3.90    1.70 
  11  -5  -4    7.30    1.10 
   5  11   4    7.00    1.10 
  11  -5   4    8.10    1.10 
 -11   5   4    6.10    1.50 
  -6 -11  -4    7.80    1.50 
 -11   6  -4    5.70    1.40 
  11  -6  -4    7.10    1.10 
 -11   6   4    7.70    1.60 
   6  11   4    6.70    1.10 
  11  -6   4    7.30    1.20 
  -6 -11   4    6.20    0.80 
  -7 -11  -4    3.90    1.10 
  11  -7  -4    1.30    0.70 
  -7 -11  -4    4.00    1.50 
 -11   7  -4    1.30    1.10 
 -11   7   4    1.20    1.10 
  11  -7   4    2.20    0.90 
   7  11   4    2.60    0.70 
  -7 -11   4    1.70    0.50 
  -8 -11  -4   36.30    4.50 
  -8 -11  -4   42.80    4.40 
  11  -8  -4   32.90    4.20 
 -11   8  -4   36.50    4.40 
  11  -8   4   37.80    4.30 
   8  11   4   40.10    4.40 
 -11   8   4   36.40    4.60 
  -8 -11   4   44.50    4.40 
  -8 -11   4   39.80    4.10 
  -9 -11  -4    1.40    1.10 
 -11   9  -4    2.10    1.10 
  -9 -11  -4    0.30    1.00 
  -9 -11   4   -0.30    0.80 
   9  11   4    1.70    0.70 
 -11   9   4    1.60    1.30 
  -9 -11   4    1.30    0.70 
 -10 -11  -4   15.90    2.60 
 -11  10  -4   20.30    2.60 
 -10 -11  -4   20.30    2.60 
  11 -10   4   18.10    2.70 
 -10 -11   4   19.60    2.50 
 -10 -11   4   19.10    2.30 
 -11 -11  -4    1.00    1.00 
 -11  11  -4    2.50    1.60 
 -11 -11   4    0.60    0.90 
 -11 -11   4    2.10    0.80 
 -12 -11  -4    5.20    1.30 
 -12 -11  -4    5.60    1.40 
 -11  12  -4    4.70    1.40 
 -12 -11   4    7.00    1.20 
 -12 -11   4    6.50    1.40 
 -12 -10  -4    2.10    1.10 
 -12 -10  -4    6.50    1.50 
 -10  12  -4    6.60    1.40 
 -12 -10   4    5.50    1.20 
 -12 -10   4    5.70    1.10 
 -12  -9  -4   12.50    1.90 
 -12  -9  -4   13.40    2.20 
  -9  12  -4   14.80    2.00 
 -12  -9   4   13.70    2.00 
 -12  -9   4   11.80    1.70 
 -12  -8  -4  130.49   11.90 
 -12  -8  -4  112.19   11.40 
  -8  12  -4  127.19   11.60 
 -12  -8  -4   95.99   11.40 
 -12  -8   4  109.39   11.50 
 -12  -8   4  101.19   11.60 
 -12  -7  -4   21.00    2.20 
 -12  -7  -4   22.00    2.20 
  -7  12  -4   16.50    2.50 
 -12  -7   4   20.40    2.50 
 -12  -7   4   26.00    2.70 
  -7  12   4   18.10    2.50 
  -6  12  -4   19.90    2.50 
 -12  -6  -4   24.10    3.10 
  -6  12   4   22.60    2.60 
 -12  -6   4   20.50    2.60 
 -12  -6   4   25.30    2.70 
 -12  -5  -4   10.20    1.70 
  -5  12  -4    8.20    1.10 
 -12  -5   4    6.20    1.20 
 -12  -5   4    5.70    1.20 
 -12  -4  -4  278.97   25.80 
  -4  12  -4  247.08   25.50 
 -12  -4   4  275.67   25.70 
  -4  12   4  237.78   25.60 
 -12  -4   4  222.28   25.60 
  -3  12  -4    5.70    0.70 
  -3  12  -4    6.30    0.80 
 -12  -3  -4    5.20    1.30 
  -3  12   4    6.40    1.10 
 -12  -3   4    4.00    1.00 
 -12  -3   4    5.20    1.10 
 -12  -2  -4   21.60    2.70 
  -2  12   4   18.70    2.40 
 -12  -2   4   16.00    2.90 
 -12  -2   4   24.70    2.60 
  12   1  -4   81.79    8.20 
 -12  -1  -4   83.39    8.50 
  -1  12   4   78.89    8.30 
 -12  -1   4   74.19    8.40 
 -12   0  -4  810.72   77.39 
  12   0  -4  726.43   77.09 
   0  12   4  747.53   77.19 
 -12   0   4  710.63   77.19 
 -12   0   4  827.32   77.29 
  12  -1  -4   79.59    8.00 
 -12   1  -4   74.99    8.30 
 -12   1   4   75.89    8.20 
 -12   1   4   83.09    8.20 
   1  12   4   75.39    8.10 
  -2 -12  -4   17.20    2.30 
  12  -2  -4   16.30    2.00 
 -12   2  -4   21.00    2.40 
  -2 -12  -4   11.10    2.80 
 -12   2   4   20.90    2.30 
   2  12   4   17.90    2.10 
 -12   2   4   14.10    2.20 
  -3 -12  -4    6.90    1.80 
 -12   3  -4    5.90    1.50 
  12  -3  -4    6.00    1.00 
  -3 -12  -4    7.20    1.40 
 -12   3   4    6.50    1.30 
   3  12   4    6.60    1.10 
  -4 -12  -4  260.87   25.30 
 -12   4  -4  272.77   25.40 
  12  -4  -4  231.68   25.10 
  12  -4   4  231.08   25.00 
   4  12   4  266.47   25.10 
 -12   4   4  224.98   25.30 
  -5 -12  -4    8.20    1.50 
  -5 -12  -4    8.80    1.80 
  12  -5  -4    7.10    1.20 
 -12   5  -4    6.80    1.50 
   5  12   4    7.30    1.20 
  12  -5   4    8.70    1.10 
 -12   5   4    9.00    1.70 
  12  -6  -4   22.40    2.70 
  -6 -12  -4   25.70    3.20 
  -6 -12  -4   27.30    3.00 
 -12   6  -4   29.80    4.20 
 -12   6   4   22.90    3.10 
  12  -6   4   23.80    2.70 
   6  12   4   21.20    2.70 
  12  -7  -4   19.80    2.50 
  -7 -12  -4   24.40    2.70 
  -7 -12  -4   20.20    3.00 
 -12   7  -4   26.00    4.00 
  12  -7   4   26.20    2.50 
 -12   7   4   24.80    3.00 
  -7 -12   4   19.00    2.20 
   7  12   4   18.30    2.50 
  12  -8  -4   89.89   11.40 
 -12   8  -4  122.89   11.70 
  -8 -12  -4  117.29   11.50 
   8  12   4  123.49   11.40 
 -12   8   4   96.19   11.70 
  -8 -12   4  119.79   11.20 
  12  -8   4  101.29   11.40 
  -9 -12  -4   13.80    2.00 
  -9 -12  -4    9.30    2.00 
 -12   9  -4   12.40    2.10 
  -9 -12   4   13.20    1.60 
 -12   9   4   16.10    2.50 
   9  12   4   11.90    1.70 
  -9 -12   4   11.80    2.70 
 -10 -12  -4    4.10    1.20 
 -12  10  -4    4.60    1.30 
 -10 -12  -4    1.80    1.20 
 -10 -12   4    3.40    1.10 
  12 -10   4    6.10    1.40 
 -10 -12   4    5.00    0.90 
 -11 -12  -4    6.20    1.40 
 -11 -12  -4    4.20    1.30 
 -12  11  -4    5.40    1.40 
 -11 -12   4    4.10    1.00 
 -11 -12   4    4.60    1.20 
 -12 -12  -4  117.49   11.90 
 -12  12  -4  111.39   12.00 
 -12 -12   4  117.49   11.70 
 -12 -12   4  106.39   11.90 
 -12  13  -4    7.00    1.60 
 -13 -12  -4    8.80    2.00 
 -13 -12   4   11.60    1.60 
 -13 -12   4    7.30    1.50 
 -11  13  -4    0.90    0.90 
 -13 -11  -4    1.00    1.10 
 -13 -11  -4   -0.20    0.80 
 -13 -11   4   -0.10    0.80 
 -13 -11   4    0.30    0.80 
 -13 -10  -4    2.30    0.90 
 -13 -10  -4    1.10    1.20 
 -10  13  -4    1.80    0.90 
 -13 -10  -4    2.10    0.80 
 -13 -10   4    1.70    1.00 
 -13 -10   4    2.50    0.90 
 -13  -9  -4   -0.90    1.10 
 -13  -9  -4    0.20    0.50 
  -9  13  -4   -0.20    0.70 
 -13  -9  -4    0.00    0.60 
 -13  -9   4    0.50    0.90 
 -13  -9   4    0.90    0.70 
  -8  13  -4   15.00    2.00 
 -13  -8  -4   17.30    2.40 
 -13  -8   4   14.50    2.10 
 -13  -8   4   12.40    1.90 
  -7  13  -4    7.90    1.30 
 -13  -7  -4   11.20    1.80 
 -13  -7   4    7.90    1.40 
 -13  -7   4    8.20    1.40 
  -6  13  -4   17.10    2.10 
 -13  -6  -4   19.70    2.50 
 -13  -6   4   20.50    2.40 
 -13  -6   4   16.30    2.20 
  -5  13  -4    4.30    0.90 
 -13  -5  -4    4.10    1.30 
 -13  -5   4    6.40    1.10 
 -13  -5   4    6.40    1.10 
  -5  13   4    4.80    1.00 
  -4  13  -4   11.70    1.40 
 -13  -4  -4   13.20    2.10 
  -4  13  -4   10.90    1.30 
  -4  13   4   13.20    1.80 
 -13  -4   4   10.70    1.70 
 -13  -4   4   12.40    1.70 
 -13  -3  -4    3.80    1.20 
  -3  13   4    3.40    0.90 
 -13  -3   4    6.90    1.10 
 -13  -3   4    3.30    1.00 
 -13  -2  -4    6.80    1.50 
  -2  13   4    7.30    1.10 
 -13  -2   4    5.30    1.10 
 -13  -2   4    4.80    1.20 
 -13  -1  -4   17.10    2.50 
  13   1  -4   18.60    2.00 
  -1  13   4   16.60    2.10 
 -13  -1   4   17.30    2.60 
 -13  -1   4   18.60    2.30 
  13   0  -4   63.89    6.60 
 -13   0  -4   66.69    7.00 
 -13   0   4   60.19    6.70 
   0  13   4   66.29    6.70 
 -13   0   4   60.79    7.30 
 -13   1  -4   15.90    2.40 
  13  -1  -4   19.70    2.00 
 -13   1   4   15.50    2.30 
   1  13   4   17.00    2.20 
 -13   1   4   19.70    2.30 
  13  -2  -4    5.40    0.90 
 -13   2  -4    5.60    1.40 
  -2 -13  -4    6.50    1.30 
 -13   2   4    9.10    1.40 
   2  13   4    6.40    1.10 
 -13   2   4    3.60    1.10 
 -13   3  -4    3.50    1.30 
  -3 -13  -4    4.00    1.10 
  13  -3  -4    6.50    0.90 
 -13   3   4    5.80    1.30 
 -13   3   4    2.60    1.10 
   3  13   4    3.00    0.80 
  -4 -13  -4   14.90    2.00 
  13  -4  -4    9.90    1.50 
 -13   4  -4    8.60    1.80 
 -13   4   4   10.50    1.80 
  13  -4   4   11.80    1.30 
 -13   4   4   13.40    2.00 
   4  13   4   12.20    1.50 
  13  -4   4   11.50    1.30 
 -13   5  -4    5.40    1.40 
  -5 -13  -4    5.30    1.30 
  13  -5  -4    6.40    1.00 
  13  -5   4    6.60    0.90 
 -13   5   4    6.90    1.60 
   5  13   4    5.30    1.00 
 -13   5   4    3.90    1.10 
 -13   6  -4   17.00    2.80 
  -6 -13  -4   25.50    2.70 
  13  -6  -4   18.90    2.40 
 -13   6   4   22.70    2.90 
  13  -6   4   21.50    2.40 
   6  13   4   21.50    2.40 
 -13   7  -4    8.70    1.90 
  -7 -13  -4   10.80    1.70 
  13  -7  -4   11.30    1.60 
  13  -7   4    9.90    1.50 
 -13   7   4   10.40    2.00 
  -8 -13  -4   14.10    2.10 
 -13   8  -4   10.20    2.10 
 -13   8   4   13.00    2.40 
  13  -8   4   14.20    1.90 
   8  13   4   15.30    1.80 
 -13   9  -4    0.20    1.00 
  -9 -13  -4    0.80    0.90 
  -9 -13   4    0.10    0.40 
   9  13   4    0.10    0.60 
  -9 -13   4    0.90    0.90 
 -10 -13  -4    2.30    1.00 
 -13  10  -4    2.20    1.10 
 -10 -13   4    2.30    1.00 
  13 -10   4    1.70    1.00 
 -10 -13   4    1.20    0.70 
 -13  11  -4    1.50    1.20 
 -11 -13  -4    1.00    2.00 
 -11 -13  -4    0.70    1.00 
 -11 -13   4    0.50    0.80 
 -11 -13   4    0.70    0.60 
 -13  12  -4    7.70    1.90 
 -12 -13  -4    9.40    1.70 
 -12 -13   4    9.90    1.40 
 -12 -13   4   10.30    1.70 
 -13  12   4    7.80    1.70 
 -14 -11  -4    2.10    1.20 
 -11  14  -4    2.00    1.00 
 -14 -11   4    1.50    1.00 
 -14 -11   4    2.40    1.00 
 -14 -10  -4    2.50    0.80 
 -14 -10  -4    3.50    0.70 
 -14 -10  -4    6.40    1.50 
 -10  14  -4    4.70    1.20 
 -14 -10   4    5.40    1.80 
 -14 -10   4    3.70    1.10 
  -9  14  -4    0.30    0.70 
 -14  -9   4    1.90    1.00 
 -14  -9   4    1.10    0.90 
  -8  14  -4   51.79    5.70 
 -14  -8  -4   62.49    6.30 
 -14  -8   4   44.10    5.70 
 -14  -8   4   58.89    5.80 
 -14  -7  -4   16.40    2.30 
  -7  14  -4   11.80    1.70 
 -14  -7   4   12.00    1.90 
 -14  -7   4   12.90    1.80 
  -6  14  -4   72.19    6.90 
 -14  -6  -4   80.29    7.30 
  -6  14  -4   55.79    6.70 
 -14  -6   4   56.89    6.90 
 -14  -6   4   71.89    7.00 
 -14  -5  -4   27.40    3.10 
  -5  14  -4   20.40    2.50 
  -5  14  -4   22.10    2.50 
 -14  -5   4   22.50    2.80 
  -5  14   4   24.60    2.70 
 -14  -5   4   26.20    2.80 
  -4  14  -4   96.29   10.60 
  -4  14  -4  112.39   10.60 
 -14  -4  -4  119.59   11.10 
 -14  -4   4  114.09   10.90 
 -14  -4   4   87.69   10.80 
  -4  14   4  102.39   10.80 
 -14  -3  -4    4.90    1.40 
 -14  -3   4    6.00    1.20 
  -3  14   4    6.20    1.10 
 -14  -3   4    6.90    1.30 
 -14  -2  -4   14.80    2.30 
 -14  -2   4   17.20    2.10 
 -14  -2   4   21.10    2.30 
  -2  14   4   13.60    2.00 
 -14  -1  -4    7.90    1.50 
  -1  14   4    7.10    1.10 
 -14  -1   4    6.30    1.30 
 -14  -1   4    5.30    1.20 
 -14   0  -4   20.60    2.20 
  14   0  -4   13.90    1.70 
   0  14   4   12.20    1.80 
 -14   0   4   10.80    1.90 
 -14   0   4   17.00    2.10 
 -14   1  -4   10.30    1.70 
  14  -1  -4    6.70    1.00 
 -14   1   4    7.10    1.30 
   1  14   4    6.20    1.10 
 -14   1   4    5.60    1.30 
  14  -2  -4   13.00    1.60 
 -14   2  -4   14.80    2.10 
   2  14   4   12.00    1.70 
 -14   2   4   14.60    2.00 
 -14   2   4   12.20    2.00 
 -14   3  -4    5.40    1.40 
  14  -3  -4    6.10    1.00 
  -3 -14  -4    6.80    1.30 
   3  14   4    6.20    1.00 
 -14   3   4    5.10    1.40 
 -14   3   4    6.60    1.40 
 -14   4  -4  118.99   11.40 
  14  -4  -4   99.09   11.10 
  -4 -14  -4  117.79   11.20 
 -14   4   4   90.89   11.30 
   4  14   4  115.99   11.10 
 -14   4   4  104.89   11.30 
  14  -5  -4   27.40    3.10 
 -14   5  -4   23.30    3.30 
  -5 -14  -4   27.70    3.30 
   5  14   4   23.20    3.00 
 -14   5   4   29.70    3.50 
  14  -5   4   30.70    2.90 
  -6 -14  -4   68.59    7.00 
 -14   6  -4   74.59    7.30 
  14  -6  -4   59.09    6.90 
   6  14   4   72.29    6.90 
  14  -6   4   66.59    6.90 
 -14   6   4   52.79    7.20 
  -7 -14  -4   13.90    2.00 
  14  -7  -4   12.50    1.80 
 -14   7   4   14.70    2.40 
  14  -7   4   13.90    1.70 
 -14   7   4    9.00    1.90 
   7  14   4   12.70    1.70 
 -14   8  -4   52.39    6.50 
  -8 -14  -4   56.99    5.90 
   8  14   4   55.49    5.70 
 -14   8   4   51.69    5.90 
  14  -8   4   51.89    5.70 
  -9 -14  -4    0.10    0.80 
 -14   9  -4    2.50    1.20 
 -14   9   4    0.80    0.90 
  -9 -14   4    0.60    0.90 
 -14  10  -4    5.40    1.50 
  14 -10   4    2.60    1.10 
 -10 -14   4    3.90    0.60 
 -14  10   4    4.10    1.20 
 -14  11  -4    2.50    1.30 
 -11 -14  -4    2.40    1.00 
 -11 -14   4    2.20    1.20 
 -14  11   4    2.20    1.10 
 -10  15  -4    0.00    0.70 
 -15 -10  -4    0.70    1.20 
 -15 -10   4    0.70    0.80 
 -15 -10   4    0.20    0.90 
 -15  -9  -4    0.10    1.10 
  -9  15  -4    0.00    0.70 
 -15  -9   4    0.90    0.80 
 -15  -9   4   -0.20    0.70 
  -8  15  -4    0.20    0.60 
 -15  -8  -4    1.40    1.10 
 -15  -8   4    0.50    0.70 
 -15  -8   4   -0.30    0.70 
 -15  -7  -4    0.50    1.00 
  -7  15  -4   -0.60    0.50 
  -7  15  -4    0.50    0.40 
 -15  -7   4    0.40    0.70 
 -15  -7   4   -0.90    0.70 
  -6  15  -4    5.10    0.80 
 -15  -6  -4    8.50    1.60 
 -15  -6   4    5.50    1.20 
 -15  -6   4    4.50    1.10 
  -5  15  -4    0.10    0.30 
 -15  -5  -4    0.20    1.00 
  -5  15  -4    0.30    0.40 
 -15  -5   4    0.50    0.80 
  -5  15   4    0.10    0.70 
 -15  -5   4   -0.20    0.70 
 -15  -4  -4    4.50    1.40 
 -15  -4   4    3.80    1.00 
  -4  15   4    4.00    0.90 
 -15  -4   4    4.90    1.00 
 -15  -3  -4    0.20    1.10 
 -15  -3   4    1.20    0.90 
  -3  15   4    0.70    0.70 
 -15  -3   4    1.60    0.80 
 -15  -2  -4    4.20    1.50 
 -15  -2   4    1.90    0.90 
  -2  15   4    3.60    0.80 
 -15  -2   4    3.00    1.00 
 -15  -1  -4    1.30    1.30 
 -15  -1   4    0.90    0.80 
 -15  -1   4    1.00    0.80 
  -1  15   4    2.30    0.70 
 -15   0  -4    4.10    1.70 
 -15   0   4    4.60    1.10 
   0  15   4    3.80    0.90 
 -15   0   4    5.60    1.20 
 -15   1  -4    1.60    1.20 
  15  -1  -4    0.50    0.50 
   1  15   4    2.00    0.70 
 -15   1   4    0.60    0.90 
  15  -2  -4    3.60    0.70 
 -15   2  -4    1.60    1.00 
 -15   2   4    3.00    1.20 
 -15   2   4    2.50    1.00 
   2  15   4    3.50    0.80 
 -15   3  -4    1.00    1.10 
  15  -3  -4    0.90    0.50 
 -15   3   4    0.40    1.00 
 -15   3   4    0.20    0.70 
   3  15   4    1.10    0.60 
  15  -4  -4    3.90    0.80 
 -15   4  -4    3.20    1.30 
  -4 -15  -4    4.90    1.10 
 -15   4   4    2.50    1.00 
   4  15   4    2.80    0.70 
 -15   4   4    5.30    1.40 
  -5 -15  -4    0.30    0.70 
 -15   5  -4    0.10    0.90 
   5  15   4    0.20    0.50 
 -15   5   4    0.50    0.90 
 -15   5   4    0.10    1.10 
  15  -6  -4    5.70    1.10 
 -15   6  -4    7.70    1.80 
  -6 -15  -4    8.30    1.40 
  15  -6   4    6.30    1.00 
 -15   6   4    6.70    1.50 
 -15   6   4    6.20    1.70 
 -15   7  -4    0.90    1.00 
  -7 -15  -4    0.10    0.80 
  15  -7   4    0.00    0.60 
   7  15   4   -1.00    0.50 
 -15   7   4    0.40    0.90 
 -15   8  -4    1.40    1.10 
  -8 -15  -4    0.80    0.80 
  15  -8   4    0.50    0.70 
 -15   8   4   -0.30    0.70 
   8  15   4   -0.30    0.50 
 -15   9  -4    2.20    1.20 
  -9 -15  -4    0.60    0.80 
  -9 -15   4   -1.20    0.70 
 -10 -15  -4    2.00    0.90 
 -15  10  -4    0.60    1.10 
 -10 -15   4    1.20    0.90 
 -15  10   4    0.50    0.90 
 -16  -8  -4    6.70    1.60 
  -8  16  -4    4.40    0.90 
 -16  -8   4    3.90    1.00 
 -16  -8   4    5.40    1.20 
  -7  16  -4    1.20    0.50 
  -7  16  -4    0.60    0.50 
 -16  -7  -4    3.50    1.40 
 -16  -7   4    0.10    0.70 
 -16  -7   4    0.40    0.70 
  -6  16  -4    1.70    0.50 
 -16  -6  -4    2.40    1.20 
 -16  -6   4    3.10    0.80 
 -16  -6   4    1.50    0.90 
  -5  16  -4    3.50    0.50 
  -5  16  -4    3.30    0.50 
 -16  -5  -4    3.70    1.30 
 -16  -5   4    4.80    1.10 
 -16  -5   4    3.10    0.90 
 -16  -4  -4    6.90    1.60 
  -4  16   4    6.30    1.20 
 -16  -4   4    7.40    1.40 
 -16  -3  -4    3.20    1.20 
  -3  16   4    2.00    0.80 
 -16  -3   4    3.80    1.10 
 -16  -2  -4   42.90    5.00 
 -16  -2   4   39.40    4.80 
  -2  16   4   46.50    4.70 
 -16  -1  -4   11.00    2.00 
 -16  -1   4    9.00    1.80 
  -1  16   4   12.70    1.60 
 -16   0  -4   89.59    8.30 
   0  16   4   77.69    7.80 
 -16   0   4   64.19    7.80 
 -16   0   4   71.49    8.00 
 -16   1  -4    9.20    1.90 
  16  -1  -4   12.30    1.50 
   1  16   4   11.80    1.60 
 -16   1   4   10.40    1.90 
 -16   1   4   12.50    1.90 
  16  -2  -4   43.50    4.30 
 -16   2  -4   45.60    4.90 
 -16   2   4   31.10    4.50 
   2  16   4   42.30    4.30 
 -16   2   4   40.40    4.70 
 -16   3  -4    5.80    1.50 
  16  -3  -4    2.30    0.70 
 -16   3   4    2.60    1.10 
   3  16   4    2.60    0.70 
 -16   3   4    5.50    1.30 
 -16   4  -4    5.50    1.60 
  16  -4  -4    7.00    1.10 
 -16   4   4    4.10    1.30 
   4  16   4    7.20    1.00 
 -16   4   4    7.10    1.50 
  -5 -16  -4    5.10    1.00 
 -16   5  -4    3.30    1.30 
  16  -5  -4    4.70    1.10 
 -16   5   4    3.30    1.10 
 -16   5   4    3.80    1.30 
   5  16   4    3.70    0.80 
  16  -6  -4    1.80    0.80 
 -16   6  -4    4.20    1.40 
  -6 -16  -4    2.00    0.80 
 -16   6   4    3.60    1.50 
   6  16   4    1.60    0.80 
  16  -6   4    1.80    0.50 
  16  -6   4    2.20    0.50 
 -16   7  -4    1.50    1.20 
  -7 -16  -4    1.90    0.80 
   7  16   4    1.00    0.60 
 -16   7   4    1.90    1.10 
 -16   8  -4    3.60    1.70 
  -8 -16  -4    4.40    1.10 
 -16   8   4    6.10    1.40 
  -6  17  -4    3.80    0.60 
 -17  -6  -4    3.90    1.50 
 -17  -6   4    2.20    0.80 
 -17  -6   4    4.70    1.10 
 -17  -5   4    1.40    0.90 
 -17  -4   4    3.60    1.10 
 -17  -3  -4    5.60    2.10 
 -17  -3   4    4.30    1.20 
  -3  17   4    3.20    0.90 
 -17  -3   4    4.20    1.10 
 -17  -2  -4   13.50    2.40 
  -2  17   4   11.40    1.60 
 -17  -2   4    8.40    1.60 
 -17  -2   4   10.30    1.80 
 -17  -1  -4    1.10    1.10 
 -17  -1   4   -0.10    0.80 
 -17   0  -4    1.70    1.30 
 -17   0   4    1.00    1.00 
   0  17   4    1.40    0.70 
 -17   1  -4    2.40    1.30 
 -17   1   4    1.60    0.90 
   1  17   4    0.60    0.60 
 -17   1   4    1.20    1.00 
 -17   2  -4    9.50    3.00 
  17  -2  -4   12.40    1.50 
 -17   2   4   11.60    2.10 
 -17   2   4   10.30    1.80 
   2  17   4   12.40    1.50 
  17  -3  -4    4.80    0.80 
 -17   3   4    2.60    1.10 
   3  17   4    2.30    0.70 
 -17   3   4    2.00    1.70 
  17  -4  -4    5.60    0.90 
 -17   4  -4    5.00    1.60 
 -17   4   4    3.70    1.20 
   4  17   4    5.10    0.90 
 -17   4   4    3.10    1.20 
 -17   5  -4    0.30    1.10 
 -17   5   4    0.90    0.90 
 -17   6  -4    3.20    1.50 
 -17   6   4    3.10    1.20 
 -18  -1  -4    1.40    1.20 
 -18  -1   4    1.00    0.70 
 -18  -1   4    0.50    0.90 
 -18   0  -4    6.10    1.50 
 -18   0   4    7.10    1.40 
 -18   0   4    5.30    1.20 
 -18   1  -4    0.70    1.00 
 -18   1   4   -0.40    0.80 
   0   0  -5   -0.80    0.30 
   0   0  -5   -0.30    0.30 
   0   0   5    0.20    0.30 
   0   0   5    0.10    0.40 
   0   1  -5    0.10    0.30 
  -1   0  -5   -0.10    0.40 
   0   1  -5   -0.20    0.30 
   1   0  -5    0.10    0.30 
  -1   0  -5   -0.30    0.20 
   0  -1  -5    0.20    0.30 
   0  -1  -5   -0.20    0.30 
   1   0  -5    0.00    0.30 
   1   0   5    0.10    0.40 
   0  -1   5    0.10    0.30 
   0   1   5   -0.10    0.30 
  -1   0   5   -0.30    0.30 
   1   0   5    0.80    0.30 
   0  -1   5    0.20    0.40 
  -1   0   5    0.50    0.40 
   0   1   5   -0.20    0.30 
  -1  -1  -5    1.80    0.40 
  -1  -1  -5    0.90    0.40 
   1  -1  -5    1.20    0.40 
  -1   1  -5    1.80    0.40 
   1   1  -5    1.40    0.40 
   1   1  -5    1.40    0.30 
   1  -1   5    1.90    0.40 
   1   1   5    2.80    0.50 
  -1   1   5    0.80    0.40 
   1  -1   5    1.60    0.50 
   1   1   5    1.30    0.40 
  -1  -1   5    1.70    0.40 
   1  -2  -5   23.30    2.30 
   1  -2  -5   23.40    2.40 
  -2  -1  -5   20.00    2.40 
  -1   2  -5   21.70    2.30 
   2   1  -5   22.00    2.30 
  -2  -1  -5   22.70    2.30 
  -1   2   5   23.10    2.30 
   1  -2   5   23.00    2.30 
   2   1   5   20.10    2.40 
  -1   2   5   21.20    2.30 
  -2  -1   5   20.30    2.30 
  -2  -1   5   20.20    2.30 
   2   1   5   21.60    2.30 
   1  -2   5   18.60    2.40 
   0  -2  -5    6.10    0.90 
   0  -2  -5    5.60    0.80 
   0   2  -5    4.90    0.80 
   2   0  -5    6.90    0.80 
  -2   0  -5    5.50    0.90 
  -2   0  -5    7.10    0.80 
   0   2  -5    5.80    0.80 
   2   0   5    5.70    1.00 
   0   2   5    5.50    0.80 
   0  -2   5    5.70    0.90 
   0  -2   5    6.40    0.80 
   0   2   5    6.20    0.80 
   2   0   5    7.10    0.80 
  -2   0   5    6.10    0.80 
  -2   0   5    6.30    0.80 
  -1  -2  -5   23.50    2.30 
  -2   1  -5   19.10    2.40 
  -2   1  -5   20.10    2.30 
   1   2  -5   20.70    2.30 
   2  -1  -5   20.80    2.30 
  -1  -2  -5   20.90    2.40 
   1   2  -5   22.40    2.30 
  -1  -2   5   22.70    2.30 
   1   2   5   22.40    2.40 
  -2   1   5   21.20    2.30 
   1   2   5   23.10    2.30 
  -2   1   5   20.30    2.30 
  -1  -2   5   23.60    2.30 
   2  -1   5   21.70    2.30 
   2  -1   5   19.40    2.40 
  -2  -2  -5   37.00    3.60 
  -2  -2  -5   28.60    3.70 
  -2   2  -5   27.80    3.60 
   2   2  -5   34.70    3.60 
   2  -2  -5   35.00    3.60 
   2  -2  -5   33.40    3.60 
  -2   2   5   40.50    3.60 
  -2   2   5   32.60    3.60 
  -2  -2   5   32.60    3.60 
   2   2   5   30.40    3.70 
   2   2   5   38.50    3.60 
  -2  -2   5   36.80    3.60 
   2  -2   5   35.30    3.60 
  -3  -2  -5    8.30    1.00 
  -3  -2  -5    7.90    1.40 
  -2   3  -5    7.90    1.10 
   2  -3  -5   10.30    1.20 
   3   2  -5    8.70    1.00 
   3   2   5    6.00    1.20 
   3   2   5    9.30    1.00 
  -2   3   5   10.10    1.10 
  -3  -2   5    9.60    1.10 
  -2   3   5    7.80    1.10 
   2  -3   5    7.40    1.10 
  -3  -2   5    9.40    1.10 
   2  -3   5    8.90    1.10 
  -3  -1  -5  141.69   14.20 
   1  -3  -5  141.29   14.30 
   1  -3  -5  121.99   14.20 
  -3  -1  -5  154.38   14.40 
  -1   3  -5  147.29   14.20 
   3   1  -5  133.29   14.20 
  -1   3   5  126.19   14.20 
   3   1   5  127.19   14.20 
  -3  -1   5  134.19   14.20 
   1  -3   5  139.99   14.20 
  -3  -1   5  143.39   14.20 
   3   1   5  155.38   14.30 
   1  -3   5  154.68   14.30 
  -1   3   5  141.59   14.20 
  -3   0  -5    0.60    0.50 
   0  -3  -5   -0.70    0.30 
   3   0  -5    0.20    0.30 
   0   3  -5    0.20    0.20 
  -3   0  -5    0.50    0.20 
   0  -3  -5    0.80    0.40 
   3   0   5   -0.20    0.40 
  -3   0   5   -0.20    0.30 
   3   0   5    0.60    0.20 
   0   3   5    0.20    0.40 
  -3   0   5    0.30    0.30 
   0   3   5    0.00    0.30 
   0  -3   5    0.60    0.30 
   0  -3   5   -0.20    0.40 
  -3   1  -5  153.48   14.20 
   1   3  -5  135.49   14.00 
  -1  -3  -5  149.59   14.10 
  -1  -3  -5  118.69   14.00 
  -3   1  -5  135.39   14.00 
  -3   1   5  129.79   14.00 
   1   3   5  124.79   14.00 
   1   3   5  150.58   14.10 
  -3   1   5  139.79   14.00 
   3  -1   5  133.19   14.00 
  -1  -3   5  135.09   14.00 
  -1  -3   5  153.38   14.00 
  -2  -3  -5    7.30    1.20 
  -2  -3  -5    9.40    1.00 
   3  -2  -5    9.40    1.00 
  -3   2  -5    6.00    1.10 
  -3   2   5    7.30    1.10 
  -2  -3   5    9.00    1.10 
   2   3   5    7.30    1.10 
  -3   2   5   10.10    1.10 
  -2  -3   5    8.50    1.00 
   2   3   5   10.70    1.00 
   3  -2   5    8.10    1.00 
   3  -2   5    5.90    1.10 
  -3   3  -5    7.60    1.30 
  -3  -3  -5   11.50    1.20 
   3  -3  -5    9.00    1.20 
  -3  -3  -5   11.50    1.50 
   3  -3   5   11.00    1.20 
  -3  -3   5    9.90    1.20 
  -3  -3   5   10.00    1.20 
   3   3   5    8.10    1.30 
  -3   3   5    9.60    1.20 
   3   3   5    9.70    1.20 
   3  -3   5    9.20    1.20 
  -3   3   5   10.60    1.20 
  -4  -3  -5   73.19    8.10 
   4   3  -5   76.09    7.90 
  -3   4  -5   70.49    7.90 
   3  -4  -5   78.79    7.90 
  -4  -3  -5   76.69    7.90 
  -4  -3   5   79.09    7.90 
  -3   4   5   80.49    7.90 
   3  -4   5   73.89    7.90 
   4   3   5   80.89    7.80 
  -3   4   5   83.19    7.90 
   4   3   5   70.49    8.00 
   2  -4  -5    8.00    1.10 
  -2   4  -5    6.80    1.10 
  -4  -2  -5    6.80    1.30 
  -4  -2  -5    8.60    1.00 
  -2   4   5    6.70    1.10 
  -2   4   5    8.70    1.10 
   4   2   5    9.20    1.00 
  -4  -2   5    9.00    1.10 
   4   2   5    6.00    1.20 
   1  -4  -5    4.00    0.80 
  -4  -1  -5    5.30    0.60 
   4   1  -5    4.70    0.70 
  -1   4  -5    4.00    0.60 
   1  -4  -5    3.50    0.70 
  -4  -1  -5    5.00    1.00 
  -1   4   5    5.20    1.20 
   4   1   5    4.30    0.60 
  -1   4   5    4.40    0.70 
   1  -4   5    4.50    0.70 
   4   1   5    4.60    0.90 
   1  -4   5    4.40    0.70 
  -4  -1   5    4.80    0.70 
   0  -4  -5    8.10    1.10 
  -4   0  -5    8.30    1.00 
   0   4  -5    7.40    0.90 
  -4   0  -5    6.30    1.20 
   0  -4  -5    9.00    1.20 
   4   0  -5    8.80    1.00 
   0  -4   5    8.50    1.10 
   4   0   5    9.40    0.90 
  -4   0   5    9.50    1.10 
   0   4   5    8.00    1.10 
   0  -4   5    6.20    1.00 
   0   4   5    8.10    1.20 
  -4   1  -5    3.10    0.80 
  -1  -4  -5    7.20    1.00 
   4  -1  -5    4.50    0.60 
  -1  -4  -5    4.30    0.70 
   1   4  -5    4.10    0.60 
   4  -1   5    4.60    0.60 
   1   4   5    4.60    0.70 
  -4   1   5    4.70    0.70 
   1   4   5    4.10    1.20 
   4  -1   5    2.20    0.80 
  -1  -4   5    4.30    0.70 
  -1  -4   5    5.00    0.70 
  -4   2  -5    8.40    1.20 
   4  -2  -5    7.70    1.00 
  -2  -4  -5    6.80    1.30 
  -2  -4  -5    8.40    1.10 
   2   4   5    6.20    1.10 
  -4   2   5   10.40    1.10 
   2   4   5    8.80    1.00 
   4  -2   5    7.90    0.90 
  -4   2   5   10.20    1.10 
  -2  -4   5    7.60    1.00 
  -2  -4   5    7.00    1.00 
   4  -2   5    4.80    1.10 
  -3  -4  -5   79.29    8.00 
  -3  -4  -5   75.69    8.20 
  -4   3  -5   75.69    8.10 
   4  -3  -5   79.09    8.00 
  -3  -4   5   80.79    8.00 
  -3  -4   5   80.39    8.00 
   3   4   5   76.39    8.10 
  -4   3   5   76.49    8.00 
   4  -3   5   75.79    7.90 
   4  -3   5   71.79    8.00 
   3   4   5   83.99    8.00 
  -4   3   5   76.49    8.00 
   4  -4  -5    4.30    0.80 
  -4   4  -5    3.80    0.90 
  -4  -4  -5    4.20    0.70 
   4   4   5    2.70    0.80 
   4   4   5    6.00    0.80 
  -4  -4   5    4.30    0.80 
   4  -4   5    4.10    0.70 
  -4   4   5    4.70    0.80 
  -5  -4  -5    3.10    1.10 
  -5  -4  -5    3.50    0.60 
   4  -5  -5    2.40    0.70 
  -4   5  -5    3.00    0.70 
  -4   5   5    2.40    0.70 
  -4   5   5    2.30    0.70 
   5   4   5    2.80    0.60 
   5   4   5    3.80    0.80 
   4  -5   5    1.60    0.60 
   3  -5  -5   59.19    6.90 
  -5  -3  -5   76.29    7.10 
  -5  -3  -5   59.09    6.80 
   5   3  -5   68.19    6.80 
  -3   5  -5   77.99    6.90 
   5   3   5   58.69    6.80 
  -3   5   5   68.29    6.90 
  -5  -3   5   64.59    6.90 
  -3   5   5   62.39    6.90 
   5   3   5   78.09    7.00 
  -5  -2  -5    4.80    0.70 
  -2   5  -5    4.40    0.80 
   5   2  -5    5.90    0.80 
   2  -5  -5    7.40    1.00 
  -5  -2  -5    6.50    1.80 
  -2   5   5    5.40    1.00 
   5   2   5    3.70    0.90 
   5   2   5    6.30    0.70 
   2  -5   5    4.30    0.70 
  -5  -2   5    5.30    0.80 
  -2   5   5    6.50    0.90 
  -1   5  -5   19.10    2.10 
  -5  -1  -5   19.60    2.40 
  -5  -1  -5   19.30    2.10 
   1  -5  -5   18.90    2.20 
   1  -5  -5   17.20    2.20 
  -1   5   5   21.50    2.20 
   5   1   5   19.70    2.00 
  -1   5   5   19.80    2.20 
   5   1   5   20.30    2.30 
  -5  -1   5   19.90    2.10 
   0  -5  -5    0.10    0.40 
   0  -5  -5    0.30    0.50 
  -5   0  -5    0.10    0.50 
   0   5  -5   -0.10    0.20 
   0   5   5    0.20    0.40 
   0  -5   5    0.00    0.30 
  -5   0   5   -0.20    0.30 
   5   0   5    0.20    0.20 
   0   5   5    0.30    0.40 
   5   0   5    1.00    0.50 
   5  -1  -5   19.80    2.10 
  -1  -5  -5   16.40    2.10 
  -1  -5  -5   20.40    2.20 
  -5   1  -5   19.30    2.20 
  -1  -5   5   20.00    2.20 
  -1  -5   5   18.90    2.00 
  -5   1   5   16.80    2.10 
   5  -1   5   21.20    2.30 
   5  -1   5   18.00    2.00 
   1   5   5   18.40    2.10 
   1   5   5   19.20    2.10 
  -5   2  -5    4.60    1.00 
  -2  -5  -5    4.10    1.00 
   5  -2  -5    5.00    0.80 
   5  -2   5    3.90    0.80 
   2   5   5    6.70    0.90 
  -5   2   5    4.90    0.80 
  -2  -5   5    5.00    0.70 
   2   5   5    4.70    0.80 
   5  -2   5    4.80    0.70 
  -3  -5  -5   76.29    7.10 
   5  -3  -5   60.29    6.80 
  -3  -5  -5   57.29    6.90 
  -5   3   5   60.19    6.90 
   5  -3   5   69.29    6.80 
  -3  -5   5   70.69    6.80 
   3   5   5   62.09    6.90 
  -3  -5   5   69.89    7.00 
   3   5   5   75.89    7.00 
  -5   4  -5    2.00    0.70 
  -4  -5  -5    1.60    0.90 
  -4  -5  -5    1.70    0.70 
   5  -4  -5    1.90    0.60 
   4   5   5    2.20    0.60 
  -4  -5   5    2.00    0.70 
   5  -4   5    3.50    0.70 
   4   5   5    2.60    0.80 
  -5   4   5    2.40    0.60 
  -5  -5  -5    0.50    1.00 
   5  -5  -5   -0.10    0.50 
  -5  -5  -5    0.50    0.60 
  -5   5  -5    0.00    0.60 
  -5  -5   5   -0.30    0.60 
  -5   5   5    0.00    0.60 
  -5   5   5    0.90    0.50 
   5   5   5    0.10    0.80 
   5   5   5    1.10    0.70 
   5  -5   5   -0.10    0.40 
  -6  -5  -5   19.40    2.50 
  -5   6  -5   16.90    2.50 
   5  -6  -5   17.50    2.20 
  -6  -5  -5   17.80    2.10 
   6   5   5   16.30    2.20 
  -5   6   5   19.30    2.20 
  -5   6   5   20.20    2.20 
   6   5   5   22.00    2.20 
  -6  -5   5   17.30    2.20 
  -6  -4  -5   27.50    2.70 
  -6  -4  -5   23.80    3.10 
   4  -6  -5   24.50    2.80 
   6   4   5   31.30    2.80 
  -4   6   5   25.90    2.80 
  -4   6   5   26.50    2.80 
   4  -6   5   20.40    2.70 
  -6  -4   5   24.70    2.80 
   6   4   5   24.10    2.90 
  -3   6  -5   29.80    3.00 
   6   3  -5   27.30    2.90 
  -6  -3  -5   26.60    2.90 
  -6  -3  -5   28.10    3.30 
   3  -6  -5   24.90    3.00 
   6   3   5   27.90    3.10 
   6   3   5   25.70    2.90 
  -3   6   5   29.40    3.00 
   3  -6   5   32.20    2.90 
  -3   6   5   26.10    3.00 
  -6  -3   5   24.20    3.00 
  -2   6  -5    9.30    1.30 
  -6  -2  -5   10.60    1.20 
  -6  -2  -5   10.50    1.70 
   6   2  -5   10.70    1.30 
   2  -6  -5   13.70    1.50 
  -2   6   5   10.70    1.30 
   6   2   5    7.20    1.40 
  -2   6   5   13.40    1.40 
  -6  -2   5   12.20    1.40 
   6   2   5   12.30    1.20 
   2  -6   5    8.20    1.20 
  -6  -1  -5    6.70    1.20 
   1  -6  -5    5.90    1.10 
  -1   6  -5    6.50    0.80 
   1  -6  -5    6.80    1.10 
   6   1  -5    6.40    0.90 
  -6  -1  -5    7.40    0.80 
  -1   6   5    7.70    1.00 
   1  -6   5    5.30    0.80 
  -6  -1   5    7.40    1.00 
   6   1   5    6.50    0.80 
   6   1   5    5.60    1.10 
  -1   6   5    6.00    1.00 
  -6   0  -5    4.90    1.20 
   0  -6  -5    7.00    1.20 
   6   0  -5    7.80    1.00 
   0  -6  -5    5.20    1.20 
   0   6  -5    6.90    0.80 
  -6   0   5    8.30    1.10 
   6   0   5    7.10    0.80 
   0   6   5    6.60    1.00 
   0   6   5    7.30    1.10 
   6   0   5    6.00    1.20 
  -1  -6  -5    6.00    1.10 
  -6   1  -5    6.70    1.20 
  -1  -6  -5    7.60    1.30 
   6  -1  -5    6.50    0.90 
   6  -1   5    5.60    1.10 
   6  -1   5    6.80    0.80 
  -1  -6   5    6.50    0.80 
   1   6   5    6.50    1.00 
  -6   1   5    8.00    1.00 
  -6   2  -5    9.10    1.40 
   6  -2  -5   11.60    1.30 
  -2  -6  -5   11.80    1.50 
  -2  -6  -5    9.00    1.60 
   2   6   5   11.90    1.40 
   6  -2   5   10.40    1.30 
  -6   2   5   12.10    1.30 
   2   6   5    9.10    1.30 
  -2  -6   5    8.60    1.20 
   6  -2   5    8.10    1.30 
  -3  -6  -5   24.90    3.10 
  -3  -6  -5   30.30    3.30 
   6  -3  -5   25.60    3.00 
  -6   3  -5   31.30    3.10 
  -6   3   5   24.50    3.00 
  -3  -6   5   30.20    3.10 
  -3  -6   5   29.30    2.90 
   3   6   5   24.40    3.00 
   6  -3   5   31.20    3.10 
   3   6   5   29.10    3.10 
  -6   4  -5   26.70    3.00 
  -4  -6  -5   26.50    3.20 
  -4  -6  -5   26.70    3.00 
   6  -4  -5   29.00    2.90 
   6  -4   5   23.60    2.90 
   4   6   5   29.10    3.00 
  -4  -6   5   27.80    3.00 
   4   6   5   24.50    2.90 
  -4  -6   5   25.40    2.80 
  -6   4   5   27.90    2.90 
   6  -5  -5   18.70    2.10 
  -6   5  -5   18.60    2.20 
  -5  -6  -5   18.90    2.50 
  -5  -6  -5   20.10    2.40 
   5   6   5   18.30    2.10 
  -5  -6   5   17.00    1.90 
  -6   5   5   18.90    2.10 
   5   6   5   18.10    2.30 
  -5  -6   5   17.90    2.20 
   6  -5   5   15.00    2.00 
   6  -6  -5    0.90    0.70 
  -6  -6  -5    0.60    1.10 
  -6   6  -5    1.60    0.80 
  -6  -6  -5    3.20    0.90 
  -6  -6   5    1.10    0.50 
   6   6   5    0.90    0.80 
  -6  -6   5    1.90    0.80 
  -6   6   5    1.90    0.90 
  -6   7  -5   27.80    3.20 
  -7  -6  -5   31.10    3.20 
   6  -7  -5   27.20    3.10 
  -7  -6  -5   26.70    3.40 
  -6   7   5   25.60    3.10 
  -7  -6   5   28.60    3.20 
  -7  -6   5   25.90    3.00 
   7   6   5   27.70    3.10 
  -6   7   5   30.60    3.30 
  -7  -5  -5    8.10    1.80 
   5  -7  -5    9.40    1.50 
  -5   7  -5   10.80    1.40 
  -7  -5  -5   10.80    1.40 
  -7  -5   5    9.70    1.40 
  -5   7   5   14.10    1.60 
   7   5   5    9.00    1.50 
  -5   7   5   10.00    1.30 
  -7  -5   5    8.90    1.30 
  -7  -4  -5    6.30    0.80 
  -7  -4  -5    4.10    1.20 
   4  -7  -5    5.60    1.00 
  -4   7  -5    3.70    0.80 
  -4   7   5    5.00    0.90 
   7   4   5    4.80    1.00 
  -7  -4   5    4.90    0.90 
  -4   7   5    6.30    1.10 
   3  -7  -5   84.49   10.30 
  -7  -3  -5  112.49   10.50 
  -3   7  -5  108.89   10.20 
  -7  -3  -5   91.29   10.10 
  -3   7   5  101.69   10.20 
   7   3   5  112.49   10.40 
   7   3   5   98.79   10.10 
  -3   7   5   90.49   10.30 
  -7  -2  -5   30.10    3.10 
  -7  -2  -5   25.90    3.40 
  -2   7  -5   27.70    3.10 
   2  -7  -5   27.60    3.40 
   7   2  -5   27.50    3.20 
  -7  -2   5   30.10    3.20 
   7   2   5   29.20    3.40 
  -2   7   5   34.30    3.40 
  -2   7   5   29.30    3.20 
   7   2   5   34.20    3.10 
   1  -7  -5   11.00    1.60 
  -1   7  -5   12.40    1.30 
   7   1  -5   12.00    1.40 
   1  -7  -5   13.90    1.70 
  -7  -1  -5   11.30    1.70 
   7   1   5    9.90    1.60 
  -7  -1   5   11.50    1.50 
  -1   7   5   15.00    1.70 
  -1   7   5   10.60    1.50 
   7   1   5   12.10    1.30 
   0  -7  -5    0.20    0.70 
   7   0  -5   -0.10    0.40 
   0  -7  -5   -0.30    0.70 
  -7   0  -5    0.20    0.80 
   0   7   5   -0.10    0.50 
  -7   0   5   -0.60    0.50 
   7   0   5    0.10    0.20 
   7   0   5   -0.30    0.60 
   0   7   5    0.40    0.60 
   7  -1  -5   11.00    1.30 
  -1  -7  -5   11.20    1.70 
  -1  -7  -5   12.50    1.70 
  -7   1  -5    7.50    1.50 
   7  -1   5    7.40    1.50 
   7  -1   5   10.20    1.20 
   1   7   5   12.20    1.40 
  -7   1   5   11.80    1.40 
   1   7   5   13.30    1.50 
   7  -2  -5   30.90    3.20 
  -2  -7  -5   27.00    3.40 
  -7   2  -5   28.80    3.40 
  -2  -7  -5   28.50    3.40 
  -7   2   5   28.50    3.40 
   2   7   5   30.50    3.30 
   2   7   5   34.60    3.30 
   7  -2   5   29.60    3.40 
   7  -2   5   30.40    3.10 
  -3  -7  -5  104.29   10.60 
  -7   3  -5  113.79   10.50 
   7  -3  -5   89.09   10.30 
   3   7   5  105.49   10.40 
   7  -3   5   99.89   10.30 
  -3  -7   5  101.79   10.20 
  -3  -7   5  115.99   10.20 
  -7   3   5   86.09   10.40 
   3   7   5   92.99   10.40 
  -4  -7  -5    4.60    1.20 
   7  -4  -5    6.30    0.90 
  -7   4  -5    4.50    1.00 
  -4  -7  -5    5.60    1.10 
  -4  -7   5    4.20    0.90 
  -4  -7   5    3.60    0.60 
  -4  -7   5    4.70    0.70 
   4   7   5    6.30    1.00 
   7  -4   5    3.40    0.80 
   4   7   5    4.20    0.90 
  -7   4   5    5.80    0.90 
  -5  -7  -5    9.70    1.80 
   7  -5  -5    9.50    1.30 
  -7   5  -5   10.10    1.40 
  -5  -7  -5   10.90    1.60 
  -5  -7   5   12.20    1.50 
   5   7   5    9.00    1.40 
   7  -5   5    7.80    1.20 
  -5  -7   5    7.80    1.10 
  -6  -7  -5   28.20    3.20 
  -6  -7  -5   25.90    3.40 
  -7   6  -5   29.50    3.20 
   7  -6  -5   28.50    3.10 
   6   7   5   27.00    3.10 
  -6  -7   5   28.00    3.20 
  -7   6   5   28.10    3.20 
  -6  -7   5   24.40    2.90 
  -7  -7  -5    3.70    1.10 
  -7   7  -5    3.30    0.90 
  -7  -7  -5    2.50    1.20 
   7  -7  -5    5.90    1.10 
  -7   7   5    3.40    1.10 
  -7  -7   5    5.30    0.80 
  -7  -7   5    2.00    0.90 
   7  -8  -5    2.00    0.90 
  -8  -7  -5    3.80    1.10 
  -7   8  -5    0.70    0.70 
  -8  -7  -5    2.60    1.20 
  -8  -7   5    1.10    0.70 
  -7   8   5    0.60    0.70 
   8   7   5    0.80    0.80 
  -7   8   5    2.90    1.10 
  -8  -7   5    2.30    0.90 
  -8  -6  -5    0.70    1.00 
  -8  -6  -5    1.90    0.80 
  -6   8  -5    0.50    0.70 
  -8  -6   5    1.40    0.80 
  -8  -6   5    1.30    0.60 
  -6   8   5    2.80    1.00 
   8   6   5    0.50    0.60 
  -6   8   5    0.90    0.70 
  -8  -5  -5    8.10    1.60 
   5  -8  -5    9.40    1.40 
  -8  -5  -5    7.90    1.10 
  -5   8  -5    5.70    1.10 
  -8  -5   5    5.80    1.00 
  -5   8   5    7.60    1.20 
  -5   8   5    6.60    1.40 
   8   5   5    5.10    1.20 
  -8  -5   5    8.10    1.20 
  -8  -4  -5    2.00    1.00 
   4  -8  -5    2.20    1.00 
  -4   8  -5    2.30    0.70 
  -8  -4  -5    3.10    0.50 
  -8  -4   5    2.30    0.70 
  -4   8   5    2.60    0.90 
   8   4   5    1.20    0.70 
  -4   8   5    2.60    0.70 
  -8  -3  -5   62.59    6.70 
  -3   8  -5   70.99    6.80 
   3  -8  -5   63.49    7.00 
  -8  -3  -5   59.29    7.00 
   8   3   5   63.59    7.00 
  -3   8   5   69.09    6.90 
  -3   8   5   71.69    6.80 
  -8  -3   5   63.69    6.80 
  -2   8  -5   20.20    2.30 
   2  -8  -5   22.30    2.60 
  -8  -2  -5   19.50    2.60 
   8   2  -5   20.90    2.30 
  -2   8   5   24.90    2.60 
   8   2   5   19.60    2.60 
  -2   8   5   22.50    2.40 
  -8  -1  -5    8.20    1.60 
   8   1  -5   11.00    1.40 
  -1   8  -5   11.30    1.20 
   1  -8  -5   12.60    1.80 
  -8  -1   5   12.00    1.70 
   8   1   5    9.70    1.70 
  -1   8   5   10.80    1.40 
  -1   8   5   14.90    1.60 
   0  -8  -5    2.60    0.90 
   0  -8  -5    3.90    1.10 
   8   0  -5    3.60    0.60 
  -8   0  -5    3.20    1.00 
   0   8   5    4.80    1.00 
   0   8   5    4.20    0.80 
   8   0   5    2.60    0.90 
  -1  -8  -5    9.10    1.70 
  -1  -8  -5   12.00    1.80 
  -8   1  -5    7.90    1.70 
   8  -1  -5   13.40    1.50 
   8  -1   5   13.90    1.30 
  -8   1   5   12.90    1.60 
   1   8   5   13.90    1.80 
   1   8   5   10.50    1.60 
  -8   2  -5   19.10    2.60 
  -2  -8  -5   23.40    2.80 
   8  -2  -5   20.00    2.50 
  -2  -8  -5   23.20    2.80 
   2   8   5   19.90    2.60 
   8  -2   5   19.10    2.60 
   8  -2   5   23.60    2.30 
  -8   2   5   23.30    2.50 
   2   8   5   28.90    2.70 
   8  -3  -5   59.29    6.90 
  -3  -8  -5   66.79    7.10 
  -8   3  -5   66.09    7.00 
  -3  -8  -5   69.99    7.10 
  -8   3   5   68.79    6.90 
   8  -3   5   65.89    6.70 
   8  -3   5   60.39    6.90 
   3   8   5   68.19    6.90 
  -4  -8  -5    1.90    1.00 
  -4  -8  -5   -0.60    0.90 
  -8   4  -5    1.50    0.80 
   8  -4  -5    2.20    1.00 
  -4  -8   5    1.60    0.30 
  -4  -8   5    1.80    0.40 
  -8   4   5    2.80    0.80 
   4   8   5    1.70    0.70 
   8  -4   5    1.00    0.70 
  -8   5  -5    7.50    1.30 
   8  -5  -5    7.40    1.60 
  -5  -8  -5    7.40    1.40 
  -5  -8  -5    7.20    1.60 
  -5  -8   5    6.00    1.20 
  -5  -8   5    5.70    0.80 
  -8   5   5    7.90    1.20 
   5   8   5    7.80    1.20 
   8  -6  -5    0.50    1.10 
  -6  -8  -5    0.00    1.00 
  -8   6  -5    1.20    0.80 
  -6  -8  -5    2.30    1.10 
  -8   6   5    2.50    1.00 
   6   8   5    0.90    0.70 
   8  -6   5    1.70    1.00 
  -6  -8   5    1.10    0.80 
  -6  -8   5    1.00    0.40 
  -8   7  -5    0.80    0.80 
  -7  -8  -5    1.00    1.10 
  -7  -8  -5    1.20    1.00 
   8  -7  -5    1.40    0.90 
  -8   7   5    0.60    1.00 
  -7  -8   5    0.50    0.40 
   8  -7   5    1.50    1.00 
   7   8   5    1.00    0.70 
  -7  -8   5    1.20    0.90 
   8  -8  -5    8.40    1.40 
  -8  -8  -5    9.10    1.60 
  -8   8  -5    8.80    1.50 
  -8  -8  -5    9.30    1.70 
  -8  -8   5    8.30    1.20 
  -8   8   5    8.70    1.60 
   8  -8   5    8.30    1.80 
  -8  -8   5    9.70    1.50 
  -9  -8  -5    2.50    1.00 
  -8   9  -5    0.70    0.80 
   8  -9  -5    0.60    0.80 
  -9  -8  -5    1.00    1.00 
   9   8   5    1.10    0.80 
  -9  -8   5    0.60    0.50 
  -8   9   5    0.90    1.10 
  -8   9   5    1.80    0.70 
   8  -9   5    1.50    1.20 
  -9  -8   5    1.50    0.90 
   7  -9  -5   34.50    4.40 
  -9  -7  -5   45.10    4.60 
  -9  -7  -5   36.40    4.30 
  -7   9  -5   46.10    4.30 
  -7   9   5   34.10    4.40 
   9   7   5   46.80    4.40 
  -9  -7   5   45.30    4.20 
  -9  -7   5   34.00    4.30 
   7  -9   5   27.60    4.60 
  -7   9   5   35.70    4.20 
  -9  -6  -5   12.80    1.60 
  -6   9  -5   10.30    1.60 
  -9  -6  -5   12.60    2.10 
   6  -9  -5   14.30    2.00 
  -9  -6   5   11.60    1.80 
  -6   9   5   13.50    2.00 
  -9  -6   5   10.60    1.50 
   9   6   5   11.80    1.80 
   5  -9  -5   26.50    3.60 
  -9  -5  -5   36.90    3.80 
  -5   9  -5   31.30    3.40 
  -9  -5  -5   29.60    3.30 
   9   5   5   36.00    4.20 
  -5   9   5   28.40    3.60 
  -5   9   5   30.60    3.40 
  -9  -5   5   34.20    3.40 
  -9  -5   5   28.20    3.50 
  -9  -4  -5    3.10    1.10 
   4  -9  -5    2.60    1.10 
  -4   9  -5    2.80    0.70 
  -9  -4  -5    2.40    0.40 
  -4   9   5    2.60    1.00 
   9   4   5    3.20    1.50 
  -9  -4   5    3.00    0.90 
  -4   9   5    1.60    0.70 
  -9  -4   5    2.10    0.70 
   3  -9  -5   33.30    4.30 
  -3   9  -5   31.90    3.30 
  -9  -3  -5   32.20    3.60 
  -3   9   5   33.50    3.60 
  -9  -3   5   31.10    3.40 
  -3   9   5   31.70    3.40 
   9   3   5   25.40    3.50 
  -9  -2  -5    1.50    0.90 
  -2   9  -5    2.60    0.50 
   2  -9  -5    4.80    1.30 
   9   2  -5    2.70    0.60 
   9   2   5    3.40    1.00 
  -9  -2   5    3.80    0.80 
  -2   9   5    3.40    0.80 
  -2   9   5    3.30    1.00 
   9   1  -5   29.30    3.30 
  -9  -1  -5   37.40    3.70 
   1  -9  -5   30.50    3.70 
   9   1   5   38.40    3.70 
  -9  -1   5   26.60    3.40 
  -1   9   5   27.70    3.50 
  -1   9   5   32.30    3.40 
  -9   0  -5   -0.80    0.70 
   0  -9  -5    0.00    1.00 
   0  -9  -5   -0.30    0.70 
   9   0  -5   -0.10    0.40 
   0   9   5    0.40    0.50 
   0   9   5   -0.60    0.70 
  -9   0   5   -0.10    0.60 
   9   0   5    1.10    0.80 
  -1  -9  -5   33.60    3.50 
   9  -1  -5   26.60    3.10 
  -9   1  -5   35.30    3.40 
  -1  -9  -5   26.40    3.50 
   1   9   5   25.00    3.30 
  -9   1   5   25.60    3.20 
   1   9   5   33.00    3.20 
  -9   2  -5    1.30    0.80 
  -2  -9  -5    3.40    1.20 
   9  -2  -5    3.20    0.60 
  -2  -9  -5    3.90    1.20 
   2   9   5    3.20    1.00 
   9  -2   5    2.90    0.40 
   9  -2   5    3.60    1.00 
  -9   2   5    3.40    0.90 
   2   9   5    1.50    0.80 
   9  -2   5    3.80    0.60 
  -9   3  -5   30.10    3.70 
   9  -3  -5   31.20    3.40 
  -3  -9  -5   39.50    3.90 
  -3  -9  -5   30.30    3.80 
   9  -3   5   29.00    3.60 
  -9   3   5   33.00    3.50 
   9  -3   5   30.80    3.30 
   3   9   5   33.10    3.50 
  -4  -9  -5    3.20    1.20 
  -9   4  -5    2.30    0.90 
   9  -4  -5    1.20    0.60 
  -4  -9  -5    2.60    1.20 
   4   9   5    3.40    0.80 
   9  -4   5    2.40    0.80 
  -9   4   5    1.80    0.90 
   9  -4   5    1.70    0.80 
  -9   5  -5   34.80    3.50 
   9  -5  -5   26.80    3.30 
  -5  -9  -5   27.20    3.60 
  -5  -9   5   33.00    3.10 
  -5  -9   5   30.30    3.10 
   9  -5   5   30.20    3.50 
  -9   5   5   26.40    3.40 
   9  -6  -5   11.50    1.70 
  -9   6  -5   12.30    1.80 
  -6  -9  -5   10.90    2.00 
  -6  -9  -5   12.50    2.00 
   6   9   5   11.90    1.60 
   9  -6   5   13.30    1.90 
  -9   6   5   14.60    2.00 
  -6  -9   5   10.70    1.40 
  -6  -9   5   13.30    1.80 
  -7  -9  -5   38.70    4.80 
  -7  -9  -5   49.20    4.90 
   9  -7  -5   33.00    4.50 
  -9   7  -5   44.20    4.70 
  -9   7   5   36.70    4.70 
  -7  -9   5   44.50    4.40 
   7   9   5   49.50    4.60 
  -7  -9   5   43.40    4.70 
  -8  -9  -5    1.40    1.10 
   9  -8  -5    0.50    0.70 
  -8  -9  -5    1.90    1.10 
  -9   8  -5    1.50    0.90 
  -9   8   5    0.90    1.00 
   8   9   5    0.80    0.70 
  -8  -9   5    0.60    0.50 
   9  -8   5    2.00    1.10 
  -8  -9   5    0.10    0.80 
  -9  -9  -5   15.40    2.40 
  -9   9  -5   16.30    2.20 
  -9  -9  -5   18.70    2.40 
  -9  -9   5   13.80    1.80 
   9  -9   5   12.50    2.60 
  -9  -9   5   18.80    2.20 
  -9   9   5   19.30    2.40 
   9   9   5   12.50    2.00 
 -10  -9  -5   19.10    2.70 
 -10  -9  -5   19.40    2.60 
  -9  10  -5   18.80    2.50 
   9 -10   5   15.20    2.80 
 -10  -9   5   18.90    2.20 
 -10  -9   5   21.20    2.50 
 -10  -8  -5    6.90    1.20 
  -8  10  -5    5.40    1.20 
 -10  -8  -5    3.80    1.50 
   8 -10   5    7.20    1.80 
 -10  -8   5    2.90    0.80 
  10   8   5    2.50    1.20 
  -8  10   5    6.00    1.40 
 -10  -8   5    6.10    1.30 
 -10  -7  -5    5.90    1.10 
  -7  10  -5    5.40    1.10 
 -10  -7  -5    5.30    1.50 
  10   7   5    5.50    1.20 
  -7  10   5    7.70    1.50 
   7 -10   5    6.00    1.70 
 -10  -7   5    5.10    1.00 
  -7  10   5    6.40    1.10 
 -10  -7   5    6.90    1.30 
 -10  -6  -5    0.90    1.20 
  -6  10  -5    0.30    0.70 
 -10  -6  -5    4.00    0.70 
 -10  -6   5    1.30    0.70 
  10   6   5    2.50    1.50 
 -10  -6   5    3.60    1.00 
   6 -10   5    2.30    1.40 
  -6  10   5    3.80    1.20 
  -6  10   5    2.50    0.80 
   5 -10  -5   22.50    2.80 
  -5  10  -5   19.70    2.40 
 -10  -5  -5   19.20    2.90 
 -10  -5   5   24.80    2.60 
  -5  10   5   23.20    2.50 
  10   5   5   16.50    2.60 
 -10  -5   5   16.70    2.40 
  -5  10   5   29.10    2.90 
  -4  10  -5   11.10    1.40 
   4 -10  -5    6.40    1.70 
 -10  -4  -5   11.20    1.90 
  -4  10   5   11.60    1.50 
 -10  -4   5    9.00    1.50 
  -4  10   5   11.20    1.80 
  10   4   5    5.80    1.60 
 -10  -4   5   10.30    1.50 
   3 -10  -5   19.20    3.00 
 -10  -3  -5   23.20    2.90 
  -3  10  -5   23.70    2.40 
 -10  -3   5   20.60    2.60 
  -3  10   5   21.60    2.70 
 -10  -3   5   18.80    2.60 
  10   3   5   23.10    2.80 
  -3  10   5   23.40    2.60 
  10   2  -5    9.20    1.20 
  -2  10  -5    8.70    1.00 
 -10  -2  -5    8.90    1.60 
   2 -10  -5    8.60    1.80 
  -2  10   5   11.30    1.40 
  -2  10   5    9.00    1.60 
  10   2   5    7.70    1.60 
 -10  -2   5   11.40    1.50 
  10   1  -5    4.00    0.70 
 -10  -1  -5    5.20    1.30 
   1 -10  -5    3.80    1.30 
 -10  -1   5    4.20    1.00 
  10   1   5    2.20    1.10 
  -1  10   5    4.00    0.90 
  -1  10   5    2.60    1.00 
   0 -10  -5    1.40    0.90 
 -10   0  -5    1.10    0.90 
   0 -10  -5    4.30    1.30 
  10   0  -5    2.70    0.60 
   0  10   5    3.60    1.10 
  10   0   5    0.90    0.90 
   0  10   5    1.10    0.70 
 -10   0   5    3.70    0.90 
 -10   1  -5    2.90    1.10 
  10  -1  -5    6.00    0.80 
  -1 -10  -5    4.90    1.20 
  10  -1   5    3.30    1.00 
   1  10   5    2.90    0.90 
 -10   1   5    4.60    1.00 
   1  10   5    3.40    1.10 
  10  -2  -5    9.60    1.40 
  -2 -10  -5    9.20    1.90 
  -2 -10  -5    9.80    1.80 
 -10   2  -5    8.40    1.70 
 -10   2   5   10.20    1.50 
  10  -2   5   11.60    1.20 
  10  -2   5   10.70    1.10 
  10  -2   5    8.00    1.70 
   2  10   5   10.40    1.50 
  -3 -10  -5   20.40    3.00 
 -10   3  -5   22.10    2.70 
  -3 -10  -5   22.30    2.90 
  10  -3  -5   19.50    2.40 
  10  -3   5   23.20    2.70 
 -10   3   5   19.80    2.60 
  10  -3   5   20.90    2.40 
   3  10   5   24.30    2.60 
  10  -3   5   22.00    2.30 
  -4 -10  -5   11.50    2.10 
  10  -4  -5   10.00    1.50 
  -4 -10  -5   10.40    1.90 
 -10   4  -5    8.70    1.80 
   4  10   5   12.40    1.70 
  10  -4   5   12.70    1.60 
 -10   4   5   14.60    1.90 
  -5 -10  -5   24.10    3.30 
 -10   5  -5   18.00    2.90 
  10  -5  -5   24.80    2.70 
  -5 -10  -5   23.80    3.10 
 -10   5   5   25.30    2.90 
   5  10   5   22.80    2.70 
  10  -5   5   27.40    3.30 
 -10   6  -5    1.00    0.90 
  -6 -10  -5    1.00    1.10 
  -6 -10  -5    2.30    1.30 
  10  -6  -5    2.20    0.80 
   6  10   5    1.50    0.70 
 -10   6   5    2.50    1.10 
  10  -6   5    3.40    1.00 
  -6 -10   5    3.60    1.00 
  -6 -10   5    2.00    0.50 
  -7 -10  -5    4.50    1.40 
  10  -7  -5    6.60    1.10 
  -7 -10  -5    5.50    1.40 
 -10   7  -5    6.10    1.30 
   7  10   5    6.00    1.20 
 -10   7   5    4.00    1.30 
  -7 -10   5    5.40    1.20 
  -7 -10   5    4.80    0.80 
  -8 -10  -5    7.90    1.60 
  10  -8  -5    6.20    1.20 
 -10   8  -5    4.10    1.20 
  -8 -10  -5    5.80    1.50 
  10  -8   5    5.20    1.40 
 -10   8   5    4.40    1.40 
  -8 -10   5    3.80    0.80 
   8  10   5    3.90    1.00 
  -8 -10   5    6.40    1.30 
 -10   9  -5   20.90    2.70 
  -9 -10  -5   17.20    2.80 
  -9 -10  -5   24.40    2.80 
  -9 -10   5   20.60    2.70 
   9  10   5   19.20    2.50 
 -10   9   5   19.30    2.80 
 -10 -10  -5   11.90    1.80 
 -10 -10  -5    7.10    1.70 
 -10  10  -5    9.30    1.70 
 -10 -10   5    7.50    1.30 
  10 -10   5    9.10    1.90 
 -10 -10   5   10.20    1.70 
 -10  10   5   13.50    2.10 
 -11 -10  -5    1.60    1.20 
 -11 -10  -5    2.50    1.10 
 -10  11  -5    1.90    1.00 
 -10  11   5    0.60    1.20 
 -11 -10   5    3.20    0.80 
 -11 -10   5    3.60    1.10 
 -11  -9  -5   27.10    4.30 
 -11  -9  -5   24.00    3.00 
  -9  11  -5   23.50    3.00 
 -11  -9   5   24.50    2.80 
 -11  -9   5   27.90    3.10 
  -9  11   5   23.70    3.30 
  -8  11  -5    6.70    1.30 
 -11  -8  -5    7.90    1.90 
 -11  -8  -5    8.90    1.30 
 -11  -8   5    8.00    1.20 
  -8  11   5    9.20    1.80 
 -11  -8   5    5.50    1.40 
  -7  11  -5    3.70    0.90 
 -11  -7  -5    3.50    0.80 
 -11  -7  -5    3.00    1.30 
 -11  -7   5    3.60    1.10 
  -7  11   5    3.90    1.40 
 -11  -7   5    6.00    1.00 
  -7  11   5    2.30    1.20 
 -11  -6  -5   -0.20    0.90 
  -6  11  -5    0.50    0.60 
 -11  -6   5    2.40    0.90 
  -6  11   5    1.90    1.70 
  -6  11   5    1.60    0.70 
 -11  -6   5    0.00    0.60 
 -11  -5  -5    3.70    1.20 
  -5  11  -5    4.80    0.80 
 -11  -5   5    4.50    1.00 
  -5  11   5    2.80    0.90 
 -11  -5   5    2.10    0.80 
  -5  11   5    3.40    1.10 
 -11  -4  -5   18.10    2.60 
  -4  11  -5   18.40    2.10 
 -11  -4   5   18.20    2.30 
  -4  11   5   20.30    2.50 
  -4  11   5   18.60    2.30 
 -11  -4   5   18.10    2.30 
  -3  11  -5   57.69    6.10 
 -11  -3  -5   59.29    6.50 
  -3  11   5   63.29    6.30 
  -3  11   5   59.59    6.50 
 -11  -3   5   56.69    6.30 
  11   3   5   61.69    7.10 
 -11  -3   5   60.69    6.30 
 -11  -2  -5    0.00    0.90 
  11   2  -5    2.50    0.60 
   2 -11  -5    1.90    1.60 
  -2  11   5    2.30    0.80 
 -11  -2   5    1.20    0.70 
  11   2   5    1.30    0.90 
  -2  11   5    3.30    1.20 
 -11  -2   5    3.10    0.90 
  11   1  -5    7.80    1.10 
 -11  -1  -5   11.50    1.70 
   1 -11  -5    8.90    2.00 
  -1  11   5    8.70    1.60 
  -1  11   5    8.30    1.30 
  11   1   5    9.40    1.70 
 -11  -1   5    7.00    1.30 
 -11   0  -5    1.00    1.00 
  11   0  -5    0.60    0.40 
   0 -11  -5   -1.10    1.20 
 -11   0   5   -0.20    0.70 
   0  11   5    0.00    0.60 
  11   0   5    0.10    0.80 
  -1 -11  -5    8.10    1.90 
 -11   1  -5    6.80    1.50 
  11  -1  -5    9.10    1.20 
  -1 -11  -5    9.00    1.60 
 -11   1   5    7.50    1.40 
  11  -1   5    9.50    1.60 
   1  11   5    6.60    1.30 
  -2 -11  -5    1.50    1.40 
 -11   2  -5    0.20    0.90 
  -2 -11  -5    2.40    1.20 
  11  -2  -5    1.90    0.60 
 -11   2   5    3.50    1.00 
   2  11   5    1.90    0.80 
  11  -2   5    2.30    1.10 
  11  -3  -5   55.49    6.10 
  -3 -11  -5   53.79    6.60 
 -11   3  -5   54.39    6.30 
  -3 -11  -5   61.19    6.40 
   3  11   5   62.49    6.20 
  11  -3   5   59.99    6.00 
 -11   3   5   58.99    6.30 
  11  -3   5   59.39    6.00 
 -11   4  -5   18.00    2.60 
  11  -4  -5   18.50    2.20 
  -4 -11  -5   14.90    2.70 
  -4 -11  -5   18.90    2.60 
   4  11   5   15.90    2.30 
  11  -4   5   20.80    2.10 
  11  -4   5   19.90    2.10 
 -11   4   5   22.30    2.60 
  -5 -11  -5    7.50    1.40 
  11  -5  -5    4.10    0.90 
 -11   5  -5    3.80    1.20 
  -5 -11  -5    4.00    1.40 
 -11   5   5    4.70    1.20 
   5  11   5    4.00    1.00 
  -6 -11  -5    1.80    1.10 
  -6 -11  -5    0.50    1.20 
 -11   6  -5    1.00    0.90 
  11  -6  -5    1.30    0.70 
   6  11   5    1.40    0.70 
  11  -6   5    2.90    0.80 
 -11   6   5    3.00    1.20 
  -7 -11  -5    4.20    1.20 
  11  -7  -5    2.70    0.90 
 -11   7  -5    3.50    1.20 
  -7 -11   5    5.60    1.30 
  -7 -11   5    4.30    0.70 
   7  11   5    4.90    1.00 
 -11   7   5    3.10    1.30 
  11  -7   5    3.60    1.00 
 -11   8  -5    8.10    1.60 
  -8 -11  -5    8.70    1.60 
  -8 -11  -5    7.00    1.90 
   8  11   5    6.80    1.30 
  11  -8   5    8.80    1.60 
  -8 -11   5    6.80    1.10 
 -11   8   5    7.50    1.70 
  -8 -11   5    9.60    1.60 
 -11   9  -5   24.90    3.00 
  -9 -11  -5   24.60    3.00 
  -9 -11  -5   19.90    3.10 
 -11   9   5   32.10    4.60 
  -9 -11   5   23.40    2.60 
  -9 -11   5   22.20    2.90 
 -10 -11  -5    1.20    1.20 
 -11  10  -5    2.00    1.10 
 -10 -11  -5    2.50    1.20 
 -11  10   5    1.80    1.30 
 -10 -11   5    1.70    0.70 
 -10 -11   5    1.50    1.00 
  11 -10   5    2.50    1.20 
 -11 -11  -5    3.30    1.10 
 -11 -11  -5    1.20    1.10 
 -11 -11   5    0.60    0.60 
 -12 -11  -5    1.90    1.20 
 -12 -11  -5    1.00    1.00 
 -11  12  -5    2.00    1.10 
 -12 -11   5    0.90    0.90 
 -12 -11   5    1.20    0.80 
 -10  12  -5    1.40    0.90 
 -12 -10  -5    1.30    0.90 
 -12 -10  -5    0.20    1.10 
 -12 -10   5    2.30    1.00 
 -12 -10   5    1.70    0.70 
  -9  12  -5    0.40    0.80 
 -12  -9  -5    1.00    1.20 
 -12  -9   5    0.70    0.60 
 -12  -9   5    1.40    0.90 
 -12  -8  -5    0.90    1.20 
 -12  -8  -5   -0.30    0.60 
  -8  12  -5   -0.30    0.70 
 -12  -8   5   -0.30    0.80 
 -12  -8   5    0.20    0.60 
  -7  12  -5    2.00    0.80 
 -12  -7  -5    2.90    1.20 
 -12  -7   5    2.10    0.70 
 -12  -7   5    2.50    1.00 
  -6  12  -5   -0.20    0.60 
 -12  -6  -5   -0.20    0.90 
 -12  -6   5    0.30    0.60 
 -12  -6   5    0.20    0.80 
  -6  12   5   -0.60    0.90 
  -6  12   5    0.70    0.70 
  -5  12  -5    3.20    0.70 
 -12  -5  -5    3.20    1.30 
 -12  -5   5    4.00    1.00 
  -5  12   5    3.40    1.20 
  -5  12   5    1.60    0.80 
 -12  -5   5    2.70    0.80 
  -4  12  -5   11.50    1.40 
 -12  -4   5   10.70    1.60 
  -4  12   5   12.30    1.60 
 -12  -4   5   13.70    1.80 
  -3  12  -5    7.10    0.80 
  -3  12  -5    6.30    0.80 
 -12  -3  -5    8.40    1.70 
 -12  -3   5    7.60    1.30 
  -3  12   5    7.00    1.20 
 -12  -3   5    8.00    1.30 
 -12  -2  -5    3.90    1.30 
 -12  -2   5    5.70    1.10 
 -12  -2   5    4.00    1.00 
  -2  12   5    4.70    1.00 
 -12  -1  -5   14.90    2.40 
  12   1  -5   17.30    2.00 
  -1  12   5   16.10    2.10 
 -12  -1   5   21.80    2.30 
 -12  -1   5   15.50    2.20 
  12   0  -5    9.20    1.20 
 -12   0  -5    8.20    1.70 
 -12   0   5    6.20    1.40 
 -12   0   5   10.20    1.40 
   0  12   5    7.40    1.30 
 -12   1  -5   15.10    2.40 
  -1 -12  -5   16.60    2.30 
  12  -1  -5   16.40    1.90 
 -12   1   5   17.50    2.20 
   1  12   5   15.60    2.00 
  12  -2  -5    5.60    0.90 
 -12   2  -5    2.50    1.20 
  -2 -12  -5    6.60    1.30 
 -12   2   5    5.80    1.20 
   2  12   5    4.20    1.00 
 -12   3  -5    7.50    1.50 
  -3 -12  -5    9.10    1.60 
  12  -3  -5    6.10    1.10 
 -12   3   5    8.00    1.40 
   3  12   5    7.30    1.20 
  -4 -12  -5   16.80    2.80 
  -4 -12  -5   18.70    2.20 
 -12   4  -5   10.50    2.20 
  12  -4  -5   13.50    1.80 
   4  12   5   14.30    1.90 
  12  -4   5   15.50    1.70 
 -12   4   5   15.00    2.20 
  12  -4   5   14.90    1.60 
  -5 -12  -5    3.10    1.40 
  12  -5  -5    3.40    0.80 
  -5 -12  -5    2.10    1.10 
 -12   5   5    4.40    1.20 
  12  -5   5    3.80    0.70 
   5  12   5    3.10    0.80 
  12  -6  -5    0.80    0.70 
  -6 -12  -5    0.10    1.10 
  -6 -12  -5    1.30    1.00 
 -12   6  -5    1.20    1.20 
 -12   6   5    1.50    1.10 
  12  -6   5    0.50    0.60 
  -7 -12  -5    2.10    1.10 
  -7 -12  -5    3.00    1.30 
 -12   7  -5    0.80    1.00 
  12  -7  -5    2.00    0.80 
  12  -7   5    2.90    0.90 
  -7 -12   5    2.90    1.00 
   7  12   5    2.70    0.80 
 -12   7   5    3.30    1.30 
  -8 -12  -5    0.30    1.10 
 -12   8  -5    0.10    1.00 
  -8 -12  -5    0.50    1.00 
   8  12   5   -0.50    0.60 
  12  -8   5    0.60    0.80 
 -12   8   5   -0.50    1.00 
  -8 -12   5    0.90    0.90 
  -8 -12   5    0.10    0.40 
 -12   9  -5    1.70    1.10 
  -9 -12  -5   -0.20    0.90 
  -9 -12  -5    1.50    1.10 
 -12   9   5    0.40    1.20 
  -9 -12   5    0.20    0.90 
  -9 -12   5    1.00    0.50 
  12  -9   5    0.40    1.10 
 -10 -12  -5    4.20    1.40 
 -10 -12  -5    1.30    1.20 
 -12  10  -5    2.70    1.20 
 -10 -12   5    1.30    0.90 
 -12  10   5   -0.30    1.10 
  12 -10   5    2.20    1.10 
 -12  11  -5    0.90    1.00 
 -11 -12  -5    1.60    1.10 
 -11 -12  -5    3.10    1.20 
 -11 -12   5    2.70    0.70 
 -11 -12   5    0.00    0.90 
 -12  12  -5    3.10    1.30 
 -12 -12  -5    6.30    1.50 
 -12 -12  -5    7.30    1.70 
 -12 -12   5    6.40    1.40 
 -12 -12   5    5.50    1.10 
 -13 -12  -5    0.40    1.00 
 -12  13  -5    1.10    1.00 
 -13 -12   5    3.20    0.90 
 -13 -12   5    0.50    0.90 
 -13 -11  -5    2.10    1.30 
 -13 -11  -5    2.40    1.00 
 -11  13  -5    1.30    0.90 
 -13 -11   5    1.10    1.00 
 -13 -11   5    1.30    0.80 
 -10  13  -5    1.60    0.90 
 -13 -10  -5    2.80    1.60 
 -13 -10  -5    2.90    1.00 
 -13 -10   5    2.70    1.10 
 -13 -10   5    2.80    0.80 
  -9  13  -5   18.40    2.30 
 -13  -9  -5   14.60    2.00 
 -13  -9  -5   19.10    2.00 
 -13  -9  -5   22.90    2.80 
 -13  -9   5   18.00    2.40 
 -13  -9   5   18.20    2.20 
 -13  -8  -5    3.40    1.40 
  -8  13  -5    4.70    1.00 
 -13  -8   5    3.30    0.90 
 -13  -8   5    4.00    1.20 
 -13  -7  -5    5.70    1.50 
  -7  13  -5    7.90    1.20 
 -13  -7   5    5.10    1.10 
 -13  -7   5    6.40    1.30 
 -13  -6  -5    0.90    1.10 
 -13  -6   5   -0.20    0.80 
 -13  -6   5   -0.40    0.60 
 -13  -5  -5    7.60    1.70 
  -5  13  -5    6.50    0.90 
  -5  13   5    6.20    1.20 
 -13  -5   5    3.90    1.10 
 -13  -5   5    6.00    1.20 
  -4  13  -5    0.80    0.30 
 -13  -4  -5   -0.70    0.90 
  -4  13  -5    0.30    0.40 
 -13  -4   5    0.60    0.80 
  -4  13   5   -0.50    0.60 
 -13  -4   5    0.40    0.70 
 -13  -3  -5   33.50    3.60 
 -13  -3   5   29.60    3.30 
 -13  -3   5   25.70    3.30 
  -3  13   5   28.00    3.20 
 -13  -2  -5   -0.90    0.90 
 -13  -2   5    0.30    0.80 
  -2  13   5    0.10    0.60 
  13   1  -5    9.70    1.30 
 -13  -1  -5   12.60    2.00 
 -13  -1   5    7.00    1.60 
  -1  13   5    9.20    1.50 
 -13  -1   5   13.40    1.70 
  13   0  -5    0.20    0.40 
 -13   0  -5   -0.20    0.90 
 -13   0   5    0.10    0.70 
 -13   0   5    0.20    0.80 
   0  13   5   -0.80    0.60 
  13  -1  -5   10.30    1.40 
 -13   1  -5    8.30    1.80 
   1  13   5   11.60    1.60 
 -13   1   5   12.50    1.80 
 -13   1   5   12.30    1.70 
 -13   2  -5   -0.10    0.90 
  -2 -13  -5    0.90    0.90 
  13  -2  -5    0.00    0.40 
   2  13   5   -0.20    0.60 
 -13   2   5    0.50    0.90 
 -13   2   5    0.00    0.70 
 -13   3  -5   32.20    3.60 
  -3 -13  -5   30.50    3.50 
  13  -3  -5   26.20    3.10 
   3  13   5   30.20    3.20 
 -13   3   5   25.80    3.40 
  13  -4  -5    0.20    0.60 
  -4 -13  -5   -0.90    0.90 
 -13   4  -5   -0.20    0.90 
  13  -4   5    0.40    0.30 
   4  13   5    0.40    0.60 
  13  -4   5    0.70    0.30 
 -13   4   5    2.80    1.10 
 -13   5  -5    4.90    1.40 
  13  -5  -5    5.70    1.10 
  -5 -13  -5    6.00    1.40 
  13  -5   5    6.90    0.90 
 -13   5   5   10.30    1.70 
   5  13   5    5.40    1.20 
  13  -5   5    6.90    1.00 
  -6 -13  -5   -0.50    0.90 
  13  -6  -5    0.20    0.60 
 -13   6  -5    0.20    1.00 
 -13   6   5    1.00    1.20 
  13  -6   5   -0.30    0.50 
   6  13   5    0.50    0.60 
 -13   7  -5    7.20    1.70 
  -7 -13  -5    8.00    1.50 
 -13   7   5    5.70    1.60 
  13  -7   5    7.10    1.20 
   7  13   5    7.70    1.20 
  -8 -13  -5    5.30    1.30 
 -13   8  -5    5.40    1.40 
  13  -8   5    4.30    1.00 
  -8 -13   5    4.00    1.30 
 -13   8   5    6.30    2.00 
   8  13   5    2.80    1.00 
  -9 -13  -5   22.70    2.50 
 -13   9  -5   18.20    2.60 
  -9 -13   5   16.00    1.90 
  13  -9   5   17.50    2.90 
 -13   9   5   16.70    2.80 
  -9 -13   5   17.60    2.40 
 -13  10  -5    2.80    1.30 
 -10 -13  -5    0.60    1.00 
 -10 -13   5    2.60    0.60 
  13 -10   5    3.80    1.20 
 -10 -13   5    5.10    1.20 
 -11 -13  -5    3.70    1.20 
 -11 -13   5    2.60    0.90 
 -11 -13   5    0.80    1.00 
 -13  12  -5    0.80    1.10 
 -12 -13  -5    1.30    1.20 
 -12 -13   5    0.80    1.60 
 -12 -13   5    3.80    0.80 
 -14 -11  -5    0.40    0.60 
 -11  14  -5    0.00    0.90 
 -14 -11  -5    0.80    1.20 
 -14 -11   5    0.80    0.90 
 -14 -11   5    0.60    0.70 
 -14 -10  -5    2.40    0.60 
 -10  14  -5    2.00    0.90 
 -14 -10  -5    1.00    1.20 
 -14 -10   5    3.10    1.10 
  -9  14  -5    0.90    0.80 
 -14  -9  -5    2.40    1.40 
 -14  -9   5    1.60    0.90 
 -14  -9   5    1.80    1.00 
  -8  14  -5    4.10    1.00 
 -14  -8  -5    4.90    1.60 
 -14  -8   5    5.20    1.20 
 -14  -8   5    4.60    1.10 
 -14  -7  -5    2.40    2.10 
  -7  14  -5    3.30    0.90 
 -14  -7   5    5.40    1.10 
 -14  -7   5    3.90    1.00 
 -14  -6  -5    2.70    2.00 
 -14  -6   5    1.00    0.80 
 -14  -6   5    0.90    0.90 
 -14  -5  -5    3.20    1.30 
  -5  14  -5    5.20    0.80 
 -14  -5   5    4.70    1.10 
 -14  -5   5    5.10    1.20 
 -14  -4  -5    4.80    1.40 
  -4  14   5    2.80    0.90 
 -14  -4   5    2.50    0.90 
 -14  -4   5    3.80    1.10 
 -14  -3  -5   15.10    2.30 
  -3  14   5   13.10    1.80 
 -14  -3   5   11.90    1.90 
 -14  -3   5   12.30    1.90 
 -14  -2  -5    4.10    1.20 
 -14  -2   5    2.60    0.90 
 -14  -2   5    1.90    0.80 
  -2  14   5    1.90    0.80 
 -14  -1  -5    2.60    1.20 
 -14  -1   5    1.80    0.90 
 -14  -1   5    1.00    0.80 
  14   0  -5    7.00    1.00 
 -14   0  -5    6.20    1.50 
 -14   0   5    3.50    1.10 
   0  14   5    4.40    1.00 
 -14   0   5    5.40    1.20 
 -14   1  -5    1.90    1.10 
  14  -1  -5    1.90    0.60 
 -14   1   5    3.40    1.00 
 -14   1   5    0.90    0.80 
   1  14   5    1.50    0.80 
 -14   2  -5    0.40    0.90 
  14  -2  -5    2.40    0.60 
 -14   2   5    2.60    1.10 
 -14   2   5    2.30    1.00 
   2  14   5    2.70    0.80 
  -3 -14  -5   14.30    2.00 
 -14   3  -5    8.70    2.00 
  14  -3  -5   12.10    1.60 
 -14   3   5   10.80    1.90 
 -14   3   5   13.10    2.00 
   3  14   5   13.50    1.60 
  -4 -14  -5    6.20    1.30 
  14  -4  -5    3.70    1.00 
 -14   4  -5    4.00    1.30 
 -14   4   5    4.40    1.30 
  -5 -14  -5    5.60    1.40 
 -14   5  -5    4.20    1.30 
  14  -5  -5    5.80    1.10 
   5  14   5    4.10    1.00 
  14  -5   5    6.70    0.90 
 -14   5   5    3.90    1.20 
  14  -5   5    7.10    0.80 
 -14   5   5    8.60    1.70 
  -6 -14  -5    0.10    0.90 
 -14   6  -5    2.20    1.80 
  14  -6  -5    0.50    0.70 
   6  14   5    0.50    0.60 
 -14   6   5    0.30    1.10 
  -7 -14  -5    5.50    1.30 
 -14   7  -5    4.10    2.20 
   7  14   5    2.90    0.90 
  14  -7   5    6.40    1.00 
 -14   7   5    6.30    1.70 
  -8 -14  -5    5.80    1.40 
 -14   8  -5    5.70    1.60 
 -14   8   5    8.60    1.90 
  14  -8   5    7.80    1.20 
 -14   9  -5    1.60    1.20 
 -14   9   5    0.90    1.30 
  -9 -14   5    2.00    1.00 
 -14  10  -5    1.40    1.10 
 -10 -14  -5    2.20    1.00 
 -10 -14   5    2.30    1.00 
  14 -10   5    3.00    1.10 
 -11 -14  -5   -0.80    0.80 
 -14  11  -5    1.20    1.10 
 -11 -14   5   -0.10    0.80 
 -11 -14   5    0.90    0.50 
 -15  -9  -5    4.60    1.50 
  -9  15  -5    3.20    0.90 
 -15  -9   5    1.50    0.80 
 -15  -9   5    2.70    1.00 
 -15  -8  -5    0.70    1.20 
  -8  15  -5    1.40    0.70 
 -15  -8   5    1.10    0.90 
 -15  -8   5    0.80    0.70 
 -15  -7  -5   12.40    2.00 
  -7  15  -5   10.50    1.30 
  -7  15  -5    7.10    1.10 
 -15  -7   5    8.60    1.50 
 -15  -7   5    8.90    1.60 
  -6  15  -5    0.20    0.50 
 -15  -6  -5    1.80    1.20 
 -15  -6   5    2.20    0.90 
 -15  -6   5    0.20    0.70 
  -5  15  -5    6.20    0.90 
 -15  -5  -5    7.40    1.60 
  -5  15  -5    7.80    0.90 
 -15  -5   5    9.70    1.50 
 -15  -5   5    8.10    1.40 
 -15  -4  -5    5.60    1.60 
 -15  -4   5    3.80    1.10 
 -15  -4   5    7.20    1.20 
 -15  -3  -5   13.70    2.10 
 -15  -3   5   10.00    1.70 
  -3  15   5    9.60    1.50 
 -15  -3   5   10.40    1.60 
 -15  -2  -5    0.00    1.10 
 -15  -2   5    0.40    0.80 
  -2  15   5    0.70    0.70 
 -15  -2   5    2.20    0.90 
 -15  -1  -5   13.60    2.10 
 -15  -1   5    8.10    1.60 
  -1  15   5   11.50    1.60 
 -15  -1   5   13.20    2.50 
  15   0  -5   -0.20    0.50 
 -15   0  -5   -0.40    0.90 
 -15   0   5    0.10    0.80 
   0  15   5   -0.60    0.70 
 -15   1  -5   12.90    2.10 
  15  -1  -5    8.70    1.30 
 -15   1   5    9.10    1.70 
 -15   1   5   12.30    1.80 
 -15   2  -5   -0.20    1.00 
  15  -2  -5    0.30    0.50 
 -15   2   5    0.70    0.90 
 -15   2   5    2.90    1.10 
 -15   3  -5   12.10    2.10 
  15  -3  -5   10.10    1.40 
 -15   3   5   10.70    1.90 
   3  15   5   11.60    2.00 
 -15   3   5    9.80    1.80 
  15  -4  -5    6.70    1.10 
 -15   4  -5    4.00    1.40 
  -4 -15  -5    7.10    1.30 
   4  15   5    4.40    0.90 
 -15   4   5    4.20    1.30 
 -15   4   5    6.10    1.50 
  15  -5  -5    9.90    1.40 
  -5 -15  -5   11.90    1.70 
 -15   5  -5    7.30    1.80 
 -15   5   5    8.80    1.90 
 -15   5   5    7.40    1.60 
   5  15   5    9.70    1.30 
 -15   6  -5    0.60    1.10 
  -6 -15  -5    1.30    0.90 
   6  15   5    1.00    0.60 
 -15   6   5    0.60    0.80 
 -15   6   5    1.10    1.20 
  15  -6   5    0.50    0.50 
  15  -6   5    1.40    0.50 
  -7 -15  -5   13.80    1.90 
 -15   7  -5   11.70    2.10 
 -15   7   5    8.70    2.30 
  15  -7   5   10.60    1.50 
 -15   7   5   10.30    1.80 
  -8 -15  -5    0.70    0.90 
 -15   8  -5    0.80    1.10 
 -15   8   5    2.30    1.40 
 -15   8   5    1.90    1.00 
  -8 -15   5    1.50    1.00 
  15  -8   5    1.80    0.70 
 -15   9  -5    3.40    1.30 
  -9 -15  -5    3.00    1.00 
  -9 -15   5    2.80    1.10 
 -15   9   5    1.60    1.00 
  -7  16  -5    1.90    0.80 
 -16  -7  -5    2.10    1.30 
 -16  -7   5    1.40    0.90 
 -16  -7   5    1.90    0.80 
  -6  16  -5    0.80    0.40 
 -16  -6  -5    1.90    1.30 
  -6  16  -5    0.70    0.40 
 -16  -6   5    1.30    0.80 
 -16  -6   5    2.30    0.80 
 -16  -5  -5    2.80    1.30 
 -16  -5   5    3.00    1.00 
 -16  -5   5    4.60    1.00 
 -16  -4  -5    2.30    1.20 
 -16  -4   5    2.00    1.00 
 -16  -4   5    3.30    0.90 
 -16  -3  -5    9.60    1.90 
 -16  -3   5    7.40    1.40 
 -16  -3   5    8.50    1.40 
 -16  -2  -5    4.20    1.40 
 -16  -2   5    3.50    1.10 
  -2  16   5    4.60    1.00 
 -16  -2   5    2.70    1.00 
 -16  -1  -5    4.80    1.50 
  -1  16   5    6.60    1.10 
 -16  -1   5    6.70    1.30 
 -16  -1   5    3.90    1.20 
 -16   0  -5    0.20    1.20 
 -16   0   5    0.60    0.90 
   0  16   5    1.00    0.70 
 -16   0   5    0.30    0.80 
  16  -1  -5    6.00    1.00 
 -16   1  -5    5.60    1.60 
 -16   1   5    5.50    1.30 
   1  16   5    5.30    1.10 
 -16   1   5    5.30    1.30 
 -16   2  -5    2.70    1.30 
  16  -2  -5    3.70    0.80 
 -16   2   5    1.70    1.00 
   2  16   5    3.70    0.80 
 -16   2   5    3.30    1.20 
 -16   3  -5   10.50    1.90 
  16  -3  -5    8.50    1.30 
   3  16   5    7.90    1.20 
 -16   3   5    7.60    1.70 
 -16   3   5    7.10    1.50 
  16  -4  -5    3.00    0.80 
 -16   4  -5    1.80    1.30 
   4  16   5    1.60    0.70 
 -16   4   5    3.90    1.30 
 -16   4   5    1.70    1.00 
  16  -5  -5    3.80    0.90 
  -5 -16  -5    3.50    1.00 
 -16   5  -5    3.70    1.40 
   5  16   5    4.90    0.90 
 -16   5   5    2.00    1.20 
 -16   5   5    4.50    1.40 
 -16   6  -5    1.70    1.10 
  -6 -16  -5    1.40    0.90 
   6  16   5    1.00    0.60 
 -16   6   5    1.30    1.50 
 -16   6   5    1.80    1.20 
 -16   7  -5    2.30    1.40 
  -7 -16  -5    2.10    0.90 
 -16   7   5    1.70    1.30 
 -16   7   5    1.30    1.00 
  16  -7   5    1.70    0.60 
 -17  -5  -5    0.70    1.20 
 -17  -5   5    1.10    0.70 
 -17  -5   5    1.00    0.80 
 -17  -4  -5    0.00    1.10 
 -17  -4   5    1.60    0.90 
 -17  -4   5    1.30    0.80 
 -17  -3  -5   13.20    2.60 
 -17  -3   5   10.60    1.70 
 -17  -3   5   13.40    1.90 
 -17  -2  -5    0.40    2.00 
 -17  -2   5    0.40    0.80 
 -17  -2   5   -0.10    0.70 
 -17  -1   5    1.10    0.80 
  -1  17   5    0.70    0.80 
 -17  -1   5    0.10    0.80 
 -17   0   5    0.30    0.80 
 -17   0   5   -0.50    0.80 
   0  17   5   -1.10    0.60 
 -17   1  -5    2.20    1.70 
 -17   1   5    0.80    1.40 
 -17   1   5    1.20    1.00 
   1  17   5    0.50    0.70 
  17  -2  -5    0.10    0.60 
 -17   2  -5   -1.20    1.00 
   2  17   5   -0.30    0.60 
 -17   2   5    1.00    1.00 
 -17   3  -5   14.90    2.50 
   3  17   5   15.00    1.80 
 -17   3   5   14.30    2.10 
 -17   3   5   10.80    2.10 
 -17   4  -5    0.60    1.10 
  17  -4  -5    1.30    0.70 
 -17   4   5    0.00    1.00 
 -17   4   5    1.10    0.90 
   4  17   5    1.00    0.70 
 -17   5  -5    2.10    1.40 
 -17   5   5    1.50    0.90 
 -17   5   5    0.40    1.10 
   0   0  -6 3293.47  348.17 
   0   0  -6 4026.40  367.66 
   0   0   6 3530.85  348.67 
   0   0   6 2977.90  356.86 
   0   1  -6   13.00    1.40 
  -1   0  -6   11.90    1.40 
   0  -1  -6   12.90    1.50 
  -1   0  -6   12.70    1.50 
   0   1  -6   12.50    1.40 
   1   0  -6   11.70    1.40 
   1   0  -6   12.10    1.40 
   0  -1  -6   12.80    1.40 
   0  -1   6   13.80    1.50 
   0  -1   6   13.90    1.40 
   0   1   6   13.60    1.50 
   0   1   6   13.00    1.40 
  -1   0   6   11.10    1.40 
  -1   0   6   12.70    1.50 
   1   0   6   12.70    1.60 
   1   0   6   10.60    1.40 
   1  -1  -6    3.10    0.60 
  -1  -1  -6    4.00    0.60 
  -1   1  -6    4.00    0.70 
  -1  -1  -6    2.20    0.60 
   1   1  -6    2.70    0.50 
   1   1  -6    3.10    0.50 
   1  -1  -6    3.10    0.50 
  -1   1  -6    4.30    0.60 
  -1   1   6    3.20    0.60 
  -1   1   6    4.10    0.60 
  -1  -1   6    3.40    0.60 
   1   1   6    2.80    0.60 
   1  -1   6    4.60    0.50 
   1  -1   6    3.20    0.70 
   1   1   6    3.30    0.50 
  -1  -1   6    2.80    0.60 
   2   1  -6   21.90    2.50 
  -1   2  -6   23.60    2.50 
   2   1  -6   23.80    2.60 
   1  -2  -6   22.80    2.50 
  -1   2  -6   21.60    2.50 
  -2  -1  -6   19.60    2.60 
  -2  -1  -6   23.40    2.50 
  -2  -1   6   26.10    2.50 
   1  -2   6   18.90    2.60 
  -1   2   6   26.10    2.50 
   1  -2   6   25.70    2.50 
   2   1   6   24.70    2.50 
  -1   2   6   25.20    2.90 
   2   1   6   20.70    3.10 
  -2  -1   6   21.70    2.50 
   2   0  -6  138.69   14.10 
  -2   0  -6  144.49   14.20 
   0  -2  -6  143.89   14.20 
   0   2  -6  142.79   14.10 
   0   2  -6  141.19   14.10 
   0  -2  -6  125.69   14.10 
  -2   0  -6  132.89   14.10 
   2   0   6  149.09   14.20 
   2   0   6  132.89   14.10 
   0   2   6  130.59   14.10 
  -2   0   6  137.09   14.10 
   0  -2   6  152.58   14.20 
   0  -2   6  134.39   14.10 
   1   2  -6   23.10    2.40 
  -2   1  -6   20.00    2.50 
  -2   1  -6   22.60    2.40 
   2  -1  -6   21.30    2.50 
   2  -1  -6   20.60    2.40 
  -1  -2  -6   22.00    2.50 
  -1  -2  -6   24.00    2.40 
  -1  -2   6   24.10    2.50 
   2  -1   6   23.30    2.40 
   2  -1   6   19.20    2.50 
  -2   1   6   20.20    2.50 
  -2   1   6   24.80    2.50 
  -1  -2   6   23.70    2.40 
   1   2   6   25.90    2.40 
   1   2   6   24.10    2.80 
   2  -2  -6 1065.19  125.39 
  -2  -2  -6 1073.59  124.79 
  -2   2  -6 1125.29  123.39 
   2   2  -6 1231.08  122.89 
   2  -2  -6 1582.44  175.48 
   2  -2   6 1086.69  133.49 
  -2   2   6 1199.68  140.69 
  -2  -2   6 1209.68  124.09 
   2   2   6 1328.17  124.99 
   2   2   6 1521.75  144.69 
  -2  -2   6 1158.98  130.69 
   2  -2   6 1248.98  123.89 
  -2   3  -6    1.30    0.60 
   2  -3  -6    2.00    0.50 
   2  -3  -6    2.00    0.60 
  -3  -2  -6    2.30    0.80 
   3   2  -6    2.00    0.50 
  -3  -2  -6    2.50    0.50 
  -2   3   6    2.60    0.60 
  -3  -2   6    3.40    0.60 
   2  -3   6    1.70    0.50 
  -3  -2   6    2.10    0.50 
  -2   3   6    1.50    0.50 
   2  -3   6    2.10    0.60 
   3   2   6    3.00    0.70 
   3   2   6    2.80    0.50 
   1  -3  -6    3.10    0.60 
  -3  -1  -6    2.30    0.50 
   1  -3  -6    2.90    0.60 
  -1   3  -6    1.70    0.50 
  -3  -1  -6    2.70    0.70 
   3   1  -6    2.20    0.50 
   1  -3   6    1.70    0.60 
   1  -3   6    2.10    0.50 
  -3  -1   6    2.60    0.50 
   3   1   6    2.70    0.40 
  -1   3   6    1.80    0.50 
  -3  -1   6    2.40    0.60 
   3   1   6    1.70    0.70 
  -1   3   6    3.10    0.60 
   0  -3  -6   17.50    1.80 
   0  -3  -6   15.10    1.80 
   3   0  -6   15.60    1.70 
   0   3  -6   14.60    1.60 
  -3   0  -6   13.00    1.90 
  -3   0  -6   14.70    1.60 
   0  -3   6   15.00    1.70 
   0  -3   6   13.40    1.80 
   0   3   6   16.90    1.70 
  -3   0   6   14.50    1.70 
   3   0   6   14.70    1.60 
   3   0   6   12.50    1.80 
   0   3   6   15.30    1.70 
  -3   0   6   16.90    1.70 
   3  -1  -6    2.60    0.50 
  -3   1  -6    2.50    0.70 
   1   3  -6    2.30    0.40 
  -1  -3  -6    2.10    0.70 
  -3   1  -6    3.00    0.50 
  -1  -3  -6    2.00    0.50 
   3  -1   6    3.00    0.50 
  -3   1   6    2.70    0.60 
  -1  -3   6    1.80    0.60 
   1   3   6    2.80    0.50 
  -1  -3   6    1.70    0.50 
  -3   1   6    3.20    0.60 
   1   3   6    2.30    0.60 
   3  -1   6    2.40    0.70 
  -2  -3  -6    2.80    0.50 
   2   3  -6    2.40    0.50 
   3  -2  -6    1.60    0.50 
  -2  -3  -6    1.80    0.70 
  -3   2  -6    0.70    0.60 
   3  -2   6    1.60    0.60 
  -2  -3   6    2.40    0.60 
   3  -2   6    2.80    0.50 
  -3   2   6    3.00    0.60 
   2   3   6    1.10    0.60 
   2   3   6    2.20    0.50 
  -2  -3   6    3.40    0.60 
  -3   2   6    2.30    0.60 
   3   3  -6    6.70    0.90 
   3  -3  -6    7.10    1.00 
  -3  -3  -6    6.80    0.90 
  -3   3  -6    6.00    1.10 
   3  -3   6    5.60    1.00 
  -3  -3   6    7.50    1.00 
  -3  -3   6    7.10    1.00 
  -3   3   6    6.80    1.00 
   3  -3   6    6.80    0.90 
   3   3   6    6.10    1.10 
   3   3   6    8.20    0.90 
  -4  -3  -6   27.50    2.90 
  -4  -3  -6   26.20    3.20 
  -3   4  -6   26.10    3.00 
   3  -4  -6   28.40    3.00 
   4   3  -6   27.60    3.00 
   3  -4   6   24.80    3.00 
  -3   4   6   27.80    3.00 
   3  -4   6   27.40    3.00 
  -3   4   6   26.00    3.00 
  -4  -3   6   28.20    3.00 
   4   3   6   26.90    3.10 
  -4  -3   6   28.60    3.10 
   4   3   6   30.70    2.90 
  -2   4  -6 1438.66  156.38 
  -4  -2  -6 1806.72  176.58 
   2  -4  -6 1236.88  179.78 
   4   2  -6 1649.44  154.68 
  -4  -2  -6 1439.76  156.98 
   4   2   6 1646.04  177.48 
  -4  -2   6 1463.75  161.18 
   4   2   6 1601.14  156.18 
   2  -4   6 1632.74  156.18 
  -2   4   6 1323.17  157.38 
   2  -4   6 1374.26  167.38 
   1  -4  -6   11.90    1.60 
   4   1  -6   13.90    1.60 
  -4  -1  -6   14.70    1.50 
  -4  -1  -6   14.40    2.00 
   1  -4  -6   11.80    1.60 
  -1   4  -6   12.50    1.50 
   1  -4   6   15.80    1.60 
  -1   4   6   13.00    1.60 
  -1   4   6   12.10    1.60 
   4   1   6   15.40    1.70 
  -4  -1   6   14.70    1.60 
   4   1   6   13.90    1.50 
   1  -4   6   13.60    1.60 
   0   4  -6    5.20    0.70 
  -4   0  -6    5.60    1.10 
   4   0  -6    4.10    0.70 
   0  -4  -6    5.70    0.90 
  -4   0  -6    4.60    0.70 
   0  -4  -6    5.70    0.90 
   0  -4   6    6.90    0.90 
  -4   0   6    4.90    0.80 
  -4   0   6    5.40    0.80 
   4   0   6    4.00    0.60 
   0   4   6    5.80    0.80 
   4   0   6    4.30    0.90 
   0   4   6    5.00    0.80 
   0  -4   6    5.10    0.80 
  -1  -4  -6   14.70    1.80 
   4  -1  -6   13.30    1.60 
  -4   1  -6   15.90    1.90 
   1   4  -6   13.20    1.50 
  -1  -4  -6   11.90    1.60 
   1   4   6   15.40    1.70 
  -1  -4   6   12.50    1.60 
  -1  -4   6   14.70    2.00 
  -4   1   6   13.90    1.60 
   4  -1   6   14.60    1.50 
  -4   1   6   15.30    1.70 
   1   4   6   14.60    1.60 
   4  -1   6   14.10    1.70 
  -2  -4  -6 1698.13  187.18 
   2   4  -6 1521.35  156.38 
   4  -2  -6 1758.82  190.08 
  -4   2  -6 1557.84  157.38 
  -2  -4   6 1421.96  164.08 
  -2  -4   6 1548.25  156.98 
  -4   2   6 1223.58  170.88 
   2   4   6 1613.04  158.88 
   4  -2   6 1444.76  170.38 
  -3  -4  -6   27.00    3.00 
  -4   3  -6   28.10    3.10 
   4  -3  -6   27.10    2.90 
  -3  -4  -6   24.90    3.20 
  -3  -4   6   25.90    3.00 
  -4   3   6   29.20    3.00 
  -4   3   6   27.80    3.00 
   4  -3   6   25.10    3.00 
  -3  -4   6   26.70    2.90 
   3   4   6   29.40    2.90 
   4  -3   6   29.20    2.90 
   3   4   6   24.90    3.00 
  -4   4  -6 1457.95  145.69 
   4   4  -6 1244.68  120.99 
   4  -4  -6  953.60  126.39 
  -4   4  -6 1213.68  123.19 
   4  -4  -6 1325.17  160.28 
  -4  -4  -6 1064.99  138.99 
   4  -4   6 1034.60  137.29 
   4  -4   6 1331.07  123.79 
  -4  -4   6 1046.10  122.19 
  -4   4   6 1163.78  148.79 
   4   4   6 1296.77  124.19 
  -4  -4   6 1195.78  128.19 
   4  -5  -6   46.20    5.50 
  -5  -4  -6   57.49    5.40 
  -4   5  -6   42.30    5.50 
  -5  -4  -6   51.29    5.70 
  -5  -4   6   55.09    5.50 
   5   4   6   55.89    5.40 
  -4   5   6   55.79    5.50 
  -4   5   6   52.19    5.50 
   5   4   6   52.89    5.60 
   5   3  -6   24.70    2.50 
  -3   5  -6   20.40    2.60 
   3  -5  -6   25.40    2.60 
  -5  -3  -6   20.10    2.90 
  -5  -3  -6   24.80    2.50 
  -5  -3   6   27.30    2.60 
  -3   5   6   26.90    2.60 
   5   3   6   18.80    2.60 
   3  -5   6   18.80    2.50 
  -3   5   6   22.70    2.50 
  -5  -2  -6   13.00    1.50 
   5   2  -6   11.90    1.50 
   2  -5  -6   12.60    1.60 
  -2   5  -6   13.80    1.50 
  -5  -2  -6   14.50    2.00 
  -5  -2   6   12.40    1.90 
  -2   5   6   14.30    1.60 
  -2   5   6   11.90    1.60 
   2  -5   6   15.20    1.50 
   2  -5   6   12.10    1.50 
   5   2   6   11.90    1.70 
   5   2   6   12.10    1.50 
  -5  -1  -6    9.70    1.70 
  -5  -1  -6   10.30    1.20 
   5   1  -6   10.00    1.20 
  -1   5  -6    9.30    1.20 
   1  -5  -6   11.40    1.40 
   1  -5  -6   10.90    1.40 
  -1   5   6   10.10    1.30 
   5   1   6    9.70    1.40 
  -1   5   6   14.10    1.40 
   5   1   6   10.20    1.20 
   1  -5   6    9.40    1.20 
   1  -5   6   11.40    1.40 
  -5  -1   6    9.60    1.40 
  -5   0  -6    0.80    0.70 
   0  -5  -6    0.60    0.50 
  -5   0  -6    0.60    0.30 
   5   0  -6    0.30    0.30 
   0  -5  -6    0.20    0.50 
  -5   0   6    0.40    0.50 
   0  -5   6    0.30    0.40 
   5   0   6   -0.20    0.50 
   0   5   6    0.10    0.50 
   0  -5   6    0.70    0.50 
   0   5   6    0.30    0.50 
   5   0   6   -0.10    0.20 
  -1  -5  -6   14.40    1.50 
   5  -1  -6   12.00    1.30 
  -1  -5  -6   11.00    1.60 
  -5   1  -6    8.60    1.60 
   5  -1   6    9.10    1.50 
   1   5   6   10.50    1.40 
   1   5   6   12.10    1.50 
   5  -1   6   11.10    1.20 
  -1  -5   6    8.60    1.30 
  -1  -5   6   13.00    1.50 
  -2  -5  -6   11.10    1.60 
  -2  -5  -6   16.00    1.80 
   5  -2  -6   11.20    1.50 
  -2  -5   6   13.90    1.60 
   2   5   6   13.20    1.60 
   5  -2   6   17.00    1.80 
   5  -2   6   12.80    1.50 
   2   5   6   13.30    1.70 
  -5   2   6   12.50    1.60 
  -5   2   6   14.30    1.70 
  -2  -5   6   13.60    1.60 
  -3  -5  -6   20.10    2.80 
  -5   3  -6   20.30    2.70 
   5  -3  -6   24.60    2.60 
  -3  -5  -6   23.20    2.60 
   3   5   6   22.00    2.70 
  -5   3   6   24.90    2.60 
   3   5   6   25.90    2.50 
   5  -3   6   23.90    2.50 
  -5   3   6   23.20    2.60 
   5  -3   6   19.00    2.60 
  -3  -5   6   23.10    2.50 
  -3  -5   6   23.80    2.60 
  -4  -5  -6   48.50    5.60 
  -5   4  -6   53.09    5.70 
   5  -4  -6   59.09    5.60 
  -4  -5  -6   50.09    5.80 
  -4  -5   6   55.49    5.60 
   5  -4   6   56.89    5.50 
  -5   4   6   58.39    5.60 
   5  -4   6   45.60    5.60 
  -4  -5   6   48.10    5.50 
  -5   4   6   54.79    5.60 
   4   5   6   46.80    5.60 
   4   5   6   58.89    5.50 
   5  -5  -6    3.50    0.80 
  -5  -5  -6    3.70    0.80 
  -5  -5  -6    3.10    1.10 
  -5   5  -6    3.10    0.90 
  -5   5   6    4.60    0.90 
   5  -5   6    2.70    0.70 
  -5  -5   6    4.70    0.90 
  -5   5   6    4.10    0.80 
   5   5   6    3.90    0.90 
   5   5   6    4.40    0.80 
  -6  -5  -6   37.30    4.20 
  -5   6  -6   34.00    3.80 
   5  -6  -6   32.70    3.80 
  -6  -5  -6   36.20    3.80 
  -5   6   6   34.50    3.80 
   5  -6   6   29.30    3.70 
  -6  -5   6   37.80    3.80 
  -5   6   6   34.10    3.80 
   6   5   6   37.00    3.70 
   6   5   6   38.10    3.90 
  -6  -4  -6   16.80    1.90 
  -4   6  -6   16.60    2.00 
  -6  -4  -6   14.80    2.40 
   4  -6  -6   14.70    2.00 
   6   4   6   18.10    2.10 
  -4   6   6   17.50    2.00 
   6   4   6   17.60    1.90 
  -4   6   6   14.30    2.00 
  -6  -4   6   17.00    2.00 
   4  -6   6   16.90    1.90 
  -3   6  -6   11.00    1.50 
  -6  -3  -6   12.90    1.40 
   3  -6  -6   12.40    1.60 
  -6  -3  -6    9.20    1.90 
   6   3  -6   11.20    1.40 
   6   3   6    9.70    1.60 
   6   3   6   12.40    1.30 
  -3   6   6   14.00    1.50 
   3  -6   6    9.00    1.30 
  -6  -3   6   13.10    1.50 
  -3   6   6   14.60    1.60 
  -6  -2  -6  110.39   10.90 
   2  -6  -6   97.69   11.00 
  -2   6  -6  108.39   10.90 
  -6  -2  -6  113.69   11.30 
   6   2  -6  106.29   10.90 
   6   2   6  109.59   11.10 
  -6  -2   6  103.39   11.00 
   2  -6   6  109.39   10.90 
  -2   6   6  105.89   11.00 
   6   2   6  108.09   10.90 
  -2   6   6  106.39   11.00 
   1  -6  -6   75.79    7.10 
   1  -6  -6   69.89    7.10 
   6   1  -6   67.99    7.00 
  -6  -1  -6   58.89    7.20 
  -6  -1  -6   65.19    6.90 
  -1   6  -6   66.79    6.90 
   1  -6   6   56.99    6.90 
  -1   6   6   78.39    7.10 
  -6  -1   6   67.39    7.00 
   6   1   6   72.89    6.90 
  -1   6   6   67.39    7.00 
   0  -6  -6 1062.19  125.29 
   6   0   6 1423.76  125.49 
  -1  -6  -6   65.89    7.10 
  -6   1  -6   61.39    7.20 
   6  -1  -6   66.59    7.00 
  -1  -6  -6   64.59    7.10 
   1   6   6   67.89    7.10 
  -1  -6   6   60.69    6.90 
  -6   1   6   72.59    7.00 
   6  -1   6   56.49    7.10 
   1   6   6   80.69    7.10 
   6  -1   6   70.49    6.90 
  -1  -6   6   76.29    7.10 
  -6   2  -6  119.29   11.40 
  -2  -6  -6  117.09   11.40 
  -2  -6  -6   99.49   11.20 
   6  -2  -6  102.89   11.20 
  -2  -6   6  107.69   11.30 
   6  -2   6  117.39   11.30 
   6  -2   6  106.29   11.10 
  -2  -6   6  105.59   11.10 
  -6   2   6  107.19   11.20 
   2   6   6  113.59   11.20 
   2   6   6  109.39   11.20 
  -3  -6  -6   15.30    1.70 
   6  -3  -6   12.80    1.50 
  -6   3  -6   13.50    1.80 
  -3  -6  -6   10.50    1.90 
   6  -3   6    8.50    1.60 
  -3  -6   6   15.50    1.70 
   3   6   6   14.30    1.80 
  -6   3   6   11.90    1.60 
   3   6   6   10.30    1.60 
   6  -3   6   12.70    1.40 
  -3  -6   6   11.30    1.40 
   6  -4  -6   15.30    1.90 
  -4  -6  -6   14.50    2.10 
  -6   4  -6   16.80    2.10 
  -4  -6  -6   21.30    2.50 
   4   6   6   16.70    1.90 
  -6   4   6   15.00    2.00 
  -4  -6   6   17.90    2.00 
   6  -4   6   16.70    1.90 
   6  -4   6   18.00    2.00 
  -6   4   6   16.00    2.00 
   4   6   6   17.00    2.00 
  -4  -6   6   17.00    1.90 
  -5  -6  -6   35.40    4.10 
  -6   5  -6   37.20    3.90 
   6  -5  -6   34.10    3.70 
  -5  -6  -6   35.90    3.80 
  -5  -6   6   32.50    3.80 
   5   6   6   32.10    3.80 
   5   6   6   35.20    3.70 
  -5  -6   6   30.30    3.60 
  -6   5   6   37.50    3.80 
   6  -5   6   33.30    3.70 
  -6   5   6   38.10    3.80 
  -6   6  -6 1169.28  107.99 
  -6  -6  -6 1152.68  108.19 
   6  -6  -6  901.31  107.89 
  -6  -6  -6  972.70  107.89 
   6  -6   6 1111.59  107.89 
  -6  -6   6 1022.70  107.99 
   6   6   6 1222.08  107.99 
  -6   6   6 1034.90  107.89 
   6   6   6 1036.20  107.89 
  -7  -6  -6   20.90    3.10 
  -7  -6  -6   23.60    3.10 
  -6   7  -6   26.60    2.70 
   6  -7  -6   20.70    2.70 
  -7  -6   6   21.90    2.50 
  -6   7   6   21.60    2.60 
   7   6   6   21.70    2.60 
  -6   7   6   22.10    2.70 
  -7  -6   6   22.60    2.70 
   5  -7  -6   10.80    1.70 
  -7  -5  -6    9.20    1.90 
  -5   7  -6    8.50    1.50 
  -7  -5  -6   11.70    1.50 
  -5   7   6   12.10    1.50 
   7   5   6   13.10    1.50 
  -5   7   6   14.00    1.70 
  -7  -5   6   10.70    1.60 
   7   5   6    8.00    1.50 
   4  -7  -6   11.90    1.50 
  -4   7  -6    9.40    1.30 
  -7  -4  -6    7.30    1.60 
   4  -7   6    7.90    1.10 
  -4   7   6    9.30    1.50 
   7   4   6    9.60    1.40 
  -7  -4   6   11.50    1.40 
  -4   7   6   10.10    1.30 
  -7  -3  -6    6.00    0.80 
  -3   7  -6    5.20    0.90 
   3  -7  -6    5.90    1.10 
   7   3  -6    4.90    0.80 
  -7  -3  -6    6.60    1.40 
   7   3   6    4.50    1.10 
  -7  -3   6    5.60    1.00 
  -3   7   6    5.30    1.00 
  -3   7   6    4.90    0.90 
   7   3   6    7.50    0.80 
   3  -7   6    4.10    0.70 
  -7  -2  -6   63.09    7.60 
   2  -7  -6   70.99    7.50 
   7   2  -6   69.99    7.30 
  -2   7  -6   69.49    7.30 
  -7  -2  -6   69.99    7.20 
  -2   7   6   76.09    7.40 
   2  -7   6   69.69    7.20 
  -2   7   6   81.69    7.40 
  -7  -2   6   71.99    7.40 
   7   2   6   61.49    7.50 
   7   2   6   73.19    7.20 
   1  -7  -6   23.00    2.80 
   1  -7  -6   22.80    2.80 
  -7  -1  -6   21.90    3.00 
   7   1  -6   24.10    2.60 
  -1   7  -6   21.00    2.50 
   7   1   6   20.70    2.80 
  -7  -1   6   27.70    2.70 
  -1   7   6   22.10    2.60 
  -1   7   6   26.50    2.80 
   7   1   6   26.90    2.50 
  -7   0  -6   13.10    1.80 
   0  -7  -6   11.10    1.60 
   7   0  -6   11.50    1.40 
   0  -7  -6   15.30    1.80 
   7   0   6   15.50    1.80 
   0   7   6   12.50    1.60 
  -7   0   6   11.20    1.50 
   0   7   6   10.90    1.60 
   7   0   6   10.80    1.30 
  -7   1  -6   20.60    2.90 
  -1  -7  -6   23.70    2.90 
   7  -1  -6   25.90    2.60 
  -1  -7  -6   23.20    2.90 
   1   7   6   19.00    2.70 
   7  -1   6   21.70    2.80 
   7  -1   6   25.70    2.50 
   1   7   6   26.00    2.80 
  -7   1   6   26.20    2.70 
  -7   2  -6   69.19    7.80 
  -2  -7  -6   72.09    7.80 
  -2  -7  -6   72.79    7.80 
   7  -2  -6   70.99    7.60 
  -7   2   6   73.39    7.60 
  -2  -7   6   78.39    7.70 
   7  -2   6   68.69    7.80 
   2   7   6   81.49    7.70 
  -2  -7   6   72.59    7.50 
   2   7   6   78.69    7.70 
   7  -2   6   72.09    7.50 
  -7   3  -6    3.90    1.10 
   7  -3  -6    7.00    0.90 
  -3  -7  -6    7.20    1.30 
  -3  -7  -6    4.00    1.30 
   7  -3   6    5.00    1.00 
  -7   3   6    6.80    1.00 
   3   7   6    5.50    1.00 
  -3  -7   6    4.90    0.80 
   3   7   6    6.50    1.00 
   7  -3   6    7.00    0.80 
  -3  -7   6    5.80    1.10 
   7  -4  -6   12.80    1.40 
  -4  -7  -6    8.70    1.80 
  -4  -7  -6    9.80    1.60 
  -7   4  -6   11.90    1.70 
   7  -4   6    8.90    1.50 
   4   7   6    8.80    1.50 
  -4  -7   6   10.50    1.60 
  -4  -7   6    9.40    1.30 
   7  -4   6   12.70    1.30 
  -7   4   6   13.20    1.50 
   4   7   6   11.90    1.50 
   7  -5  -6   11.70    1.40 
  -5  -7  -6    9.70    1.80 
  -7   5  -6    9.50    1.60 
  -5  -7  -6   11.60    1.70 
  -5  -7   6    9.30    1.30 
   7  -5   6    8.40    1.40 
   5   7   6   12.50    1.50 
   5   7   6   10.60    1.50 
  -5  -7   6    8.10    1.20 
  -7   5   6   12.40    1.60 
  -5  -7   6   12.10    1.60 
  -6  -7  -6   21.30    2.80 
  -6  -7  -6   23.70    3.10 
   7  -6  -6   19.20    2.60 
  -7   6  -6   21.40    2.70 
  -6  -7   6   25.60    2.50 
   6   7   6   27.10    2.70 
  -6  -7   6   21.40    2.70 
   7  -6   6   21.80    2.60 
  -7   6   6   21.30    2.70 
   7  -7  -6   40.00    4.80 
  -7  -7  -6   38.10    4.60 
  -7   7  -6   35.10    4.40 
  -7  -7  -6   46.10    4.40 
  -7   7   6   37.30    4.30 
  -7  -7   6   40.70    4.40 
  -7   7   6   45.80    4.40 
   7   7   6   34.10    4.30 
  -8  -7  -6   45.30    4.70 
  -7   8  -6   36.60    4.40 
  -8  -7  -6   44.20    4.50 
   7  -8  -6   44.00    4.50 
  -7   8   6   41.20    4.30 
  -8  -7   6   31.70    4.30 
  -8  -7   6   37.40    4.40 
  -7   8   6   46.00    4.60 
   6  -8  -6    9.10    1.50 
  -6   8  -6   10.00    1.40 
  -8  -6  -6   11.10    1.40 
  -8  -6  -6    7.70    1.80 
  -6   8   6    6.50    1.30 
  -8  -6   6    5.40    1.10 
   8   6   6    7.40    1.40 
  -8  -6   6    7.80    1.40 
  -6   8   6    8.30    1.50 
   5  -8  -6   27.60    3.20 
  -8  -5  -6   27.30    3.50 
  -5   8  -6   23.40    3.00 
  -8  -5  -6   28.10    2.90 
  -5   8   6   32.30    3.30 
  -8  -5   6   28.60    3.10 
  -5   8   6   26.20    3.00 
   8   5   6   23.10    3.20 
  -4   8  -6  101.89   10.10 
  -8  -4  -6  104.29   10.40 
  -8  -4  -6   94.69   10.00 
  -4   8   6   95.49   10.10 
  -8  -4   6   94.89   10.10 
  -4   8   6   87.09   10.20 
   8   4   6  109.49   10.30 
   3  -8  -6   13.70    2.10 
   8   3  -6   15.70    1.70 
  -8  -3  -6   15.00    1.60 
  -8  -3  -6   11.60    2.20 
  -3   8  -6   13.80    1.70 
  -3   8   6   15.30    2.10 
   8   3   6   13.20    2.00 
  -8  -3   6   14.30    1.90 
   8   3   6   16.60    1.70 
  -3   8   6   15.50    1.90 
   8   2  -6  367.76   38.70 
  -8  -2  -6  376.76   38.90 
   2  -8  -6  369.26   38.80 
  -2   8  -6  372.86   38.60 
  -2   8   6  377.16   38.70 
  -2   8   6  391.66   38.80 
  -8  -2   6  380.76   38.70 
   8   2   6  418.16   38.60 
   8   1  -6   25.80    2.80 
   1  -8  -6   26.90    3.10 
  -8  -1  -6   24.00    3.10 
   1  -8  -6   23.00    3.10 
  -1   8  -6   24.20    2.60 
   8   1   6   26.70    2.60 
  -1   8   6   25.70    2.90 
  -1   8   6   25.20    3.00 
  -8  -1   6   26.00    2.90 
   8   1   6   29.20    3.10 
  -8   0  -6  247.88   22.10 
   8   0  -6  212.18   21.90 
   0  -8  -6  235.88   22.10 
   0  -8  -6  185.38   22.00 
  -8   0   6  206.88   21.90 
   0   8   6  234.98   21.90 
   0   8   6  199.48   21.90 
   8   0   6  204.88   21.70 
   8  -1  -6   19.40    3.00 
  -1  -8  -6   20.90    3.00 
  -8   1  -6   28.40    3.10 
  -1  -8  -6   26.70    3.10 
   1   8   6   23.40    2.80 
  -8   1   6   25.30    2.80 
   8  -1   6   28.90    3.10 
   8  -1   6   26.80    2.60 
   1   8   6   25.00    2.90 
  -2  -8  -6  394.86   39.10 
  -2  -8  -6  356.86   39.10 
  -8   2  -6  390.26   39.10 
   2   8   6  388.46   39.00 
   8  -2   6  392.56   39.10 
  -8   2   6  379.76   38.90 
   2   8   6  382.16   39.00 
   8  -2   6  388.46   38.80 
  -8   3  -6   12.60    2.00 
  -3  -8  -6   16.70    2.20 
  -3  -8  -6   15.80    2.30 
  -8   3   6   16.00    1.90 
   8  -3   6   13.70    2.00 
   3   8   6   13.30    1.90 
   3   8   6   16.30    2.00 
  -3  -8   6   15.40    1.90 
   8  -3   6   14.00    1.60 
  -4  -8  -6   82.29   10.50 
  -8   4  -6  118.39   10.50 
  -4  -8  -6  107.09   10.60 
   8  -4  -6   83.39   10.40 
   4   8   6   90.59   10.30 
   8  -4   6  108.99   10.40 
  -8   4   6   93.69   10.30 
  -4  -8   6   97.99   10.40 
   8  -4   6  102.59   10.20 
  -4  -8   6  101.19   10.20 
  -4  -8   6  113.19   10.20 
  -5  -8  -6   27.90    3.20 
  -5  -8  -6   23.50    3.30 
  -8   5  -6   22.60    3.10 
   8  -5  -6   27.00    3.20 
   8  -5   6   20.80    2.90 
   5   8   6   33.20    3.00 
  -5  -8   6   31.50    3.10 
  -8   5   6   28.00    3.00 
   5   8   6   24.70    2.90 
  -5  -8   6   26.30    2.80 
  -5  -8   6   23.10    2.70 
  -6  -8  -6    7.20    1.70 
  -8   6  -6    8.90    1.90 
  -8   6   6    5.80    1.30 
  -6  -8   6    6.40    0.90 
  -7  -8  -6   44.50    4.50 
  -7  -8  -6   39.70    4.60 
  -8   7  -6   38.30    4.40 
  -8   7   6   43.20    4.50 
  -7  -8   6   42.00    4.50 
  -7  -8   6   36.40    4.10 
  -8   7   6   36.50    4.30 
  -8  -8  -6    3.50    1.10 
  -8  -8  -6    0.50    1.10 
  -8   8  -6    0.40    0.80 
  -8   8   6    1.40    0.80 
  -8  -8   6   -0.20    0.80 
   8   8   6    0.40    0.70 
  -8   8   6   -0.20    1.00 
  -8  -8   6    1.00    0.50 
  -8   9  -6   11.70    1.80 
  -9  -8  -6   12.10    2.10 
  -9  -8  -6   12.70    1.80 
   8  -9   6    8.90    2.20 
  -9  -8   6    9.90    1.40 
   9   8   6    9.30    1.60 
  -9  -8   6   11.80    1.80 
  -8   9   6   13.40    2.00 
  -9  -7  -6    5.40    1.50 
  -7   9  -6    4.30    1.10 
  -9  -7   6    4.40    0.80 
  -9  -7   6    6.40    1.20 
  -7   9   6    4.90    1.30 
   9   7   6    4.60    1.10 
  -9  -6  -6   16.50    2.40 
  -6   9  -6   16.80    2.10 
  -9  -6  -6   19.90    2.00 
   6  -9  -6   17.40    2.30 
  -6   9   6   18.50    2.40 
  -9  -6   6   13.90    1.90 
  -9  -6   6   16.60    2.20 
   9   6   6   12.60    2.10 
   5  -9  -6    2.20    1.10 
  -9  -5  -6    2.70    0.60 
  -9  -5  -6    1.50    1.20 
  -5   9  -6    0.70    0.70 
   9   5   6    1.40    0.90 
  -9  -5   6    1.60    0.70 
  -9  -5   6    2.90    1.00 
  -5   9   6    2.90    1.10 
  -9  -4  -6    4.00    0.60 
  -4   9  -6    3.60    0.80 
   4  -9  -6    4.00    1.20 
  -9  -4  -6    3.00    1.30 
   9   4   6    4.00    1.10 
  -9  -4   6    4.30    1.00 
  -4   9   6    2.30    1.40 
  -4   9   6    4.20    1.20 
  -9  -3  -6    5.90    1.50 
  -3   9  -6    5.10    0.90 
   3  -9  -6    7.50    1.50 
  -3   9   6    6.50    1.20 
  -9  -3   6    7.00    1.20 
  -3   9   6    5.40    1.20 
   9   3   6    5.70    1.20 
   2  -9  -6   16.20    2.30 
  -9  -2  -6   14.00    2.20 
   9   2  -6   14.20    1.70 
  -2   9  -6   13.60    1.60 
  -2   9   6   17.20    2.10 
  -9  -2   6   14.20    1.90 
  -2   9   6   14.60    1.80 
   9   2   6   12.80    2.00 
  -9  -1  -6   12.50    2.30 
   1  -9  -6   18.60    3.00 
   9   1  -6   16.60    2.00 
  -1   9   6   21.50    2.30 
  -9  -1   6   18.80    2.20 
  -1   9   6   16.60    2.10 
   0  -9  -6   11.50    1.80 
   0  -9  -6    9.20    1.60 
  -9   0  -6    6.70    1.40 
   9   0  -6    7.60    1.10 
  -9   0   6    9.20    1.30 
   0   9   6    7.40    1.20 
   9   0   6    6.90    2.10 
   0   9   6    6.40    1.30 
  -9   1  -6   13.00    2.30 
   9  -1  -6   15.40    2.00 
  -1  -9  -6   18.50    2.50 
  -1  -9  -6   18.00    2.40 
   9  -1   6   19.10    1.80 
   9  -1   6   13.80    2.30 
  -9   1   6   18.20    2.20 
   1   9   6   16.00    2.10 
   1   9   6   24.10    2.30 
  -2  -9  -6   17.30    2.50 
   9  -2  -6   16.60    1.90 
  -9   2  -6   12.80    2.20 
  -2  -9  -6   15.40    2.40 
  -9   2   6   15.00    2.00 
   2   9   6   16.50    2.10 
   9  -2   6   15.00    1.70 
   2   9   6   17.10    2.00 
   9  -2   6   15.00    2.10 
  -3  -9  -6    6.30    1.50 
   9  -3  -6    7.80    1.10 
  -9   3  -6    6.20    1.40 
  -3  -9  -6    6.60    1.60 
   9  -3   6    4.90    1.20 
   9  -3   6    7.70    0.90 
  -9   3   6    9.30    1.30 
   3   9   6    4.20    1.20 
   3   9   6    8.10    1.30 
   9  -4  -6    4.60    0.80 
  -4  -9  -6    2.10    1.30 
  -4  -9  -6    2.90    1.30 
  -9   4  -6    1.90    1.10 
  -4  -9   6    3.10    1.10 
   9  -4   6    4.20    1.10 
   4   9   6    3.30    1.00 
   9  -4   6    3.00    0.60 
  -9   4   6    2.70    1.00 
  -5  -9  -6    0.90    1.20 
   9  -5  -6    2.80    0.80 
  -9   5  -6    1.80    1.00 
  -5  -9  -6    4.40    1.40 
  -9   5   6    1.80    1.00 
  -5  -9   6    1.80    0.50 
  -5  -9   6    1.90    0.90 
  -5  -9   6    2.10    0.40 
   5   9   6    2.20    0.90 
  -6  -9  -6   20.00    2.60 
  -6  -9  -6   15.10    2.40 
   9  -6  -6   13.90    2.10 
  -9   6   6   16.40    2.20 
  -6  -9   6   19.90    2.30 
  -6  -9   6   16.90    1.80 
   9  -6   6   16.10    2.30 
  -6  -9   6   14.90    1.80 
   6   9   6   16.80    2.10 
  -7  -9  -6    6.80    1.50 
  -7  -9  -6    7.40    1.60 
  -9   7  -6    4.50    1.30 
   9  -7  -6    5.40    1.10 
  -9   7   6    7.40    1.40 
  -7  -9   6    5.50    1.30 
  -7  -9   6    6.30    0.90 
   9  -7   6    6.40    1.40 
   7   9   6    3.70    1.00 
   9  -8  -6    9.90    1.80 
  -8  -9  -6   12.00    1.90 
  -9   8  -6   10.30    1.80 
  -8  -9  -6   13.20    2.00 
  -9   8   6   13.30    1.90 
  -8  -9   6   11.10    1.80 
   9  -8   6    6.40    1.80 
   8   9   6   13.20    1.70 
  -8  -9   6    9.70    1.30 
  -9  -9  -6   -0.30    1.00 
  -9   9  -6    1.80    1.00 
  -9  -9  -6   -0.10    1.00 
  -9   9   6   -0.30    1.00 
  -9  -9   6    1.00    0.90 
  -9  -9   6    0.40    0.50 
   9  -9   6    0.20    1.10 
  -9  10  -6    3.90    1.20 
 -10  -9  -6    6.20    1.30 
 -10  -9  -6    2.80    1.50 
  -9  10   6    3.90    1.40 
 -10  -9   6    4.60    1.20 
   9 -10   6    2.80    1.50 
 -10  -9   6    5.00    0.90 
 -10  -8  -6  247.18   25.80 
  -8  10  -6  273.57   25.90 
 -10  -8   6  243.08   26.00 
 -10  -8   6  266.27   25.80 
  -8  10   6  237.78   26.00 
 -10  -7  -6   18.80    2.50 
  -7  10  -6   13.70    2.00 
 -10  -7  -6   13.70    1.90 
  -7  10   6   16.10    2.40 
 -10  -7   6   13.10    2.10 
 -10  -7   6   15.90    1.80 
   7 -10   6   13.20    2.50 
 -10  -6  -6   23.00    2.40 
  -6  10  -6   19.50    2.50 
 -10  -6  -6   20.80    2.80 
  -6  10   6   19.30    2.50 
  -6  10   6   22.70    2.80 
 -10  -6   6   21.50    2.70 
 -10  -6   6   20.10    2.40 
 -10  -5  -6   17.90    2.60 
 -10  -5  -6   17.40    1.90 
  -5  10  -6   20.40    2.10 
  -5  10   6   16.60    2.10 
 -10  -5   6   15.80    2.30 
  10   5   6   17.30    2.40 
 -10  -5   6   18.00    2.10 
  -5  10   6   16.60    2.50 
  -4  10  -6  678.93   67.99 
 -10  -4  -6  754.72   68.39 
 -10  -4   6  721.23   68.09 
  -4  10   6  597.74   68.19 
  10   4   6  702.43   68.29 
 -10  -4   6  589.44   68.09 
 -10  -3  -6    8.30    1.70 
  -3  10  -6    7.50    1.00 
  10   3   6    4.30    1.30 
  -3  10   6    8.50    1.30 
  -3  10   6    5.70    1.30 
 -10  -3   6    8.80    1.30 
  10   2  -6  180.18   18.40 
   2 -10  -6  200.18   18.80 
  -2  10  -6  178.28   18.30 
  -2  10   6  190.38   18.50 
 -10  -2   6  174.28   18.50 
  -2  10   6  163.78   18.50 
 -10  -1  -6   23.40    3.20 
  10   1  -6   25.90    2.90 
   1 -10  -6   26.90    3.40 
 -10  -1   6   29.20    3.10 
  10   1   6   24.20    3.20 
  -1  10   6   26.00    3.00 
  -1  10   6   30.70    3.20 
   0 -10  -6  118.59   12.00 
   0 -10  -6  110.69   12.10 
 -10   0  -6  110.39   12.00 
  10   0  -6  113.19   11.80 
 -10   0   6  112.59   11.80 
   0  10   6  118.79   11.80 
  10   0   6  114.49   12.10 
   0  10   6  120.89   11.90 
 -10   1  -6   23.30    3.30 
  10  -1  -6   25.40    3.00 
  -1 -10  -6   27.70    3.60 
  -1 -10  -6   29.40    3.40 
   1  10   6   28.00    3.10 
  10  -1   6   26.20    3.40 
   1  10   6   30.80    3.30 
 -10   1   6   28.60    3.20 
  -2 -10  -6  197.28   18.80 
  10  -2  -6  170.78   18.50 
 -10   2  -6  215.08   18.80 
  -2 -10  -6  155.88   18.80 
   2  10   6  162.48   18.60 
   2  10   6  203.18   18.60 
  10  -2   6  181.08   18.30 
  10  -2   6  185.28   18.40 
 -10   2   6  166.88   18.50 
 -10   3  -6    6.40    1.50 
  -3 -10  -6    6.60    1.60 
  10  -3  -6    7.10    1.10 
  10  -3   6    8.10    1.10 
  10  -3   6    5.60    1.30 
 -10   3   6    7.80    1.40 
   3  10   6    6.40    1.30 
   3  10   6    7.20    1.40 
  10  -3   6    8.50    0.90 
  -4 -10  -6  685.33   66.49 
  -4 -10  -6  598.64   66.49 
  10  -4  -6  594.44   66.19 
 -10   4  -6  719.33   66.49 
 -10   4   6  610.44   66.29 
   4  10   6  715.13   66.29 
  10  -4   6  674.03   66.09 
  10  -4   6  645.14   66.19 
  -5 -10  -6   18.90    2.90 
  -5 -10  -6   20.00    2.80 
 -10   5  -6   23.40    2.70 
  10  -5  -6   15.80    2.30 
  10  -5   6   20.70    2.50 
   5  10   6   20.10    2.40 
 -10   5   6   17.80    2.60 
  10  -5   6   20.50    2.20 
  -5 -10   6   18.40    2.60 
  -6 -10  -6   23.10    3.00 
  10  -6  -6   19.40    2.50 
  -6 -10  -6   19.50    3.00 
  -6 -10   6   21.00    2.30 
  10  -6   6   24.00    2.70 
  -6 -10   6   20.90    2.70 
 -10   6   6   24.40    2.70 
   6  10   6   27.50    2.80 
  -6 -10   6   19.20    2.20 
  -7 -10  -6   15.60    2.40 
  -7 -10  -6   14.40    2.30 
  10  -7  -6   17.10    2.00 
 -10   7  -6   16.00    2.20 
  -7 -10   6   16.00    2.20 
  -7 -10   6   14.10    1.70 
   7  10   6   15.30    2.00 
  -7 -10   6   14.50    1.70 
  10  -7   6   15.30    2.20 
 -10   7   6   16.40    2.30 
  -8 -10  -6  295.47   27.70 
 -10   8  -6  291.97   27.70 
  -8 -10  -6  252.17   27.60 
  10  -8   6  227.28   27.60 
 -10   8   6  247.58   27.60 
   8  10   6  294.77   27.50 
  -8 -10   6  270.17   27.60 
  -8 -10   6  278.47   27.30 
  -9 -10  -6    5.50    1.50 
  -9 -10  -6    5.30    1.40 
 -10   9  -6    5.10    1.30 
 -10   9   6    4.60    1.70 
  -9 -10   6    3.20    0.80 
  -9 -10   6    4.00    1.20 
  10  -9   6    3.30    1.40 
 -10 -10  -6   22.20    3.30 
 -10  10  -6   31.70    3.30 
 -10 -10  -6   29.70    3.50 
 -10  10   6   19.50    3.30 
  10 -10   6   19.60    3.40 
 -10 -10   6   30.90    2.90 
 -10 -10   6   23.70    3.20 
 -11 -10  -6    4.80    1.30 
 -10  11  -6    5.90    1.30 
 -11 -10  -6    6.70    1.60 
 -11 -10   6    6.00    1.00 
 -10  11   6    4.20    1.50 
 -11 -10   6    7.80    1.60 
  -9  11  -6    3.20    1.10 
 -11  -9  -6    3.50    1.00 
 -11  -9  -6    1.40    1.20 
 -11  -9   6    3.50    1.20 
  -9  11   6    3.00    1.30 
 -11  -9   6    3.80    0.80 
 -11  -8  -6    6.00    1.30 
  -8  11  -6    6.20    1.20 
 -11  -8  -6    6.40    1.70 
 -11  -8   6    6.50    1.10 
 -11  -8   6    6.10    1.40 
  -8  11   6    8.50    1.70 
 -11  -7  -6    6.90    1.80 
  -7  11  -6    6.00    1.20 
 -11  -7  -6    9.00    1.10 
 -11  -7   6    4.90    1.00 
 -11  -7   6    7.50    1.40 
  -7  11   6    7.00    1.50 
  -6  11  -6    9.50    1.40 
 -11  -6   6    9.50    1.30 
  -6  11   6    8.80    1.90 
 -11  -6   6    9.50    1.60 
  -6  11   6    7.40    1.60 
  -5  11  -6   11.00    1.50 
 -11  -5  -6   12.70    2.10 
 -11  -5   6   10.80    1.50 
  -5  11   6   10.80    1.60 
 -11  -5   6   12.30    1.70 
  -5  11   6    8.20    2.10 
 -11  -4  -6   45.90    5.10 
  -4  11  -6   44.10    4.70 
  -4  11   6   47.80    4.90 
 -11  -4   6   45.20    4.90 
 -11  -4   6   44.50    4.80 
  -4  11   6   42.20    5.00 
 -11  -3  -6   10.50    1.90 
  -3  11  -6    8.60    1.10 
 -11  -3   6   13.30    1.70 
 -11  -3   6    9.50    1.50 
  -3  11   6   11.20    1.80 
 -11  -2  -6   -0.30    0.90 
  11   2  -6    0.00    0.40 
  -2  11   6    0.10    0.70 
 -11  -2   6    0.70    0.80 
  -2  11   6    0.90    0.90 
  11   1  -6    7.30    1.10 
  -1  11   6    7.90    1.30 
 -11  -1   6    8.00    1.30 
  -1  11   6    8.30    1.50 
 -11   0  -6   20.40    2.80 
  11   0  -6   20.00    2.40 
   0 -11  -6   19.80    3.00 
 -11   0   6   25.30    2.70 
   0  11   6   21.60    2.80 
   0  11   6   24.50    2.60 
  11  -1  -6    7.40    1.20 
 -11   1  -6    6.20    1.50 
  -1 -11  -6    8.70    1.60 
  -1 -11  -6   13.40    2.20 
   1  11   6    7.40    1.40 
 -11   1   6    9.10    1.40 
   1  11   6    8.60    1.30 
  -2 -11  -6    1.00    1.30 
  -2 -11  -6    0.60    1.00 
  11  -2  -6    0.60    0.50 
 -11   2  -6    0.20    0.90 
   2  11   6    0.20    0.70 
 -11   2   6   -0.50    0.80 
  -3 -11  -6    9.90    2.00 
 -11   3  -6   12.10    2.10 
  -3 -11  -6   10.50    2.20 
  11  -3  -6   14.80    1.70 
   3  11   6   11.30    1.80 
 -11   3   6   13.40    2.00 
  11  -3   6   13.10    1.40 
  11  -3   6   13.70    1.50 
 -11   4  -6   42.80    5.40 
  -4 -11  -6   57.99    5.60 
  11  -4  -6   46.40    5.10 
  -4 -11  -6   49.30    5.60 
  11  -4   6   49.90    5.00 
  11  -4   6   50.29    5.10 
 -11   4   6   45.20    5.30 
   4  11   6   48.60    5.20 
 -11   5  -6   11.70    2.00 
  -5 -11  -6    9.70    1.90 
  11  -5  -6    9.60    1.50 
  -5 -11  -6    9.00    2.00 
  11  -5   6   13.10    2.00 
 -11   5   6    8.40    1.70 
  11  -5   6   14.00    1.40 
  11  -6  -6   10.10    1.50 
  -6 -11  -6   10.00    1.80 
  -6 -11  -6    6.90    1.80 
   6  11   6    9.80    1.40 
  11  -6   6   11.60    1.60 
  -6 -11   6    8.10    1.70 
 -11   6   6    8.60    1.60 
 -11   7  -6    7.10    1.60 
  11  -7  -6   10.00    1.90 
  -7 -11  -6    9.20    1.70 
  -7 -11  -6    8.90    1.80 
   7  11   6    6.50    1.30 
  -7 -11   6    5.10    1.60 
 -11   7   6    8.60    1.60 
  -7 -11   6    7.90    0.90 
  -7 -11   6    7.00    0.90 
  11  -7   6    9.00    1.50 
  -8 -11  -6    8.00    2.00 
 -11   8  -6    5.00    1.40 
  -8 -11  -6    6.20    1.50 
  -8 -11   6    7.10    2.20 
  11  -8   6    4.90    1.40 
 -11   8   6    3.90    1.50 
  -8 -11   6    6.90    0.90 
 -11   9  -6    3.00    1.20 
  -9 -11  -6    2.30    1.30 
  -9 -11  -6    3.20    1.50 
  -9 -11   6    2.20    1.10 
 -11   9   6    5.10    1.50 
  11  -9   6    5.20    1.40 
  -9 -11   6    1.60    0.60 
 -10 -11  -6    5.30    1.50 
 -11  10  -6    4.20    1.70 
 -10 -11  -6    5.10    1.60 
  11 -10   6    4.60    1.60 
 -11  10   6    7.90    1.70 
 -10 -11   6    6.90    1.00 
 -10 -11   6    7.40    1.50 
 -11 -11  -6    2.80    1.20 
 -11 -11  -6    1.40    1.10 
 -11  11  -6    2.40    1.70 
 -11 -11   6    1.90    0.70 
 -11 -11   6    1.70    1.00 
 -12 -11  -6   14.60    2.80 
 -11  12  -6    7.30    1.60 
 -12 -11  -6    7.60    1.50 
 -12 -11   6   10.60    1.40 
 -12 -11   6    9.00    1.70 
 -10  12  -6   27.20    3.20 
 -12 -10  -6   28.80    3.40 
 -12 -10  -6   22.80    3.00 
 -12 -10   6   26.60    2.90 
 -12 -10   6   26.40    3.50 
 -10  12   6   22.20    3.40 
 -12  -9  -6    0.50    1.20 
  -9  12  -6   -1.00    0.70 
 -12  -9   6    0.80    0.60 
 -12  -9   6    0.50    0.90 
 -12  -8  -6   44.40    5.20 
 -12  -8  -6   62.29    5.90 
  -8  12  -6   54.09    5.40 
 -12  -8   6   51.79    5.60 
 -12  -8   6   52.79    5.40 
  -8  12   6   41.00    5.60 
 -12  -7  -6    3.70    1.40 
  -7  12  -6    2.20    0.80 
 -12  -7   6    3.50    0.80 
 -12  -7   6    3.60    1.10 
  -7  12   6    3.70    1.30 
 -12  -6  -6   27.80    3.40 
  -6  12  -6   30.00    3.00 
 -12  -6   6   29.30    2.90 
 -12  -6   6   19.20    3.00 
  -6  12   6   18.10    3.10 
 -12  -5  -6   15.50    2.30 
  -5  12  -6   10.70    1.40 
  -5  12   6    9.80    1.80 
 -12  -5   6    8.20    1.60 
  -5  12   6   10.30    1.60 
 -12  -5   6   10.90    1.60 
 -12  -4  -6   51.29    5.90 
  -4  12  -6   48.30    5.40 
  -4  12   6   58.19    5.60 
 -12  -4   6   56.19    5.70 
 -12  -4   6   46.80    5.60 
  -4  12   6   60.09    5.90 
 -12  -3  -6    5.50    1.50 
  -3  12   6    3.80    1.20 
 -12  -3   6    5.20    1.10 
 -12  -3   6    6.00    1.20 
  -3  12   6    4.40    1.00 
 -12  -2  -6   23.10    2.80 
  12   2  -6   19.80    2.30 
 -12  -2   6   18.10    2.50 
  -2  12   6   19.50    2.70 
  -2  12   6   20.10    2.40 
 -12  -2   6   20.50    2.50 
 -12  -1  -6   13.40    2.50 
  12   1  -6   13.30    1.70 
 -12  -1   6   15.90    2.00 
  -1  12   6   15.70    2.10 
  12   0  -6  357.26   36.80 
 -12   0  -6  366.06   37.80 
   0  12   6  375.46   36.90 
 -12   0   6  357.36   37.00 
  -1 -12  -6   15.70    2.20 
  12  -1  -6   14.10    1.70 
   1  12   6   13.60    1.90 
 -12   1   6   13.60    2.00 
 -12   2  -6   22.20    3.80 
  12  -2  -6   19.30    2.30 
  -2 -12  -6   18.10    2.70 
   2  12   6   22.40    2.40 
 -12   2   6   18.80    2.50 
 -12   3  -6    6.30    1.60 
  12  -3  -6    4.80    0.90 
  -3 -12  -6    5.00    1.40 
 -12   3   6    4.60    1.20 
   3  12   6    4.30    1.00 
 -12   4  -6   46.50    6.40 
  -4 -12  -6   65.19    6.50 
 -12   4   6   56.59    6.30 
  12  -4   6   60.79    6.00 
   4  12   6   54.29    6.30 
  12  -4   6   63.79    6.00 
  12  -5  -6   11.70    1.60 
 -12   5  -6   14.90    2.10 
  -5 -12  -6   10.20    2.00 
   5  12   6   14.10    1.70 
  12  -5   6   11.00    1.40 
 -12   5   6   10.60    1.80 
  12  -5   6   11.00    1.60 
  -6 -12  -6   26.90    3.00 
  12  -6  -6   20.70    2.60 
  -6 -12  -6   22.40    3.50 
  -6 -12   6   22.80    2.90 
  12  -6   6   20.50    2.60 
 -12   6   6   23.00    3.00 
 -12   7  -6    2.20    1.10 
  -7 -12  -6    1.70    1.10 
  -7 -12  -6    3.30    1.50 
   7  12   6    1.80    0.80 
  -7 -12   6    4.80    1.20 
  12  -7   6    2.10    0.90 
 -12   7   6    5.10    1.30 
  -8 -12  -6   64.39    6.20 
 -12   8  -6   56.49    6.20 
  -8 -12  -6   51.29    6.30 
  12  -8   6   50.69    6.00 
 -12   8   6   52.09    6.40 
  -8 -12   6   57.19    6.10 
  -9 -12  -6    1.10    1.30 
 -12   9  -6    0.40    1.00 
  -9 -12  -6    0.50    1.10 
 -12   9   6    1.70    1.20 
  -9 -12   6    0.50    0.50 
  -9 -12   6   -0.70    0.80 
  12  -9   6   -0.10    0.90 
 -12  10  -6   26.80    3.30 
 -10 -12  -6   21.80    3.40 
 -10 -12  -6   26.30    3.30 
 -12  10   6   23.10    3.40 
 -10 -12   6   27.60    3.30 
  12 -10   6   21.50    3.30 
 -10 -12   6   27.80    2.80 
 -11 -12  -6   11.50    1.90 
 -12  11  -6    8.80    1.90 
 -11 -12  -6   11.90    2.00 
 -11 -12   6   10.20    1.40 
 -12  11   6    9.20    2.00 
 -11 -12   6   10.60    1.90 
 -12 -12  -6   80.49    8.40 
 -12  12  -6   78.99    8.30 
 -12 -12   6   79.19    8.00 
 -12 -12   6   68.39    8.20 
 -13 -11  -6    3.10    1.30 
 -11  13  -6    0.90    1.00 
 -13 -11   6    4.70    1.20 
 -13 -11   6    2.00    0.80 
 -10  13  -6    0.30    0.80 
 -13 -10  -6    0.60    1.20 
 -13 -10   6    1.10    1.00 
 -13 -10   6    0.40    0.60 
  -9  13  -6    0.50    0.80 
 -13  -9  -6    2.20    1.40 
 -13  -9  -6    1.20    0.50 
 -13  -9   6    4.20    1.10 
 -13  -9   6    2.30    0.80 
 -13  -8  -6   16.90    3.00 
  -8  13  -6   15.10    2.00 
 -13  -8   6   13.90    1.90 
 -13  -8   6   15.00    2.30 
 -13  -7  -6    6.50    1.60 
  -7  13  -6    4.70    0.90 
 -13  -7   6    2.00    0.80 
 -13  -7   6    4.70    1.20 
 -13  -6  -6    2.20    1.30 
 -13  -6   6    1.00    0.90 
 -13  -6   6    0.80    0.70 
  -5  13  -6    4.90    0.80 
 -13  -5  -6    3.50    1.50 
 -13  -5   6    8.30    1.30 
 -13  -5   6    4.60    1.00 
  -4  13  -6    7.10    0.90 
 -13  -4  -6    7.00    1.70 
  -4  13  -6    7.90    0.90 
 -13  -4   6    6.20    1.40 
 -13  -4   6    8.70    1.50 
  -4  13   6    8.20    1.30 
 -13  -3  -6    0.40    1.00 
 -13  -3   6   -1.10    0.80 
  -3  13   6   -0.80    0.60 
 -13  -2  -6    2.20    1.10 
  -2  13   6    3.10    0.90 
 -13  -2   6    3.90    1.00 
 -13  -2   6    2.50    0.90 
 -13  -1  -6    6.80    1.60 
  13   1  -6    9.60    1.20 
 -13  -1   6    8.90    1.50 
  -1  13   6    7.50    1.30 
 -13  -1   6    7.40    1.40 
 -13   0  -6   24.60    3.30 
  13   0  -6   26.20    2.90 
 -13   0   6   22.20    3.10 
 -13   0   6   28.40    3.10 
   0  13   6   27.60    3.00 
  13  -1  -6    9.30    1.20 
 -13   1  -6    8.00    1.70 
 -13   1   6    8.70    1.50 
   1  13   6    6.10    1.40 
  13  -2  -6    4.50    0.80 
 -13   2  -6    5.10    1.40 
  -2 -13  -6    2.70    1.10 
 -13   2   6    4.40    1.10 
   2  13   6    2.60    0.90 
  -3 -13  -6   -1.00    0.90 
 -13   3  -6    1.30    1.00 
  13  -3  -6   -0.60    0.60 
   3  13   6    0.90    0.70 
 -13   3   6    0.60    0.90 
 -13   4  -6    7.70    1.70 
  13  -4  -6    7.40    1.20 
  -4 -13  -6   11.10    1.80 
  13  -4   6    8.70    1.00 
 -13   4   6    9.50    1.60 
   4  13   6    9.10    1.40 
  13  -4   6    7.80    1.00 
  -5 -13  -6   11.60    1.80 
  13  -5  -6    6.80    1.20 
 -13   5  -6    6.80    1.60 
   5  13   6    4.90    1.20 
 -13   5   6    8.90    1.70 
  13  -5   6    8.70    1.00 
  13  -5   6    8.80    1.10 
  -6 -13  -6    1.50    1.10 
 -13   6   6    2.50    1.20 
  13  -6   6    0.70    0.60 
  -6 -13   6    1.60    1.00 
   6  13   6    1.50    0.70 
 -13   7  -6    2.80    1.30 
  -7 -13  -6    2.40    1.20 
  -7 -13   6    4.30    1.30 
 -13   7   6    3.40    1.40 
  13  -7   6    5.20    1.00 
 -13   8  -6   16.40    2.60 
  -8 -13  -6   17.50    2.70 
 -13   8   6   16.30    2.70 
  -8 -13   6   16.60    2.50 
  13  -8   6   18.20    2.30 
  -9 -13  -6    2.90    1.20 
 -13   9  -6    0.70    1.10 
  -9 -13   6    1.90    1.10 
 -13   9   6    3.50    1.40 
  13  -9   6    3.40    1.10 
 -13  10  -6    1.70    1.20 
 -10 -13  -6   -0.20    0.90 
  13 -10   6    1.10    1.20 
 -10 -13   6   -0.20    0.30 
 -13  10   6   -0.70    1.80 
 -10 -13   6    0.10    0.40 
 -11 -13  -6    3.40    1.20 
 -13  11  -6    1.30    1.80 
 -11 -13   6    2.80    1.20 
 -13  11   6    3.50    1.50 
 -14 -10  -6    0.80    1.30 
 -10  14  -6    1.10    0.90 
 -14 -10   6    0.50    1.00 
  -9  14  -6    1.90    0.80 
 -14  -9  -6    2.20    1.30 
 -14  -9   6    0.40    0.70 
 -14  -9   6   -0.20    0.90 
 -14  -8  -6   47.00    4.80 
  -8  14  -6   37.20    4.20 
 -14  -8   6   36.60    4.40 
 -14  -8   6   36.60    4.20 
 -14  -7  -6   13.90    2.20 
  -7  14  -6   10.40    1.50 
 -14  -7   6    9.10    1.60 
 -14  -7   6    9.80    1.70 
  -6  14  -6   59.69    6.30 
 -14  -6  -6   63.69    6.80 
 -14  -6   6   66.69    6.50 
 -14  -6   6   52.99    6.50 
 -14  -5  -6    2.60    1.50 
  -5  14  -6    5.20    0.70 
  -5  14  -6    5.70    0.80 
 -14  -5   6    7.60    1.30 
 -14  -5   6    7.30    1.20 
 -14  -4   6   73.99    7.50 
 -14  -4   6   66.99    7.40 
 -14  -3  -6    1.20    1.90 
 -14  -3   6    3.70    1.00 
 -14  -3   6    2.00    0.90 
  -3  14   6    2.30    1.00 
 -14  -2  -6    7.30    1.90 
 -14  -2   6    6.00    1.30 
 -14  -2   6    8.70    1.50 
  -2  14   6    8.10    1.30 
 -14  -1  -6    3.30    1.20 
  14   1  -6    3.00    0.70 
  -1  14   6    2.10    0.80 
 -14  -1   6    1.50    0.90 
 -14  -1   6    3.60    1.00 
 -14   0  -6    6.30    1.70 
  14   0  -6    9.30    1.20 
 -14   0   6    4.30    1.30 
 -14   0   6   13.10    1.70 
   0  14   6    7.90    1.40 
 -14   1  -6    4.10    1.30 
  14  -1  -6    2.30    0.70 
 -14   1   6    3.50    1.10 
   1  14   6    2.20    0.90 
 -14   1   6    3.50    1.10 
 -14   2  -6    6.20    1.70 
  14  -2  -6    6.90    1.10 
 -14   2   6    6.60    1.50 
 -14   2   6    6.30    1.40 
   2  14   6    8.10    1.30 
  -3 -14  -6    2.70    1.10 
 -14   3  -6    3.60    1.50 
  14  -3  -6    3.40    0.80 
 -14   3   6    3.70    1.20 
   3  14   6    2.00    0.80 
  14  -4  -6   77.39    8.40 
 -14   4  -6   78.09    9.50 
  -4 -14  -6   86.49    8.60 
   4  14   6   76.69    8.40 
 -14   4   6   85.39    8.60 
  14  -5  -6    7.10    1.20 
  -5 -14  -6    6.90    1.60 
 -14   5   6    7.30    1.70 
  14  -5   6    7.80    0.90 
   5  14   6    4.80    1.10 
  14  -5   6    7.40    0.90 
  -6 -14  -6   68.59    7.10 
 -14   6  -6   63.39    7.90 
 -14   6   6   57.59    7.20 
  14  -6   6   68.39    6.70 
  -7 -14  -6   12.40    1.90 
 -14   7  -6    6.50    1.80 
  -7 -14   6    7.20    1.80 
 -14   7   6   10.80    2.00 
  14  -7   6   12.00    1.40 
  14  -7   6   11.30    1.50 
  -8 -14  -6   45.00    4.90 
 -14   8  -6   40.80    5.10 
  -8 -14   6   43.30    5.00 
 -14   8   6   44.40    5.20 
  14  -8   6   42.60    4.70 
  -9 -14  -6    0.90    1.00 
 -14   9  -6    0.30    1.10 
 -14   9   6    0.60    1.20 
  -9 -14   6    0.30    0.90 
 -10 -14  -6    2.00    1.10 
 -14  10  -6   -0.50    1.00 
  14 -10   6    1.90    1.20 
 -14  10   6    3.30    1.50 
 -10 -14   6    1.10    1.00 
  -9  15  -6    0.50    0.70 
 -15  -9  -6    1.00    1.40 
 -15  -9   6    0.80    0.70 
 -15  -8  -6    2.50    1.50 
  -8  15  -6    1.90    0.70 
 -15  -8   6    0.90    0.80 
 -15  -8   6    1.70    1.00 
 -15  -7  -6    0.00    1.10 
  -7  15  -6    1.10    0.60 
 -15  -7   6    1.10    1.00 
 -15  -7   6    1.20    0.70 
  -6  15  -6    3.10    0.60 
  -6  15  -6    3.00    0.60 
 -15  -6  -6    4.30    1.50 
 -15  -6   6    3.40    1.10 
 -15  -6   6    2.90    0.90 
 -15  -5  -6    1.80    1.20 
 -15  -5   6    1.50    0.90 
 -15  -5   6    2.10    0.90 
 -15  -4  -6    2.90    1.40 
 -15  -4   6    3.70    1.10 
 -15  -4   6    2.30    0.90 
 -15  -3  -6   -0.30    1.20 
 -15  -3   6    0.20    0.80 
 -15  -3   6    0.10    0.70 
 -15  -2  -6    4.50    1.40 
 -15  -2   6    4.30    1.20 
 -15  -1  -6    2.30    1.30 
  -1  15   6    4.60    1.10 
 -15  -1   6    5.30    1.20 
 -15  -1   6    1.40    1.40 
 -15   0  -6    0.80    1.20 
  15   0  -6    0.30    0.50 
   0  15   6    0.40    0.70 
 -15   0   6    0.30    0.90 
 -15   0   6   -0.70    0.60 
  15  -1  -6    4.60    0.90 
 -15   1  -6    5.10    1.40 
 -15   1   6    6.70    1.30 
 -15   1   6    3.50    1.10 
   1  15   6    3.90    1.00 
 -15   2  -6    3.00    1.40 
  15  -2  -6    6.20    1.10 
 -15   2   6    4.50    1.30 
 -15   2   6    3.10    1.10 
   2  15   6    6.40    1.10 
  15  -3  -6    0.60    0.60 
  -3 -15  -6    0.60    0.90 
 -15   3  -6   -0.40    1.00 
   3  15   6   -0.10    0.70 
 -15   3   6    0.00    1.00 
 -15   3   6   -0.20    0.70 
 -15   4  -6    3.40    1.30 
  -4 -15  -6    3.80    1.20 
  15  -4  -6    5.30    1.00 
   4  15   6    4.10    0.90 
 -15   4   6    1.80    0.90 
 -15   4   6    3.50    1.30 
 -15   5  -6    3.00    1.30 
  -5 -15  -6    2.10    1.10 
 -15   5   6   -0.10    0.90 
 -15   5   6    1.20    1.30 
 -15   6  -6    2.20    1.40 
  -6 -15  -6    5.30    1.30 
  15  -6   6    4.40    0.60 
 -15   6   6    1.60    0.90 
  15  -6   6    3.80    0.70 
 -15   6   6    4.20    1.70 
 -15   7  -6    2.70    1.30 
  -7 -15   6   -0.60    1.00 
 -15   7   6   -0.60    1.10 
  15  -7   6    1.30    0.60 
  -8 -15  -6    2.00    1.00 
 -15   8  -6    0.20    1.20 
 -15   8   6   -1.30    1.20 
  15  -8   6    2.60    1.20 
  -8 -15   6    2.20    1.10 
  15  -8   6    3.00    0.70 
  -9 -15  -6    0.40    0.90 
 -15   9  -6   -0.30    1.10 
  -9 -15   6    0.40    0.90 
 -16  -7   6    0.00    0.70 
 -16  -7   6    1.50    0.90 
 -16  -6   6   18.00    2.20 
 -16  -6   6   13.90    2.30 
 -16  -5  -6   -1.20    0.90 
 -16  -5   6    0.90    0.70 
 -16  -5   6    0.30    0.80 
 -16  -4  -6    4.40    1.50 
 -16  -4   6    5.20    1.20 
 -16  -4   6    4.00    1.10 
 -16  -3  -6    0.90    1.10 
 -16  -3   6   -0.30    0.80 
 -16  -3   6    0.60    0.80 
 -16  -2  -6  111.69   10.50 
 -16  -2   6   87.19   10.00 
 -16  -2   6   94.49   10.10 
 -16  -1  -6    4.60    1.70 
 -16  -1   6    7.60    1.30 
 -16  -1   6    4.90    1.30 
 -16   0  -6    7.70    1.90 
  16   0  -6    8.60    1.30 
 -16   0   6    9.70    1.70 
 -16   0   6    9.00    1.60 
 -16   1  -6    8.90    1.90 
 -16   1   6    6.60    1.40 
 -16   1   6    6.80    1.50 
   1  16   6    7.60    1.40 
  16  -2  -6  110.39   11.20 
 -16   2  -6  115.69   11.70 
 -16   2   6  100.59   11.40 
   2  16   6  109.39   11.40 
  16  -3  -6    0.30    0.60 
 -16   3  -6   -0.60    1.20 
 -16   3   6    0.80    1.10 
 -16   3   6    0.00    0.80 
 -16   4  -6    8.10    1.80 
  -4 -16  -6    5.80    1.30 
  16  -4  -6    5.90    1.20 
 -16   4   6    6.60    1.60 
 -16   4   6   10.40    1.80 
  -5 -16  -6    1.40    0.80 
 -16   5  -6    1.00    1.10 
 -16   5   6    1.10    1.20 
 -16   5   6    0.30    1.30 
 -16   6  -6   22.30    3.30 
 -16   6   6   15.60    2.40 
 -16   6   6   17.80    2.80 
  -7 -16  -6    0.70    0.90 
 -16   7   6   -1.10    1.10 
 -16   7   6   -0.30    0.80 
  16  -7   6   -0.10    0.40 
 -17  -4  -6    0.10    1.10 
 -17  -4   6    2.00    0.90 
 -17  -4   6    2.10    0.90 
 -17  -3  -6    0.50    1.20 
 -17  -3   6    1.50    0.90 
 -17  -3   6    0.40    0.80 
 -17  -2  -6    5.00    1.70 
 -17  -2   6    6.30    1.30 
 -17  -2   6    3.90    1.10 
 -17  -1  -6    1.50    1.30 
 -17  -1   6    0.50    0.80 
 -17  -1   6    0.70    0.90 
 -17   0  -6    0.50    1.20 
 -17   0   6    1.90    1.00 
 -17   1  -6    1.50    1.30 
 -17   1   6    0.00    0.80 
 -17   1   6    1.50    1.40 
 -17   2  -6    3.30    1.40 
  17  -2  -6    5.30    1.00 
 -17   2   6    3.90    1.20 
 -17   2   6    3.50    1.30 
  17  -3  -6    2.40    1.20 
 -17   3  -6    1.60    1.20 
 -17   3   6    2.50    1.20 
 -17   3   6    0.10    0.90 
 -17   4  -6    1.10    1.30 
 -17   4   6    1.50    0.90 
 -17   4   6    2.40    1.20 
   0   0  -7    0.00    0.50 
   0   0  -7    0.00    0.30 
   0   0   7   -0.10    0.30 
   0   0   7   -0.90    0.60 
   0  -1  -7    0.10    0.30 
  -1   0  -7    0.10    0.40 
   1   0  -7   -0.40    0.40 
   0   1  -7    0.00    0.40 
   0   1  -7    0.30    0.40 
   1   0  -7    0.30    0.40 
   0  -1  -7    0.80    0.50 
  -1   0   7   -0.20    0.40 
  -1   0   7    0.10    0.50 
   0  -1   7    0.00    0.30 
   0   1   7    0.30    0.40 
   0  -1   7    0.90    0.60 
   1   0   7    0.40    0.40 
   0   1   7   -0.60    0.50 
   1   0   7    1.30    0.60 
   1   1  -7    0.20    0.30 
  -1  -1  -7    0.60    0.50 
   1   1  -7    0.50    0.40 
  -1  -1  -7    0.10    0.50 
  -1   1  -7    0.20    0.40 
  -1   1  -7    0.10    0.30 
   1  -1  -7    0.20    0.30 
   1  -1  -7    0.30    0.40 
  -1  -1   7    0.20    0.50 
  -1   1   7    0.20    0.40 
   1  -1   7   -0.10    0.30 
   1  -1   7   -0.10    0.50 
  -1  -1   7   -0.40    0.30 
   1   1   7    0.50    0.30 
  -1   1   7    0.30    0.40 
  -1   2  -7  231.68   23.20 
   2   1  -7  222.78   23.20 
  -2  -1  -7  217.48   23.30 
   1  -2  -7  233.98   23.20 
  -2  -1  -7  226.18   23.20 
   1  -2  -7  240.28   23.30 
   2   1  -7  216.98   23.20 
  -1   2  -7  240.58   23.30 
  -1   2   7  233.48   23.20 
  -1   2   7  247.18   23.30 
   1  -2   7  249.28   23.20 
  -2  -1   7  214.38   23.30 
   2   1   7  234.28   23.20 
  -2  -1   7  207.48   23.30 
   1  -2   7  221.98   23.30 
   2   1   7  227.88   23.40 
   2   0  -7  160.38   15.60 
  -2   0  -7  153.68   15.70 
   0  -2  -7  141.19   15.60 
  -2   0  -7  167.28   15.60 
   0   2  -7  143.99   15.60 
   0   2  -7  153.98   15.60 
   0  -2  -7  148.89   15.60 
   2   0  -7  161.08   15.60 
   0  -2   7  138.59   15.60 
   0   2   7  152.18   15.60 
   2   0   7  138.19   15.70 
  -2   0   7  160.88   15.60 
   0  -2   7  152.08   15.60 
  -2   0   7  163.88   15.60 
   0   2   7  158.88   15.60 
  -1  -2  -7  236.48   23.30 
  -2   1  -7  213.18   23.30 
  -1  -2  -7  224.18   23.40 
   2  -1  -7  224.78   23.30 
   1   2  -7  237.58   23.30 
  -2   1  -7  215.68   23.40 
   1   2  -7  244.28   23.30 
   2  -1  -7  215.98   23.30 
   2  -1   7  237.58   23.30 
   1   2   7  250.87   23.30 
  -1  -2   7  223.98   23.30 
  -1  -2   7  252.27   23.40 
  -2   1   7  221.68   23.30 
   1   2   7  249.68   23.40 
  -2   1   7  219.08   23.40 
   2  -1   7  207.68   23.40 
  -2   2  -7  163.88   18.80 
   2   2  -7  187.28   18.70 
   2  -2  -7  181.28   18.80 
   2   2  -7  173.48   18.80 
  -2   2  -7  175.38   18.80 
  -2  -2  -7  177.48   19.00 
   2   2   7  202.08   18.70 
  -2  -2   7  188.18   18.80 
  -2  -2   7  200.58   18.80 
  -2   2   7  208.48   18.80 
   2  -2   7  190.88   18.70 
   2   2   7  163.38   18.80 
  -2   2   7  187.58   18.80 
   3   2  -7  290.97   28.40 
   2  -3  -7  264.17   28.40 
  -3  -2  -7  275.17   28.50 
   2  -3  -7  272.37   28.40 
  -3  -2  -7  296.37   28.30 
  -2   3  -7  267.27   28.40 
   2  -3   7  254.07   28.40 
   2  -3   7  278.67   28.30 
   3   2   7  302.37   28.30 
  -2   3   7  255.67   28.40 
  -2   3   7  278.97   28.40 
   3   2   7  287.67   28.50 
  -3  -2   7  294.47   28.40 
  -3  -2   7  297.17   28.40 
   1  -3  -7    4.60    0.70 
   3   1  -7    2.40    0.60 
   1  -3  -7    1.30    0.70 
  -1   3  -7    1.60    0.50 
  -3  -1  -7    1.20    0.80 
  -3  -1  -7    3.90    0.60 
   3   1   7    0.80    0.70 
   1  -3   7    0.80    0.70 
  -1   3   7    2.40    0.60 
   1  -3   7    2.10    0.60 
  -3  -1   7    2.30    0.70 
   3   1   7    3.20    0.50 
  -1   3   7    1.90    0.60 
   3   0  -7    1.30    0.40 
   0  -3  -7    0.40    0.40 
   0  -3  -7   -0.60    0.50 
   0   3  -7   -0.50    0.30 
  -3   0  -7    0.30    0.30 
  -3   0  -7    0.90    0.70 
   0   3   7    0.60    0.50 
  -3   0   7    0.10    0.50 
   3   0   7   -0.20    0.50 
   0   3   7   -0.10    0.40 
   0  -3   7    0.20    0.50 
  -3   0   7   -0.20    0.40 
   3   0   7   -0.20    0.30 
  -1  -3  -7   16.60    1.90 
  -2  -3  -7  265.67   28.30 
  -3   2  -7  273.57   28.40 
   3  -2  -7  291.47   28.30 
   2   3  -7  259.97   28.30 
  -2  -3  -7  252.47   28.40 
   3  -2   7  300.37   28.30 
   3  -2   7  282.07   28.40 
   2   3   7  281.67   28.30 
  -3   2   7  288.67   28.30 
  -2  -3   7  279.97   28.30 
  -2  -3   7  279.37   28.30 
   2   3   7  280.57   28.40 
  -3   2   7  291.07   28.30 
  -3  -3  -7    0.90    0.90 
  -3   4  -7   31.40    3.30 
  -4  -3  -7   30.20    3.60 
  -4  -3  -7   27.40    3.20 
   3  -4  -7   27.40    3.30 
   4   3  -7   28.80    3.20 
  -3   4   7   34.40    3.30 
  -3   4   7   32.70    3.30 
  -4  -3   7   29.80    3.30 
   4   3   7   29.90    3.20 
  -4  -3   7   26.80    3.40 
   3  -4   7   30.90    3.40 
   4   3   7   32.00    3.40 
   3  -4   7   33.90    3.40 
   4   2  -7  120.79   12.90 
  -4  -2  -7  128.19   12.90 
   2  -4  -7  133.69   13.00 
   2  -4  -7  124.09   13.00 
  -4  -2  -7  117.99   13.10 
  -2   4  -7  121.89   12.90 
  -4  -2   7  135.09   12.90 
  -4  -2   7  125.99   12.90 
  -2   4   7  146.39   12.90 
  -2   4   7  127.39   13.00 
   4   2   7  135.09   12.90 
   2  -4   7  126.69   12.90 
   2  -4   7  110.39   12.90 
   4   2   7  114.09   13.00 
   4   1  -7  181.38   18.70 
   1  -4  -7  188.18   18.80 
  -4  -1  -7  183.78   19.00 
   1  -4  -7  182.18   18.80 
  -1   4  -7  186.28   18.70 
  -4  -1  -7  178.38   18.70 
  -4  -1   7  167.28   18.80 
  -1   4   7  201.68   18.80 
   1  -4   7  177.88   18.80 
   4   1   7  183.28   18.70 
  -4  -1   7  189.58   18.80 
   1  -4   7  194.98   18.80 
  -1   4   7  192.78   18.80 
   4   1   7  172.68   18.90 
  -4   0  -7  144.49   15.40 
   0  -4  -7  137.99   15.30 
  -4   0  -7  155.58   15.10 
   0   4  -7  140.99   15.10 
   4   0  -7  155.58   15.20 
   0  -4  -7  138.69   15.20 
   0  -4   7  145.99   15.20 
   4   0   7  167.08   15.10 
  -4   0   7  161.48   15.20 
   0   4   7  140.99   15.20 
  -4   0   7  152.18   15.20 
   4   0   7  135.79   15.30 
   0   4   7  155.08   15.20 
   1   4  -7  189.18   18.60 
  -4   1  -7  171.88   18.70 
  -4   1  -7  178.48   18.90 
  -1  -4  -7  184.08   18.70 
   4  -1  -7  178.38   18.70 
  -1  -4  -7  190.18   18.80 
   4  -1   7  186.48   18.60 
  -1  -4   7  200.88   18.70 
  -4   1   7  191.78   18.70 
  -4   1   7  182.38   18.70 
   1   4   7  193.28   18.80 
   4  -1   7  162.28   18.80 
  -1  -4   7  179.98   18.70 
  -2  -4  -7  127.39   13.10 
   4  -2  -7  126.69   13.10 
  -2  -4  -7  124.49   13.30 
  -2  -4   7  123.29   13.10 
   4  -2   7  130.09   13.10 
  -4   2   7  132.49   13.10 
   2   4   7  144.49   13.10 
  -2  -4   7  139.49   13.20 
   4  -2   7  116.09   13.20 
  -4   2   7  123.09   13.20 
   2   4   7  125.09   13.20 
  -3  -4  -7   29.30    3.20 
  -3  -4  -7   32.90    3.50 
   4  -3  -7   26.60    3.20 
  -4   3  -7   29.40    3.40 
  -4   3   7   27.00    3.20 
   4  -3   7   31.20    3.30 
  -3  -4   7   30.90    3.20 
  -4   3   7   28.90    3.20 
  -3  -4   7   31.80    3.20 
   3   4   7   29.50    3.30 
   4  -3   7   28.70    3.10 
   3   4   7   30.40    3.20 
  -4   4  -7  120.19   14.20 
  -4  -4  -7  140.39   14.40 
  -4  -4  -7  149.09   14.20 
   4  -4  -7  145.29   14.20 
   4   4   7  157.28   14.10 
   4  -4   7  120.69   14.30 
  -4  -4   7  150.48   14.20 
   4   4   7  125.99   14.20 
  -4   4   7  157.18   14.20 
   4  -4   7  118.09   14.20 
  -4   4   7  139.19   14.20 
  -4  -4   7  136.59   14.20 
   4  -5  -7  152.48   16.00 
  -4   5  -7  141.19   16.10 
  -5  -4  -7  160.28   16.00 
  -5  -4  -7  172.58   16.30 
   5   4   7  166.18   16.10 
  -5  -4   7  154.08   16.00 
  -5  -4   7  161.98   16.00 
  -4   5   7  148.49   16.00 
   4  -5   7  134.19   15.90 
   4  -5   7  156.58   16.00 
   5   4   7  172.58   15.90 
  -4   5   7  159.68   16.00 
  -5  -3  -7   91.09    9.20 
   5   3  -7   87.09    9.20 
  -5  -3  -7   89.79    9.60 
   3  -5  -7   88.89    9.30 
   5   3   7   94.79    9.40 
   5   3   7   94.59    9.20 
  -5  -3   7   90.09    9.30 
   3  -5   7   89.99    9.30 
  -5  -3   7   86.79    9.30 
   3  -5   7   86.09    9.20 
  -3   5   7   87.59    9.30 
  -3   5   7   92.99    9.30 
  -5  -2  -7  177.68   17.40 
   2  -5  -7  162.08   17.50 
  -5  -2  -7  188.68   17.80 
   5   2  -7  176.28   17.50 
  -2   5  -7  155.28   17.50 
   2  -5  -7  158.88   17.50 
   2  -5   7  168.28   17.50 
   5   2   7  177.78   17.40 
   2  -5   7  164.28   17.50 
  -2   5   7  169.18   17.50 
  -5  -2   7  177.98   17.50 
  -5  -2   7  169.68   17.50 
   5   2   7  191.58   17.60 
  -2   5   7  167.98   17.50 
   1  -5  -7   66.49    6.90 
  -1   5  -7   61.09    6.70 
   1  -5  -7   59.49    6.80 
  -5  -1  -7   68.59    6.80 
   5   1  -7   65.39    6.80 
  -5  -1   7   65.99    6.80 
  -1   5   7   65.39    6.80 
   1  -5   7   67.09    6.80 
   1  -5   7   68.69    6.80 
  -1   5   7   64.89    6.80 
   5   1   7   69.59    7.00 
  -5   0  -7    0.00    0.80 
   0  -5  -7    0.40    0.60 
  -5   0  -7   -0.40    0.30 
   0   5  -7    0.70    0.30 
   0  -5  -7   -0.30    0.60 
   5   0  -7    0.50    0.40 
  -5   0   7    0.40    0.50 
   0  -5   7    1.40    0.60 
   0   5   7   -0.30    0.50 
   5   0   7    1.00    0.70 
  -5   0   7    0.40    0.60 
   0  -5   7    1.40    0.60 
   5   0   7    0.10    0.50 
   0   5   7    0.10    0.50 
  -1  -5  -7   59.59    6.70 
   1   5  -7   66.09    6.60 
  -5   1  -7   68.09    7.00 
   5  -1  -7   61.59    6.70 
  -1  -5   7   59.89    6.70 
  -1  -5   7   67.79    6.80 
   5  -1   7   69.09    6.90 
  -5   1   7   61.39    6.70 
  -5   1   7   67.29    6.80 
   1   5   7   66.59    6.70 
   5  -1   7   66.09    6.60 
   5  -2  -7  174.88   17.80 
  -2  -5  -7  156.58   17.80 
  -5   2  -7  187.48   18.00 
  -2  -5  -7  162.28   18.00 
  -2  -5   7  175.48   17.90 
   2   5   7  170.48   17.90 
   5  -2   7  180.58   17.70 
   5  -2   7  187.88   18.00 
  -5   2   7  184.58   17.80 
  -2  -5   7  161.08   17.80 
   2   5   7  174.68   17.80 
  -5   2   7  185.28   17.90 
  -3  -5  -7   87.39    9.40 
  -3  -5  -7   91.59    9.60 
  -5   3   7   88.99    9.30 
  -5   3   7   96.09    9.40 
  -3  -5   7   92.09    9.40 
   3   5   7   89.99    9.40 
   5  -3   7   90.69    9.30 
   5  -3   7   89.29    9.40 
  -4  -5  -7  157.98   15.90 
  -4  -5  -7  155.98   16.20 
   5  -4  -7  162.38   15.90 
  -5   4  -7  148.89   16.00 
  -4  -5   7  146.59   15.90 
  -5   4   7  168.38   16.00 
   5  -4   7  161.58   15.90 
  -4  -5   7  153.68   16.00 
  -5   4   7  164.38   16.00 
   4   5   7  158.78   15.90 
   4   5   7  143.79   16.00 
   5  -4   7  148.99   16.00 
  -5  -5  -7    4.20    0.80 
  -5   5  -7    0.70    0.80 
   5  -5  -7    0.60    0.60 
  -5  -5  -7    0.50    1.20 
  -5   5   7    1.30    0.70 
   5   5   7    2.00    0.80 
   5   5   7    1.10    0.60 
  -5  -5   7    1.70    0.70 
   5  -5   7    3.90    0.70 
  -5   5   7    1.10    0.60 
   5  -5   7    1.40    0.60 
  -6  -5  -7    1.80    0.80 
  -5   6  -7    1.50    0.90 
   5  -6  -7    1.30    0.70 
  -6  -5  -7    0.60    1.20 
   5  -6   7    1.40    0.60 
  -5   6   7    2.30    0.80 
  -6  -5   7    1.90    0.70 
   6   5   7    3.40    0.70 
  -6  -5   7    1.30    0.80 
  -5   6   7    2.70    0.90 
   6   5   7    1.20    0.70 
  -6  -4  -7   32.30    4.00 
   4  -6  -7   34.50    3.60 
  -6  -4  -7   34.70    3.50 
  -4   6  -7   27.50    3.60 
   4  -6   7   27.10    3.40 
   6   4   7   35.30    3.40 
  -4   6   7   32.30    3.50 
  -6  -4   7   34.70    3.60 
  -4   6   7   37.60    3.60 
   4  -6   7   34.30    3.50 
   6   4   7   27.70    3.60 
   6   3  -7    9.70    1.30 
  -6  -3  -7    8.70    1.90 
   3  -6  -7   10.20    1.50 
  -6  -3  -7   11.20    1.30 
  -3   6  -7    9.60    1.40 
  -6  -3   7   12.50    1.50 
   3  -6   7   10.60    1.50 
   6   3   7   10.00    1.60 
  -3   6   7   11.40    1.50 
  -3   6   7   11.00    1.40 
   6   3   7   11.80    1.30 
   6   2  -7   31.20    3.50 
   2  -6  -7   33.10    3.70 
  -6  -2  -7   32.70    3.50 
  -6  -2  -7   33.60    3.90 
  -2   6  -7   30.70    3.50 
   2  -6   7   28.80    3.50 
  -2   6   7   32.50    3.60 
   6   2   7   35.90    3.40 
  -6  -2   7   35.00    3.60 
   2  -6   7   35.20    3.60 
   6   2   7   30.60    3.70 
  -2   6   7   37.40    3.60 
   1  -6  -7   10.00    1.50 
  -6  -1  -7    9.10    1.20 
  -1   6  -7   10.30    1.20 
   6   1  -7   11.20    1.20 
   1  -6  -7    9.30    1.40 
  -6  -1  -7   10.60    1.90 
  -1   6   7   10.50    1.40 
   6   1   7   10.20    1.10 
  -6  -1   7    9.40    1.40 
  -1   6   7    8.10    1.30 
   1  -6   7    9.40    1.20 
   1  -6   7    9.70    1.40 
   6   1   7    9.50    1.60 
  -6   0  -7    3.10    1.10 
   6   0  -7    4.20    0.70 
   0   6  -7    3.60    0.60 
   0  -6  -7    3.60    0.90 
   0  -6  -7    4.50    1.10 
   0   6   7    5.80    1.00 
   0  -6   7    2.90    0.70 
   0   6   7    5.50    0.90 
  -6   0   7    5.20    0.90 
   6   0   7    3.20    0.90 
   0  -6   7    4.90    0.90 
   6   0   7    4.80    0.70 
  -6   1  -7    9.30    1.70 
  -1  -6  -7    8.90    1.40 
  -1  -6  -7   10.70    1.70 
   6  -1  -7    9.10    1.20 
   1   6   7   10.20    1.30 
  -6   1   7   11.20    1.50 
  -1  -6   7    8.60    1.30 
   6  -1   7    7.70    1.50 
   1   6   7   10.00    1.40 
  -1  -6   7   12.80    1.50 
  -6   1   7    8.90    1.30 
   6  -1   7   10.90    1.20 
  -2  -6  -7   37.70    3.80 
  -2  -6  -7   34.20    3.90 
   6  -2  -7   36.80    3.60 
  -6   2  -7   34.70    3.90 
   2   6   7   36.20    3.70 
   2   6   7   32.10    3.70 
   6  -2   7   32.70    3.50 
   6  -2   7   27.80    3.80 
  -6   2   7   35.80    3.80 
  -2  -6   7   39.30    3.80 
  -2  -6   7   28.50    3.60 
  -6   2   7   32.80    3.70 
  -3  -6  -7   10.50    1.80 
  -3  -6  -7   11.90    1.50 
   6  -3  -7    8.90    1.30 
  -6   3  -7   11.00    1.70 
  -6   3   7   10.60    1.40 
   6  -3   7   10.70    1.20 
   3   6   7    9.80    1.40 
  -3  -6   7    7.80    1.30 
   6  -3   7    8.50    1.50 
   3   6   7   11.30    1.40 
  -3  -6   7   10.10    1.50 
  -6   3   7    9.40    1.40 
   6  -4  -7   33.10    3.50 
  -4  -6  -7   32.00    3.60 
  -6   4  -7   30.70    3.70 
  -4  -6  -7   31.30    3.90 
   6  -4   7   27.70    3.50 
  -6   4   7   33.50    3.50 
   4   6   7   33.80    3.50 
  -4  -6   7   30.60    3.40 
  -6   4   7   31.90    3.50 
   6  -4   7   31.60    3.40 
   4   6   7   31.00    3.60 
  -4  -6   7   36.20    3.60 
  -5  -6  -7    2.40    0.90 
  -5  -6  -7    2.10    1.30 
   6  -5  -7    1.30    0.70 
  -6   5  -7    3.00    1.00 
  -5  -6   7    1.20    0.70 
   6  -5   7    1.20    0.60 
  -5  -6   7    0.90    0.60 
   5   6   7    2.70    0.90 
   6  -5   7    2.10    0.60 
   5   6   7    1.80    0.70 
  -6   5   7    2.60    0.80 
  -6   5   7    0.90    0.70 
   6  -6  -7   14.80    1.80 
  -6  -6  -7   12.80    2.30 
  -6  -6  -7   14.00    1.90 
  -6   6  -7   13.00    2.00 
   6   6   7   12.30    1.90 
   6   6   7   15.50    1.80 
   6  -6   7   10.90    1.70 
  -6  -6   7   14.70    1.90 
  -6   6   7   10.60    2.20 
  -6   6   7   14.00    1.90 
  -6   7  -7   18.50    2.50 
  -7  -6  -7   22.60    3.00 
   6  -7  -7   20.30    2.50 
  -7  -6  -7   23.20    2.60 
   7   6   7   25.40    2.40 
   6  -7   7   17.10    2.40 
   7   6   7   21.00    2.70 
  -6   7   7   19.90    2.50 
  -7  -6   7   22.70    2.60 
  -6   7   7   19.60    2.50 
  -7  -5  -7   28.90    3.60 
  -7  -5  -7   26.40    3.10 
  -5   7   7   26.20    3.20 
  -5   7   7   28.70    3.10 
  -7  -5   7   26.40    3.20 
   5  -7   7   28.00    3.00 
   7   5   7   26.20    3.00 
   7   5   7   33.20    3.40 
  -7  -4  -7   69.99    7.10 
  -7  -4  -7   68.09    7.50 
   4  -7  -7   63.69    7.20 
  -4   7  -7   63.79    7.20 
   7   4   7   78.79    7.30 
  -4   7   7   66.09    7.20 
   7   4   7   73.69    7.10 
   4  -7   7   72.39    7.30 
  -4   7   7   63.99    7.20 
  -7  -4   7   65.89    7.20 
  -7  -3  -7    2.10    1.20 
   3  -7  -7    2.20    0.90 
   7   3  -7    2.60    0.70 
  -3   7  -7    1.90    0.70 
  -3   7   7    3.10    0.80 
  -7  -3   7    3.60    0.90 
  -3   7   7    2.70    0.90 
   7   3   7    4.20    0.60 
  -2   7  -7   66.99    7.30 
   7   2  -7   72.89    7.30 
  -7  -2  -7   76.09    7.30 
  -7  -2  -7   82.59    7.80 
   2  -7  -7   63.19    7.40 
  -2   7   7   64.59    7.40 
  -7  -2   7   75.29    7.40 
   7   2   7   75.89    7.20 
   7   2   7   75.29    7.60 
  -2   7   7   65.79    7.40 
   2  -7   7   65.29    7.20 
  -7  -1  -7   10.40    1.30 
   1  -7  -7   10.40    1.70 
   1  -7  -7   12.30    1.70 
   7   1   7   10.60    1.20 
  -1   7   7    8.80    1.50 
  -1   7   7   14.10    1.50 
   7   1   7   13.10    1.70 
  -7  -1   7   10.10    1.50 
  -7   0  -7   -1.00    0.80 
   7   0  -7   -0.80    0.30 
   0  -7  -7   -0.90    0.70 
   0   7  -7    0.00    0.30 
   0  -7  -7    0.40    0.80 
   0   7   7   -0.50    0.60 
   7   0   7    0.00    0.60 
   0  -7   7   -0.10    0.60 
   0   7   7   -0.60    0.60 
   0  -7   7    0.30    0.30 
   7   0   7    0.00    0.30 
  -7   0   7    0.00    0.60 
  -7   1  -7   13.90    2.00 
  -1  -7  -7   11.40    1.80 
  -1  -7  -7   14.20    2.00 
   7  -1  -7   12.30    1.50 
   7  -1   7   14.40    1.40 
  -1  -7   7   11.60    1.70 
   7  -1   7   12.20    1.80 
  -1  -7   7   13.00    1.40 
   1   7   7    9.60    1.70 
  -7   1   7   11.30    1.60 
  -2  -7  -7   74.79    7.80 
   7  -2  -7   71.69    7.60 
  -2  -7  -7   66.09    7.70 
  -7   2  -7   78.79    7.90 
  -2  -7   7   72.09    7.50 
  -2  -7   7   65.79    7.60 
   2   7   7   73.49    7.60 
  -7   2   7   76.99    7.60 
   7  -2   7   73.89    7.50 
   2   7   7   71.49    7.60 
   7  -2   7   79.49    7.80 
   7  -3  -7    3.20    0.70 
  -7   3  -7    4.80    1.20 
  -3  -7  -7    0.30    1.10 
  -3  -7  -7    2.10    1.00 
   3   7   7    4.00    0.90 
  -3  -7   7    2.20    0.60 
   3   7   7    1.70    0.80 
   7  -3   7    1.00    0.80 
  -7   3   7    3.00    0.90 
   7  -3   7    2.30    0.50 
  -4  -7  -7   64.99    7.30 
  -4  -7  -7   66.19    7.10 
   7  -4  -7   61.69    7.00 
  -7   4  -7   74.39    7.30 
  -7   4   7   70.79    7.10 
   7  -4   7   71.39    6.90 
   4   7   7   66.59    7.10 
  -4  -7   7   61.39    6.90 
   7  -4   7   68.09    7.10 
   4   7   7   63.79    7.30 
  -4  -7   7   68.59    7.10 
  -7   4   7   70.19    7.10 
  -5  -7  -7   29.90    3.60 
  -5  -7  -7   22.30    3.20 
  -7   5  -7   32.50    3.40 
   7  -5  -7   22.60    3.10 
  -7   5   7   30.00    3.20 
  -7   5   7   25.90    3.10 
   5   7   7   31.00    3.20 
  -5  -7   7   26.10    3.00 
   7  -5   7   30.20    3.20 
   5   7   7   33.50    3.10 
  -5  -7   7   26.30    3.20 
   7  -5   7   27.00    3.00 
  -6  -7  -7   19.00    2.60 
  -6  -7  -7   22.70    3.00 
   7  -6  -7   20.70    3.00 
  -7   6  -7   21.10    2.70 
   6   7   7   23.30    2.50 
  -6  -7   7   21.30    2.60 
   7  -6   7   20.30    2.40 
  -7   6   7   21.40    2.50 
   6   7   7   21.80    2.60 
  -7   6   7   19.80    2.50 
  -6  -7   7   17.90    2.30 
  -7  -7  -7    3.00    1.30 
  -7   7  -7    3.20    1.10 
  -7   7   7    2.30    0.90 
  -7  -7   7    2.70    1.00 
  -7   7   7    0.80    1.00 
   7   7   7    1.50    0.80 
  -7  -7   7    1.80    0.50 
   7  -8  -7   47.40    5.50 
  -7   8  -7   55.79    5.50 
  -8  -7  -7   54.19    5.80 
  -8  -7  -7   54.09    5.50 
  -7   8   7   51.69    5.50 
  -8  -7   7   49.50    5.50 
  -8  -7   7   44.40    5.30 
   8   7   7   50.49    5.50 
  -7   8   7   52.09    5.50 
   6  -8  -7   17.70    2.30 
  -8  -6  -7   16.00    2.70 
  -6   8  -7   17.60    2.30 
  -6   8   7   19.90    2.40 
  -8  -6   7   16.50    2.00 
   8   6   7   18.30    2.30 
  -8  -6   7   18.30    2.30 
  -6   8   7   18.30    2.30 
   5  -8  -7   29.60    3.80 
  -5   8  -7   35.90    3.80 
  -8  -5  -7   38.50    4.20 
  -8  -5  -7   32.10    3.60 
   8   5   7   33.90    3.60 
  -8  -5   7   32.50    3.80 
  -5   8   7   29.90    3.80 
  -5   8   7   35.60    3.80 
   8   5   7   38.90    3.90 
  -8  -4  -7   26.50    3.50 
  -4   8  -7   25.30    3.00 
  -8  -4  -7   26.70    2.90 
   4  -8  -7   24.10    3.20 
   8   4   7   31.60    2.90 
  -8  -4   7   26.10    3.10 
  -4   8   7   26.20    3.20 
   8   4   7   26.30    3.30 
  -4   8   7   27.90    3.10 
   8   3  -7  223.98   24.40 
   3  -8  -7  240.38   24.60 
  -8  -3  -7  231.48   24.30 
  -8  -3  -7  234.28   24.70 
  -3   8  -7  238.28   24.30 
   8   3   7  259.07   24.30 
  -3   8   7  258.07   24.50 
  -3   8   7  256.07   24.50 
   8   3   7  224.78   24.70 
  -8  -3   7  232.58   24.40 
   2  -8  -7  128.79   13.30 
   8   2  -7  124.69   12.90 
  -8  -2  -7  116.49   13.20 
  -2   8  -7  112.49   12.80 
  -8  -2  -7  133.59   12.90 
  -8  -2   7  140.49   13.00 
   8   2   7  143.99   12.80 
  -2   8   7  130.49   13.00 
   8   2   7  105.09   13.50 
  -2   8   7  117.59   13.00 
   1  -8  -7   66.39    7.70 
   1  -8  -7   77.99    7.80 
  -8  -1  -7   71.79    7.90 
   8   1  -7   70.19    7.60 
  -1   8  -7   75.89    7.40 
  -1   8   7   75.99    7.60 
  -8  -1   7   71.49    7.60 
   1  -8   7   74.79    7.40 
   8   1   7   71.89    7.80 
   8   1   7   71.79    7.40 
  -1   8   7   70.49    7.60 
   0  -8  -7    6.70    1.40 
   0  -8  -7    2.10    1.20 
  -8   0  -7    5.60    1.50 
   0   8   7    5.90    1.10 
   0   8   7    3.50    1.10 
   0  -8   7    5.10    0.60 
  -8   0   7    4.90    1.10 
   8   0   7    5.60    0.70 
   8   0   7    7.80    1.40 
  -1  -8  -7   79.69    8.00 
  -1  -8  -7   70.49    7.90 
   8  -1  -7   69.29    7.90 
  -8   1  -7   77.69    8.00 
   8  -1   7   70.29    7.60 
  -1  -8   7   79.69    7.90 
   1   8   7   77.79    7.80 
  -8   1   7   72.79    7.70 
   8  -1   7   70.49    7.90 
   1   8   7   75.69    7.80 
  -2  -8  -7  127.49   13.10 
  -2  -8  -7  109.39   13.10 
  -8   2  -7  118.69   13.20 
   8  -2  -7  137.69   13.00 
   8  -2   7  135.79   12.80 
  -2  -8   7  125.09   13.10 
  -8   2   7  146.99   13.00 
   2   8   7  134.89   13.00 
   2   8   7  113.99   13.00 
   8  -2   7  107.69   13.10 
  -3  -8  -7  254.37   25.20 
   8  -3  -7  233.88   24.90 
  -8   3  -7  237.88   25.10 
  -3  -8  -7  246.38   25.10 
  -3  -8   7  263.97   25.10 
  -3  -8   7  251.17   24.80 
  -8   3   7  241.18   25.00 
   8  -3   7  221.08   25.10 
   3   8   7  261.17   25.00 
   3   8   7  248.48   25.00 
   8  -3   7  240.28   24.80 
   8  -4  -7   27.20    3.00 
  -8   4  -7   29.40    3.30 
  -4  -8  -7   30.20    3.50 
  -4  -8  -7   25.10    3.30 
  -4  -8   7   25.10    2.80 
  -4  -8   7   23.80    2.70 
   8  -4   7   28.70    2.80 
   4   8   7   27.40    3.30 
   4   8   7   29.40    3.10 
   8  -4   7   23.80    3.10 
  -8   4   7   25.90    3.10 
  -4  -8   7   26.00    3.20 
  -5  -8  -7   43.20    4.30 
  -8   5  -7   39.70    4.00 
   8  -5  -7   28.90    3.80 
  -5  -8  -7   33.60    4.00 
  -5  -8   7   38.50    3.60 
  -8   5   7   29.80    3.80 
  -8   5   7   30.30    3.80 
  -5  -8   7   34.80    3.70 
   5   8   7   32.00    3.80 
   8  -5   7   35.20    3.80 
   8  -5   7   33.20    3.70 
  -5  -8   7   35.40    4.00 
  -6  -8  -7   21.60    2.80 
  -8   6  -7   17.80    2.40 
   8  -6  -7   18.20    2.20 
  -6  -8  -7   16.60    2.50 
   6   8   7   21.10    2.30 
   6   8   7   16.20    2.20 
  -8   6   7   19.20    2.30 
  -6  -8   7   15.50    1.90 
  -6  -8   7   17.40    2.40 
  -8   6   7   19.00    2.30 
   8  -6   7   18.50    2.10 
  -6  -8   7   18.20    2.10 
   8  -6   7   16.20    2.20 
   8  -7  -7   46.10    5.60 
  -7  -8  -7   54.39    5.70 
  -8   7  -7   49.00    5.70 
  -7  -8  -7   55.69    5.90 
  -7  -8   7   52.09    5.70 
  -7  -8   7   49.70    5.30 
  -8   7   7   51.19    5.60 
   7   8   7   57.19    5.60 
  -8  -8  -7   11.00    2.10 
  -8  -8  -7   12.70    1.80 
  -8   8  -7   10.30    1.80 
  -8   8   7   10.90    1.80 
  -8  -8   7    9.20    1.70 
   8   8   7   12.90    1.70 
  -8  -8   7   10.80    1.80 
  -9  -8  -7   63.19    6.40 
  -8   9  -7   53.69    6.40 
  -9  -8  -7   67.29    6.70 
  -9  -8   7   54.59    6.20 
  -9  -8   7   62.89    6.50 
  -7   9  -7   21.00    2.30 
  -9  -7  -7   22.80    2.90 
  -9  -7  -7   16.30    2.20 
  -9  -7   7   15.40    2.30 
  -9  -7   7   15.70    2.00 
  -7   9   7   15.50    2.30 
  -6   9  -7   20.90    2.70 
  -9  -6  -7   24.10    3.30 
  -9  -6   7   21.10    2.60 
  -6   9   7   23.30    2.80 
  -9  -6   7   26.50    2.90 
   9   6   7   26.40    3.00 
  -6   9   7   26.00    3.00 
  -9  -5  -7   49.70    5.50 
  -9  -5  -7   47.30    5.00 
  -5   9  -7   45.50    5.10 
   5  -9  -7   44.40    5.40 
  -5   9   7   49.99    5.20 
  -9  -5   7   45.90    5.20 
  -5   9   7   46.40    5.20 
   9   5   7   51.99    5.20 
  -4   9  -7   29.50    3.30 
   4  -9  -7   27.60    3.70 
  -9  -4  -7   35.00    4.00 
  -9  -4  -7   31.70    3.20 
  -9  -4   7   32.30    3.50 
  -4   9   7   26.70    3.60 
   9   4   7   31.10    3.50 
  -4   9   7   29.30    3.50 
  -9  -3  -7    9.10    1.90 
  -9  -3  -7    7.50    1.00 
   9   3  -7    7.40    1.10 
  -3   9  -7    7.10    1.00 
   3  -9  -7    7.80    1.60 
  -3   9   7    7.50    1.40 
  -9  -3   7    8.50    1.40 
   9   3   7    6.40    1.50 
  -3   9   7    7.90    1.70 
  -2   9  -7  108.19   12.20 
  -9  -2  -7  119.09   12.60 
   9   2  -7  118.89   12.30 
   9   2   7  105.29   12.50 
  -9  -2   7  126.19   12.40 
  -2   9   7  121.19   12.50 
   9   2   7  139.39   12.20 
   1  -9  -7   53.49    5.80 
   1  -9  -7   51.49    5.80 
  -9  -1  -7   54.09    5.90 
   9   1  -7   50.19    5.50 
  -9  -1   7   50.59    5.60 
  -1   9   7   51.79    5.70 
   9   1   7   54.69    5.40 
   9   1   7   53.69    5.80 
  -9   0  -7   -2.00    1.00 
   9   0  -7   -0.30    0.50 
   0  -9  -7    0.30    1.00 
   0  -9  -7    0.80    1.10 
   9   0   7    0.90    0.90 
   0   9   7   -1.20    0.60 
   0   9   7    0.80    0.90 
   9   0   7    0.60    0.30 
  -9   0   7   -0.30    0.70 
   9  -1  -7   50.59    5.60 
  -9   1  -7   52.29    5.90 
  -1  -9  -7   53.09    5.90 
   9  -1   7   53.19    5.40 
   9  -1   7   52.29    5.80 
   1   9   7   58.29    5.70 
  -9   1   7   57.99    5.70 
   1   9   7   49.60    5.70 
  -2  -9  -7  106.69   12.40 
   9  -2  -7  125.39   12.20 
  -9   2  -7  123.29   12.50 
  -2  -9  -7  111.49   12.40 
   9  -2   7  117.99   12.40 
   2   9   7  115.99   12.20 
   2   9   7  109.69   12.20 
  -9   2   7  124.09   12.20 
   9  -2   7  129.69   12.00 
  -2  -9   7  116.69   12.30 
  -3  -9  -7    9.70    1.80 
   9  -3  -7    8.30    1.20 
  -9   3  -7    7.60    1.60 
  -3  -9  -7   12.50    2.00 
  -9   3   7    8.30    1.40 
   3   9   7    6.70    1.30 
   3   9   7   10.70    1.50 
  -3  -9   7    7.40    1.50 
   9  -3   7    8.20    1.50 
   9  -3   7    7.20    1.00 
   9  -4  -7   30.60    3.30 
  -4  -9  -7   25.80    3.70 
  -9   4  -7   31.50    3.60 
  -4  -9  -7   26.20    3.70 
  -4  -9   7   29.80    3.50 
   9  -4   7   31.10    3.20 
  -9   4   7   26.20    3.40 
   9  -4   7   29.80    3.50 
   4   9   7   31.50    3.40 
   4   9   7   29.30    3.40 
   9  -5  -7   43.80    5.00 
  -5  -9  -7   44.10    5.30 
  -9   5  -7   47.30    5.30 
  -5  -9  -7   52.89    5.50 
   9  -5   7   47.00    5.00 
  -5  -9   7   43.70    5.20 
  -5  -9   7   48.40    4.90 
   5   9   7   47.10    5.10 
  -5  -9   7   49.20    4.80 
   5   9   7   51.19    5.30 
  -9   5   7   44.30    5.10 
   9  -5   7   47.40    5.10 
  -6  -9  -7   28.50    3.30 
   9  -6  -7   26.00    2.80 
  -6  -9  -7   22.90    3.20 
  -9   6  -7   24.90    3.10 
  -9   6   7   32.10    3.10 
  -6  -9   7   20.40    2.60 
   9  -6   7   27.60    2.80 
   6   9   7   22.00    2.80 
  -6  -9   7   22.90    2.70 
  -6  -9   7   27.90    3.10 
   9  -7  -7   14.20    2.10 
  -7  -9  -7   21.30    2.80 
  -7  -9  -7   20.80    2.60 
  -9   7  -7   19.10    2.40 
  -9   7   7   13.70    2.30 
  -7  -9   7   15.30    1.90 
  -7  -9   7   16.40    2.30 
  -7  -9   7   17.40    1.90 
   7   9   7   17.30    2.10 
  -8  -9  -7   63.39    6.40 
  -9   8  -7   57.09    6.20 
  -8  -9  -7   59.39    6.30 
  -8  -9   7   53.39    5.90 
  -9   8   7   60.79    6.20 
  -8  -9   7   55.99    6.20 
   9  -8   7   49.30    6.30 
  -9   9  -7    0.20    0.90 
  -9  -9  -7   -0.20    1.20 
  -9  -9  -7    1.80    1.10 
  -9   9   7    0.90    1.10 
   9  -9   7   -0.30    1.10 
  -9  -9   7    1.00    0.60 
  -9  -9   7    1.20    1.00 
 -10  -9  -7   -0.20    1.20 
  -9  10  -7    1.90    1.00 
 -10  -9  -7    2.10    1.10 
 -10  -9   7    1.40    1.00 
  -9  10   7    0.50    1.10 
   9 -10   7    0.70    2.10 
 -10  -9   7    0.70    0.60 
 -10  -8  -7    8.60    1.40 
 -10  -8  -7    8.30    1.90 
  -8  10  -7    6.90    1.40 
   8 -10   7    8.70    2.00 
  -8  10   7   10.00    1.80 
 -10  -8   7    6.90    1.20 
 -10  -8   7    7.00    1.50 
  -7  10  -7   44.30    4.70 
 -10  -7  -7   45.30    4.70 
 -10  -7   7   41.70    4.80 
  -7  10   7   45.40    4.90 
 -10  -7   7   38.00    4.50 
  -6  10  -7   26.60    3.30 
 -10  -6  -7   28.00    3.80 
 -10  -6  -7   34.40    3.20 
 -10  -6   7   25.00    3.20 
 -10  -6   7   31.70    3.50 
  -5  10  -7   22.70    2.60 
 -10  -5  -7   24.30    3.20 
 -10  -5  -7   23.00    2.40 
  -5  10   7   24.00    2.70 
 -10  -5   7   21.70    2.80 
 -10  -5   7   19.00    2.60 
  -5  10   7   24.40    2.90 
  -4  10  -7    3.20    0.70 
 -10  -4  -7    1.60    1.30 
  -4  10   7    2.70    1.00 
  -4  10   7    4.20    1.20 
 -10  -4   7    3.40    1.00 
  10   3  -7    5.60    0.90 
 -10  -3  -7    4.90    1.60 
  -3  10  -7    4.30    0.70 
  -3  10   7    6.10    1.10 
 -10  -3   7    5.40    1.20 
  -3  10   7    3.30    1.10 
   2 -10  -7   38.20    5.20 
  10   2  -7   46.50    4.60 
 -10  -2  -7   39.80    5.00 
  -2  10  -7   41.60    4.50 
  -2  10   7   51.29    4.90 
  10   2   7   31.60    5.00 
 -10  -2   7   54.39    4.90 
   1 -10  -7   35.30    4.50 
  10   1  -7   34.90    4.00 
 -10  -1  -7   34.50    4.40 
  -1  10   7   40.90    4.10 
  10   1   7   33.30    4.30 
  -1  10   7   41.30    4.30 
 -10  -1   7   39.90    4.20 
   0 -10  -7    5.50    1.40 
  10   0  -7    6.70    1.00 
 -10   0  -7    3.90    1.30 
   0 -10  -7    6.50    1.60 
   0  10   7    6.10    1.30 
  10   0   7    5.60    1.40 
 -10   0   7    6.00    1.20 
   0  10   7    4.10    1.10 
  10  -1  -7   37.50    4.10 
  -1 -10  -7   38.10    4.70 
  -1 -10  -7   42.20    4.60 
 -10   1  -7   34.10    4.50 
  10  -1   7   40.20    4.00 
   1  10   7   39.80    4.30 
 -10   1   7   39.50    4.30 
   1  10   7   40.90    4.40 
  10  -1   7   34.90    4.50 
 -10   2  -7   41.30    5.30 
  10  -2  -7   47.10    5.00 
  -2 -10  -7   38.00    5.30 
  -2 -10  -7   54.59    5.50 
   2  10   7   48.50    5.10 
  10  -2   7   52.29    4.80 
 -10   2   7   52.79    5.20 
   2  10   7   45.40    5.10 
  10  -2   7   36.70    5.20 
  -3 -10  -7    4.50    1.60 
  -3 -10  -7    6.30    1.60 
  10  -3  -7    4.10    0.90 
 -10   3  -7    5.90    1.50 
  -3 -10   7    6.70    1.40 
  10  -3   7    4.00    1.20 
  10  -3   7    5.30    0.70 
 -10   3   7    3.40    1.10 
   3  10   7    4.60    1.20 
   3  10   7    5.20    1.20 
  -4 -10  -7    4.50    1.50 
 -10   4  -7    2.90    1.20 
  10  -4  -7    1.90    0.90 
  -4 -10  -7    2.40    1.40 
   4  10   7    2.20    1.10 
 -10   4   7    1.50    1.00 
  -4 -10   7    3.20    1.20 
   4  10   7    3.30    1.00 
  10  -4   7    2.60    1.00 
  10  -4   7    2.70    0.60 
  -5 -10  -7   25.60    3.10 
  10  -5  -7   22.70    2.60 
 -10   5  -7   21.50    3.00 
  10  -5   7   22.70    2.80 
   5  10   7   23.10    2.70 
  10  -5   7   23.20    2.80 
  10  -5   7   17.10    2.70 
  -5 -10   7   26.60    2.90 
 -10   5   7   23.50    2.80 
  -6 -10  -7   36.20    3.80 
  -6 -10  -7   28.20    3.70 
  10  -6  -7   30.30    3.30 
 -10   6  -7   28.50    3.60 
   6  10   7   28.10    3.40 
 -10   6   7   35.10    3.50 
  -6 -10   7   26.40    3.10 
  -6 -10   7   24.20    3.00 
  10  -6   7   33.30    3.20 
  -6 -10   7   33.90    3.60 
  10  -6   7   34.70    3.60 
 -10   7  -7   44.70    5.10 
  -7 -10  -7   48.50    5.20 
  -7 -10  -7   45.80    5.20 
 -10   7   7   40.00    5.00 
  -7 -10   7   46.70    4.70 
  -7 -10   7   48.40    5.10 
   7  10   7   45.00    4.90 
  10  -7   7   39.50    5.00 
  -7 -10   7   43.80    4.60 
 -10   8  -7    5.80    1.50 
  -8 -10  -7    7.00    1.70 
  -8 -10  -7    5.80    1.70 
  -8 -10   7    8.70    1.10 
  -8 -10   7    4.90    1.70 
  10  -8   7    5.00    1.50 
  -8 -10   7    7.50    1.10 
 -10   9  -7    1.30    1.00 
  -9 -10  -7    1.60    1.20 
  -9 -10  -7    1.10    1.20 
 -10   9   7    2.30    1.20 
  -9 -10   7    0.70    0.80 
  10  -9   7   -0.40    1.00 
  -9 -10   7    1.50    1.20 
 -10 -10  -7    0.30    1.10 
 -10 -10  -7    0.40    1.00 
 -10  10  -7   -0.20    0.90 
 -10  10   7    1.40    1.10 
 -10 -10   7    0.70    1.00 
 -10 -10   7   -0.10    0.50 
 -11 -10  -7   18.20    2.30 
 -10  11  -7   11.60    2.10 
 -11 -10  -7   14.30    2.40 
 -11 -10   7   13.40    1.80 
 -11 -10   7   18.30    2.30 
  -9  11  -7   16.90    2.30 
 -11  -9  -7   13.60    2.20 
 -11  -9  -7   22.30    2.70 
  -9  11   7   17.00    2.60 
 -11  -9   7   19.20    2.80 
 -11  -9   7   16.40    2.00 
  -8  11  -7   31.20    3.90 
 -11  -8  -7   40.80    4.40 
 -11  -8   7   37.50    4.10 
 -11  -8   7   31.30    3.70 
  -8  11   7   35.90    4.10 
  -7  11  -7    7.20    1.30 
 -11  -7  -7    8.80    1.10 
 -11  -7  -7    5.60    1.80 
 -11  -7   7    4.60    1.40 
  -7  11   7    7.30    1.60 
 -11  -7   7    8.10    1.20 
 -11  -6  -7    6.20    1.70 
 -11  -6  -7    5.60    0.80 
  -6  11  -7    4.40    1.00 
 -11  -6   7    6.40    1.30 
  -6  11   7    5.70    1.30 
 -11  -6   7    3.90    0.90 
 -11  -5  -7    4.90    1.60 
  -5  11  -7    5.90    1.00 
 -11  -5   7    6.90    1.10 
 -11  -5   7    6.10    1.30 
  -5  11   7    4.70    1.30 
  -4  11  -7   12.80    1.50 
 -11  -4  -7   17.40    2.80 
 -11  -4   7   12.60    1.90 
  -4  11   7   12.00    1.80 
 -11  -4   7   13.50    1.70 
  -4  11   7   11.30    2.00 
  -3  11  -7   56.79    5.90 
 -11  -3   7   58.89    6.20 
  -3  11   7   59.49    6.20 
 -11  -2  -7   28.80    3.40 
  11   2  -7   25.10    2.90 
  -2  11   7   26.70    3.20 
 -11  -2   7   26.00    3.10 
  -2  11   7   25.10    3.00 
  11   1  -7   15.30    1.60 
  -1  11   7   10.20    1.70 
 -11  -1   7   12.10    1.80 
  -1  11   7   13.80    2.00 
 -11   0  -7    0.20    1.00 
  11   0  -7    2.20    0.60 
   0 -11  -7    1.40    1.10 
   0  11   7    0.10    0.70 
 -11   0   7    1.20    0.90 
   0  11   7    0.10    0.90 
 -11   1  -7   19.10    2.40 
  -1 -11  -7   11.30    2.00 
  11  -1  -7   11.20    1.50 
 -11   1   7   14.20    1.90 
   1  11   7    8.00    1.70 
   1  11   7   15.80    2.10 
  -2 -11  -7   26.00    3.40 
 -11   2  -7   25.90    3.30 
  11  -2  -7   27.30    3.00 
  -2 -11  -7   25.60    3.70 
   2  11   7   22.50    3.20 
   2  11   7   26.10    3.10 
  11  -2   7   28.90    2.80 
 -11   2   7   27.70    3.20 
  -3 -11  -7   63.69    7.00 
 -11   3  -7   61.19    6.90 
  -3 -11  -7   57.69    7.00 
   3  11   7   61.99    6.70 
 -11   3   7   63.49    6.70 
  11  -3   7   65.89    6.50 
   3  11   7   61.99    6.80 
  11  -3   7   66.19    6.50 
 -11   4  -7   12.00    2.20 
  -4 -11  -7   16.50    2.40 
  11  -4  -7   12.70    1.80 
  -4 -11  -7   15.60    2.50 
  11  -4   7   18.10    1.80 
 -11   4   7   14.30    2.10 
  11  -4   7   13.70    1.60 
   4  11   7   12.30    1.90 
 -11   5  -7    8.50    1.60 
  11  -5  -7    5.20    1.10 
  -5 -11  -7    6.60    1.60 
  -5 -11  -7   11.70    2.00 
 -11   5   7    4.40    1.30 
  11  -5   7    5.90    0.90 
  -5 -11   7    5.50    1.60 
   5  11   7    6.70    1.20 
  11  -5   7    5.90    1.10 
 -11   6  -7    4.00    1.30 
  -6 -11  -7    4.80    1.50 
  -6 -11  -7    4.20    1.60 
  11  -6   7    6.30    0.90 
  11  -6   7    7.00    1.20 
 -11   6   7    5.80    1.30 
  -6 -11   7    4.10    1.30 
   6  11   7    4.20    1.00 
  -7 -11  -7    9.50    1.90 
 -11   7  -7    6.60    1.60 
  -7 -11  -7    8.30    1.90 
  11  -7   7    8.10    1.60 
  11  -7   7    8.80    1.30 
  -7 -11   7    7.80    1.70 
 -11   7   7    7.00    1.70 
  -8 -11  -7   28.10    4.10 
 -11   8  -7   41.60    4.40 
  -8 -11  -7   30.20    4.30 
  -8 -11   7   32.80    3.50 
  -8 -11   7   34.70    4.00 
  -8 -11   7   32.40    3.50 
  11  -8   7   32.50    4.00 
 -11   8   7   38.80    4.10 
  -9 -11  -7   19.70    2.70 
  -9 -11  -7   14.50    2.80 
  -9 -11   7   18.90    1.90 
  -9 -11   7   15.60    2.50 
 -11   9   7   16.20    2.60 
  11  -9   7   12.70    2.50 
 -10 -11  -7   18.50    2.50 
 -10 -11  -7   12.10    2.30 
 -11  10  -7   12.60    2.50 
 -11  10   7   14.00    2.40 
 -10 -11   7   17.30    2.30 
 -11 -11  -7    0.10    1.00 
 -11  11  -7    0.80    1.00 
 -11 -11  -7    0.80    1.00 
 -11 -11   7    0.00    0.50 
 -11 -11   7    0.10    0.80 
 -11  11   7    4.00    1.30 
 -12 -11  -7    0.20    0.90 
 -11  12  -7    1.70    1.00 
 -12 -11  -7    1.00    1.20 
 -12 -11   7    2.30    1.10 
 -11  12   7    2.20    1.30 
 -12 -11   7    1.30    0.70 
 -10  12  -7    2.10    1.10 
 -12 -10  -7    2.10    1.30 
 -12 -10  -7    3.50    0.90 
 -12 -10   7    3.20    1.20 
 -12 -10   7    3.30    0.80 
 -10  12   7    1.00    1.20 
 -12  -9  -7   -0.10    1.10 
  -9  12  -7    0.40    0.90 
  -9  12   7    1.20    1.10 
 -12  -9   7    1.10    0.60 
 -12  -9   7    1.80    1.20 
 -12  -8  -7   -0.10    0.50 
  -8  12  -7    1.30    0.80 
 -12  -8  -7    0.40    1.10 
 -12  -8   7   -0.40    0.90 
 -12  -8   7    0.00    0.60 
  -8  12   7   -0.70    1.10 
 -12  -7  -7    1.70    1.30 
  -7  12  -7    0.80    0.70 
 -12  -7   7    1.80    0.70 
 -12  -7   7    3.10    1.10 
  -7  12   7    3.10    1.20 
  -6  12  -7    0.30    0.60 
 -12  -6  -7   -0.60    1.20 
 -12  -6   7    1.10    0.90 
  -6  12   7    1.60    1.10 
 -12  -6   7    0.00    0.60 
  -5  12  -7    3.40    0.70 
 -12  -5  -7    3.80    1.50 
  -5  12   7    5.40    1.30 
 -12  -5   7    1.80    0.80 
 -12  -5   7    2.50    1.00 
 -12  -4  -7    4.60    1.40 
  -4  12  -7    1.60    0.50 
  -4  12   7    2.10    1.10 
 -12  -4   7    3.40    0.90 
 -12  -4   7    0.80    0.90 
 -12  -3  -7    8.10    1.80 
  -3  12   7   10.70    1.70 
 -12  -3   7   10.20    1.60 
  -3  12   7    8.40    1.40 
 -12  -3   7    7.60    1.40 
  12   2  -7   13.00    1.60 
 -12  -2  -7    9.20    2.00 
  -2  12   7   11.60    1.80 
 -12  -2   7   15.30    2.00 
  -2  12   7   14.30    2.00 
  12   1  -7    3.10    0.70 
 -12  -1  -7    3.00    1.30 
  -1  12   7    3.70    0.90 
 -12  -1   7    2.50    1.00 
  -1  12   7    1.50    1.00 
  12   0  -7   10.30    1.40 
 -12   0  -7   11.10    2.00 
   0  12   7    7.40    1.60 
   0  12   7    8.10    1.50 
 -12   0   7   10.90    1.60 
  -1 -12  -7    3.50    1.30 
  12  -1  -7    2.90    0.70 
 -12   1  -7    3.80    1.30 
 -12   1   7    3.00    1.10 
   1  12   7    4.10    1.00 
 -12   2  -7    9.90    2.10 
  -2 -12  -7   11.70    2.10 
  12  -2  -7   15.80    2.20 
 -12   2   7   16.10    2.00 
   2  12   7   11.30    1.80 
  -3 -12  -7   11.20    2.00 
 -12   3  -7    7.10    1.80 
  12  -3  -7    9.80    1.40 
   3  12   7    9.30    1.60 
  12  -3   7   11.10    1.20 
  12  -3   7   10.20    1.10 
 -12   3   7   10.00    1.70 
  12  -4  -7    3.30    0.80 
 -12   4  -7    2.10    1.20 
  -4 -12  -7    0.50    1.20 
  12  -4   7    3.10    0.70 
   4  12   7    3.00    0.90 
  12  -4   7    2.80    0.50 
 -12   4   7    2.00    1.10 
  -4 -12   7    2.40    1.10 
  12  -5  -7    2.10    0.80 
 -12   5  -7    3.60    1.30 
  -5 -12  -7    3.80    1.40 
  12  -5   7    3.20    0.60 
   5  12   7    2.90    0.90 
  -5 -12   7    1.60    1.10 
 -12   5   7    4.10    1.20 
 -12   6  -7    0.50    1.00 
  -6 -12  -7    1.10    1.10 
  -6 -12   7    1.30    1.00 
 -12   6   7    0.70    0.90 
  12  -6   7    0.30    0.50 
  12  -6   7   -0.20    0.70 
 -12   7  -7    2.30    1.20 
  -7 -12  -7    1.50    1.10 
 -12   7   7    2.70    1.60 
  12  -7   7    1.80    0.70 
  12  -7   7    2.00    0.90 
  -7 -12   7    1.40    1.00 
  -8 -12  -7    0.10    1.10 
  -8 -12  -7    1.00    1.30 
 -12   8  -7    1.30    1.10 
 -12   8   7   -0.20    1.10 
  12  -8   7    0.60    1.00 
  -8 -12   7    2.30    1.10 
  -9 -12  -7    1.70    1.20 
  -9 -12  -7    2.50    1.50 
 -12   9  -7    1.30    1.10 
  -9 -12   7    1.30    0.50 
  -9 -12   7    1.80    0.50 
  12  -9   7    1.90    1.10 
  -9 -12   7    1.70    1.10 
 -12   9   7    1.30    1.20 
 -10 -12  -7    4.20    1.70 
 -10 -12  -7    4.20    1.30 
 -12  10  -7    3.90    1.30 
 -10 -12   7    4.70    1.20 
 -10 -12   7    3.30    0.70 
 -11 -12  -7    2.40    1.90 
 -11 -12  -7    2.50    1.10 
 -12  11  -7    2.80    1.20 
 -12  11   7    6.00    1.50 
 -11 -12   7    1.50    0.60 
 -12 -12  -7    0.60    1.20 
 -12  12  -7    0.30    1.00 
 -12  12   7    1.70    1.40 
 -12 -12   7    0.40    0.60 
 -12 -12   7   -0.80    0.90 
 -13 -11  -7    3.90    1.40 
 -11  13  -7    0.50    0.90 
 -13 -11   7    1.30    0.70 
 -13 -11   7   -0.50    1.00 
 -10  13  -7    4.70    1.20 
 -13 -10  -7    6.20    1.60 
 -10  13   7    7.00    1.70 
 -13 -10   7    5.90    1.50 
 -13 -10   7    5.40    1.00 
 -13  -9  -7    3.40    0.60 
  -9  13  -7    5.00    1.20 
 -13  -9  -7    7.40    1.70 
 -13  -9   7    5.40    1.40 
 -13  -9   7    3.70    0.90 
  -9  13   7    5.40    1.50 
 -13  -8  -7    1.50    1.30 
  -8  13  -7    2.00    0.80 
  -8  13   7    1.20    1.20 
 -13  -8   7    0.00    0.90 
 -13  -8   7    2.00    0.70 
  -7  13  -7   -0.20    0.60 
 -13  -7  -7    2.10    1.20 
  -7  13   7    0.10    1.00 
 -13  -7   7    0.80    0.90 
 -13  -7   7    3.00    0.80 
 -13  -6   7    0.30    0.60 
  -6  13   7    0.60    1.10 
 -13  -6   7   -0.90    0.80 
  -5  13  -7    1.00    0.50 
 -13  -5  -7    1.80    1.20 
 -13  -5   7    0.30    0.90 
  -4  13  -7   26.70    3.10 
 -13  -4  -7   40.20    4.10 
  -4  13   7   36.50    3.80 
 -13  -4   7   29.10    3.60 
 -13  -4   7   34.10    3.60 
 -13  -3  -7   16.70    2.60 
  -3  13   7   14.40    2.30 
 -13  -3   7   14.80    2.00 
 -13  -3   7   12.70    2.00 
 -13  -2  -7   23.80    3.00 
 -13  -2   7   19.80    2.50 
  -2  13   7   20.10    2.70 
  -2  13   7   20.40    2.70 
 -13  -2   7   18.70    2.60 
  13   1  -7    0.80    0.60 
 -13  -1  -7    1.00    1.20 
 -13  -1   7    0.10    0.80 
  -1  13   7    0.90    0.80 
  -1  13   7    1.00    0.90 
 -13   0  -7    0.20    1.00 
   0  13   7   -0.50    0.70 
 -13   0   7   -0.20    0.80 
  13  -1  -7    0.40    0.50 
 -13   1  -7    1.90    1.20 
   1  13   7    0.20    0.70 
 -13   1   7    1.60    0.90 
  13  -2  -7   16.30    2.20 
  -2 -13  -7   20.30    2.70 
 -13   2  -7   20.90    2.80 
   2  13   7   20.60    2.90 
 -13   2   7   21.80    2.60 
  -3 -13  -7   16.20    2.30 
  13  -3  -7   11.00    1.70 
 -13   3  -7   12.40    2.20 
 -13   3   7   16.70    2.10 
  13  -4  -7   36.40    4.20 
  -4 -13  -7   39.40    4.70 
 -13   4  -7   37.80    4.70 
   4  13   7   35.80    4.30 
 -13   4   7   38.30    4.50 
  13  -4   7   41.20    4.10 
  13  -4   7   42.00    4.00 
  -5 -13  -7    0.10    1.00 
 -13   5  -7    0.90    1.10 
  -5 -13   7   -1.10    0.90 
 -13   5   7    1.20    1.00 
  13  -5   7   -0.20    0.50 
  13  -5   7    0.40    0.40 
 -13   6  -7    0.20    1.00 
  -6 -13  -7    0.10    1.00 
  13  -6   7   -0.50    0.60 
  -6 -13   7   -0.80    0.90 
 -13   6   7    0.60    1.20 
 -13   7  -7    2.60    1.20 
  -7 -13  -7    1.10    1.20 
  13  -7   7    2.10    0.70 
  -7 -13   7   -0.20    1.70 
 -13   7   7    0.20    1.10 
  13  -7   7    1.70    0.80 
  -8 -13  -7    2.20    1.20 
 -13   8  -7    1.40    1.20 
 -13   8   7    1.50    1.30 
  -8 -13   7    3.40    1.30 
  13  -8   7    1.80    0.90 
  13  -8   7    0.90    0.70 
 -13   9  -7    6.10    1.90 
  -9 -13  -7    3.40    1.30 
  -9 -13   7    4.10    1.30 
 -13   9   7    4.70    1.60 
  13  -9   7    4.10    1.20 
 -10 -13  -7    4.80    1.30 
 -13  10  -7    5.70    2.40 
 -10 -13   7    5.00    1.30 
 -10 -13   7    3.10    0.60 
 -13  10   7    3.50    1.50 
 -11 -13  -7   -0.80    1.00 
 -13  11  -7    1.40    1.20 
 -13  11   7    3.00    1.40 
 -11 -13   7    0.70    0.50 
 -11 -13   7    2.10    1.10 
 -14 -10  -7    1.50    1.30 
 -10  14  -7    0.60    0.90 
 -14 -10   7    2.60    1.20 
  -9  14  -7   16.00    2.20 
 -14  -9  -7   20.20    2.90 
 -14  -9   7   17.00    2.10 
 -14  -9   7   15.40    2.40 
  -8  14  -7    1.70    0.80 
 -14  -8  -7    1.40    1.40 
 -14  -8   7    3.40    0.90 
  -7  14  -7    7.50    1.20 
 -14  -7  -7    8.20    2.00 
 -14  -7   7    7.30    1.30 
 -14  -7   7    9.70    1.70 
 -14  -6  -7   -0.20    1.30 
  -6  14  -7    0.60    0.50 
 -14  -6   7    0.00    0.70 
 -14  -6   7   -1.40    0.90 
 -14  -5  -7   12.80    2.50 
  -5  14  -7   13.70    1.50 
 -14  -5   7   14.20    2.10 
 -14  -5   7   14.30    1.90 
 -14  -4   7   18.30    2.50 
 -14  -4   7   21.70    2.70 
 -14  -3  -7   35.60    4.20 
 -14  -3   7   31.30    3.80 
 -14  -3   7   33.50    3.90 
 -14  -2  -7    0.30    1.10 
 -14  -2   7    3.00    1.10 
 -14  -2   7    2.10    0.90 
  14   1  -7   17.40    2.20 
 -14  -1  -7   23.60    3.10 
 -14  -1   7   19.70    2.50 
 -14  -1   7   17.40    2.40 
  14   0  -7   18.20    2.10 
 -14   0  -7   11.70    2.80 
 -14   0   7   20.70    2.50 
  14  -1  -7   19.30    2.40 
 -14   1  -7   22.00    4.00 
 -14   1   7   23.60    2.70 
 -14   2  -7    0.60    1.40 
  14  -2  -7    3.70    0.80 
  -2 -14  -7    2.00    1.10 
 -14   2   7    2.70    1.10 
  -3 -14  -7   41.30    4.40 
 -14   3  -7   31.20    4.60 
  14  -3  -7   34.00    3.90 
 -14   3   7   38.70    4.30 
 -14   4  -7   15.10    2.90 
  -4 -14  -7   21.20    2.90 
 -14   4   7   26.00    3.00 
  -5 -14  -7   21.60    2.70 
 -14   5  -7   15.80    2.80 
 -14   5   7   18.20    2.70 
  14  -5   7   18.50    2.00 
  14  -5   7   17.50    2.00 
  -5 -14   7   18.20    2.70 
 -14   6  -7    1.20    1.30 
  -6 -14  -7   -0.50    1.60 
 -14   6   7   -0.50    1.10 
  -6 -14   7    0.60    1.00 
  14  -6   7    0.90    0.50 
 -14   7  -7    4.40    1.70 
  -7 -14  -7    7.80    1.70 
  -7 -14   7    8.10    1.70 
  14  -7   7   10.80    1.30 
  14  -7   7    9.80    1.40 
 -14   7   7   10.00    2.00 
  -8 -14  -7    3.30    1.20 
 -14   8  -7    2.00    1.30 
  14  -8   7    5.10    1.10 
  -8 -14   7    3.30    1.30 
  14  -8   7    4.80    1.00 
 -14   8   7    3.00    1.40 
 -14   9  -7   13.10    2.70 
  -9 -14  -7   22.60    2.70 
  14  -9   7   19.90    2.40 
  -9 -14   7   21.80    2.70 
 -14   9   7   17.30    3.20 
  14  -9   7   17.90    2.70 
 -14  10  -7    1.10    1.30 
 -10 -14  -7    2.40    1.30 
 -10 -14   7    0.50    1.00 
 -14  10   7    3.60    1.50 
 -15  -8  -7   24.80    4.00 
  -8  15  -7   11.70    1.90 
 -15  -8   7   16.20    2.00 
 -15  -8   7   20.60    2.40 
 -15  -7  -7    8.20    1.90 
 -15  -7   7    4.90    1.40 
 -15  -7   7    7.00    1.30 
  -6  15  -7   -0.20    0.30 
  -6  15  -7    0.60    0.30 
 -15  -6  -7   -0.40    1.20 
 -15  -6   7    0.10    0.90 
 -15  -6   7    0.00    0.60 
 -15  -5  -7   13.30    2.30 
 -15  -5   7   10.60    1.90 
 -15  -5   7   11.00    1.80 
 -15  -4  -7    0.30    1.20 
 -15  -4   7    1.10    0.90 
 -15  -3  -7   -0.50    1.10 
 -15  -3   7   -0.70    1.10 
 -15  -3   7   -0.40    0.90 
 -15  -2  -7    9.00    1.90 
 -15  -2   7    7.90    1.50 
 -15  -2   7    9.00    1.60 
 -15  -1  -7   21.10    2.90 
 -15  -1   7   13.20    2.10 
 -15  -1   7   15.20    2.20 
  15   0  -7    0.40    0.60 
 -15   0  -7    0.70    1.10 
 -15   0   7    0.30    0.80 
 -15   0   7    0.40    0.90 
 -15   1  -7   19.50    2.90 
 -15   1   7   14.80    2.10 
 -15   1   7   15.20    2.30 
 -15   2  -7   10.00    2.10 
  15  -2  -7    8.80    1.30 
 -15   2   7    9.20    1.60 
 -15   2   7    7.90    1.70 
  -3 -15  -7   -0.50    0.90 
 -15   3  -7   -1.10    1.10 
 -15   3   7   -1.30    0.90 
 -15   4  -7    0.70    1.20 
  -4 -15  -7    0.90    1.20 
 -15   4   7    1.10    1.10 
 -15   5  -7   17.20    2.30 
  -5 -15  -7   11.70    2.10 
 -15   5   7   11.00    2.50 
  -5 -15   7   12.40    2.30 
  -6 -15  -7   -0.20    1.00 
 -15   6  -7    0.10    1.20 
  15  -6   7    0.00    0.40 
  15  -6   7    0.50    0.40 
  -6 -15   7   -1.50    1.00 
 -15   6   7   -0.80    1.10 
 -15   7  -7    7.40    1.80 
  -7 -15  -7    7.20    1.50 
 -15   7   7    3.70    1.60 
  15  -7   7    7.00    1.10 
  -7 -15   7    6.00    1.60 
 -15   8  -7   14.60    3.00 
  -8 -15  -7   19.10    2.70 
  15  -8   7   23.30    2.40 
  -8 -15   7   21.70    2.90 
 -15   8   7   19.30    4.10 
 -16  -6  -7    2.40    1.30 
 -16  -6   7    0.40    0.70 
 -16  -6   7    1.90    1.00 
 -16  -5  -7    0.30    1.60 
 -16  -5   7    3.20    1.10 
 -16  -5   7    3.10    0.90 
 -16  -4   7    2.50    1.00 
 -16  -4   7    3.30    1.00 
 -16  -3  -7    1.90    1.90 
 -16  -3   7    0.70    0.90 
 -16  -3   7    0.10    0.80 
 -16  -2  -7   -0.60    1.10 
 -16  -2   7   -0.90    0.80 
 -16  -2   7    0.20    0.80 
 -16  -1  -7    5.90    1.80 
 -16  -1   7    5.10    1.20 
 -16  -1   7    4.60    1.20 
 -16   0  -7    9.20    2.20 
  16   0  -7   16.20    1.90 
 -16   0   7   16.50    2.20 
  16  -1  -7    5.50    1.00 
 -16   1  -7    6.20    1.70 
 -16   1   7    3.00    1.30 
 -16   1   7    3.80    1.10 
  16  -2  -7    1.00    0.80 
 -16   2  -7   -0.80    1.20 
 -16   2   7    0.30    0.90 
 -16   2   7    1.10    1.10 
 -16   3  -7   -0.30    1.20 
 -16   3   7    1.60    1.10 
 -16   3   7    0.40    1.40 
  -4 -16  -7    2.20    1.00 
 -16   4  -7    3.60    1.50 
 -16   4   7    1.20    1.10 
  -5 -16  -7    5.10    1.20 
 -16   5   7    2.80    1.00 
 -16   5   7    2.30    1.40 
 -16   6  -7    0.60    1.70 
  -6 -16  -7    1.80    1.00 
  -6 -16   7    1.00    1.30 
 -16   6   7    0.70    1.30 
 -16   6   7    0.60    0.90 
 -17  -2  -7    5.30    1.80 
 -17  -2   7    5.10    1.20 
 -17  -1  -7    0.50    1.20 
 -17  -1   7    1.90    1.00 
 -17   0  -7    0.50    1.40 
 -17   0   7   -0.40    0.90 
 -17   0   7    0.50    0.70 
 -17   1  -7   -0.20    1.20 
 -17   1   7    0.80    1.00 
 -17   1   7    1.10    0.90 
 -17   2  -7    3.40    1.60 
 -17   2   7    5.20    1.30 
 -17   2   7    5.30    1.30 
   0   0  -8 2810.72  282.17 
   0   0   8 2349.26  255.77 
   1   0  -8  158.28   18.50 
   0   1  -8  187.08   18.50 
   0  -1  -8  189.58   18.40 
   1   0  -8  171.08   18.40 
   0  -1  -8  186.58   18.50 
   0   1  -8  185.78   18.40 
  -1   0  -8  165.98   18.40 
   0   1   8  183.98   18.50 
   0   1   8  203.58   18.40 
  -1   0   8  178.98   18.50 
  -1   0   8  182.58   18.40 
   1   0   8  164.78   18.50 
   0  -1   8  185.08   18.50 
   1   0   8  174.38   18.50 
   0  -1   8  201.08   18.40 
  -1  -1  -8   15.40    1.80 
   1   1  -8   17.20    1.90 
  -1  -1  -8   13.70    1.90 
   1  -1  -8   16.00    1.90 
  -1   1  -8   15.40    1.80 
   1   1  -8   15.90    1.90 
   1  -1  -8   14.70    1.90 
  -1   1  -8   15.00    1.90 
   1   1   8   16.70    1.90 
  -1  -1   8   17.20    2.00 
  -1   1   8   18.80    1.90 
  -1  -1   8   18.10    1.90 
   1  -1   8   13.90    2.10 
  -1   1   8   16.00    2.00 
   1   1   8   17.40    2.00 
  -1   2  -8   45.10    5.00 
  -1   2  -8   47.60    5.00 
  -2  -1  -8   46.40    5.00 
  -2  -1  -8   48.30    5.20 
   1  -2  -8   47.80    5.00 
   1  -2  -8   46.40    5.10 
   2   1  -8   49.90    5.00 
   2   1  -8   49.50    5.00 
  -2  -1   8   47.60    5.00 
  -1   2   8   49.99    5.00 
  -2  -1   8   50.89    5.10 
   1  -2   8   50.09    5.00 
   2   1   8   47.50    5.20 
   2   1   8   49.70    5.00 
   1  -2   8   40.20    5.10 
  -1   2   8   46.10    5.10 
   0   2  -8  318.07   31.80 
   2   0  -8  313.67   31.80 
  -2   0  -8  309.77   31.80 
   0  -2  -8  297.17   31.80 
   2   0  -8  277.17   31.90 
  -2   0  -8  324.97   31.90 
   0   2  -8  310.57   31.80 
   0  -2  -8  318.87   31.90 
  -2   0   8  307.57   31.80 
   0   2   8  318.37   31.80 
  -2   0   8  325.27   31.80 
   2   0   8  312.97   31.80 
   0  -2   8  329.07   31.90 
   0  -2   8  315.37   31.80 
   2   0   8  329.27   31.90 
   1   2  -8   45.10    5.00 
  -1  -2  -8   41.80    5.10 
   2  -1  -8   47.80    5.00 
  -2   1  -8   48.20    5.00 
   2  -1  -8   47.20    5.00 
   1   2  -8   45.30    5.00 
  -1  -2  -8   48.80    5.00 
  -1  -2   8   44.90    5.10 
   2  -1   8   44.50    5.10 
  -2   1   8   52.69    5.00 
   2  -1   8   50.89    5.00 
   1   2   8   46.00    5.10 
  -1  -2   8   49.99    5.00 
   1   2   8   50.39    5.00 
  -2   1   8   46.70    5.00 
   2  -2   8 1254.67  126.79 
  -2   3  -8   82.49    8.10 
   2  -3  -8   80.99    8.10 
   3   2  -8   73.09    8.00 
  -3  -2  -8   74.99    8.00 
   2  -3  -8   77.99    8.10 
  -3  -2  -8   76.09    8.20 
  -3  -2   8   77.49    8.10 
  -2   3   8   83.89    8.10 
  -3  -2   8   73.19    8.10 
   3   2   8   74.49    8.20 
   2  -3   8   74.59    8.20 
   3   2   8   78.89    8.00 
   2  -3   8   83.79    8.00 
  -2   3   8   79.79    8.10 
   3   1  -8   26.30    3.20 
  -3  -1  -8   27.50    3.50 
  -3  -1  -8   29.60    3.20 
  -1   3  -8   32.00    3.30 
   1  -3  -8   33.00    3.40 
   1  -3  -8   32.50    3.30 
  -1   3   8   30.10    3.40 
   3   1   8   32.60    3.20 
  -3  -1   8   27.10    3.30 
   1  -3   8   32.10    3.30 
   3   1   8   23.10    3.40 
  -1   3   8   33.60    3.30 
  -3  -1   8   29.20    3.30 
   0   3  -8  120.39   12.50 
   0  -3  -8  130.29   12.70 
   3   0  -8  118.39   12.50 
   0  -3  -8  124.09   12.60 
  -3   0  -8  118.19   12.70 
   0   3  -8  132.19   12.50 
  -3   0  -8  114.49   12.50 
   0  -3   8  120.69   12.60 
   3   0   8  124.69   12.50 
   3   0   8  114.69   12.70 
   0   3   8  131.19   12.60 
   0  -3   8  128.09   12.50 
  -3   0   8  120.59   12.50 
   0   3   8  130.19   12.50 
  -3   0   8  110.79   12.60 
  -1  -3  -8   29.90    3.20 
  -1  -3  -8   28.10    3.30 
   1   3  -8   31.00    3.20 
   3  -1  -8   27.90    3.20 
   1   3  -8   33.90    3.20 
  -3   1  -8   27.20    3.20 
   3  -1   8   30.70    3.10 
   3  -1   8   22.80    3.30 
  -1  -3   8   33.10    3.20 
  -3   1   8   27.70    3.30 
   1   3   8   31.10    3.20 
  -1  -3   8   23.40    3.30 
   1   3   8   26.30    3.30 
  -3   1   8   32.90    3.20 
  -2  -3  -8   84.59    8.30 
  -3   2  -8   77.29    8.30 
  -2  -3  -8   77.59    8.10 
   2   3  -8   77.39    8.10 
   3  -2  -8   75.29    8.10 
  -3   2   8   76.39    8.10 
   2   3   8   82.39    8.20 
  -2  -3   8   75.89    8.20 
   3  -2   8   80.79    8.00 
  -3   2   8   75.39    8.10 
   2   3   8   80.69    8.10 
   3  -2   8   71.49    8.20 
  -2  -3   8   79.79    8.10 
  -3  -3  -8    5.90    0.90 
   3  -3  -8    5.70    0.90 
  -3  -3  -8    3.70    1.20 
  -3   3  -8    3.90    1.00 
   3   3  -8    4.40    0.80 
   3  -3   8    5.10    0.80 
   3  -3   8    3.10    1.00 
  -3   3   8    5.30    0.90 
  -3   3   8    5.30    1.00 
   3   3   8    6.20    0.80 
  -3  -3   8    4.70    0.90 
  -3  -3   8    3.30    0.90 
   3   3   8    4.00    1.10 
   4   3  -8   63.79    6.70 
   3  -4  -8   66.59    6.80 
  -4  -3  -8   63.69    7.00 
  -4  -3  -8   65.89    6.70 
  -3   4  -8   60.09    6.80 
   4   3   8   70.89    6.70 
  -3   4   8   60.79    6.70 
  -4  -3   8   64.79    6.70 
   3  -4   8   57.19    6.80 
  -3   4   8   71.79    6.70 
   3  -4   8   67.19    6.70 
   4   3   8   59.99    6.80 
  -4  -3   8   63.89    6.80 
  -4  -2  -8  454.75   47.90 
   2  -4  -8  486.95   48.10 
  -4  -2  -8  547.95   48.20 
  -2   4  -8  496.05   48.00 
   2  -4  -8  429.46   48.00 
   4   2  -8  477.45   48.00 
   2  -4   8  471.55   48.00 
  -2   4   8  451.65   48.00 
  -4  -2   8  451.15   48.00 
   4   2   8  457.95   47.90 
  -2   4   8  480.35   48.00 
   2  -4   8  476.85   48.20 
  -4  -2   8  487.15   48.00 
   1  -4  -8  163.88   17.20 
   4   1  -8  169.38   17.20 
  -4  -1  -8  182.38   17.40 
  -4  -1  -8  179.28   17.20 
   1  -4  -8  157.38   17.30 
  -1   4  -8  156.88   17.10 
   1  -4   8  162.58   17.20 
   4   1   8  178.88   17.30 
   1  -4   8  141.19   17.20 
  -4  -1   8  172.78   17.20 
  -1   4   8  174.38   17.20 
  -4  -1   8  175.18   17.20 
  -1   4   8  161.28   17.20 
   4   1   8  186.28   17.10 
  -4   0  -8 1087.59  107.49 
  -4   0  -8  976.50  107.29 
   0   4   8 1110.79  107.39 
  -4   0   8 1032.20  107.29 
   0  -4   8 1004.10  107.29 
   4   0   8 1166.88  107.39 
   4  -1  -8  178.88   17.30 
  -1  -4  -8  160.08   17.30 
  -4   1  -8  173.38   17.40 
  -1  -4  -8  162.88   17.40 
  -4   1  -8  170.78   17.20 
   1   4   8  156.98   17.30 
   1   4   8  168.08   17.20 
  -1  -4   8  148.89   17.30 
   4  -1   8  184.48   17.20 
  -4   1   8  187.68   17.30 
   4  -1   8  168.68   17.40 
  -1  -4   8  165.18   17.30 
  -4   1   8  174.88   17.30 
  -4   2  -8  535.25   50.39 
  -2  -4  -8  436.46   50.19 
  -2  -4  -8  508.15   50.39 
   4  -2   8  478.55   50.19 
  -2  -4   8  475.35   50.19 
   2   4   8  451.85   50.19 
   2   4   8  524.35   50.29 
  -2  -4   8  531.75   50.29 
  -4   2   8  482.85   50.29 
   4  -2   8  545.25   50.39 
  -3  -4  -8   67.69    6.80 
   4  -3  -8   67.79    6.80 
  -3  -4  -8   60.39    7.10 
  -4   3  -8   60.39    7.00 
  -3  -4   8   61.79    6.90 
  -4   3   8   64.39    6.90 
   4  -3   8   71.19    6.90 
   4  -3   8   58.19    6.90 
  -3  -4   8   67.39    6.90 
  -4   3   8   74.49    6.90 
   3   4   8   71.29    6.80 
   3   4   8   58.29    6.90 
  -4  -4  -8  392.76   42.00 
  -4  -4  -8  449.16   42.30 
  -4   4  -8  422.36   42.10 
   4  -4  -8  390.76   42.00 
  -4  -4   8  406.46   42.00 
   4  -4   8  428.96   42.10 
   4   4   8  431.36   42.00 
   4   4   8  444.76   42.10 
   4  -4   8  408.76   42.00 
  -4   4   8  401.86   42.00 
  -4   4   8  402.86   42.00 
  -4  -4   8  400.36   42.00 
  -5  -4  -8   59.99    6.30 
  -4   5  -8   65.29    7.10 
  -5  -4  -8   65.99    6.70 
   4  -5  -8   60.29    6.40 
   5   4   8   60.59    6.50 
   4  -5   8   61.59    6.40 
  -5  -4   8   57.19    6.40 
  -4   5   8   62.79    6.40 
   5   4   8   62.89    6.30 
  -4   5   8   59.49    6.40 
  -5  -4   8   59.39    6.40 
   4  -5   8   58.29    6.40 
   5   3  -8    8.50    1.30 
  -5  -3  -8    7.40    1.80 
  -3   5  -8    7.30    1.30 
   3  -5  -8    9.30    1.30 
  -5  -3  -8    8.40    1.30 
   3  -5   8    7.10    1.30 
  -5  -3   8    8.10    1.40 
   5   3   8    9.60    1.20 
   5   3   8    8.00    1.40 
  -3   5   8    9.60    1.40 
  -5  -3   8    9.70    1.40 
   3  -5   8   12.30    1.40 
  -3   5   8   10.30    1.40 
  -5  -2  -8   78.19    8.70 
   2  -5  -8   82.39    8.70 
  -2   5  -8   84.49    8.70 
   2  -5  -8   87.49    8.80 
   5   2  -8   79.59    8.70 
  -5  -2  -8   83.89    9.00 
  -5  -2   8   78.99    8.80 
   2  -5   8   86.19    8.70 
   5   2   8   85.99    8.60 
  -2   5   8   94.89    8.70 
   2  -5   8   87.09    8.70 
  -2   5   8   87.69    8.80 
   5   2   8   82.89    8.90 
  -5  -2   8   81.39    8.70 
  -5  -1  -8   10.20    1.30 
  -1   5  -8    9.00    1.20 
   1  -5  -8   11.00    1.50 
  -5  -1  -8    5.70    1.60 
   5   1  -8    9.90    1.30 
   1  -5  -8    7.80    1.50 
  -5  -1   8   11.90    1.40 
  -1   5   8    8.80    1.40 
   5   1   8    9.70    1.60 
   5   1   8   11.20    1.20 
   1  -5   8    8.20    1.40 
  -5  -1   8   11.10    1.50 
   1  -5   8    9.90    1.40 
  -1   5   8   10.60    1.40 
   0  -5  -8    4.50    1.00 
   5   0  -8    4.40    0.80 
  -5   0  -8    4.30    0.80 
   0  -5  -8    2.80    1.10 
  -5   0  -8    4.10    1.20 
   0   5  -8    4.00    0.70 
  -5   0   8    5.00    0.90 
   0   5   8    3.70    1.00 
   5   0   8    4.30    0.70 
   0  -5   8    3.50    0.90 
  -5   0   8    4.30    1.00 
   0  -5   8    2.60    0.90 
   5   0   8    2.50    1.00 
   0   5   8    4.50    0.90 
  -1  -5  -8   10.30    1.50 
   1   5  -8    9.50    1.20 
  -1  -5  -8    8.80    1.60 
   5  -1  -8   11.20    1.30 
  -5   1  -8    6.40    1.60 
   1   5   8    7.50    1.40 
  -1  -5   8    7.40    1.40 
   1   5   8   11.20    1.40 
  -5   1   8   11.90    1.50 
  -1  -5   8    9.80    1.40 
   5  -1   8    9.80    1.60 
   5  -1   8    8.90    1.20 
  -5   1   8   11.30    1.40 
  -5   2  -8   82.19    9.10 
   5  -2  -8   80.89    8.80 
  -2  -5  -8   88.69    8.90 
  -2  -5  -8   91.99    9.10 
  -5   2   8   84.29    8.90 
   2   5   8   90.99    8.80 
  -2  -5   8   90.09    8.90 
  -2  -5   8   83.89    8.90 
   2   5   8   86.89    8.90 
   5  -2   8   75.99    8.90 
  -5   2   8   85.49    8.90 
  -3  -5  -8    8.70    1.70 
  -3  -5  -8   11.30    1.50 
  -5   3  -8    8.10    1.70 
   5  -3  -8    9.70    1.40 
   3   5   8    7.90    1.50 
  -3  -5   8   11.60    1.50 
  -3  -5   8    7.80    1.40 
  -5   3   8    9.70    1.40 
  -5   3   8   11.30    1.50 
   5  -3   8    6.30    1.40 
   3   5   8   12.60    1.40 
  -4  -5  -8   64.09    6.80 
  -5   4  -8   56.99    6.60 
  -4  -5  -8   62.19    6.50 
   5  -4  -8   62.39    6.50 
   4   5   8   61.09    6.60 
   5  -4   8   59.19    6.40 
  -4  -5   8   61.09    6.50 
  -5   4   8   65.19    6.50 
   5  -4   8   59.19    6.50 
  -4  -5   8   61.89    6.50 
  -5   4   8   64.79    6.50 
   4   5   8   64.29    6.70 
   5  -5  -8   23.00    2.70 
  -5   5  -8   22.30    2.90 
  -5  -5  -8   25.80    2.70 
  -5  -5  -8   25.60    3.30 
  -5  -5   8   21.80    2.70 
   5  -5   8   19.00    2.60 
  -5  -5   8   24.50    2.80 
  -5   5   8   26.20    2.70 
   5   5   8   22.40    2.70 
   5  -5   8   22.10    2.60 
   5   5   8   25.20    2.70 
  -5   5   8   23.00    2.70 
  -5   6  -8   72.49    8.10 
  -6  -5  -8   82.09    8.00 
  -6  -5  -8   90.69    8.50 
  -6  -5   8   76.09    8.00 
   6   5   8   79.39    7.90 
  -5   6   8   75.49    8.00 
   5  -6   8   68.59    7.90 
  -6  -5   8   82.59    8.00 
   5  -6   8   73.99    8.00 
  -5   6   8   69.69    8.10 
  -4   6  -8  252.07   24.90 
  -6  -4  -8  279.97   25.20 
   4  -6  -8  212.48   24.80 
  -6  -4  -8  222.28   24.80 
  -6  -4   8  232.98   24.90 
  -4   6   8  242.58   24.90 
   4  -6   8  258.67   24.80 
  -6  -4   8  230.98   24.80 
   6   4   8  276.77   25.00 
   6   4   8  232.88   24.70 
   4  -6   8  252.67   24.80 
   6   3  -8   46.50    4.90 
  -3   6  -8   46.70    4.90 
  -6  -3  -8   47.30    4.90 
   3  -6  -8   45.50    5.00 
  -6  -3  -8   50.69    5.50 
   3  -6   8   40.30    5.00 
   3  -6   8   47.90    5.00 
   6   3   8   48.70    5.10 
  -3   6   8   48.50    5.00 
  -6  -3   8   44.90    5.00 
   6   3   8   50.29    4.90 
  -3   6   8   44.60    5.00 
  -6  -3   8   45.40    5.00 
  -2   6  -8  563.54   54.89 
   2  -6  -8  577.04   55.09 
   6   2  -8  539.45   54.89 
  -6  -2  -8  549.15   54.89 
   2  -6  -8  470.15   54.99 
   6   2   8  530.55   54.89 
   2  -6   8  532.65   54.99 
  -6  -2   8  531.35   54.99 
   2  -6   8  610.94   54.89 
  -2   6   8  542.35   54.99 
  -2   6   8  511.15   54.89 
  -6  -2   8  559.94   54.99 
  -1   6  -8   75.69    7.70 
   6   1  -8   74.59    7.70 
  -6  -1  -8   73.59    8.10 
   1  -6  -8   79.19    7.90 
   1  -6  -8   77.79    7.90 
  -6  -1  -8   71.79    7.70 
  -1   6   8   71.69    7.80 
   6   1   8   79.69    7.60 
  -6  -1   8   79.09    7.80 
  -6  -1   8   74.29    7.80 
   1  -6   8   74.69    7.80 
   6   1   8   64.99    7.90 
   1  -6   8   63.79    7.70 
  -1   6   8   85.69    7.80 
   0  -6  -8  162.18   17.10 
  -6   0  -8  160.28   16.90 
  -6   0  -8  172.98   17.20 
   0  -6  -8  161.18   17.00 
   6   0  -8  164.38   16.90 
   0   6  -8  165.38   16.80 
  -6   0   8  179.28   16.90 
   0   6   8  171.58   16.90 
   6   0   8  156.88   17.10 
  -6   0   8  171.28   17.00 
   0   6   8  157.78   16.90 
   6   0   8  174.88   16.80 
   0  -6   8  155.88   16.90 
   0  -6   8  166.08   17.00 
   6  -1  -8   73.49    7.60 
  -1  -6  -8   76.99    7.80 
  -1  -6  -8   69.89    7.90 
  -6   1  -8   73.29    8.00 
   6  -1   8   75.39    7.60 
  -1  -6   8   77.49    7.70 
   6  -1   8   62.29    7.80 
  -6   1   8   84.79    7.70 
   1   6   8   66.09    7.70 
   1   6   8   85.19    7.70 
  -6   1   8   77.99    7.80 
  -1  -6   8   62.69    7.60 
  -2  -6  -8  570.64   55.29 
  -2  -6  -8  504.55   55.09 
   6  -2  -8  517.95   54.99 
   6  -2   8  546.25   54.99 
  -6   2   8  526.85   55.09 
  -2  -6   8  557.24   55.09 
   2   6   8  593.04   55.19 
  -2  -6   8  538.35   54.99 
  -6   2   8  575.24   55.09 
   2   6   8  515.05   54.99 
  -3  -6  -8   48.00    5.20 
  -6   3  -8   49.90    5.40 
  -3  -6  -8   49.70    5.50 
   6  -3  -8   51.79    5.10 
   6  -3   8   49.60    5.00 
  -3  -6   8   41.00    5.10 
   3   6   8   51.69    5.10 
  -6   3   8   50.69    5.20 
   6  -3   8   41.00    5.20 
  -3  -6   8   48.30    5.20 
  -6   3   8   49.80    5.20 
   3   6   8   46.60    5.20 
  -4  -6  -8  281.97   25.40 
  -4  -6  -8  232.38   25.10 
  -6   4  -8  265.97   25.30 
   6  -4  -8  227.68   25.10 
   6  -4   8  246.08   25.00 
  -6   4   8  244.58   25.10 
  -4  -6   8  247.68   25.10 
   6  -4   8  265.67   25.20 
   4   6   8  271.37   25.20 
  -4  -6   8  244.88   25.10 
   4   6   8  211.88   25.10 
  -6   4   8  227.68   25.10 
  -5  -6  -8   71.79    8.00 
   6  -5  -8   73.99    8.10 
  -6   5  -8   78.39    8.30 
  -5  -6  -8   83.09    8.40 
  -5  -6   8   66.79    8.00 
  -6   5   8   84.29    8.10 
   6  -5   8   81.29    7.90 
  -5  -6   8   73.79    8.10 
   5   6   8   79.29    8.10 
  -6   5   8   73.89    8.00 
   6  -5   8   79.69    8.00 
   5   6   8   77.69    8.00 
  -6  -6  -8  367.76   38.90 
  -6   6  -8  430.46   39.00 
   6  -6  -8  334.07   38.90 
   6  -6   8  444.06   38.90 
  -6  -6   8  387.86   38.90 
  -6  -6   8  370.86   38.90 
   6  -6   8  404.96   38.90 
  -6   6   8  397.66   38.90 
  -6   6   8  340.07   38.90 
   6   6   8  359.46   38.80 
  -7  -6  -8   38.20    4.50 
   6  -7  -8   37.70    4.20 
  -7  -6  -8   40.90    4.20 
  -6   7  -8   37.30    4.20 
  -7  -6   8   37.10    4.10 
   7   6   8   40.90    4.50 
   6  -7   8   29.90    4.00 
   6  -7   8   36.80    4.10 
  -6   7   8   40.40    4.20 
  -7  -6   8   37.80    4.20 
  -6   7   8   39.40    4.10 
   7   6   8   35.60    4.10 
  -7  -5  -8   16.40    2.80 
  -5   7  -8   13.10    2.30 
  -7  -5  -8   22.30    2.30 
   5  -7  -8   17.90    2.40 
  -7  -5   8   18.90    2.30 
   7   5   8   23.70    2.20 
  -7  -5   8   20.00    2.40 
  -5   7   8   20.00    2.40 
  -5   7   8   17.10    2.30 
   5  -7   8   18.80    2.30 
   7   5   8   15.10    2.40 
  -4   7  -8   12.40    2.00 
  -7  -4  -8   18.00    2.00 
   4  -7  -8   13.70    2.20 
  -7  -4  -8   16.20    2.70 
  -7  -4   8   18.50    2.20 
  -4   7   8   14.90    2.60 
   4  -7   8   15.80    2.10 
   7   4   8   15.50    2.20 
  -7  -4   8   14.60    2.10 
   7   4   8   18.90    1.90 
  -4   7   8   17.90    2.10 
  -7  -3  -8    6.60    1.70 
  -3   7  -8    4.70    1.00 
   3  -7  -8    8.70    1.70 
  -7  -3  -8    7.70    1.10 
  -7  -3   8    6.40    1.20 
   3  -7   8    4.50    0.90 
   7   3   8    8.20    1.00 
   3  -7   8    5.80    1.20 
  -3   7   8   11.00    1.40 
  -3   7   8    7.60    1.30 
  -2   7  -8   72.39    7.30 
  -7  -2  -8   73.79    7.80 
  -7  -2  -8   70.69    7.30 
   2  -7  -8   67.39    7.50 
   7   2  -8   67.69    7.40 
   2  -7   8   75.89    7.50 
  -7  -2   8   64.89    7.50 
  -2   7   8   77.29    7.50 
   2  -7   8   68.59    7.30 
   7   2   8   70.19    7.30 
  -2   7   8   76.49    7.40 
  -7  -2   8   68.49    7.40 
   7   2   8   70.29    7.60 
  -7  -1  -8   32.10    4.30 
  -7  -1  -8   34.30    3.80 
   1  -7  -8   36.70    4.00 
  -1   7  -8   34.90    3.70 
   7   1  -8   33.80    3.80 
   1  -7  -8   33.90    4.10 
  -7  -1   8   37.70    3.90 
  -7  -1   8   32.60    3.90 
   1  -7   8   35.90    3.90 
   7   1   8   38.50    3.70 
  -1   7   8   31.20    3.80 
  -1   7   8   42.00    3.90 
   0  -7  -8   38.20    3.80 
  -7   0  -8   35.60    3.90 
   0   7  -8   32.50    3.20 
   7   0  -8   27.80    3.30 
   0  -7  -8   28.10    3.60 
   0  -7   8   34.80    3.30 
   7   0   8   31.60    3.70 
  -7   0   8   29.70    3.50 
   0   7   8   28.50    3.40 
  -7   0   8   28.50    3.50 
   0  -7   8   32.30    3.50 
   7   0   8   28.20    3.20 
   0   7   8   33.20    3.50 
  -1  -7  -8   32.00    3.80 
  -7   1  -8   29.60    3.90 
   7  -1  -8   32.60    3.50 
  -1  -7  -8   37.20    3.80 
  -7   1   8   30.20    3.60 
  -7   1   8   36.60    3.60 
   7  -1   8   35.70    3.40 
  -1  -7   8   40.50    3.70 
   7  -1   8   24.50    3.70 
   1   7   8   33.10    3.70 
  -1  -7   8   27.10    3.40 
  -7   2  -8   75.59    8.00 
  -2  -7  -8   72.19    7.80 
  -2  -7  -8   83.29    8.00 
   7  -2  -8   68.69    7.60 
   2   7   8   79.09    7.70 
   7  -2   8   71.99    7.50 
  -2  -7   8   76.09    7.60 
  -7   2   8   70.59    7.70 
   7  -2   8   68.59    7.80 
  -7   2   8   66.19    7.70 
   2   7   8   75.59    7.70 
  -2  -7   8   74.39    7.80 
  -3  -7  -8    8.80    1.50 
  -3  -7  -8    7.10    1.70 
  -7   3  -8    6.70    1.60 
   7  -3  -8    5.70    1.10 
   7  -3   8    9.30    1.00 
   3   7   8    7.20    1.40 
   7  -3   8    5.80    1.40 
  -3  -7   8    4.80    1.10 
  -3  -7   8    7.30    1.40 
  -7   3   8    6.50    1.30 
  -7   4  -8   15.90    2.40 
  -4  -7  -8   14.40    2.60 
  -4  -7  -8   17.80    2.20 
   7  -4  -8   16.70    2.00 
   4   7   8   18.20    2.00 
   7  -4   8   16.60    1.90 
  -4  -7   8   15.80    2.20 
  -4  -7   8   12.60    1.90 
  -7   4   8   18.30    2.10 
   4   7   8   15.30    2.10 
   7  -4   8   13.40    2.10 
  -7   4   8   15.60    2.00 
  -5  -7  -8   20.70    2.50 
   7  -5  -8   18.60    2.20 
  -5  -7  -8   18.20    2.80 
  -7   5  -8   16.70    3.40 
  -7   5   8   19.30    2.40 
  -7   5   8   22.00    2.40 
   5   7   8   18.80    2.30 
   5   7   8   23.50    2.30 
   7  -5   8   13.50    2.20 
   7  -5   8   19.60    2.20 
  -5  -7   8   20.30    2.40 
  -5  -7   8   15.80    2.20 
   7  -6  -8   34.60    4.30 
  -6  -7  -8   45.30    4.50 
  -6  -7  -8   39.60    4.80 
  -7   6  -8   38.50    4.50 
   6   7   8   39.90    4.40 
  -7   6   8   38.80    4.40 
   7  -6   8   41.50    4.30 
  -7   6   8   39.00    4.40 
  -6  -7   8   39.10    4.50 
   6   7   8   41.50    4.30 
   7  -7  -8    0.60    0.70 
  -7  -7  -8    0.00    0.90 
  -7   7  -8    0.90    0.90 
  -7  -7  -8    0.50    1.30 
   7   7   8   -0.20    0.80 
   7   7   8    0.10    0.70 
   7  -7   8   -0.20    0.50 
   7  -7   8    0.60    0.70 
  -7   7   8    0.50    0.90 
  -7  -7   8   -1.10    0.80 
  -7  -7   8   -0.10    0.70 
  -7   8  -8   10.40    1.80 
  -8  -7  -8   12.60    2.30 
  -8  -7  -8   13.90    1.90 
  -8  -7   8   11.50    1.70 
  -7   8   8   14.10    2.00 
  -8  -7   8   12.20    1.90 
  -8  -7   8   11.90    1.50 
  -8  -6  -8   25.60    3.40 
  -6   8  -8   23.90    3.00 
  -8  -6  -8   26.90    3.00 
  -6   8   8   23.20    3.10 
   8   6   8   32.00    3.20 
  -8  -6   8   25.60    3.10 
   8   6   8   26.40    2.90 
  -6   8   8   20.50    3.00 
  -8  -5  -8   33.30    4.00 
  -5   8  -8   29.60    3.70 
   5  -8  -8   32.00    3.80 
  -8  -5  -8   28.00    4.20 
   8   5   8   37.20    3.60 
  -5   8   8   38.60    3.90 
  -8  -5   8   35.40    3.80 
   8   5   8   29.10    3.80 
  -5   8   8   34.20    3.80 
   4  -8  -8  248.28   28.80 
  -4   8  -8  276.67   28.70 
  -8  -4  -8  288.47   28.70 
  -8  -4  -8  319.77   29.20 
   8   4   8  290.77   28.60 
  -4   8   8  280.87   28.80 
   8   4   8  321.07   28.90 
  -4   8   8  256.67   28.80 
   4  -8   8  285.17   28.70 
  -8  -4   8  267.97   28.80 
  -8  -3  -8   66.29    6.40 
  -8  -3  -8   63.09    7.00 
   8   3  -8   61.79    6.40 
  -3   8  -8   56.39    6.40 
   3  -8  -8   60.29    6.70 
   3  -8   8   61.29    6.60 
   3  -8   8   53.89    6.30 
  -8  -3   8   64.79    6.50 
  -3   8   8   63.09    6.50 
  -3   8   8   57.79    6.50 
   8   3   8   68.79    6.30 
   8   3   8   60.49    6.70 
  -8  -2  -8   71.59    7.20 
   8   2  -8   73.09    7.30 
   2  -8  -8   62.29    7.40 
  -8  -2  -8   88.09    7.80 
  -2   8  -8   75.79    7.10 
  -8  -2   8   64.69    7.30 
  -2   8   8   75.19    7.50 
   8   2   8   63.99    7.10 
  -2   8   8   60.19    7.30 
   2  -8   8   67.69    7.40 
   1  -8  -8   67.79    7.20 
  -1   8  -8   66.29    6.90 
  -8  -1  -8   71.59    7.40 
   1  -8   8   63.59    7.10 
   8   1   8   66.79    7.20 
  -8  -1   8   71.09    7.10 
  -1   8   8   63.19    7.00 
  -1   8   8   67.99    7.10 
   1  -8   8   57.19    6.80 
   8   1   8   77.49    6.90 
   8   0  -8  622.44   70.89 
   0  -8  -8  747.83   70.89 
  -8   0  -8  736.23   70.99 
  -8   0   8  670.83   70.69 
   0  -8   8  691.93   70.79 
   0   8   8  640.54   70.69 
   0   8   8  727.53   70.79 
   8   0   8  771.72   70.89 
   8   0   8  661.63   70.59 
   0  -8   8  726.83   70.59 
  -8   1  -8   72.79    7.60 
   8  -1  -8   73.89    7.20 
  -1  -8  -8   67.39    7.40 
  -1  -8  -8   70.79    7.50 
   1   8   8   64.49    7.30 
   1   8   8   73.79    7.30 
  -1  -8   8   58.99    7.00 
   8  -1   8   75.09    7.10 
  -1  -8   8   62.69    7.30 
   8  -1   8   62.19    8.10 
  -8   1   8   77.79    7.30 
  -2  -8  -8   63.29    7.60 
   8  -2  -8   66.39    7.40 
  -2  -8  -8   81.59    7.80 
  -8   2  -8   84.79    7.80 
  -8   2   8   72.69    7.50 
  -8   2   8   67.29    7.50 
   2   8   8   67.49    7.50 
   8  -2   8   72.59    7.30 
  -2  -8   8   70.99    7.60 
  -3  -8  -8   66.69    6.90 
  -3  -8  -8   58.09    6.90 
   8  -3  -8   63.29    6.60 
  -8   3  -8   69.79    7.00 
  -3  -8   8   59.49    6.50 
   3   8   8   65.79    6.70 
  -8   3   8   60.99    6.70 
  -8   3   8   64.49    6.70 
   8  -3   8   67.09    6.50 
   3   8   8   57.49    6.80 
  -3  -8   8   61.89    6.80 
   8  -3   8   60.69    7.00 
  -4  -8  -8  316.27   29.30 
  -8   4  -8  318.17   29.20 
   8  -4  -8  251.47   29.00 
  -4  -8  -8  265.17   29.10 
   4   8   8  299.37   29.10 
  -8   4   8  265.07   29.00 
  -8   4   8  280.17   29.00 
   8  -4   8  302.17   29.10 
  -4  -8   8  293.17   28.90 
   4   8   8  269.37   29.00 
  -4  -8   8  283.77   29.10 
  -5  -8  -8   35.30    4.10 
   8  -5  -8   31.30    3.70 
  -5  -8  -8   38.40    4.00 
   5   8   8   32.00    3.80 
   8  -5   8   26.40    3.70 
  -5  -8   8   32.90    3.60 
  -8   5   8   37.00    3.80 
   5   8   8   40.10    3.70 
   8  -5   8   33.20    3.60 
  -5  -8   8   32.30    3.80 
  -8   5   8   31.30    3.80 
  -6  -8  -8   25.10    3.40 
  -8   6  -8   26.70    3.20 
  -6  -8  -8   24.80    3.20 
   8  -6  -8   21.50    2.90 
  -8   6   8   26.30    3.10 
  -6  -8   8   23.70    3.10 
   6   8   8   24.00    2.90 
  -6  -8   8   24.00    2.80 
   8  -6   8   30.30    2.90 
  -6  -8   8   26.00    2.70 
   8  -6   8   27.60    3.00 
  -7  -8  -8   10.40    2.20 
  -7  -8  -8   16.90    2.10 
  -8   7  -8    9.80    2.00 
   8  -7   8   10.30    1.70 
  -7  -8   8   11.90    2.00 
   8  -7   8   16.90    1.80 
   7   8   8   15.30    1.80 
  -8   7   8   11.70    1.90 
   7   8   8   13.90    2.00 
  -7  -8   8   12.10    1.50 
  -7  -8   8   12.30    1.70 
  -8  -8  -8  161.98   15.20 
  -8  -8  -8  137.99   14.90 
  -8   8  -8  148.39   15.00 
  -8  -8   8  153.08   14.70 
  -8  -8   8  133.09   15.00 
  -8   8   8  136.39   15.10 
  -8  -8   8  141.59   14.80 
  -9  -8  -8    5.00    1.60 
  -8   9  -8    4.60    1.30 
  -9  -8  -8    5.00    1.30 
  -9  -8   8    4.00    0.80 
  -9  -8   8    5.10    1.30 
  -8   9   8    6.10    1.40 
  -9  -8   8    5.10    1.00 
  -9  -7  -8    5.50    2.60 
  -9  -7  -8    7.20    1.20 
  -7   9  -8    4.80    1.20 
  -7   9   8    7.40    1.50 
  -9  -7   8    5.00    1.30 
  -9  -7   8    4.50    0.90 
  -9  -6  -8   32.40    3.80 
  -6   9  -8   29.00    3.30 
  -6   9   8   25.40    3.50 
  -9  -6   8   27.70    3.40 
  -9  -5  -8   23.20    2.50 
  -9  -5  -8   21.30    3.10 
  -5   9  -8   21.90    3.00 
  -9  -5   8   23.00    2.80 
  -5   9   8   19.90    2.70 
  -5   9   8   23.30    2.80 
  -9  -4  -8   19.10    3.00 
  -4   9  -8   20.70    2.20 
  -9  -4  -8   18.80    2.10 
  -4   9   8   17.20    2.40 
  -4   9   8   19.50    2.30 
  -9  -4   8   15.30    2.40 
   9   4   8   18.60    2.10 
   3  -9  -8    2.90    1.50 
  -3   9  -8    2.00    0.60 
  -9  -3  -8    3.00    1.40 
  -9  -3  -8    3.20    0.60 
   9   3  -8    2.60    0.70 
  -3   9   8    2.60    1.10 
  -3   9   8    2.10    0.90 
  -9  -3   8    3.70    1.00 
   9   3   8    1.40    0.90 
   9   3   8    3.30    0.60 
  -9  -2  -8   17.20    3.00 
  -2   9  -8   22.10    2.30 
   2  -9  -8   22.10    2.90 
   9   2  -8   19.40    2.40 
   9   2   8   21.20    2.30 
  -2   9   8   22.90    2.60 
   9   2   8   17.90    2.70 
  -2   9   8   21.50    2.60 
  -9  -2   8   22.10    2.60 
   9   1  -8    1.20    0.70 
  -1   9  -8    1.40    0.40 
   1  -9  -8    2.60    1.20 
   1  -9  -8    1.40    1.20 
  -9  -1  -8    1.10    1.20 
   1  -9   8    2.50    0.90 
  -1   9   8    2.00    1.00 
   9   1   8    2.00    0.50 
  -9  -1   8    1.60    0.90 
   9   1   8    0.00    0.90 
  -1   9   8    1.50    1.00 
   0  -9  -8    0.00    1.20 
   9   0  -8   -0.80    0.50 
   0  -9  -8    0.50    1.10 
  -9   0  -8    0.10    1.10 
   9   0   8    1.30    0.90 
  -9   0   8    0.00    0.80 
   9   0   8    0.80    0.40 
   0  -9   8    0.90    0.90 
   0   9   8    0.20    0.90 
  -1  -9  -8    0.80    1.30 
   9  -1  -8    1.10    0.70 
  -9   1  -8    3.20    1.40 
  -1  -9  -8    1.90    1.30 
   9  -1   8    2.60    1.20 
   9  -1   8    1.60    0.50 
  -9   1   8    1.90    1.00 
  -1  -9   8    1.60    1.00 
   1   9   8    1.40    0.90 
   9  -2  -8   20.10    2.50 
  -2  -9  -8   22.00    3.10 
  -9   2  -8   19.60    2.90 
  -2  -9  -8   23.70    3.10 
   2   9   8   22.60    2.60 
  -9   2   8   21.60    2.70 
   9  -2   8   22.90    2.40 
  -2  -9   8   24.80    2.90 
   2   9   8   23.60    2.90 
   9  -2   8   18.10    2.80 
  -3  -9  -8    3.40    1.50 
  -9   3  -8    3.80    1.40 
  -3  -9  -8    5.80    2.40 
   9  -3  -8    2.90    0.90 
   3   9   8    4.30    1.10 
   9  -3   8    3.00    0.60 
  -9   3   8    3.00    1.10 
   3   9   8    2.50    0.90 
  -3  -9   8    1.30    1.00 
   9  -3   8    2.40    0.90 
  -4  -9  -8   21.40    3.00 
   9  -4  -8   17.20    2.30 
  -9   4  -8   22.00    2.80 
  -4  -9  -8   18.10    2.80 
   4   9   8   19.60    2.50 
  -4  -9   8   21.40    2.10 
   9  -4   8   21.70    2.60 
  -9   4   8   16.50    2.50 
   4   9   8   17.90    2.40 
  -4  -9   8   21.80    2.10 
  -4  -9   8   18.30    2.60 
   9  -4   8   17.60    2.20 
  -5  -9  -8   26.50    3.00 
   9  -5  -8   20.00    2.50 
  -5  -9  -8   21.50    3.00 
   9  -5   8   23.40    2.40 
  -5  -9   8   18.00    2.20 
  -5  -9   8   23.30    2.80 
  -5  -9   8   20.40    2.30 
   9  -5   8   15.70    2.60 
   5   9   8   27.90    2.70 
  -9   5   8   26.20    2.70 
   5   9   8   21.20    2.60 
  -6  -9  -8   29.10    3.70 
  -9   6  -8   26.90    3.50 
  -6  -9  -8   28.30    3.50 
  -6  -9   8   29.20    3.10 
   9  -6   8   27.80    3.10 
  -6  -9   8   27.20    3.40 
  -6  -9   8   28.60    3.00 
  -9   6   8   28.30    3.30 
   6   9   8   29.00    3.30 
   9  -6   8   25.90    3.30 
   6   9   8   32.00    3.30 
  -7  -9  -8    6.70    1.50 
  -9   7  -8    5.10    1.50 
  -7  -9  -8    5.90    1.70 
   9  -7   8    6.80    1.10 
  -9   7   8    6.70    1.40 
  -7  -9   8    7.60    1.50 
  -7  -9   8    4.50    0.80 
  -7  -9   8    5.80    1.00 
  -8  -9  -8    6.90    1.50 
  -8  -9  -8    4.90    2.40 
  -9   8  -8    5.10    1.40 
  -8  -9   8    5.30    1.40 
  -8  -9   8    3.70    0.80 
   9  -8   8    5.60    1.10 
  -9   8   8    6.80    1.40 
  -8  -9   8    3.70    0.90 
  -9  -9  -8    3.90    1.30 
  -9  -9  -8    4.40    1.50 
  -9   9  -8    2.40    1.20 
  -9  -9   8    4.70    0.90 
  -9   9   8    5.40    1.30 
  -9  -9   8    3.10    0.70 
  -9  -9   8    8.00    2.30 
 -10  -9  -8    8.40    1.40 
  -9  10  -8    6.30    1.40 
 -10  -9  -8    5.40    1.70 
 -10  -9   8    5.60    1.00 
  -9  10   8    5.10    1.50 
 -10  -9   8    7.40    1.60 
 -10  -8  -8   30.00    3.80 
 -10  -8  -8   42.90    4.30 
  -8  10  -8   35.60    4.00 
 -10  -8   8   37.90    3.70 
 -10  -8   8   26.00    4.00 
 -10  -7  -8   38.70    4.70 
 -10  -7  -8   43.50    4.40 
  -7  10  -8   36.30    4.30 
 -10  -7   8   37.10    4.10 
  -7  10   8   36.40    4.40 
 -10  -7   8   38.40    4.40 
  -6  10  -8  142.19   14.10 
 -10  -6  -8  129.89   13.90 
 -10  -6   8  132.89   14.20 
 -10  -6   8  142.09   14.00 
  -5  10  -8   14.60    2.20 
 -10  -5  -8   16.70    2.90 
 -10  -5  -8   17.80    2.00 
  -5  10   8   17.20    2.30 
 -10  -5   8   19.70    2.30 
  -4  10  -8   75.09    7.60 
 -10  -4  -8   70.19    7.50 
 -10  -4   8   68.29    7.80 
  -4  10   8   82.69    7.90 
 -10  -3  -8   21.80    3.10 
  -3  10  -8   21.70    2.40 
  -3  10   8   23.60    2.80 
  -3  10   8   21.30    2.60 
 -10  -3   8   23.00    2.70 
  -2  10  -8  154.78   15.50 
 -10  -2  -8  163.68   16.10 
  10   2  -8  157.88   15.80 
 -10  -2   8  152.78   15.80 
  -2  10   8  144.49   15.80 
  -2  10   8  147.59   15.70 
 -10  -1  -8   30.70    4.00 
  10   1  -8   28.20    3.50 
  -1  10   8   35.20    3.60 
 -10  -1   8   30.20    3.70 
  -1  10   8   38.30    3.70 
 -10   0  -8   45.20    5.10 
  10   0  -8   42.30    4.60 
   0 -10  -8   38.00    6.00 
   0 -10  -8   45.40    5.00 
  10   0   8   44.50    4.40 
 -10   0   8   40.70    4.70 
   0  10   8   42.40    4.70 
   0  10   8   40.80    4.70 
  -1 -10  -8   34.70    4.10 
  -1 -10  -8   32.10    4.10 
 -10   1  -8   23.80    3.90 
   1  10   8   29.50    3.70 
   1  10   8   38.80    3.80 
 -10   1   8   35.00    3.80 
  -1 -10   8   32.20    3.80 
  10  -1   8   34.40    3.40 
  -2 -10  -8  170.58   16.60 
 -10   2  -8  168.68   16.60 
  10  -2  -8  151.48   16.20 
  -2 -10   8  161.48   16.40 
   2  10   8  157.08   16.30 
  10  -2   8  162.28   16.10 
   2  10   8  143.09   16.30 
 -10   2   8  157.38   16.30 
 -10   3  -8   22.80    3.30 
  -3 -10  -8   26.70    3.40 
  10  -3  -8   24.50    2.80 
  -3 -10  -8   24.10    3.40 
   3  10   8   24.70    3.00 
  10  -3   8   26.70    2.70 
   3  10   8   26.00    3.30 
  -3 -10   8   23.20    3.10 
 -10   3   8   23.70    3.00 
  -4 -10  -8   65.79    7.90 
  10  -4  -8   66.59    7.60 
  -4 -10  -8   90.79    8.10 
  10  -4   8   76.69    7.50 
  -4 -10   8   78.89    7.90 
 -10   4   8   64.49    7.70 
   4  10   8   60.29    7.60 
   4  10   8   84.69    7.70 
  10  -5  -8   14.80    2.20 
  -5 -10  -8   16.90    2.70 
  -5 -10  -8   16.60    2.70 
  10  -5   8   19.70    2.10 
 -10   5   8   20.40    2.50 
   5  10   8   14.90    2.20 
   5  10   8   22.10    2.30 
  -6 -10  -8  141.49   15.40 
  -6 -10  -8  169.28   15.60 
 -10   6  -8  147.99   15.40 
  -6 -10   8  148.39   15.60 
  -6 -10   8  148.69   15.00 
  -6 -10   8  151.68   15.00 
  10  -6   8  145.09   15.10 
 -10   6   8  132.19   15.20 
 -10   7  -8   40.70    4.50 
  -7 -10  -8   40.80    4.60 
  10  -7   8   40.50    4.10 
  -7 -10   8   38.90    4.40 
  -7 -10   8   34.50    4.00 
  -7 -10   8   35.90    3.90 
 -10   8  -8   39.80    4.10 
  -8 -10  -8   30.10    4.00 
  -8 -10  -8   36.80    4.20 
  10  -8   8   22.00    4.20 
  10  -8   8   34.50    3.70 
 -10   8   8   26.50    3.90 
  -8 -10   8   36.40    3.50 
  -8 -10   8   29.50    3.90 
 -10   9  -8    5.70    1.50 
  -9 -10  -8    8.40    1.70 
  -9 -10  -8    8.40    1.80 
  -9 -10   8    5.10    1.40 
 -10   9   8    5.20    1.50 
  10  -9   8    6.50    1.70 
  -9 -10   8    7.80    1.10 
 -10  10  -8   15.10    2.20 
 -10 -10  -8   14.70    2.20 
 -10 -10  -8   14.90    2.30 
 -10 -10   8   11.20    1.60 
 -10 -10   8   11.60    2.10 
 -10 -10   8   12.60    1.60 
 -10  10   8   16.00    2.50 
 -11 -10  -8    3.90    2.20 
 -11 -10  -8    2.70    1.10 
 -10  11  -8    3.60    1.20 
 -11 -10   8    3.10    0.70 
 -11 -10   8    0.00    0.90 
 -10  11   8    2.20    1.10 
 -11  -9  -8    3.70    1.40 
  -9  11  -8    1.90    1.00 
 -11  -9  -8    5.40    1.10 
  -9  11   8    5.20    1.40 
 -11  -9   8    2.80    1.20 
 -11  -9   8    3.00    0.80 
  -8  11  -8   12.70    1.80 
 -11  -8  -8   10.50    1.50 
 -11  -8  -8    8.90    2.00 
 -11  -8   8    8.30    1.40 
  -8  11   8   11.40    2.10 
 -11  -7  -8    3.60    0.80 
  -7  11  -8    4.60    1.00 
 -11  -7  -8    5.30    1.70 
 -11  -7   8    4.30    0.90 
 -11  -7   8    6.90    1.40 
  -7  11   8    4.40    1.20 
  -6  11  -8    6.00    1.10 
 -11  -6  -8    6.90    0.90 
 -11  -6  -8    8.10    1.90 
 -11  -6   8    4.70    1.00 
  -6  11   8    6.40    1.40 
 -11  -6   8    7.40    1.40 
  -5  11  -8    0.90    0.60 
 -11  -5  -8   -0.60    1.20 
  -5  11   8    0.50    1.00 
 -11  -5   8    1.90    0.90 
 -11  -5   8    0.40    0.60 
  -4  11  -8    2.10    0.60 
 -11  -4  -8    1.70    1.30 
  -4  11   8    3.90    1.10 
 -11  -4   8    3.50    1.00 
  -3  11  -8    1.30    0.40 
 -11  -3  -8    2.40    1.40 
  -3  11   8    2.00    1.00 
 -11  -3   8    3.20    1.00 
  11   2  -8    7.10    1.10 
 -11  -2  -8    7.30    1.80 
  -2  11   8    5.60    1.30 
 -11  -2   8    5.90    1.30 
  -2  11   8    6.70    1.20 
  11   1  -8   14.40    1.90 
 -11  -1  -8   14.20    2.50 
  -1  11   8   16.40    2.10 
 -11  -1   8   17.50    2.20 
  11   0  -8   16.80    2.20 
 -11   0  -8   23.50    3.00 
   0 -11  -8   24.10    2.80 
   0  11   8   17.70    2.50 
   0  11   8   21.20    2.40 
 -11   0   8   17.30    2.50 
  11  -1  -8   15.60    2.00 
  -1 -11  -8   15.60    2.60 
 -11   1   8   21.50    2.40 
   1  11   8   17.90    2.30 
   1  11   8   17.30    2.40 
  11  -2  -8    7.10    1.10 
  -2 -11  -8    6.70    1.70 
 -11   2   8    6.60    1.30 
  -2 -11   8    6.00    1.30 
   2  11   8    8.30    1.30 
  11  -2   8    5.80    0.90 
   2  11   8    3.90    1.20 
  11  -2   8    5.60    0.80 
  -3 -11  -8    0.80    1.30 
  11  -3  -8    1.60    0.70 
  11  -3   8    2.50    0.50 
  -3 -11   8    2.90    1.10 
 -11   3   8    1.20    0.90 
  11  -3   8    2.90    0.70 
   3  11   8    0.90    0.90 
   3  11   8    1.70    1.10 
  11  -4  -8    1.40    0.70 
  -4 -11  -8    3.60    1.50 
 -11   4   8    3.90    1.10 
  -4 -11   8    3.10    1.10 
  11  -4   8    2.70    0.60 
   4  11   8    2.70    1.00 
   4  11   8    2.00    0.90 
  -5 -11  -8   -0.80    1.30 
  -5 -11  -8    1.50    1.20 
  11  -5   8    0.70    0.80 
  -5 -11   8    1.50    1.10 
 -11   5   8   -0.30    0.90 
  -6 -11  -8    7.50    1.70 
  -6 -11  -8    7.10    1.80 
 -11   6  -8    5.10    2.30 
  11  -6   8    6.30    1.00 
  11  -6   8    7.10    1.30 
  -6 -11   8    4.80    1.40 
 -11   6   8    7.30    1.50 
  -7 -11  -8    7.80    1.80 
  -7 -11  -8    7.20    1.90 
 -11   7  -8    2.40    1.50 
  11  -7   8    5.90    1.30 
  11  -7   8    5.00    0.90 
 -11   7   8    2.40    1.30 
  -7 -11   8    4.70    1.40 
 -11   8  -8    8.90    1.90 
  -8 -11  -8   10.90    2.10 
  -8 -11  -8   10.50    2.10 
  -8 -11   8   10.50    1.30 
  11  -8   8   11.00    1.60 
  -8 -11   8   11.40    1.90 
  -8 -11   8    9.90    1.20 
  11  -8   8    7.30    1.80 
 -11   8   8    9.10    1.80 
  -9 -11  -8    3.70    1.40 
 -11   9  -8    2.70    1.30 
  -9 -11  -8    4.40    1.50 
  11  -9   8    4.80    1.10 
 -11   9   8    4.80    1.40 
  -9 -11   8    3.60    1.20 
  -9 -11   8    2.60    0.60 
  11  -9   8    0.80    1.30 
 -10 -11  -8    1.50    1.30 
 -11  10  -8    2.30    1.20 
 -10 -11   8    1.60    1.10 
 -10 -11   8    2.10    0.60 
 -11  10   8    0.90    1.10 
 -11  11  -8    2.10    1.20 
 -11 -11  -8    0.90    1.20 
 -11 -11  -8    1.40    1.10 
 -11 -11   8    2.00    1.40 
 -11  11   8    2.60    1.30 
 -11 -11   8    1.30    0.60 
 -11 -11   8    1.80    0.60 
 -12 -11  -8    6.00    1.60 
 -11  12  -8    5.00    1.40 
 -12 -11   8    4.70    0.90 
 -11  12   8    3.20    1.50 
 -12 -11   8    5.10    1.60 
 -10  12  -8   14.80    2.20 
 -12 -10  -8   21.10    2.80 
 -12 -10  -8   11.00    1.80 
 -12 -10   8   14.20    1.70 
 -10  12   8   10.40    2.20 
 -12 -10   8   12.90    2.20 
  -9  12  -8    1.90    1.00 
 -12  -9  -8    1.00    0.90 
 -12  -9  -8    1.20    1.20 
 -12  -9   8    0.70    0.60 
  -9  12   8    0.90    1.20 
 -12  -9   8    2.90    1.10 
 -12  -8  -8   33.50    4.10 
  -8  12  -8   29.30    3.40 
 -12  -8  -8   28.70    3.20 
 -12  -8   8   32.40    3.70 
 -12  -8   8   33.50    3.30 
  -8  12   8   21.50    3.60 
  -7  12  -8    0.80    0.70 
  -7  12   8    2.80    1.20 
 -12  -7   8    1.20    1.00 
 -12  -7   8    1.50    0.70 
  -6  12  -8    6.30    1.10 
 -12  -6  -8    8.60    2.00 
 -12  -6   8    8.00    1.30 
 -12  -6   8    7.80    1.50 
  -5  12  -8    6.70    1.00 
 -12  -5  -8    7.30    1.80 
 -12  -5   8    5.80    1.10 
 -12  -5   8    7.50    1.40 
  -5  12   8    7.10    1.40 
  -4  12  -8   31.30    3.50 
  -4  12   8   32.80    4.00 
 -12  -4   8   36.60    3.80 
 -12  -4   8   35.80    3.90 
 -12  -3  -8   17.70    2.80 
 -12  -3   8   17.20    2.30 
  -3  12   8   15.20    2.40 
 -12  -2  -8   73.69    7.20 
  12   2  -8   63.59    6.60 
 -12  -2   8   65.19    6.80 
  -2  12   8   53.79    6.80 
 -12  -1  -8   22.50    3.30 
  12   1  -8   25.10    2.90 
  -1  12   8   26.10    3.20 
 -12  -1   8   27.90    3.10 
 -12   0  -8  114.69   10.20 
  12   0  -8   90.29    9.70 
   0  12   8  104.99   10.00 
   0  12   8   79.79    9.80 
 -12   0   8   87.59    9.80 
 -12   1  -8   22.50    3.20 
  12  -1  -8   24.10    2.80 
  -1 -12  -8   26.00    3.30 
   1  12   8   24.10    3.00 
   1  12   8   21.50    3.00 
 -12   1   8   28.10    3.00 
  12  -2  -8   63.09    6.90 
 -12   2  -8   72.29    7.40 
  -2 -12  -8   69.59    7.30 
   2  12   8   59.39    7.10 
  -2 -12   8   74.79    7.30 
 -12   2   8   65.19    7.10 
   2  12   8   64.49    7.20 
  -3 -12  -8   17.30    2.80 
 -12   3  -8   15.20    2.70 
  12  -3  -8   16.70    2.20 
 -12   3   8   20.60    2.50 
  12  -3   8   18.50    2.00 
  -3 -12   8   16.80    2.60 
  12  -3   8   20.30    2.10 
 -12   4  -8   43.90    5.00 
  -4 -12  -8   47.80    5.10 
  12  -4   8   41.30    4.50 
  -4 -12   8   40.80    4.90 
  12  -4   8   41.90    4.40 
  -5 -12  -8    5.50    1.70 
 -12   5   8    5.20    1.50 
  12  -5   8    9.10    1.30 
  -5 -12   8    8.00    1.70 
  12  -5   8    7.70    1.10 
 -12   6  -8    8.50    1.80 
  12  -6   8    7.70    1.40 
  12  -6   8    7.20    1.10 
 -12   6   8    7.80    1.60 
  -6 -12   8    9.70    1.70 
 -12   7  -8    1.30    1.20 
  -7 -12  -8    0.80    1.30 
 -12   7   8    2.70    1.30 
  12  -7   8    2.10    1.00 
  -7 -12   8    3.70    1.20 
  12  -7   8    2.20    0.70 
  -8 -12  -8   39.60    4.40 
 -12   8  -8   38.70    4.40 
 -12   8   8   29.90    4.30 
  12  -8   8   36.20    4.00 
  -8 -12   8   48.20    5.20 
  12  -8   8   31.80    4.20 
 -12   9  -8    0.90    1.20 
  -9 -12  -8    1.20    1.20 
 -12   9   8    2.20    2.00 
  -9 -12   8    1.50    0.40 
  12  -9   8    2.00    0.90 
  -9 -12   8    1.50    0.40 
  -9 -12   8    3.10    2.00 
  12  -9   8    2.20    1.20 
 -10 -12  -8   14.00    3.20 
 -12  10  -8   16.40    2.50 
 -12  10   8   17.80    2.40 
 -10 -12   8   12.80    1.60 
 -10 -12   8   14.40    2.20 
  12 -10   8   13.60    2.10 
 -11 -12  -8    5.50    1.90 
 -11 -12  -8    3.20    1.40 
 -12  11  -8    2.50    1.30 
 -11 -12   8    6.50    1.50 
 -12  11   8    5.00    1.60 
 -10  13  -8    2.80    1.10 
 -13 -10  -8    1.60    1.30 
 -13 -10   8    5.30    1.40 
 -10  13   8    3.20    1.60 
 -13 -10   8    2.40    0.80 
  -9  13  -8   -0.70    0.80 
 -13  -9  -8    1.40    1.30 
  -9  13   8    0.30    1.10 
 -13  -9   8    0.20    0.60 
 -13  -9   8    1.40    1.10 
 -13  -8  -8    4.70    1.70 
  -8  13  -8    3.70    1.00 
 -13  -8   8    5.10    1.40 
  -8  13   8    3.10    1.30 
 -13  -8   8    5.40    1.00 
 -13  -7  -8    8.80    1.80 
  -7  13  -8    3.70    0.90 
  -7  13   8    8.20    1.60 
 -13  -7   8    4.20    1.00 
 -13  -6  -8    0.20    1.30 
 -13  -6   8    1.20    1.00 
  -6  13   8    1.60    1.10 
 -13  -5  -8    5.20    1.70 
  -5  13  -8    6.20    0.90 
 -13  -5   8    8.00    1.50 
  -5  13   8    9.20    1.60 
 -13  -5   8    4.70    1.10 
 -13  -4  -8   18.30    3.00 
 -13  -4   8   15.30    2.30 
 -13  -4   8   15.20    2.10 
  -4  13   8   14.60    2.30 
 -13  -3   8    0.60    1.00 
 -13  -3   8    1.20    0.90 
 -13  -2  -8    1.60    1.20 
  13   2  -8    1.10    0.60 
  -2  13   8    0.00    0.90 
 -13  -2   8   -0.20    0.90 
  13   1  -8    1.90    0.70 
 -13  -1  -8    1.60    1.40 
  -1  13   8    3.50    1.20 
 -13  -1   8    2.90    1.10 
 -13   0  -8    3.40    1.60 
  13   0  -8    6.20    1.10 
   0  13   8    7.20    1.40 
 -13   0   8    8.70    1.50 
  13  -1  -8    2.00    0.70 
  -1 -13  -8    3.10    1.30 
 -13   1  -8    2.30    1.30 
 -13   1   8    2.40    1.10 
  13  -2  -8    0.40    0.60 
  -2 -13  -8    1.70    1.20 
 -13   2  -8    1.20    1.20 
 -13   2   8    1.80    1.00 
  -3 -13  -8    0.70    1.30 
 -13   3  -8    1.10    1.30 
 -13   3   8    2.50    1.10 
  -3 -13   8    3.30    1.70 
  -4 -13  -8   18.80    3.10 
 -13   4  -8   17.10    2.90 
  13  -4   8   19.40    2.00 
 -13   4   8   14.90    2.50 
  13  -4   8   17.80    2.00 
  -5 -13  -8    6.10    1.80 
  -5 -13   8    8.80    2.00 
  13  -5   8    8.50    1.10 
  13  -5   8    9.20    1.40 
 -13   5   8    7.90    1.90 
  -6 -13  -8    2.40    1.30 
 -13   6  -8    3.90    1.50 
 -13   6   8    1.20    1.20 
  13  -6   8    2.00    0.80 
  13  -6   8    2.80    0.70 
  -6 -13   8    1.00    1.10 
  -7 -13  -8    3.00    1.40 
 -13   7  -8    4.80    2.00 
 -13   7   8    8.60    1.70 
  13  -7   8    5.90    1.20 
  13  -7   8    6.10    1.00 
  -7 -13   8    4.60    1.30 
  -8 -13  -8    4.90    1.40 
 -13   8   8    4.20    1.50 
  13  -8   8    6.20    1.30 
  13  -8   8    4.10    1.00 
  -8 -13   8    6.50    1.50 
  -9 -13  -8   -0.80    1.10 
 -13   9  -8    0.10    1.30 
  13  -9   8   -0.80    1.00 
  -9 -13   8    0.20    1.00 
  13  -9   8    0.80    0.80 
 -13   9   8    2.90    1.40 
 -10 -13  -8    1.40    1.20 
 -13  10  -8    5.50    1.60 
  13 -10   8    4.00    1.10 
 -13  10   8    5.10    1.60 
 -10 -13   8    2.60    1.20 
 -14  -9  -8    2.50    1.60 
  -9  14  -8    4.20    1.10 
 -14  -9   8    5.90    1.10 
  -9  14   8    3.20    1.50 
 -14  -9   8    3.10    1.30 
 -14  -8  -8    9.20    2.10 
  -8  14  -8    6.00    1.20 
 -14  -8   8    8.20    1.30 
 -14  -8   8    6.30    1.50 
 -14  -7  -8    6.70    1.70 
  -7  14  -8    4.70    0.90 
  -7  14   8    5.20    1.50 
 -14  -7   8    6.20    1.40 
 -14  -7   8    4.50    1.00 
 -14  -6  -8   58.89    5.60 
  -6  14  -8   40.20    4.70 
 -14  -6   8   51.59    4.90 
 -14  -6   8   42.70    5.30 
  -6  14   8   40.30    5.20 
 -14  -5  -8   17.40    2.60 
  -5  14  -8    9.40    1.10 
 -14  -5   8   11.10    1.70 
 -14  -5   8   13.00    1.90 
  -5  14   8   11.60    2.00 
 -14  -4  -8   20.30    2.80 
  -4  14   8    9.80    2.10 
 -14  -4   8   14.50    1.90 
 -14  -4   8   13.50    2.20 
 -14  -3  -8    1.40    1.50 
  -3  14   8    3.20    1.40 
 -14  -3   8    5.00    1.30 
 -14  -3   8    3.80    1.10 
 -14  -2  -8   37.80    4.40 
 -14  -2   8   33.10    3.80 
 -14  -2   8   30.60    3.90 
  -2  14   8   32.30    3.90 
  14   1  -8    2.90    0.80 
 -14  -1  -8    1.80    1.40 
 -14  -1   8    3.10    1.10 
 -14  -1   8    1.60    1.10 
  14   0  -8    5.20    1.00 
 -14   0  -8    8.00    1.80 
 -14   0   8    5.90    1.40 
 -14   1  -8    1.10    1.20 
  14  -1  -8    2.00    1.10 
 -14   1   8    2.30    1.10 
 -14   2  -8   32.60    3.90 
 -14   2   8   29.20    3.70 
  -3 -14  -8    1.40    1.40 
 -14   3  -8    4.60    1.50 
  -3 -14   8    3.70    1.40 
 -14   3   8    3.00    1.20 
 -14   4  -8   17.10    2.80 
  -4 -14  -8   19.10    2.80 
  -4 -14   8   16.90    2.60 
  -5 -14  -8   12.70    2.20 
 -14   5   8   11.10    2.10 
  14  -5   8   12.90    1.40 
  -5 -14   8    9.50    2.00 
  14  -5   8   12.90    1.50 
  -6 -14  -8   57.09    6.20 
 -14   6  -8   58.79    6.30 
  -6 -14   8   56.79    6.20 
  14  -6   8   55.49    5.70 
 -14   6   8   45.40    6.10 
 -14   7  -8    4.40    1.70 
  -7 -14  -8    5.60    1.50 
 -14   7   8    4.60    1.60 
  14  -7   8    6.70    1.20 
  -7 -14   8    4.70    1.50 
  14  -7   8    8.10    1.10 
 -14   8  -8    7.80    2.00 
  -8 -14  -8    8.50    1.80 
  14  -8   8    8.60    1.50 
 -14   8   8   10.60    2.30 
  14  -8   8    9.00    1.30 
  -8 -14   8    8.70    1.90 
 -14   9  -8    3.40    1.60 
  -9 -14  -8    3.50    1.30 
 -14   9   8    4.10    1.50 
  -9 -14   8    4.10    1.30 
  14  -9   8    4.80    1.00 
 -15  -7  -8    1.30    2.10 
 -15  -7   8    1.60    0.80 
 -15  -7   8    0.00    1.00 
  -6  15  -8    0.60    0.30 
 -15  -6  -8    0.20    2.30 
 -15  -6   8    0.00    1.00 
 -15  -5  -8    2.60    1.40 
 -15  -5   8    0.40    1.00 
 -15  -5   8    0.30    0.90 
 -15  -4  -8    4.30    1.50 
 -15  -4   8    2.50    1.10 
 -15  -4   8    3.60    1.00 
 -15  -3  -8    0.80    1.30 
 -15  -3   8    3.10    1.00 
 -15  -3   8    3.80    1.20 
 -15  -2  -8   -2.10    1.10 
 -15  -2   8    0.50    0.70 
 -15  -2   8   -0.50    0.90 
 -15  -1  -8    4.00    1.70 
 -15  -1   8    4.50    1.10 
 -15  -1   8    6.60    1.40 
 -15   0  -8    9.00    2.10 
 -15   0   8    8.40    1.60 
 -15   0   8    8.80    1.60 
 -15   1  -8    2.50    1.40 
 -15   1   8    2.70    1.20 
 -15   1   8    3.30    1.00 
 -15   2  -8   -0.90    1.00 
 -15   2   8    0.10    1.00 
 -15   3  -8    4.10    1.40 
  -3 -15  -8    2.00    1.20 
  -3 -15   8    2.30    1.20 
 -15   4  -8    3.80    1.50 
  -4 -15  -8    4.70    1.40 
 -15   4   8    2.90    1.30 
  -4 -15   8    4.90    1.60 
  -5 -15  -8    1.90    1.20 
 -15   5  -8   -0.20    2.00 
  -5 -15   8    1.40    1.20 
 -15   5   8    3.30    1.30 
  -6 -15  -8    1.00    1.10 
 -15   6  -8    0.50    1.30 
  -6 -15   8    2.10    1.20 
  15  -6   8    0.60    0.40 
 -15   6   8    2.60    1.30 
  15  -6   8    0.70    0.50 
  -7 -15  -8    1.70    1.20 
 -15   7  -8    0.80    1.30 
 -16  -5  -8    0.90    1.50 
 -16  -5   8    1.00    0.80 
 -16  -4  -8   19.90    2.90 
 -16  -4   8   12.10    2.10 
 -16  -4   8   12.60    1.90 
 -16  -3  -8    1.20    1.50 
 -16  -3   8    3.30    1.00 
 -16  -3   8    1.40    1.00 
 -16  -2  -8    7.90    2.00 
 -16  -2   8    7.60    1.40 
 -16  -2   8    6.00    1.40 
 -16  -1  -8    5.90    2.80 
 -16  -1   8    6.50    1.40 
 -16  -1   8    6.10    1.30 
 -16   0  -8   42.00    6.50 
 -16   0   8   33.20    4.20 
 -16   0   8   37.30    4.20 
 -16   1  -8    4.90    2.30 
 -16   1   8    6.70    1.50 
 -16   1   8    5.20    1.30 
 -16   2  -8    7.60    2.50 
 -16   2   8    5.50    1.70 
 -16   3  -8    1.30    1.50 
 -16   3   8    1.70    1.20 
 -16   3   8    1.10    0.90 
 -16   4  -8   11.10    2.60 
  -4 -16  -8   15.70    2.10 
 -16   4   8   12.00    1.90 
  -4 -16   8   12.90    2.40 
 -16   4   8   12.80    2.20 
 -16   5  -8    0.90    1.30 
  -5 -16  -8    0.60    1.00 
 -16   5   8   -0.20    1.10 
  -5 -16   8    2.20    1.30 
   0   0  -9    0.40    0.60 
   0   0  -9    0.00    0.50 
   0   0   9   -0.40    0.50 
   0   0   9   -0.40    0.70 
   0   1  -9   -0.40    0.40 
   1   0  -9   -0.10    0.40 
   0   1  -9   -0.10    0.50 
   0  -1  -9    0.20    0.40 
   0  -1  -9   -0.50    0.50 
  -1   0  -9    0.50    0.60 
  -1   0  -9   -0.10    0.50 
   1   0  -9    0.00    0.50 
  -1   0   9    0.10    0.60 
   0  -1   9    0.40    0.50 
   0   1   9    0.00    0.70 
   1   0   9    0.20    0.50 
   1   0   9    0.10    0.70 
   0   1   9   -0.30    0.50 
   0  -1   9    0.70    0.70 
  -1   0   9   -0.10    0.50 
   1  -1  -9    1.00    0.50 
  -1  -1  -9    0.60    0.50 
   1  -1  -9    0.70    0.60 
  -1  -1  -9    1.30    0.70 
   1   1  -9    0.00    0.50 
   1   1  -9    0.60    0.50 
  -1   1  -9    1.30    0.50 
   1  -1   9    1.80    0.50 
  -1   1   9    1.00    0.60 
  -1   1   9    0.30    0.50 
   1   1   9    1.30    0.80 
  -1  -1   9    2.70    0.80 
  -1  -1   9    1.60    0.60 
   1   1   9    0.20    0.50 
   1  -1   9    2.00    0.90 
  -2  -1  -9    1.80    0.50 
  -1   2  -9    1.80    0.70 
   1  -2  -9    0.70    0.70 
   2   1  -9    0.80    0.50 
  -2  -1  -9    1.40    0.80 
   2   1  -9    1.40    0.60 
  -1   2  -9    1.40    0.60 
   1  -2  -9    1.20    0.60 
  -2  -1   9    1.40    0.60 
  -1   2   9    1.40    0.60 
  -2  -1   9    1.90    0.80 
  -1   2   9    0.20    0.60 
   2   1   9    1.30    0.90 
   2   1   9    2.30    0.60 
   1  -2   9    0.00    0.80 
   1  -2   9    0.60    0.50 
  -2   0  -9    3.80    0.90 
   0  -2  -9    2.70    0.90 
   0   2  -9    2.30    1.20 
   0   2  -9    2.50    0.70 
   0  -2  -9    3.80    0.70 
   2   0  -9    3.30    0.70 
  -2   0  -9    3.90    0.70 
   2   0  -9    2.00    0.70 
  -2   0   9    3.30    0.70 
   0   2   9    2.60    0.70 
   0  -2   9    2.20    0.90 
   0  -2   9    4.60    0.80 
  -2   0   9    2.30    0.80 
   2   0   9    2.30    1.00 
   0   2   9    2.80    0.90 
   2   0   9    3.50    0.70 
  -1  -2  -9    0.80    0.70 
   1   2  -9    1.20    0.50 
  -2   1  -9    2.10    0.80 
   2  -1  -9    1.40    0.60 
  -2   1  -9    1.10    0.50 
  -1  -2  -9    0.60    0.50 
   2  -1  -9    0.60    0.50 
   1   2   9    2.00    0.80 
   2  -1   9    0.60    0.50 
  -2   1   9    1.70    0.70 
   2  -1   9    1.00    0.90 
  -1  -2   9    1.10    0.80 
   1   2   9    1.50    0.60 
  -1  -2   9    0.90    0.60 
  -2   1   9    2.10    0.80 
  -2   2  -9    0.70    0.50 
   2   2  -9    0.90    0.50 
   2   2  -9    0.60    0.40 
  -2   2  -9    0.50    0.60 
   2  -2  -9    1.30    0.60 
   2  -2  -9    0.70    0.60 
  -2  -2  -9    0.60    0.50 
  -2  -2  -9    0.80    0.70 
  -2   2   9    1.40    0.60 
   2  -2   9    0.10    0.70 
  -2   2   9    1.20    0.60 
  -2  -2   9    2.20    0.80 
   2   2   9    0.90    0.50 
   2   2   9    0.70    0.70 
   2  -2   9    1.10    0.50 
  -2  -2   9    1.00    0.60 
   2  -3  -9    3.70    0.90 
   3   2  -9    2.60    0.70 
   2  -3  -9    3.00    0.80 
  -3  -2  -9    4.40    1.20 
  -2   3  -9    3.40    0.80 
  -3  -2  -9    3.00    0.70 
  -3  -2   9    2.70    0.70 
   3   2   9    3.00    1.00 
  -3  -2   9    3.60    0.90 
   2  -3   9    3.80    1.00 
  -2   3   9    4.20    0.80 
   3   2   9    3.40    0.70 
   2  -3   9    3.10    0.70 
  -2   3   9    3.00    0.80 
   1  -3  -9  461.55   46.00 
   3   1  -9  438.66   45.90 
  -3  -1  -9  439.56   45.90 
   1  -3  -9  411.16   45.90 
  -1   3  -9  467.25   45.90 
  -3  -1  -9  501.45   46.10 
   1  -3   9  470.85   46.00 
   1  -3   9  442.36   45.90 
   3   1   9  427.86   45.80 
  -3  -1   9  425.06   45.90 
  -3  -1   9  471.05   46.00 
   3   1   9  512.35   46.10 
  -1   3   9  424.96   45.90 
  -1   3   9  464.05   46.00 
   0   3  -9    0.30    0.50 
   0   3  -9    0.20    0.50 
  -3   0  -9    0.20    0.80 
  -3   0  -9   -0.40    0.40 
   3   0  -9   -0.20    0.50 
   0  -3  -9    0.20    0.70 
   0  -3  -9    0.20    0.50 
   0   3   9    0.10    0.50 
  -3   0   9   -0.40    0.60 
   0  -3   9    0.40    0.60 
   3   0   9    0.00    0.70 
   0  -3   9   -0.20    0.70 
  -3   0   9   -0.30    0.50 
   3   0   9    0.50    0.50 
   0   3   9   -0.10    0.60 
  -3   1  -9  436.86   46.60 
  -1  -3  -9  487.25   46.70 
   1   3  -9  464.05   46.60 
  -3   1  -9  478.55   46.70 
  -1  -3  -9  412.86   46.60 
   3  -1  -9  438.26   46.60 
   1   3  -9  447.16   46.60 
  -3   1   9  434.96   46.60 
  -1  -3   9  487.25   46.70 
   3  -1   9  438.36   46.50 
   1   3   9  437.66   46.60 
   3  -1   9  532.35   46.80 
   1   3   9  496.75   46.70 
  -1  -3   9  452.15   46.60 
  -3   1   9  470.35   46.70 
  -2  -3  -9    3.70    1.10 
  -3   2  -9    3.20    0.70 
  -2  -3  -9    3.10    0.70 
   2   3  -9    2.70    0.70 
  -3   2  -9    2.50    0.90 
   3  -2  -9    3.10    0.70 
  -2  -3   9    2.50    0.70 
  -3   2   9    2.60    0.70 
   2   3   9    4.50    0.90 
  -2  -3   9    2.60    0.90 
   3  -2   9    2.10    0.90 
   2   3   9    3.30    0.70 
  -3   2   9    4.50    0.90 
   3  -2   9    3.40    0.70 
   3  -3  -9    1.30    0.60 
  -3   3  -9    1.70    0.80 
  -3  -3  -9    3.00    1.00 
  -3  -3  -9    1.40    0.60 
   3   3  -9    2.70    0.70 
  -3   3   9    1.30    0.60 
   3   3   9    2.10    0.60 
  -3   3   9    1.70    0.80 
   3   3   9    1.60    0.80 
   3  -3   9    4.40    1.00 
  -3  -3   9    1.80    0.80 
  -3  -3   9    2.40    0.70 
   3  -3   9    2.40    0.60 
  -3   4  -9   23.80    3.40 
   3  -4  -9   26.70    2.90 
  -4  -3  -9   26.10    2.90 
  -4  -3  -9   23.80    3.20 
   4   3  -9   24.10    2.90 
  -4  -3   9   26.90    3.00 
  -3   4   9   25.20    2.90 
   4   3   9   27.80    3.10 
   3  -4   9   25.80    3.00 
   3  -4   9   27.40    2.90 
  -4  -3   9   24.20    2.90 
  -3   4   9   29.30    2.90 
   4   2  -9   10.50    1.40 
  -4  -2  -9    9.60    1.90 
   2  -4  -9   11.40    1.50 
  -4  -2  -9   11.20    1.40 
   2  -4  -9    8.70    1.60 
   4   2   9   11.60    1.80 
   4   2   9   13.80    1.60 
   2  -4   9   12.00    1.50 
  -4  -2   9   11.70    1.50 
  -4  -2   9   11.40    1.60 
  -2   4   9   10.70    1.50 
  -2   4   9   11.00    1.50 
   2  -4   9    8.70    1.60 
  -1   4  -9   27.90    3.00 
  -4  -1  -9   29.40    3.00 
   4   1  -9   27.10    3.00 
   1  -4  -9   26.40    3.10 
   1  -4  -9   30.50    3.20 
  -4  -1  -9   25.60    3.40 
  -1   4   9   26.50    3.00 
  -4  -1   9   25.70    3.10 
   1  -4   9   24.10    3.20 
   4   1   9   26.80    3.20 
  -4  -1   9   29.50    3.10 
  -1   4   9   28.00    3.10 
   1  -4   9   31.10    3.10 
  -4   0  -9    6.40    1.00 
   0   4  -9    7.80    1.10 
  -4   0  -9    5.90    1.40 
   0  -4  -9    8.80    1.20 
   0  -4  -9    5.30    1.20 
   4   0  -9    7.90    1.10 
   0  -4   9    6.80    1.10 
  -4   0   9    7.50    1.20 
   0   4   9    6.40    1.20 
  -4   0   9    8.60    1.20 
   0  -4   9    6.50    1.30 
   0   4   9    7.10    1.10 
   4   0   9    7.50    1.40 
   4  -1  -9   28.20    3.10 
  -1  -4  -9   28.10    3.30 
   1   4  -9   28.90    3.00 
  -4   1  -9   30.10    3.40 
  -1  -4  -9   25.80    3.10 
  -4   1  -9   27.60    3.10 
   4  -1   9   27.80    3.00 
   4  -1   9   26.20    3.30 
   1   4   9   28.10    3.20 
  -4   1   9   29.60    3.20 
  -4   1   9   28.20    3.20 
   1   4   9   29.30    3.10 
  -1  -4   9   28.20    3.10 
  -1  -4   9   28.40    3.20 
   4  -2  -9   11.50    1.40 
  -2  -4  -9   10.50    1.50 
  -4   2  -9    9.70    1.70 
  -2  -4  -9    9.90    1.80 
   2   4   9   13.20    1.50 
   4  -2   9    8.40    1.60 
   4  -2   9   12.30    1.40 
  -4   2   9   10.00    1.50 
  -4   2   9   12.20    1.60 
  -2  -4   9   10.20    1.50 
  -2  -4   9   12.50    1.70 
   2   4   9   10.30    1.60 
  -3  -4  -9   26.70    3.00 
  -4   3  -9   22.70    3.20 
  -3  -4  -9   30.70    3.30 
   4  -3  -9   25.80    3.00 
   4  -3   9   25.40    2.90 
  -4   3   9   28.00    3.10 
   3   4   9   27.70    3.20 
   3   4   9   30.50    3.00 
  -3  -4   9   28.40    3.10 
  -4   3   9   26.40    3.10 
  -3  -4   9   30.80    3.10 
   4  -3   9   23.60    3.10 
  -4   4  -9    0.80    0.80 
   4  -4  -9    1.90    0.70 
  -4  -4  -9    0.90    1.20 
  -4  -4  -9    1.60    0.70 
  -4  -4   9    1.40    0.70 
  -4   4   9    1.40    0.70 
  -4  -4   9    2.20    0.80 
   4  -4   9    1.60    0.60 
   4   4   9    1.20    0.70 
  -4   4   9    1.60    0.80 
   4   4   9    0.60    0.80 
   4  -4   9    1.60    0.80 
  -5  -4  -9    5.10    1.00 
  -5  -4  -9    4.20    1.50 
  -4   5  -9    4.80    1.10 
   4  -5   9    6.10    1.00 
   4  -5   9    5.10    1.00 
  -5  -4   9    6.70    1.10 
  -5  -4   9    5.60    1.10 
  -4   5   9    4.90    1.00 
   5   4   9    5.30    0.90 
  -5  -3  -9  234.18   20.80 
   5   3  -9  189.18   20.40 
   3  -5  -9  180.28   20.50 
  -5  -3  -9  192.88   20.40 
  -3   5  -9  199.78   20.60 
  -3   5   9  202.88   20.50 
   5   3   9  230.58   20.60 
  -5  -3   9  199.08   20.50 
  -3   5   9  182.58   20.50 
   3  -5   9  194.38   20.50 
  -5  -3   9  194.78   20.50 
   3  -5   9  220.38   20.50 
   5   2  -9   15.20    1.90 
  -2   5  -9   16.70    1.90 
  -5  -2  -9   17.60    2.40 
   2  -5  -9   14.70    2.10 
  -5  -2  -9   15.20    1.90 
   2  -5  -9   17.50    2.00 
  -5  -2   9   15.90    2.10 
  -2   5   9   17.90    2.00 
   2  -5   9   15.90    2.00 
  -5  -2   9   15.00    2.00 
  -2   5   9   16.20    2.00 
   5   2   9   15.90    1.80 
   2  -5   9   15.10    2.00 
   5   2   9   15.30    2.10 
  -1   5  -9    7.70    1.20 
  -5  -1  -9    7.70    1.20 
   1  -5  -9   11.50    1.60 
   1  -5  -9    6.70    1.30 
   5   1  -9    9.30    1.20 
  -5  -1  -9   10.10    1.80 
  -1   5   9    8.40    1.30 
  -5  -1   9    8.40    1.30 
   1  -5   9    9.70    1.40 
   5   1   9   12.90    1.60 
   5   1   9    6.30    1.10 
  -5  -1   9   11.30    1.50 
   1  -5   9   11.40    1.50 
   0   5  -9    0.20    0.50 
   5   0  -9    0.10    0.50 
   0  -5  -9   -0.20    0.80 
   0  -5  -9   -0.20    0.60 
  -5   0  -9   -1.30    0.90 
  -5   0  -9   -0.50    0.40 
   0   5   9    0.20    0.60 
   0  -5   9    0.90    0.70 
  -5   0   9   -0.50    0.60 
   0  -5   9   -0.70    0.70 
   5   0   9   -0.10    0.40 
  -5   0   9    0.50    0.60 
   5   0   9    0.60    0.70 
   0   5   9    0.70    0.60 
  -1  -5  -9    9.60    1.70 
   1   5  -9    7.60    1.10 
  -1  -5  -9    8.80    1.40 
   5  -1  -9    7.20    1.20 
  -5   1  -9   13.20    1.90 
  -1  -5   9   11.40    1.40 
   1   5   9    8.60    1.30 
   5  -1   9    7.40    1.20 
  -1  -5   9   10.50    1.50 
   1   5   9   10.10    1.40 
  -5   1   9    6.60    1.30 
   5  -1   9   14.30    1.80 
  -5   1   9    9.70    1.50 
  -2  -5  -9   16.70    2.10 
  -5   2  -9   14.70    2.30 
  -2  -5  -9   17.80    2.40 
   5  -2  -9   15.90    1.90 
   5  -2   9   16.10    1.80 
  -2  -5   9   17.30    2.10 
  -2  -5   9   12.70    2.00 
   2   5   9   16.50    2.00 
  -5   2   9   14.80    2.00 
  -5   2   9   16.40    2.10 
   2   5   9   16.70    2.10 
   5  -2   9   17.40    2.20 
   5  -3  -9  187.68   20.40 
  -5   3  -9  220.98   20.60 
  -3  -5  -9  180.58   20.40 
  -3  -5  -9  216.88   20.70 
   3   5   9  211.88   20.50 
   5  -3   9  194.88   20.30 
   5  -3   9  232.48   20.60 
  -3  -5   9  195.38   20.40 
   3   5   9  186.68   20.30 
  -5   3   9  201.88   20.50 
  -3  -5   9  195.08   20.50 
  -5   3   9  187.38   20.40 
  -4  -5  -9    6.50    1.60 
   5  -4  -9    3.80    1.00 
  -5   4  -9    4.60    1.20 
  -4  -5  -9    6.30    1.10 
   4   5   9    6.30    0.90 
  -4  -5   9    6.20    1.10 
  -4  -5   9    5.10    1.10 
   4   5   9    4.30    1.30 
  -5   4   9    4.70    1.00 
   5  -4   9    4.60    1.10 
   5  -4   9    4.80    0.90 
  -5  -5  -9    1.50    0.80 
  -5  -5  -9    0.50    1.30 
   5  -5  -9    0.90    0.80 
  -5   5  -9    0.90    0.90 
   5  -5   9    2.50    0.70 
  -5  -5   9    1.80    0.80 
  -5   5   9    0.60    0.80 
   5   5   9    1.30    0.80 
  -5   5   9    1.00    0.70 
   5  -5   9    1.30    0.80 
   5   5   9    1.10    0.60 
   5  -6  -9    1.80    0.80 
  -6  -5  -9    4.10    1.60 
  -5   6  -9    1.80    1.00 
  -6  -5  -9    3.00    0.80 
   5  -6   9    1.70    0.70 
   6   5   9    1.40    0.80 
  -5   6   9    2.60    1.00 
  -5   6   9    1.20    0.80 
  -6  -5   9    2.30    1.00 
   6   5   9    2.20    0.70 
  -6  -5   9    2.40    0.90 
  -6  -4  -9   12.30    1.70 
  -4   6  -9   10.40    1.70 
  -6  -4  -9    9.90    2.10 
   4  -6  -9   12.70    1.80 
   6   4   9   12.80    1.80 
   4  -6   9   11.20    1.60 
  -6  -4   9   11.70    1.80 
  -6  -4   9   11.50    1.70 
   4  -6   9   12.90    1.70 
  -4   6   9   14.00    1.70 
  -4   6   9   14.10    1.80 
   6   3  -9    7.90    1.20 
  -3   6  -9    7.70    1.30 
   3  -6  -9    6.00    1.30 
  -6  -3  -9    9.00    1.80 
  -6  -3  -9    8.50    1.20 
  -6  -3   9    9.80    1.40 
  -3   6   9    9.60    1.90 
  -3   6   9   11.00    1.40 
   6   3   9    7.70    1.40 
   3  -6   9    7.10    1.20 
   3  -6   9    8.90    1.30 
  -6  -3   9    7.40    1.40 
   6   3   9    9.10    1.20 
   2  -6  -9    5.80    1.40 
  -6  -2  -9    8.50    1.90 
   2  -6  -9    7.80    1.60 
   6   2  -9    9.10    1.30 
  -6  -2  -9   10.40    1.30 
  -2   6  -9    7.90    1.30 
  -6  -2   9    9.10    1.50 
  -2   6   9    9.70    1.50 
  -2   6   9    8.80    1.40 
   2  -6   9    8.20    1.30 
   6   2   9    8.00    2.10 
  -6  -2   9   10.20    1.50 
   2  -6   9   10.90    1.50 
   6   2   9    9.90    1.20 
   1  -6  -9    0.40    0.70 
  -6  -1  -9    1.20    0.50 
  -6  -1  -9    0.00    1.10 
   1  -6  -9    1.10    0.90 
   6   1  -9    0.20    0.50 
  -1   6  -9    0.50    0.50 
  -1   6   9    0.60    0.70 
   1  -6   9    0.70    0.70 
   1  -6   9    0.30    0.60 
  -1   6   9    0.90    0.70 
   6   1   9    1.80    0.90 
   6   1   9    0.90    0.50 
  -6  -1   9    0.50    0.80 
  -6  -1   9    1.40    0.80 
   6   0  -9    4.90    0.90 
   0  -6  -9    4.50    1.10 
  -6   0  -9    4.00    1.40 
   0   6  -9    3.20    0.70 
   0  -6  -9    2.70    1.10 
  -6   0  -9    4.40    0.80 
   6   0   9    5.20    0.70 
   0  -6   9    4.20    1.00 
   6   0   9    3.70    1.20 
   0   6   9    5.60    1.00 
  -6   0   9    5.10    1.00 
  -6   0   9    3.40    1.10 
   0  -6   9    3.50    0.90 
   0   6   9    2.00    0.90 
  -1  -6  -9    1.80    1.10 
  -6   1  -9    1.10    1.20 
  -1  -6  -9    0.50    0.70 
   6  -1  -9    1.50    0.60 
   6  -1   9    0.60    0.80 
  -6   1   9    1.00    0.80 
   1   6   9    0.90    0.70 
  -6   1   9    2.00    0.80 
  -1  -6   9    0.30    0.70 
   6  -1   9    0.20    0.50 
   1   6   9    0.60    0.70 
  -1  -6   9    1.60    0.80 
   6  -2  -9    9.30    1.30 
  -6   2  -9    8.50    1.80 
  -2  -6  -9    8.60    1.80 
  -2  -6  -9    9.60    1.50 
   2   6   9    7.80    1.50 
   2   6   9   10.70    1.40 
  -6   2   9    9.60    1.50 
   6  -2   9    6.70    1.40 
  -2  -6   9    8.50    1.40 
  -6   2   9    8.30    1.40 
  -2  -6   9    7.50    1.30 
  -6   3  -9   10.50    1.90 
  -3  -6  -9   10.30    2.00 
  -3  -6  -9   10.80    1.60 
   6  -3  -9    9.30    1.50 
  -3  -6   9    7.50    1.40 
   3   6   9    7.70    2.10 
   3   6   9   10.50    1.40 
  -6   3   9    8.80    1.70 
  -3  -6   9    8.20    1.50 
   6  -3   9   10.00    1.30 
   6  -3   9   11.20    1.70 
  -6   3   9   10.10    1.50 
  -6   4  -9   11.60    2.10 
  -4  -6  -9   12.60    1.90 
   6  -4  -9   12.50    1.70 
  -4  -6  -9   10.50    2.10 
  -6   4   9   11.60    1.70 
   4   6   9   13.80    1.70 
  -6   4   9   14.50    1.70 
   4   6   9   12.10    1.80 
   6  -4   9   11.50    1.60 
  -4  -6   9   14.60    1.90 
  -5  -6  -9    3.60    1.00 
  -6   5  -9    1.30    1.00 
   6  -5  -9    1.80    0.80 
  -5  -6  -9    2.10    1.40 
   6  -5   9    2.10    0.70 
  -5  -6   9    2.40    0.80 
  -6   5   9    1.50    0.90 
   6  -5   9    0.70    0.70 
   5   6   9    2.40    0.80 
  -6   5   9    1.60    0.90 
  -5  -6   9    3.10    1.00 
   5   6   9    1.90    0.90 
  -6   6  -9    0.10    0.90 
  -6  -6  -9    0.40    0.80 
   6  -6  -9    0.80    0.70 
  -6  -6  -9    0.90    1.20 
  -6  -6   9    0.00    0.70 
  -6   6   9    1.10    0.80 
   6  -6   9    0.70    0.60 
  -6  -6   9    0.80    0.80 
   6  -6   9   -0.90    0.50 
  -6   6   9   -0.30    0.80 
   6   6   9    0.20    0.70 
   6   6   9    0.50    0.90 
  -6   7  -9    2.30    1.00 
  -7  -6  -9    2.40    1.60 
  -7  -6  -9    3.20    1.00 
  -6   7   9    5.30    1.10 
   6  -7   9    1.50    0.70 
   7   6   9    4.20    0.80 
  -7  -6   9    3.10    1.10 
   6  -7   9    3.70    0.90 
  -7  -6   9    4.10    1.00 
  -7  -5  -9   27.20    3.40 
   5  -7  -9   19.10    2.80 
  -5   7  -9   24.20    2.70 
  -7  -5  -9   23.00    2.60 
   7   5   9   19.40    2.60 
  -7  -5   9   23.50    2.70 
  -5   7   9   21.00    2.70 
  -5   7   9   18.30    2.70 
   5  -7   9   23.10    2.50 
   7   5   9   27.10    2.80 
  -7  -5   9   26.40    2.80 
  -7  -4  -9   34.20    3.60 
   4  -7  -9   24.60    3.20 
  -7  -4  -9   29.20    3.00 
  -4   7  -9   24.70    3.00 
  -4   7   9   24.30    3.00 
  -4   7   9   25.70    3.10 
   7   4   9   27.50    3.20 
  -7  -4   9   24.20    3.10 
   4  -7   9   24.90    2.90 
   4  -7   9   27.10    3.10 
  -7  -4   9   27.30    3.10 
   7   4   9   27.00    2.90 
   3  -7  -9  228.48   27.50 
  -7  -3  -9  271.37   27.40 
  -3   7  -9  271.47   27.40 
  -7  -3  -9  324.07   27.90 
   7   3   9  248.28   27.30 
  -3   7   9  267.77   27.50 
  -7  -3   9  264.97   27.50 
   3  -7   9  274.97   27.50 
   3  -7   9  289.07   27.40 
   7   2  -9   12.20    1.60 
   2  -7  -9   12.10    1.80 
  -7  -2  -9   12.20    2.30 
  -2   7  -9   13.00    1.50 
   7   2   9   15.70    2.00 
  -2   7   9   11.80    1.80 
  -7  -2   9   10.20    1.70 
   7   2   9   12.70    1.50 
  -2   7   9   13.40    1.80 
   2  -7   9   13.10    1.80 
  -7  -2   9   14.10    1.90 
   2  -7   9    8.90    1.40 
  -7  -1  -9   20.70    2.80 
   1  -7  -9   17.00    2.30 
   7   1  -9   14.50    2.00 
  -1   7  -9   18.00    1.90 
   1  -7  -9   15.90    2.30 
   1  -7   9   16.70    2.20 
  -1   7   9   18.70    2.90 
  -7  -1   9   18.20    2.20 
   7   1   9   19.00    2.40 
  -7  -1   9   15.50    2.20 
  -1   7   9   16.20    2.10 
   7   1   9   17.00    1.90 
   1  -7   9   17.30    1.90 
   7   0  -9    0.10    0.50 
   0   7  -9    0.00    0.40 
   0  -7  -9    0.50    0.90 
  -7   0  -9    0.30    1.00 
  -7   0   9    0.60    0.80 
   0   7   9   -0.30    0.60 
   0  -7   9   -0.30    0.70 
  -7   0   9   -0.70    0.70 
   0  -7   9   -0.40    0.40 
   7   0   9   -0.30    0.90 
   7   0   9    0.40    0.40 
  -1  -7  -9   18.60    2.50 
  -1  -7  -9   16.80    2.30 
  -7   1  -9   22.80    2.90 
   7  -1  -9   16.60    2.00 
   7  -1   9   19.60    3.60 
  -1  -7   9   16.80    2.20 
  -7   1   9   16.60    2.20 
   1   7   9   16.00    2.10 
  -1  -7   9   18.00    2.00 
   7  -1   9   15.00    1.90 
  -2  -7  -9   12.50    2.20 
  -2  -7  -9   11.50    1.80 
  -7   2  -9   11.80    2.10 
  -2  -7   9    9.50    1.50 
  -7   2   9   12.30    1.80 
  -2  -7   9   13.00    1.80 
   2   7   9    8.60    1.80 
  -7   2   9   11.00    1.70 
   2   7   9   14.00    1.70 
   7  -2   9   11.90    1.40 
   7  -2   9   12.20    2.00 
   7  -3  -9  248.28   27.00 
  -3  -7  -9  293.47   27.30 
  -3  -7  -9  252.77   27.10 
  -7   3  -9  311.37   27.30 
  -7   3   9  261.57   27.10 
   7  -3   9  257.57   26.90 
  -7   3   9  236.98   27.00 
  -3  -7   9  280.17   27.00 
   3   7   9  291.47   27.10 
  -3  -7   9  264.87   27.10 
   3   7   9  234.48   27.00 
   7  -4  -9   26.50    3.00 
  -4  -7  -9   26.20    3.60 
  -7   4  -9   25.00    3.40 
  -4  -7  -9   27.50    3.20 
  -4  -7   9   23.70    3.00 
  -4  -7   9   24.90    3.10 
  -7   4   9   27.10    3.10 
   7  -4   9   28.00    3.10 
   7  -4   9   29.30    2.90 
   4   7   9   24.80    3.10 
   4   7   9   24.20    3.00 
  -7   4   9   28.50    3.10 
  -5  -7  -9   21.10    2.80 
   7  -5  -9   19.00    2.60 
  -7   5  -9   24.30    3.00 
   5   7   9   26.10    2.70 
   7  -5   9   23.40    2.50 
  -7   5   9   22.00    2.70 
  -5  -7   9   25.20    3.10 
   7  -5   9   23.90    2.70 
   5   7   9   20.50    2.60 
  -7   5   9   21.60    2.70 
  -5  -7   9   22.70    2.80 
  -6  -7  -9    5.00    1.70 
   7  -6  -9    2.60    1.40 
  -7   6  -9    4.20    1.30 
  -6  -7  -9    3.60    1.20 
   6   7   9    2.70    1.00 
   7  -6   9    4.20    0.80 
  -6  -7   9    2.70    1.10 
   7  -6   9    2.20    0.80 
   6   7   9    4.90    0.90 
  -7   6   9    3.10    1.00 
  -6  -7   9    2.90    0.90 
  -7   7  -9    3.10    1.20 
  -7  -7  -9    5.40    1.20 
  -7  -7  -9    3.80    1.60 
  -7  -7   9    3.10    1.10 
   7  -7   9    1.70    0.70 
   7   7   9    4.70    0.90 
  -7   7   9    5.20    1.20 
  -7  -7   9    2.60    0.90 
   7  -7   9    4.20    0.90 
  -7   8  -9    4.80    1.40 
  -8  -7  -9   10.60    1.50 
  -8  -7   9    7.20    1.20 
   7  -8   9    8.10    1.30 
  -7   8   9    6.50    1.60 
   8   7   9    8.30    1.20 
   7  -8   9    4.90    1.10 
  -8  -7   9    7.10    1.50 
  -6   8  -9    1.00    0.90 
  -8  -6  -9    0.70    1.20 
  -8  -6  -9    2.20    0.80 
  -8  -6   9    1.50    0.90 
   6  -8   9    0.20    0.50 
  -6   8   9    0.70    0.90 
   6  -8   9    1.90    0.80 
  -8  -6   9    0.90    0.80 
   8   6   9    2.60    0.70 
  -5   8  -9   15.40    2.20 
  -8  -5  -9   19.30    2.90 
  -8  -5  -9   19.30    2.20 
  -8  -5   9   16.90    2.30 
  -5   8   9   17.10    2.30 
  -8  -5   9   17.30    2.30 
   8   5   9   19.30    2.10 
   5  -8   9   16.80    2.00 
  -8  -4  -9   31.60    3.30 
  -8  -4  -9   21.70    3.40 
  -8  -4   9   23.60    3.00 
   4  -8   9   24.80    3.00 
  -4   8   9   21.30    2.90 
  -8  -4   9   25.60    3.10 
  -4   8   9   27.80    3.10 
   8   4   9   28.40    2.80 
  -8  -3  -9    7.80    1.10 
  -3   8  -9    6.60    1.00 
   8   3  -9    7.90    1.10 
   3  -8  -9    5.80    1.40 
  -8  -3  -9    5.90    1.70 
  -8  -3   9    8.10    1.30 
  -8  -3   9    4.60    1.20 
   3  -8   9    7.10    1.30 
  -3   8   9    7.60    1.30 
   8   3   9    6.80    1.40 
   8   3   9    7.30    1.10 
  -3   8   9    4.70    1.10 
   3  -8   9    6.00    1.10 
  -8  -2  -9    2.90    1.50 
  -8  -2  -9    5.00    0.90 
   2  -8  -9    6.90    1.30 
  -2   8  -9    4.70    0.80 
  -2   8   9    3.80    1.00 
  -8  -2   9    4.80    1.20 
  -2   8   9    6.40    1.20 
  -8  -2   9    5.70    1.20 
   8   2   9    3.40    1.10 
   2  -8   9    6.30    1.20 
   8   2   9    7.10    0.90 
   2  -8   9    3.00    0.70 
   1  -8  -9    8.00    1.60 
  -1   8  -9    7.50    1.00 
   1  -8  -9    6.50    1.50 
  -8  -1  -9    8.10    1.80 
   1  -8   9    8.60    1.40 
  -1   8   9    7.20    1.20 
   8   1   9    8.70    1.00 
   1  -8   9    4.90    0.90 
  -1   8   9    7.80    1.30 
  -8  -1   9    8.00    1.30 
   8   1   9    5.40    1.30 
  -8   0  -9    1.40    1.40 
   0  -8  -9    2.60    1.30 
   0  -8  -9    0.00    1.00 
   8   0   9    2.10    1.00 
   0  -8   9    0.40    0.40 
   0   8   9   -0.30    0.80 
  -8   0   9    0.30    0.80 
   0  -8   9    0.50    0.80 
  -8   0   9    1.10    0.80 
   0   8   9    0.10    0.80 
   8   0   9    0.60    0.40 
  -1  -8  -9    7.70    1.50 
   8  -1  -9    7.60    1.30 
  -8   1  -9    3.50    1.60 
  -1  -8  -9    7.40    1.70 
   1   8   9    9.20    1.30 
   1   8   9    5.90    1.20 
   8  -1   9    5.30    1.40 
  -1  -8   9    6.70    0.90 
   8  -1   9    9.30    1.00 
  -8   1   9    8.10    1.50 
  -1  -8   9    5.20    1.30 
  -8   1   9    7.10    1.30 
  -2  -8  -9    6.40    1.60 
  -8   2  -9    5.50    1.60 
   8  -2  -9    4.90    0.90 
  -2  -8  -9    3.70    1.40 
   2   8   9    6.60    1.20 
  -8   2   9    5.50    1.10 
  -2  -8   9    6.80    1.40 
   8  -2   9    2.90    1.10 
  -8   2   9    5.80    1.20 
  -2  -8   9    3.20    0.70 
   8  -2   9    4.30    0.70 
   2   8   9    5.60    1.20 
   8  -3  -9    8.60    1.20 
  -8   3  -9    7.60    1.80 
  -3  -8  -9    5.40    1.60 
  -3  -8  -9    5.20    1.80 
   8  -3   9    4.30    1.30 
   3   8   9    7.40    1.30 
  -3  -8   9    7.20    1.40 
  -3  -8   9    7.50    1.10 
  -8   3   9    7.50    1.40 
   3   8   9    5.40    1.30 
  -8   3   9    6.80    1.30 
  -4  -8  -9   28.60    3.20 
  -8   4  -9   21.70    3.20 
  -4  -8  -9   22.90    3.20 
   8  -4  -9   22.60    2.80 
  -4  -8   9   27.40    3.00 
   4   8   9   21.80    2.80 
   8  -4   9   18.50    2.80 
   8  -4   9   25.00    2.60 
  -4  -8   9   21.50    2.60 
  -8   4   9   28.90    2.90 
   4   8   9   25.00    2.80 
  -8   5  -9   16.20    2.50 
  -5  -8  -9   17.70    2.70 
   8  -5  -9   15.00    2.20 
  -5  -8  -9   16.80    2.50 
   5   8   9   18.10    2.20 
   8  -5   9   18.20    2.10 
  -8   5   9   17.80    2.30 
   8  -5   9   16.40    2.20 
  -5  -8   9   17.00    2.40 
  -5  -8   9   18.60    2.10 
   5   8   9   20.20    2.30 
  -6  -8  -9    2.40    1.10 
  -6  -8  -9   -0.40    1.30 
  -8   6  -9    1.90    1.20 
   8  -6   9    1.20    0.70 
   6   8   9    1.90    0.80 
  -6  -8   9    1.00    1.00 
  -8   6   9    2.00    0.90 
   8  -6   9    1.60    0.70 
  -7  -8  -9    4.70    1.60 
  -7  -8  -9    8.10    1.50 
  -8   7  -9    6.50    1.50 
   8  -7   9    5.20    1.10 
   7   8   9    8.00    1.20 
  -7  -8   9    7.00    1.40 
  -7  -8   9    4.90    0.90 
  -8   7   9    7.10    2.20 
   8  -7   9    8.90    1.20 
  -7  -8   9    7.80    1.20 
  -8  -8  -9    2.90    1.20 
  -8   8  -9    2.00    1.10 
  -8  -8  -9    1.70    1.40 
  -8  -8   9    1.30    0.50 
   8  -8   9    2.20    0.80 
  -8  -8   9    0.60    1.50 
  -8   8   9    1.90    1.10 
  -8  -8   9    0.80    0.80 
  -8   9  -9    2.50    1.10 
  -9  -8  -9    2.20    1.00 
  -9  -8  -9    3.30    1.50 
  -9  -8   9    1.70    0.80 
   8  -9   9    3.10    0.90 
  -9  -8   9    2.30    0.60 
  -8   9   9    1.80    1.10 
  -9  -8   9    1.60    1.10 
  -7   9  -9   78.89    7.60 
  -9  -7  -9   69.79    7.50 
  -9  -7  -9   86.59    8.00 
   7  -9   9   65.69    7.50 
  -9  -7   9   82.29    7.40 
  -9  -7   9   63.99    7.70 
  -9  -7   9   68.69    7.50 
  -7   9   9   58.39    7.60 
  -9  -6  -9   13.40    2.40 
  -9  -6  -9   11.00    1.60 
  -6   9  -9   10.50    1.70 
  -9  -6   9    9.90    1.80 
   6  -9   9    9.40    1.70 
  -9  -6   9   11.80    1.70 
  -6   9   9   11.00    1.80 
   9   6   9   13.60    1.60 
  -5   9  -9   65.89    6.60 
  -9  -5  -9   60.39    7.80 
  -9  -5   9   61.89    6.70 
  -5   9   9   57.49    6.70 
   9   5   9   66.29    6.50 
  -9  -5   9   59.39    6.70 
  -4   9  -9   10.80    1.50 
  -9  -4  -9   12.20    1.50 
  -9  -4  -9   13.30    2.40 
   4  -9   9   11.80    1.80 
  -9  -4   9   13.30    1.80 
  -9  -4   9   10.80    1.80 
  -4   9   9   11.00    1.90 
   9   4   9   14.10    1.50 
  -9  -3  -9    4.50    0.80 
   9   3  -9    2.50    0.70 
  -9  -3  -9    5.70    1.70 
  -3   9  -9    3.20    0.70 
  -9  -3   9    4.80    1.30 
  -3   9   9    3.20    1.00 
   9   3   9    4.60    0.70 
   3  -9   9    4.80    1.10 
  -3   9   9    2.90    1.00 
  -9  -3   9    4.10    1.10 
  -9  -2  -9    6.70    1.90 
   9   2  -9    6.80    1.10 
  -2   9  -9    7.10    0.90 
   2  -9   9    7.20    1.40 
  -9  -2   9    6.10    1.30 
  -2   9   9    8.40    1.40 
   2  -9   9    7.30    0.90 
  -2   9   9    5.60    1.20 
   9   2   9    7.00    1.00 
  -9  -2   9    5.00    1.20 
   9   1  -9  120.39   13.70 
  -1   9  -9  133.09   13.50 
  -9  -1  -9  151.58   14.20 
   1  -9  -9  147.49   14.00 
  -9  -1   9  123.29   13.80 
   9   1   9  135.29   13.60 
   1  -9   9  147.19   13.60 
  -1   9   9  132.39   13.80 
   1  -9   9  133.49   13.90 
  -9  -1   9  128.69   13.80 
  -1   9   9  122.19   13.80 
   0  -9  -9    0.70    1.20 
  -9   0  -9    0.40    1.20 
   9   0  -9    0.50    0.60 
   0  -9  -9   -0.10    1.10 
   0   9   9   -0.30    0.90 
   0  -9   9    0.20    0.30 
   0  -9   9    0.90    0.90 
   0   9   9    0.00    0.70 
  -9   0   9   -0.30    0.80 
   9   0   9    0.40    0.40 
  -9   0   9   -0.10    0.90 
  -9   1  -9  159.78   14.20 
   9  -1  -9  128.29   13.70 
  -1  -9  -9  146.09   14.10 
  -1  -9  -9  125.39   14.00 
  -9   1   9  125.09   13.80 
   1   9   9  137.69   14.10 
   9  -1   9  131.79   13.60 
  -1  -9   9  142.69   13.50 
  -1  -9   9  132.09   13.90 
  -9   1   9  125.69   13.80 
   1   9   9  125.09   13.80 
  -2  -9  -9    6.10    1.60 
   9  -2  -9    6.30    1.10 
  -2  -9  -9    8.50    1.90 
  -9   2  -9    8.60    1.90 
   2   9   9    6.30    1.90 
   9  -2   9    8.00    1.00 
  -2  -9   9    7.40    1.50 
  -9   2   9    8.60    1.40 
   2   9   9    7.60    1.30 
   9  -2   9    4.80    1.40 
  -3  -9  -9    3.00    1.40 
  -9   3  -9    1.50    1.20 
   9  -3  -9    3.90    0.80 
  -3  -9  -9    2.30    1.30 
   9  -3   9    3.40    0.60 
  -3  -9   9    2.20    0.40 
  -3  -9   9    1.70    0.90 
  -9   3   9    4.10    1.10 
   3   9   9    3.40    1.00 
   9  -3   9    3.60    1.10 
  -4  -9  -9   10.10    2.10 
  -4  -9  -9   15.10    2.50 
  -9   4  -9   12.70    2.30 
   9  -4  -9   12.30    1.70 
   4   9   9   12.80    1.90 
   9  -4   9   14.50    1.60 
  -4  -9   9   12.50    1.50 
   4   9   9   11.90    1.80 
  -9   4   9   10.80    1.80 
   9  -4   9   12.90    1.90 
  -4  -9   9   14.00    1.90 
  -5  -9  -9   75.49    7.70 
  -9   5  -9   71.49    7.60 
   5   9   9   58.19    7.20 
   9  -5   9   72.69    7.10 
   9  -5   9   66.99    7.30 
  -9   5   9   66.09    7.30 
  -5  -9   9   70.59    7.00 
  -5  -9   9   67.29    7.50 
  -5  -9   9   70.99    7.10 
  -6  -9  -9    9.50    2.10 
  -6  -9  -9   15.30    3.00 
  -9   6  -9   10.80    2.00 
  -6  -9   9   10.30    1.40 
  -9   6   9   10.90    1.70 
   6   9   9   10.30    1.60 
   9  -6   9   10.90    1.40 
  -6  -9   9   12.70    2.80 
  -6  -9   9    9.10    1.20 
   9  -6   9    7.10    1.50 
  -9   7  -9   85.79    8.10 
  -7  -9  -9   84.69    8.50 
  -7  -9  -9   77.99    8.00 
  -7  -9   9   78.99    7.60 
  -9   7   9   61.09    7.80 
   7   9   9   63.09    7.70 
   9  -7   9   77.79    7.80 
  -7  -9   9   66.39    7.90 
   9  -7   9   76.19    7.70 
  -8  -9  -9    2.20    1.40 
  -9   8  -9    1.40    1.10 
  -8  -9  -9    2.80    1.20 
  -8  -9   9    2.90    0.80 
   9  -8   9    0.80    0.80 
  -8  -9   9    2.20    1.10 
  -9   8   9    2.30    1.10 
  -9   9  -9    1.30    1.10 
  -9  -9  -9    0.20    1.30 
  -9  -9  -9    0.50    1.10 
  -9   9   9    1.30    1.00 
  -9  -9   9    0.00    0.40 
  -9  -9   9   -0.40    0.90 
   9  -9   9   -0.70    0.70 
  -9  -9   9    0.30    0.70 
  -9  10  -9   11.90    2.10 
 -10  -9  -9   15.20    2.20 
 -10  -9  -9   16.40    2.60 
 -10  -9   9   13.40    1.70 
 -10  -9   9   11.40    2.10 
 -10  -9   9   14.10    1.80 
  -8  10  -9    9.70    1.60 
 -10  -8  -9    8.90    1.40 
 -10  -8  -9    7.30    1.90 
 -10  -8   9    7.80    1.20 
 -10  -8   9    9.60    1.70 
   8 -10   9    6.20    1.60 
 -10  -8   9    7.60    1.30 
  -8  10   9    5.50    1.50 
 -10  -7  -9   12.20    2.20 
 -10  -7  -9   11.50    1.60 
  -7  10  -9   11.30    1.80 
  -7  10   9   13.60    2.00 
   7 -10   9   11.70    2.00 
 -10  -7   9   10.30    1.50 
 -10  -7   9    9.60    1.60 
  -6  10  -9    8.60    1.40 
 -10  -6  -9   12.20    2.30 
  -6  10   9    8.40    1.60 
 -10  -6   9    8.50    1.60 
   6 -10   9   10.60    1.70 
  -5  10  -9   10.40    1.50 
 -10  -5  -9   12.00    2.20 
 -10  -5  -9   11.70    1.40 
 -10  -5   9   12.00    1.80 
  -5  10   9    8.50    1.70 
  -4  10  -9    7.90    1.20 
 -10  -4  -9    7.90    1.90 
 -10  -4  -9    8.60    1.20 
  -4  10   9    8.10    1.50 
   4 -10   9   10.00    1.60 
 -10  -4   9    9.70    1.50 
 -10  -3  -9   15.10    2.60 
  -3  10  -9   13.90    1.70 
  10   3  -9   14.50    1.90 
  -3  10   9   15.20    2.20 
   3 -10   9   14.20    2.00 
 -10  -3   9   16.00    2.10 
  10   3   9   16.70    1.70 
  10   2  -9    4.90    1.00 
  -2  10  -9    5.40    0.80 
 -10  -2  -9    6.30    1.90 
 -10  -2   9    4.10    1.20 
   2 -10   9    6.50    1.30 
  10   2   9    6.50    0.80 
  10   1  -9   24.30    3.00 
  -1  10   9   26.00    3.20 
   1 -10   9   25.60    3.40 
  10   1   9   27.70    2.80 
 -10  -1   9   28.50    3.20 
  -1  10   9   26.40    3.30 
 -10   0  -9   26.20    3.90 
  10   0  -9   27.80    3.10 
   0 -10  -9   26.00    3.50 
   0  10   9   28.40    3.30 
 -10   0   9   28.00    3.30 
  10   0   9   30.30    2.90 
   0 -10   9   31.80    4.20 
   0  10   9   22.30    3.10 
 -10   1  -9   22.90    3.40 
  -1 -10  -9   29.50    3.60 
  10  -1  -9   23.30    3.00 
  10  -1   9   27.50    2.80 
 -10   1   9   27.70    3.10 
   1  10   9   27.50    3.10 
   1  10   9   26.00    3.10 
  -2 -10  -9    4.60    1.60 
 -10   2  -9    3.60    1.50 
  10  -2  -9    4.00    0.90 
   2  10   9    3.00    1.10 
  10  -2   9    5.50    0.80 
  -2 -10   9    5.60    1.50 
 -10   2   9    6.00    1.20 
   2  10   9    7.10    1.20 
  -3 -10  -9   12.60    2.40 
  -3 -10  -9   18.90    2.80 
  10  -3  -9   13.80    1.90 
 -10   3  -9   15.00    2.60 
   3  10   9   16.20    2.10 
  -3 -10   9   13.80    2.20 
  10  -3   9   17.70    1.80 
 -10   3   9   15.10    2.20 
 -10   4  -9    8.60    1.90 
  -4 -10  -9    7.80    2.00 
  -4 -10  -9   10.00    1.90 
   4  10   9   12.50    1.60 
 -10   4   9   13.20    1.80 
  -4 -10   9    7.20    1.60 
  -5 -10  -9   14.60    2.40 
 -10   5  -9    9.50    2.00 
  -5 -10  -9   14.20    2.20 
 -10   5   9   10.80    1.70 
  10  -5   9    9.80    1.40 
   5  10   9    9.80    1.70 
  -5 -10   9   11.20    1.90 
  -6 -10  -9   14.10    3.40 
 -10   6  -9    7.80    1.80 
  -6 -10  -9    8.30    1.90 
 -10   6   9   10.50    1.90 
   6  10   9   10.40    1.50 
  10  -6   9   12.30    1.30 
  -6 -10   9    7.00    1.00 
  -6 -10   9    8.00    1.60 
  -6 -10   9    8.80    1.10 
  -7 -10  -9   14.50    2.30 
 -10   7  -9   13.30    2.20 
  -7 -10  -9    9.50    2.10 
  -7 -10   9   10.60    1.30 
  -7 -10   9    9.40    1.90 
  -7 -10   9   12.20    1.40 
 -10   7   9   11.60    1.90 
  10  -7   9   12.40    1.60 
  -8 -10  -9    6.80    1.80 
 -10   8  -9    8.10    1.80 
  -8 -10  -9    7.10    1.70 
  10  -8   9    7.50    1.30 
 -10   8   9    9.10    1.70 
  -8 -10   9    6.30    1.50 
  -8 -10   9    7.10    1.00 
  -9 -10  -9   16.00    3.00 
 -10   9  -9   12.40    2.30 
  -9 -10  -9   20.40    2.80 
 -10   9   9   17.30    2.40 
  10  -9   9   16.70    2.10 
  -9 -10   9   15.10    2.40 
  -9 -10   9   13.10    1.80 
 -10  10  -9   10.60    2.10 
 -10 -10   9   11.90    1.60 
 -10 -10   9   16.10    2.20 
 -10 -10   9   15.10    1.80 
 -10  10   9   14.40    2.30 
 -11 -10  -9    1.60    1.00 
 -11 -10  -9    0.10    1.20 
 -10  11  -9   -0.20    0.90 
 -11 -10   9    0.80    1.50 
  10 -11   9    0.80    0.90 
 -11 -10   9   -0.10    0.50 
 -10  11   9    1.30    1.10 
 -11 -10   9    0.70    0.60 
  -9  11  -9    8.20    1.60 
 -11  -9  -9    9.30    1.40 
 -11  -9  -9    9.50    2.10 
 -11  -9   9    9.50    1.50 
   9 -11   9    9.10    1.60 
  -9  11   9    7.10    1.60 
 -11  -9   9    8.00    1.20 
 -11  -9   9    7.70    1.70 
  -8  11  -9    2.90    1.00 
 -11  -8  -9    1.70    0.80 
 -11  -8   9    3.30    0.90 
 -11  -8   9    2.30    0.70 
 -11  -8   9    2.90    1.20 
  -8  11   9    2.90    1.30 
 -11  -7  -9    8.90    2.10 
  -7  11  -9   10.30    1.60 
  -7  11   9    5.80    2.30 
 -11  -7   9   12.20    2.00 
 -11  -7   9   10.80    1.40 
  -6  11  -9    1.20    0.80 
 -11  -6  -9    3.00    1.50 
 -11  -6  -9    3.70    0.70 
 -11  -6   9    2.70    1.10 
 -11  -6   9    2.90    0.80 
  -6  11   9    3.10    1.20 
 -11  -5  -9    3.90    0.70 
  -5  11  -9    3.80    1.10 
 -11  -5  -9    3.60    1.70 
  -5  11   9    3.20    1.20 
 -11  -5   9    3.30    1.10 
  -4  11  -9    5.60    0.80 
 -11  -4  -9    8.60    1.90 
  -4  11   9    5.50    1.30 
 -11  -4   9    6.00    1.30 
  11   3  -9    8.40    1.20 
 -11  -3  -9   14.80    2.30 
  -3  11  -9    8.10    1.00 
 -11  -3   9    9.10    1.60 
  -3  11   9    6.70    1.40 
 -11  -2  -9   13.50    2.50 
  11   2  -9   13.80    1.70 
  -2  11   9   13.70    2.10 
   2 -11   9   12.60    2.10 
 -11  -2   9   15.60    2.10 
  11   1  -9   11.60    1.70 
 -11  -1  -9   24.80    3.00 
  -1  11   9   12.40    2.10 
   1 -11   9   14.70    2.10 
 -11  -1   9   15.10    2.10 
 -11   0  -9   -0.60    1.00 
  11   0  -9   -0.30    0.50 
   0 -11  -9   -0.60    1.00 
   0  11   9   -0.60    0.90 
   0 -11   9   -0.90    0.80 
 -11   0   9    0.30    0.80 
  11  -1  -9   13.40    1.80 
 -11   1  -9   18.50    2.70 
  -1 -11  -9   17.20    2.60 
  -1 -11   9   16.00    2.30 
 -11   1   9   12.60    2.00 
  11  -1   9   14.50    1.60 
   1  11   9   13.20    2.30 
  -2 -11  -9   16.70    2.60 
 -11   2  -9   14.90    2.50 
  11  -2  -9   10.30    1.90 
 -11   2   9   15.00    2.10 
  11  -2   9   14.70    1.60 
  -2 -11   9   13.90    2.10 
  -3 -11  -9   12.60    2.20 
 -11   3  -9   15.00    2.20 
  11  -3   9    8.30    1.10 
  -3 -11   9   13.20    2.00 
   3  11   9    9.20    1.60 
 -11   3   9    6.80    1.50 
  -4 -11  -9    8.70    1.90 
 -11   4  -9    6.30    1.70 
   4  11   9    6.90    1.40 
 -11   4   9    6.80    1.40 
  -4 -11   9    5.10    1.40 
  11  -4   9    7.20    1.00 
 -11   5  -9    4.30    1.40 
  -5 -11  -9    1.90    2.30 
  11  -5   9    5.50    0.80 
  -5 -11   9    4.00    1.40 
   5  11   9    4.10    1.10 
 -11   6  -9    6.60    1.60 
  -6 -11  -9    4.40    1.50 
 -11   6   9    2.00    1.10 
  -6 -11   9    1.70    1.20 
  11  -6   9    4.20    0.80 
  -7 -11  -9   13.10    2.60 
  -7 -11  -9   11.80    2.30 
 -11   7  -9   15.20    2.40 
  -7 -11   9   12.90    2.20 
 -11   7   9    9.70    1.90 
  11  -7   9   10.30    2.00 
  11  -7   9   12.50    1.60 
  -8 -11  -9    5.20    1.60 
  -8 -11  -9    3.40    1.50 
 -11   8  -9    1.50    1.30 
 -11   8   9    3.10    1.30 
  11  -8   9    3.80    0.90 
  -8 -11   9    3.80    0.60 
  -8 -11   9    5.20    1.30 
  -8 -11   9    3.60    0.60 
  11  -8   9    0.80    1.20 
  -9 -11  -9    6.50    1.80 
 -11   9  -9    9.60    1.90 
  -9 -11  -9    9.90    2.00 
 -11   9   9    4.60    1.70 
  -9 -11   9    8.80    1.10 
  11  -9   9    7.90    1.80 
  11  -9   9    9.60    1.50 
 -10 -11  -9   -1.70    1.00 
 -11  10  -9    0.50    1.00 
 -10 -11  -9    0.50    1.20 
 -11  10   9    0.20    1.00 
 -10 -11   9   -0.10    0.50 
 -10 -11   9    1.10    1.00 
 -11 -11  -9   -0.90    1.00 
 -11  11  -9   -0.20    1.00 
 -11  11   9    2.70    1.20 
 -11 -11   9    0.30    0.80 
 -11 -11   9    0.30    0.50 
  11 -11   9    0.70    0.90 
 -11 -11   9    1.10    1.00 
 -12 -11  -9   -0.20    1.20 
 -11  12  -9    1.50    1.10 
 -12 -11   9    0.30    0.50 
 -12 -11   9    0.60    1.00 
 -12 -10  -9    3.80    1.50 
 -10  12  -9   -0.80    0.90 
 -10  12   9    1.70    1.20 
 -12 -10   9    1.70    0.70 
 -12 -10   9    0.80    1.10 
 -12 -10   9    1.50    0.60 
 -12  -9  -9    0.70    0.60 
  -9  12  -9    2.50    1.00 
 -12  -9  -9    2.10    1.30 
 -12  -9   9    0.80    1.00 
 -12  -9   9    1.00    0.80 
 -12  -9   9    1.20    0.60 
  -9  12   9    2.00    1.20 
 -12  -8  -9    0.40    1.30 
  -8  12  -9    0.30    0.70 
 -12  -8  -9    0.60    0.60 
  -8  12   9   -0.10    1.00 
 -12  -8   9    0.00    1.00 
 -12  -8   9    0.90    0.60 
 -12  -7  -9    3.00    1.50 
 -12  -7  -9    3.30    0.60 
  -7  12  -9    2.70    0.80 
 -12  -7   9    2.90    0.80 
  -7  12   9    4.00    1.30 
 -12  -7   9    2.60    1.20 
  -6  12  -9    1.10    0.60 
 -12  -6  -9    1.40    1.40 
 -12  -6   9    1.20    0.60 
 -12  -6   9    1.10    1.10 
  -6  12   9   -1.20    0.90 
  -5  12  -9    1.00    0.50 
  -5  12   9    0.70    1.00 
 -12  -5   9    0.30    0.60 
 -12  -5   9    1.40    1.00 
 -12  -4  -9    8.00    1.90 
  -4  12  -9    6.80    0.90 
  -4  12   9    7.10    1.80 
 -12  -4   9    4.70    1.40 
 -12  -3  -9   -0.50    1.20 
  -3  12   9    1.00    1.00 
 -12  -3   9    1.50    1.00 
 -12  -2  -9    6.00    1.80 
 -12  -2   9    6.20    1.40 
  -2  12   9    9.00    1.60 
  12   1  -9   10.90    1.60 
 -12  -1  -9    9.10    2.10 
  -1  12   9    7.50    1.50 
   1 -12   9    9.10    1.70 
 -12  -1   9    7.90    1.50 
 -12   0  -9    1.00    1.20 
 -12   0   9    0.30    1.00 
   0 -12   9    3.20    1.20 
   0  12   9    2.70    1.10 
  -1 -12  -9    9.40    2.30 
 -12   1  -9    9.50    2.10 
   1  12   9   14.00    1.90 
  -1 -12   9   10.10    1.90 
 -12   1   9    9.10    1.70 
 -12   2  -9    9.40    2.00 
  -2 -12  -9    7.10    2.60 
   2  12   9    6.50    1.40 
  -2 -12   9    8.10    1.70 
 -12   2   9    5.80    1.40 
 -12   3  -9    0.30    1.30 
  -3 -12  -9    0.90    2.20 
  12  -3   9    0.40    0.50 
  -3 -12   9    1.50    1.10 
   3  12   9    0.80    0.90 
  12  -3   9    1.20    0.40 
 -12   3   9    1.80    1.00 
  -4 -12  -9    6.80    1.80 
 -12   4  -9    4.60    1.60 
  -4 -12   9    5.90    1.50 
 -12   5  -9    0.90    1.20 
  -5 -12  -9    0.80    1.30 
  12  -5   9    0.80    0.80 
 -12   5   9    1.40    1.10 
  -5 -12   9    2.10    1.70 
  -6 -12  -9    1.50    1.30 
 -12   6  -9    0.40    1.20 
  12  -6   9    2.00    0.90 
  -6 -12   9   -1.10    1.20 
 -12   6   9    1.10    1.10 
  12  -6   9    1.20    0.60 
 -12   7  -9    2.50    1.40 
  -7 -12  -9    2.80    1.30 
  12  -7   9    3.20    0.80 
  -7 -12   9    3.50    1.20 
  12  -7   9    3.40    1.10 
 -12   7   9    2.80    1.20 
  -8 -12  -9    0.30    1.20 
 -12   8  -9    1.00    1.20 
  12  -8   9    0.30    0.70 
  -8 -12   9    2.50    1.10 
 -12   9  -9    3.00    1.40 
  -9 -12  -9    0.90    1.20 
  12  -9   9    2.20    0.90 
  12  -9   9    1.80    1.20 
 -12   9   9    2.70    1.30 
  -9 -12   9    0.20    0.90 
 -10 -12  -9    1.70    1.20 
 -12  10  -9    0.40    1.20 
 -12  10   9   -1.00    1.10 
 -10 -12   9    0.90    0.40 
 -10 -12   9    1.90    1.10 
 -11 -12  -9   -0.70    1.10 
 -12  11  -9    0.40    1.10 
 -12  11   9   -0.30    1.20 
 -11 -12   9   -0.60    0.90 
  12 -11   9    0.50    0.90 
 -13  -9  -9   17.80    2.70 
  -9  13  -9   12.60    1.90 
 -13  -9   9   13.30    2.60 
 -13  -9   9   12.10    1.70 
 -13  -8  -9    3.60    1.50 
  -8  13  -9    2.20    0.90 
 -13  -8   9    4.40    1.30 
  -8  13   9    3.70    1.30 
 -13  -8   9    4.20    1.00 
  -7  13  -9    2.50    0.70 
 -13  -7  -9    5.10    1.70 
 -13  -7   9    3.10    0.90 
  -7  13   9    2.90    1.30 
 -13  -7   9    2.90    1.20 
 -13  -6  -9   -0.10    1.30 
  -6  13   9    1.80    1.10 
 -13  -6   9    1.30    1.00 
 -13  -6   9    0.10    0.60 
 -13  -5  -9    9.10    2.00 
  -5  13  -9    6.90    1.00 
  -5  13   9    9.10    1.70 
 -13  -5   9    8.10    1.90 
 -13  -5   9    9.70    1.40 
 -13  -4  -9    0.60    1.30 
 -13  -4   9    0.20    1.00 
  -4  13   9    0.90    1.10 
 -13  -4   9    1.60    0.80 
 -13  -3  -9   69.39    6.60 
 -13  -3   9   56.19    6.20 
  -3  13   9   47.30    6.10 
 -13  -2  -9    1.70    1.60 
 -13  -2   9    4.60    1.30 
  -2  13   9    4.90    1.30 
 -13  -1  -9   10.70    2.30 
 -13  -1   9   10.30    1.80 
 -13   0  -9   -0.10    1.40 
   0 -13   9   -0.50    1.00 
 -13   0   9    0.80    1.00 
   0  13   9   -0.70    1.00 
  -1 -13  -9   12.40    2.20 
   1  13   9   10.70    1.80 
 -13   1   9    9.70    1.80 
  -1 -13   9   12.00    2.20 
  -2 -13  -9    2.80    1.40 
 -13   2   9    3.50    1.20 
  -2 -13   9    4.20    1.50 
  -3 -13  -9   61.99    6.80 
 -13   3   9   51.89    6.70 
  -3 -13   9   65.39    6.70 
 -13   4  -9    0.30    2.00 
  -4 -13  -9    3.00    1.50 
 -13   4   9    0.40    1.10 
  -4 -13   9    0.90    1.00 
  13  -4   9    2.60    0.60 
  13  -4   9    1.00    0.40 
  -5 -13  -9   12.70    2.10 
 -13   5  -9    8.70    2.90 
 -13   5   9    7.60    1.70 
  13  -5   9    8.60    1.20 
  -5 -13   9    8.50    1.80 
 -13   6  -9    2.20    1.40 
  -6 -13  -9    1.30    1.20 
  13  -6   9    1.60    0.60 
 -13   6   9    0.90    1.10 
  -6 -13   9    0.30    1.00 
  13  -6   9    1.80    0.80 
  -7 -13  -9    5.90    1.60 
 -13   7  -9    2.00    1.40 
 -13   7   9    4.60    1.40 
  -7 -13   9    3.30    1.20 
  13  -7   9    3.30    1.10 
  13  -7   9    3.60    0.80 
 -13   8  -9    3.80    1.50 
  -8 -13  -9    2.40    2.20 
 -13   8   9    4.60    1.50 
  13  -8   9    4.00    0.90 
  -8 -13   9    1.50    1.20 
 -13   9  -9   19.10    2.70 
  -9 -13  -9   13.40    2.30 
  -9 -13   9   15.60    2.40 
  13  -9   9   10.20    2.10 
 -13   9   9   10.90    2.30 
  13  -9   9   12.50    1.80 
  -8  14  -9    4.10    0.90 
 -14  -8  -9    7.50    2.80 
 -14  -8   9    4.40    1.00 
 -14  -8   9    6.70    1.50 
  -8  14   9    6.60    1.60 
  -7  14  -9   -0.40    0.40 
 -14  -7  -9   -0.20    1.40 
 -14  -7   9   -1.20    0.90 
 -14  -7   9    0.20    0.70 
  -7  14   9    0.00    1.20 
 -14  -6  -9    0.40    1.30 
  -6  14  -9   -0.10    0.30 
 -14  -6   9    0.10    1.00 
 -14  -6   9    0.30    0.60 
  -6  14   9    0.90    1.20 
 -14  -5  -9    5.40    1.80 
  -5  14   9    6.50    1.50 
 -14  -5   9    3.30    1.00 
 -14  -5   9    6.90    1.60 
 -14  -4  -9    5.70    1.80 
  -4  14   9    0.70    1.00 
 -14  -4   9    1.80    1.20 
 -14  -4   9    2.10    0.80 
 -14  -3  -9    3.30    1.80 
 -14  -3   9    4.10    1.10 
  -3  14   9    2.70    1.30 
 -14  -2  -9    5.60    1.80 
  -2  14   9    3.80    1.20 
 -14  -2   9    5.60    1.50 
 -14  -1  -9    1.60    1.40 
  -1  14   9    0.20    1.00 
 -14  -1   9    0.90    1.00 
 -14   0  -9    0.10    1.30 
 -14   0   9    0.90    1.10 
   0  14   9    0.20    0.90 
 -14   1  -9   -0.50    1.30 
  -1 -14   9    2.30    1.20 
 -14   2  -9    2.00    1.70 
  -2 -14  -9    7.50    1.70 
  -2 -14   9    6.20    1.60 
 -14   2   9    6.90    1.40 
  -3 -14  -9    3.70    1.40 
 -14   3  -9    2.20    1.50 
  -3 -14   9    3.20    1.40 
 -14   3   9    3.20    1.20 
  -4 -14  -9    3.10    1.50 
 -14   4  -9    2.50    1.40 
 -14   4   9    4.20    1.30 
  -4 -14   9    0.40    1.20 
  -5 -14  -9    4.20    1.60 
 -14   5  -9    6.30    1.90 
  14  -5   9    7.80    1.00 
 -14   5   9    7.80    1.70 
  -5 -14   9    5.60    1.60 
  14  -5   9    7.50    1.00 
  -6 -14  -9    0.20    1.20 
 -14   6  -9    0.70    1.30 
  14  -6   9   -0.30    0.60 
  -6 -14   9   -0.60    0.90 
 -14   6   9    1.30    1.10 
 -14   7  -9    0.10    1.30 
  -7 -14  -9    1.20    1.90 
  -7 -14   9    0.30    1.00 
 -14   7   9    0.20    1.20 
  14  -7   9    0.70    0.80 
  14  -7   9    0.90    0.60 
  -8 -14  -9    6.20    1.60 
 -14   8  -9    4.60    1.70 
 -14   8   9    5.90    1.70 
  -8 -14   9    6.30    1.70 
  14  -8   9    6.40    1.10 
 -15  -6  -9    0.90    1.40 
  -6  15   9    0.30    1.10 
 -15  -6   9    1.10    1.10 
 -15  -6   9   -0.70    0.60 
 -15  -5  -9    2.90    1.80 
 -15  -5   9    3.40    1.00 
 -15  -5   9    3.20    1.30 
  -5  15   9    2.50    1.20 
  -4  15   9    4.30    1.90 
 -15  -4   9    5.50    1.50 
 -15  -4   9    6.10    1.20 
 -15  -3  -9    1.80    1.60 
 -15  -3   9    0.10    1.00 
 -15  -3   9    1.00    0.80 
 -15  -2  -9    2.90    1.60 
 -15  -2   9    2.30    0.90 
 -15  -2   9    1.80    1.20 
 -15  -1  -9   11.10    2.20 
 -15  -1   9    7.70    1.60 
 -15  -1   9    7.80    1.50 
 -15   0  -9    1.00    1.50 
 -15   0   9    0.30    1.00 
 -15   1  -9    9.80    2.20 
 -15   1   9    7.30    1.70 
  -1 -15   9   11.70    2.20 
 -15   2  -9    4.30    1.70 
  -2 -15   9    2.90    1.40 
 -15   2   9    1.30    1.10 
 -15   3  -9   -1.20    1.20 
  -3 -15  -9    1.10    1.10 
 -15   3   9    1.20    1.10 
  -3 -15   9   -0.30    1.20 
  -4 -15  -9    5.30    1.50 
 -15   4  -9    4.20    1.70 
 -15   4   9    4.00    1.40 
 -15   5  -9    4.80    1.70 
  -5 -15  -9    3.80    1.50 
  -5 -15   9    5.90    2.60 
 -15   5   9    4.50    1.40 
 -15   6  -9   -1.00    1.10 
  -6 -15  -9    0.30    1.20 
  -6 -15   9   -0.20    1.10 
  15  -6   9    0.60    0.40 
 -15   6   9    2.10    1.40 
 -16  -3  -9    0.50    1.50 
 -16  -3   9    0.90    1.00 
 -16  -3   9   -0.60    0.70 
 -16  -2  -9   -0.50    1.30 
 -16  -2   9    1.30    1.10 
 -16  -2   9    1.20    0.80 
 -16  -1  -9    4.50    1.80 
 -16  -1   9    4.00    1.20 
 -16  -1   9    5.00    1.40 
 -16   0  -9    0.80    1.50 
 -16   0   9    0.00    1.00 
 -16   1  -9    2.30    1.70 
  -1 -16   9    4.80    1.70 
 -16   1   9    4.30    1.30 
 -16   1   9    4.10    1.20 
 -16   2  -9    0.90    1.50 
 -16   2   9    0.80    1.10 
  -2 -16   9    3.00    1.60 
 -16   2   9    0.90    0.80 
 -16   3  -9    0.80    1.30 
  -3 -16   9   -0.60    1.10 
 -16   3   9   -0.20    1.10 
   0   0 -10  159.78   15.60 
   0   0 -10  141.39   15.50 
   0   0  10  170.08   15.70 
   0   0  10  138.69   15.50 
  -1   0 -10  149.19   16.10 
   1   0 -10  147.89   16.10 
   1   0 -10  148.19   16.20 
  -1   0 -10  150.88   16.20 
   0  -1 -10  153.38   16.10 
   0  -1 -10  169.18   16.20 
   0   1 -10  159.98   16.10 
   0   1 -10  164.78   16.20 
   0   1  10  173.48   16.30 
   1   0  10  151.08   16.30 
   0   1  10  165.38   16.10 
   0  -1  10  169.98   16.30 
   0  -1  10  157.58   16.10 
  -1   0  10  155.88   16.20 
   1   0  10  154.98   16.10 
  -1   0  10  158.38   16.10 
  -1   1 -10  142.09   15.00 
  -1  -1 -10  137.09   15.10 
   1  -1 -10  148.69   15.10 
  -1  -1 -10  150.28   15.00 
  -1   1 -10  139.99   15.00 
   1   1 -10  145.39   15.00 
   1  -1 -10  138.99   15.00 
   1   1 -10  144.99   15.00 
   1   1  10  158.98   15.00 
   1   1  10  145.99   15.10 
  -1  -1  10  140.29   15.10 
  -1   1  10  137.69   15.10 
  -1  -1  10  162.58   15.00 
  -1   1  10  158.28   15.00 
   1  -1  10  159.08   15.00 
   1  -1  10  132.19   15.10 
  -2  -1 -10   90.09    9.30 
  -1   2 -10   82.99    9.30 
  -2  -1 -10   94.09    9.50 
   2   1 -10   91.29    9.30 
   1  -2 -10   89.09    9.30 
   1  -2 -10   81.29    9.40 
  -1   2 -10   80.09    9.30 
   2   1 -10   93.49    9.30 
  -2  -1  10   97.59    9.40 
   2   1  10   98.99    9.50 
  -2  -1  10   97.99    9.30 
  -1   2  10   91.69    9.30 
  -1   2  10   88.09    9.40 
   1  -2  10   91.59    9.30 
   1  -2  10   79.99    9.50 
   2   1  10   97.99    9.30 
   2   0 -10   47.20    5.10 
   0   2 -10   55.39    5.10 
   0  -2 -10   43.90    5.20 
   2   0 -10   46.10    5.10 
  -2   0 -10   45.30    5.10 
  -2   0 -10   50.79    5.20 
   0   2 -10   49.70    5.10 
   2   0  10   53.39    5.40 
  -2   0  10   58.39    5.20 
  -2   0  10   45.70    5.10 
   0   2  10   43.50    5.00 
   0   2  10   52.39    5.20 
   2   0  10   45.00    5.00 
   0  -2  10   43.40    5.10 
   0  -2  10   47.80    5.30 
   2  -1 -10   91.59    9.40 
  -1  -2 -10   83.69    9.40 
  -2   1 -10   92.49    9.30 
  -1  -2 -10   83.79    9.30 
   2  -1 -10   91.09    9.40 
   1   2 -10   85.49    9.30 
   1   2 -10   87.59    9.30 
  -2   1 -10   92.79    9.40 
   1   2  10   88.29    9.50 
  -2   1  10  100.49    9.40 
   2  -1  10   97.19    9.30 
  -2   1  10   94.19    9.40 
   1   2  10   92.29    9.30 
   2  -1  10   93.19    9.60 
  -1  -2  10   86.69    9.30 
  -1  -2  10   87.19    9.50 
  -2   2 -10   72.49    7.40 
   2   2 -10   69.29    7.30 
   2   2 -10   65.99    7.30 
  -2  -2 -10   71.29    7.30 
  -2   2 -10   67.49    7.30 
  -2  -2 -10   69.69    7.50 
   2  -2 -10   69.69    7.40 
   2   2  10   68.19    7.30 
  -2   2  10   73.29    7.30 
   2   2  10   73.49    7.50 
  -2   2  10   71.49    7.40 
   2  -2  10   70.19    7.30 
  -2  -2  10   75.59    7.30 
   2  -2  10   67.69    7.50 
  -2  -2  10   71.59    7.40 
  -3  -2 -10    5.10    1.30 
   3   2 -10    6.90    1.10 
   2  -3 -10    8.20    1.30 
  -3  -2 -10    6.60    1.10 
   2  -3 -10    5.60    1.00 
  -2   3 -10    6.80    1.10 
  -3  -2  10    4.90    1.20 
   3   2  10    5.60    1.30 
  -3  -2  10    5.90    1.10 
  -2   3  10    7.20    1.10 
   2  -3  10    5.50    1.30 
  -2   3  10    6.50    1.20 
   3   2  10    5.70    1.00 
   2  -3  10    7.30    1.10 
   1  -3 -10   40.90    4.10 
  -3  -1 -10   42.00    4.20 
  -1   3 -10   36.60    4.00 
   3   1 -10   34.50    3.90 
   1  -3 -10   35.00    3.90 
  -3  -1 -10   36.20    3.90 
   3   1  10   34.80    4.20 
  -3  -1  10   34.20    4.00 
   1  -3  10   31.70    4.10 
  -1   3  10   35.70    4.00 
  -1   3  10   42.10    4.00 
  -3  -1  10   35.80    4.10 
   1  -3  10   35.70    3.90 
   3   1  10   36.60    3.90 
   3   0 -10    4.20    0.80 
   0  -3 -10    5.10    1.00 
  -3   0 -10    3.70    0.90 
   0   3 -10    5.30    1.00 
  -3   0 -10    5.10    1.20 
   0  -3 -10    4.30    1.10 
   0   3 -10    6.90    1.00 
  -3   0  10    5.10    1.10 
   0  -3  10    5.10    1.20 
   0   3  10    6.00    1.20 
   3   0  10    5.40    0.90 
   0  -3  10    5.60    1.00 
   3   0  10    6.10    1.30 
  -3   0  10    5.40    1.00 
   0   3  10    7.40    1.10 
   1   3 -10   38.70    4.00 
   3  -1 -10   35.10    4.00 
   1   3 -10   35.60    4.30 
  -3   1 -10   40.40    4.20 
  -1  -3 -10   36.80    4.20 
  -1  -3 -10   38.70    4.00 
  -3   1 -10   37.00    4.00 
  -1  -3  10   40.60    4.00 
   1   3  10   39.60    4.00 
   3  -1  10   36.60    4.00 
  -3   1  10   36.10    4.00 
  -1  -3  10   34.90    4.20 
  -3   1  10   38.90    4.10 
   1   3  10   36.40    4.20 
   3  -1  10   31.30    4.20 
  -3   2 -10    5.40    1.20 
  -2  -3 -10    7.00    1.10 
   2   3 -10    6.00    1.00 
  -3   2 -10    4.90    1.00 
   3  -2 -10    4.00    0.90 
  -2  -3 -10    7.40    1.40 
   2   3  10    7.30    1.30 
   3  -2  10    5.30    1.30 
   3  -2  10    6.20    1.00 
  -2  -3  10    7.00    1.30 
  -3   2  10    6.80    1.10 
  -3   2  10    9.10    1.30 
   2   3  10    5.50    1.00 
  -2  -3  10    6.50    1.10 
  -3   3 -10    6.60    1.30 
  -3  -3 -10    8.20    1.20 
   3  -3 -10    8.10    1.20 
  -3  -3 -10    8.40    1.60 
   3   3 -10    8.00    1.10 
   3  -3  10    6.60    1.40 
   3   3  10    8.20    1.10 
  -3   3  10    9.00    1.30 
  -3  -3  10    5.50    1.20 
  -3   3  10    7.10    1.30 
   3  -3  10    6.80    1.10 
  -3  -3  10    7.10    1.20 
   3   3  10    6.60    1.30 
   3  -4 -10    4.40    1.50 
  -4  -3 -10    2.70    1.20 
  -3   4 -10    5.40    1.10 
  -4  -3 -10    5.40    1.00 
  -3   4  10    4.90    1.00 
  -3   4  10    4.90    1.70 
   4   3  10    5.20    0.90 
   3  -4  10    5.00    1.10 
  -4  -3  10    4.40    1.00 
   3  -4  10    5.40    0.90 
  -4  -3  10    5.10    1.10 
   4   2 -10    8.50    1.30 
  -4  -2 -10   10.30    1.40 
   2  -4 -10    6.80    1.40 
  -4  -2 -10    7.10    1.80 
  -2   4 -10    9.30    1.40 
   2  -4 -10   11.80    1.40 
   4   2  10    9.40    1.30 
  -2   4  10   10.20    1.40 
  -2   4  10    8.50    1.50 
  -4  -2  10   10.60    1.40 
   2  -4  10    8.50    1.50 
  -4  -2  10    8.40    1.50 
   2  -4  10    8.60    1.30 
   4   2  10    9.20    1.60 
   1  -4 -10  105.99   11.50 
  -4  -1 -10  116.49   11.40 
   4   1 -10  113.09   11.40 
  -4  -1 -10  122.69   11.70 
   1  -4 -10  115.39   11.60 
  -1   4 -10  110.09   11.40 
  -1   4  10  101.19   11.50 
  -4  -1  10  109.69   11.40 
   1  -4  10   93.29   11.50 
   4   1  10  108.69   11.60 
   4   1  10  133.59   11.70 
   1  -4  10  104.39   11.40 
  -1   4  10  110.29   11.40 
  -4  -1  10  118.99   11.50 
  -4   0 -10   15.50    2.10 
  -4   0 -10   13.90    1.70 
   0  -4 -10   15.70    1.90 
   0   4 -10   12.80    1.60 
   4   0 -10   11.30    1.60 
   0  -4 -10   13.00    1.80 
   0  -4  10   11.60    2.00 
   0  -4  10   13.10    1.70 
   0   4  10   13.60    1.70 
  -4   0  10   13.50    1.80 
  -4   0  10   14.80    1.80 
   0   4  10   11.70    1.90 
  -4   1 -10  114.39   11.60 
  -1  -4 -10  114.09   11.80 
   4  -1 -10  113.19   11.60 
  -4   1 -10  122.99   11.80 
  -1  -4 -10  106.19   11.60 
   1   4 -10  110.99   11.60 
  -4   1  10  114.59   11.60 
   1   4  10  104.99   11.70 
   1   4  10  113.29   11.60 
  -1  -4  10  112.99   11.60 
  -1  -4  10   98.89   11.70 
   4  -1  10  118.69   11.80 
  -4   1  10  118.99   11.70 
   4  -1  10  116.99   11.60 
  -4   2 -10   10.40    1.70 
   4  -2 -10    8.70    1.30 
  -2  -4 -10    8.90    1.70 
  -2  -4 -10    9.50    1.40 
  -4   2  10   10.10    1.50 
  -2  -4  10    8.20    1.30 
   4  -2  10    8.30    1.20 
  -4   2  10   12.30    1.60 
   2   4  10    9.50    1.40 
   2   4  10   10.60    1.70 
   4  -2  10    6.30    1.50 
  -2  -4  10    8.30    1.50 
  -3  -4 -10    4.20    1.40 
  -3  -4 -10    5.80    1.00 
  -4   3 -10    3.90    1.10 
   3   4  10    5.70    0.90 
  -4   3  10    5.70    1.50 
  -4   3  10    4.60    1.00 
   4  -3  10    3.90    1.10 
  -3  -4  10    5.80    1.10 
  -3  -4  10    4.40    1.00 
   4  -3  10    4.40    0.80 
   4  -4 -10    2.50    0.80 
  -4  -4 -10    1.60    0.80 
  -4  -4 -10    5.50    1.40 
  -4   4 -10    4.30    1.10 
   4   4  10    3.30    1.10 
   4   4  10    1.80    0.70 
  -4  -4  10    3.10    0.90 
  -4   4  10    4.10    1.00 
  -4  -4  10    3.90    1.00 
   4  -4  10    6.10    1.10 
  -4   4  10    2.80    0.90 
   4  -4  10    3.40    0.80 
  -5  -4 -10   66.49    6.80 
  -5  -4 -10   58.39    6.40 
  -4   5 -10   62.29    6.50 
   4  -5 -10   56.89    6.40 
   4  -5  10   66.79    6.50 
   5   4  10   60.99    6.30 
  -5  -4  10   55.89    6.50 
   5   4  10   57.29    6.50 
  -5  -4  10   61.09    6.50 
   4  -5  10   62.89    6.40 
  -4   5  10   61.19    6.50 
  -4   5  10   61.19    6.40 
   3  -5 -10   57.79    6.50 
   5   3 -10   61.59    6.40 
  -3   5 -10   57.59    6.40 
  -5  -3 -10   66.09    6.40 
  -5  -3 -10   65.09    6.80 
   5   3  10   67.29    6.40 
  -3   5  10   55.19    6.50 
  -3   5  10   68.39    6.50 
   3  -5  10   60.19    6.40 
  -5  -3  10   65.49    6.50 
  -5  -3  10   61.49    6.50 
   5   3  10   58.39    6.60 
   3  -5  10   49.99    6.40 
  -2   5 -10  167.28   17.60 
   5   2 -10  181.68   18.00 
   2  -5 -10  182.78   17.80 
   2  -5 -10  170.38   17.70 
  -5  -2 -10  170.18   17.60 
  -5  -2 -10  171.98   17.90 
  -2   5  10  181.58   17.70 
   2  -5  10  177.48   17.70 
   5   2  10  171.98   17.60 
  -5  -2  10  162.18   17.70 
  -5  -2  10  168.38   17.70 
   2  -5  10  174.38   17.70 
   5   2  10  166.18   17.80 
  -5  -1 -10  104.09   10.80 
  -5  -1 -10  106.59   11.20 
   1  -5 -10   98.29   11.00 
   1  -5 -10  103.79   11.00 
   5   1 -10   94.69   11.10 
  -5  -1  10  111.29   11.00 
   1  -5  10  111.39   10.90 
   5   1  10  111.39   10.80 
   1  -5  10   89.49   10.90 
   5   1  10   91.79   11.10 
  -1   5  10  126.29   11.40 
  -5  -1  10  109.49   10.90 
  -1   5  10  111.59   10.90 
   5   0 -10   24.60    3.50 
  -5   0 -10   29.90    3.40 
   0  -5 -10   30.90    3.50 
   0   5 -10   33.50    3.30 
   0  -5 -10   31.10    3.60 
  -5   0 -10   35.40    3.80 
   0  -5  10   32.00    3.60 
  -5   0  10   28.30    3.40 
   0   5  10   29.20    3.40 
  -5   0  10   30.20    3.50 
   0  -5  10   33.00    3.50 
   5   0  10   33.40    3.60 
   5   0  10   30.60    3.30 
   1   5 -10  103.99   10.60 
   5  -1 -10   87.69   11.00 
  -5   1 -10   96.99   10.90 
  -1  -5 -10  105.49   10.70 
  -5   1 -10   99.89   10.60 
  -1  -5 -10   98.09   10.80 
  -5   1  10   98.79   10.70 
  -1  -5  10  108.89   10.70 
   1   5  10  114.09   10.60 
   5  -1  10  109.59   10.60 
  -5   1  10  114.89   10.70 
   5  -1  10   92.19   10.80 
  -2  -5 -10  177.58   17.60 
   5  -2 -10  162.68   17.40 
  -2  -5 -10  173.48   17.40 
  -5   2 -10  165.28   17.50 
  -2  -5  10  173.68   17.40 
  -5   2  10  169.08   17.30 
   5  -2  10  158.68   17.50 
   2   5  10  175.78   17.40 
   5  -2  10  166.48   17.20 
  -2  -5  10  156.58   17.40 
   2   5  10  182.68   17.30 
  -3  -5 -10   59.19    6.40 
  -5   3 -10   61.09    6.60 
   5  -3 -10   58.39    6.30 
  -3  -5 -10   61.19    6.70 
  -3  -5  10   51.79    6.40 
  -5   3  10   64.49    6.40 
  -5   3  10   60.49    6.40 
   3   5  10   63.29    6.30 
   5  -3  10   55.49    6.50 
   5  -3  10   65.89    6.30 
  -3  -5  10   63.29    6.40 
   3   5  10   55.29    6.50 
  -4  -5 -10   61.99    6.50 
  -4  -5 -10   68.79    6.80 
  -5   4 -10   56.89    6.60 
   5  -4 -10   57.79    6.40 
  -5   4  10   58.29    6.50 
  -5   4  10   60.69    6.50 
   4   5  10   64.19    6.40 
   4   5  10   60.49    6.60 
   5  -4  10   61.49    6.40 
   5  -4  10   58.79    6.50 
  -4  -5  10   64.89    6.50 
  -4  -5  10   60.29    6.50 
  -5  -5 -10   18.60    2.60 
  -5  -5 -10   17.10    2.10 
   5  -5 -10   15.40    2.10 
  -5   5 -10   14.80    2.20 
   5   5  10   17.70    2.00 
  -5  -5  10   16.90    2.20 
  -5  -5  10   14.40    2.10 
   5   5  10   17.30    2.20 
  -5   5  10   17.40    2.20 
   5  -5  10   14.20    2.00 
   5  -5  10   13.60    1.90 
  -5   5  10   15.70    2.10 
  -6  -5 -10   55.89    5.60 
  -6  -5 -10   48.30    5.00 
  -5   6 -10   46.50    5.10 
   5  -6  10   44.00    4.90 
  -6  -5  10   45.80    5.00 
   6   5  10   47.90    4.90 
  -6  -5  10   47.80    5.10 
  -5   6  10   42.50    5.00 
   5  -6  10   43.50    4.90 
   4  -6 -10   17.10    2.30 
  -4   6 -10   18.00    2.20 
  -6  -4 -10   21.80    3.00 
  -6  -4 -10   16.10    2.10 
   4  -6  10   16.10    2.10 
  -4   6  10   17.00    2.20 
  -6  -4  10   17.10    2.30 
   6   4  10   20.80    2.10 
  -4   6  10   14.70    2.10 
   6   4  10   16.20    2.30 
   4  -6  10   16.80    2.10 
  -6  -4  10   18.20    2.30 
  -3   6 -10   25.20    3.10 
   3  -6 -10   27.00    3.30 
  -6  -3 -10   29.60    3.80 
  -6  -3 -10   29.70    3.10 
   6   3 -10   24.20    3.10 
  -6  -3  10   29.20    3.30 
   6   3  10   31.70    3.00 
   6   3  10   29.00    3.30 
   3  -6  10   28.90    3.20 
   3  -6  10   25.80    3.10 
  -3   6  10   25.70    3.20 
  -6  -3  10   24.90    3.20 
  -3   6  10   31.50    3.20 
   2  -6 -10    7.30    1.50 
   2  -6 -10    5.70    1.30 
  -6  -2 -10    8.40    1.20 
  -6  -2 -10   11.00    2.10 
   2  -6  10    9.50    1.30 
  -6  -2  10    7.10    1.30 
  -2   6  10    5.70    1.30 
  -2   6  10    9.00    1.40 
  -6  -2  10    6.90    1.40 
   6   2  10    7.10    1.10 
   6   2  10    8.20    1.60 
   2  -6  10    8.00    1.30 
  -6  -1 -10   74.49    7.50 
   1  -6 -10   61.99    7.20 
  -6  -1 -10   69.99    7.00 
   1  -6 -10   63.79    7.10 
  -1   6 -10   64.19    6.90 
   6   1 -10   64.69    7.00 
   6   1  10   69.59    6.90 
   6   1  10   69.39    7.20 
   1  -6  10   69.49    7.10 
  -1   6  10   62.59    7.10 
  -1   6  10   67.09    7.00 
  -6  -1  10   71.29    7.20 
  -6  -1  10   72.79    7.10 
   1  -6  10   60.49    7.00 
   6   0 -10   32.40    3.90 
  -6   0 -10   46.20    4.50 
   0  -6 -10   28.50    4.10 
   0   6 -10   36.40    3.80 
   0  -6 -10   42.00    4.30 
  -6   0 -10   35.60    3.90 
   0  -6  10   39.10    4.00 
   0  -6  10   35.70    4.00 
  -6   0  10   34.20    4.00 
  -6   0  10   32.40    3.90 
   0   6  10   37.60    3.90 
   0   6  10   37.00    4.00 
   6   0  10   32.50    3.80 
   6   0  10   41.40    4.20 
  -1  -6 -10   65.09    7.00 
   6  -1 -10   68.69    6.90 
  -1  -6 -10   69.69    7.20 
  -6   1 -10   77.49    7.30 
  -6   1  10   67.99    7.00 
  -6   1  10   66.49    7.20 
   1   6  10   63.39    6.90 
  -1  -6  10   67.19    7.00 
   1   6  10   60.09    7.00 
   6  -1  10   67.89    6.80 
  -1  -6  10   56.69    7.00 
  -2  -6 -10   10.00    1.80 
  -6   2 -10    7.90    1.70 
  -2  -6 -10    8.80    1.50 
   6  -2 -10    8.80    1.40 
   6  -2  10    8.90    1.20 
  -6   2  10   10.00    1.60 
   6  -2  10   10.80    1.70 
  -6   2  10    7.70    1.40 
   2   6  10    6.80    1.40 
  -2  -6  10   10.90    1.60 
  -2  -6  10    8.10    1.50 
   2   6  10    6.10    1.30 
  -3  -6 -10   27.30    3.30 
  -3  -6 -10   22.80    3.60 
  -6   3 -10   27.40    3.50 
   6  -3 -10   28.80    3.10 
  -6   3  10   28.50    3.20 
   3   6  10   25.40    3.30 
   6  -3  10   31.40    3.00 
  -3  -6  10   27.80    3.20 
   3   6  10   30.00    3.10 
   6  -3  10   26.80    3.30 
  -3  -6  10   23.10    3.20 
  -6   3  10   29.20    3.30 
  -4  -6 -10   19.00    2.40 
  -6   4 -10   21.30    3.00 
  -4  -6 -10   19.30    2.70 
   6  -4 -10   18.10    2.10 
   4   6  10   17.10    2.30 
   4   6  10   18.80    2.10 
  -6   4  10   15.10    2.20 
  -4  -6  10   16.70    2.30 
   6  -4  10   16.60    2.30 
   6  -4  10   16.00    2.00 
  -6   4  10   16.10    2.30 
  -4  -6  10   15.90    2.20 
  -5  -6 -10   47.20    5.10 
  -5  -6 -10   50.79    5.50 
  -6   5 -10   51.09    5.30 
   6  -5 -10   41.80    5.00 
  -6   5  10   45.00    5.00 
   5   6  10   44.30    4.90 
   5   6  10   49.10    5.20 
  -5  -6  10   45.60    5.10 
  -5  -6  10   42.40    5.00 
   6  -5  10   50.29    5.10 
   6  -5  10   47.90    4.90 
  -6  -6 -10    0.20    1.40 
  -6   6 -10    3.00    1.10 
  -6  -6 -10    0.50    0.90 
  -6  -6  10    1.90    0.90 
   6  -6  10    0.60    0.60 
   6  -6  10    1.20    0.70 
  -6  -6  10    1.00    0.90 
   6   6  10    2.80    0.80 
  -6   6  10    1.80    1.00 
  -6   7 -10   93.09   10.30 
  -7  -6 -10   92.19   10.90 
  -7  -6 -10  102.39   10.30 
   7   6  10  102.79   10.20 
   6  -7  10  103.89   10.20 
  -7  -6  10   88.19   10.20 
  -6   7  10  116.99   11.00 
  -7  -6  10   92.39   10.30 
  -7  -5 -10   34.20    3.30 
  -5   7 -10   27.60    3.30 
  -7  -5 -10   30.80    3.90 
   7   5  10   31.00    3.10 
  -7  -5  10   27.30    3.40 
   5  -7  10   29.10    3.20 
   5  -7  10   21.60    3.10 
  -5   7  10   32.10    3.30 
  -7  -5  10   23.70    3.20 
  -7  -4 -10    4.10    1.60 
  -4   7 -10    3.60    1.00 
  -7  -4 -10    4.40    0.90 
  -7  -4  10    5.50    1.20 
  -4   7  10    6.00    1.20 
   4  -7  10    5.10    1.00 
   7   4  10    6.00    0.90 
   4  -7  10    3.10    0.80 
  -7  -4  10    4.90    1.20 
  -3   7 -10   16.20    2.10 
  -7  -3 -10   20.70    2.20 
   7   3 -10   19.10    2.20 
  -7  -3 -10   22.90    3.00 
   3  -7 -10   16.50    2.60 
  -3   7  10   20.10    2.40 
  -7  -3  10   19.80    2.40 
  -3   7  10   17.10    2.30 
   7   3  10   22.00    2.20 
   7   3  10   12.80    2.50 
  -7  -3  10   18.60    2.40 
   3  -7  10   13.70    2.10 
  -7  -2 -10   44.20    5.00 
  -2   7 -10   39.40    4.30 
  -7  -2 -10   40.30    4.30 
   7   2 -10   39.90    4.30 
   2  -7 -10   39.20    4.50 
   2  -7  10   38.50    4.30 
   7   2  10   42.70    4.60 
  -7  -2  10   40.50    4.50 
  -2   7  10   41.90    4.50 
  -7  -2  10   41.70    4.50 
   7   2  10   32.20    4.40 
  -2   7  10   43.80    4.50 
   2  -7  10   43.50    4.50 
   1  -7 -10   20.90    2.70 
  -1   7 -10   21.50    2.40 
   1  -7 -10   26.00    2.90 
   7   1 -10   20.70    2.50 
  -7  -1 -10   22.50    2.50 
  -7  -1 -10   26.20    3.30 
  -7  -1  10   20.90    3.70 
  -7  -1  10   21.60    2.60 
   7   1  10   18.20    2.40 
   1  -7  10   22.50    2.60 
  -1   7  10   20.30    2.60 
  -1   7  10   22.10    2.60 
   1  -7  10   20.90    2.60 
   7   1  10   20.40    2.70 
   7   0 -10   21.50    2.60 
   0  -7 -10   28.00    3.20 
   0  -7 -10   20.60    2.90 
  -7   0 -10   25.00    3.20 
   0  -7  10   25.30    2.80 
   7   0  10   21.60    2.90 
   0   7  10   23.10    2.70 
  -7   0  10   24.70    2.80 
   0  -7  10   23.40    2.60 
   0   7  10   23.60    2.80 
  -7   0  10   21.00    2.90 
  -7   1 -10   24.00    3.20 
  -1  -7 -10   20.40    2.80 
   7  -1 -10   22.80    2.50 
  -1  -7 -10   21.20    3.00 
   1   7  10   20.90    2.70 
   7  -1  10   23.20    2.40 
   1   7  10   21.10    2.60 
  -7   1  10   24.70    2.70 
  -7   1  10   27.10    2.80 
  -1  -7  10   22.90    2.70 
   7  -1  10   17.70    2.70 
  -1  -7  10   17.30    2.50 
  -2  -7 -10   44.50    5.00 
   7  -2 -10   38.90    4.60 
  -2  -7 -10   45.50    5.00 
  -7   2 -10   43.50    5.10 
   2   7  10   43.60    4.60 
  -2  -7  10   44.30    4.70 
   7  -2  10   44.10    4.50 
  -7   2  10   39.30    4.70 
  -2  -7  10   41.20    4.60 
  -7   2  10   42.60    4.70 
   7  -2  10   43.70    4.90 
   2   7  10   45.10    4.80 
  -7   3 -10   19.50    2.80 
   7  -3 -10   16.10    2.10 
  -3  -7 -10   14.90    2.70 
  -3  -7 -10   16.30    2.60 
  -3  -7  10   13.10    2.20 
   7  -3  10   19.70    2.10 
   7  -3  10   18.30    2.50 
   3   7  10   16.10    2.40 
  -3  -7  10   19.10    2.40 
  -7   3  10   23.30    2.40 
  -7   3  10   18.10    2.50 
  -4  -7 -10    5.10    1.60 
   7  -4 -10    4.30    1.00 
  -4  -7 -10    5.00    1.30 
  -4  -7  10    5.80    1.50 
  -4  -7  10    4.10    1.20 
   4   7  10    4.10    1.20 
   7  -4  10    4.70    0.80 
   7  -4  10    4.00    1.10 
   4   7  10    4.70    1.00 
  -7   4  10    5.00    1.20 
  -5  -7 -10   32.00    3.60 
  -7   5 -10   29.60    3.60 
  -5  -7 -10   33.80    4.00 
   7  -5  10   26.00    3.70 
  -5  -7  10   32.00    3.50 
  -5  -7  10   27.20    3.30 
   7  -5  10   27.40    3.20 
   5   7  10   31.10    3.30 
  -7   5  10   28.60    3.40 
  -7   6 -10   94.19   10.80 
  -6  -7 -10  105.79   11.00 
  -6  -7 -10  112.49   10.80 
  -7   6  10  100.49   10.70 
  -6  -7  10   93.89   10.60 
  -6  -7  10  107.09   10.80 
   6   7  10  109.99   10.60 
   7  -6  10   97.39   10.60 
  -7  -7 -10   31.70    3.50 
  -7   7 -10   27.10    3.50 
  -7  -7 -10   28.80    3.80 
   7   7  10   29.40    3.30 
   7  -7  10   29.10    3.30 
  -7   7  10   28.70    3.40 
  -7  -7  10   24.00    4.20 
  -7  -7  10   28.90    3.30 
  -8  -7 -10    1.40    1.50 
  -8  -7 -10    5.00    1.20 
  -7   8 -10    3.20    1.10 
   7  -8  10    4.20    1.00 
   7  -8  10    2.70    0.80 
  -8  -7  10    2.00    1.10 
  -7   8  10    3.00    1.00 
  -8  -7  10    2.50    1.00 
   8   7  10    4.10    0.90 
  -8  -6 -10   61.49    6.90 
  -6   8 -10   63.09    6.40 
  -8  -6 -10   66.39    6.40 
  -8  -6  10   56.39    6.40 
  -6   8  10   55.19    6.40 
   6  -8  10   52.99    6.20 
  -8  -6  10   56.49    6.50 
   6  -8  10   58.49    6.40 
   8   6  10   67.39    6.30 
  -5   8 -10   25.50    3.00 
  -8  -5 -10   35.80    5.20 
  -8  -5 -10   31.00    3.00 
  -8  -5  10   26.20    3.20 
   5  -8  10   27.10    3.10 
   5  -8  10   20.60    2.90 
   8   5  10   29.70    3.00 
  -5   8  10   24.70    3.10 
  -8  -5  10   26.10    3.20 
  -8  -4 -10    6.00    1.00 
  -4   8 -10    5.50    1.00 
  -8  -4 -10    9.10    2.00 
  -8  -4  10    6.80    1.30 
  -4   8  10    5.40    1.20 
   4  -8  10    4.20    0.80 
  -8  -4  10    4.70    1.10 
   4  -8  10    4.50    1.10 
  -8  -3 -10    7.90    2.00 
   8   3 -10    6.60    1.20 
  -8  -3 -10    9.80    1.30 
  -3   8 -10    7.80    1.20 
   3  -8  10    7.70    1.40 
   3  -8  10    7.10    1.10 
  -8  -3  10   10.00    2.50 
   8   3  10    8.50    1.10 
  -3   8  10    6.40    1.30 
  -8  -3  10    7.70    1.40 
  -8  -2 -10  112.89   11.10 
  -8  -2 -10  106.19   10.60 
  -2   8 -10  100.49   10.50 
  -2   8  10   98.59   11.10 
   2  -8  10  101.59   10.60 
  -2   8  10  100.59   10.70 
   2  -8  10  103.19   10.70 
   8   2  10  102.39   10.50 
  -8  -2  10  109.89   10.70 
  -8  -2  10   93.69   10.70 
   1  -8 -10   67.29    7.40 
  -8  -1 -10   71.69    7.10 
   1  -8 -10   62.99    6.80 
  -1   8 -10   59.99    6.40 
   8   1 -10   66.89    6.70 
   8   1  10   66.49    6.40 
  -8  -1  10   66.49    6.80 
   1  -8  10   60.19    6.70 
  -1   8  10   54.69    6.60 
   1  -8  10   52.59    6.40 
  -8  -1  10   66.69    6.70 
   8   0 -10   26.30    2.90 
   0  -8 -10   29.40    3.30 
  -8   0 -10   31.70    3.70 
   0  -8 -10   23.20    3.20 
  -8   0  10   22.50    3.00 
   0  -8  10   22.60    3.00 
   8   0  10   35.50    3.60 
   8   0  10   24.20    2.70 
  -8   0  10   25.10    3.20 
   0   8  10   24.20    2.90 
   0  -8  10   25.20    2.70 
   0   8  10   24.50    3.00 
  -1  -8 -10   57.39    6.70 
  -8   1 -10   71.79    7.00 
  -1  -8 -10   65.69    6.90 
   8  -1 -10   64.89    6.50 
  -1  -8  10   61.19    6.60 
   8  -1  10   61.99    6.40 
  -8   1  10   69.09    6.70 
  -1  -8  10   57.19    6.40 
   8  -1  10   63.39    6.80 
  -8   1  10   60.99    6.60 
   1   8  10   56.99    6.50 
   1   8  10   58.09    6.60 
  -2  -8 -10   98.99   10.80 
  -8   2 -10  113.49   11.10 
  -2  -8 -10  124.09   11.10 
   8  -2 -10  100.19   10.60 
  -2  -8  10   99.29   10.50 
  -8   2  10   95.59   10.70 
   2   8  10  101.09   10.70 
   8  -2  10  107.89   10.90 
   2   8  10  102.69   10.70 
   8  -2  10   99.09   10.50 
  -2  -8  10  101.19   10.80 
  -3  -8 -10   10.70    2.10 
  -3  -8 -10    9.80    1.80 
   8  -3 -10    8.00    1.40 
  -8   3 -10    6.50    1.80 
  -8   3  10    7.60    1.50 
   8  -3  10    7.20    1.60 
  -3  -8  10   10.20    1.30 
   3   8  10   10.60    1.50 
   8  -3  10    7.80    1.20 
  -3  -8  10    8.50    1.50 
  -4  -8 -10    9.40    1.60 
  -4  -8 -10   10.00    2.00 
   8  -4  10    7.20    1.30 
   4   8  10    4.50    1.10 
  -4  -8  10    6.80    1.50 
   8  -4  10    5.10    1.00 
  -8   4  10    7.40    1.40 
  -5  -8 -10   28.20    3.60 
  -8   5 -10   28.10    3.50 
   8  -5  10   22.60    3.10 
  -5  -8  10   21.50    3.30 
   8  -5  10   27.70    2.90 
  -8   5  10   27.40    3.10 
   5   8  10   29.70    3.10 
  -8   6 -10   62.79    6.70 
  -6  -8 -10   56.29    7.80 
  -6  -8 -10   60.99    6.60 
  -6  -8  10   60.59    6.60 
   8  -6  10   54.39    6.40 
  -6  -8  10   60.29    6.30 
   8  -6  10   61.99    6.30 
  -8   6  10   50.09    6.50 
   6   8  10   66.89    6.30 
  -7  -8 -10    4.00    1.30 
  -8   7 -10    3.10    1.30 
  -7  -8 -10    4.40    1.70 
   8  -7  10    4.40    0.90 
  -8   7  10    3.00    1.20 
  -7  -8  10    2.50    1.10 
  -7  -8  10    4.70    1.00 
   7   8  10    3.50    1.00 
   8  -7  10    2.40    0.80 
  -8  -8 -10    1.10    1.00 
  -8   8 -10   -0.40    1.00 
   8   8  10    0.40    0.70 
   8  -8  10    0.50    0.60 
   8  -8  10    0.10    0.70 
  -8  -8  10    0.20    0.70 
  -8   8  10    1.10    1.00 
  -8  -8  10   -0.20    0.90 
  -9  -8 -10    4.60    1.70 
  -9  -8 -10    4.90    1.20 
  -8   9 -10    4.10    1.30 
  -9  -8  10    6.00    1.10 
   8  -9  10    4.80    1.10 
  -9  -8  10    4.10    0.80 
  -9  -8  10    4.20    1.30 
  -8   9  10    5.60    1.40 
  -9  -7 -10    0.50    1.50 
  -9  -7 -10    0.70    0.80 
  -7   9 -10    0.50    0.90 
  -9  -7  10    0.90    0.90 
   7  -9  10    1.80    0.90 
   9   7  10    0.90    0.70 
  -9  -7  10    0.20    0.90 
  -7   9  10   -0.60    0.80 
  -6   9 -10    1.90    0.90 
  -9  -6 -10    1.80    1.50 
  -9  -6 -10    1.40    0.70 
  -6   9  10    1.20    1.00 
  -9  -6  10    0.80    0.90 
   9   6  10    0.80    0.70 
   6  -9  10    0.90    0.80 
  -9  -5 -10   10.60    2.00 
  -5   9 -10    9.50    1.40 
  -9  -5 -10    9.00    1.30 
  -9  -5  10    8.50    1.60 
   5  -9  10    8.70    1.20 
  -9  -5  10   10.80    2.50 
  -5   9  10    8.30    1.50 
   9   5  10    7.80    1.50 
   5  -9  10    6.70    1.50 
  -4   9 -10   10.90    1.50 
  -9  -4 -10   12.10    2.30 
  -9  -4 -10   11.60    1.60 
  -4   9  10   11.00    1.80 
   4  -9  10   10.50    1.40 
  -9  -4  10   13.30    1.90 
  -9  -4  10   11.90    1.80 
   4  -9  10   12.30    1.80 
   9   4  10   12.40    1.50 
  -9  -3 -10    5.60    1.60 
  -3   9 -10    3.60    0.70 
   9   3 -10    4.20    1.30 
   3  -9  10    2.30    0.60 
   3  -9  10    3.70    1.00 
  -9  -3  10    4.20    1.10 
   9   3  10    4.80    0.70 
  -3   9  10    4.30    1.10 
  -9  -3  10    3.40    1.00 
   9   2 -10    9.30    1.40 
  -2   9 -10    7.80    1.20 
  -2   9  10   12.60    2.30 
  -9  -2  10   11.20    1.60 
   9   2  10   11.10    1.30 
  -9  -2  10    8.80    1.60 
   2  -9  10   10.60    1.70 
  -9  -1 -10   14.50    2.80 
   1  -9 -10   14.40    2.40 
  -1   9 -10   14.30    1.50 
   9   1 -10   14.30    1.80 
   1  -9  10   14.50    2.10 
   1  -9  10   11.30    1.50 
  -9  -1  10   12.70    2.00 
   9   1  10   14.80    1.60 
  -1   9  10   15.20    2.00 
  -9  -1  10   11.00    2.00 
   0  -9 -10   44.30    4.80 
   9   0 -10   37.40    4.40 
  -9   0 -10   35.30    4.80 
   0  -9  10   43.70    4.60 
   0   9  10   47.00    4.50 
  -9   0  10   41.60    4.50 
   9   0  10   43.30    4.20 
   0  -9  10   35.80    4.20 
  -9   1 -10   12.60    2.50 
   9  -1 -10   12.00    1.80 
  -1  -9 -10   16.00    2.60 
  -9   1  10   12.80    1.90 
   9  -1  10   15.00    1.60 
   1   9  10   14.50    2.00 
  -1  -9  10   17.40    2.90 
  -1  -9  10   12.10    1.50 
  -2  -9 -10    8.00    1.90 
  -9   2 -10   10.80    2.10 
  -2  -9 -10    8.70    2.50 
  -9   2  10   11.30    1.60 
   9  -2  10    9.90    1.30 
   2   9  10   11.90    1.60 
  -2  -9  10    6.10    0.90 
  -3  -9 -10    2.00    1.30 
  -9   3 -10    2.90    1.50 
  -3  -9 -10    2.40    1.20 
  -3  -9  10    5.80    1.30 
  -3  -9  10    3.10    0.60 
  -9   3  10    5.50    1.20 
   9  -3  10    4.70    0.70 
   3   9  10    2.90    1.00 
  -4  -9 -10   14.90    2.20 
  -4  -9 -10   11.10    2.30 
  -4  -9  10   11.60    2.00 
   4   9  10   14.30    1.90 
   9  -4  10   12.80    1.60 
  -4  -9  10   13.00    1.50 
  -9   4  10   12.60    1.90 
  -5  -9 -10   11.80    2.00 
  -9   5 -10    8.30    2.00 
  -5  -9 -10    8.20    3.10 
  -5  -9  10    8.10    1.70 
  -5  -9  10    9.00    1.30 
  -9   5  10   11.40    2.50 
   5   9  10    9.50    1.50 
   9  -5  10   10.40    1.30 
  -9   6 -10    0.90    1.10 
  -6  -9 -10    2.10    1.40 
  -6  -9 -10    1.20    1.20 
  -6  -9  10    1.00    0.60 
  -6  -9  10    0.70    1.00 
   6   9  10    1.20    0.90 
  -9   6  10    0.90    1.00 
   9  -6  10    1.00    0.60 
  -7  -9 -10    0.00    1.20 
  -7  -9 -10    0.60    1.20 
  -9   7 -10    0.00    1.10 
  -7  -9  10    1.60    0.60 
  -7  -9  10   -0.30    0.40 
   7   9  10    1.20    0.80 
   9  -7  10    1.30    0.70 
  -9   7  10    0.10    0.90 
  -7  -9  10   -0.60    1.00 
  -8  -9 -10    4.70    1.70 
  -9   8 -10    5.20    1.50 
  -8  -9  10    3.90    1.00 
   9  -8  10    5.30    1.10 
  -9   8  10    5.70    1.30 
  -8  -9  10    5.60    0.80 
  -8  -9  10    5.30    1.40 
  -9   9 -10    1.30    1.10 
  -9  -9 -10    1.50    1.20 
  -9  -9 -10    1.50    1.40 
   9  -9  10    2.30    0.90 
  -9  -9  10    0.70    0.50 
  -9  -9  10    1.50    1.10 
  -9  -9  10    1.40    0.80 
  -9  10 -10    5.50    1.50 
 -10  -9 -10    9.80    1.50 
 -10  -9 -10    5.00    1.80 
   9 -10  10   10.40    1.60 
 -10  -9  10    5.70    1.50 
  -9  10  10    5.00    1.40 
 -10  -9  10    5.70    1.00 
 -10  -9  10    6.80    1.20 
 -10  -8 -10   28.40    4.80 
  -8  10 -10   21.80    2.90 
 -10  -8 -10   23.60    2.90 
 -10  -8  10   22.60    3.10 
  -8  10  10   24.70    3.10 
 -10  -8  10   24.20    2.90 
 -10  -8  10   23.70    2.70 
   8 -10  10   24.60    2.90 
  -7  10 -10   13.70    1.90 
 -10  -7 -10   14.30    2.60 
 -10  -7 -10   14.10    1.80 
 -10  -7  10   14.20    2.20 
   7 -10  10   11.60    1.90 
 -10  -7  10   11.70    2.10 
 -10  -7  10   11.50    1.60 
 -10  -6 -10    9.20    1.50 
 -10  -6 -10   12.10    2.40 
  -6  10 -10   11.00    1.60 
  -6  10  10    9.90    1.80 
   6 -10  10   12.10    1.80 
 -10  -6  10   12.80    1.80 
 -10  -6  10    8.50    1.80 
  -5  10 -10   56.49    6.20 
 -10  -5 -10   65.29    6.80 
  -5  10  10   54.89    6.40 
 -10  -5  10   62.29    6.40 
   5 -10  10   61.59    6.50 
 -10  -4 -10   22.40    2.50 
  -4  10 -10   19.70    2.50 
 -10  -4 -10   23.30    3.20 
 -10  -4  10   20.50    2.80 
  -4  10  10   24.90    2.90 
  10   4  10   25.90    2.50 
   4 -10  10   23.30    2.90 
 -10  -4  10   21.50    2.80 
 -10  -3 -10    1.20    1.40 
  -3  10 -10    1.80    0.50 
  10   3  10    2.70    0.60 
 -10  -3  10    2.70    1.00 
 -10  -3  10    3.30    1.20 
   3 -10  10    2.60    1.00 
  -3  10  10    0.80    1.00 
 -10  -2 -10   12.10    2.20 
  -2  10 -10    6.20    0.90 
   2 -10  10    7.50    1.50 
  -2  10  10    6.30    1.30 
 -10  -2  10    7.60    1.50 
  10   2  10    7.20    1.00 
 -10  -1 -10   12.90    2.50 
   1 -10  10   14.40    2.10 
  10   1  10   13.30    1.50 
 -10  -1  10   10.30    1.90 
  -1  10  10   13.10    2.00 
   0 -10 -10   23.30    3.20 
 -10   0 -10   21.50    3.40 
   0  10  10   24.80    3.00 
 -10   0  10   20.00    2.80 
   0 -10  10   21.80    2.90 
  10   0  10   24.00    2.50 
 -10   1 -10    9.90    2.20 
  -1 -10 -10   12.50    2.40 
 -10   1  10   12.50    1.90 
   1  10  10   13.00    2.50 
  -1 -10  10   15.90    2.20 
  10  -1  10   12.40    1.50 
  -2 -10 -10   10.70    2.10 
 -10   2 -10    6.60    1.80 
   2  10  10    8.30    1.40 
  -2 -10  10    6.90    1.50 
  10  -2  10    6.40    1.00 
 -10   2  10    8.90    1.50 
 -10   3 -10    3.30    1.50 
   3  10  10    1.60    0.90 
  -3 -10  10    1.40    1.00 
 -10   3  10    1.10    0.90 
  -4 -10 -10   26.90    3.50 
  -4 -10  10   24.80    3.10 
  10  -4  10   23.50    2.70 
   4  10  10   24.20    2.90 
 -10   5 -10   72.99    8.30 
  -5 -10 -10   67.09    7.10 
  10  -5  10   69.59    6.50 
  -5 -10  10   53.39    6.30 
   5  10  10   59.79    6.60 
 -10   5  10   63.09    6.70 
  -6 -10 -10   12.40    2.30 
  -6 -10 -10    9.60    2.00 
  -6 -10  10   11.70    1.90 
  -6 -10  10    9.40    1.20 
  10  -6  10    8.40    1.40 
 -10   6  10    6.30    1.60 
   6  10  10   11.00    1.60 
  -6 -10  10   12.20    1.30 
  -7 -10 -10   12.20    2.30 
  -7 -10 -10   14.40    2.60 
  10  -7  10   13.50    1.80 
  -7 -10  10   13.40    1.60 
  -7 -10  10   15.70    2.30 
  -7 -10  10   11.90    1.50 
 -10   7  10   15.60    2.10 
  -8 -10 -10   28.40    3.40 
  -8 -10 -10   35.40    3.60 
  -8 -10  10   23.50    2.70 
  10  -8  10   26.10    2.90 
  -8 -10  10   23.10    2.80 
 -10   8  10   25.00    3.20 
  -8 -10  10   23.80    3.30 
  -9 -10 -10    3.50    1.90 
  -9 -10 -10    7.20    1.70 
  -9 -10  10    8.10    1.20 
 -10   9  10    5.70    1.60 
  10  -9  10    8.10    1.30 
  -9 -10  10    6.40    1.00 
 -10 -10 -10    7.90    1.90 
 -10 -10  10    6.00    1.50 
  10 -10  10    7.90    1.50 
 -10 -10  10    7.20    1.20 
 -10  10  10    5.00    1.50 
 -10 -10  10    8.20    1.10 
 -10  11 -10    5.00    2.30 
 -11 -10 -10    5.40    1.10 
 -11 -10 -10    6.40    1.80 
  10 -11  10    4.60    1.20 
 -10  11  10    4.00    1.40 
 -11 -10  10    2.80    1.30 
 -11 -10  10    2.80    0.80 
 -11 -10  10    2.90    0.70 
 -11  -9 -10    3.70    1.50 
  -9  11 -10    4.10    1.20 
 -11  -9 -10    6.10    1.10 
 -11  -9  10    3.70    0.80 
   9 -11  10    5.20    1.30 
 -11  -9  10    3.70    1.10 
  -9  11  10    1.50    1.20 
  -8  11 -10   35.20    3.90 
 -11  -8 -10   41.80    4.50 
 -11  -8 -10   34.90    3.80 
  -8  11  10   35.90    4.10 
 -11  -8  10   34.00    3.90 
   8 -11  10   37.40    4.10 
 -11  -8  10   38.00    4.20 
 -11  -8  10   27.20    3.70 
  -7  11 -10    2.90    0.90 
 -11  -7 -10    2.00    1.40 
 -11  -7 -10    2.20    0.80 
  -7  11  10    1.70    1.20 
 -11  -7  10    3.60    1.00 
 -11  -7  10    3.10    1.20 
 -11  -7  10    2.90    0.80 
   7 -11  10    4.30    1.20 
 -11  -6 -10    0.60    0.60 
 -11  -6 -10    1.70    1.60 
  -6  11 -10    0.30    0.60 
 -11  -6  10    1.10    0.90 
  -6  11  10    0.40    0.90 
 -11  -6  10    0.60    0.60 
 -11  -6  10    0.90    1.00 
   6 -11  10   -0.20    0.80 
 -11  -5 -10    4.60    2.90 
  -5  11 -10    4.80    0.90 
 -11  -5 -10    5.20    0.90 
 -11  -5  10    3.90    1.30 
   5 -11  10    5.70    1.30 
  -4  11 -10   49.80    5.40 
 -11  -4 -10   57.99    6.20 
  -4  11  10   49.50    5.70 
   4 -11  10   55.29    5.80 
  -3  11 -10    9.20    1.10 
 -11  -3 -10   10.10    2.20 
 -11  -3  10    9.30    1.70 
  -3  11  10    9.10    1.70 
   3 -11  10   11.50    1.80 
 -11  -2 -10    4.30    1.80 
   2 -11  10    6.40    1.40 
  11   2  10    5.90    0.80 
 -11  -2  10    6.90    1.40 
  -2  11  10    4.30    1.30 
 -11  -1 -10    6.70    2.00 
  11   1  10    9.80    1.10 
   1 -11  10    8.20    1.60 
 -11  -1  10    9.70    1.70 
  -1  11  10    7.10    1.60 
 -11   0 -10   30.80    4.30 
   0 -11 -10   40.90    4.30 
 -11   0  10   27.40    3.80 
   0  11  10   33.90    3.90 
   0 -11  10   31.60    3.90 
  11   0  10   35.00    3.50 
  -1 -11 -10    9.00    1.90 
 -11   1 -10    7.60    2.10 
   1  11  10    9.30    1.60 
  -1 -11  10    7.30    1.60 
  11  -1  10   10.20    1.10 
 -11   1  10    7.20    1.60 
 -11   2 -10    8.00    1.90 
  -2 -11 -10    5.10    1.70 
   2  11  10    4.40    1.50 
 -11   2  10    6.00    1.50 
  11  -2  10    5.60    0.80 
  -2 -11  10    5.30    1.50 
  -3 -11 -10   10.10    2.10 
 -11   3 -10    9.80    2.10 
   3  11  10    7.40    1.60 
  -3 -11  10    8.70    1.70 
 -11   3  10   10.50    1.90 
  11  -3  10   12.30    1.30 
  -4 -11 -10   64.59    6.80 
  -4 -11  10   58.39    6.50 
  11  -4  10   57.79    6.10 
 -11   4  10   61.39    6.40 
   4  11  10   53.79    6.50 
  -5 -11 -10    3.30    1.70 
 -11   5 -10    3.90    1.60 
  -5 -11  10    5.00    1.50 
   5  11  10    5.20    1.80 
  11  -5  10    6.00    0.90 
 -11   5  10    7.00    1.40 
 -11   6 -10   -0.60    1.20 
  -6 -11 -10    0.70    1.30 
  11  -6  10    1.10    0.60 
 -11   6  10    0.70    1.10 
  -7 -11 -10    4.00    1.60 
 -11   7 -10    2.90    1.50 
  11  -7  10    3.70    0.80 
 -11   7  10    1.30    1.10 
  -7 -11  10    4.10    1.50 
 -11   8 -10   34.90    4.40 
 -11   8  10   28.70    4.00 
  -8 -11  10   35.30    3.60 
  -8 -11  10   34.10    4.10 
  11  -8  10   39.70    3.90 
  -8 -11  10   33.10    3.60 
  -9 -11 -10    2.70    1.50 
  -9 -11 -10    2.00    1.60 
 -11   9 -10    2.70    1.40 
 -11   9  10    4.10    1.40 
  -9 -11  10    5.30    1.40 
  -9 -11  10    2.90    0.60 
  11  -9  10    5.80    1.10 
 -11  10 -10    1.70    1.30 
 -10 -11 -10    3.90    1.40 
 -10 -11 -10    1.90    1.50 
 -10 -11  10    4.00    0.80 
 -10 -11  10    2.40    1.20 
  11 -10  10    4.50    1.10 
 -10 -11  10    4.90    1.00 
 -11  10  10    3.70    1.40 
 -11  11 -10   -0.40    1.00 
 -11 -11 -10    1.90    1.30 
 -11 -11  10    0.80    1.10 
  11 -11  10    0.10    0.90 
 -11 -11  10    0.80    0.50 
 -11  11  10    0.10    1.40 
 -12 -10 -10   12.80    2.40 
 -12 -10  10   10.80    2.10 
  10 -12  10   14.20    2.00 
 -12 -10  10    8.90    1.40 
 -10  12  10    7.20    2.00 
  -9  12 -10    7.50    1.50 
 -12  -9 -10   12.00    2.20 
 -12  -9  10    8.80    1.40 
  -9  12  10    6.80    1.80 
 -12  -9  10   10.00    1.90 
   9 -12  10    9.00    1.90 
 -12  -9  10    7.30    1.20 
 -12  -8 -10    6.90    1.90 
  -8  12 -10    6.90    1.30 
  -8  12  10    7.30    1.60 
 -12  -8  10    7.10    1.70 
 -12  -8  10    6.30    1.10 
 -12  -7 -10    7.20    2.00 
 -12  -7 -10    6.40    0.90 
  -7  12 -10    4.20    1.00 
  -7  12  10    7.00    1.60 
 -12  -7  10    5.50    1.10 
 -12  -7  10    7.40    1.60 
  -6  12 -10    9.10    1.40 
 -12  -6 -10   14.40    2.50 
  -6  12  10   14.90    2.20 
 -12  -6  10   11.40    2.00 
 -12  -6  10   12.40    1.60 
  -5  12 -10    0.20    0.40 
 -12  -5 -10   -0.10    1.20 
   5 -12  10    1.90    1.20 
  -5  12  10    0.00    1.00 
 -12  -5  10    1.50    1.00 
 -12  -4 -10   13.10    2.40 
  -4  12 -10    9.90    1.30 
   4 -12  10   11.00    2.00 
 -12  -4  10   13.80    2.00 
  -4  12  10   13.70    2.10 
 -12  -3 -10   -0.10    1.40 
  -3  12  10   -0.40    1.00 
 -12  -3  10    0.30    1.10 
   3 -12  10    0.00    1.20 
   2 -12  10   19.10    2.60 
   1 -12  10   30.20    3.60 
  -1  12  10   24.40    3.30 
 -12   0 -10   24.30    3.60 
   0 -12  10   30.50    4.40 
   0  12  10   18.10    2.70 
  -1 -12 -10   28.40    3.90 
 -12   1 -10   30.40    4.00 
 -12   1  10   33.80    3.90 
   1  12  10   27.10    3.50 
  -2 -12 -10   17.80    2.80 
 -12   2 -10   16.60    2.80 
   2  12  10   11.70    2.10 
 -12   2  10   13.70    2.20 
  -2 -12  10   17.80    3.60 
  12  -2  10   15.20    1.60 
 -12   3 -10    0.90    1.30 
  -3 -12 -10    0.60    1.40 
  -3 -12  10    0.20    1.20 
   3  12  10   -0.30    0.80 
 -12   3  10    1.90    1.10 
  12  -3  10    0.80    0.50 
  -4 -12 -10   10.90    2.40 
 -12   4  10   15.50    2.20 
  12  -4  10   13.10    1.60 
  -4 -12  10   12.80    2.30 
   4  12  10   13.90    2.00 
  -5 -12 -10    0.80    1.30 
 -12   5 -10   -0.90    1.20 
  -5 -12  10    0.40    1.00 
  12  -5  10    0.50    0.50 
  12  -5  10    1.20    0.90 
 -12   5  10    1.20    1.10 
 -12   6 -10   13.10    2.50 
  -6 -12 -10   15.80    2.70 
 -12   6  10   11.90    2.10 
  12  -6  10   14.60    2.10 
  12  -6  10   15.70    1.80 
  -6 -12  10   12.50    2.20 
 -12   7 -10    5.20    1.80 
  12  -7  10    6.80    1.50 
  12  -7  10    7.90    1.10 
 -12   7  10    4.70    1.90 
  -7 -12  10    5.00    1.50 
  -8 -12 -10    8.80    2.00 
 -12   8 -10    8.00    2.00 
 -12   8  10    6.40    1.70 
  -8 -12  10    7.60    1.70 
  12  -8  10    8.70    1.30 
  12  -8  10    8.70    1.70 
  -9 -12 -10   10.50    2.20 
 -12   9 -10    9.40    2.90 
 -12   9  10    9.70    2.00 
  12  -9  10   12.50    1.70 
  -9 -12  10    8.50    1.90 
 -10 -12 -10   10.60    2.10 
 -10 -12  10   10.10    1.30 
  12 -10  10   11.40    1.70 
 -12  10  10   11.30    2.10 
 -10 -12  10   12.90    2.20 
 -13  -9 -10   -1.00    1.40 
  -9  13 -10    0.20    0.80 
  -9  13  10    1.20    1.10 
   9 -13  10    0.30    1.10 
 -13  -9  10    0.40    0.60 
 -13  -9  10   -0.80    1.00 
 -13  -8 -10   10.70    3.10 
  -8  13 -10    7.20    1.20 
 -13  -8  10    9.10    1.90 
   8 -13  10   10.10    1.90 
 -13  -8  10    5.30    1.10 
  -8  13  10    8.90    2.00 
  -7  13 -10    3.90    0.80 
 -13  -7 -10    2.10    1.60 
  -7  13  10    4.80    1.40 
 -13  -7  10    4.20    0.90 
 -13  -7  10    4.20    1.40 
   7 -13  10    5.40    1.50 
 -13  -6 -10    2.00    1.40 
 -13  -6  10    1.70    0.70 
   6 -13  10    2.10    1.10 
  -6  13  10    2.50    1.20 
 -13  -6  10    0.90    1.10 
  -5  13 -10    3.80    0.60 
 -13  -5 -10    2.50    1.50 
   5 -13  10    5.80    1.40 
 -13  -5  10    6.00    1.50 
 -13  -5  10    2.30    0.90 
  -5  13  10    4.60    1.30 
 -13  -4 -10   22.50    3.00 
  -4  13  10   17.10    2.60 
 -13  -4  10   18.20    2.70 
   4 -13  10   21.60    2.90 
 -13  -3 -10    2.10    1.60 
   3 -13  10    1.70    1.20 
 -13  -3  10    0.80    1.10 
  -3  13  10    1.50    1.10 
 -13  -2 -10   -1.30    1.30 
   2 -13  10    1.40    1.20 
  -2  13  10    0.60    1.00 
 -13  -2  10    1.40    1.10 
 -13  -1 -10    4.50    1.80 
 -13  -1  10    7.90    1.60 
  -1  13  10    6.60    1.50 
   1 -13  10    8.80    1.70 
 -13   0 -10   34.50    4.90 
   0 -13  10   46.20    4.80 
   0  13  10   39.30    4.60 
 -13   0  10   38.80    4.60 
 -13   1 -10    7.60    2.10 
  -1 -13 -10    5.80    1.80 
   1  13  10    5.70    1.60 
 -13   1  10    8.30    1.60 
  -1 -13  10    6.50    1.60 
  -2 -13 -10   -1.00    1.10 
 -13   2 -10    3.10    1.60 
  -2 -13  10    1.00    1.20 
 -13   2  10    0.60    1.00 
  -3 -13 -10    1.80    1.50 
 -13   3 -10    1.40    1.50 
  -3 -13  10   -0.10    1.10 
  13  -3  10    1.40    0.50 
 -13   3  10   -0.10    1.00 
   3  13  10    2.90    1.10 
  -4 -13 -10   19.00    3.10 
  -4 -13  10   18.70    2.90 
 -13   4  10   18.30    2.70 
  13  -4  10   20.50    2.30 
  13  -4  10   21.10    2.20 
  -5 -13 -10    5.00    1.70 
 -13   5 -10    4.30    1.80 
  -5 -13  10    4.40    1.40 
  13  -5  10    4.50    1.00 
 -13   5  10    4.60    1.40 
 -13   6 -10    1.30    1.40 
  -6 -13  10    1.40    1.10 
  13  -6  10    2.40    0.70 
  13  -6  10    2.00    0.90 
 -13   7 -10    2.90    1.60 
  -7 -13 -10    6.00    1.70 
  13  -7  10    3.70    1.20 
 -13   7  10    3.50    1.40 
  -7 -13  10    2.60    1.30 
  13  -7  10    6.00    1.00 
  -8 -13 -10    7.10    1.90 
 -13   8 -10    8.00    2.00 
  -8 -13  10    8.50    1.80 
 -13   8  10    6.10    1.70 
  13  -8  10    8.50    1.70 
  13  -8  10   10.20    1.40 
  -9 -13 -10    0.30    1.20 
 -13   9 -10    0.70    1.30 
 -13   9  10   -1.90    1.00 
  -9 -13  10    0.50    1.60 
  13  -9  10   -0.40    0.70 
  -7  14 -10    8.10    1.20 
 -14  -7 -10   12.60    2.40 
   7 -14  10   11.60    2.10 
 -14  -7  10    9.70    1.50 
  -7  14  10    9.90    1.90 
  -6  14 -10    2.20    0.50 
 -14  -6 -10    2.80    2.50 
  -6  14  10    0.60    1.00 
 -14  -6  10    3.60    1.30 
 -14  -6  10    2.30    0.80 
   6 -14  10    4.40    1.50 
   5 -14  10   12.60    2.20 
  -5  14  10    8.50    2.70 
 -14  -5  10   12.40    2.10 
 -14  -5  10   10.60    1.80 
 -14  -4 -10   34.30    4.40 
   4 -14  10   38.00    4.10 
  -4  14  10   26.80    3.90 
 -14  -4  10   31.40    3.90 
 -14  -3 -10    2.90    1.70 
 -14  -3  10    3.30    1.00 
   3 -14  10    1.60    1.20 
  -3  14  10    1.50    1.20 
 -14  -3  10    2.20    1.20 
 -14  -2 -10    1.40    1.40 
   2 -14  10    2.60    1.40 
  -2  14  10    0.70    1.00 
 -14  -2  10    2.90    1.20 
 -14  -1 -10    1.50    1.60 
  -1  14  10    1.50    1.00 
 -14  -1  10    0.00    1.00 
   1 -14  10    0.30    1.20 
 -14   0 -10   27.50    4.00 
 -14   0  10   28.00    3.60 
   0 -14  10   34.50    3.90 
   0  14  10   27.50    3.50 
 -14   1 -10    1.80    1.40 
 -14   1  10    1.90    1.20 
  -1 -14  10   -0.20    1.10 
   1  14  10    2.00    1.10 
  -2 -14 -10    2.70    1.40 
 -14   2 -10    1.20    1.30 
  -2 -14  10    0.30    1.20 
 -14   2  10    2.20    1.10 
  -3 -14 -10    1.60    1.30 
 -14   3 -10    1.60    1.50 
 -14   3  10    2.70    1.20 
  -3 -14  10    0.80    1.20 
 -14   4  10   31.40    4.10 
  -4 -14  10   37.40    4.30 
  -5 -14 -10   11.40    2.30 
 -14   5 -10    8.30    2.30 
  14  -5  10   14.70    1.70 
  -5 -14  10   10.10    2.20 
  14  -5  10   14.50    1.60 
 -14   6 -10    2.10    1.50 
  -6 -14 -10    1.90    1.40 
 -14   6  10    1.60    1.20 
  -7 -14 -10   12.90    2.30 
 -14   7 -10   10.80    2.50 
  14  -7  10   13.90    1.60 
 -14   7  10   11.20    2.20 
  -7 -14  10    7.00    2.00 
 -15  -5 -10    0.30    1.40 
  -5  15  10   -1.00    0.90 
 -15  -5  10    0.80    0.70 
 -15  -5  10   -0.10    1.10 
   5 -15  10    1.80    1.20 
 -15  -4 -10    2.10    1.60 
  -4  15  10    1.10    1.20 
 -15  -4  10    1.50    0.80 
 -15  -4  10    4.60    1.30 
   4 -15  10    2.60    1.60 
 -15  -3 -10    1.30    1.40 
 -15  -3  10    0.30    0.80 
  -3  15  10    1.70    1.20 
   3 -15  10    0.30    1.50 
 -15  -3  10    1.20    1.10 
 -15  -2 -10    3.20    1.70 
  -2  15  10    4.80    2.00 
 -15  -2  10    1.30    0.90 
   2 -15  10    0.60    2.10 
 -15  -2  10    0.20    1.10 
 -15  -1 -10    0.50    1.50 
 -15  -1  10   -0.50    1.00 
 -15   0  10    2.20    1.20 
   0 -15  10   -0.30    1.60 
  -1 -15  10    2.10    1.50 
 -15   1  10    0.80    1.10 
  -2 -15  10    3.90    1.40 
 -15   2  10    1.90    1.20 
  -3 -15 -10    1.50    1.20 
  -3 -15  10    0.20    1.20 
 -15   3  10    1.50    1.20 
  -4 -15 -10    4.00    1.50 
 -15   4  10    7.20    2.50 
  -4 -15  10    3.10    1.50 
 -15   5 -10    3.20    2.10 
  -5 -15 -10    2.60    1.30 
  -5 -15  10    1.70    1.30 
 -15   5  10    0.30    1.20 
   0   1 -11   -0.30    0.60 
   1   0 -11   -0.30    0.60 
  -1   0 -11    0.90    0.60 
   1   0 -11   -0.10    0.80 
   0  -1 -11    0.00    0.50 
   0  -1 -11    0.20    0.90 
   0   1 -11    0.90    0.80 
  -1   0 -11    0.60    0.90 
   0   1  11    0.50    0.90 
  -1   0  11    0.40    0.70 
   1   0  11   -0.10    0.90 
   0  -1  11    0.00    0.60 
   1   0  11   -0.50    0.70 
   0  -1  11   -0.40    0.80 
  -1   0  11   -0.10    0.90 
   0   1  11   -0.50    0.70 
   1   1 -11    2.40    0.90 
  -1   1 -11    2.10    0.90 
  -1  -1 -11    2.90    0.80 
  -1   1 -11    2.80    0.80 
  -1  -1 -11    3.50    1.00 
   1  -1 -11    3.30    1.00 
   1   1 -11    1.70    0.70 
   1  -1 -11    4.10    0.80 
  -1  -1  11    0.10    0.90 
  -1   1  11    3.60    0.90 
   1   1  11    1.80    0.80 
  -1  -1  11    2.90    0.90 
   1  -1  11    2.70    0.80 
   1  -1  11    3.70    1.20 
  -1   1  11    4.20    1.10 
   1   1  11    2.20    1.10 
  -2  -1 -11    8.20    1.40 
   1  -2 -11    8.80    1.40 
  -1   2 -11    9.60    1.50 
  -2  -1 -11   11.40    1.80 
  -1   2 -11    9.60    1.50 
   1  -2 -11   12.30    1.70 
   2   1 -11    9.10    1.50 
   1  -2  11   11.70    1.40 
   1  -2  11    9.00    1.80 
  -1   2  11   11.30    1.70 
   2   1  11    9.50    1.70 
  -2  -1  11   10.40    1.50 
  -1   2  11   12.10    1.50 
   2   1  11    8.70    1.40 
  -2  -1  11    9.60    1.60 
  -2   0 -11    8.60    1.30 
   0  -2 -11    8.10    1.40 
   2   0 -11    6.90    1.30 
   0   2 -11    5.40    1.10 
   0  -2 -11    7.50    1.30 
  -2   0 -11    6.30    1.40 
   0   2 -11    9.70    1.40 
   2   0 -11   10.20    1.40 
   0   2  11    9.20    1.30 
   2   0  11    6.90    1.50 
   0  -2  11    9.20    1.30 
  -2   0  11    9.60    1.40 
   0  -2  11    8.10    1.50 
   2   0  11    9.90    1.30 
   0   2  11    6.30    1.30 
  -2   0  11    8.80    1.50 
  -1  -2 -11   11.80    1.70 
   2  -1 -11   10.50    1.60 
  -1  -2 -11   11.90    1.50 
  -2   1 -11    8.40    1.40 
   2  -1 -11   10.50    1.90 
   1   2 -11    9.50    1.50 
  -2   1 -11    9.20    1.60 
   1   2 -11   11.70    1.50 
   2  -1  11    9.70    1.40 
   1   2  11   10.80    1.40 
  -1  -2  11   11.00    1.50 
   1   2  11   10.80    1.70 
  -2   1  11    8.20    1.40 
  -1  -2  11    8.50    1.60 
  -2   1  11    7.80    1.50 
   2  -1  11    5.70    1.60 
  -2  -2 -11    3.50    0.80 
  -2   2 -11    3.00    0.80 
  -2   2 -11    2.30    0.90 
   2  -2 -11    3.30    1.30 
   2  -2 -11    2.10    0.90 
   2   2 -11    3.00    0.80 
   2   2 -11    1.90    0.80 
  -2  -2 -11    3.00    1.10 
   2   2  11    4.60    1.80 
  -2  -2  11    3.90    0.90 
   2  -2  11    1.30    1.20 
   2   2  11    3.80    0.80 
  -2   2  11    3.80    1.20 
  -2   2  11    3.90    0.90 
  -2  -2  11    3.20    1.00 
   2  -2  11    2.70    0.70 
   3   2 -11    4.10    0.90 
  -3  -2 -11    6.30    1.40 
  -3  -2 -11    4.80    0.90 
   2  -3 -11    5.00    1.10 
   2  -3 -11    5.00    1.00 
  -3  -2  11    4.60    1.20 
  -2   3  11    4.00    1.00 
   2  -3  11    2.50    1.20 
  -3  -2  11    5.70    1.00 
  -2   3  11    5.00    1.00 
   2  -3  11    4.70    0.90 
   3   2  11    4.40    1.30 
   3   2  11    5.60    0.90 
  -3  -1 -11    1.60    0.70 
   1  -3 -11    2.60    1.00 
  -1   3 -11    2.80    1.00 
  -3  -1 -11    1.20    1.10 
   3   1 -11    1.30    0.60 
   1  -3  11    2.30    1.10 
  -3  -1  11    1.30    0.80 
  -1   3  11    1.10    0.90 
   3   1  11    1.90    0.70 
  -3  -1  11    1.90    1.00 
   1  -3  11    4.30    0.80 
   3   1  11    2.70    1.30 
   0  -3 -11    0.80    0.90 
   0   3 -11    1.20    0.70 
  -3   0 -11    1.20    1.00 
   0  -3 -11   -0.40    0.70 
   3   0 -11   -0.40    0.60 
  -3   0 -11    0.30    0.60 
   0   3 -11   -0.30    0.60 
   0   3  11    1.50    0.70 
   0  -3  11    0.10    0.70 
   0   3  11    0.10    0.90 
  -3   0  11    0.80    0.90 
  -3   0  11   -0.10    0.70 
   3   0  11    0.40    0.60 
   0  -3  11    1.60    1.10 
   3   0  11   -1.50    0.90 
  -1  -3 -11    3.00    1.10 
  -3   1 -11    2.30    1.00 
  -3   1 -11    2.30    0.70 
   1   3 -11    1.90    0.70 
   1   3 -11    1.20    0.80 
  -1  -3 -11    2.10    0.80 
   3  -1 -11    3.00    0.80 
  -3   1  11    2.60    1.00 
  -1  -3  11    2.30    1.10 
   1   3  11    1.80    1.10 
   1   3  11    2.00    0.80 
   3  -1  11    3.40    1.20 
   3  -1  11    0.60    0.60 
  -1  -3  11    2.30    0.80 
  -3   1  11    2.80    0.90 
  -3   2 -11    5.10    1.20 
   2   3 -11    3.90    0.90 
  -3   2 -11    4.00    0.90 
  -2  -3 -11    3.30    1.30 
  -2  -3 -11    4.90    1.00 
   3  -2 -11    5.10    1.00 
   2   3 -11    3.80    0.90 
   3  -2  11    6.60    0.90 
  -3   2  11    5.50    1.00 
  -3   2  11    5.80    1.80 
   2   3  11    3.30    1.10 
   2   3  11    6.50    1.00 
   3  -2  11    5.00    1.30 
  -2  -3  11    4.10    1.00 
  -2  -3  11    6.10    1.30 
   3  -3 -11    5.60    1.10 
  -3   3 -11    5.30    1.50 
  -3  -3 -11    6.30    1.50 
   3   3 -11    6.40    1.20 
  -3  -3 -11    7.20    1.20 
   3   3  11    6.30    1.10 
  -3  -3  11    7.70    1.40 
   3   3  11    8.60    1.50 
  -3   3  11    8.30    1.30 
   3  -3  11    7.50    1.10 
  -3   3  11    8.00    1.40 
  -3  -3  11    6.20    1.20 
  -3   4 -11    8.20    1.40 
   4   3 -11    7.70    1.20 
  -4  -3 -11    6.20    1.20 
   3  -4 -11    7.80    1.30 
  -4  -3 -11    6.80    1.80 
  -4  -3  11    7.10    1.40 
  -4  -3  11    5.80    1.20 
   4   3  11    9.30    1.70 
   3  -4  11    7.80    1.20 
   3  -4  11    7.60    1.50 
  -3   4  11    8.90    1.50 
   4   3  11    8.70    1.20 
  -3   4  11    8.30    1.40 
  -2   4 -11   12.70    1.60 
  -4  -2 -11   11.80    1.50 
  -4  -2 -11   12.10    2.00 
   4   2 -11   10.50    1.50 
   2  -4 -11    8.60    1.60 
   2  -4  11   10.10    1.50 
  -2   4  11   11.90    1.70 
  -4  -2  11   13.10    1.80 
   4   2  11   10.20    1.50 
   4   2  11   10.90    1.90 
   2  -4  11    9.90    1.70 
  -4  -2  11    7.90    1.50 
  -2   4  11    7.90    1.60 
  -1   4 -11    7.90    1.20 
   1  -4 -11    7.40    1.40 
   4   1 -11    7.90    1.20 
  -4  -1 -11    8.10    1.30 
  -4  -1 -11    4.80    1.50 
   1  -4 -11    9.10    1.40 
  -4  -1  11    7.80    1.30 
   4   1  11    4.20    1.40 
  -1   4  11    8.50    1.30 
   1  -4  11    5.00    1.50 
   4   1  11    8.70    1.20 
   1  -4  11    8.70    1.30 
  -4  -1  11    7.20    1.40 
  -1   4  11    6.60    1.30 
  -4   0 -11   23.20    3.00 
   0   4 -11   23.60    2.60 
   4   0 -11   24.00    2.70 
  -4   0 -11   23.20    2.60 
   0  -4 -11   22.30    2.90 
   0  -4  11   17.00    2.90 
  -4   0  11   23.60    2.90 
   0  -4  11   21.60    2.60 
   0   4  11   23.90    2.60 
   4   0  11   27.10    2.60 
   0   4  11   19.40    2.70 
  -4   0  11   24.10    2.70 
   4   0  11   16.90    3.60 
   4  -1 -11    8.00    1.20 
  -1  -4 -11    8.30    1.40 
  -4   1 -11    6.80    1.20 
   1   4 -11    6.80    1.10 
  -4   1 -11    5.30    1.40 
  -1  -4 -11    6.10    1.40 
   1   4  11    6.30    1.30 
   4  -1  11    5.70    1.50 
  -1  -4  11    4.70    1.40 
  -4   1  11    8.20    1.30 
   4  -1  11    9.00    1.20 
   1   4  11    9.40    1.30 
  -1  -4  11    5.70    1.20 
  -2  -4 -11    9.90    1.60 
  -4   2 -11    9.20    1.70 
  -2  -4 -11    9.90    1.90 
   4  -2 -11    9.80    1.50 
  -4   2  11   11.80    1.60 
   4  -2  11    8.10    1.50 
  -4   2  11   12.10    1.70 
   4  -2  11    8.30    1.70 
  -2  -4  11   12.20    1.50 
  -2  -4  11    7.80    1.60 
   2   4  11   12.50    1.50 
   2   4  11    9.60    1.70 
  -3  -4 -11    6.70    1.20 
  -4   3 -11    7.30    1.40 
  -3  -4 -11    6.10    1.70 
   4  -3 -11    5.50    1.10 
  -4   3  11    5.20    1.20 
  -4   3  11    6.20    1.20 
  -3  -4  11    9.60    1.40 
   3   4  11    6.30    1.30 
  -3  -4  11    6.80    1.40 
   3   4  11    8.90    1.60 
   4  -3  11    6.70    1.40 
   4  -4 -11   23.50    2.70 
  -4   4 -11   22.50    2.80 
  -4  -4 -11   24.50    3.30 
  -4  -4 -11   23.30    2.70 
  -4  -4  11   20.20    2.70 
  -4   4  11   24.40    2.70 
   4  -4  11   26.30    3.00 
   4  -4  11   17.70    2.80 
   4   4  11   22.20    2.90 
  -4   4  11   22.90    2.80 
  -4  -4  11   21.40    2.80 
   4   4  11   25.10    2.60 
  -5  -4 -11   13.60    2.40 
  -4   5 -11   10.40    1.80 
   5   4 -11   10.60    1.60 
  -5  -4 -11   11.90    1.80 
   4  -5  11   12.60    1.80 
  -5  -4  11   14.50    1.90 
   4  -5  11   11.20    1.80 
  -4   5  11   12.60    1.80 
   5   4  11   15.10    1.70 
  -5  -4  11   13.20    1.90 
   3  -5 -11   20.60    2.60 
  -5  -3 -11   23.10    2.50 
   5   3 -11   19.10    2.40 
  -5  -3 -11   20.30    3.00 
  -3   5 -11   18.40    2.50 
   3  -5  11   22.90    2.50 
  -3   5  11   16.70    2.50 
   5   3  11   24.70    2.40 
   3  -5  11   15.00    2.50 
  -5  -3  11   21.20    2.70 
  -5  -3  11   21.50    2.60 
   5   3  11   17.90    2.70 
  -3   5  11   25.70    2.60 
  -5  -2 -11   16.00    1.90 
  -5  -2 -11   14.00    2.50 
   2  -5 -11   13.10    2.00 
   5   2 -11   14.40    1.80 
   2  -5 -11   14.70    2.10 
  -2   5 -11   13.40    1.80 
  -5  -2  11   15.00    2.00 
   5   2  11   14.30    2.20 
  -2   5  11   13.30    2.00 
   2  -5  11   12.40    2.00 
  -5  -2  11   14.60    2.10 
   5   2  11   13.50    1.80 
  -2   5  11   15.80    2.00 
   2  -5  11   12.60    1.90 
  -5  -1 -11   22.00    2.80 
   1  -5 -11   27.30    3.00 
   5   1 -11   20.80    2.80 
  -5  -1 -11   30.30    3.30 
   1  -5 -11   22.30    2.90 
  -1   5 -11   24.80    2.70 
  -5  -1  11   23.30    3.00 
  -1   5  11   25.60    2.90 
   1  -5  11   24.20    2.90 
   1  -5  11   22.80    2.80 
  -5  -1  11   21.90    2.80 
  -1   5  11   23.90    2.80 
   5   1  11   25.60    3.10 
   5   1  11   26.60    2.70 
   0  -5 -11   -0.80    0.80 
   0  -5 -11    0.40    1.00 
   0   5 -11    0.70    0.60 
  -5   0 -11   -0.20    1.20 
  -5   0 -11   -0.30    0.60 
   5   0 -11    0.20    0.60 
   0  -5  11   -0.40    0.90 
   0  -5  11    0.00    0.70 
   0   5  11    0.10    0.70 
   5   0  11   -1.20    0.80 
  -5   0  11   -0.40    0.80 
   5   0  11   -0.10    0.60 
   0   5  11    0.10    0.80 
   1   5 -11   24.40    2.70 
   5  -1 -11   23.20    2.80 
  -1  -5 -11   21.70    3.00 
  -1  -5 -11   27.50    3.20 
  -5   1 -11   25.20    3.20 
  -5   1 -11   24.50    2.80 
   1   5  11   23.20    2.80 
  -1  -5  11   25.90    2.80 
   1   5  11   22.40    2.90 
  -5   1  11   23.60    2.90 
   5  -1  11   26.80    3.10 
  -5   1  11   27.30    3.00 
  -1  -5  11   21.60    3.00 
   5  -1  11   20.50    2.70 
   5  -2 -11   14.30    1.80 
  -2  -5 -11   14.10    2.40 
  -5   2 -11   12.60    2.20 
  -2  -5 -11   14.10    2.10 
  -5   2  11   17.00    2.00 
   5  -2  11   10.50    2.80 
  -2  -5  11   11.90    2.00 
   2   5  11   14.20    1.90 
  -2  -5  11   14.40    1.90 
  -5   2  11   13.60    2.00 
   5  -2  11   13.30    1.70 
   2   5  11   12.50    2.00 
  -5   3 -11   18.60    2.80 
   5  -3 -11   22.70    2.50 
  -3  -5 -11   20.70    3.10 
  -3  -5 -11   21.20    2.60 
   5  -3  11   27.00    2.40 
  -5   3  11   23.30    2.60 
   3   5  11   15.10    2.60 
  -3  -5  11   18.40    2.60 
  -3  -5  11   21.30    2.60 
   5  -3  11   16.20    2.70 
  -5   3  11   21.30    2.60 
  -5   4 -11   10.60    2.00 
  -4  -5 -11   14.00    2.30 
   5  -4 -11   15.20    2.40 
  -4  -5 -11   11.20    1.80 
  -5   4  11   13.60    2.60 
   5  -4  11   12.60    2.00 
  -4  -5  11   11.60    1.80 
  -4  -5  11   12.70    1.90 
   4   5  11   12.50    1.70 
  -5   4  11   13.70    1.90 
   5  -4  11   14.00    1.70 
  -5   5 -11    0.50    0.90 
  -5  -5 -11    2.00    0.90 
  -5  -5  11    2.30    0.90 
  -5  -5  11    2.90    1.00 
  -5   5  11    0.80    0.90 
   5   5  11    2.30    0.70 
   5  -5  11    2.30    0.90 
   5  -5  11    1.80    0.70 
  -5   6 -11    8.00    1.40 
  -6  -5 -11    7.00    1.30 
  -6  -5 -11    4.10    1.70 
   5  -6  11    7.30    1.20 
   5  -6  11    5.60    1.20 
  -6  -5  11    6.20    1.30 
  -6  -5  11    5.70    1.40 
   6   5  11    8.30    1.10 
  -5   6  11    4.40    1.20 
  -6  -4 -11   12.80    1.50 
  -4   6 -11    6.30    1.30 
  -6  -4 -11    9.10    2.00 
   4  -6  11    8.00    1.30 
  -6  -4  11    9.90    1.60 
   6   4  11    9.00    1.30 
  -4   6  11    9.70    1.50 
  -6  -4  11    6.80    1.40 
   4  -6  11    6.10    1.30 
   6   3 -11    1.70    0.70 
  -6  -3 -11    3.90    1.70 
  -6  -3 -11    2.90    0.90 
  -3   6 -11    1.70    0.80 
  -6  -3  11    4.50    1.00 
   6   3  11    3.30    0.80 
   3  -6  11    1.30    0.80 
  -6  -3  11    3.10    1.10 
  -3   6  11    2.00    1.00 
   3  -6  11    1.10    0.80 
  -6  -2 -11    2.30    0.90 
   6   2 -11    2.30    0.80 
   2  -6 -11    3.00    1.10 
  -6  -2 -11    4.80    1.80 
   2  -6 -11    5.80    1.30 
  -2   6 -11    4.40    0.90 
   6   2  11    4.30    1.30 
   2  -6  11    4.20    1.00 
  -6  -2  11    4.30    1.30 
  -2   6  11    3.50    1.10 
   6   2  11    3.60    0.80 
   2  -6  11    4.40    1.00 
  -2   6  11    2.30    1.10 
  -6  -2  11    2.20    0.90 
  -6  -1 -11   10.20    1.40 
  -1   6 -11    8.20    1.20 
   1  -6 -11   11.60    1.80 
   6   1 -11    7.00    1.20 
   1  -6 -11    6.80    1.50 
  -6  -1 -11    5.90    1.90 
  -6  -1  11    6.80    1.70 
  -1   6  11    8.00    1.30 
  -1   6  11    8.50    1.50 
   1  -6  11    9.40    1.50 
   6   1  11    8.30    1.60 
  -6  -1  11    7.90    1.40 
   6   1  11    7.10    1.10 
   1  -6  11    8.20    1.40 
   0   6 -11   11.00    1.40 
  -6   0 -11    9.80    2.00 
   0  -6 -11   10.90    2.00 
  -6   0 -11   13.40    1.50 
   6   0 -11    7.10    1.40 
   0  -6 -11    9.80    1.70 
   0  -6  11    8.00    1.50 
   6   0  11    7.60    1.70 
  -6   0  11    9.40    1.60 
   0   6  11   11.40    1.60 
   6   0  11   11.30    1.40 
  -6   0  11   12.70    1.70 
   0  -6  11    7.00    1.50 
  -1  -6 -11    8.30    1.50 
  -1  -6 -11    8.30    1.70 
  -6   1 -11    7.40    1.80 
   6  -1 -11    9.30    1.30 
   6  -1  11    8.50    1.70 
   1   6  11    7.30    1.40 
  -6   1  11    7.10    1.50 
  -6   1  11    7.20    1.30 
  -1  -6  11    6.00    1.40 
   1   6  11    8.50    1.40 
   6  -1  11    8.00    1.20 
  -1  -6  11    9.60    1.50 
  -6   2 -11    3.30    1.30 
   6  -2 -11    2.10    0.90 
  -2  -6 -11    2.00    1.00 
  -2  -6 -11    7.40    1.70 
  -6   2  11    2.60    1.00 
   6  -2  11    2.50    0.70 
   6  -2  11    2.00    1.10 
  -2  -6  11    2.60    1.00 
  -2  -6  11    4.60    1.20 
   2   6  11    2.30    1.00 
  -6   2  11    5.30    1.20 
   2   6  11    4.90    1.00 
  -3  -6 -11    3.10    1.40 
  -3  -6 -11    1.80    1.20 
  -6   3 -11    0.60    1.20 
  -3  -6  11    1.90    1.00 
   6  -3  11    1.20    1.00 
  -3  -6  11    1.30    0.90 
   6  -3  11    3.20    0.80 
   3   6  11    4.40    0.90 
  -6   3  11    3.30    1.10 
  -4  -6 -11    9.90    1.50 
  -6   4 -11    4.90    1.50 
  -4  -6 -11    5.60    1.70 
   4   6  11   10.90    1.40 
   6  -4  11    9.60    1.30 
  -6   4  11    9.40    1.50 
   6  -4  11    6.10    1.40 
  -4  -6  11    7.50    1.40 
  -4  -6  11    8.90    1.50 
  -5  -6 -11    8.00    2.00 
  -5  -6 -11    7.80    1.40 
  -6   5 -11    6.60    1.50 
  -5  -6  11    5.30    1.20 
   6  -5  11    6.30    1.10 
  -5  -6  11    6.80    1.40 
  -6   5  11    6.00    1.20 
   5   6  11    6.40    1.10 
  -6  -6 -11    4.00    1.20 
   6  -6  11    5.40    1.00 
  -6   6  11    2.90    1.20 
   6  -6  11    4.00    1.00 
  -6   7 -11    3.00    1.10 
  -7  -6 -11    1.80    1.60 
  -7  -6 -11    1.30    1.00 
   7   6  11    1.10    0.80 
  -6   7  11    1.60    0.90 
  -7  -6  11    2.30    1.00 
   6  -7  11    1.90    0.90 
  -7  -6  11    1.20    1.10 
   6  -7  11    1.80    0.70 
  -5   7 -11    8.10    1.40 
  -7  -5 -11    8.80    1.40 
  -7  -5 -11   12.60    2.20 
   5  -7  11    6.10    1.30 
   5  -7  11    8.80    1.30 
  -7  -5  11    9.30    1.60 
   7   5  11    7.70    1.20 
  -7  -5  11    8.70    1.70 
  -5   7  11    7.30    1.50 
  -4   7 -11    1.50    0.70 
  -7  -4 -11    0.80    0.70 
   4  -7  11    0.00    0.50 
   7   4  11    1.50    0.60 
  -7  -4  11    1.10    0.90 
  -7  -4  11    0.70    0.90 
   4  -7  11    1.70    0.80 
  -7  -3 -11    4.00    0.90 
  -7  -3 -11    2.70    1.70 
  -3   7 -11    2.60    0.80 
   3  -7  11    5.90    0.90 
  -7  -3  11    3.50    2.10 
  -7  -3  11    3.00    1.00 
  -3   7  11   -0.10    0.90 
   7   3  11    2.00    0.70 
   3  -7  11    3.30    0.90 
  -2   7 -11   11.40    1.50 
  -7  -2 -11   10.40    1.60 
  -7  -2 -11   13.80    2.50 
  -7  -2  11   13.40    2.00 
   2  -7  11    9.00    1.50 
  -7  -2  11   10.50    1.70 
  -2   7  11   12.10    1.80 
   7   2  11   10.60    1.50 
   2  -7  11   11.20    1.70 
  -7  -1 -11    3.40    0.90 
   1  -7 -11    5.70    1.40 
  -7  -1 -11    4.10    1.50 
   7   1 -11    3.20    1.00 
  -7  -1  11    2.60    1.00 
   1  -7  11    3.20    0.80 
  -1   7  11    2.90    0.90 
   7   1  11    3.40    0.70 
   1  -7  11    4.30    1.10 
   7   0 -11   -0.20    0.60 
  -7   0 -11    0.60    1.40 
   0  -7 -11   -0.10    1.00 
   0  -7 -11   -0.10    1.00 
   0   7 -11    0.00    0.50 
  -7   0  11   -0.10    0.80 
  -7   0  11    0.00    1.00 
   7   0  11   -0.20    0.50 
   0   7  11   -0.30    0.80 
   0  -7  11    0.40    0.70 
   0  -7  11    0.00    0.60 
  -7   1 -11    2.30    1.40 
   7  -1 -11    1.10    0.90 
  -1  -7 -11    5.40    1.60 
  -1  -7  11    3.40    1.00 
  -7   1  11    4.20    1.30 
   7  -1  11    2.50    1.20 
   1   7  11    2.00    0.90 
  -1  -7  11    4.30    0.90 
   7  -1  11    3.00    0.70 
  -7   2 -11   13.70    2.20 
  -2  -7 -11   13.00    1.90 
  -2  -7 -11    9.40    2.10 
   7  -2  11    9.00    1.80 
  -2  -7  11   11.90    1.80 
   2   7  11   11.80    1.70 
  -2  -7  11    9.80    1.60 
   7  -2  11   11.00    1.40 
  -7   2  11    8.60    1.60 
  -3  -7 -11    2.70    1.20 
  -7   3 -11    5.50    1.50 
  -3  -7 -11    2.90    1.40 
   7  -3  11    2.40    0.70 
  -7   3  11   -0.20    0.80 
  -3  -7  11    3.60    1.10 
   3   7  11    2.40    0.90 
   7  -3  11    6.20    1.30 
  -3  -7  11    5.20    1.00 
  -4  -7 -11    0.80    1.00 
  -4  -7 -11   -1.30    1.10 
  -7   4 -11   -0.20    1.10 
  -4  -7  11   -0.40    0.70 
   4   7  11    1.20    0.80 
  -7   4  11   -0.40    0.80 
   7  -4  11    0.20    0.50 
   7  -4  11   -0.10    0.80 
  -5  -7 -11   12.50    3.40 
  -7   5 -11    5.60    1.60 
  -5  -7 -11    9.30    1.90 
  -5  -7  11    9.90    1.40 
   5   7  11    7.90    1.30 
   7  -5  11    8.20    1.30 
   7  -5  11    9.50    1.50 
  -5  -7  11    8.30    1.60 
  -7   5  11    7.00    1.50 
  -6  -7 -11    3.50    1.80 
  -7   6 -11    3.00    1.30 
  -6  -7 -11    0.80    1.10 
  -6  -7  11    2.00    0.90 
   7  -6  11    1.90    0.80 
  -7   6  11    1.10    1.00 
  -6  -7  11    2.40    1.10 
   7  -6  11    1.80    0.80 
   6   7  11    0.00    0.80 
  -7  -7 -11   12.30    2.40 
  -7   7 -11    8.70    1.70 
  -7  -7 -11    9.20    1.60 
   7   7  11   11.40    1.50 
  -7  -7  11   10.90    1.80 
  -7  -7  11    9.50    1.50 
   7  -7  11    5.90    1.30 
   7  -7  11    8.60    1.40 
  -7   7  11   11.20    1.70 
  -8  -7 -11   18.80    3.10 
  -8  -7 -11   18.40    2.40 
  -7   8 -11   19.50    2.50 
   8   7  11   20.10    2.30 
  -8  -7  11   16.00    2.50 
  -7   8  11   20.00    2.50 
  -8  -7  11   18.00    2.30 
   7  -8  11   20.50    2.40 
   7  -8  11   14.60    2.20 
  -8  -6 -11    7.50    2.10 
  -6   8 -11    4.50    1.20 
  -8  -6 -11    5.70    1.20 
   6  -8  11    7.80    1.30 
  -8  -6  11    8.10    1.50 
   8   6  11    6.80    1.10 
  -6   8  11    6.70    1.30 
  -8  -6  11    6.80    1.30 
   6  -8  11    4.10    1.00 
  -8  -5 -11    3.00    1.70 
  -8  -5 -11    3.00    0.90 
  -5   8 -11    1.90    0.80 
  -5   8  11    2.60    1.00 
   5  -8  11    1.80    0.60 
  -8  -5  11    1.90    1.10 
  -8  -5  11    1.50    1.20 
   5  -8  11    1.60    0.80 
   8   5  11    3.30    0.80 
  -8  -4 -11    3.40    0.90 
  -8  -4 -11    1.70    1.60 
  -4   8 -11    2.70    0.70 
   4  -8  11    1.90    0.60 
   8   4  11    3.40    0.80 
   4  -8  11    3.20    0.90 
  -8  -4  11    2.00    1.10 
  -8  -4  11    1.90    1.10 
  -4   8  11    3.30    1.10 
  -3   8 -11    6.90    1.10 
  -8  -3 -11    7.60    2.10 
  -8  -3 -11    7.80    1.30 
   3  -8  11    6.40    1.30 
   8   3  11    7.60    1.10 
  -8  -3  11    8.20    1.50 
  -8  -3  11    6.80    1.50 
  -3   8  11    8.10    1.40 
  -8  -2 -11   30.30    5.10 
  -8  -2 -11   22.80    2.80 
  -8  -2  11   24.00    3.20 
   2  -8  11   22.20    3.00 
  -8  -2  11   24.40    3.00 
   8   2  11   27.30    2.70 
  -1   8 -11    9.60    1.20 
   1  -8 -11    9.90    1.80 
  -8  -1 -11   10.60    2.50 
   1  -8  11    7.00    1.10 
   1  -8  11   10.70    1.70 
  -8  -1  11    6.10    1.40 
   8   1  11    7.90    1.20 
  -1   8  11   11.20    1.60 
  -8  -1  11    6.70    1.70 
   0  -8 -11    4.80    1.60 
  -8   0 -11    1.60    1.50 
   0   8  11    4.20    1.10 
  -8   0  11    2.10    1.10 
   8   0  11    3.90    0.70 
   0  -8  11    3.30    1.20 
  -1  -8 -11   13.00    2.20 
  -8   1 -11   10.90    2.10 
   8  -1  11    9.20    1.30 
  -8   1  11    9.80    1.60 
  -1  -8  11    8.60    1.30 
   1   8  11    9.40    1.50 
  -8   2 -11   21.40    3.10 
  -2  -8 -11   22.40    3.20 
  -2  -8 -11   18.30    3.30 
   8  -2  11   24.70    2.50 
  -8   2  11   26.80    2.80 
   2   8  11   23.00    2.70 
  -2  -8  11   18.00    2.50 
  -2  -8  11   23.40    3.10 
  -8   3 -11    4.50    1.70 
  -3  -8 -11    8.40    1.70 
   3   8  11   10.80    1.40 
  -3  -8  11    6.60    1.40 
  -3  -8  11    6.40    1.40 
   8  -3  11    6.50    1.10 
  -8   3  11    7.20    1.40 
  -4  -8 -11    4.60    1.70 
  -8   4 -11    4.50    1.50 
  -4  -8 -11    5.60    1.40 
  -4  -8  11    2.80    1.20 
  -4  -8  11    3.20    1.10 
   8  -4  11    2.30    0.70 
   4   8  11    4.00    1.00 
  -8   4  11    2.00    1.30 
  -5  -8 -11    2.70    1.60 
  -5  -8 -11    3.60    1.30 
  -8   5 -11    5.50    1.50 
  -5  -8  11    2.30    0.80 
   5   8  11    1.80    0.90 
   8  -5  11    3.90    1.40 
   8  -5  11    3.20    0.80 
  -8   5  11    3.10    1.10 
  -5  -8  11    2.50    1.20 
  -6  -8 -11    8.70    2.20 
  -8   6 -11    7.30    1.60 
  -6  -8 -11    6.50    1.60 
  -8   6  11    9.20    1.50 
   6   8  11    6.70    1.20 
   8  -6  11    6.30    1.10 
  -6  -8  11    5.70    1.10 
  -6  -8  11    7.10    1.60 
   8  -6  11    4.40    1.10 
  -8   7 -11   16.10    2.70 
  -7  -8 -11   21.50    2.70 
  -7  -8 -11   25.40    3.30 
   8  -7  11   15.20    2.30 
   8  -7  11   19.10    2.30 
  -7  -8  11   19.70    2.70 
  -8   7  11   17.40    2.50 
   7   8  11   20.90    2.40 
  -7  -8  11   19.70    2.30 
  -8   8 -11    4.30    1.30 
  -8  -8 -11    4.60    1.30 
  -8  -8 -11    1.80    1.40 
   8   8  11    2.70    0.90 
   8  -8  11    2.00    0.80 
   8  -8  11    2.50    0.90 
  -8  -8  11    3.10    0.90 
  -8  -8  11    2.40    1.10 
  -8   8  11    5.00    1.30 
  -8   9 -11    0.40    0.90 
  -9  -8 -11    1.90    1.00 
  -9  -8 -11    1.30    1.70 
  -9  -8  11    0.90    1.10 
   8  -9  11    0.90    0.90 
  -9  -8  11   -0.10    0.80 
   9   8  11    0.00    0.70 
  -8   9  11    0.30    1.00 
  -9  -7 -11    1.40    0.90 
  -9  -7 -11    0.90    1.70 
  -7   9 -11    1.90    0.90 
   7  -9  11    2.30    1.00 
   9   7  11    1.50    0.80 
   7  -9  11    0.70    0.60 
  -9  -7  11    1.80    1.00 
  -9  -7  11    1.80    1.10 
  -9  -6 -11    2.50    1.60 
  -9  -6 -11    7.60    1.20 
  -6   9 -11    5.00    1.10 
  -9  -6  11    4.50    1.30 
  -6   9  11    5.20    1.20 
   6  -9  11    6.10    1.40 
   9   6  11    7.80    1.10 
  -9  -6  11    5.20    1.30 
   6  -9  11    3.70    0.90 
  -9  -5 -11   12.10    2.50 
  -9  -5 -11   13.30    1.80 
  -5   9 -11   10.10    1.70 
  -5   9  11   14.10    2.00 
  -9  -5  11   17.60    2.20 
   9   5  11   13.80    1.70 
   5  -9  11   14.70    2.20 
  -9  -5  11   10.60    2.00 
  -4   9 -11    7.90    1.30 
  -9  -4 -11   10.70    2.20 
  -9  -4 -11   10.30    1.40 
  -9  -4  11   14.40    1.80 
  -9  -4  11    9.90    1.60 
   4  -9  11    6.70    1.20 
   4  -9  11    8.30    1.60 
  -4   9  11    8.00    1.60 
   9   4  11   10.60    1.30 
  -9  -3 -11   24.00    3.40 
  -9  -3 -11   23.50    2.60 
  -3   9  11   24.00    2.80 
   3  -9  11   23.50    2.70 
   3  -9  11   18.90    2.40 
  -9  -3  11   21.00    3.50 
  -9  -2 -11    5.90    1.90 
  -2   9 -11    7.10    1.00 
   2  -9  11    7.30    1.50 
   9   2  11    8.80    1.20 
  -9  -2  11    5.90    1.30 
  -2   9  11    7.20    1.40 
   2  -9  11    6.40    0.90 
  -1   9 -11   13.80    1.70 
  -9  -1 -11   13.60    2.60 
   1  -9 -11   21.90    2.80 
  -9  -1  11   14.30    2.20 
   9   1  11   15.70    1.80 
  -1   9  11   16.80    2.20 
   1  -9  11   15.10    2.20 
   0  -9 -11   -0.60    1.40 
  -9   0 -11    1.70    1.50 
   0  -9  11   -0.20    0.80 
   0  -9  11    0.20    0.40 
  -9   0  11    0.50    0.90 
   0   9  11   -0.40    1.40 
  -9   1 -11   15.00    2.80 
  -1  -9 -11   17.70    3.00 
   9  -1  11   16.50    1.80 
  -1  -9  11   14.10    2.20 
  -9   1  11   13.70    2.10 
   1   9  11   14.90    2.20 
  -9   2 -11    9.70    3.10 
  -2  -9 -11    6.00    1.90 
  -2  -9  11    9.00    1.60 
   2   9  11    8.60    1.50 
  -2  -9  11    7.20    1.00 
   9  -2  11    9.20    1.20 
  -3  -9 -11   25.60    3.40 
   3   9  11   24.60    2.80 
  -9   3  11   24.00    2.80 
   9  -3  11   23.40    2.50 
  -3  -9  11   22.30    2.80 
  -3  -9  11   19.40    2.40 
  -9   4 -11   11.80    2.50 
  -4  -9 -11   11.00    2.30 
   9  -4  11   10.70    1.30 
  -9   4  11    8.90    1.60 
   4   9  11    9.70    1.50 
  -4  -9  11    7.50    1.20 
  -4  -9  11    8.00    1.80 
  -5  -9 -11   15.00    2.60 
  -5  -9 -11   18.30    2.90 
  -9   5 -11   11.90    2.40 
  -5  -9  11   11.60    1.70 
  -5  -9  11   15.30    2.20 
   5   9  11   14.00    1.90 
  -9   5  11   14.20    2.10 
   9  -5  11   14.20    1.70 
  -9   6 -11    9.00    1.80 
  -6  -9 -11    7.70    1.80 
  -6  -9 -11    7.10    1.90 
  -6  -9  11    5.90    1.20 
   6   9  11    7.60    1.30 
  -9   6  11    3.80    1.40 
   9  -6  11    8.00    1.20 
  -6  -9  11    7.90    1.60 
  -7  -9 -11    0.60    1.20 
  -9   7 -11    0.20    1.20 
  -7  -9 -11    1.10    1.30 
   7   9  11    1.70    0.90 
  -7  -9  11    0.90    0.60 
   9  -7  11    1.70    0.70 
  -9   7  11    1.40    1.10 
  -7  -9  11    1.80    1.10 
  -8  -9 -11    1.10    1.20 
  -9   8 -11   -0.10    1.10 
   9  -8  11    1.30    0.80 
  -8  -9  11    0.20    0.40 
  -8  -9  11    1.80    1.30 
  -8  -9  11    0.80    0.70 
  -9   8  11   -0.10    1.00 
   8   9  11    0.70    0.80 
  -9  -9 -11    2.40    1.50 
  -9   9 -11    1.00    1.10 
  -9  -9 -11    3.60    1.30 
  -9  -9  11   -0.50    0.70 
  -9   9  11    1.90    1.00 
  -9  -9  11    0.90    1.20 
  -9  -9  11    1.10    0.50 
   9  -9  11    2.80    1.20 
 -10  -9 -11    0.80    1.00 
 -10  -9 -11    3.10    1.50 
  -9  10 -11    3.10    1.20 
  -9  10  11    1.00    1.10 
   9 -10  11    1.00    0.90 
 -10  -9  11    0.90    0.50 
 -10  -9  11    2.60    1.20 
 -10  -9  11    0.30    0.70 
 -10  -8 -11    0.40    0.80 
 -10  -8 -11    4.90    1.80 
  -8  10 -11    1.10    0.90 
 -10  -8  11    2.00    1.00 
   8 -10  11    3.00    1.10 
 -10  -8  11    0.90    0.60 
  -8  10  11    2.50    1.20 
 -10  -7 -11    2.80    0.90 
 -10  -7 -11    0.40    1.50 
  -7  10 -11    0.40    0.80 
  -7  10  11    1.00    1.10 
   7 -10  11    2.00    0.90 
 -10  -7  11    2.80    1.20 
 -10  -7  11    0.60    1.00 
 -10  -6 -11    8.20    2.10 
 -10  -6 -11    6.70    1.10 
  -6  10 -11    5.00    1.10 
 -10  -6  11    5.20    1.40 
  -6  10  11    4.50    1.30 
  10   6  11    7.20    1.10 
   6 -10  11    5.00    1.30 
 -10  -6  11    6.00    1.50 
  -5  10 -11    0.90    0.60 
 -10  -5 -11    0.20    0.70 
 -10  -5 -11    1.90    1.70 
 -10  -5  11    0.70    1.10 
   5 -10  11    0.70    0.90 
 -10  -5  11    0.50    1.00 
 -10  -4 -11    4.20    1.70 
 -10  -4 -11    3.70    0.80 
  -4  10 -11    1.80    0.70 
 -10  -4  11    2.10    1.20 
  10   4  11    2.80    0.80 
  -4  10  11    4.90    1.30 
  -3  10 -11    6.90    1.00 
 -10  -3 -11    7.90    2.10 
   3 -10  11    5.70    1.30 
   3 -10  11    5.20    0.90 
  10   3  11    7.60    1.10 
 -10  -3  11    7.70    1.50 
  -3  10  11    6.10    1.40 
  -2  10 -11   10.60    1.20 
 -10  -2 -11    7.40    2.20 
   2 -10  11    8.50    1.20 
  -2  10  11   12.70    1.80 
   2 -10  11   13.50    2.00 
 -10  -2  11   14.10    2.00 
 -10  -1 -11    0.10    1.40 
 -10  -1  11    0.60    1.60 
   1 -10  11    0.10    0.30 
   1 -10  11    0.80    0.90 
  10   1  11    1.20    0.50 
  -1  10  11    1.20    0.90 
   0 -10 -11    1.60    1.40 
 -10   0 -11   -0.80    1.30 
   0  10  11    0.70    0.90 
   0 -10  11    0.80    0.90 
 -10   0  11    2.20    1.70 
  10   0  11    0.20    0.50 
   0 -10  11    0.30    0.30 
  -1 -10 -11    0.90    1.30 
 -10   1 -11    0.60    1.40 
 -10   1  11    2.00    1.00 
  -1 -10  11    0.70    0.30 
  -1 -10  11    1.70    1.00 
  10  -1  11    0.60    0.50 
   1  10  11    1.60    0.90 
  -2 -10 -11   11.80    2.40 
 -10   2 -11   12.30    2.40 
 -10   2  11   11.00    1.90 
  10  -2  11   12.80    1.50 
  -2 -10  11   10.30    2.00 
   2  10  11   15.40    2.70 
 -10   3 -11    8.00    1.90 
  -3 -10 -11    9.10    2.20 
  10  -3  11    8.00    1.20 
  -3 -10  11    7.40    1.50 
   3  10  11    7.40    1.60 
 -10   3  11    9.40    1.60 
  -4 -10 -11    4.50    1.70 
 -10   4 -11    4.10    1.70 
  -4 -10  11    2.20    0.40 
  -4 -10  11    4.80    1.40 
  10  -4  11    3.20    0.70 
 -10   4  11    4.80    1.20 
   4  10  11    3.10    1.80 
  -5 -10 -11    1.00    1.60 
 -10   5 -11    1.20    1.40 
  -5 -10  11    0.80    0.30 
   5  10  11    1.00    0.90 
  -5 -10  11    0.40    0.40 
  10  -5  11   -0.10    0.60 
  -5 -10  11    0.30    1.00 
 -10   5  11    0.40    1.00 
  -6 -10 -11    5.10    1.90 
 -10   6 -11    5.50    1.70 
  10  -6  11    6.00    1.00 
   6  10  11    6.50    1.20 
 -10   6  11    5.80    1.40 
  -6 -10  11    3.60    0.60 
  -6 -10  11    4.80    0.80 
  -7 -10 -11    2.80    2.40 
 -10   7 -11    0.80    1.30 
   7  10  11    2.60    0.90 
  -7 -10  11    2.10    1.10 
  10  -7  11    1.80    0.70 
  -7 -10  11    0.90    0.40 
  -8 -10 -11    1.00    1.70 
  -8 -10 -11    3.40    1.50 
 -10   8 -11    1.50    1.30 
  -8 -10  11    2.10    0.60 
  -8 -10  11   -0.40    1.00 
  -8 -10  11    1.70    0.80 
  10  -8  11    1.20    0.80 
 -10   8  11    1.30    1.10 
  -9 -10 -11    1.30    2.40 
 -10   9 -11    0.30    1.20 
  -9 -10 -11    1.70    1.50 
  -9 -10  11    1.30    0.50 
 -10   9  11    2.10    1.10 
  -9 -10  11    1.00    0.60 
  -9 -10  11    1.40    1.10 
 -10 -10 -11    0.00    1.30 
 -10  10 -11    2.40    1.30 
 -10 -10 -11    0.70    1.00 
 -10 -10  11    1.60    0.70 
  10 -10  11    1.50    1.00 
 -10 -10  11    0.50    1.10 
 -10  10  11    3.30    1.30 
 -10 -10  11    1.40    0.50 
 -10  11 -11    2.20    1.20 
 -11 -10 -11    7.00    1.80 
 -11 -10  11    3.20    0.70 
 -11 -10  11    2.70    1.30 
  10 -11  11    3.30    1.20 
 -10  11  11    2.70    1.70 
  -9  11 -11    2.00    1.10 
 -11  -9 -11    6.60    1.10 
 -11  -9 -11    1.50    1.50 
 -11  -9  11    1.90    1.30 
   9 -11  11    6.20    1.30 
 -11  -9  11    2.60    0.90 
  -9  11  11    0.90    1.00 
 -11  -9  11    2.40    0.70 
  -8  11 -11    2.30    0.90 
 -11  -8 -11    2.10    0.80 
 -11  -8 -11    0.70    1.50 
 -11  -8  11    2.60    1.40 
   8 -11  11    0.70    1.00 
 -11  -8  11    2.00    0.70 
  -8  11  11    2.30    1.20 
 -11  -8  11    2.90    1.30 
 -11  -7 -11    5.40    1.10 
  -7  11 -11    7.60    1.20 
 -11  -7 -11    8.90    2.20 
  -7  11  11    4.80    1.50 
 -11  -7  11    6.10    1.10 
   7 -11  11    7.60    1.60 
 -11  -7  11    9.00    1.70 
  -6  11 -11    0.70    0.60 
 -11  -6 -11    2.40    0.90 
 -11  -6 -11    0.00    1.50 
   6 -11  11    2.40    1.10 
  -6  11  11    1.10    1.10 
 -11  -6  11    2.10    1.10 
 -11  -5 -11    5.80    1.20 
 -11  -5 -11    4.60    1.90 
  -5  11 -11    3.10    0.80 
   5 -11  11    3.70    1.20 
 -11  -5  11    5.40    1.40 
  -5  11  11    5.90    1.40 
  -4  11 -11    2.00    0.60 
 -11  -4 -11    2.30    1.70 
   4 -11  11    2.80    1.20 
 -11  -4  11    0.80    1.10 
  11   4  11    3.00    0.70 
  -4  11  11    3.30    1.30 
  -3  11 -11    4.40    0.70 
 -11  -3 -11    5.90    2.50 
 -11  -3  11    4.50    1.40 
   3 -11  11    5.50    1.40 
  11   3  11    6.50    0.90 
 -11  -2 -11    2.90    2.80 
   2 -11  11    1.70    0.90 
  11   2  11    0.90    0.50 
  -2  11  11    1.60    1.00 
 -11  -2  11    1.50    1.00 
 -11  -1 -11   10.50    2.30 
  11   1  11    8.30    1.10 
   1 -11  11   10.80    1.90 
 -11  -1  11    8.90    1.60 
  -1  11  11    7.10    1.60 
   0 -11 -11   -1.60    1.10 
 -11   0 -11    0.20    1.50 
   0  11  11    0.90    0.90 
 -11   0  11    0.50    1.00 
  11   0  11   -0.40    0.40 
   0 -11  11   -0.70    0.90 
  -1 -11 -11   13.30    2.40 
 -11   1 -11   10.10    2.20 
   1  11  11    8.60    1.60 
  -1 -11  11   11.10    2.10 
  11  -1  11    7.30    1.10 
 -11   1  11    9.20    1.60 
  -2 -11 -11    1.30    1.60 
 -11   2 -11    1.50    1.50 
  11  -2  11    1.20    0.50 
   2  11  11    1.60    1.00 
  -2 -11  11    0.20    1.60 
 -11   2  11    1.30    1.00 
  -3 -11 -11    3.90    1.70 
 -11   3 -11    4.70    1.80 
 -11   3  11    6.70    1.50 
   3  11  11    3.80    1.20 
  11  -3  11    6.90    1.00 
  -3 -11  11    3.50    2.20 
  -4 -11 -11    3.80    1.80 
 -11   4 -11    1.40    1.60 
  -4 -11  11    1.70    1.30 
  11  -4  11    2.30    0.70 
   4  11  11    2.00    1.00 
 -11   4  11    2.00    1.10 
 -11   5 -11    3.60    1.70 
  -5 -11 -11    4.70    1.80 
   5  11  11    3.80    1.10 
  11  -5  11    5.90    0.90 
 -11   5  11    1.60    1.20 
  -5 -11  11    4.50    1.40 
 -11   6 -11    2.60    1.50 
   6  11  11    2.40    1.00 
  11  -6  11    1.90    0.70 
  -6 -11  11    0.40    1.00 
 -11   7 -11    6.40    1.80 
  -7 -11 -11    3.80    1.70 
  -7 -11  11    6.10    1.60 
 -11   7  11    4.20    1.30 
  11  -7  11    7.30    1.10 
 -11   8 -11    0.60    1.30 
  -8 -11 -11    3.50    1.60 
  -8 -11  11    2.10    0.50 
  -8 -11  11    2.30    0.50 
  11  -8  11    2.30    0.90 
 -11   8  11    1.00    1.10 
  -8 -11  11    2.70    1.30 
  -9 -11 -11    3.40    1.60 
 -11   9 -11    3.30    1.50 
  -9 -11  11    4.00    1.00 
  -9 -11  11    3.40    1.40 
 -11   9  11    2.60    1.30 
  -9 -11  11    3.20    0.60 
 -10 -11 -11    3.90    1.70 
 -11  10 -11    2.80    1.40 
 -10 -11  11    6.50    1.50 
  11 -10  11    5.10    1.20 
 -10 -11  11    3.80    0.80 
 -11  10  11    3.90    2.10 
 -12  -9 -11   -0.10    1.70 
  -9  12 -11    0.00    0.80 
  -9  12  11    0.20    1.10 
 -12  -9  11   -0.20    0.50 
 -12  -9  11    1.50    1.10 
   9 -12  11    1.20    1.00 
  -8  12 -11    1.30    0.70 
 -12  -8 -11    1.10    1.50 
   8 -12  11   -0.40    0.90 
 -12  -8  11    2.20    1.20 
 -12  -8  11    0.90    0.60 
  -7  12 -11    4.80    1.00 
 -12  -7 -11    6.50    1.90 
  -7  12  11    7.00    1.50 
 -12  -7  11    4.50    1.60 
   7 -12  11    5.00    1.30 
 -12  -6 -11    0.50    1.30 
  -6  12 -11    0.90    0.50 
  -6  12  11    0.50    1.00 
 -12  -6  11    2.30    1.20 
 -12  -6  11    0.80    0.70 
   6 -12  11    2.00    1.10 
 -12  -5 -11   -0.60    1.20 
  -5  12  11    0.40    1.00 
 -12  -5  11   -0.20    1.00 
   5 -12  11    0.30    1.00 
  -4  12 -11    1.60    0.50 
 -12  -4 -11    1.30    1.50 
  -4  12  11    2.40    1.10 
   4 -12  11    1.00    1.00 
 -12  -4  11    1.60    1.20 
 -12  -3 -11    4.70    1.90 
   3 -12  11    2.00    1.20 
 -12  -3  11    4.10    1.30 
  -3  12  11    2.50    1.20 
 -12  -2 -11    7.60    2.10 
   2 -12  11    6.40    1.70 
  -2  12  11   11.30    1.80 
 -12  -2  11   11.50    1.80 
 -12  -1 -11    1.80    1.80 
   1 -12  11    1.80    1.20 
  -1  12  11    1.90    1.10 
 -12  -1  11    4.20    1.30 
 -12   0 -11    4.90    1.90 
   0  12  11    5.70    2.20 
 -12   0  11    4.30    1.30 
   0 -12  11    3.90    1.50 
 -12   1 -11    3.40    1.60 
  -1 -12 -11    2.90    1.70 
   1  12  11    4.70    1.90 
  -1 -12  11    4.30    1.40 
 -12   1  11    2.70    1.30 
  12  -1  11    3.60    0.60 
 -12   2 -11    8.10    2.00 
  -2 -12 -11    8.10    2.00 
   2  12  11    8.30    1.60 
 -12   2  11   11.80    1.90 
  -2 -12  11   12.10    2.10 
  -3 -12 -11    5.00    1.80 
 -12   3 -11    3.80    1.70 
  -3 -12  11    0.70    1.10 
 -12   3  11    3.40    1.20 
   3  12  11    2.70    1.10 
  12  -3  11    2.30    0.60 
 -12   4 -11    2.50    1.80 
  -4 -12 -11    1.30    1.40 
  -4 -12  11    2.60    1.30 
   4  12  11    2.50    1.00 
 -12   4  11    4.00    1.30 
  12  -4  11    1.80    0.60 
 -12   5 -11    5.20    1.90 
  12  -5  11    1.50    0.70 
  -5 -12  11    0.30    1.00 
   5  12  11    2.10    1.00 
  -6 -12 -11   -1.30    1.20 
 -12   6 -11   -0.10    1.40 
  12  -6  11    0.80    0.60 
  -6 -12  11    1.00    1.00 
 -12   6  11    1.80    1.20 
  -7 -12 -11    4.80    1.70 
 -12   7 -11    3.80    1.70 
 -12   7  11    4.90    1.40 
  12  -7  11    6.20    1.00 
  -7 -12  11    3.50    1.30 
 -12   8 -11    2.10    1.40 
  -8 -12 -11    0.90    1.40 
  12  -8  11   -0.10    0.70 
  -8 -12  11    0.50    1.00 
 -12   8  11    2.70    1.30 
  12  -8  11    0.50    1.30 
 -12   9 -11    3.70    1.50 
  -9 -12 -11   -0.50    1.20 
  12  -9  11    1.10    1.40 
 -12   9  11    0.30    1.20 
  -9 -12  11    0.20    1.20 
 -13  -8  11    1.30    1.20 
   8 -13  11    1.00    1.10 
 -13  -7 -11    1.10    1.40 
  -7  13 -11    1.30    0.60 
 -13  -7  11    0.20    1.10 
   7 -13  11    2.10    1.20 
 -13  -7  11    0.00    0.60 
  -7  13  11    2.40    1.30 
  -6  13 -11    3.20    0.70 
 -13  -6  11    3.90    0.90 
 -13  -6  11    5.70    1.70 
   6 -13  11    2.70    1.20 
  -6  13  11    2.80    2.20 
  -5  13 -11    1.70    0.40 
 -13  -5 -11    2.20    1.50 
  -5  13  11    2.80    1.30 
 -13  -5  11    3.70    1.30 
 -13  -5  11    0.20    0.70 
   5 -13  11    0.30    1.00 
 -13  -4 -11   -0.20    1.40 
  -4  13  11    5.10    1.30 
   4 -13  11    3.30    1.20 
 -13  -4  11    2.20    1.20 
 -13  -3 -11    1.40    1.70 
   3 -13  11    4.50    1.40 
 -13  -3  11    2.70    1.20 
  -3  13  11    2.80    1.20 
 -13  -2 -11    1.50    1.60 
 -13  -2  11    5.60    1.40 
   2 -13  11    4.40    1.40 
  -2  13  11    3.20    1.30 
 -13  -1 -11    3.30    1.80 
 -13  -1  11    2.50    1.20 
  -1  13  11    2.40    1.10 
   1 -13  11    6.20    1.50 
 -13   0 -11   -0.20    1.50 
   0  13  11   -0.40    0.90 
 -13   0  11   -0.20    1.00 
   0 -13  11    1.50    1.30 
 -13   1 -11    2.80    1.60 
 -13   1  11    2.30    1.20 
  -1 -13  11    3.30    1.40 
   1  13  11    3.90    1.60 
 -13   2 -11    4.00    1.70 
  -2 -13  11    3.00    1.50 
 -13   2  11    4.80    1.30 
   2  13  11    3.70    1.30 
 -13   3 -11   -0.80    1.50 
  -3 -13 -11    2.50    1.60 
 -13   3  11    2.90    1.20 
  -3 -13  11    2.80    1.30 
   3  13  11    0.80    1.00 
  13  -3  11    3.20    0.60 
  13  -3  11    2.70    0.70 
  -4 -13 -11    2.10    1.60 
 -13   4 -11    0.70    1.50 
  -4 -13  11    4.10    1.40 
   4  13  11    3.20    1.10 
  13  -4  11    3.30    0.70 
  -5 -13 -11    2.30    1.60 
 -13   5 -11    1.00    1.50 
 -13   5  11    1.00    1.10 
  13  -5  11    1.70    0.60 
  -5 -13  11    1.40    1.10 
  13  -5  11    2.40    0.90 
  -6 -13 -11    4.00    1.70 
 -13   6 -11    3.60    1.70 
  -6 -13  11    6.10    1.80 
  13  -6  11    6.10    1.00 
 -13   6  11    3.10    1.40 
  13  -6  11    4.90    1.20 
  -7 -13 -11    1.20    1.30 
 -13   7 -11   -0.20    1.40 
 -13   7  11    1.70    1.10 
  -8 -13  11    0.50    1.10 
  13  -8  11    1.10    0.80 
 -14  -6 -11    1.50    1.50 
  -6  14 -11    0.60    0.40 
  -6  14  11    1.50    1.20 
 -14  -6  11   -1.10    0.90 
 -14  -6  11   -1.10    1.10 
 -14  -5 -11    2.30    1.50 
 -14  -5  11    0.30    1.20 
 -14  -5  11    1.30    0.80 
   5 -14  11    2.00    1.50 
  -5  14  11    1.30    1.10 
 -14  -4 -11    3.60    1.80 
  -4  14  11    3.10    1.20 
 -14  -4  11    1.70    0.80 
   4 -14  11    2.20    1.60 
 -14  -3 -11    2.40    2.60 
   3 -14  11   -0.60    1.10 
  -3  14  11    0.50    1.60 
 -14  -3  11   -0.10    1.10 
  -2  14  11    2.00    1.30 
   2 -14  11    2.50    1.30 
 -14  -2  11    2.20    1.20 
 -14  -1 -11    1.80    1.80 
  -1  14  11    2.60    1.20 
   1 -14  11    1.50    1.30 
 -14  -1  11    3.00    1.30 
 -14   0 -11    1.20    1.70 
   0  14  11    0.40    1.00 
 -14   0  11    2.80    1.20 
   0 -14  11    2.90    1.50 
 -14   1 -11    0.80    1.60 
  -1 -14  11    1.90    1.90 
 -14   1  11    1.50    1.20 
   1  14  11    1.70    1.10 
  -2 -14 -11    3.50    1.50 
 -14   2 -11    2.90    1.70 
   2  14  11    1.20    1.00 
  -3 -14 -11    0.30    1.30 
 -14   3 -11    0.90    1.60 
 -14   3  11   -0.40    1.10 
  -3 -14  11    2.40    1.80 
  -4 -14 -11    2.70    1.50 
 -14   4 -11    4.30    1.80 
  -4 -14  11    1.70    1.30 
 -14   4  11    4.50    1.40 
 -14   5 -11    0.60    1.50 
  -5 -14 -11    5.30    1.70 
 -14   5  11    1.60    1.20 
  14  -5  11    1.30    0.60 
  -5 -14  11    1.90    1.20 
  -6 -14 -11   -0.20    1.30 
 -14   6 -11    1.50    1.70 
  -6 -14  11    1.00    1.20 
 -14   6  11    0.40    1.20 
  14  -6  11    1.20    0.60 
 -15  -2 -11    1.70    1.70 
   2 -15  11    0.30    1.20 
  -2  15  11   -0.30    1.00 
 -15  -2  11   -0.30    1.90 
 -15  -1 -11   -1.20    1.50 
  -1  15  11    2.40    1.20 
   1 -15  11    2.80    1.40 
 -15   0 -11   -0.30    1.30 
 -15   0  11    0.80    1.90 
   0 -15  11    0.20    1.10 
   0  15  11    0.60    1.00 
 -15   1 -11    1.60    1.60 
  -1 -15  11    4.20    1.50 
 -15   1  11    3.20    1.30 
 -15   2 -11    1.50    1.40 
 -15   2  11   -0.80    1.00 
  -2 -15  11    1.20    1.20 
   0   0 -12  857.51   84.69 
   0   0  12  928.41   84.89 
   0   0  12  730.33   84.49 
   0  -1 -12  101.69   10.30 
   0   1 -12  107.99   10.30 
   0   1 -12  100.49   10.30 
  -1   0 -12   97.19   10.30 
   1   0 -12   89.69   10.20 
   0  -1 -12   94.79   10.20 
   1   0 -12   94.29   10.30 
   1   0  12   95.19   10.20 
   0   1  12  108.49   10.20 
   0   1  12  100.59   10.40 
   0  -1  12  102.09   10.50 
  -1   0  12   91.59   10.60 
  -1   0  12   96.59   10.20 
   0  -1  12  102.99   10.20 
   1  -1 -12    2.50    1.00 
   1   1 -12    0.40    0.80 
  -1   1 -12    0.60    0.90 
  -1  -1 -12    0.80    1.00 
   1  -1 -12    0.10    0.60 
  -1   1 -12    0.70    0.80 
   1   1 -12    0.20    0.70 
  -1  -1  12    0.60    1.00 
  -1  -1  12   -0.50    0.70 
  -1   1  12    0.70    0.80 
   1  -1  12   -0.10    0.70 
   1  -1  12    0.40    1.00 
   1   1  12    1.20    1.20 
   1   1  12    0.00    0.70 
  -1   1  12   -0.10    1.00 
   2   1 -12   57.69    5.60 
  -1   2 -12   47.40    5.60 
   1  -2 -12   48.10    5.50 
   2   1 -12   53.49    5.50 
  -2  -1 -12   55.79    5.60 
  -1   2 -12   45.00    5.50 
   1  -2 -12   50.69    5.70 
  -2  -1 -12   53.09    5.70 
   1  -2  12   54.99    5.50 
  -2  -1  12   52.29    5.70 
  -1   2  12   54.89    5.50 
   2   1  12   55.49    5.50 
   1  -2  12   48.40    5.80 
  -2  -1  12   54.89    5.50 
  -1   2  12   47.70    5.70 
   2   1  12   46.60    5.70 
  -2   0 -12  100.09   10.30 
   0   2 -12   99.49   10.20 
   0   2 -12  100.49   10.20 
  -2   0 -12   98.79   10.20 
   2   0 -12   93.69   10.20 
   0  -2 -12   96.59   10.30 
   2   0 -12   96.49   10.20 
   0  -2 -12   94.99   10.20 
   2   0  12  103.09   10.50 
   0  -2  12  101.19   10.40 
   0  -2  12   95.49   10.10 
   0   2  12   94.59   10.10 
   0   2  12  103.59   10.30 
   2   0  12   98.19   10.10 
  -2   0  12   98.09   10.20 
  -2   1 -12   52.19    5.70 
   1   2 -12   53.09    5.60 
  -2   1 -12   52.39    5.70 
  -1  -2 -12   48.90    5.70 
   2  -1 -12   52.09    5.60 
   2  -1 -12   53.49    5.60 
  -1  -2 -12   49.99    5.60 
  -2   1  12   56.09    5.70 
  -2   1  12   54.99    5.60 
  -1  -2  12   52.79    5.60 
   1   2  12   53.19    5.50 
   1   2  12   47.00    5.70 
  -1  -2  12   49.99    5.80 
   2  -1  12   57.69    5.50 
   2  -1  12   42.80    5.90 
   2  -2 -12  227.88   24.70 
   2   2 -12  233.98   24.70 
  -2   2 -12  241.78   24.70 
  -2  -2 -12  256.37   24.90 
   2   2 -12  238.38   25.00 
  -2  -2 -12  242.08   24.80 
   2  -2 -12  244.08   24.80 
  -2  -2  12  240.88   24.70 
   2   2  12  252.97   24.90 
   2  -2  12  237.38   24.90 
   2   2  12  236.18   24.60 
  -2   2  12  269.37   24.80 
  -2   2  12  234.08   24.70 
  -2  -2  12  246.58   24.80 
   2  -2  12  237.38   24.60 
  -3  -2 -12   60.69    6.70 
   2  -3 -12   66.69    6.60 
   2  -3 -12   60.49    6.50 
   3   2 -12   56.09    6.40 
  -2   3 -12   61.59    6.50 
  -3  -2 -12   62.29    6.50 
  -3  -2  12   61.59    6.50 
  -2   3  12   63.59    6.50 
   2  -3  12   55.29    6.70 
   2  -3  12   65.59    6.50 
   3   2  12   59.09    6.70 
  -2   3  12   63.99    6.60 
  -3  -2  12   56.99    6.60 
   1  -3 -12    5.90    1.20 
   1  -3 -12    7.80    1.40 
  -3  -1 -12    7.60    1.20 
   3   1 -12    4.50    1.00 
  -1   3 -12    7.30    1.20 
  -3  -1 -12    5.90    1.50 
   1  -3  12    7.00    1.60 
  -1   3  12    5.30    1.10 
   3   1  12    4.60    1.00 
   3   1  12    5.60    1.40 
  -3  -1  12    4.70    1.40 
   1  -3  12    7.20    1.20 
  -1   3  12    3.70    1.20 
  -3  -1  12    5.60    1.20 
   3   0 -12   66.19    7.70 
   0   3 -12   68.59    7.70 
  -3   0 -12   75.99    7.90 
  -3   0 -12   73.09    7.70 
   0  -3 -12   75.49    7.70 
   0  -3 -12   78.29    7.90 
   0   3 -12   79.89    7.70 
  -3   0  12   75.69    7.70 
   3   0  12   73.99    8.00 
   3   0  12   72.09    7.60 
   0  -3  12   67.29    7.90 
   0   3  12   72.89    7.80 
   0  -3  12   76.39    7.70 
  -3   0  12   66.09    7.80 
   0   3  12   80.19    7.70 
  -3   1 -12    5.70    1.50 
  -1  -3 -12    8.40    1.30 
  -1  -3 -12    9.40    1.70 
   1   3 -12    7.80    1.20 
   1   3 -12    7.30    1.20 
  -3   1 -12    3.60    1.10 
   3  -1 -12    6.80    1.20 
   1   3  12    7.20    1.50 
   3  -1  12    6.20    1.10 
  -1  -3  12    7.00    1.20 
  -3   1  12    7.70    1.50 
  -3   1  12    7.50    1.40 
  -1  -3  12    5.10    1.50 
   3  -1  12    4.80    1.60 
   1   3  12    7.30    1.20 
   2   3 -12   57.59    6.40 
   3  -2 -12   56.49    6.40 
  -3   2 -12   55.59    6.50 
  -2  -3 -12   65.49    7.00 
  -2  -3 -12   65.89    6.70 
  -3   2 -12   60.49    6.50 
   2   3  12   64.59    6.40 
   2   3  12   64.89    6.70 
  -3   2  12   61.49    6.40 
  -3   2  12   58.69    6.50 
   3  -2  12   48.60    6.70 
  -2  -3  12   60.19    6.60 
   3  -2  12   62.99    6.40 
  -2  -3  12   63.69    6.40 
  -3   3 -12   13.90    1.90 
  -3  -3 -12   13.50    2.30 
   3   3 -12    9.50    1.70 
   3  -3 -12   13.50    1.90 
  -3  -3 -12   12.40    1.80 
   3   3  12   14.20    1.90 
  -3   3  12   17.10    1.90 
  -3   3  12    8.50    1.80 
   3  -3  12   13.20    1.70 
   3   3  12   10.40    2.00 
   3  -3  12    9.30    1.90 
  -3  -3  12   12.80    1.80 
  -3  -3  12   12.60    2.00 
  -3   4 -12   62.39    6.70 
  -4  -3 -12   63.09    6.70 
  -4  -3 -12   64.09    7.10 
  -4  -3  12   63.89    6.70 
  -3   4  12   62.19    6.70 
   3  -4  12   59.09    6.60 
  -4  -3  12   64.79    6.80 
   4   3  12   69.69    6.60 
   3  -4  12   56.99    6.80 
  -2   4 -12  191.88   19.00 
  -4  -2 -12  185.18   19.00 
  -4  -2 -12  211.98   19.30 
   2  -4 -12  178.18   19.10 
   2  -4 -12  198.88   19.10 
   2  -4  12  200.88   19.20 
   4   2  12  167.18   18.90 
  -2   4  12  193.28   19.50 
  -4  -2  12  167.28   19.00 
   2  -4  12  168.78   18.90 
  -4  -2  12  188.88   19.10 
   1  -4 -12   88.29    9.40 
   1  -4 -12   86.79    9.50 
  -4  -1 -12   93.99    9.60 
   4   1 -12   88.39    9.40 
  -4  -1 -12   91.39    9.40 
  -1   4 -12   90.49    9.30 
  -4  -1  12   93.69    9.40 
   4   1  12   95.39    9.60 
  -1   4  12   93.59    9.40 
   4   1  12   94.29    9.30 
  -1   4  12   80.39    9.40 
   1  -4  12   94.29    9.40 
  -4  -1  12   95.89   10.00 
   1  -4  12   72.89    9.50 
  -4   0 -12  330.07   33.10 
   0  -4 -12  308.47   33.20 
  -4   0 -12  358.46   33.40 
   4   0 -12  312.97   33.10 
   0   4 -12  347.77   33.10 
   4   0  12  317.37   33.00 
  -4   0  12  342.27   33.30 
   0   4  12  312.77   33.10 
   0   4  12  345.07   33.30 
   0  -4  12  314.07   33.10 
   0  -4  12  312.27   33.30 
  -4   0  12  315.17   33.10 
   4  -1 -12   85.09    9.40 
  -4   1 -12  101.09    9.60 
  -1  -4 -12   92.59    9.60 
  -1  -4 -12   86.39    9.40 
   1   4 -12   91.59    9.30 
  -4   1 -12   88.79    9.40 
  -1  -4  12   89.29    9.40 
   4  -1  12   94.59    9.30 
  -4   1  12   94.59    9.50 
  -1  -4  12   79.59    9.50 
   1   4  12   83.19    9.50 
   1   4  12   88.09    9.30 
  -4   1  12   95.29    9.40 
   4  -1  12   92.39    9.60 
  -2  -4 -12  174.08   19.10 
  -4   2 -12  206.88   19.20 
  -2  -4 -12  209.38   19.30 
  -2  -4  12  195.18   19.20 
   4  -2  12  169.98   18.90 
   4  -2  12  217.48   19.30 
  -4   2  12  182.78   19.10 
   2   4  12  155.58   18.90 
  -2  -4  12  177.68   19.10 
  -4   3 -12   69.89    6.80 
  -3  -4 -12   71.69    7.30 
  -3  -4 -12   54.69    7.00 
   3   4  12   59.29    6.60 
  -4   3  12   64.19    6.70 
   4  -3  12   63.49    6.60 
  -3  -4  12   60.09    6.70 
  -3  -4  12   61.89    6.80 
  -4  -4 -12  122.99   12.10 
  -4   4 -12  116.59   11.80 
  -4  -4 -12  120.19   11.80 
   4   4  12  109.69   11.60 
  -4  -4  12  105.39   11.70 
   4  -4  12  110.49   11.80 
  -4   4  12  112.69   11.70 
  -4  -4  12  109.79   11.80 
   4  -4  12  111.79   11.60 
  -5  -4 -12   18.60    2.30 
  -4   5 -12   17.60    2.40 
  -5  -4 -12   19.10    3.20 
   4  -5  12   20.10    2.30 
   4  -5  12   17.90    2.30 
  -4   5  12   21.70    3.00 
  -5  -4  12   15.20    2.40 
  -5  -4  12   17.30    2.30 
   5   4  12   16.50    2.20 
  -5  -3 -12    2.90    1.60 
  -5  -3 -12    2.80    0.90 
  -3   5 -12    2.80    1.00 
  -3   5  12    2.50    0.90 
   3  -5  12    0.50    0.90 
   3  -5  12    3.30    0.90 
   5   3  12    3.30    0.80 
  -5  -3  12    1.70    1.00 
  -5  -3  12    1.40    1.00 
   2  -5 -12   52.29    5.40 
  -5  -2 -12   51.59    5.20 
  -5  -2 -12   55.89    5.70 
  -2   5 -12   49.50    5.10 
  -5  -2  12   42.80    5.20 
   2  -5  12   47.60    5.30 
   2  -5  12   45.60    5.10 
  -5  -2  12   50.39    5.90 
   5   2  12   43.90    5.10 
  -2   5  12   47.00    5.20 
  -5  -1 -12    2.80    1.30 
  -5  -1 -12    1.50    0.80 
   1  -5 -12    2.50    1.10 
  -1   5 -12    2.30    0.80 
   1  -5 -12    2.00    1.50 
   1  -5  12    1.50    1.00 
   5   1  12    1.90    1.20 
  -5  -1  12    3.00    1.10 
  -5  -1  12    1.90    1.00 
   5   1  12    2.30    0.70 
  -1   5  12    1.70    0.90 
   1  -5  12    4.00    1.00 
   0  -5 -12   33.60    3.70 
  -5   0 -12   32.90    4.00 
  -5   0 -12   32.00    3.60 
   0  -5 -12   37.00    3.90 
   0   5 -12   34.60    3.60 
   5   0  12   36.90    4.00 
  -5   0  12   31.80    3.70 
   0  -5  12   24.90    3.70 
  -5   0  12   32.60    3.80 
   0  -5  12   33.30    3.70 
   0   5  12   32.80    3.70 
   5   0  12   30.60    3.50 
  -1  -5 -12    3.70    1.00 
  -1  -5 -12    2.50    1.40 
  -5   1 -12    1.30    1.10 
  -5   1 -12    2.50    0.80 
   1   5 -12    2.40    0.80 
  -1  -5  12    1.50    1.10 
   5  -1  12    1.20    0.70 
  -5   1  12    1.00    1.00 
  -5   1  12    3.50    1.00 
   5  -1  12    2.60    1.20 
  -1  -5  12    2.10    0.90 
   1   5  12    1.60    0.90 
  -2  -5 -12   57.89    5.60 
  -2  -5 -12   50.99    5.20 
  -5   2 -12   49.60    5.40 
  -2  -5  12   44.30    5.20 
  -2  -5  12   45.70    5.10 
   5  -2  12   45.90    5.00 
   5  -2  12   45.90    5.30 
   2   5  12   47.00    5.00 
  -5   2  12   39.70    5.00 
  -3  -5 -12    2.70    1.40 
  -3  -5 -12    1.10    1.00 
  -5   3 -12    4.40    1.30 
  -3  -5  12    1.50    1.00 
   5  -3  12    1.80    1.10 
   5  -3  12    2.50    0.80 
   3   5  12    3.50    0.90 
  -5   3  12    4.60    1.10 
  -3  -5  12    2.90    1.00 
  -4  -5 -12   18.10    3.30 
  -4  -5 -12   20.20    2.40 
  -5   4 -12   18.50    2.60 
  -5   4  12   19.50    2.50 
  -4  -5  12   16.10    2.40 
   4   5  12   19.60    2.20 
   5  -4  12   16.20    2.40 
   5  -4  12   16.90    2.20 
  -4  -5  12   17.30    2.50 
  -5  -5 -12   17.30    2.50 
  -5  -5 -12   21.20    3.00 
  -5   5 -12   16.30    2.50 
  -5   5  12   18.30    2.30 
  -5  -5  12   17.40    2.50 
  -5  -5  12   20.30    2.70 
   5  -5  12   19.20    2.20 
   5   5  12   20.70    2.20 
   5  -5  12   12.80    2.50 
  -6  -5 -12   75.39    7.20 
  -5   6 -12   53.79    6.50 
  -6  -5 -12   63.59    6.60 
  -6  -5  12   57.99    6.60 
   6   5  12   62.99    6.40 
  -5   6  12   57.39    6.50 
  -6  -5  12   61.69    6.60 
   5  -6  12   60.79    6.40 
  -4   6 -12   24.20    2.80 
  -6  -4 -12   25.00    3.40 
  -6  -4 -12   23.60    2.80 
  -4   6  12   18.90    2.70 
   6   4  12   20.80    2.60 
   4  -6  12   26.20    2.80 
  -6  -4  12   25.90    3.90 
  -6  -4  12   24.00    2.90 
   4  -6  12   22.90    2.70 
  -3   6 -12   32.70    3.80 
  -6  -3 -12   37.90    3.90 
   3  -6  12   33.30    3.90 
   6   3  12   37.70    3.80 
   3  -6  12   35.30    3.90 
  -6  -3  12   31.80    4.00 
  -6  -3  12   33.50    4.10 
   2  -6 -12  305.67   28.60 
  -6  -2 -12  289.17   28.30 
  -2   6 -12  277.07   28.30 
   6   2  12  269.57   28.20 
   2  -6  12  269.97   28.30 
  -2   6  12  245.88   28.30 
  -6  -2  12  289.37   28.50 
  -6  -2  12  261.77   28.30 
   2  -6  12  300.07   28.40 
  -1   6 -12   27.80    3.40 
  -6  -1 -12   36.00    4.20 
   1  -6 -12   28.20    3.70 
  -6  -1 -12   35.00    3.50 
   1  -6  12   32.30    3.50 
   6   1  12   33.50    3.40 
   1  -6  12   24.40    3.50 
  -1   6  12   29.50    3.50 
  -6  -1  12   36.20    3.60 
  -6  -1  12   30.90    3.70 
   0  -6 -12    4.30    1.50 
  -6   0 -12    3.40    1.50 
   0   6 -12    1.10    0.60 
  -6   0 -12    1.40    0.70 
  -6   0  12    2.10    1.10 
   0   6  12    1.10    0.90 
  -6   0  12    1.10    0.80 
   0  -6  12    0.40    0.80 
   0  -6  12    1.40    0.90 
   6   0  12    0.90    0.60 
  -6   1 -12   37.90    4.00 
  -1  -6 -12   30.10    3.60 
  -1  -6 -12   26.40    3.80 
   6  -1  12   33.00    4.50 
   6  -1  12   31.50    3.40 
  -6   1  12   34.20    3.60 
   1   6  12   29.70    3.50 
  -1  -6  12   26.20    3.50 
  -1  -6  12   31.30    3.60 
  -6   2 -12  323.77   28.90 
  -2  -6 -12  318.37   29.00 
  -2  -6 -12  272.37   28.70 
  -2  -6  12  278.97   28.70 
  -2  -6  12  278.87   28.70 
   6  -2  12  266.87   28.50 
  -6   2  12  250.17   28.60 
   6  -2  12  303.97   28.80 
   2   6  12  249.88   28.50 
  -3  -6 -12   34.10    4.00 
  -6   3 -12   37.00    4.40 
  -3  -6  12   34.00    4.50 
  -6   3  12   36.70    4.50 
   6  -3  12   35.90    3.80 
   3   6  12   34.80    3.80 
  -3  -6  12   30.70    4.00 
   6  -3  12   36.60    4.20 
  -4  -6 -12   22.30    3.10 
  -6   4 -12   27.00    3.30 
  -4  -6 -12   32.50    3.60 
   6  -4  12   24.90    2.90 
  -6   4  12   26.20    3.00 
   6  -4  12   28.10    3.20 
  -4  -6  12   29.00    3.10 
   4   6  12   22.20    2.90 
  -4  -6  12   21.70    3.10 
  -5  -6 -12   67.19    7.20 
  -5  -6 -12   66.49    6.80 
  -6   5 -12   61.39    6.80 
   6  -5  12   62.49    6.50 
  -5  -6  12   56.39    6.70 
   6  -5  12   57.19    6.70 
   5   6  12   64.29    6.50 
  -6   5  12   64.19    6.70 
  -5  -6  12   61.29    6.70 
  -6   6 -12  262.77   23.90 
   6   6  12  212.68   23.60 
   6  -6  12  231.68   23.70 
  -6  -6  12  237.48   23.80 
  -6  -6  12  228.18   23.80 
   6  -6  12  248.38   23.80 
  -6   6  12  208.08   23.70 
  -6   7 -12   22.30    2.80 
  -7  -6 -12   22.90    2.80 
  -7  -6 -12   28.60    3.70 
  -7  -6  12   20.70    2.90 
   7   6  12   21.50    2.60 
  -7  -6  12   20.90    2.80 
  -6   7  12   20.80    2.70 
   6  -7  12   23.20    2.70 
   6  -7  12   21.40    2.60 
  -7  -5 -12   10.20    1.60 
  -5   7 -12   10.00    1.60 
  -7  -5 -12   11.80    2.40 
   7   5  12   11.60    1.50 
  -7  -5  12    9.00    2.00 
  -7  -5  12    7.90    1.60 
  -5   7  12   11.30    1.70 
   5  -7  12    8.10    1.50 
  -4   7 -12   13.20    1.80 
  -7  -4 -12   17.00    1.90 
  -7  -4 -12   13.60    2.50 
   7   4  12   10.60    1.70 
   4  -7  12   11.40    1.90 
  -7  -4  12   16.70    2.10 
   4  -7  12   12.60    1.70 
  -7  -4  12   10.50    2.00 
  -4   7  12   12.70    1.90 
  -7  -3 -12    5.60    1.90 
  -3   7 -12    3.00    0.90 
  -7  -3 -12    6.00    1.10 
   3  -7  12    4.70    1.10 
   3  -7  12    3.00    0.90 
   7   3  12    6.00    0.90 
  -7  -3  12    4.60    1.30 
  -7  -3  12    4.30    1.30 
  -3   7  12    6.90    1.20 
  -2   7 -12   55.09    5.60 
  -7  -2 -12   62.39    6.20 
  -7  -2 -12   54.79    5.70 
   7   2  12   50.49    5.50 
  -7  -2  12   50.19    5.80 
  -2   7  12   52.59    5.70 
   2  -7  12   47.70    5.60 
   2  -7  12   54.29    5.70 
  -7  -1 -12   25.60    2.80 
   1  -7 -12   26.20    3.40 
  -1   7 -12   24.80    2.70 
   1  -7  12   19.30    2.70 
  -7  -1  12   20.40    3.00 
  -1   7  12   20.30    3.30 
   1  -7  12   21.20    3.00 
   7   1  12   27.00    2.70 
  -7  -1  12   24.60    3.20 
   0  -7 -12   10.30    2.50 
  -7   0 -12    6.50    2.00 
   0   7 -12    8.40    1.20 
   0  -7  12    6.60    1.30 
   0   7  12    7.80    1.40 
   7   0  12    8.00    1.20 
  -7   0  12    8.10    1.60 
  -7   1 -12   24.50    3.40 
  -1  -7 -12   29.30    3.80 
   1   7  12   26.10    2.80 
  -7   1  12   20.40    3.30 
   7  -1  12   24.70    2.70 
  -1  -7  12   20.90    2.80 
  -1  -7  12   21.60    3.10 
  -7   2 -12   58.79    6.20 
  -2  -7 -12   64.19    6.40 
  -2  -7  12   54.79    5.80 
   2   7  12   50.39    5.70 
  -2  -7  12   51.09    5.90 
  -7   2  12   48.00    6.30 
   7  -2  12   52.99    5.60 
  -3  -7 -12    6.90    1.90 
  -7   3 -12    5.40    2.40 
  -3  -7 -12    4.00    1.30 
   3   7  12    6.60    1.10 
  -3  -7  12    4.80    1.20 
   7  -3  12    5.00    0.90 
  -7   3  12    3.10    1.20 
  -3  -7  12    5.70    1.20 
  -7   4 -12   16.00    2.50 
  -4  -7 -12   12.40    2.10 
  -4  -7 -12   15.20    2.60 
   4   7  12   13.90    1.90 
  -4  -7  12   15.20    2.20 
  -4  -7  12   13.10    2.00 
   7  -4  12   13.70    1.80 
  -7   4  12   12.70    2.00 
  -7   5 -12    9.80    2.00 
  -5  -7 -12    8.30    2.30 
  -5  -7 -12   11.40    1.90 
   5   7  12   11.10    1.60 
  -7   5  12   12.60    1.80 
  -5  -7  12    6.20    1.50 
  -5  -7  12    8.60    1.70 
   7  -5  12   12.60    1.50 
   7  -5  12    8.10    1.70 
  -6  -7 -12   23.60    3.00 
  -6  -7 -12   32.10    3.80 
  -7   6 -12   21.30    3.00 
  -6  -7  12   22.00    2.90 
   7  -6  12   21.10    2.70 
  -7   6  12   23.40    2.90 
   6   7  12   22.10    2.70 
  -6  -7  12   25.30    2.80 
   7  -6  12   21.40    2.80 
  -7   7 -12   -0.10    1.00 
  -7  -7 -12    1.10    1.10 
  -7  -7 -12    1.50    1.70 
  -7  -7  12    1.50    0.80 
   7  -7  12    0.10    0.60 
   7  -7  12    0.30    0.70 
   7   7  12    0.20    0.80 
  -7   7  12    0.60    1.00 
  -7  -7  12    0.00    0.90 
  -7   8 -12    2.20    1.10 
  -8  -7 -12    2.40    1.20 
   8   7  12    3.20    0.90 
  -8  -7  12    1.70    1.00 
   7  -8  12    3.00    0.80 
  -7   8  12    2.50    1.80 
  -8  -7  12    2.00    1.00 
  -6   8 -12    4.80    1.20 
  -8  -6 -12    7.20    2.00 
  -8  -6 -12    6.40    1.30 
   6  -8  12    5.10    1.00 
  -6   8  12    7.60    1.30 
   8   6  12    5.40    1.10 
  -8  -6  12    3.80    1.30 
  -8  -6  12    4.60    1.40 
   6  -8  12    6.30    1.80 
  -8  -5 -12   20.00    2.20 
  -5   8 -12   14.70    2.00 
  -8  -5 -12   13.70    2.80 
   8   5  12   18.10    2.00 
  -8  -5  12   15.20    2.20 
   5  -8  12   11.60    1.80 
  -5   8  12   16.80    2.20 
  -8  -5  12   16.90    2.30 
   5  -8  12   14.10    2.20 
  -8  -4 -12   66.69    6.40 
  -8  -4 -12   71.19    7.00 
  -4   8 -12   60.39    6.30 
   4  -8  12   52.59    6.20 
   8   4  12   60.59    6.20 
  -8  -4  12   61.39    6.50 
  -8  -4  12   57.69    6.40 
   4  -8  12   59.09    6.50 
  -4   8  12   52.29    6.40 
  -8  -3 -12   22.70    2.30 
  -3   8 -12   15.70    2.10 
  -8  -3 -12   22.30    3.30 
  -8  -3  12   16.10    2.40 
   3  -8  12   12.70    2.00 
   8   3  12   21.30    2.10 
  -3   8  12   17.70    2.40 
  -8  -3  12   16.20    2.50 
   3  -8  12   17.90    2.30 
  -2   8 -12   41.90    4.20 
  -8  -2 -12   42.30    4.30 
   2  -8  12   42.20    4.20 
  -2   8  12   30.30    4.30 
   2  -8  12   40.20    4.40 
  -8  -2  12   38.60    4.40 
   8   2  12   36.60    4.20 
   1  -8 -12   74.59    7.10 
  -1   8 -12   63.49    6.50 
  -8  -1 -12   73.69    7.30 
  -8  -1  12   61.39    6.70 
  -1   8  12   60.99    6.70 
   1  -8  12   59.29    6.70 
   1  -8  12   50.99    6.50 
   8   1  12   67.99    6.50 
   0  -8 -12  194.28   16.90 
   0   8  12  138.09   16.50 
  -8   0  12  154.98   16.60 
   0  -8  12  169.68   16.40 
   8   0  12  158.28   16.40 
   0  -8  12  157.38   16.60 
  -1  -8 -12   69.79    7.40 
  -8   1 -12   74.29    7.50 
  -1  -8  12   57.59    6.80 
   8  -1  12   66.49    6.80 
  -1  -8  12   60.69    7.00 
  -8   1  12   68.89    7.00 
  -2  -8 -12   54.09    5.30 
  -8   2  12   37.30    4.60 
  -2  -8  12   37.30    4.60 
   8  -2  12   40.20    4.40 
  -2  -8  12   44.50    4.50 
  -3  -8 -12   24.50    3.20 
   3   8  12   18.70    2.30 
  -8   3  12   19.20    2.40 
   8  -3  12   18.50    2.10 
  -3  -8  12   14.60    2.20 
  -3  -8  12   17.60    2.50 
  -8   4 -12   71.39    7.00 
  -4  -8 -12   73.49    7.20 
  -4  -8  12   56.59    6.70 
   8  -4  12   62.09    6.50 
  -8   4  12   54.99    6.60 
  -4  -8  12   63.99    6.50 
   4   8  12   57.69    6.50 
  -8   5 -12   19.20    2.80 
  -5  -8 -12   18.30    3.00 
  -5  -8 -12   19.50    3.50 
   5   8  12   13.60    2.10 
  -8   5  12   16.90    2.30 
  -5  -8  12   14.10    2.00 
  -5  -8  12   15.20    2.40 
   8  -5  12   16.80    2.00 
  -6  -8 -12    9.00    2.20 
  -6  -8 -12    4.90    1.50 
  -8   6 -12    6.70    1.60 
  -6  -8  12    5.30    1.40 
  -6  -8  12    4.90    1.10 
   6   8  12    5.30    1.20 
  -8   6  12    5.00    1.30 
   8  -6  12    5.30    1.00 
  -7  -8 -12    2.80    1.20 
  -8   7 -12    3.20    1.30 
  -7  -8 -12    6.00    2.90 
   8  -7  12    3.00    0.90 
  -7  -8  12    2.50    1.20 
   7   8  12    3.40    1.00 
  -7  -8  12    1.10    0.80 
  -8   8 -12   38.90    4.50 
  -8  -8 -12   48.30    5.10 
  -8  -8 -12   40.50    4.50 
  -8   8  12   35.10    4.40 
   8   8  12   36.40    4.30 
  -8  -8  12   38.80    4.30 
  -8  -8  12   41.40    6.10 
  -9  -8 -12   11.70    2.40 
  -8   9 -12   13.80    2.10 
  -9  -8 -12   15.30    2.80 
   9   8  12   13.30    1.80 
  -9  -8  12   12.40    2.10 
  -9  -8  12   10.00    2.10 
   8  -9  12   14.20    1.90 
  -8   9  12    9.50    1.80 
  -7   9 -12    6.50    1.40 
  -9  -7 -12   10.60    2.10 
  -9  -7 -12    3.90    1.90 
  -7   9  12    9.40    1.60 
  -9  -7  12    9.10    1.50 
   9   7  12   11.60    1.50 
   7  -9  12   12.10    1.60 
   7  -9  12    5.60    1.20 
  -6   9 -12    9.70    1.60 
  -9  -6 -12    9.90    2.50 
  -9  -6 -12   12.30    1.80 
  -6   9  12   13.10    1.80 
  -9  -6  12   12.10    1.80 
   6  -9  12    9.30    1.60 
  -9  -6  12    9.30    1.80 
   6  -9  12   10.90    1.80 
   9   6  12   12.30    1.60 
  -9  -5 -12    8.40    3.20 
  -5   9 -12    7.20    1.30 
  -9  -5 -12   10.90    1.50 
  -9  -5  12   11.00    1.80 
   5  -9  12   13.00    1.70 
  -9  -5  12   10.50    1.70 
   5  -9  12    7.50    1.30 
  -9  -4 -12    4.20    1.90 
  -9  -4 -12    6.60    1.20 
  -4   9 -12    5.90    1.00 
  -4   9  12    5.50    1.30 
   9   4  12    5.90    1.00 
  -9  -4  12    7.00    1.50 
   4  -9  12    6.40    1.90 
   4  -9  12    5.30    0.90 
  -3   9 -12    3.30    0.70 
  -9  -3 -12    2.00    1.80 
  -9  -3 -12    4.30    0.90 
  -3   9  12    4.60    1.20 
   3  -9  12    1.90    0.60 
   9   3  12    3.90    0.80 
   3  -9  12    2.10    1.00 
  -9  -3  12    3.80    1.20 
  -2   9 -12   10.80    1.50 
  -9  -2 -12   12.00    2.40 
  -9  -2  12   10.00    1.80 
   9   2  12   13.00    1.50 
   2  -9  12   11.50    1.80 
  -2   9  12    9.80    1.70 
   2  -9  12   10.50    1.30 
  -1   9 -12    0.30    0.50 
   1  -9 -12    1.50    1.20 
  -9  -1 -12    1.00    1.60 
   1  -9  12   -0.10    0.90 
  -1   9  12    0.40    0.90 
   9   1  12    0.80    0.60 
   1  -9  12    0.00    0.40 
  -9  -1  12    1.70    0.90 
   0  -9 -12   11.80    2.20 
  -9   0 -12   17.20    2.70 
  -9   0  12   10.00    1.70 
   9   0  12    9.40    1.40 
   0  -9  12   11.90    1.90 
   0   9  12   11.10    1.70 
  -1  -9 -12    0.50    1.30 
  -9   1 -12    1.60    1.50 
  -1  -9  12    0.00    1.00 
   9  -1  12    0.10    0.50 
  -9   1  12   -0.60    0.90 
   1   9  12    2.20    1.00 
  -1  -9  12   -0.40    0.40 
  -9   2 -12   15.80    2.50 
  -2  -9 -12   16.20    2.60 
  -9   2  12   11.10    1.90 
   2   9  12   11.00    1.80 
  -2  -9  12   11.00    1.40 
  -2  -9  12   13.70    2.00 
   9  -2  12   11.40    1.50 
  -3  -9 -12    3.50    1.80 
  -9   3  12    4.20    1.20 
  -3  -9  12    1.80    0.60 
   3   9  12    3.90    1.20 
  -3  -9  12    1.80    1.10 
   9  -3  12    2.30    0.70 
  -9   4 -12    6.80    1.90 
  -4  -9 -12    7.70    2.00 
  -9   4  12    7.10    1.50 
   4   9  12    3.90    1.60 
  -4  -9  12    6.90    1.60 
   9  -4  12    6.80    1.10 
  -5  -9 -12    7.20    2.20 
  -9   5 -12    9.90    2.10 
   9  -5  12   10.90    1.50 
   5   9  12   13.60    1.80 
  -5  -9  12    9.50    2.20 
  -9   5  12   12.90    1.90 
  -5  -9  12    8.90    1.40 
  -9   6 -12   10.40    2.10 
  -6  -9 -12    6.30    2.40 
   6   9  12   11.60    1.70 
   9  -6  12   11.20    1.50 
  -6  -9  12    8.80    2.40 
  -6  -9  12    9.80    1.40 
  -9   6  12    9.70    2.40 
  -9   7 -12    7.10    1.80 
  -7  -9 -12    7.70    2.00 
   9  -7  12   10.60    1.50 
  -9   7  12    9.60    1.70 
  -7  -9  12    9.00    1.40 
   7   9  12    9.50    1.50 
  -7  -9  12    7.60    1.60 
  -8  -9 -12   11.10    2.10 
  -9   8 -12   14.00    2.20 
  -8  -9 -12   14.80    2.60 
  -8  -9  12   10.50    2.00 
   9  -8  12   12.50    1.90 
  -8  -9  12   13.90    1.70 
  -9   8  12    7.00    1.80 
   8   9  12   12.60    1.90 
  -9  -9 -12    4.80    1.30 
  -9   9 -12    2.60    1.30 
  -9  -9 -12    2.40    1.60 
  -9  -9  12    0.40    1.10 
  -9  -9  12    2.90    0.80 
  -9  -9  12    1.50    0.60 
  -9   9  12    2.60    1.20 
   9  -9  12    2.60    1.00 
 -10  -9 -12    2.90    1.70 
 -10  -9 -12    3.20    1.10 
  -9  10 -12    4.40    2.10 
   9 -10  12    2.80    1.10 
 -10  -9  12    3.40    0.70 
  -9  10  12    2.30    1.30 
 -10  -9  12    4.10    1.50 
  -8  10 -12   15.40    2.10 
 -10  -8 -12   13.60    2.00 
 -10  -8 -12   16.90    2.80 
 -10  -8  12   14.90    2.00 
 -10  -8  12   11.40    2.20 
  -8  10  12   10.70    2.20 
 -10  -8  12   16.30    1.80 
   8 -10  12   13.20    2.10 
 -10  -7 -12   13.40    1.80 
  -7  10 -12    9.70    1.70 
 -10  -7 -12   14.70    2.60 
   7 -10  12   12.90    1.90 
  10   7  12   16.40    1.80 
 -10  -7  12   14.20    1.90 
 -10  -7  12    8.10    1.90 
  -7  10  12    7.40    1.70 
  -6  10 -12   17.00    2.20 
 -10  -6 -12   19.40    2.30 
 -10  -6 -12   25.20    3.10 
  10   6  12   17.40    2.20 
 -10  -6  12   20.10    2.70 
   6 -10  12   16.90    2.40 
  -6  10  12   16.90    2.60 
  -5  10 -12   19.00    2.60 
 -10  -5 -12   29.40    3.60 
 -10  -5 -12   26.20    2.70 
 -10  -5  12   23.70    3.00 
   5 -10  12   20.80    2.60 
  -5  10  12   23.10    3.00 
  10   5  12   23.20    2.60 
   5 -10  12   24.10    3.00 
 -10  -4 -12   59.99    6.10 
  -4  10 -12   54.29    6.00 
 -10  -4 -12   72.59    6.90 
   4 -10  12   49.99    6.60 
   4 -10  12   65.59    6.00 
  -4  10  12   48.30    6.30 
  10   4  12   56.09    6.00 
 -10  -4  12   58.69    6.40 
 -10  -3 -12   21.90    4.70 
   3 -10  12   14.80    2.10 
  10   3  12   25.10    2.50 
 -10  -3  12   21.10    2.70 
   3 -10  12   21.60    2.60 
  -2  10 -12    9.00    1.30 
 -10  -2 -12   15.60    2.90 
 -10  -2  12   12.50    1.90 
   2 -10  12   10.30    1.80 
  -2  10  12   11.80    1.80 
   2 -10  12   12.50    1.50 
 -10  -1 -12    9.40    2.20 
   1 -10  12    5.40    1.40 
 -10  -1  12    7.80    1.40 
  -1  10  12    9.00    1.50 
   1 -10  12    5.10    0.80 
   0 -10 -12   53.09    5.20 
 -10   0 -12   53.59    5.30 
   0 -10  12   38.20    4.70 
  10   0  12   42.60    4.30 
   0  10  12   35.50    4.50 
   0 -10  12   39.30    4.20 
 -10   0  12   36.40    4.60 
 -10   1 -12    8.40    2.00 
  -1 -10 -12    5.20    1.70 
  -1 -10  12    4.70    0.80 
  -1 -10  12    7.30    1.60 
   1  10  12    9.40    1.50 
 -10   1  12    5.30    1.30 
  10  -1  12    7.90    1.00 
 -10   2 -12   19.20    2.90 
  -2 -10 -12   15.10    2.50 
 -10   2  12   10.50    1.80 
  -2 -10  12   14.00    3.00 
  10  -2  12   11.40    1.50 
  -2 -10  12   10.60    1.30 
   2  10  12   11.60    1.80 
  -3 -10 -12   26.60    3.40 
  -3 -10  12   15.60    2.00 
   3  10  12   21.30    2.60 
  10  -3  12   23.80    2.30 
  -3 -10  12   19.90    3.40 
 -10   3  12   20.80    2.70 
 -10   4 -12   76.59    7.00 
  -4 -10 -12   70.69    7.10 
  -4 -10  12   57.49    6.10 
  10  -4  12   59.99    6.20 
  -4 -10  12   53.99    6.60 
   4  10  12   51.69    6.40 
 -10   5 -12   23.80    3.50 
  10  -5  12   26.30    2.70 
  -5 -10  12   20.30    2.40 
  -5 -10  12   21.20    3.10 
   5  10  12   23.30    2.80 
 -10   5  12   23.20    3.80 
 -10   6 -12   23.10    3.20 
  -6 -10 -12   27.00    3.30 
  -6 -10  12   16.50    2.60 
 -10   6  12   18.50    2.60 
  -6 -10  12   18.00    2.40 
   6  10  12   14.00    2.50 
  10  -6  12   19.60    2.30 
  -6 -10  12   21.50    2.10 
  -7 -10 -12   14.70    2.60 
 -10   7 -12   12.50    2.40 
  -7 -10  12   11.30    1.40 
  10  -7  12   15.20    1.80 
   7  10  12   15.20    2.30 
  -7 -10  12   10.10    2.00 
  -7 -10  12   12.30    1.60 
 -10   7  12   11.60    2.00 
 -10   8 -12   18.20    2.70 
  -8 -10 -12   20.60    3.00 
 -10   8  12   10.80    2.10 
   8  10  12   12.90    2.10 
  -8 -10  12   14.10    2.40 
  -8 -10  12   14.60    1.80 
  10  -8  12   15.90    2.00 
  -8 -10  12   16.10    2.00 
 -10   9 -12    3.80    1.50 
  -9 -10 -12    2.10    1.60 
  10  -9  12    4.70    1.10 
  -9 -10  12    0.10    1.10 
 -10   9  12    3.80    1.30 
  -9 -10  12    3.70    0.70 
  -9 -10  12    2.70    0.70 
 -10 -10 -12   -0.30    2.20 
 -10  10 -12    1.20    1.10 
 -10 -10  12    2.20    0.60 
  10 -10  12    4.00    1.10 
 -10  10  12    1.30    1.80 
 -10 -10  12    4.60    1.50 
 -11  -9 -12   -1.00    2.00 
  -9  11 -12    1.50    1.20 
 -11  -9  12   -0.30    1.00 
 -11  -9  12    0.40    0.50 
   9 -11  12    1.10    1.00 
  -9  11  12    0.70    1.10 
  -8  11 -12    5.30    1.10 
 -11  -8 -12    3.70    1.10 
 -11  -8 -12    3.90    2.00 
 -11  -8  12    5.70    1.50 
  -8  11  12    3.30    2.10 
   8 -11  12    2.90    1.20 
 -11  -8  12    3.10    0.80 
  -7  11 -12    1.60    0.80 
 -11  -7 -12    3.30    1.70 
 -11  -7 -12    1.20    0.70 
   7 -11  12    1.40    1.00 
 -11  -7  12    2.20    1.20 
  -7  11  12    0.80    1.10 
 -11  -6 -12    0.40    1.40 
  -6  11 -12    1.10    0.60 
 -11  -6 -12    1.40    0.70 
   6 -11  12    2.10    1.00 
 -11  -6  12   -1.50    0.90 
  -6  11  12    0.80    1.10 
 -11  -5 -12    0.30    1.50 
  -5  11 -12   -0.20    0.50 
 -11  -5 -12    1.20    0.60 
 -11  -5  12    0.80    1.20 
  -5  11  12    0.20    0.90 
   5 -11  12    0.50    0.90 
 -11  -4 -12   22.70    3.20 
  -4  11 -12   15.20    2.00 
 -11  -4  12   16.60    2.40 
  11   4  12   16.00    1.90 
  -4  11  12   12.60    2.20 
   4 -11  12   14.90    2.60 
  -3  11 -12    6.30    1.00 
 -11  -3 -12    7.40    2.10 
  11   3  12    9.70    1.20 
 -11  -3  12    6.50    1.50 
  -3  11  12    7.00    1.50 
   3 -11  12    7.10    1.50 
 -11  -2 -12    0.60    1.60 
  -2  11  12    0.60    1.00 
 -11  -2  12    2.30    1.20 
   2 -11  12    1.60    1.10 
  11   2  12    2.30    0.60 
 -11  -1 -12   10.70    2.30 
 -11  -1  12   11.80    1.90 
  11   1  12   13.00    1.50 
   1 -11  12    9.50    2.00 
  -1  11  12   12.40    2.00 
 -11   0 -12    8.50    2.20 
   0 -11 -12   12.70    2.40 
   0 -11  12    6.90    1.60 
  11   0  12    8.00    1.20 
 -11   0  12    9.30    1.60 
  -1 -11 -12   10.80    2.20 
 -11   1 -12   12.50    3.10 
  -1 -11  12    8.40    1.80 
 -11   1  12    9.10    1.70 
   1  11  12   12.10    1.80 
 -11   2 -12    1.50    2.70 
  -2 -11 -12    4.40    2.00 
   2  11  12    2.80    1.10 
  -2 -11  12    1.10    1.10 
 -11   2  12   -0.10    1.00 
  11  -2  12    1.90    0.60 
   3  11  12    8.70    1.60 
  -3 -11  12    8.30    1.80 
 -11   3  12    7.30    1.60 
  11  -3  12    7.90    1.20 
  -4 -11 -12   19.30    3.40 
 -11   4 -12   15.80    4.20 
   4  11  12   15.50    2.30 
  11  -4  12   16.30    2.00 
  -4 -11  12   15.30    2.50 
 -11   5 -12    0.20    2.20 
  -5 -11 -12   -1.10    1.30 
  11  -5  12   -0.10    0.60 
   5  11  12    0.50    0.90 
  -5 -11  12    1.70    1.20 
 -11   5  12   -0.70    1.00 
 -11   6 -12    0.80    1.60 
  -6 -11 -12   -0.10    1.40 
  11  -6  12    1.10    0.70 
  -6 -11  12    1.40    1.20 
 -11   6  12    0.40    1.00 
   6  11  12    0.80    0.90 
  -7 -11 -12    1.70    1.40 
 -11   7 -12    2.70    1.60 
  -7 -11  12    1.20    0.40 
   7  11  12    2.30    1.00 
 -11   7  12    0.60    1.00 
  -7 -11  12    2.30    1.20 
  11  -7  12    3.40    0.80 
  -7 -11  12    1.20    0.30 
  -8 -11 -12    4.00    1.70 
 -11   8 -12    2.80    2.00 
  -8 -11  12    4.60    1.40 
  11  -8  12    3.80    1.00 
 -11   8  12    4.50    1.30 
  -8 -11  12    3.40    0.60 
 -11   9 -12    2.10    2.30 
  -9 -11 -12    2.40    1.60 
  -9 -11  12    0.70    0.60 
  11  -9  12    0.90    0.80 
  -9 -11  12    0.10    1.60 
 -12  -8 -12   22.90    3.40 
  -8  12 -12   13.60    2.20 
 -12  -8  12   21.00    2.80 
   8 -12  12   23.00    2.60 
 -12  -8  12   18.50    2.30 
  -8  12  12   16.10    2.70 
  -7  12 -12    2.40    0.70 
 -12  -7 -12    2.70    2.60 
  -7  12  12    2.40    1.20 
 -12  -7  12    2.90    0.80 
   7 -12  12    1.20    1.10 
 -12  -7  12    4.00    1.40 
 -12  -6 -12    0.40    1.70 
  -6  12 -12    2.00    0.60 
   6 -12  12    1.20    1.10 
 -12  -6  12    0.20    1.10 
  -5  12 -12    0.10    0.50 
 -12  -5 -12   -1.50    1.40 
 -12  -5  12   -0.70    1.00 
  -5  12  12    2.40    1.20 
   5 -12  12    0.60    1.00 
  -4  12 -12   24.00    2.80 
 -12  -4 -12   32.60    3.90 
   4 -12  12   29.10    3.60 
  -4  12  12   27.80    3.40 
 -12  -3 -12   12.30    2.50 
 -12  -3  12   11.70    2.10 
  -3  12  12    6.60    1.60 
   3 -12  12    8.70    1.80 
 -12  -2 -12    3.30    1.70 
  -2  12  12    0.30    1.10 
 -12  -2  12   -0.30    1.00 
   2 -12  12    1.60    1.20 
  12   2  12    2.20    0.50 
 -12  -1 -12   20.70    3.50 
 -12  -1  12   17.50    2.80 
  12   1  12   21.80    2.20 
  -1  12  12   18.10    2.60 
   1 -12  12   20.80    2.80 
 -12   0 -12   83.99    7.80 
   0  12  12   51.89    7.00 
 -12   0  12   62.99    7.10 
  12   0  12   69.39    6.70 
   0 -12  12   67.39    7.30 
  -1 -12 -12   17.20    3.10 
 -12   1 -12   23.90    3.60 
  -1 -12  12   20.60    3.00 
 -12   1  12   18.30    2.80 
  12  -1  12   22.20    2.30 
  -2 -12 -12    1.20    1.50 
 -12   2 -12    3.10    1.80 
  12  -2  12    2.00    0.60 
 -12   2  12    5.00    2.20 
   2  12  12    0.40    1.00 
  -2 -12  12    2.20    1.20 
  -3 -12 -12   10.60    2.20 
   3  12  12    7.70    1.60 
  -3 -12  12    7.30    1.70 
 -12   3  12    6.10    1.90 
  -4 -12 -12   33.00    4.10 
 -12   4 -12   31.70    4.20 
  12  -4  12   32.30    3.20 
 -12   4  12   23.50    3.60 
  -4 -12  12   26.80    3.70 
 -12   5 -12    1.10    1.50 
  -5 -12 -12    0.70    1.40 
  -5 -12  12   -0.20    0.90 
   5  12  12   -0.50    0.80 
 -12   5  12    0.40    1.10 
  12  -5  12    0.40    0.60 
  -6 -12 -12    0.70    1.40 
 -12   6 -12    1.30    1.40 
   6  12  12    0.30    0.90 
 -12   6  12    1.00    1.10 
  -6 -12  12   -0.60    1.00 
  12  -6  12    2.00    0.70 
 -12   7 -12    4.10    1.70 
  -7 -12 -12    3.40    1.70 
  12  -7  12    3.40    0.90 
 -12   7  12    4.60    1.40 
 -12   8 -12   18.00    3.10 
  -8 -12 -12   22.70    3.10 
  -8 -12  12   16.60    2.80 
  12  -8  12   19.70    2.40 
 -12   8  12   16.40    2.80 
 -13  -6 -12   -2.00    1.40 
  -6  13 -12    0.00    0.40 
 -13  -6  12    1.20    1.20 
 -13  -6  12   -0.50    0.60 
  -6  13  12    0.10    1.00 
   6 -13  12    1.20    1.10 
 -13  -5 -12    4.50    1.90 
  -5  13 -12    3.30    0.60 
 -13  -5  12    5.00    1.50 
  -5  13  12    3.40    1.30 
   5 -13  12    6.80    1.50 
 -13  -4 -12    2.70    2.70 
  -4  13  12    1.80    1.70 
 -13  -4  12    2.50    1.30 
   4 -13  12    3.60    1.40 
 -13  -3  12   -0.90    1.00 
  -3  13  12    0.90    1.20 
   3 -13  12   -0.20    1.00 
 -13  -2 -12    1.10    1.50 
  -2  13  12   -0.20    1.00 
   2 -13  12    0.00    1.10 
 -13  -2  12    0.80    1.20 
 -13  -1 -12    1.20    1.70 
   1 -13  12    0.20    1.10 
  -1  13  12    0.40    1.00 
 -13  -1  12   -1.90    1.70 
 -13   0 -12    7.90    2.30 
   0 -13  12   10.10    1.90 
 -13   0  12    3.80    1.90 
   0  13  12    7.20    1.60 
 -13   1 -12   -0.70    1.50 
  -1 -13 -12    0.40    1.40 
 -13   1  12    1.30    1.10 
   1  13  12    2.30    1.10 
  -1 -13  12    1.10    1.20 
  -2 -13 -12    0.40    1.40 
 -13   2 -12    0.90    1.60 
  -2 -13  12   -0.20    1.00 
  13  -2  12    0.50    0.40 
 -13   2  12   -0.10    1.00 
   2  13  12    1.60    1.00 
  -3 -13 -12    2.00    1.60 
  -3 -13  12    0.50    1.40 
  13  -3  12    0.30    0.40 
 -13   3  12    0.10    1.00 
   3  13  12    1.90    1.00 
 -13   4 -12    5.10    2.00 
  -4 -13 -12    5.10    1.90 
   4  13  12    4.60    1.30 
 -13   4  12    4.40    1.40 
 -13   5 -12    1.70    1.70 
  -5 -13 -12    7.30    2.00 
 -13   5  12    4.30    1.40 
  -5 -13  12    5.80    1.60 
   5  13  12    6.60    1.40 
  13  -5  12    5.60    0.90 
 -13   6 -12    0.10    1.50 
  -6 -13 -12    0.80    1.40 
  -6 -13  12    0.90    1.20 
 -13   6  12    0.60    1.20 
  13  -6  12   -0.30    0.60 
 -14  -4 -12    0.20    1.40 
 -14  -4  12    1.40    1.30 
   4 -14  12    0.30    1.20 
  -4  14  12    0.60    1.10 
 -14  -3 -12    4.50    2.10 
  -3  14  12    5.10    1.40 
   3 -14  12    4.00    1.40 
 -14  -3  12    5.00    1.50 
 -14  -2 -12   29.30    3.90 
 -14  -2  12   26.30    3.50 
   2 -14  12   29.90    3.60 
  -2  14  12   23.30    3.30 
 -14  -1 -12    2.20    1.60 
  -1  14  12   -0.20    0.90 
   1 -14  12    0.40    1.00 
 -14  -1  12    1.70    1.20 
 -14   0 -12    1.20    1.70 
 -14   0  12    3.70    1.30 
   0 -14  12    1.10    1.30 
 -14   1 -12    2.70    1.70 
 -14   1  12    0.60    1.10 
  -1 -14  12    0.80    1.20 
   1  14  12    1.40    1.10 
  -2 -14 -12   34.60    3.90 
 -14   2 -12   29.00    4.10 
  -2 -14  12   27.30    3.70 
 -14   2  12   24.30    3.40 
   2  14  12   24.30    3.30 
 -14   3 -12    6.90    2.50 
  -3 -14 -12    5.90    1.80 
 -14   3  12    4.40    1.50 
  -3 -14  12    6.20    1.60 
   3  14  12    5.90    1.40 
 -14   4 -12    2.00    1.80 
  -4 -14 -12    1.50    1.40 
 -14   4  12   -0.30    1.10 
  -4 -14  12    0.30    1.20 
  14  -4  12    0.30    0.50 
   0   0 -13    5.70    1.20 
   0   0 -13    1.60    0.90 
   0   0  13    3.70    1.30 
   0   0  13    1.60    0.90 
   0  -1 -13   -0.10    0.90 
   0   1 -13    0.40    0.80 
  -1   0 -13    0.20    0.70 
  -1   0 -13    0.70    0.90 
   1   0 -13    1.90    0.90 
   1   0 -13    0.50    0.80 
   0   1 -13    0.40    0.70 
   0  -1 -13    0.20    0.60 
   0   1  13   -0.40    0.80 
  -1   0  13   -0.60    0.70 
   0   1  13   -0.40    0.70 
   0  -1  13   -0.30    0.70 
   0  -1  13    0.20    1.00 
   1   0  13    1.10    1.10 
  -1   0  13    2.00    1.10 
   1   0  13   -0.80    0.70 
   1   1 -13   -0.50    0.70 
   1   1 -13   -0.30    0.70 
   1  -1 -13   -0.30    0.80 
   1  -1 -13    0.50    0.60 
  -1  -1 -13    0.50    0.70 
  -1   1 -13   -0.40    0.80 
  -1   1 -13    0.40    0.60 
  -1  -1 -13    0.30    0.90 
   1   1  13    0.00    0.70 
  -1   1  13    1.50    1.00 
   1  -1  13    0.40    1.00 
  -1   1  13    0.00    0.70 
   1   1  13    1.60    1.10 
   1  -1  13    0.00    0.70 
  -1  -1  13    0.80    1.00 
  -1  -1  13    0.10    0.70 
   2   1 -13   37.40    4.30 
  -1   2 -13   42.60    4.30 
  -1   2 -13   36.20    4.20 
  -2  -1 -13   37.90    4.20 
  -2  -1 -13   37.10    4.40 
   1  -2 -13   45.10    4.40 
  -2  -1  13   38.60    4.40 
   1  -2  13   37.60    4.20 
   2   1  13   36.20    4.20 
  -1   2  13   40.00    4.20 
   1  -2  13   39.80    4.60 
   2   1  13   36.60    4.50 
  -1   2  13   37.20    5.00 
  -2  -1  13   37.90    4.30 
  -2   0 -13   27.40    2.80 
   0  -2 -13   21.50    2.90 
   0   2 -13   18.60    2.80 
   2   0 -13   24.70    2.80 
  -2   0 -13   23.70    3.00 
   0   2 -13   23.80    2.80 
   0  -2 -13   22.30    2.80 
  -2   0  13   26.40    2.80 
   0   2  13   24.80    2.80 
   0   2  13   17.80    3.00 
   0  -2  13   20.80    2.70 
   2   0  13   26.10    2.70 
  -2   0  13   25.30    3.00 
   2   0  13   20.40    3.10 
   0  -2  13   27.20    3.40 
  -1  -2 -13   40.00    4.40 
  -2   1 -13   37.20    4.30 
  -1  -2 -13   46.70    4.60 
  -2   1 -13   37.20    4.50 
   1   2 -13   41.30    4.40 
   2  -1 -13   39.60    4.40 
  -1  -2  13   42.50    5.30 
   2  -1  13   41.00    4.30 
   2  -1  13   37.50    4.60 
   1   2  13   37.60    4.30 
  -2   1  13   39.90    4.30 
  -2   1  13   37.00    4.50 
  -1  -2  13   39.10    4.30 
   2   2 -13   58.99    6.10 
  -2  -2 -13   55.49    6.30 
  -2   2 -13   58.79    6.70 
  -2  -2 -13   54.69    6.10 
  -2   2 -13   53.69    6.10 
   2  -2 -13   57.29    6.20 
   2   2  13   59.39    6.00 
   2  -2  13   56.69    6.00 
   2  -2  13   54.29    6.40 
  -2   2  13   58.59    6.10 
  -2  -2  13   60.49    6.10 
  -2  -2  13   53.59    6.40 
  -3  -2 -13   51.39    5.20 
   2  -3 -13   40.40    4.90 
  -3  -2 -13   48.30    4.90 
  -2   3 -13   42.10    4.90 
   3   2  13   44.90    4.80 
  -3  -2  13   48.20    5.10 
  -3  -2  13   44.20    4.90 
   2  -3  13   40.20    5.20 
  -2   3  13   45.40    4.90 
   2  -3  13   42.30    4.80 
  -3  -1 -13   16.40    2.20 
  -1   3 -13   11.50    1.70 
   1  -3 -13    7.80    1.70 
  -3  -1 -13   11.10    1.60 
   3   1  13    8.20    1.40 
   1  -3  13   10.30    1.60 
  -3  -1  13   11.70    1.70 
  -1   3  13    9.30    1.60 
  -3  -1  13   11.10    1.90 
   1  -3  13   14.60    2.40 
   0  -3 -13    0.40    0.80 
  -3   0 -13   -0.30    0.60 
   0   3 -13   -0.50    0.60 
  -3   0 -13    0.40    0.90 
   0  -3 -13   -0.80    0.90 
   0  -3  13    0.30    0.70 
  -3   0  13   -1.40    0.60 
   3   0  13    0.50    1.00 
  -3   0  13   -0.10    0.80 
   3   0  13    0.90    0.80 
   0   3  13   -0.50    0.70 
   0  -3  13   -1.30    0.90 
  -1  -3 -13   12.20    1.80 
  -3   1 -13   13.40    1.80 
   1   3 -13   12.60    1.70 
  -1  -3 -13   12.00    2.00 
  -3   1 -13   10.30    1.90 
  -3   1  13    8.90    1.70 
   3  -1  13   13.20    2.10 
  -3   1  13   13.30    2.00 
  -1  -3  13   12.30    1.80 
  -1  -3  13   12.30    2.00 
  -3   2 -13   42.80    4.70 
  -2  -3 -13   46.30    5.00 
  -2  -3 -13   42.50    4.70 
   3  -2  13   46.40    5.00 
   3  -2  13   41.60    4.90 
  -3   2  13   42.10    4.70 
   2   3  13   41.90    4.60 
  -2  -3  13   42.60    4.70 
  -2  -3  13   42.80    4.90 
  -3   3 -13    0.50    0.90 
  -3  -3 -13    2.50    0.90 
  -3  -3 -13    1.20    1.30 
   3   3  13   -0.20    0.70 
  -3   3  13    0.90    0.90 
   3  -3  13    0.90    1.00 
  -3  -3  13   -0.10    1.10 
   3  -3  13   -0.10    0.70 
  -3  -3  13    0.00    0.80 
  -3   4 -13   18.70    2.30 
  -4  -3 -13   17.50    2.30 
   3  -4  13   15.40    2.40 
  -4  -3  13   16.50    2.50 
   3  -4  13   17.50    2.20 
  -3   4  13   19.30    3.00 
   4   3  13   16.70    2.10 
  -4  -3  13   18.60    2.50 
  -2   4 -13   26.20    3.10 
  -4  -2 -13   28.10    3.60 
  -4  -2 -13   30.00    3.20 
   2  -4 -13   28.30    3.50 
   2  -4  13   27.90    3.10 
   4   2  13   27.00    3.00 
  -4  -2  13   23.80    3.30 
  -2   4  13   26.90    3.10 
   2  -4  13   19.90    3.20 
   1  -4 -13   25.90    3.10 
  -4  -1 -13   23.70    2.80 
  -1   4 -13   25.30    2.80 
  -4  -1 -13   23.90    3.30 
  -4  -1  13   23.20    3.00 
   4   1  13   24.00    2.70 
  -4  -1  13   22.60    3.00 
   1  -4  13   22.90    3.10 
  -1   4  13   23.30    2.80 
   1  -4  13   24.10    2.80 
   0   4 -13    8.20    1.30 
   0  -4 -13    7.30    1.60 
  -4   0 -13    8.30    1.30 
  -4   0 -13    4.40    1.50 
   0   4  13    8.90    1.30 
   0  -4  13    6.90    1.30 
   0  -4  13    3.50    1.40 
   4   0  13    7.90    1.20 
  -4   0  13    6.10    1.40 
  -4   0  13    8.60    1.40 
  -1  -4 -13   30.40    3.30 
  -4   1 -13   29.90    3.30 
  -4   1 -13   23.20    2.90 
   1   4 -13   27.70    2.90 
  -1  -4 -13   22.20    3.20 
  -4   1  13   21.60    3.00 
   4  -1  13   24.10    2.90 
   1   4  13   26.80    2.90 
  -1  -4  13   21.10    3.10 
  -1  -4  13   24.80    3.00 
   4  -1  13   23.30    3.30 
  -2  -4 -13   26.50    3.10 
  -2  -4 -13   28.00    4.70 
  -4   2 -13   24.60    3.40 
  -2  -4  13   22.80    3.20 
   4  -2  13   29.20    3.00 
   4  -2  13   23.20    3.30 
   2   4  13   27.80    3.00 
  -4   2  13   29.00    3.70 
  -2  -4  13   20.40    3.30 
  -3  -4 -13   15.50    2.30 
  -4   3 -13   20.20    2.50 
  -3  -4 -13   17.70    3.30 
   4  -3  13   18.20    2.10 
  -3  -4  13   15.30    2.40 
   3   4  13   17.40    2.20 
  -3  -4  13   20.30    2.50 
  -4   3  13   17.20    2.40 
   4  -3  13   16.80    2.50 
  -4  -4 -13   20.90    2.60 
  -4  -4 -13   21.00    3.10 
  -4   4 -13   25.30    2.70 
  -4   4  13   17.40    2.50 
  -4  -4  13   18.00    2.60 
   4  -4  13   17.60    2.70 
   4  -4  13   21.60    2.40 
   4   4  13   18.90    2.40 
  -4  -4  13   20.60    2.70 
  -5  -4 -13   23.90    2.70 
  -5  -4 -13   27.10    3.40 
  -4   5 -13   20.30    2.60 
   4  -5  13   18.70    2.50 
  -4   5  13   20.60    2.50 
   4  -5  13   17.20    2.60 
  -5  -4  13   22.00    2.60 
  -5  -4  13   19.30    2.90 
   5   4  13   19.50    2.40 
  -5  -3 -13    2.40    1.50 
  -5  -3 -13    3.40    1.00 
   3  -5  13    2.70    0.90 
  -3   5  13    3.30    1.00 
  -5  -3  13    3.70    1.10 
   3  -5  13    4.90    1.30 
  -5  -3  13    0.20    1.00 
   5   3  13    2.90    0.80 
   2  -5 -13   19.20    2.50 
  -2   5 -13   14.80    2.20 
  -5  -2 -13   23.80    4.20 
   5   2  13   18.10    2.10 
  -2   5  13   14.60    2.40 
   2  -5  13   18.30    2.30 
   2  -5  13   17.80    2.40 
  -5  -2  13   19.80    2.50 
  -5  -2  13   20.10    2.40 
   1  -5 -13    2.50    1.40 
  -1   5 -13    1.00    0.80 
  -5  -1 -13    3.00    1.30 
  -5  -1 -13    3.10    1.60 
  -5  -1  13    4.80    1.20 
   1  -5  13    3.60    1.10 
   1  -5  13    1.10    0.80 
  -1   5  13    2.00    0.90 
  -5  -1  13    2.40    1.10 
   5   1  13    3.00    0.80 
   0  -5 -13    0.30    1.20 
   0   5 -13    0.50    0.60 
  -5   0 -13   -1.30    0.90 
   5   0  13    0.30    0.60 
  -5   0  13   -0.80    0.90 
   0  -5  13   -1.40    0.80 
   0   5  13    0.30    0.80 
   0  -5  13    0.40    0.70 
  -1  -5 -13    2.30    1.20 
  -5   1 -13    2.70    1.30 
   1   5 -13    3.70    0.80 
  -1  -5  13    3.80    1.20 
   1   5  13    1.80    0.80 
   5  -1  13    0.60    0.70 
  -5   1  13    0.20    0.80 
  -2  -5 -13   20.00    2.70 
  -5   2 -13   20.30    2.60 
  -2  -5  13   15.60    2.40 
   2   5  13   15.30    2.30 
   5  -2  13   17.50    2.10 
  -2  -5  13   17.00    2.30 
  -5   2  13   17.00    2.30 
  -5   3 -13    5.30    1.30 
  -3  -5 -13    3.60    1.50 
  -3  -5 -13    4.40    1.10 
  -3  -5  13    4.40    1.30 
   5  -3  13    2.80    1.30 
  -3  -5  13    1.60    0.90 
  -5   3  13    2.80    1.00 
   5  -3  13    5.30    0.90 
   3   5  13    2.60    0.90 
  -5   4 -13   22.70    2.80 
  -4  -5 -13   20.30    2.60 
  -4  -5 -13   21.60    3.20 
   5  -4  13   21.80    2.50 
   4   5  13   20.00    2.50 
  -4  -5  13   19.60    2.70 
  -5   4  13   22.30    2.60 
  -4  -5  13   16.70    2.70 
   5  -4  13   22.10    2.70 
  -5  -5 -13   -1.80    1.20 
  -5  -5 -13    1.10    0.90 
  -5   5 -13    0.70    0.90 
   5   5  13    2.60    0.80 
   5  -5  13    0.90    0.90 
  -5  -5  13    1.00    1.00 
   5  -5  13   -0.60    0.60 
  -5   5  13    0.80    1.00 
  -5  -5  13    1.30    1.00 
  -6  -5 -13   13.50    2.00 
  -6  -5 -13   12.90    2.60 
  -5   6 -13   13.90    1.90 
  -6  -5  13   13.80    2.10 
   5  -6  13   10.80    1.80 
   6   5  13   13.40    1.80 
   5  -6  13   12.20    1.80 
  -6  -5  13   11.10    2.00 
  -5   6  13   15.50    2.00 
  -6  -4 -13   12.00    2.50 
  -6  -4 -13   10.20    1.90 
  -4   6 -13   11.60    1.70 
   4  -6  13   11.30    1.60 
  -6  -4  13    8.50    1.80 
   6   4  13   11.30    1.50 
  -4   6  13   12.30    1.80 
  -6  -4  13    9.00    1.70 
   4  -6  13    8.10    1.70 
  -3   6 -13    0.60    0.70 
  -6  -3 -13    1.10    0.90 
  -6  -3 -13    0.60    1.30 
   3  -6  13    2.50    0.90 
   6   3  13    0.00    0.60 
  -3   6  13    1.70    0.90 
  -6  -3  13    1.30    0.90 
  -6  -3  13    3.90    1.20 
   3  -6  13    0.90    0.80 
   2  -6 -13    8.70    1.70 
  -6  -2 -13    8.00    1.40 
  -2   6 -13    9.20    1.30 
  -6  -2 -13    4.70    1.90 
  -6  -2  13    6.90    1.60 
   2  -6  13    7.10    1.40 
  -6  -2  13    8.00    1.40 
  -2   6  13    8.60    1.50 
   6   2  13    8.70    1.30 
   1  -6 -13   12.00    2.10 
  -6  -1 -13   11.40    1.70 
  -1   6 -13   10.70    1.50 
  -6  -1 -13   12.60    2.40 
   6   1  13   10.90    1.50 
  -6  -1  13    9.50    1.60 
  -1   6  13   12.80    1.70 
   1  -6  13    9.30    1.70 
   1  -6  13   10.10    1.80 
   0   6 -13    9.50    1.20 
   0  -6 -13   10.10    1.90 
  -6   0 -13    7.60    1.30 
   0  -6  13    5.20    1.30 
   0  -6  13    5.70    1.30 
   6   0  13    6.40    1.10 
  -6   0  13    5.00    1.20 
  -1  -6 -13   12.70    2.20 
  -6   1 -13   11.00    2.10 
   1   6  13    8.60    1.50 
  -1  -6  13   13.00    1.80 
  -6   1  13   10.20    1.70 
  -1  -6  13    9.10    1.70 
   6  -1  13   10.20    1.40 
  -2  -6 -13    7.80    2.00 
  -6   2 -13    6.80    1.80 
   2   6  13    8.40    2.00 
  -2  -6  13   11.40    1.70 
   6  -2  13    7.10    1.20 
  -2  -6  13    9.30    1.60 
  -6   2  13    7.90    1.50 
  -3  -6 -13    0.60    1.40 
  -6   3 -13    1.90    1.10 
  -3  -6  13    0.90    0.90 
  -3  -6  13    2.20    1.00 
   6  -3  13    1.10    0.70 
  -6   3  13    0.50    0.90 
   3   6  13    0.90    0.70 
  -4  -6 -13   11.00    2.30 
  -6   4 -13   10.90    1.90 
  -4  -6 -13   12.20    2.10 
  -4  -6  13    8.00    1.70 
  -4  -6  13   12.50    1.70 
   6  -4  13    8.70    1.40 
  -6   4  13    9.10    1.60 
   4   6  13   10.30    1.50 
  -5  -6 -13   17.20    2.20 
  -6   5 -13   13.00    2.20 
  -5  -6 -13   11.90    2.60 
   5   6  13   14.90    1.90 
   6  -5  13   11.60    1.80 
  -6   5  13   14.00    2.10 
  -5  -6  13   15.10    2.30 
  -5  -6  13   14.40    2.00 
  -6   6 -13    6.20    1.40 
  -6  -6 -13    6.60    2.10 
  -6  -6 -13    7.10    1.40 
  -6   6  13    6.50    1.40 
   6   6  13    6.40    1.10 
   6  -6  13    5.10    1.10 
  -6  -6  13    5.10    1.40 
  -6  -6  13    5.10    1.30 
   6  -6  13    3.80    1.10 
  -7  -6 -13   -0.10    0.90 
  -6   7 -13    1.70    0.90 
   6  -7  13    0.60    0.60 
   6  -7  13    3.00    1.00 
  -7  -6  13    0.50    0.90 
  -7  -6  13    1.60    1.00 
   7   6  13    1.00    0.70 
  -5   7 -13    3.80    1.00 
  -7  -5 -13    3.80    1.20 
  -7  -5 -13    2.50    1.70 
   5  -7  13    4.60    0.90 
   5  -7  13    2.80    1.00 
  -7  -5  13    2.60    1.10 
  -7  -5  13    2.10    1.10 
   7   5  13    3.30    0.90 
  -5   7  13    2.30    1.00 
  -7  -4 -13   26.10    2.90 
  -7  -4 -13   30.00    3.70 
  -4   7 -13   19.50    2.80 
   4  -7  13   18.40    2.70 
  -7  -4  13   25.90    3.00 
  -7  -4  13   25.90    3.00 
   7   4  13   25.80    2.70 
   4  -7  13   22.50    2.80 
  -4   7  13   23.80    2.90 
  -7  -3 -13   13.00    2.50 
  -3   7 -13   10.00    1.60 
  -7  -3 -13   16.70    2.00 
  -3   7  13   11.30    1.80 
   7   3  13   10.30    1.60 
  -7  -3  13   11.30    1.90 
  -7  -3  13   17.20    2.50 
   3  -7  13   10.00    1.60 
   3  -7  13   13.40    1.90 
  -7  -2 -13   21.40    3.00 
  -7  -2 -13   21.10    2.30 
  -2   7 -13   15.70    2.10 
  -7  -2  13   17.20    2.40 
   2  -7  13   17.70    2.30 
  -2   7  13   17.80    2.30 
   7   2  13   16.00    2.10 
   2  -7  13   15.80    2.10 
  -1   7 -13    3.20    0.80 
   1  -7 -13    2.80    1.40 
  -7  -1 -13    2.10    0.90 
  -7  -1 -13    1.30    1.50 
   1  -7  13    3.50    0.90 
   7   1  13    1.50    0.70 
   1  -7  13    0.70    0.90 
  -7  -1  13    2.80    1.10 
  -1   7  13    1.20    0.80 
  -7   0 -13    1.50    1.50 
   0   7 -13   -0.30    0.50 
   0  -7 -13    0.20    1.20 
   0  -7  13    1.00    0.90 
  -7   0  13   -1.70    0.80 
   0   7  13    0.10    0.80 
   0  -7  13   -0.30    0.60 
   7   0  13   -0.60    0.60 
  -7   1 -13    1.90    1.40 
  -1  -7 -13    2.20    1.50 
  -1  -7  13    1.20    1.00 
   1   7  13    1.20    0.90 
  -7   1  13    2.40    1.00 
   7  -1  13    1.40    0.70 
  -1  -7  13    0.90    0.80 
  -2  -7 -13   19.40    2.80 
  -7   2 -13   18.70    3.00 
   7  -2  13   16.00    2.00 
  -2  -7  13   14.70    2.20 
  -7   2  13   18.20    2.30 
  -2  -7  13   16.60    2.40 
  -3  -7 -13   15.20    2.60 
   7  -3  13   11.60    1.60 
  -7   3  13   11.20    1.80 
  -3  -7  13   12.90    1.80 
   3   7  13   10.00    1.70 
  -3  -7  13   12.30    1.90 
  -7   4 -13   27.70    3.30 
  -4  -7 -13   30.80    3.80 
   4   7  13   23.80    2.80 
   7  -4  13   25.70    2.80 
  -7   4  13   24.20    2.90 
  -4  -7  13   17.90    2.90 
  -4  -7  13   24.30    3.10 
  -5  -7 -13    0.00    1.50 
  -7   5 -13    2.90    1.30 
   5   7  13    2.40    0.90 
   7  -5  13    2.20    0.80 
  -7   5  13    2.20    0.90 
  -5  -7  13    2.60    1.20 
  -5  -7  13    2.00    1.00 
  -6  -7 -13    3.40    2.80 
  -6  -7 -13    3.50    1.40 
  -7   6 -13    2.60    1.20 
  -7   6  13   -0.90    1.40 
  -6  -7  13    2.40    1.30 
   7  -6  13    2.40    0.80 
   6   7  13    1.30    0.80 
  -6  -7  13    2.10    0.90 
  -7   7 -13   -0.50    0.90 
  -7  -7 -13    0.20    0.90 
  -7  -7 -13   -0.90    1.30 
  -7   7  13    0.80    0.90 
   7   7  13    0.40    0.80 
  -7  -7  13    1.80    0.90 
  -7  -7  13    1.30    1.20 
  -8  -7 -13    0.40    1.70 
  -7   8 -13    1.90    1.00 
  -8  -7 -13    3.00    1.10 
  -8  -7  13    2.00    1.10 
   7  -8  13    3.80    1.00 
   8   7  13    1.00    0.80 
  -8  -7  13    2.30    0.90 
  -7   8  13    1.90    1.10 
  -6   8 -13    1.00    0.80 
  -8  -6 -13    2.60    1.80 
  -8  -6 -13    0.90    1.00 
   6  -8  13    0.60    0.80 
  -6   8  13    0.20    1.00 
   6  -8  13    0.60    0.50 
  -8  -6  13    1.90    0.90 
   8   6  13    2.30    0.80 
  -8  -5 -13    5.60    1.20 
  -8  -5 -13    3.60    2.00 
  -5   8 -13    6.30    1.10 
  -8  -5  13    3.20    1.20 
   5  -8  13    3.90    1.00 
   5  -8  13    5.50    1.20 
   8   5  13    5.20    1.00 
  -5   8  13    5.80    1.40 
  -8  -5  13    5.60    1.40 
  -8  -4 -13   10.00    2.50 
  -8  -4 -13    7.50    1.20 
  -4   8 -13    4.70    1.00 
   4  -8  13    4.20    0.90 
   4  -8  13    6.30    1.30 
   8   4  13    6.30    1.00 
  -8  -4  13    6.00    1.40 
  -4   8  13    5.60    1.40 
  -8  -3 -13   16.00    2.90 
  -3   8 -13   15.60    1.90 
  -8  -3 -13   15.60    2.00 
   8   3  13   14.30    1.80 
   3  -8  13   11.90    1.70 
   3  -8  13   14.10    2.10 
  -3   8  13   13.40    2.10 
  -8  -3  13   19.20    2.30 
  -2   8 -13   10.30    1.40 
  -8  -2 -13   10.50    1.60 
  -8  -2 -13   10.60    2.40 
   2  -8  13    8.10    1.30 
  -2   8  13    7.20    1.50 
  -8  -2  13   10.50    1.70 
   8   2  13   12.10    1.40 
   2  -8  13   10.30    1.60 
  -1   8 -13   11.30    1.40 
  -8  -1 -13   10.10    2.30 
   1  -8 -13   14.70    2.20 
   1  -8  13   11.40    1.80 
   8   1  13   10.40    1.40 
   1  -8  13    8.60    1.40 
  -1   8  13   10.90    1.70 
  -8  -1  13    8.30    1.60 
   0  -8 -13    6.20    1.70 
  -8   0 -13    7.20    1.90 
  -8   0  13    7.40    1.40 
   0  -8  13    7.10    1.40 
   8   0  13    8.10    1.10 
   0  -8  13    5.10    1.00 
   0   8  13    6.20    1.30 
  -1  -8 -13   14.80    2.40 
  -8   1 -13    8.50    2.10 
  -1  -8  13   10.30    1.40 
  -1  -8  13    8.00    1.60 
   1   8  13   11.50    1.60 
   8  -1  13    8.20    1.30 
  -8   1  13    8.20    1.50 
  -8   2 -13   10.00    2.20 
  -2  -8 -13   11.10    2.30 
   2   8  13   10.40    1.60 
  -2  -8  13    6.50    1.30 
  -8   2  13    9.30    1.60 
   8  -2  13   12.10    1.40 
  -2  -8  13    9.90    1.70 
  -3  -8 -13   16.00    2.70 
  -8   3 -13   14.20    2.50 
   3   8  13   14.00    1.90 
   8  -3  13   15.20    1.80 
  -3  -8  13   14.50    2.20 
  -3  -8  13   13.20    1.90 
  -8   3  13   11.40    2.00 
  -4  -8 -13    6.90    2.00 
  -8   4 -13    7.90    1.90 
   8  -4  13    5.00    1.00 
  -8   4  13    4.50    1.20 
  -4  -8  13    5.80    1.10 
  -8   5 -13    4.90    1.70 
  -8   5  13    4.60    1.90 
   8  -5  13    5.90    1.10 
  -5  -8  13    6.00    1.20 
  -5  -8  13    5.40    2.30 
   5   8  13    6.80    1.30 
  -8   6 -13    1.10    1.20 
  -6  -8 -13    2.50    1.70 
   8  -6  13    1.00    0.70 
  -6  -8  13    1.00    0.80 
   6   8  13    2.10    0.90 
  -6  -8  13    1.90    1.00 
  -8   6  13    0.80    0.90 
  -8   7 -13    1.00    1.20 
  -7  -8 -13    4.70    1.80 
  -7  -8  13    2.00    0.80 
  -7  -8  13    1.50    1.10 
  -8   7  13    2.00    1.10 
   7   8  13    2.50    0.90 
  -8  -8 -13    1.50    1.10 
  -8  -8 -13    5.40    2.00 
  -8  -8  13    2.20    1.30 
  -8   8  13    2.50    1.20 
   8  -8  13    4.70    1.00 
  -8  -8  13    1.30    0.80 
   8   8  13    3.00    1.00 
  -9  -8 -13   18.60    2.40 
  -8   9 -13   11.80    2.30 
  -9  -8 -13   16.70    3.00 
   9   8  13   20.30    2.20 
  -8   9  13   16.00    2.30 
   8  -9  13   17.50    2.30 
  -9  -8  13   17.00    2.60 
  -9  -8  13   15.40    2.20 
  -9  -7 -13    4.90    1.20 
  -9  -7 -13    3.70    1.80 
  -7   9 -13    3.60    1.00 
   7  -9  13    3.80    1.10 
  -9  -7  13    5.00    1.10 
  -7   9  13    2.80    1.20 
   9   7  13    5.10    1.00 
   7  -9  13    1.30    0.80 
  -9  -7  13    2.70    1.20 
  -9  -6 -13   -3.30    1.30 
  -6   9 -13   -0.20    0.70 
  -9  -6 -13   -0.70    0.70 
   9   6  13   -1.10    0.70 
   6  -9  13    0.40    0.80 
   6  -9  13    0.30    0.50 
  -9  -6  13   -0.20    0.90 
  -6   9  13   -0.60    0.70 
  -5   9 -13    2.80    0.80 
  -9  -5 -13    2.90    1.00 
  -9  -5 -13    2.70    1.80 
  -5   9  13    1.10    1.00 
   9   5  13    0.90    0.80 
   5  -9  13    3.60    1.00 
  -9  -5  13    2.10    1.80 
  -9  -4 -13    1.30    1.50 
  -4   9 -13    1.20    0.70 
  -9  -4 -13    2.60    0.90 
  -4   9  13    0.60    1.00 
   4  -9  13    1.20    0.90 
  -9  -4  13    0.60    1.00 
   4  -9  13    0.80    0.50 
   9   4  13    2.00    0.70 
  -3   9 -13    0.50    0.60 
  -9  -3 -13    1.40    0.80 
  -9  -3 -13   -0.50    1.80 
  -9  -3  13   -0.50    0.90 
  -3   9  13    2.40    1.30 
   3  -9  13    1.30    0.50 
   9   3  13    1.30    0.60 
   3  -9  13    1.00    0.90 
  -2   9 -13    8.70    1.30 
   2  -9  13    8.80    1.20 
  -9  -2  13    7.80    1.60 
   9   2  13   11.10    1.40 
  -2   9  13    8.40    1.60 
   2  -9  13   10.70    1.70 
  -1   9 -13    1.60    0.60 
   1  -9 -13    2.20    1.40 
  -9  -1 -13   -0.90    1.40 
  -1   9  13    1.80    1.00 
   1  -9  13    1.60    1.00 
   9   1  13    1.10    0.60 
  -9  -1  13    1.70    1.00 
   1  -9  13    1.90    0.50 
  -9   0 -13    0.70    1.50 
   0  -9 -13   -1.10    1.30 
  -9   0  13    2.10    1.00 
   0  -9  13   -0.40    0.70 
   0  -9  13    0.20    0.40 
   9   0  13   -0.10    0.50 
   0   9  13    0.20    0.80 
  -1  -9 -13    1.30    1.30 
  -9   1 -13    1.90    1.50 
  -9   1  13    2.30    1.10 
  -1  -9  13    2.00    1.20 
  -1  -9  13    1.50    0.50 
   9  -1  13    1.60    0.60 
   1   9  13    1.90    0.90 
  -2  -9 -13   13.60    2.50 
  -9   2 -13   11.00    2.20 
   2   9  13   11.60    1.70 
  -2  -9  13    8.40    1.30 
  -9   2  13   12.50    1.90 
   9  -2  13   11.20    1.50 
  -9   3 -13    0.20    1.40 
  -3  -9 -13    1.70    1.80 
  -9   3  13    0.30    1.00 
  -3  -9  13    2.10    1.00 
  -3  -9  13    0.50    0.50 
   9  -3  13    1.10    0.70 
   3   9  13    1.40    0.90 
  -4  -9 -13    0.90    2.60 
  -9   4 -13    2.90    1.50 
   9  -4  13    1.90    0.70 
  -4  -9  13    1.30    1.10 
   4   9  13    2.00    1.00 
  -4  -9  13    1.00    0.60 
  -9   5 -13    1.70    1.40 
  -5  -9 -13    6.70    2.10 
  -9   5  13    1.30    1.00 
   5   9  13    0.90    0.90 
  -5  -9  13    1.40    1.00 
   9  -5  13    4.00    0.90 
  -5  -9  13    1.70    0.70 
  -6  -9 -13    0.30    1.50 
  -9   6 -13    0.90    1.30 
  -6  -9  13    0.90    1.00 
   9  -6  13   -0.10    0.60 
  -9   6  13   -0.20    0.80 
  -6  -9  13    1.00    0.70 
   6   9  13    0.00    0.80 
  -7  -9 -13    1.40    1.50 
  -9   7 -13    5.10    1.50 
   7   9  13    2.70    1.10 
  -7  -9  13    2.60    0.80 
  -9   7  13    2.00    1.20 
  -7  -9  13    2.50    1.30 
   9  -7  13    3.60    1.00 
  -8  -9 -13   17.60    3.00 
  -9   8 -13   17.70    2.50 
  -9   8  13   16.70    2.40 
  -8  -9  13   13.60    2.00 
   9  -8  13   18.00    2.20 
  -8  -9  13   13.40    2.50 
   8   9  13   16.10    2.20 
  -9   9 -13    1.10    1.00 
  -9  -9 -13    0.10    1.50 
  -9  -9  13   -0.10    0.50 
   9  -9  13    0.10    0.80 
   9   9  13   -0.10    0.80 
  -9   9  13    0.00    1.10 
  -9  -9  13    0.70    0.70 
  -9  -9  13    1.10    1.20 
  -9  10 -13   -0.20    0.80 
 -10  -9 -13    2.00    1.60 
   9 -10  13   -0.80    1.00 
  -9  10  13    1.10    1.20 
 -10  -9  13    1.60    1.30 
 -10  -9  13    0.20    0.50 
  -8  10 -13    2.30    1.00 
 -10  -8  13    1.90    1.00 
   8 -10  13    2.60    1.40 
 -10  -8  13    4.10    1.40 
  10   8  13    3.70    1.00 
 -10  -7 -13    3.10    1.10 
 -10  -7 -13    5.10    2.00 
  -7  10 -13    5.20    1.10 
  10   7  13    6.80    1.20 
  -7  10  13    3.30    1.20 
   7 -10  13    5.50    1.90 
 -10  -7  13    4.00    1.50 
 -10  -6 -13    3.80    1.00 
 -10  -6 -13    6.30    2.10 
  -6  10 -13    4.10    0.90 
  10   6  13    6.80    1.10 
   6 -10  13    5.40    1.90 
   6 -10  13    3.50    0.80 
  -6  10  13    3.10    1.30 
 -10  -6  13    2.80    1.30 
 -10  -5 -13   11.40    2.60 
 -10  -5 -13   11.40    1.60 
  -5  10 -13    9.00    1.40 
  -5  10  13   11.40    1.90 
  10   5  13   12.00    1.60 
   5 -10  13    8.80    1.30 
 -10  -5  13    9.70    1.80 
   5 -10  13   12.20    2.60 
 -10  -4 -13    4.70    1.00 
 -10  -4 -13    4.90    1.80 
  -4  10 -13    2.70    0.70 
   4 -10  13    2.30    0.60 
 -10  -4  13   -0.10    1.20 
  -4  10  13    2.10    1.10 
  10   4  13    2.60    0.80 
   4 -10  13    3.70    1.80 
 -10  -3 -13    5.70    2.00 
  -3  10 -13    2.60    0.70 
  10   3  13    3.20    0.80 
   3 -10  13    2.00    0.60 
   3 -10  13    1.70    1.10 
 -10  -3  13    2.50    1.80 
  -3  10  13    2.80    1.10 
 -10  -2 -13    2.20    1.60 
  10   2  13    2.90    0.70 
 -10  -2  13    2.40    1.10 
   2 -10  13    1.30    1.00 
  -2  10  13    1.20    1.00 
   2 -10  13    2.10    0.50 
 -10  -1 -13    8.20    2.10 
  10   1  13    9.00    1.20 
   1 -10  13    8.30    1.60 
 -10  -1  13    6.60    1.50 
  -1  10  13    8.60    1.50 
   1 -10  13    6.00    1.00 
   0 -10 -13    5.00    2.00 
 -10   0 -13    0.60    1.60 
 -10   0  13    3.70    1.30 
  10   0  13    5.40    0.90 
   0 -10  13    4.70    1.20 
  -1 -10 -13    7.10    2.40 
  -1 -10  13    6.20    0.90 
  10  -1  13    9.30    1.20 
  -1 -10  13    8.50    1.60 
 -10   1  13    9.90    1.60 
  -2 -10 -13    1.70    1.50 
  -2 -10  13    2.10    1.10 
  10  -2  13    3.10    0.70 
   2  10  13    2.60    1.00 
  -2 -10  13    1.70    0.40 
 -10   3 -13    3.20    2.00 
  -3 -10 -13    4.20    1.80 
  -3 -10  13    1.60    0.40 
  10  -3  13    4.00    0.80 
  -3 -10  13    1.50    1.10 
   3  10  13    1.40    1.00 
 -10   3  13    3.70    1.40 
 -10   4 -13    4.60    1.70 
  -4 -10 -13    7.00    2.10 
  -4 -10  13    3.50    1.40 
   4  10  13    2.10    1.00 
 -10   4  13    4.10    1.20 
  -4 -10  13    2.50    0.50 
  10  -4  13    2.80    0.80 
  -5 -10 -13   14.30    2.70 
  -5 -10  13   12.30    2.10 
 -10   5  13   10.10    2.00 
   5  10  13   13.80    2.00 
  10  -5  13   12.70    1.70 
  -6 -10 -13    2.20    1.70 
 -10   6 -13    2.10    1.50 
 -10   6  13    4.80    1.30 
  -6 -10  13    3.20    1.40 
  -6 -10  13    3.20    1.00 
   6  10  13    4.20    1.10 
  10  -6  13    5.50    1.00 
 -10   7 -13    2.30    1.40 
  -7 -10 -13    4.30    1.80 
  10  -7  13    4.10    1.00 
   7  10  13    5.30    1.20 
  -7 -10  13    6.40    1.60 
  -7 -10  13    3.30    0.80 
 -10   7  13    2.90    1.30 
  -8 -10 -13    3.70    1.70 
 -10   8 -13    2.30    1.30 
   8  10  13    2.00    1.00 
  10  -8  13    2.20    0.90 
  -8 -10  13    3.20    1.30 
  -8 -10  13    1.50    0.50 
 -10   8  13    1.60    1.20 
 -10   9 -13    0.80    1.10 
  -9 -10 -13    0.30    2.30 
  10  -9  13    0.60    0.80 
  -9 -10  13    1.10    0.50 
 -10   9  13    0.30    1.00 
 -11  -8 -13    1.10    1.50 
  -8  11 -13    0.30    0.80 
  -8  11  13   -0.70    0.90 
   8 -11  13    0.60    0.90 
 -11  -8  13    0.70    1.20 
 -11  -8  13    0.60    0.60 
 -11  -7 -13    2.20    1.90 
  -7  11 -13    0.50    0.70 
   7 -11  13    0.30    0.90 
  -7  11  13    1.00    1.20 
 -11  -7  13    0.10    1.10 
 -11  -6 -13    1.30    0.70 
 -11  -6 -13    3.80    2.60 
  -6  11 -13    0.30    0.60 
   6 -11  13   -0.60    0.90 
 -11  -6  13    0.00    1.10 
  11   6  13    0.00    0.70 
 -11  -5 -13    0.10    0.70 
 -11  -5 -13    3.00    1.60 
  -5  11 -13    1.80    0.60 
 -11  -5  13    1.80    1.30 
  -5  11  13    2.50    1.00 
   5 -11  13    2.00    1.10 
  11   5  13    3.10    0.80 
 -11  -4 -13   11.30    2.50 
  -4  11 -13    7.10    1.10 
  -4  11  13    6.50    1.50 
  11   4  13   12.10    1.50 
 -11  -4  13    9.50    1.80 
   4 -11  13    6.50    1.60 
 -11  -3 -13   -0.20    1.40 
 -11  -3  13    0.60    1.00 
  -3  11  13   -1.20    0.90 
   3 -11  13    0.60    1.00 
 -11  -2 -13    8.30    2.30 
   2 -11  13    4.10    1.30 
 -11  -2  13    4.10    1.40 
  -2  11  13    8.20    1.50 
 -11  -1 -13    3.70    1.90 
   1 -11  13    3.00    1.30 
  -1  11  13    2.00    1.10 
 -11  -1  13    2.00    1.40 
 -11   0 -13   -1.10    1.40 
   0 -11 -13    0.00    1.30 
   0 -11  13    0.00    1.00 
  11   0  13    0.10    0.50 
   0  11  13   -1.40    0.80 
 -11   0  13   -0.50    1.00 
 -11   1 -13    3.00    1.80 
  -1 -11 -13    3.70    1.80 
  -1 -11  13    3.80    1.30 
   1  11  13    2.70    1.10 
  11  -1  13    4.40    0.80 
 -11   1  13    1.50    1.10 
 -11   2 -13    7.90    2.30 
  -2 -11 -13    7.20    2.10 
  -2 -11  13    7.50    1.60 
 -11   2  13    5.30    1.40 
  11  -2  13    7.00    1.10 
   2  11  13    7.50    1.50 
 -11   3 -13   -0.80    1.40 
  -3 -11 -13    0.50    1.40 
 -11   3  13    0.80    1.00 
  -3 -11  13    0.80    1.10 
  11  -3  13    0.30    0.60 
  -4 -11 -13   10.00    2.40 
 -11   4 -13   12.90    2.60 
   4  11  13    8.30    1.80 
 -11   4  13    6.10    1.60 
  11  -4  13   10.80    1.40 
  -4 -11  13   12.10    2.00 
  -5 -11 -13    1.20    1.50 
 -11   5 -13    1.40    1.60 
   5  11  13    1.90    1.00 
 -11   5  13    1.30    1.10 
  -5 -11  13    3.20    1.30 
  11  -5  13    2.30    0.80 
  -6 -11 -13    0.60    1.50 
 -11   6 -13    1.40    1.40 
  11  -6  13    0.30    0.70 
   6  11  13   -1.20    0.80 
  -6 -11  13    0.80    1.00 
 -11   6  13   -1.00    0.90 
 -11   7 -13    1.70    1.50 
  -7 -11 -13    0.10    1.50 
  -7 -11  13    0.40    0.30 
  11  -7  13    0.50    0.70 
   7  11  13    1.70    1.00 
  -8 -11 -13    1.20    2.50 
 -11   8 -13    0.70    1.30 
 -11   8  13   -0.50    1.10 
  -8 -11  13    0.80    1.20 
  -8 -11  13    0.40    0.30 
  11  -8  13    1.00    0.80 
 -12  -6 -13    0.60    1.60 
  -6  12 -13    0.20    0.50 
  -6  12  13    2.20    1.20 
   6 -12  13    0.50    1.00 
 -12  -6  13    1.80    1.30 
  -5  12 -13    2.80    0.60 
 -12  -5 -13    2.50    1.90 
   5 -12  13    1.10    1.00 
  -5  12  13    3.60    1.30 
 -12  -5  13    1.70    1.20 
 -12  -4  13    5.00    1.50 
   4 -12  13    3.30    1.30 
 -12  -3 -13    0.10    1.80 
 -12  -3  13    1.60    1.20 
  -3  12  13    0.80    1.00 
   3 -12  13    2.70    1.10 
  12   3  13    2.30    0.60 
 -12  -2 -13    2.10    1.60 
  12   2  13    0.60    0.50 
   2 -12  13    0.60    1.10 
  -2  12  13    1.70    1.10 
 -12  -2  13    0.50    1.10 
 -12  -1 -13    4.00    1.80 
  12   1  13    3.20    0.70 
  -1  12  13    2.90    1.10 
 -12  -1  13    2.40    1.30 
   1 -12  13    5.20    1.40 
 -12   0 -13    1.60    1.70 
 -12   0  13    1.40    1.10 
   0 -12  13   -0.60    0.90 
  12   0  13    0.40    0.50 
   0  12  13    0.80    1.00 
  -1 -12 -13    3.20    1.70 
 -12   1 -13    0.20    1.60 
  -1 -12  13    3.70    1.40 
   1  12  13    2.70    1.10 
 -12   1  13    2.60    1.20 
  -2 -12 -13    0.20    1.50 
 -12   2 -13    1.60    1.60 
  12  -2  13    0.80    0.60 
 -12   2  13   -0.80    0.90 
   2  12  13    0.80    1.00 
  -2 -12  13    0.50    1.00 
 -12   3 -13    2.70    1.70 
  -3 -12 -13   -0.50    1.40 
  12  -3  13    1.20    0.60 
 -12   3  13    1.70    1.20 
   3  12  13    1.00    0.90 
  -3 -12  13    0.50    1.10 
 -12   4 -13    4.70    1.80 
  -4 -12 -13    4.20    1.80 
  12  -4  13    3.50    0.90 
 -12   4  13    2.40    1.20 
   4  12  13    5.70    1.30 
  -5 -12 -13    2.40    1.70 
 -12   5 -13    2.10    1.60 
   5  12  13    2.70    1.10 
  12  -5  13    2.50    0.80 
 -12   5  13    2.20    1.30 
  -5 -12  13    3.40    1.40 
 -12   6 -13    2.00    1.60 
  -6 -12 -13    1.60    1.70 
   6  12  13    1.20    1.00 
 -12   6  13    0.70    1.10 
  12  -6  13    1.20    0.70 
  -6 -12  13    0.50    1.20 
 -13  -4 -13    6.00    2.10 
  -4  13  13    2.10    1.20 
 -13  -4  13    6.00    1.60 
   4 -13  13    3.70    1.40 
 -13  -3 -13    1.40    1.70 
   3 -13  13    4.90    2.20 
 -13  -3  13    2.70    1.30 
  -3  13  13    1.30    1.10 
 -13  -2 -13    2.70    1.60 
 -13  -2  13    2.10    1.20 
   2 -13  13   -2.20    1.60 
  -2  13  13    0.60    1.00 
 -13  -1 -13    2.50    1.80 
   1 -13  13    1.20    1.30 
 -13  -1  13    0.50    1.10 
 -13   0 -13    4.10    2.90 
 -13   0  13    0.20    1.10 
   0  13  13    0.40    1.00 
   0 -13  13    0.20    1.10 
  -1 -13 -13   -0.70    1.40 
  -1 -13  13    1.70    1.30 
   1  13  13    0.90    1.00 
 -13   1  13   -1.80    1.00 
  -2 -13 -13    2.60    1.70 
 -13   2  13   -0.30    1.00 
  13  -2  13    0.70    0.50 
  -2 -13  13    0.80    1.20 
   2  13  13   -1.00    0.80 
  -3 -13 -13    4.00    1.80 
  -3 -13  13    0.90    1.20 
 -13   3  13    1.70    1.10 
   3  13  13    0.70    1.00 
  -4 -13 -13    5.10    1.90 
 -13   4 -13    1.80    2.50 
   4  13  13    3.20    1.20 
  13  -4  13    3.80    0.80 
 -13   4  13    3.60    1.30 
  -4 -13  13    2.20    1.30 
   0   0 -14   54.89    6.20 
   0   0  14   60.19    6.10 
   1   0 -14    0.80    0.90 
  -1   0 -14    2.30    1.00 
   0  -1 -14    2.10    1.00 
   0   1 -14    2.10    1.20 
   0  -1  14    2.00    1.20 
   0   1  14    3.60    0.90 
   0  -1  14    1.70    0.90 
  -1   0  14    1.80    0.90 
   1   0  14    1.70    0.80 
  -1  -1 -14    4.80    1.30 
   1  -1 -14    6.90    1.30 
  -1   1 -14    4.70    1.20 
  -1  -1  14    5.10    1.60 
  -1  -1  14    2.90    1.30 
   1   1  14    4.40    1.00 
   1  -1  14    4.60    1.10 
   1  -1  14    1.70    1.40 
  -1   1  14    4.30    1.40 
   2   1 -14    0.60    0.80 
  -2  -1 -14    0.10    0.90 
  -1   2 -14    1.00    0.80 
   1  -2 -14    1.20    1.00 
   1  -2  14    0.50    1.10 
  -2  -1  14    0.00    0.80 
   2   1  14    0.00    0.70 
   1  -2  14    0.00    0.60 
  -2  -1  14    1.50    1.00 
   0  -2 -14    2.40    1.30 
   0   2 -14    5.10    1.10 
  -2   0 -14    2.90    1.20 
   2   0 -14    5.10    1.10 
   0  -2  14    2.70    1.30 
   2   0  14    1.30    0.80 
  -2   0  14    1.60    1.00 
   0  -2  14    4.10    1.00 
   0   2  14    2.70    0.90 
  -1  -2 -14   -1.90    1.20 
   2  -1 -14    0.10    0.80 
   1   2 -14    0.00    0.70 
  -2   1 -14    0.10    0.90 
   1   2  14    1.20    0.70 
   2  -1  14    0.70    0.70 
  -2   1  14    0.30    0.70 
  -1  -2  14    0.80    1.10 
  -2  -2 -14    1.60    1.50 
  -2   2 -14    4.80    1.20 
  -2   2  14    2.70    1.00 
  -2  -2  14    3.10    1.00 
   2  -2  14    3.50    0.90 
   2   2  14    1.50    0.90 
  -2  -2  14    3.50    1.30 
  -3  -2 -14    1.00    1.30 
  -2   3 -14    2.30    1.00 
  -3  -2 -14    3.30    1.40 
   2  -3 -14    3.00    1.20 
  -3  -2  14    1.30    1.10 
   2  -3  14    0.50    0.70 
  -2   3  14    1.20    0.80 
   2  -3  14    1.40    1.20 
   3   2  14    0.90    0.70 
  -3  -2  14    0.90    0.80 
  -1   3 -14    1.90    0.90 
  -3  -1 -14   -0.10    0.70 
   1  -3 -14    2.20    1.10 
  -1   3  14    0.80    0.80 
   3   1  14    0.60    0.70 
   1  -3  14    0.60    0.70 
  -3  -1  14    1.40    0.80 
   1  -3  14    1.80    1.10 
  -3   0 -14    2.60    1.30 
   0   3 -14    2.80    0.90 
   0  -3 -14    3.10    1.20 
  -3   0 -14    3.60    1.10 
   3   0  14    2.90    0.80 
  -3   0  14    3.30    1.00 
   0   3  14    1.80    0.90 
   0  -3  14    3.50    1.50 
   0  -3  14    2.90    1.30 
   1   3 -14    1.60    0.80 
  -3   1 -14    0.70    1.00 
  -1  -3 -14    2.50    1.30 
  -3   1  14    0.70    0.90 
  -1  -3  14    0.90    1.10 
   3  -1  14    1.20    0.70 
  -1  -3  14    1.60    0.80 
   1   3  14    1.20    0.80 
  -3   2 -14    1.10    0.90 
  -2  -3 -14    2.40    1.40 
  -2  -3  14    1.50    0.90 
   3  -2  14    1.50    0.80 
  -2  -3  14    0.50    1.00 
  -3   2  14    0.90    0.90 
  -3  -3 -14   -0.80    1.20 
  -3   3 -14   -0.10    0.80 
  -3   3  14    1.10    0.80 
  -3  -3  14    0.60    0.80 
   3  -3  14    1.70    1.10 
  -3  -3  14   -0.10    1.00 
   3   3  14    0.40    0.70 
   3  -3  14    0.60    0.70 
  -4  -3 -14    5.40    1.20 
  -3   4 -14    4.60    1.20 
  -4  -3 -14    3.10    1.50 
  -3   4  14    5.10    1.20 
  -4  -3  14    2.70    1.20 
   4   3  14    4.50    1.00 
   3  -4  14    4.10    1.10 
  -4  -3  14    4.40    1.20 
   3  -4  14    4.60    1.30 
  -2   4 -14    2.60    0.90 
   2  -4 -14    2.20    1.00 
  -4  -2 -14    1.10    1.20 
  -4  -2 -14    1.40    0.90 
   4   2  14    2.10    0.80 
  -4  -2  14    1.30    0.90 
  -4  -2  14    4.40    1.30 
  -2   4  14    1.30    0.90 
   2  -4  14    5.90    1.30 
  -4  -1 -14    6.60    1.80 
  -4  -1 -14    7.20    1.30 
   1  -4 -14    7.40    1.60 
  -1   4 -14    8.90    1.40 
   4   1  14    8.00    1.20 
  -4  -1  14    6.60    1.30 
   1  -4  14    4.80    1.60 
  -1   4  14    9.10    1.40 
   1  -4  14    6.60    1.20 
   0   4 -14   31.80    3.80 
   0  -4 -14   37.60    4.20 
  -4   0 -14   38.90    3.90 
   4   0  14   37.30    3.80 
   0  -4  14   26.30    4.00 
   0  -4  14   31.40    3.80 
  -4   0  14   32.80    3.80 
   0   4  14   35.80    4.00 
  -1  -4 -14    8.80    1.80 
  -4   1 -14    7.00    1.30 
   1   4 -14    8.20    1.30 
  -4   1 -14    5.80    1.50 
   1   4  14    5.50    1.30 
   4  -1  14    6.70    1.20 
  -1  -4  14    6.00    1.20 
  -1  -4  14    7.90    1.70 
  -4   1  14    6.00    1.30 
  -4   2 -14    1.10    1.10 
  -2  -4 -14    4.00    1.50 
  -4   2  14    2.80    1.00 
   4  -2  14    1.10    0.70 
   2   4  14    1.60    0.90 
  -2  -4  14    0.90    0.90 
  -2  -4  14    3.20    1.20 
  -3  -4 -14    3.90    1.60 
  -4   3 -14    4.20    1.30 
   3   4  14    3.80    1.00 
  -3  -4  14    3.70    1.10 
  -3  -4  14    3.20    1.30 
  -4   3  14    3.40    1.10 
   4  -3  14    6.10    1.00 
  -4  -4 -14   20.20    2.90 
  -4   4 -14   18.10    2.20 
  -4  -4  14   13.00    2.10 
   4   4  14   12.40    1.90 
   4  -4  14   19.20    2.50 
  -4   4  14   12.50    2.00 
  -4  -4  14   15.00    2.30 
   4  -4  14   14.00    1.90 
  -5  -4 -14    1.50    1.30 
  -5  -4 -14    1.00    0.90 
  -4   5 -14    0.00    0.80 
   4  -5  14    0.00    1.20 
   5   4  14    0.10    0.70 
  -5  -4  14    0.20    0.80 
   4  -5  14    1.50    0.90 
  -5  -4  14    0.30    1.00 
  -4   5  14    0.50    0.80 
  -3   5 -14    6.50    1.30 
  -5  -3 -14    7.50    1.40 
  -5  -3 -14    8.60    2.00 
   3  -5  14    5.90    1.40 
   3  -5  14    7.10    1.50 
  -5  -3  14    8.00    1.50 
   5   3  14    6.80    1.20 
  -3   5  14    4.80    1.20 
  -5  -3  14    8.20    1.60 
  -5  -2 -14    5.70    1.20 
  -2   5 -14    6.60    1.20 
  -5  -2 -14    4.20    1.70 
   2  -5 -14    6.90    1.60 
  -5  -2  14    6.50    1.30 
   2  -5  14    3.80    1.20 
   5   2  14    6.00    1.10 
  -2   5  14    5.80    1.20 
   2  -5  14    5.30    1.20 
   1  -5 -14    6.20    1.50 
  -5  -1 -14    4.80    1.10 
  -1   5 -14    4.30    1.00 
  -5  -1 -14    6.30    1.70 
   1  -5  14    4.40    1.40 
  -5  -1  14    2.60    1.00 
   1  -5  14    5.20    1.20 
   5   1  14    5.00    1.00 
  -1   5  14    3.90    1.00 
  -5   0 -14    2.80    0.90 
   0   5 -14    1.60    0.70 
  -5   0 -14    2.00    1.20 
   0  -5 -14   -0.70    1.10 
   0   5  14    0.70    0.80 
   0  -5  14    1.60    0.80 
   5   0  14    0.40    0.70 
  -5   0  14    1.30    0.80 
  -5   1 -14    4.10    1.60 
  -1  -5 -14    6.20    1.60 
   1   5 -14    5.00    1.00 
  -5   1  14    3.80    1.10 
  -1  -5  14    3.70    1.30 
   5  -1  14    3.90    0.90 
  -1  -5  14    5.80    1.20 
   1   5  14    5.30    1.10 
  -2  -5 -14    9.20    2.00 
  -5   2 -14    4.80    1.80 
   2   5  14    6.80    1.70 
  -2  -5  14    7.30    1.40 
  -2  -5  14    5.30    1.60 
  -5   2  14    6.40    1.30 
   5  -2  14    4.40    1.00 
  -5   3 -14    6.70    1.60 
  -3  -5 -14    4.00    1.70 
   5  -3  14    7.40    1.20 
   3   5  14    7.10    1.20 
  -3  -5  14    8.30    1.50 
  -5   3  14    7.00    1.40 
  -5   4 -14    0.90    1.00 
  -4  -5 -14    0.40    1.40 
   4   5  14    0.70    0.70 
  -4  -5  14    0.00    1.00 
  -4  -5  14   -0.80    0.80 
   5  -4  14    1.10    0.70 
  -5   4  14    0.50    0.90 
  -5  -5 -14   -1.60    1.40 
  -5   5 -14    1.00    1.00 
  -5  -5  14    0.60    0.80 
   5   5  14    0.90    0.80 
  -5  -5  14    0.70    1.00 
  -5   5  14    0.80    0.90 
  -5   6 -14    9.50    1.70 
  -6  -5 -14   11.20    1.80 
   6   5  14   11.10    1.60 
   5  -6  14    8.30    2.10 
   5  -6  14   12.10    1.70 
  -6  -5  14   10.40    1.90 
  -6  -4 -14   27.00    3.20 
  -4   6 -14   28.60    3.10 
  -6  -4 -14   29.70    3.80 
  -6  -4  14   24.50    3.20 
   6   4  14   27.00    3.00 
   4  -6  14   21.80    3.10 
   4  -6  14   26.10    3.10 
  -6  -4  14   27.20    3.40 
  -6  -3 -14    2.00    0.90 
  -6  -3 -14    0.20    1.50 
  -3   6 -14    3.00    0.90 
   6   3  14    1.90    0.80 
  -6  -3  14    2.90    1.00 
  -3   6  14    0.80    0.80 
   3  -6  14    0.80    0.80 
  -6  -2 -14   17.20    2.80 
  -6  -2 -14   13.30    2.00 
  -2   6 -14   14.30    1.90 
  -6  -2  14   15.40    2.20 
   2  -6  14   13.20    1.90 
   6   2  14   15.60    1.90 
  -2   6  14   13.50    1.90 
  -6  -1 -14    0.20    1.40 
   1  -6 -14    1.50    1.20 
  -1   6 -14   -0.10    0.60 
  -6  -1 -14    0.30    0.80 
   1  -6  14   -0.70    0.70 
  -6  -1  14    0.50    0.90 
   1  -6  14    0.00    0.80 
   6   1  14    1.20    0.70 
  -1   6  14    0.00    0.80 
   0  -6 -14   32.40    4.30 
  -6   0 -14   35.60    4.00 
   0   6 -14   31.60    3.80 
  -6   0 -14   34.40    4.40 
   6   0  14   36.40    3.80 
   0  -6  14   35.00    4.00 
   0   6  14   37.20    3.90 
  -6   0  14   35.10    4.00 
  -6   1 -14   -0.80    1.00 
  -1  -6 -14   -0.20    1.30 
  -1  -6  14    0.40    0.90 
   1   6  14    1.00    0.80 
  -6   1  14   -0.40    0.70 
  -1  -6  14    0.70    0.90 
   6  -1  14    0.50    0.70 
  -6   2 -14   17.20    2.60 
  -2  -6 -14   13.70    2.50 
  -2  -6  14   14.60    2.10 
  -6   2  14   12.30    2.00 
   2   6  14   13.70    1.90 
   6  -2  14   13.40    1.80 
  -2  -6  14   15.00    2.20 
  -3  -6 -14    0.20    1.50 
  -6   3 -14    1.20    1.20 
  -3  -6  14    2.80    1.10 
   6  -3  14    1.80    0.70 
   3   6  14    2.30    1.10 
  -6   3  14    2.00    0.90 
  -3  -6  14    1.20    1.10 
  -4  -6 -14   33.60    3.80 
  -6   4  14   23.90    3.10 
   4   6  14   27.90    3.20 
  -4  -6  14   27.80    3.30 
   6  -4  14   26.00    3.00 
  -4  -6  14   24.20    3.20 
  -6   5 -14   14.00    2.10 
  -5  -6  14   11.30    2.50 
   5   6  14   10.80    1.70 
   6  -5  14   11.20    1.70 
  -6   6 -14   15.50    2.30 
  -6  -6 -14   16.90    2.90 
  -6   6  14   14.50    2.10 
  -6  -6  14   14.20    2.20 
   6  -6  14   14.70    2.00 
  -6  -6  14   16.00    2.40 
   6   6  14   15.10    2.00 
  -6   7 -14    8.30    1.50 
  -7  -6 -14    7.40    1.80 
  -7  -6 -14   11.30    2.50 
  -7  -6  14    7.40    1.60 
   6  -7  14    9.40    1.50 
   7   6  14   10.10    1.40 
  -6   7  14   10.30    1.70 
  -7  -6  14    8.90    1.70 
  -7  -5 -14    2.40    1.00 
  -5   7 -14    3.40    1.00 
  -7  -5 -14    4.40    1.90 
   7   5  14    2.20    0.80 
  -7  -5  14    2.40    1.40 
   5  -7  14    1.10    0.70 
  -7  -5  14    1.10    1.00 
  -5   7  14    4.00    1.20 
   5  -7  14    2.30    0.90 
  -7  -4 -14    2.60    1.90 
  -4   7 -14   -0.10    0.70 
  -7  -4 -14    0.20    0.80 
   4  -7  14    1.10    0.80 
  -4   7  14    0.60    1.00 
   7   4  14    0.20    0.70 
   4  -7  14   -0.90    0.50 
  -3   7 -14    3.10    0.90 
  -7  -3 -14    4.90    1.10 
  -7  -3 -14    4.10    1.90 
   7   3  14    4.00    0.90 
  -3   7  14    3.80    1.20 
   3  -7  14    4.10    1.10 
  -7  -3  14    4.80    1.30 
  -2   7 -14   16.80    2.00 
  -7  -2 -14   22.30    3.10 
  -7  -2 -14   17.00    2.20 
   2  -7  14   12.60    2.00 
  -2   7  14   17.00    2.20 
   2  -7  14   16.30    2.10 
   7   2  14   15.70    2.00 
  -7  -2  14   14.40    2.20 
   1  -7 -14    2.00    1.40 
  -7  -1 -14    1.50    1.60 
  -7  -1 -14    3.20    1.00 
  -1   7 -14    3.50    0.80 
   7   1  14    3.20    0.80 
   1  -7  14    1.60    0.80 
  -7  -1  14    5.60    1.30 
   1  -7  14    4.30    1.10 
  -1   7  14    4.00    1.10 
   0   7 -14    0.30    0.60 
  -7   0 -14    1.50    1.50 
   0  -7 -14   -0.20    1.30 
  -7   0  14   -0.50    0.90 
   7   0  14   -0.40    0.60 
   0  -7  14    2.20    0.90 
   0  -7  14    0.70    0.70 
   0   7  14   -0.10    0.70 
  -7   1 -14    3.40    1.50 
  -1  -7 -14    3.70    1.50 
  -1  -7  14    2.40    0.90 
  -1  -7  14    5.90    1.20 
   7  -1  14    4.40    0.90 
   1   7  14    2.60    0.90 
  -7   1  14    3.80    1.20 
  -2  -7 -14   18.60    2.90 
  -7   2 -14   17.40    2.90 
  -7   2  14   15.30    2.20 
   7  -2  14   18.10    2.00 
   2   7  14   14.90    2.10 
  -2  -7  14   15.00    2.30 
  -2  -7  14   13.70    2.10 
  -3  -7 -14    3.70    2.40 
  -7   3 -14    3.60    1.50 
   7  -3  14    3.70    0.90 
   3   7  14    5.20    1.10 
  -7   3  14    2.70    1.20 
  -3  -7  14    3.30    1.10 
  -7   4 -14    0.10    1.10 
  -4  -7 -14   -2.50    2.20 
   4   7  14    0.50    0.80 
   7  -4  14    0.80    0.70 
  -4  -7  14    1.00    0.90 
  -4  -7  14    0.60    0.90 
  -7   4  14    0.70    1.30 
  -7   5 -14    2.20    1.20 
  -5  -7 -14    6.60    2.10 
   7  -5  14    1.80    0.80 
  -5  -7  14    0.80    0.90 
  -5  -7  14    4.20    1.30 
  -7   5  14    2.10    1.00 
   5   7  14    4.30    1.50 
  -6  -7 -14   11.90    2.50 
  -7   6 -14    9.30    1.80 
  -7   6  14   11.30    1.80 
   7  -6  14   11.20    1.60 
   6   7  14    9.80    1.60 
  -6  -7  14    8.50    1.80 
  -7   7 -14    6.50    1.50 
  -7  -7 -14    1.30    1.50 
  -7  -7  14    4.60    1.10 
  -7  -7  14    4.90    1.50 
  -7   7  14    4.50    1.30 
   7  -7  14    5.50    1.10 
   7   7  14    5.60    1.10 
  -7   8 -14    0.30    1.10 
  -8  -7 -14    0.80    1.60 
  -7   8  14   -0.20    0.90 
  -8  -7  14    0.40    1.10 
   8   7  14    0.60    0.80 
   7  -8  14    1.20    0.90 
  -8  -6 -14   10.10    2.20 
  -6   8 -14    2.70    1.00 
  -8  -6 -14    5.00    1.30 
  -8  -6  14    3.80    1.20 
   6  -8  14    4.90    1.10 
  -6   8  14    3.90    1.30 
   8   6  14    4.80    1.10 
  -8  -5 -14    0.00    1.60 
  -8  -5 -14    1.40    0.90 
  -5   8 -14   -0.70    0.70 
   5  -8  14    0.50    0.80 
  -5   8  14   -1.20    0.80 
   5  -8  14    0.00    0.50 
  -8  -5  14   -0.20    0.90 
   8   5  14    0.00    0.70 
  -4   8 -14    4.50    1.00 
  -8  -4 -14    6.40    1.90 
  -8  -4 -14    4.90    1.20 
   8   4  14    4.20    0.90 
  -8  -4  14    3.10    1.20 
   4  -8  14    2.40    0.80 
  -4   8  14    3.50    1.10 
   4  -8  14    3.60    1.10 
  -8  -3 -14    4.40    1.40 
  -3   8 -14    2.50    0.80 
  -8  -3 -14    5.60    2.00 
   8   3  14    4.70    0.90 
  -3   8  14    1.60    1.00 
   3  -8  14    2.80    0.70 
  -8  -3  14    3.70    2.00 
  -2   8 -14    1.90    0.70 
  -8  -2 -14    4.20    2.00 
  -2   8  14    3.40    1.80 
   2  -8  14    1.90    0.70 
   8   2  14    2.50    0.80 
   2  -8  14    2.30    1.10 
   1  -8 -14   15.00    3.30 
  -8  -1 -14   13.40    2.70 
  -1   8 -14    7.40    1.20 
  -1   8  14    7.00    1.50 
   1  -8  14    6.60    1.10 
   8   1  14    9.00    1.30 
  -8  -1  14    5.90    1.70 
   1  -8  14    7.70    1.50 
  -8   0 -14    8.50    2.10 
   8   0  14    5.20    1.00 
   0   8  14    3.90    1.20 
  -8   0  14    4.70    1.40 
   0  -8  14    6.10    1.00 
  -1  -8 -14    9.00    3.30 
  -8   1 -14   11.00    2.30 
   8  -1  14    8.50    1.30 
  -1  -8  14    6.40    1.20 
   1   8  14    8.10    2.10 
  -8   1  14    9.20    2.30 
  -1  -8  14    8.90    2.40 
  -8   2 -14    4.30    1.80 
  -2  -8 -14    3.00    1.60 
   2   8  14    4.00    1.00 
  -2  -8  14    1.70    1.00 
   8  -2  14    2.00    0.80 
  -2  -8  14    1.70    0.80 
  -3  -8 -14    5.20    2.00 
  -8   3 -14    5.00    1.80 
   8  -3  14    4.10    0.90 
  -8   3  14    3.70    1.20 
   3   8  14    2.90    1.00 
  -3  -8  14    2.90    1.20 
  -3  -8  14    4.70    1.00 
  -8   4 -14    4.90    1.60 
  -4  -8 -14    3.20    2.00 
  -4  -8  14    3.60    1.00 
  -4  -8  14    2.80    1.30 
   4   8  14    4.60    1.10 
  -8   4  14    3.20    1.10 
   8  -4  14    4.30    0.90 
  -5  -8 -14    0.50    1.60 
  -8   5 -14    0.00    1.20 
   5   8  14    0.80    0.80 
  -8   5  14    0.50    0.90 
  -5  -8  14   -0.50    0.70 
  -5  -8  14    0.30    1.00 
   8  -5  14    1.60    0.80 
  -6  -8 -14    4.90    2.00 
  -8   6 -14    6.10    1.60 
  -8   6  14    4.00    1.30 
   8  -6  14    5.70    1.20 
  -6  -8  14    6.50    1.60 
  -6  -8  14    3.70    1.00 
   6   8  14    5.20    1.20 
  -7  -8 -14   -0.20    1.30 
  -8   7 -14    0.20    1.00 
   8  -7  14    0.90    0.80 
  -7  -8  14    0.10    1.00 
   7   8  14    2.00    1.50 
  -7  -8  14    0.50    0.90 
  -8   7  14    0.70    1.00 
  -8   8 -14    9.60    1.80 
  -8  -8 -14   11.40    2.70 
  -8   8  14   10.90    1.90 
   8  -8  14   12.60    1.70 
   8   8  14   11.10    1.70 
  -8  -8  14    8.80    1.90 
  -8  -8  14   10.40    1.60 
  -9  -8 -14   -2.30    2.40 
  -8   9 -14    1.10    0.90 
  -9  -8  14    0.80    0.80 
   9   8  14    3.30    1.00 
  -8   9  14    1.30    1.10 
  -9  -8  14    1.20    1.10 
  -9  -7 -14    1.10    1.60 
  -7   9 -14    0.20    0.80 
  -9  -7 -14    1.80    1.00 
  -7   9  14    1.00    1.10 
  -9  -7  14    0.00    1.10 
   9   7  14    2.10    0.90 
  -6   9 -14    6.20    1.30 
  -9  -6 -14    9.10    1.50 
  -9  -6 -14   10.90    2.40 
   6  -9  14    8.30    2.20 
   6  -9  14    5.30    1.10 
  -6   9  14    8.80    1.60 
   9   6  14   10.90    1.40 
  -9  -6  14    7.50    1.60 
  -9  -5 -14    0.20    1.60 
  -5   9 -14    0.00    0.60 
  -9  -5 -14   -0.50    1.00 
   9   5  14    0.20    0.70 
  -5   9  14   -0.10    0.80 
   5  -9  14    0.00    1.00 
   5  -9  14   -0.50    0.40 
  -9  -5  14   -0.30    1.00 
  -9  -4 -14    3.70    1.90 
  -9  -4 -14    3.20    1.10 
  -4   9 -14    1.20    0.70 
   9   4  14    1.70    0.80 
  -9  -4  14    3.30    1.20 
  -4   9  14    1.00    0.90 
   4  -9  14    1.90    0.60 
   4  -9  14    1.60    1.00 
  -9  -3 -14    2.40    1.00 
  -3   9 -14    2.70    0.70 
  -9  -3 -14    3.40    2.00 
  -9  -3  14    1.90    1.00 
  -3   9  14    2.50    1.00 
   3  -9  14    0.80    0.50 
   9   3  14    3.00    0.80 
  -9  -2 -14   10.60    2.30 
  -2   9 -14    8.70    1.30 
  -2   9  14    9.70    1.60 
   9   2  14    9.80    1.40 
  -9  -2  14   11.30    1.80 
   2  -9  14    9.50    1.60 
   2  -9  14    6.30    1.10 
  -9  -1 -14    4.50    1.80 
   1  -9 -14    3.40    1.40 
  -1   9  14    4.40    1.10 
   9   1  14    2.70    0.80 
  -9  -1  14    3.20    1.10 
   1  -9  14    1.40    0.50 
   1  -9  14    2.00    1.10 
  -9   0 -14    1.70    1.50 
   0  -9 -14    4.60    1.80 
   9   0  14    2.80    0.80 
   0  -9  14    3.60    1.20 
   0  -9  14    1.40    0.60 
   0   9  14    4.30    1.20 
  -9   0  14    3.10    1.20 
  -1  -9 -14    0.00    1.30 
  -9   1 -14    1.10    1.70 
  -1  -9  14    2.50    1.00 
   9  -1  14    2.20    0.70 
  -9   1  14    2.10    1.00 
  -1  -9  14    1.50    0.50 
  -2  -9 -14   13.20    2.60 
  -9   2  14    9.10    1.70 
   9  -2  14   10.40    1.50 
   2   9  14   11.90    1.70 
  -2  -9  14    9.10    1.80 
  -9   3 -14    1.90    1.70 
  -3  -9 -14    1.80    1.70 
   3   9  14    2.40    1.00 
  -3  -9  14    0.80    1.00 
  -9   3  14    2.60    1.10 
   9  -3  14    2.10    0.70 
  -3  -9  14    0.70    0.60 
  -9   4 -14    4.50    1.70 
  -4  -9 -14    3.80    1.80 
  -9   4  14    3.40    1.10 
   4   9  14    1.00    0.90 
   9  -4  14    2.50    0.80 
  -4  -9  14    3.10    1.30 
  -4  -9  14    3.00    0.70 
  -5  -9 -14    2.00    1.70 
  -9   5 -14   -0.50    1.20 
  -5  -9  14   -0.40    0.60 
   9  -5  14   -0.20    0.70 
  -5  -9  14    0.90    1.10 
  -9   5  14   -0.30    0.80 
   5   9  14    0.50    0.90 
  -9   6 -14    5.90    1.80 
  -6  -9 -14   12.90    2.70 
   6   9  14    8.50    1.50 
  -6  -9  14    7.00    1.70 
  -9   6  14    8.40    1.70 
  -6  -9  14    9.10    1.30 
  -9   7 -14   -0.50    1.10 
  -7  -9 -14   -1.20    1.30 
  -7  -9  14    1.10    0.70 
   7   9  14   -0.10    0.80 
  -9   7  14    0.00    1.00 
   9  -7  14    0.50    0.80 
  -7  -9  14   -0.50    0.90 
  -9   8 -14    4.30    1.40 
   8   9  14    2.00    1.00 
  -8  -9  14    1.10    1.90 
  -9   8  14    1.10    1.60 
   9  -8  14    1.70    0.90 
  -9  -9 -14    4.70    1.90 
  -9   9 -14   -0.60    0.90 
  -9  -9  14    0.50    1.20 
  -9   9  14   -0.60    0.90 
 -10  -8 -14    2.90    1.90 
  -8  10 -14    2.80    1.00 
  10   8  14    2.30    1.00 
   8 -10  14    4.30    1.20 
  -8  10  14    1.60    1.20 
 -10  -8  14    3.90    2.30 
 -10  -7 -14    9.40    2.50 
  -7  10 -14    8.60    1.50 
   7 -10  14    7.20    1.60 
  -7  10  14    9.20    1.80 
 -10  -7  14   11.90    2.00 
  10   7  14   10.30    1.50 
  -6  10 -14    2.20    0.80 
  10   6  14    4.00    0.90 
   6 -10  14    4.50    1.20 
   6 -10  14    1.60    0.60 
 -10  -6  14    0.90    1.10 
 -10  -5 -14    3.80    1.90 
  -5  10 -14    4.10    0.90 
 -10  -5 -14    5.70    1.10 
  10   5  14    4.00    1.00 
 -10  -5  14    2.10    1.30 
  -5  10  14    3.90    1.30 
   5 -10  14    2.80    1.20 
 -10  -4 -14    7.50    1.30 
  -4  10 -14    6.70    1.10 
 -10  -4 -14   13.40    2.70 
   4 -10  14    7.10    1.10 
   4 -10  14    6.80    1.50 
  -4  10  14    7.00    1.50 
 -10  -4  14    5.80    1.60 
  10   4  14    6.80    1.20 
  -3  10 -14    3.00    0.70 
 -10  -3 -14    3.30    2.00 
  10   3  14    5.30    0.90 
 -10  -3  14    3.40    1.20 
   3 -10  14    2.20    0.60 
  -3  10  14    4.30    1.20 
 -10  -2 -14   -0.40    1.50 
  -2  10 -14    1.40    0.60 
 -10  -2  14    0.90    1.00 
   2 -10  14    2.60    1.10 
  10   2  14    1.70    0.70 
   2 -10  14    0.90    0.50 
  -2  10  14    2.60    1.00 
 -10  -1 -14    1.90    1.60 
  -1  10  14   -1.20    0.80 
  10   1  14   -0.40    0.60 
   1 -10  14    0.40    0.40 
   1 -10  14    0.00    0.90 
 -10  -1  14   -1.60    0.80 
   0 -10 -14   11.20    2.20 
 -10   0 -14   16.20    2.60 
   0 -10  14    6.40    1.00 
   0 -10  14    6.20    1.60 
  10   0  14   10.70    1.30 
 -10   0  14    6.70    1.60 
   0  10  14   11.70    1.70 
  -1 -10 -14    1.70    1.70 
 -10   1 -14   -0.50    1.50 
  10  -1  14   -0.10    0.60 
  -1 -10  14    0.30    0.90 
   1  10  14   -0.10    0.90 
  -1 -10  14    0.00    0.40 
 -10   1  14   -0.50    0.90 
 -10   2 -14    0.10    2.20 
  -2 -10 -14    0.30    1.60 
 -10   2  14    1.20    1.00 
  10  -2  14    2.20    0.70 
   2  10  14    1.50    1.00 
  -2 -10  14    1.50    1.10 
  -3 -10 -14    4.30    1.80 
 -10   3 -14    1.40    1.60 
  -3 -10  14    2.00    1.20 
  10  -3  14    3.10    0.80 
   3  10  14    5.30    1.80 
 -10   3  14    1.60    1.00 
  -4 -10 -14    7.50    2.20 
 -10   4 -14   11.60    2.30 
  10  -4  14    8.60    1.30 
 -10   4  14    7.90    1.70 
   4  10  14    8.50    2.20 
  -4 -10  14    6.90    1.80 
  -5 -10 -14    3.60    1.90 
 -10   5 -14    3.80    1.60 
  10  -5  14    4.80    0.90 
 -10   5  14    1.30    1.10 
   5  10  14    1.30    1.00 
  -5 -10  14    1.70    0.60 
  -5 -10  14    3.80    1.40 
  -6 -10 -14    4.20    1.90 
 -10   6 -14    3.80    1.60 
  -6 -10  14    2.60    0.80 
  10  -6  14    2.70    0.90 
   6  10  14    2.30    1.00 
  -6 -10  14    3.60    1.70 
 -10   6  14    1.40    1.20 
 -10   7 -14   10.90    2.10 
   7  10  14    9.00    1.60 
  -7 -10  14   10.60    2.20 
  10  -7  14    9.50    1.50 
  -8 -10 -14    1.90    1.60 
 -10   8 -14    2.90    1.40 
  -8 -10  14    3.00    1.40 
  10  -8  14    3.00    1.00 
   8  10  14    2.50    1.00 
 -10   8  14    3.10    1.30 
  -8 -10  14    3.50    0.60 
  -6  11 -14    2.40    0.70 
 -11  -6 -14    1.40    1.80 
   6 -11  14    0.80    1.00 
  11   6  14    2.00    0.80 
 -11  -6  14    1.20    1.30 
  -6  11  14    1.40    1.10 
  -5  11 -14    1.20    0.60 
 -11  -5 -14    0.10    1.70 
  -5  11  14    0.10    1.00 
 -11  -5  14    0.90    1.20 
   5 -11  14    0.60    0.90 
  11   5  14    1.00    0.70 
 -11  -4 -14    8.70    3.70 
  -4  11 -14    8.50    1.30 
   4 -11  14    8.30    1.70 
 -11  -4  14    7.20    1.80 
  11   4  14   12.20    1.50 
  -3  11 -14    0.80    0.50 
 -11  -3 -14    3.60    2.10 
   3 -11  14    0.60    0.40 
  11   3  14    1.10    0.70 
  -3  11  14    0.70    1.10 
 -11  -3  14    0.20    1.10 
 -11  -2 -14    2.30    2.00 
  11   2  14    1.70    0.70 
  -2  11  14    2.60    1.10 
 -11  -2  14    1.30    1.10 
   2 -11  14    1.50    0.50 
   2 -11  14    2.00    1.10 
 -11  -1 -14    1.10    1.70 
  11   1  14    0.50    0.60 
   1 -11  14   -0.50    0.80 
  -1  11  14    1.20    1.00 
 -11  -1  14    1.70    1.10 
   0 -11 -14   14.70    2.60 
 -11   0 -14   11.20    2.60 
   0  11  14    8.00    1.60 
   0 -11  14   10.30    1.90 
 -11   0  14    7.60    1.60 
  11   0  14   10.30    1.30 
   0 -11  14    7.40    1.00 
 -11   1 -14    4.00    1.90 
  -1 -11 -14   -2.80    1.30 
  -1 -11  14    0.10    0.20 
   1  11  14   -0.50    0.90 
 -11   1  14    0.70    1.10 
  -1 -11  14    1.20    1.10 
  11  -1  14   -0.30    0.60 
 -11   2 -14    2.80    2.10 
  -2 -11 -14   -1.60    1.40 
  11  -2  14    2.00    0.70 
 -11   2  14    1.40    1.00 
   2  11  14    1.70    1.00 
  -2 -11  14    3.10    1.30 
  -3 -11 -14    0.40    1.40 
 -11   3 -14    0.80    1.60 
   3  11  14    0.60    1.00 
  11  -3  14    1.30    0.70 
 -11   3  14    1.40    1.10 
  -3 -11  14   -0.20    1.70 
 -11   4 -14   10.00    2.30 
  -4 -11 -14    7.40    2.30 
   4  11  14   11.80    1.80 
  11  -4  14   12.90    1.60 
 -11   4  14    8.50    1.80 
 -11   5 -14    1.60    1.50 
  -5 -11 -14    0.50    1.80 
  11  -5  14    0.10    0.70 
 -11   5  14   -1.40    0.90 
  -5 -11  14    0.90    1.10 
   5  11  14    1.30    1.00 
 -11   6 -14   -0.20    1.40 
  -6 -11 -14   -2.30    2.20 
  -6 -11  14    1.20    1.20 
   6  11  14    1.80    1.00 
  -6 -11  14    0.80    0.40 
  11  -6  14    1.80    0.80 
 -11   6  14    2.20    2.10 
 -12  -4 -14    7.00    2.20 
  -4  12 -14    2.30    0.80 
  -4  12  14    1.40    1.20 
 -12  -4  14    1.80    1.30 
 -12  -3 -14   -0.70    1.70 
  -3  12  14    1.70    1.10 
 -12  -3  14    1.00    1.20 
 -12  -2 -14   24.90    3.60 
 -12  -2  14   22.50    3.10 
  -2  12  14   21.60    3.00 
 -12  -1 -14    1.90    1.90 
 -12  -1  14    2.50    1.30 
   1 -12  14    2.10    2.10 
   0 -12  14   10.20    2.10 
 -12   0  14    7.70    1.70 
  -1 -12 -14    1.50    1.70 
 -12   1  14    5.80    1.50 
   1  12  14    4.00    1.30 
  12  -1  14    5.40    0.90 
  -1 -12  14    1.80    1.20 
 -12   2 -14   25.70    4.80 
  -2 -12 -14   16.80    3.60 
  -2 -12  14   24.20    3.30 
   2  12  14   21.80    3.10 
 -12   2  14   25.30    3.30 
  12  -2  14   28.60    2.80 
 -12   3 -14    1.00    1.60 
  -3 -12 -14    1.40    2.00 
 -12   3  14    0.60    1.20 
  -3 -12  14    1.10    1.10 
   3  12  14   -0.50    1.00 
  12  -3  14    2.30    0.70 
 -12   4 -14    3.70    1.80 
  -4 -12 -14    1.20    2.90 
 -12   4  14    1.30    1.30 
   4  12  14    2.70    1.10 
  -4 -12  14    3.90    1.50 
  12  -4  14    2.60    0.80 
   0   0 -15   -0.50    1.00 
   0   0  15    0.40    0.90 
   1   0 -15   -0.90    0.80 
  -1   0 -15    0.60    1.00 
   0   1 -15    1.40    1.00 
   0  -1 -15    0.30    1.00 
   0  -1  15   -0.30    0.80 
   0   1  15    0.10    0.80 
  -1   0  15   -0.70    0.80 
   1   0  15   -1.30    0.70 
  -1   1 -15    0.10    1.00 
   1   1 -15    4.60    1.10 
  -1  -1 -15    3.70    1.30 
   1  -1 -15   -0.90    0.80 
  -1   1  15   -0.20    0.70 
  -1  -1  15    0.60    0.90 
   1  -1  15   -0.10    0.80 
   1   1  15    0.30    0.70 
  -1   2 -15    0.60    1.00 
   1  -2 -15    0.80    0.90 
  -2  -1 -15    2.10    1.20 
   1  -2  15    0.80    0.80 
  -2  -1  15    0.40    0.80 
  -1   2  15    0.90    0.80 
  -2   0 -15    0.60    1.00 
   2   0 -15    0.60    1.00 
   0   2 -15    1.30    0.90 
   0  -2 -15   -0.30    1.00 
   0   2  15    0.00    0.80 
   0  -2  15    0.90    0.80 
  -2   0  15    0.50    0.80 
  -2   1 -15    1.80    1.90 
   1   2 -15    1.20    0.90 
   2  -1 -15    1.10    1.00 
  -1  -2 -15    2.70    1.30 
   2  -1  15    1.10    1.30 
  -1  -2  15    0.20    0.80 
   1   2  15    0.90    0.80 
  -2   1  15    0.20    0.80 
  -2  -2 -15    1.70    1.30 
  -2   2 -15    0.70    0.90 
   2  -2 -15   -0.10    1.00 
   2   2  15   -0.10    0.70 
  -2  -2  15    0.00    0.80 
   2  -2  15    0.20    0.80 
  -2   2  15   -0.10    0.80 
  -2   3 -15   -0.40    0.80 
  -3  -2 -15    0.90    1.20 
   2  -3 -15    0.10    1.00 
  -2   3  15    1.40    0.90 
  -3  -2  15    1.60    0.90 
   2  -3  15    0.60    0.80 
  -1   3 -15    0.10    0.90 
  -3  -1 -15    0.70    1.30 
  -1   3  15    1.60    0.90 
  -3  -1  15    1.10    0.90 
   3   1  15    0.50    0.80 
   1  -3  15    1.70    0.80 
   0   3 -15   -1.50    0.70 
  -3   0 -15   -0.20    1.10 
   0  -3 -15   -1.10    1.00 
   3   0  15    0.40    0.80 
   0  -3  15   -0.60    0.70 
  -3   0  15    0.00    0.90 
   0   3  15   -0.30    0.80 
   1   3 -15    1.80    0.90 
  -1  -3 -15    1.20    1.30 
  -3   1 -15    0.70    1.70 
  -3   1  15    2.00    1.00 
  -1  -3  15    0.40    0.70 
   1   3  15    1.00    0.80 
  -2  -3 -15    0.40    1.30 
  -2  -3  15    0.40    0.80 
   3  -2  15    1.00    0.80 
   2   3  15    0.20    0.80 
  -3   2  15   -1.00    0.80 
  -3  -3 -15    0.50    1.20 
  -3   3 -15    1.10    1.00 
  -3  -3  15   -0.80    0.80 
  -3   3  15   -0.50    0.80 
   3   3  15    0.30    1.10 
   3  -3  15    1.20    0.80 
  -3   4 -15    0.00    0.90 
  -4  -3 -15   -1.60    1.20 
  -4  -3  15   -0.70    0.80 
  -3   4  15    1.00    0.80 
   3  -4  15    0.20    0.70 
   4   3  15    1.20    0.80 
   2  -4 -15    1.00    1.00 
  -4  -2 -15    2.00    1.40 
  -2   4 -15    0.00    0.80 
   2  -4  15    1.90    0.90 
   4   2  15    2.20    0.80 
  -2   4  15    1.40    0.90 
  -4  -2  15    1.10    0.90 
  -4  -1 -15    0.80    1.20 
   1  -4 -15    0.40    1.10 
  -1   4 -15   -0.30    0.80 
  -1   4  15   -0.70    0.80 
  -4  -1  15    0.50    0.90 
   4   1  15    0.20    0.70 
   1  -4  15    0.10    1.00 
   1  -4  15    0.50    0.80 
   0   4 -15    2.00    0.90 
  -4   0 -15   -0.40    1.10 
   0  -4 -15    0.60    1.10 
   0   4  15    1.60    0.80 
  -4   0  15    2.40    1.00 
   4   0  15    1.80    0.80 
   0  -4  15    2.70    1.30 
   0  -4  15    1.60    0.80 
  -1  -4 -15   -0.30    1.00 
   1   4 -15   -0.70    0.70 
  -1  -4  15    0.30    0.80 
   4  -1  15    0.40    0.70 
   1   4  15    1.00    0.80 
  -4   1  15    0.40    0.80 
  -1  -4  15    0.10    1.20 
  -2  -4 -15    2.80    1.50 
  -4   2 -15    2.00    1.20 
  -2  -4  15    1.00    1.20 
  -4   2  15    2.80    1.00 
  -2  -4  15    2.60    0.90 
   2   4  15    1.40    0.90 
  -3  -4 -15   -0.70    1.20 
  -4   3 -15   -0.90    1.30 
  -4   3  15    0.00    0.80 
   3   4  15    0.20    0.80 
  -3  -4  15    0.50    1.10 
   4  -3  15    0.20    0.70 
  -3  -4  15    0.80    0.80 
  -4  -4 -15    4.50    2.80 
  -4   4 -15    2.00    1.20 
  -4   4  15    0.10    1.50 
  -4  -4  15    1.40    1.60 
   4  -4  15    2.40    0.80 
  -5  -4 -15   -0.10    1.50 
  -4   5 -15    0.00    0.90 
  -4   5  15    0.60    0.90 
  -5  -4  15    0.80    0.90 
   4  -5  15    0.00    0.70 
   5   4  15   -0.80    0.70 
  -3   5 -15    0.90    0.90 
  -5  -3 -15    1.80    1.60 
   3  -5  15    0.10    0.80 
   5   3  15    0.80    0.70 
  -3   5  15   -0.30    1.20 
  -5  -2 -15    1.00    1.40 
  -2   5 -15    1.80    0.90 
   5   2  15    2.90    0.80 
  -2   5  15    1.20    0.90 
   2  -5  15    0.50    0.80 
  -5  -2  15    2.50    1.10 
   2  -5  15    2.10    1.10 
  -1   5 -15    0.40    0.80 
   1  -5 -15    1.10    1.30 
  -5  -1 -15   -1.70    1.30 
  -1   5  15    0.60    0.80 
   1  -5  15    0.30    0.80 
   1  -5  15    2.40    1.20 
   5   1  15    0.00    0.70 
  -5  -1  15    0.30    0.90 
   0   5 -15   -0.10    0.70 
  -5   0 -15    1.20    1.30 
   0  -5 -15    0.50    1.30 
  -5   0  15    0.70    0.80 
   5   0  15   -1.10    0.60 
   0   5  15   -1.00    0.80 
   0  -5  15   -0.80    1.00 
   0  -5  15    1.30    0.90 
  -1  -5 -15    1.70    1.30 
  -1  -5  15    3.10    1.30 
  -5   1  15    1.30    0.80 
   5  -1  15    1.70    0.80 
   1   5  15    0.70    0.80 
  -1  -5  15    0.10    0.80 
  -5   2 -15    1.50    1.20 
  -2  -5 -15    2.00    1.60 
  -2  -5  15    2.60    0.90 
   5  -2  15    2.80    0.90 
   2   5  15    1.80    0.90 
  -2  -5  15    0.80    1.20 
  -5   2  15    1.60    1.10 
  -5   3 -15    3.90    1.30 
   3   5  15    0.70    0.80 
  -3  -5  15    1.60    1.10 
  -5   4 -15    0.40    1.00 
  -4  -5 -15    0.20    1.50 
  -4  -5  15    0.00    0.80 
   4   5  15    0.60    0.80 
   5  -4  15    0.20    0.70 
  -5   4  15    0.80    1.00 
  -4  -5  15   -1.00    0.90 
  -5  -5 -15    0.10    1.60 
  -5   5 -15    1.00    1.40 
   5   5  15    1.80    1.00 
  -5  -5  15    2.50    1.00 
  -5  -5  15    0.30    1.30 
   5  -5  15    0.70    0.80 
  -5   5  15    1.40    1.00 
  -5   6 -15    0.50    0.90 
  -6  -5 -15    4.10    1.90 
  -5   6  15    2.60    1.10 
   5  -6  15    2.50    1.00 
  -6  -5  15    2.40    1.20 
   6   5  15    3.00    0.90 
  -6  -4 -15    4.60    2.00 
  -4   6 -15    1.70    0.90 
  -4   6  15    1.20    0.90 
   4  -6  15    1.50    0.90 
  -6  -4  15    1.70    1.10 
   6   4  15    1.00    0.80 
  -6  -3 -15    2.30    1.60 
  -3   6 -15   -0.60    0.70 
  -3   6  15    0.40    0.80 
   3  -6  15    0.00    0.80 
   6   3  15    1.10    0.80 
   3  -6  15   -0.30    0.80 
  -6  -3  15    1.80    1.10 
  -2   6 -15    1.20    0.80 
   2  -6  15    0.10    0.80 
   6   2  15    0.20    0.70 
  -6  -2  15    0.80    1.00 
   2  -6  15    0.30    0.70 
   1  -6 -15    4.90    2.30 
  -1   6 -15    1.40    0.80 
  -6  -1 -15    1.40    1.50 
  -1   6  15   -0.20    0.90 
   1  -6  15    0.80    0.90 
   6   1  15    2.50    0.80 
   1  -6  15    1.90    1.00 
  -6  -1  15    3.70    1.90 
   0   6 -15    1.30    0.80 
  -6   0 -15    2.40    1.60 
   0  -6 -15    2.40    2.40 
   0   6  15    2.00    1.00 
   0  -6  15    3.90    1.10 
   6   0  15    1.20    0.80 
   0  -6  15    0.50    0.90 
  -1  -6 -15    0.80    1.50 
  -6   1 -15    3.00    1.70 
   6  -1  15    1.70    0.80 
  -1  -6  15    0.80    1.00 
  -2  -6 -15    1.10    1.60 
  -6   2 -15    1.20    1.30 
  -2  -6  15   -0.10    1.10 
  -6   2  15    1.20    1.10 
   6  -2  15    0.80    0.80 
   2   6  15    0.60    0.90 
  -2  -6  15   -0.50    0.80 
  -6   3 -15    3.00    1.30 
  -3  -6 -15    0.70    1.40 
   6  -3  15    0.10    0.80 
  -3  -6  15    0.90    1.00 
   3   6  15   -0.30    0.80 
  -3  -6  15    1.80    1.00 
  -6   3  15    2.20    1.00 
  -4  -6 -15    4.00    1.70 
  -6   4 -15    1.90    1.20 
  -6   4  15    1.10    1.00 
   4   6  15    1.10    0.80 
  -4  -6  15    2.10    1.00 
  -4  -6  15    2.00    1.10 
   6  -4  15    2.30    0.80 
  -6   5 -15    1.20    1.10 
  -5  -6 -15   -0.10    1.50 
  -5  -6  15    1.60    1.10 
   6  -5  15    3.40    1.00 
  -6   5  15    2.10    1.10 
   5   6  15    1.70    0.80 
  -5  -6  15    0.90    1.10 
  -6  -6 -15    2.80    1.80 
  -6   6 -15    0.00    0.90 
   6   6  15    2.20    0.90 
  -6   6  15    1.50    1.00 
  -6  -6  15    0.30    1.00 
  -6  -6  15    2.20    1.20 
   6  -6  15    1.00    0.80 
  -6   7 -15    0.80    0.90 
  -7  -6 -15   -2.60    1.50 
  -6   7  15    0.50    1.00 
   7   6  15   -0.70    1.30 
   6  -7  15    0.30    0.80 
  -7  -6  15   -0.60    1.00 
  -5   7 -15    0.90    0.90 
  -7  -5 -15    0.90    1.60 
  -7  -5  15   -0.60    0.80 
  -5   7  15    0.00    0.90 
   7   5  15    0.20    0.70 
   5  -7  15    1.30    0.80 
  -7  -4 -15    1.20    1.60 
  -4   7 -15   -0.80    0.70 
  -4   7  15    0.40    0.80 
   4  -7  15    0.00    0.70 
  -7  -4  15   -0.20    0.90 
   7   4  15    0.50    0.80 
  -7  -3 -15    1.40    1.70 
  -3   7 -15    0.30    0.70 
   7   3  15    0.60    0.70 
  -3   7  15    2.00    1.00 
   3  -7  15    1.30    1.00 
  -7  -3  15    0.90    1.00 
   3  -7  15    1.10    0.70 
  -7  -2 -15    0.80    1.70 
  -7  -2 -15    0.80    0.90 
  -2   7 -15    1.30    0.80 
   7   2  15    1.40    0.70 
  -2   7  15    2.30    0.90 
  -7  -2  15    0.60    1.00 
   2  -7  15    0.80    0.70 
  -1   7 -15    1.10    0.70 
  -7  -1 -15    0.30    0.80 
  -7  -1 -15    1.10    1.70 
   1  -7 -15    1.50    1.40 
  -1   7  15    1.10    1.00 
   1  -7  15    1.20    1.60 
   1  -7  15    0.50    0.70 
   7   1  15    1.00    0.70 
  -7  -1  15    0.90    1.00 
   0  -7 -15   -0.20    1.40 
   0   7  15    0.10    1.30 
  -7   0  15   -0.10    0.90 
   7   0  15    0.00    0.60 
   0  -7  15    0.30    0.90 
  -1  -7 -15   -0.80    1.20 
  -7   1 -15    1.30    1.40 
  -1  -7  15    2.00    1.10 
  -1  -7  15    0.30    0.90 
   7  -1  15    0.90    0.70 
  -7   1  15   -0.30    0.80 
   1   7  15    1.40    1.00 
  -2  -7 -15    2.30    1.70 
  -7   2 -15    1.70    1.40 
  -2  -7  15    1.70    1.00 
   2   7  15    1.60    0.90 
  -2  -7  15    0.80    1.00 
   7  -2  15    1.30    0.80 
  -7   2  15   -0.30    0.90 
  -3  -7 -15    0.90    1.70 
  -7   3 -15    2.80    1.40 
   7  -3  15    1.10    0.80 
  -3  -7  15    1.80    1.70 
   3   7  15    0.50    0.80 
  -3  -7  15    0.90    1.10 
  -7   3  15    2.10    1.10 
  -4  -7 -15    2.10    1.80 
  -7   4 -15   -1.50    1.10 
   7  -4  15   -0.10    0.90 
  -7   4  15   -0.60    0.90 
  -4  -7  15   -0.30    1.10 
  -4  -7  15   -0.20    1.00 
   4   7  15    0.60    0.80 
  -7   5 -15    0.50    1.10 
  -5  -7 -15    0.20    1.70 
   7  -5  15    0.40    0.70 
   5   7  15    0.30    0.70 
  -5  -7  15    1.30    1.20 
  -7   5  15    0.70    0.90 
  -5  -7  15    0.70    0.90 
  -7   6 -15   -0.50    1.00 
  -6  -7 -15    0.00    1.60 
  -6  -7  15    0.70    1.00 
  -6  -7  15    0.30    0.90 
   6   7  15   -0.70    0.80 
   7  -6  15    1.00    0.80 
  -7   6  15   -0.10    1.00 
  -7   7 -15    1.40    1.00 
  -7  -7 -15   -1.80    1.50 
   7   7  15    0.30    0.80 
   7  -7  15    2.40    0.90 
  -7  -7  15   -1.00    1.00 
  -7  -7  15   -0.30    0.80 
  -7   7  15   -0.30    0.90 
  -8  -7 -15   -0.30    2.10 
  -7   8 -15    1.80    1.00 
  -8  -7  15    2.00    1.40 
   7  -8  15    1.70    1.00 
  -7   8  15    1.10    1.40 
  -8  -6 -15    1.20    1.90 
   6  -8  15    1.40    0.90 
   8   6  15    0.90    0.80 
  -6   8  15    1.00    1.10 
  -8  -6  15    1.00    1.00 
  -8  -5 -15    2.40    1.70 
  -5   8 -15    0.70    0.70 
   5  -8  15    0.50    0.80 
  -5   8  15    1.50    1.00 
  -8  -5  15    1.40    1.10 
   8   5  15    0.50    0.80 
  -8  -4 -15    0.80    0.90 
  -4   8 -15    1.20    0.80 
  -8  -4 -15   -0.20    1.80 
  -4   8  15    2.20    1.10 
   4  -8  15    0.60    0.60 
   8   4  15    1.00    0.70 
   4  -8  15    1.00    0.90 
  -8  -4  15    1.90    1.20 
  -3   8 -15    1.40    0.70 
  -8  -3 -15    0.70    1.70 
  -8  -3 -15    1.10    0.90 
  -3   8  15    2.20    1.10 
   3  -8  15    1.80    1.00 
  -8  -3  15    1.10    1.10 
   8   3  15    1.40    0.80 
   3  -8  15   -0.20    0.50 
  -2   8 -15    3.80    0.90 
  -8  -2 -15    3.40    1.80 
  -8  -2 -15    4.70    1.10 
  -2   8  15    3.20    1.00 
  -8  -2  15    1.70    1.10 
   2  -8  15    4.70    1.20 
   8   2  15    4.30    0.90 
   2  -8  15    2.40    1.10 
  -8  -1 -15    0.50    1.40 
   1  -8 -15    0.00    1.30 
  -1   8 -15   -0.30    0.60 
   8   1  15   -0.70    0.70 
   1  -8  15   -0.40    0.80 
   1  -8  15    0.50    0.60 
  -1   8  15    1.30    0.90 
  -8  -1  15   -0.30    0.90 
  -8   0 -15    0.70    1.60 
   0  -8 -15    0.80    1.30 
   0  -8  15    2.90    1.10 
   0  -8  15    0.90    0.70 
   0   8  15    1.30    0.90 
   8   0  15    0.90    0.70 
  -8   0  15    2.00    1.10 
  -8   1 -15    3.00    1.70 
  -1  -8 -15   -0.30    1.40 
  -8   1  15    1.00    1.00 
   1   8  15   -0.10    0.80 
  -1  -8  15    0.50    0.90 
  -1  -8  15    0.20    0.60 
   8  -1  15    1.10    0.70 
  -8   2 -15    2.40    1.70 
  -2  -8 -15    1.50    1.60 
  -8   2  15    3.70    1.20 
  -2  -8  15    4.90    1.30 
   2   8  15    2.90    1.60 
  -2  -8  15    3.50    0.90 
   8  -2  15    4.00    0.90 
  -3  -8 -15    1.10    1.60 
  -8   3  15   -0.10    1.00 
  -3  -8  15    1.60    0.80 
   8  -3  15    2.20    0.80 
   3   8  15    2.70    0.90 
  -3  -8  15    1.20    1.00 
  -4  -8 -15    0.40    1.50 
  -8   4 -15    1.20    1.50 
  -4  -8  15    1.70    0.80 
   4   8  15    1.20    0.90 
  -8   4  15   -0.10    0.90 
   8  -4  15    0.50    0.80 
  -4  -8  15    0.70    1.00 
  -8   5 -15    1.40    1.30 
  -5  -8 -15    0.80    1.60 
   8  -5  15    0.70    0.70 
  -5  -8  15   -0.20    0.80 
  -5  -8  15    1.10    1.20 
   5   8  15    0.10    0.80 
  -8   5  15    0.40    0.90 
  -8   6 -15    1.10    1.20 
  -6  -8 -15    1.70    1.80 
  -6  -8  15    0.80    1.20 
  -8   6  15    1.70    1.10 
  -6  -8  15    2.50    1.10 
   8  -6  15    1.80    0.90 
   6   8  15    1.10    0.90 
  -8   7 -15    1.30    1.10 
  -7  -8  15    0.90    0.80 
   8  -7  15    0.00    0.80 
   7   8  15    2.60    1.00 
  -8   8 -15    0.90    1.00 
  -8  -8 -15    2.80    1.80 
   8  -8  15    0.50    1.00 
   8   8  15    0.50    0.80 
  -8   8  15    0.80    1.10 
  -8  -8  15    1.50    1.20 
  -9  -7 -15    2.50    1.70 
  -7   9 -15    1.80    0.90 
   7  -9  15    1.50    1.00 
  -7   9  15    0.50    1.10 
   9   7  15    1.00    0.90 
  -9  -7  15   -0.30    1.20 
  -9  -6 -15    2.50    1.90 
  -6   9 -15    0.00    0.80 
   9   6  15    0.70    0.80 
  -6   9  15    1.10    1.00 
  -9  -6  15    0.60    1.20 
   6  -9  15   -0.70    0.90 
  -9  -5 -15    1.30    0.90 
  -5   9 -15    0.20    0.70 
   9   5  15    0.30    0.80 
  -9  -5  15    0.30    1.10 
   5  -9  15   -0.10    0.90 
   5  -9  15    0.50    0.60 
  -4   9 -15    1.60    0.80 
  -9  -4 -15    2.30    1.00 
  -9  -4 -15    4.40    2.00 
   4  -9  15    0.30    0.50 
   9   4  15    1.60    0.80 
  -9  -4  15   -0.10    1.10 
  -4   9  15    1.20    1.10 
   4  -9  15    1.10    1.00 
  -9  -3 -15    1.00    0.90 
  -9  -3 -15    1.80    1.60 
  -3   9 -15    1.40    0.70 
  -3   9  15    0.70    1.00 
  -9  -3  15    2.60    1.20 
   3  -9  15    2.80    1.10 
   9   3  15    1.60    0.70 
  -2   9 -15    0.90    0.60 
  -9  -2 -15    2.60    1.70 
   9   2  15    0.40    0.70 
   2  -9  15    0.40    0.40 
  -2   9  15    0.70    1.00 
   2  -9  15    1.80    1.00 
  -9  -1 -15    2.10    1.70 
   1  -9  15    1.30    1.10 
   9   1  15    0.20    0.70 
   1  -9  15    1.20    0.50 
  -1   9  15    1.70    0.90 
  -9  -1  15    1.50    1.00 
   0  -9 -15   -1.00    1.30 
  -9   0 -15    1.20    1.50 
   9   0  15    0.60    0.70 
   0   9  15    0.40    0.90 
   0  -9  15   -0.10    0.40 
   0  -9  15   -1.20    0.90 
  -9   0  15    0.40    1.00 
  -9   1 -15    1.10    1.70 
  -1  -9 -15    1.60    1.50 
  -1  -9  15    0.40    0.90 
   1   9  15   -0.10    0.80 
  -9   1  15   -0.20    1.00 
   9  -1  15    0.20    0.70 
  -1  -9  15    0.90    0.50 
  -2  -9 -15    2.60    1.80 
  -9   2 -15    0.60    1.50 
  -2  -9  15    0.10    0.50 
   9  -2  15    1.00    0.70 
  -2  -9  15    0.30    1.00 
   2   9  15   -0.40    0.80 
  -9   2  15   -0.20    1.00 
  -9   3 -15    1.40    1.50 
  -3  -9 -15    3.10    1.90 
  -3  -9  15    1.00    0.60 
  -9   3  15    0.40    1.00 
   9  -3  15    2.30    0.80 
  -3  -9  15    0.40    1.10 
   3   9  15    1.20    0.90 
  -4  -9 -15    3.20    1.90 
  -9   4 -15    2.00    1.50 
  -9   4  15    0.60    1.00 
   9  -4  15    1.00    0.80 
  -4  -9  15    0.20    0.90 
  -4  -9  15    1.20    0.60 
  -5  -9 -15    0.90    1.60 
  -9   5 -15   -0.20    1.30 
  -5  -9  15    0.10    0.70 
   9  -5  15    0.60    0.70 
  -5  -9  15    1.40    1.40 
   5   9  15    0.70    1.10 
  -9   5  15   -0.50    0.90 
  -9   6 -15    0.70    1.20 
   9  -6  15   -0.20    0.70 
  -6  -9  15    0.70    1.10 
  -6  -9  15   -0.10    1.30 
   6   9  15   -0.20    0.90 
  -7  -9 -15    3.60    1.90 
  -9   7 -15    1.60    1.30 
  -9   7  15    1.10    1.10 
  -7  -9  15    2.10    1.40 
   9  -7  15    2.40    0.90 
   7   9  15    0.20    0.90 
 -10  -6 -15    0.40    1.70 
  -6  10 -15    1.80    0.80 
 -10  -6  15    2.40    1.30 
  10   6  15    1.80    0.90 
  -6  10  15    1.50    1.20 
   6 -10  15    2.10    1.10 
  -5  10 -15    0.20    0.60 
 -10  -5 -15   -0.10    1.50 
  -5  10  15    0.90    1.00 
 -10  -5  15   -0.70    1.80 
  10   5  15    0.80    0.80 
   5 -10  15    0.70    1.00 
 -10  -4 -15    0.50    1.00 
 -10  -4 -15   -0.40    1.70 
  -4  10 -15    0.30    0.60 
  -4  10  15   -1.00    0.90 
   4 -10  15    0.60    0.90 
 -10  -4  15    2.00    1.20 
  10   4  15    1.60    0.80 
  -3  10 -15    0.70    0.60 
   3 -10  15    0.80    0.40 
  10   3  15   -0.40    0.70 
 -10  -3  15    1.60    1.10 
   3 -10  15    1.10    1.00 
  -2  10 -15    2.40    0.70 
 -10  -2 -15    1.80    1.70 
 -10  -2  15    0.50    1.10 
  -2  10  15    0.70    1.10 
  10   2  15    3.80    0.90 
   2 -10  15    3.40    1.20 
 -10  -1 -15    0.70    1.60 
  -1  10  15   -0.20    0.80 
 -10  -1  15    1.10    1.10 
   1 -10  15    3.20    1.20 
  10   1  15    1.30    0.70 
   1 -10  15    0.00    0.40 
   0 -10 -15    1.90    1.60 
 -10   0 -15    1.50    1.70 
   0 -10  15    0.80    1.10 
   0 -10  15    0.40    0.40 
  10   0  15    1.10    0.70 
   0  10  15    0.20    1.40 
 -10   0  15    1.70    1.10 
  -1 -10 -15    0.60    1.60 
 -10   1 -15    0.60    1.70 
  -1 -10  15    0.20    0.40 
  10  -1  15    0.40    0.70 
  -1 -10  15    0.40    1.00 
   1  10  15    0.90    1.00 
 -10   1  15    2.10    1.10 
 -10   2 -15    2.70    1.70 
  -2 -10 -15    1.20    1.80 
  -2 -10  15    0.70    0.40 
 -10   2  15   -0.30    1.00 
  -2 -10  15    2.50    1.30 
  10  -2  15    1.00    0.70 
   2  10  15    1.30    1.00 
 -10   3 -15    1.60    1.60 
  -3 -10 -15   -1.10    1.70 
  10  -3  15    0.40    0.70 
   3  10  15   -1.40    0.80 
  -3 -10  15   -0.10    0.40 
 -10   3  15   -0.70    0.90 
 -10   4 -15    0.70    1.50 
  10  -4  15    1.10    0.80 
 -10   4  15    2.30    1.30 
  -4 -10  15    0.60    1.10 
   4  10  15    0.70    1.00 
 -10   5 -15    0.70    1.50 
  -5 -10 -15    0.90    1.80 
   5  10  15    0.40    0.90 
 -10   5  15   -0.40    1.70 
  -5 -10  15    0.50    1.20 
  -6 -10 -15    1.30    1.70 
 -10   6 -15    1.80    1.50 
  -6 -10  15    0.10    1.10 
   6  10  15    0.90    0.90 
 -10   6  15    4.70    1.40 
  10  -6  15    1.30    0.80 
 -11  -4 -15    0.40    1.70 
  -4  11 -15    0.70    0.50 
  -4  11  15    1.10    1.20 
  11   4  15    0.70    0.80 
  -3  11 -15    0.70    0.50 
 -11  -3 -15    1.20    1.90 
 -11  -3  15    0.50    1.40 
  11   3  15    0.70    0.70 
  -3  11  15    0.50    1.10 
 -11  -2 -15    1.00    1.80 
  11   2  15    0.90    0.70 
 -11  -2  15    0.10    1.10 
  -2  11  15    0.50    0.90 
 -11  -1 -15    0.70    1.90 
  11   1  15    1.40    0.80 
 -11  -1  15    3.50    1.30 
   1 -11  15    0.70    1.10 
   0 -11  15    0.80    1.20 
  11   0  15    0.00    0.70 
   0  11  15    0.30    1.20 
 -11   0  15   -0.50    1.10 
 -11   1 -15   -2.80    2.30 
  -1 -11  15    2.10    1.20 
 -11   1  15   -0.80    1.00 
  11  -1  15    1.00    0.70 
   1  11  15   -0.50    0.90 
  -2 -11 -15   -2.70    2.50 
 -11   2 -15    0.70    1.70 
  -2 -11  15   -0.30    1.00 
 -11   2  15   -1.60    1.40 
  11  -2  15    0.70    0.70 
   2  11  15    0.10    1.00 
 -11   3 -15    0.20    1.50 
  -3 -11 -15   -2.10    1.50 
  11  -3  15    0.40    0.70 
   3  11  15    1.40    1.00 
  -3 -11  15   -0.10    1.20 
 -11   4 -15    1.70    1.70 
  -4 -11 -15    0.00    1.60 
   4  11  15    0.70    0.90 
 -11   4  15    0.30    1.00 
  -4 -11  15    1.70    1.30 
  11  -4  15    1.00    0.80 
   0   0 -16   52.89    6.20 
   0   0  16   47.80    5.30 
   1   0 -16   79.29    8.50 
   0  -1 -16   88.99    8.60 
   0   1 -16   83.39    8.50 
  -1   0 -16   78.09    9.20 
   1   0  16   75.79    8.40 
   0   1  16   77.39    8.40 
  -1   0  16   74.49    8.40 
   0  -1  16   81.09    8.40 
  -1  -1 -16    6.40    1.50 
   1   1 -16    4.10    1.30 
   1  -1 -16    5.30    1.40 
  -1   1 -16    3.50    1.30 
   1   1  16    2.50    1.10 
  -1  -1  16    6.50    1.30 
  -1   1  16    3.80    1.10 
   1  -1  16    5.30    1.20 
   1  -2 -16   11.90    2.20 
  -1   2 -16   14.80    2.10 
  -2  -1 -16   14.20    2.30 
  -1   2  16   13.70    2.00 
   2   1  16   12.20    1.90 
   1  -2  16   13.40    2.00 
  -2  -1  16   12.70    2.10 
  -2   0 -16   31.80    3.40 
   0  -2 -16   28.70    3.40 
   0   2 -16   27.50    3.20 
  -2   0  16   23.00    3.10 
   2   0  16   22.30    3.00 
   0   2  16   23.90    3.10 
   0  -2  16   25.90    3.10 
  -1  -2 -16   14.20    2.40 
   1   2 -16   12.40    2.00 
  -2   1 -16   12.30    2.20 
  -2   1  16   13.40    2.00 
   2  -1  16   14.50    2.00 
  -1  -2  16   14.30    2.10 
   1   2  16   12.40    1.90 
  -2  -2 -16  110.19   10.80 
  -2  -2  16  119.69   11.30 
   2   2  16   88.79   10.40 
   2  -2  16   95.89   10.50 
  -3  -2 -16   40.10    4.70 
  -2   3 -16   39.40    4.10 
  -3  -2  16   33.60    4.10 
   2  -3  16   32.00    4.00 
   3   2  16   33.20    3.90 
   1  -3 -16   13.20    2.50 
  -1   3 -16   10.40    1.90 
  -3  -1 -16   14.00    2.40 
  -3  -1  16   15.30    2.60 
   3   1  16   12.60    1.80 
   1  -3  16   10.20    1.80 
  -1   3  16   13.00    1.90 
  -3   0 -16   19.90    3.00 
   0  -3 -16   22.50    3.20 
   0   3 -16   23.90    3.80 
   0  -3  16   19.40    2.70 
   3   0  16   21.20    2.60 
   0   3  16   22.70    2.70 
  -3   1 -16    9.70    1.90 
  -1  -3 -16   10.00    2.70 
  -1  -3  16    9.70    2.40 
  -3   1  16   10.40    2.10 
   3  -1  16    7.80    1.50 
   1   3  16   13.20    2.30 
  -3   2 -16   35.10    4.10 
  -2  -3  16   38.90    4.60 
   3  -2  16   30.50    3.80 
   2   3  16   36.70    3.90 
  -3   2  16   31.80    4.10 
  -3   3 -16    2.00    1.20 
  -3  -3 -16    1.30    1.50 
  -3   3  16    0.90    1.00 
   3  -3  16    0.60    0.80 
   3   3  16   -0.40    0.80 
  -3  -3  16    2.40    1.10 
  -4  -3 -16   24.20    3.30 
  -3   4 -16   17.20    2.60 
  -4  -3  16   21.90    2.70 
   4   3  16   19.80    2.40 
  -3   4  16   17.70    2.60 
   3  -4  16   19.30    2.50 
  -2   4 -16    9.30    1.70 
  -4  -2 -16    7.20    2.40 
   2  -4  16    5.90    1.40 
  -4  -2  16    6.90    1.50 
  -2   4  16    5.60    1.30 
   4   2  16    5.20    1.20 
  -4  -1 -16   64.89    6.80 
  -1   4 -16   52.09    6.40 
   1  -4 -16   60.79    6.50 
  -4  -1  16   55.49    6.30 
   4   1  16   62.99    6.20 
   1  -4  16   53.39    6.20 
   0   4 -16   58.59    5.80 
  -4   0 -16   66.49    6.30 
   4   0  16   50.79    5.70 
   0   4  16   47.10    5.80 
  -4   0  16   50.79    5.90 
  -1  -4 -16   60.89    6.70 
   1   4 -16   60.49    6.20 
  -4   1 -16   68.69    6.60 
   4  -1  16   56.79    6.20 
  -4   1  16   56.69    6.30 
  -1  -4  16   52.49    6.30 
   1   4  16   49.30    6.60 
  -2  -4 -16    7.90    2.00 
  -4   2 -16    9.30    1.80 
   2   4  16    5.60    1.30 
  -2  -4  16    7.50    1.50 
  -4   2  16    4.00    1.30 
   4  -2  16   10.00    1.40 
  -4   3 -16   20.30    2.70 
  -3  -4 -16   20.70    3.20 
  -4   3  16   21.30    2.60 
   4  -3  16   21.30    2.40 
  -3  -4  16   15.70    2.60 
   3   4  16   17.30    2.40 
  -4   4 -16   70.99    6.50 
   4  -4  16   57.09    6.20 
   4   4  16   56.19    6.20 
  -4   4  16   55.49    6.30 
  -4  -4  16   54.79    6.30 
  -5  -4 -16    4.90    2.10 
  -4   5 -16    2.40    1.20 
   4  -5  16    4.00    1.10 
  -5  -4  16    4.50    1.30 
   5   4  16    4.30    1.00 
  -4   5  16    3.10    1.20 
  -3   5 -16    5.20    1.40 
  -5  -3 -16    6.00    2.00 
   5   3  16    4.80    1.10 
  -5  -3  16    7.00    1.50 
   3  -5  16    4.10    1.20 
  -3   5  16    6.10    1.30 
  -2   5 -16   51.99    5.40 
  -5  -2 -16   56.19    6.00 
   5   2  16   48.20    5.30 
  -5  -2  16   45.80    5.50 
  -2   5  16   48.50    5.40 
  -5  -1 -16    3.10    1.50 
   1  -5 -16    6.80    1.80 
  -1   5 -16    4.80    1.20 
   5   1  16    4.10    1.10 
  -5  -1  16    5.90    1.30 
  -1   5  16    4.60    1.20 
   1  -5  16    3.40    1.20 
  -5   0 -16    1.80    2.60 
   0   5 -16    5.50    1.20 
   0  -5 -16    5.30    1.70 
   0  -5  16    4.50    1.20 
   5   0  16    3.80    1.00 
  -5   0  16    7.40    1.40 
  -1  -5 -16    7.50    2.00 
  -5   1 -16    6.60    1.80 
  -1  -5  16    2.20    1.20 
   5  -1  16    5.70    1.10 
  -5   1  16    6.80    1.30 
   1   5  16    4.60    1.20 
  -5   2 -16   48.90    5.70 
  -2  -5 -16   60.89    6.00 
  -2  -5  16   52.89    5.60 
   5  -2  16   48.70    5.40 
  -5   2  16   47.20    5.50 
   2   5  16   45.00    5.40 
  -5   3 -16    4.80    1.50 
  -3  -5 -16    5.20    2.10 
   5  -3  16    5.30    1.20 
   3   5  16    6.40    1.20 
  -3  -5  16    6.10    1.40 
  -5   3  16    7.20    1.40 
  -5   4 -16    3.20    1.30 
  -4  -5 -16    7.00    2.20 
   5  -4  16    3.10    1.00 
  -5   4  16    3.30    1.10 
   4   5  16    4.70    1.10 
  -4  -5  16    2.70    1.20 
  -5   5 -16    9.20    1.90 
  -5  -5 -16   14.80    2.90 
  -5  -5  16   11.30    2.00 
  -5   5  16   11.50    1.90 
   5  -5  16   10.50    1.70 
   5   5  16   14.80    1.80 
  -6  -5 -16   20.60    3.50 
  -5   6 -16   20.90    2.70 
   6   5  16   21.20    2.60 
  -6  -5  16   19.50    2.90 
  -5   6  16   21.80    2.80 
  -4   6 -16   13.50    1.80 
  -6  -4 -16   17.20    2.90 
   4  -6  16    8.30    1.80 
  -6  -4  16    9.70    1.90 
  -4   6  16   10.60    1.80 
   6   4  16    9.90    1.60 
  -3   6 -16   23.50    3.00 
  -6  -3 -16   33.60    4.00 
   6   3  16   27.70    3.00 
  -6  -3  16   28.00    3.30 
   3  -6  16   22.00    3.00 
  -3   6  16   21.80    3.00 
  -6  -2 -16   30.40    3.90 
  -2   6 -16   27.60    3.10 
   6   2  16   25.10    3.10 
  -6  -2  16   29.30    3.30 
  -2   6  16   22.40    3.10 
   1  -6 -16    7.40    1.90 
  -6  -1 -16    7.10    1.90 
  -1   6 -16    6.50    1.30 
  -1   6  16   11.10    1.60 
   6   1  16    8.50    1.50 
   1  -6  16    6.00    1.40 
  -6  -1  16    6.20    1.40 
   0  -6 -16   42.90    4.40 
   0   6 -16   36.60    3.70 
  -6   0 -16   41.10    4.40 
   0  -6  16   31.00    3.80 
  -6   0  16   28.30    3.80 
   0   6  16   26.90    3.70 
   6   0  16   28.20    3.60 
   0  -6  16   35.00    4.40 
  -1  -6 -16    7.60    2.10 
  -6   1 -16    8.20    2.90 
  -1  -6  16    9.60    1.70 
  -6   1  16    7.20    1.50 
   1   6  16   10.00    1.70 
   6  -1  16    7.20    1.30 
  -6   2 -16   37.50    4.80 
  -2  -6 -16   33.30    4.00 
  -2  -6  16   30.00    4.40 
   2   6  16   26.10    3.80 
   6  -2  16   28.50    3.30 
  -6   2  16   26.30    3.50 
  -2  -6  16   26.60    3.50 
  -6   3 -16   27.50    3.40 
  -3  -6 -16   27.00    3.90 
  -3  -6  16   18.90    3.50 
  -6   3  16   24.40    3.10 
   3   6  16   27.60    3.00 
   6  -3  16   26.80    3.00 
  -3  -6  16   25.00    3.30 
  -4  -6 -16   16.20    2.90 
  -6   4 -16   14.80    2.20 
  -4  -6  16   11.00    2.00 
   6  -4  16   11.40    1.70 
  -6   4  16   11.80    1.90 
   4   6  16    9.10    1.60 
  -6   5 -16   21.90    2.90 
  -5  -6 -16   29.20    3.70 
  -6   5  16   22.60    2.90 
  -5  -6  16   20.80    3.00 
   6  -5  16   20.20    2.70 
   5   6  16   20.60    2.70 
  -6  -6 -16   10.90    2.50 
  -6   6 -16    2.50    1.20 
  -6   6  16    2.90    1.10 
   6   6  16    3.60    1.00 
  -6  -6  16    4.00    1.40 
  -6   7 -16   17.70    2.50 
  -7  -6 -16   19.50    3.70 
   6  -7  16   17.10    2.40 
  -6   7  16   17.20    3.20 
   7   6  16   18.40    2.30 
  -7  -5 -16    5.40    2.20 
  -5   7 -16    4.70    1.10 
  -5   7  16    3.20    1.40 
  -7  -5  16    3.90    1.30 
   5  -7  16    3.10    1.10 
   7   5  16    4.40    1.00 
  -7  -4 -16    6.30    2.20 
  -4   7  16    5.70    1.40 
   7   4  16    4.60    1.10 
  -7  -4  16    7.30    1.60 
   4  -7  16    4.40    1.20 
  -7  -3 -16    1.50    1.80 
  -3   7 -16    2.20    0.90 
   3  -7  16    1.80    1.00 
  -7  -3  16    2.80    1.20 
  -3   7  16    1.60    1.00 
  -2   7 -16   17.50    2.00 
  -7  -2 -16   19.10    3.10 
  -2   7  16   15.10    2.10 
  -7  -2  16   10.00    2.10 
   7   2  16   13.90    2.20 
  -1   7 -16    7.80    1.30 
  -7  -1 -16   10.50    2.30 
   1  -7 -16    9.20    2.10 
   1  -7  16    8.70    1.60 
  -7  -1  16    4.90    1.40 
  -1   7  16   13.90    1.70 
   7   1  16    8.10    1.50 
   1  -7  16    7.10    1.40 
  -7   0 -16    6.10    1.90 
   0  -7 -16    3.40    1.80 
   0   7  16    4.70    1.20 
   0  -7  16    1.50    0.90 
  -7   0  16    4.10    1.30 
   0  -7  16    6.50    1.40 
  -1  -7 -16   13.60    2.50 
  -7   1 -16    8.30    2.10 
  -1  -7  16    6.50    1.40 
  -7   1  16    6.30    1.50 
   7  -1  16    8.40    1.50 
  -1  -7  16    8.10    1.60 
   1   7  16   11.10    1.60 
  -7   2 -16   14.40    2.60 
  -2  -7 -16   21.30    3.20 
  -7   2  16   14.70    2.30 
   7  -2  16   14.70    2.00 
  -2  -7  16   15.50    2.20 
  -2  -7  16   16.00    2.30 
   2   7  16   15.50    2.10 
  -3  -7 -16    2.00    1.80 
  -7   3 -16    0.90    1.40 
   3   7  16    2.60    1.20 
  -7   3  16    1.60    1.00 
   7  -3  16    0.60    0.80 
  -3  -7  16    1.90    1.10 
  -3  -7  16    4.90    1.30 
  -4  -7 -16    6.60    2.20 
  -4  -7  16    3.10    1.70 
   4   7  16    4.90    1.60 
   7  -4  16    4.10    1.10 
  -4  -7  16    3.80    1.20 
  -7   4  16    2.00    1.20 
  -5  -7 -16    3.70    2.30 
  -7   5 -16    2.60    2.20 
  -5  -7  16    4.80    1.40 
  -7   5  16    2.10    1.10 
   5   7  16    5.20    1.10 
  -5  -7  16    2.00    1.20 
   7  -5  16    6.70    1.10 
  -7   6 -16   17.30    2.60 
  -6  -7 -16   20.90    4.30 
   6   7  16   18.10    2.20 
   7  -6  16   14.70    2.30 
  -7   6  16   18.10    3.40 
  -7   7 -16    1.10    1.00 
  -7  -7 -16    2.30    2.00 
   7  -7  16    1.00    0.90 
  -7  -7  16    0.20    1.10 
   7   7  16    0.80    0.90 
  -7   7  16    0.10    1.00 
  -6   8 -16    6.00    1.20 
  -8  -6 -16    4.30    2.20 
  -8  -6  16    1.90    1.30 
   8   6  16    3.40    1.00 
  -6   8  16    2.20    1.10 
   6  -8  16    3.90    1.20 
  -8  -5 -16    2.90    2.00 
  -5   8 -16    2.60    1.00 
  -5   8  16    2.10    1.20 
   5  -8  16    2.50    1.00 
   8   5  16    1.60    0.90 
  -4   8 -16   25.30    2.90 
  -8  -4  16   21.30    3.20 
   8   4  16   24.00    3.00 
   4  -8  16   25.30    3.10 
  -8  -3 -16   14.20    2.70 
  -3   8 -16   11.10    1.70 
   8   3  16   12.80    1.70 
  -3   8  16   12.60    1.90 
   3  -8  16   10.90    1.90 
  -8  -3  16    8.90    1.90 
  -8  -2 -16    3.20    1.90 
  -2   8 -16    2.50    0.80 
   2  -8  16    3.70    0.80 
  -2   8  16    0.30    0.90 
   8   2  16    1.90    0.90 
  -8  -2  16    0.50    1.10 
  -1   8 -16   22.40    2.80 
  -8  -1 -16   36.00    3.80 
  -1   8  16   24.80    3.00 
   1  -8  16   24.80    3.10 
  -8  -1  16   24.50    3.20 
   8   1  16   29.10    2.90 
   1  -8  16   18.30    2.70 
  -8   0 -16   19.90    3.20 
   0  -8 -16   23.50    3.30 
   0  -8  16   15.50    2.40 
  -8   0  16   15.60    2.40 
   0   8  16   19.00    3.10 
   8   0  16   16.10    2.10 
   0  -8  16   16.10    2.10 
  -8   1 -16   30.10    3.80 
  -1  -8 -16   30.20    4.00 
  -8   1  16   24.20    3.10 
   1   8  16   25.30    3.00 
  -1  -8  16   20.20    2.90 
   8  -1  16   25.00    2.90 
  -1  -8  16   26.10    3.10 
  -8   2 -16    2.90    1.70 
  -2  -8 -16    0.40    1.80 
   8  -2  16    1.80    0.90 
  -2  -8  16    2.30    1.20 
   2   8  16    0.50    0.90 
  -8   2  16    0.70    1.10 
  -2  -8  16    4.80    1.20 
  -3  -8 -16   12.20    2.90 
  -8   3 -16   12.50    2.40 
   8  -3  16   13.20    1.70 
  -3  -8  16    8.70    1.70 
  -8   3  16   14.00    1.90 
   3   8  16    8.20    1.70 
  -3  -8  16   13.60    2.20 
  -8   4 -16   30.60    3.60 
  -8   4  16   29.70    3.90 
   8  -4  16   25.60    3.00 
   4   8  16   19.30    2.90 
  -4  -8  16   25.50    3.00 
  -8   5 -16    1.00    1.30 
  -5  -8 -16    1.80    1.70 
   5   8  16    2.50    1.10 
  -8   5  16    0.70    1.10 
  -5  -8  16    0.70    0.90 
   8  -5  16    0.70    0.80 
  -5  -8  16    2.40    1.40 
  -6  -8 -16    5.70    2.30 
  -8   6 -16    7.30    1.70 
   8  -6  16    5.90    1.20 
  -6  -8  16    5.10    1.60 
  -8   6  16    6.10    1.50 
  -9  -5 -16    4.30    2.20 
  -5   9 -16    2.10    1.00 
  -9  -5  16    5.70    1.60 
   5  -9  16    5.40    1.30 
  -5   9  16    5.80    1.40 
   9   5  16    3.20    1.00 
  -9  -4 -16    8.90    2.40 
  -4   9 -16    8.30    1.20 
  -4   9  16    4.90    1.40 
  -9  -4  16    4.00    1.80 
   4  -9  16    6.10    1.40 
   9   4  16    7.70    1.30 
  -9  -3 -16    1.90    2.10 
  -3   9 -16    1.90    0.70 
   3  -9  16    1.40    0.60 
   3  -9  16    2.60    1.10 
  -3   9  16    4.10    1.30 
   9   3  16    2.60    0.80 
  -2   9 -16    2.70    0.80 
  -9  -2  16    1.90    1.30 
   2  -9  16    2.90    0.70 
   9   2  16    3.60    0.90 
  -9  -1 -16    4.00    1.90 
   1  -9  16   -0.30    0.90 
  -9  -1  16    1.20    1.10 
   9   1  16    1.20    0.80 
  -1   9  16    1.50    1.00 
  -9   0 -16   12.00    2.50 
  -9   0  16    8.80    1.80 
   0  -9  16    8.70    1.90 
   9   0  16   14.30    1.60 
   0   9  16   12.00    2.20 
   0  -9  16    8.90    1.30 
  -9   1 -16    4.40    1.80 
   1   9  16    0.40    0.90 
  -9   1  16    0.80    1.20 
   9  -1  16    0.20    0.70 
  -1  -9  16    1.90    0.60 
  -9   2 -16    3.20    1.70 
  -2  -9  16   -0.90    2.00 
  -9   2  16    2.30    1.70 
   9  -2  16    3.40    0.90 
   2   9  16    2.50    1.10 
  -2  -9  16    2.50    0.70 
  -3  -9 -16    0.40    1.80 
  -9   3 -16    2.70    1.60 
   3   9  16    3.50    1.10 
   9  -3  16    3.30    1.00 
  -3  -9  16    3.30    1.40 
  -9   4 -16    8.00    2.00 
  -4  -9 -16    9.50    2.50 
   9  -4  16    7.50    1.40 
  -9   4  16    6.20    1.60 
  -4  -9  16   10.30    1.90 
   4   9  16    7.20    1.50 
  -5  -9 -16    3.30    2.20 
  -9   5 -16    5.10    1.70 
  -9   5  16    3.70    1.30 
  -5  -9  16    6.20    1.70 
   5   9  16    6.50    1.30 
   9  -5  16    4.70    1.10 
 -10  -3 -16    4.30    2.00 
  -3  10 -16    4.30    0.90 
  -3  10  16    4.10    1.30 
 -10  -3  16    6.20    1.60 
   3 -10  16    4.80    2.10 
  10   3  16    6.40    1.10 
 -10  -2 -16   31.40    3.80 
 -10  -2  16   17.30    2.90 
  10   2  16   23.60    2.60 
  -2  10  16   19.40    2.70 
 -10  -1 -16    4.80    1.90 
   1 -10  16    4.10    1.40 
  10   1  16    3.80    1.00 
  -1  10  16    2.10    1.30 
 -10  -1  16    5.40    1.70 
 -10   0 -16   -0.10    1.80 
   0 -10 -16    6.50    2.20 
  10   0  16    2.50    0.90 
   0 -10  16    2.10    1.20 
 -10   0  16    1.90    1.40 
  -1 -10 -16    3.50    2.10 
  10  -1  16    5.20    1.00 
 -10   1  16    2.50    1.30 
   1  10  16    3.30    1.20 
  -1 -10  16    3.60    1.30 
  -2 -10 -16   34.90    4.30 
 -10   2 -16   36.70    4.90 
  -2 -10  16   23.10    3.30 
  10  -2  16   25.60    2.90 
   2  10  16   20.00    3.10 
 -10   3 -16    5.80    2.10 
  -3 -10 -16    8.70    2.50 
  10  -3  16    4.50    1.20 
   3  10  16    6.50    1.40 
  -3 -10  16    6.40    1.70 
 -10   3  16    6.90    1.60 
   0   0 -17    0.40    1.10 
   0   0  17    1.20    0.90 
   0   1 -17    0.50    0.90 
  -1   0 -17   -1.20    1.10 
   1   0 -17   -1.90    0.90 
   0  -1 -17    0.10    1.80 
  -1   0  17   -0.20    0.80 
   0  -1  17    0.20    0.80 
   0   1  17   -0.40    0.80 
  -1   1 -17    1.90    1.10 
  -1  -1 -17    0.60    1.20 
   1   1 -17    1.70    1.00 
  -1   1  17    0.90    0.90 
  -1  -1  17    0.60    0.80 
   1  -2 -17    2.60    1.20 
  -2  -1 -17    0.80    1.30 
  -1   2 -17    1.40    1.10 
   1  -2  17    0.60    0.90 
  -2  -1  17    0.80    0.90 
   2   1  17    0.60    0.80 
  -1   2  17    0.70    0.90 
   0  -2 -17    0.70    1.20 
   0   2 -17    0.00    1.00 
   0   2  17    1.00    0.90 
   2   0  17    0.60    0.90 
   0  -2  17    0.00    0.90 
  -2   0  17    1.90    1.00 
  -1  -2 -17   -0.70    1.00 
   1   2 -17    0.20    0.90 
  -2   1 -17    0.70    1.10 
   1   2  17    0.60    1.40 
   2  -1  17    0.10    1.50 
  -2   1  17    1.30    1.00 
  -1  -2  17    0.30    0.90 
  -2  -2 -17    0.10    1.20 
  -2   2 -17    1.40    1.10 
  -2  -2  17    0.50    0.80 
  -2   2  17   -1.30    0.80 
   2   2  17    0.50    1.00 
  -3  -2 -17    0.50    1.30 
  -2   3 -17   -0.50    0.90 
   2  -3  17    0.50    0.80 
   3   2  17    0.30    0.80 
  -3  -2  17    1.30    1.00 
  -2   3  17    0.40    0.80 
  -1   3 -17    1.30    1.10 
   1  -3 -17    1.30    1.30 
  -3  -1 -17    3.30    1.50 
  -3  -1  17    2.70    1.10 
  -1   3  17    2.20    1.00 
   3   1  17    2.60    0.90 
   1  -3  17    3.00    1.10 
   0  -3 -17   -0.80    1.00 
  -3   0 -17    1.00    1.30 
   0   3 -17    0.00    0.90 
   0  -3  17   -0.30    0.80 
  -3   0  17   -0.20    0.90 
   0   3  17   -0.70    0.80 
   3   0  17   -0.90    0.70 
  -1  -3 -17    1.40    1.50 
   1   3 -17    2.30    1.00 
   1   3  17    4.40    1.10 
  -3   1  17    2.50    1.10 
   3  -1  17    3.60    1.10 
  -1  -3  17    2.20    1.10 
  -3   2 -17    1.10    1.20 
  -2  -3 -17   -0.40    1.20 
  -3   2  17    0.20    1.00 
  -2  -3  17   -0.20    0.90 
   3  -2  17   -0.20    1.00 
  -3   3 -17    1.50    1.10 
  -3  -3 -17    3.00    1.60 
   3  -3  17    2.60    1.60 
  -3  -3  17    2.80    1.20 
   3   3  17    3.70    1.10 
  -3   3  17    0.30    0.90 
  -4  -3 -17    2.60    1.60 
  -3   4 -17   -0.30    0.90 
   4   3  17    0.20    0.80 
   3  -4  17    0.10    0.80 
  -4  -3  17    0.60    0.90 
  -3   4  17    2.00    1.00 
  -4  -2 -17    0.20    1.30 
  -2   4 -17   -0.20    0.90 
   2  -4  17    0.90    0.90 
  -2   4  17   -0.40    0.90 
  -4  -2  17    0.20    1.00 
   4   2  17    0.10    0.80 
  -4  -1 -17    1.10    1.50 
  -1   4 -17    0.50    0.90 
   1  -4 -17   -0.90    1.00 
   1  -4  17    0.60    0.90 
  -1   4  17    0.10    0.90 
  -4  -1  17    1.10    1.00 
   4   1  17    0.70    0.80 
   0   4 -17    0.50    0.90 
   0  -4 -17   -0.20    1.30 
  -4   0 -17    1.10    1.40 
  -4   0  17    2.20    1.00 
   4   0  17    0.90    0.80 
   0   4  17    0.60    0.80 
   0  -4  17    1.50    0.90 
  -4   1 -17    0.40    1.10 
  -1  -4 -17    1.00    1.30 
   4  -1  17   -0.50    0.70 
  -1  -4  17    0.70    0.90 
  -4   1  17    0.70    1.00 
   1   4  17    1.00    0.90 
  -2  -4 -17    1.00    1.50 
   2   4  17    0.90    0.90 
  -2  -4  17    1.10    1.00 
  -4   2  17    0.40    0.90 
   4  -2  17    0.00    0.80 
  -3  -4 -17   -0.40    1.50 
  -4   3 -17    1.20    1.10 
  -3  -4  17    0.50    1.00 
  -4   3  17    1.10    1.10 
  -4  -4 -17   -0.50    1.50 
  -4   4 -17    0.50    1.00 
  -4  -4  17   -1.40    0.80 
   4  -4  17    0.20    0.80 
   4   4  17    0.50    0.80 
  -4   4  17    0.40    0.90 
  -5  -4 -17    0.50    1.60 
  -4   5 -17    0.50    0.90 
  -5  -4  17    1.30    1.10 
   5   4  17   -0.40    0.70 
  -4   5  17    1.40    1.00 
   4  -5  17   -0.70    0.70 
  -5  -3 -17    5.30    2.00 
  -3   5 -17    4.30    1.20 
   5   3  17    4.70    1.10 
  -5  -3  17    4.30    1.30 
  -3   5  17    7.00    1.40 
   3  -5  17    7.40    1.30 
  -2   5 -17   -1.70    0.70 
  -5  -2 -17    1.00    1.40 
  -5  -2  17   -0.50    0.80 
   2  -5  17   -0.30    0.90 
   5   2  17    0.00    0.80 
  -2   5  17   -0.30    0.90 
   1  -5 -17    1.30    1.40 
  -5  -1 -17    1.60    1.50 
  -1   5 -17    1.20    0.90 
  -5  -1  17    0.50    1.00 
   1  -5  17    1.40    1.00 
   5   1  17    0.30    0.80 
  -1   5  17    0.10    0.90 
  -5   0 -17    1.20    1.40 
   0  -5 -17    2.10    1.40 
   0   5 -17   -0.80    0.70 
   0  -5  17    0.70    0.90 
  -5   0  17   -1.30    0.90 
   0   5  17    0.10    0.80 
  -5   1 -17    0.30    1.30 
  -1  -5 -17    0.90    1.40 
   1   5  17    1.50    0.90 
  -5   1  17   -0.30    0.80 
  -1  -5  17    0.10    0.90 
   5  -1  17    1.90    0.80 
  -2  -5 -17    1.50    1.60 
  -5   2 -17    0.90    1.20 
  -2  -5  17   -0.60    0.90 
  -5   2  17    0.00    1.00 
   2   5  17    0.00    0.80 
   5  -2  17    0.30    0.80 
  -5   3 -17    6.00    2.10 
  -3  -5 -17    4.00    2.10 
   3   5  17    7.40    1.30 
   5  -3  17    8.10    1.30 
  -5   3  17    4.20    1.30 
  -3  -5  17    3.30    1.40 
  -5   4 -17    0.90    1.70 
  -4  -5 -17    0.90    1.70 
  -5   4  17    0.10    1.00 
   5  -4  17   -0.30    0.90 
  -4  -5  17   -0.10    1.00 
  -5   5 -17   -1.50    0.90 
   5   5  17   -0.10    0.80 
   5  -5  17   -0.50    0.70 
  -5   6 -17    0.10    0.90 
  -6  -5 -17   -1.00    1.60 
   6   5  17   -0.80    0.70 
  -5   6  17    0.10    1.00 
   5  -6  17    0.80    0.80 
  -6  -5  17    1.20    1.10 
  -4   6 -17   -0.30    0.80 
   6   4  17    1.10    0.80 
   4  -6  17    0.00    0.80 
  -3   6 -17    1.50    0.90 
  -6  -3 -17    1.80    1.70 
   6   3  17    0.50    0.80 
  -6  -3  17    0.80    1.20 
   3  -6  17    1.50    1.00 
  -3   6  17    0.70    1.00 
  -6  -2 -17    0.30    1.50 
  -2   6 -17    0.70    0.80 
  -6  -2  17   -0.20    1.00 
   6   2  17    0.70    0.80 
  -2   6  17   -0.90    0.90 
   2  -6  17   -0.20    0.80 
  -1   6 -17    1.00    0.90 
  -6  -1 -17    2.80    1.70 
   1  -6 -17    3.20    1.60 
   1  -6  17    1.30    1.00 
  -1   6  17    1.20    1.00 
  -6  -1  17    1.60    1.10 
   6   1  17    1.60    0.80 
  -6   0 -17   -0.60    2.00 
   0  -6 -17    0.20    1.30 
  -6   0  17    0.60    1.00 
   0  -6  17   -0.80    0.70 
   6   0  17   -0.20    0.70 
  -1  -6 -17   -0.40    1.40 
  -6   1 -17   -0.50    1.20 
  -1  -6  17    2.90    1.10 
  -6   1  17    0.80    1.00 
   6  -1  17    0.60    0.80 
   1   6  17   -0.90    0.80 
  -2  -6 -17   -0.30    1.60 
  -6   2 -17    1.60    1.40 
   2   6  17   -0.10    0.80 
  -6   2  17    0.70    1.00 
  -2  -6  17    1.70    1.00 
   6  -2  17    0.70    0.80 
  -6   3 -17    1.10    1.20 
  -3  -6 -17    0.60    1.80 
   6  -3  17   -0.20    0.80 
   3   6  17    0.80    0.80 
  -6   3  17    0.30    1.10 
  -3  -6  17   -0.70    1.00 
  -6   4 -17    1.80    1.20 
   4   6  17    0.70    0.90 
  -6   5 -17   -0.30    1.00 
  -5  -6 -17    0.20    1.60 
  -5  -6  17   -0.80    1.00 
   5   6  17    0.50    0.80 
  -6   5  17    0.80    1.00 
   6  -5  17    0.30    0.80 
  -6  -6 -17    1.00    1.90 
  -6  -6  17    1.20    1.00 
  -6   6  17    0.50    1.00 
   6  -6  17   -0.10    0.80 
  -7  -5 -17    3.70    2.00 
  -5   7 -17    2.00    1.00 
   5  -7  17    2.60    1.00 
  -7  -5  17    2.50    1.30 
  -5   7  17    1.90    1.10 
   7   5  17    1.40    0.90 
  -7  -4 -17    4.40    2.00 
  -4   7 -17    2.10    0.90 
  -4   7  17    0.80    0.90 
  -7  -4  17    1.60    1.20 
   4  -7  17    1.30    1.00 
   7   4  17    1.60    0.90 
  -3   7 -17    1.80    0.90 
   7   3  17    2.40    0.90 
  -7  -3  17    1.30    1.30 
   3  -7  17    0.80    0.90 
  -7  -2 -17   -0.30    1.50 
   7   2  17    0.20    0.70 
  -2   7  17    0.10    0.90 
   2  -7  17   -1.70    0.80 
  -1   7 -17    2.30    0.80 
  -7  -1 -17    1.10    1.50 
  -1   7  17    1.00    1.00 
   1  -7  17    0.90    1.00 
   7   1  17    1.00    0.80 
   0   7  17   -0.70    0.80 
   7   0  17   -0.50    0.70 
   0  -7  17    0.40    1.00 
  -7   1 -17    0.40    1.40 
   1   7  17   -0.60    0.80 
  -1  -7  17    1.30    1.10 
   7  -1  17    0.70    0.80 
  -7   2 -17   -1.30    1.10 
   2   7  17   -0.10    0.80 
   7  -2  17    0.90    0.80 
  -7   3 -17   -1.00    1.10 
  -3  -7 -17   -0.60    1.70 
  -7   3  17    2.30    1.30 
   3   7  17    2.10    1.00 
  -3  -7  17    3.40    1.40 
   7  -3  17    0.90    0.90 
  -4  -7 -17    2.10    1.70 
  -7   4 -17    1.60    1.30 
  -7   4  17    0.90    1.00 
   7  -4  17    1.80    1.00 
  -4  -7  17    0.70    1.10 
   4   7  17    1.00    0.90 
  -5  -7 -17    0.60    1.80 
  -7   5 -17    3.10    1.40 
  -7   5  17    2.60    1.20 
   5   7  17    2.10    1.00 
  -5  -7  17    3.60    1.40 
   7  -5  17    2.00    0.90 
  -8  -4 -17    0.10    1.80 
  -4   8 -17    0.90    0.80 
   8   4  17    0.50    0.80 
   4  -8  17    1.80    1.00 
  -4   8  17    0.70    1.10 
  -8  -4  17    0.80    1.10 
  -8  -3 -17    1.60    1.90 
   3  -8  17    0.60    1.10 
   8   3  17    1.10    0.80 
  -8  -3  17    1.90    1.20 
  -3   8  17   -0.30    1.00 
  -8  -2 -17   -0.20    1.60 
  -2   8 -17    0.70    0.70 
   2  -8  17    0.20    1.50 
  -2   8  17    0.60    1.00 
  -8  -2  17   -0.10    1.00 
   8   2  17    0.30    0.70 
  -8  -1  17    0.70    1.10 
   8   1  17    1.50    0.80 
   0  -8 -17    1.70    1.50 
  -8   0  17   -0.30    1.00 
   0  -8  17    0.40    0.80 
   0  -8  17   -1.40    1.50 
   0   8  17   -0.70    0.90 
   8   0  17   -0.10    0.70 
  -8   1 -17   -1.80    1.40 
  -1  -8 -17    2.50    1.70 
  -1  -8  17    0.80    1.10 
   1   8  17   -0.70    0.80 
  -1  -8  17   -0.10    0.70 
  -8   1  17    1.30    1.00 
   8  -1  17   -0.10    0.70 
  -2  -8 -17   -1.60    1.40 
  -8   2 -17   -0.30    1.40 
  -2  -8  17    0.40    0.90 
  -8   2  17   -0.30    0.90 
   8  -2  17   -0.50    0.70 
  -2  -8  17   -0.60    1.00 
   2   8  17    1.20    1.00 
  -3  -8 -17    2.00    1.90 
  -8   3 -17    1.10    1.40 
  -3  -8  17   -0.80    1.00 
   3   8  17    0.10    0.80 
   8  -3  17   -0.70    0.70 
  -8   3  17    0.70    1.10 
  -4  -8 -17    1.60    1.80 
  -8   4 -17   -1.20    1.10 
  -8   4  17    0.30    1.00 
   8  -4  17   -0.40    0.80 
  -4  -8  17    0.70    1.10 
   4   8  17    0.60    0.90 
  -9  -1 -17    1.40    1.80 
   1  -9  17    1.80    1.20 
   0  -9 -17    0.40    1.50 
   9   0  17    1.00    0.80 
   0  -9  17    1.20    1.00 
   0   9  17    0.30    0.90 
  -9   0  17    0.10    1.10 
  -9   1 -17    3.10    2.10 
  -1  -9 -17    5.60    2.00 
  -1  -9  17    3.30    1.40 
   0   0 -18   34.50    4.20 
   0  -1 -18   -0.30    1.00 
   1   0 -18    0.70    1.00 
   0   1 -18    1.80    1.10 
  -1   0 -18    1.00    1.20 
  -1   0  18   -0.10    0.80 
   0   1  18   -0.20    0.80 
   0  -1  18    0.20    0.80 
   1   0  18   -0.40    0.80 
   1  -1 -18    0.00    1.10 
  -1   1 -18    1.50    1.10 
   1   1 -18    1.70    1.10 
  -1  -1 -18    0.50    1.20 
   1  -1  18   -0.80    0.80 
  -1  -1  18   -0.40    0.80 
  -1   1  18    0.50    0.90 
   1   1  18    0.20    0.80 
  -1   2 -18    0.20    0.90 
   1  -2 -18   -0.60    1.00 
  -2  -1 -18    0.60    1.80 
  -2  -1  18    0.80    0.90 
   1  -2  18    0.90    0.90 
   2   1  18   -0.80    0.80 
  -1   2  18   -0.60    0.80 
   0  -2 -18    2.90    1.30 
  -2   0 -18    2.50    1.20 
   0   2 -18    0.10    1.00 
   0  -2  18    1.30    1.00 
  -2   0  18    1.30    1.00 
   0   2  18   -0.20    0.90 
   2   0  18    1.60    0.90 
  -2   1 -18    0.60    1.10 
  -1  -2 -18    0.90    1.30 
   1   2  18    0.30    0.80 
  -2   1  18    0.30    0.90 
   2  -1  18    0.10    0.80 
  -1  -2  18   -1.20    0.80 
  -2   2 -18    5.50    1.40 
  -2  -2 -18    5.70    1.70 
  -2  -2  18    3.40    1.20 
   2   2  18    1.80    1.00 
   2  -2  18    3.80    1.10 
  -2   2  18    2.50    1.10 
  -2   3 -18    0.90    1.20 
  -3  -2 -18    1.30    1.50 
   2  -3  18    0.30    0.90 
   3   2  18    0.20    0.80 
  -2   3  18   -1.40    0.80 
  -3  -2  18    0.30    0.90 
   1  -3 -18   -1.20    0.90 
  -3  -1  18    0.10    0.90 
   1  -3  18    1.00    0.90 
   3   1  18   -0.30    0.80 
  -1   3  18   -0.20    0.80 
  -3   0 -18    0.70    1.20 
   0   3 -18    0.50    1.00 
   0  -3 -18    1.20    1.30 
   0  -3  18    0.30    0.90 
   3   0  18    0.80    0.80 
  -3   0  18    0.10    0.90 
  -3   1 -18   -0.70    1.00 
  -1  -3 -18   -0.80    1.10 
   3  -1  18    0.40    0.80 
  -3   1  18   -0.40    0.90 
   1   3  18   -0.40    0.80 
  -1  -3  18   -0.90    0.90 
  -2  -3 -18    0.40    1.20 
  -3   2 -18    0.80    1.10 
   2   3  18    0.10    0.80 
   3  -2  18   -0.20    0.80 
  -2  -3  18    0.10    1.00 
  -3   2  18    0.40    0.90 
  -3   3 -18   -0.10    1.00 
  -3  -3 -18    1.70    1.60 
  -3   3  18    2.60    1.10 
   3   3  18    1.10    0.90 
   3  -3  18    0.70    0.90 
  -3   4 -18    2.00    1.30 
   3  -4  18    0.80    0.90 
  -4  -3  18    1.00    1.10 
   4   3  18    1.40    0.80 
  -2   4 -18    0.10    1.10 
  -4  -2 -18    1.30    1.50 
  -2   4  18    0.70    1.00 
   2  -4  18    0.30    0.90 
   4   2  18    1.70    0.90 
  -1   4 -18    0.00    0.90 
  -4  -1 -18    1.30    2.20 
   1  -4 -18    0.90    1.30 
   1  -4  18    0.10    1.00 
   4   1  18    0.70    0.90 
  -1   4  18   -0.10    0.90 
  -4  -1  18    0.80    1.30 
   0   4 -18    6.80    1.40 
  -4   0 -18   12.00    2.10 
   0  -4 -18    6.60    1.80 
   0  -4  18    5.60    1.30 
  -4   0  18    6.10    1.80 
   4   0  18    5.90    1.20 
  -1  -4 -18   -1.00    1.20 
  -4   1 -18   -1.10    1.10 
   4  -1  18    0.20    0.80 
   1   4  18    0.00    0.90 
  -1  -4  18    0.10    0.90 
  -4   2 -18   -0.50    1.10 
  -2  -4 -18    1.10    2.10 
   4  -2  18    1.30    0.90 
  -2  -4  18   -0.60    1.50 
   2   4  18    0.20    0.80 
  -4   3 -18    1.60    1.20 
  -3  -4  18   -0.90    1.60 
   3   4  18    0.00    0.80 
   4  -3  18    0.60    0.90 
  -4  -4 -18    2.60    1.90 
  -4   4 -18    2.10    1.10 
  -4  -4  18   -0.60    1.00 
  -4   4  18   -0.70    0.90 
   4  -4  18    0.90    0.90 
   4   4  18    0.40    0.80 
  -5  -4 -18    0.50    1.50 
  -4   5 -18    0.90    1.00 
   4  -5  18    1.80    1.00 
  -4   5  18    1.20    1.00 
   5   4  18    0.60    0.80 
  -5  -4  18    2.00    1.10 
  -5  -3 -18   -0.60    1.40 
  -3   5 -18    2.10    1.20 
  -5  -3  18    1.40    1.10 
   5   3  18    0.80    0.90 
  -3   5  18    1.00    1.00 
   3  -5  18    1.30    0.90 
  -2   5 -18   -1.00    0.80 
   2  -5  18    0.70    0.90 
  -5  -2  18   -0.80    1.00 
   5   2  18    1.90    0.90 
  -1   5 -18    0.70    0.80 
  -5  -1 -18    1.10    1.50 
  -1   5  18    0.70    1.00 
   1  -5  18    1.50    1.50 
   5   1  18    1.80    0.90 
  -5  -1  18    0.70    1.10 
  -5   0 -18    0.70    1.40 
   0   5  18   -0.50    0.90 
   0  -5  18    0.90    1.00 
  -5   0  18    0.50    0.90 
   5   0  18    0.50    0.80 
  -5   1 -18    2.60    1.40 
  -1  -5 -18    1.10    2.30 
   5  -1  18    0.90    0.80 
  -5   1  18    1.90    1.10 
   1   5  18    1.40    0.90 
  -5   2 -18    1.70    1.40 
  -2  -5 -18   -0.20    1.50 
   2   5  18    0.30    0.90 
   5  -2  18   -0.10    0.80 
  -2  -5  18    0.50    0.90 
  -5   2  18    0.30    1.00 
  -5   3 -18   -0.40    1.10 
  -3  -5 -18    2.60    1.70 
  -3  -5  18    1.30    1.10 
  -5   3  18    1.20    1.00 
   5  -3  18    0.50    0.80 
   3   5  18    0.10    0.80 
  -5   4 -18   -0.70    1.00 
  -4  -5 -18    0.70    1.80 
  -5   4  18    0.70    1.00 
   5  -4  18    2.20    1.00 
   4   5  18    0.00    0.80 
  -4  -5  18    1.90    1.20 
  -5  -5 -18    2.50    1.70 
  -5   5 -18    0.50    1.00 
  -5  -5  18    0.40    1.10 
   5  -5  18    0.20    0.80 
   5   5  18   -0.60    0.70 
  -5   5  18   -0.20    1.00 
  -6  -3 -18    2.00    1.90 
  -3   6 -18    0.30    0.80 
  -3   6  18    1.10    1.10 
  -6  -3  18    2.60    1.20 
   6   3  18    0.20    0.90 
   3  -6  18    0.20    0.90 
  -6  -2 -18    4.70    1.90 
  -2   6 -18    1.00    0.80 
  -2   6  18    1.70    1.10 
   6   2  18    3.40    1.60 
   2  -6  18    3.40    1.30 
  -6  -2  18    4.00    1.30 
  -1   6 -18    0.70    0.80 
  -6  -1  18   -0.70    0.90 
   0  -6 -18    3.80    1.80 
  -6   0 -18    3.80    1.80 
   0  -6  18    4.60    1.90 
  -6   0  18    3.70    1.30 
   0   6  18    4.10    1.70 
  -1  -6 -18    0.20    1.50 
  -6   1 -18    1.90    1.50 
  -6   1  18   -0.10    0.90 
  -1  -6  18   -0.40    0.90 
   1   6  18    1.20    0.90 
   6  -1  18    0.40    0.80 
  -2  -6 -18    3.30    1.80 
  -6   2 -18    1.50    1.40 
   2   6  18    2.60    1.10 
   6  -2  18    3.10    1.00 
  -2  -6  18    6.00    1.40 
  -6   2  18    2.50    1.20 
  -6   3 -18    0.80    1.30 
  -3  -6 -18    0.20    1.70 
   6  -3  18    1.10    0.90 
  -6   3  18   -0.30    1.00 
   3   6  18    0.20    0.80 
  -3  -6  18   -0.10    1.00 
  -7  -1 -18    0.80    1.60 
  -1   7 -18   -0.90    0.60 
  -1   7  18    0.70    1.00 
   7   1  18    0.40    0.80 
  -7  -1  18   -0.50    1.00 
   0  -7 -18    3.60    1.80 
  -7   0 -18    2.50    1.60 
  -7   0  18    2.20    1.20 
   7   0  18    3.00    1.20 
   0  -7  18    3.20    1.10 
   0   7  18    1.50    1.00 
  -1  -7 -18   -1.30    1.30 
  -1  -7  18    1.30    1.10 
  -7   1  18    0.80    1.00 
   0   0 -19   -1.20    1.00 
  -1   0 -19   -0.90    1.00 
   0   1 -19   -0.60    1.00 
   0  -1 -19    0.40    1.10 
  -1   0  19    0.60    1.20 
   1   0  19   -0.60    0.80 
  -1   1 -19    0.30    1.10 
  -1  -1 -19   -0.40    1.10 
   1   1  19    0.30    0.90 
  -1  -1  19    1.00    1.10 
   1  -1  19    0.20    0.90 
  -1   1  19    0.30    1.40 
  -2  -1 -19    3.80    1.70 
  -1   2 -19    1.40    1.10 
   1  -2  19    2.40    1.20 
  -1   2  19    0.60    1.10 
  -2  -1  19    0.20    1.00 
   2   1  19    1.20    0.90 
  -2   0 -19    0.80    1.20 
   0   2 -19    0.50    1.00 
  -2   0  19    2.20    1.00 
   2   0  19    1.40    0.90 
  -2   1 -19    1.10    1.20 
  -2   1  19    0.50    1.00 
  -1  -2  19    0.50    1.00 
   1   2  19    1.50    1.00 
   2  -1  19    0.70    0.90 
  -2  -2 -19   -1.50    1.50 
  -2   2 -19    1.70    1.10 
  -2   2  19    0.00    0.90 
   2   2  19    2.80    1.00 
   2  -2  19    0.50    0.90 
  -2  -2  19    0.00    1.00 
  -3  -2 -19    3.00    1.60 
  -2   3 -19    1.30    1.10 
   3   2  19    1.70    1.00 
  -3  -2  19   -0.10    0.90 
  -2   3  19    0.10    0.90 
  -1   3 -19    0.80    1.00 
  -1   3  19    1.20    1.00 
  -3  -1  19   -0.30    0.90 
   3   1  19    0.10    0.90 
   0   3 -19   -0.10    0.90 
   0  -3 -19    0.70    1.20 
  -3   0 -19    0.70    1.30 
   0   3  19    0.80    1.50 
   3   0  19    0.00    0.80 
   0  -3  19    0.80    1.00 
  -3   0  19    0.30    1.00 
  -3   1 -19    0.40    1.20 
  -1  -3 -19    2.90    1.50 
  -3   1  19    0.40    1.10 
   1   3  19    2.20    1.50 
  -1  -3  19    0.10    0.90 
   3  -1  19    1.40    0.90 
  -2  -3 -19    0.80    1.40 
  -3   2 -19    1.10    1.20 
   3  -2  19    1.80    1.00 
  -3   2  19   -0.30    1.00 
   2   3  19    0.10    0.90 
  -2  -3  19    0.70    1.00 
  -3   3 -19    1.90    1.20 
  -3  -3 -19   -2.50    1.30 
  -1   4 -19    0.40    0.90 
  -4  -1 -19    0.80    1.40 
  -4  -1  19    0.00    1.00 
   4   1  19    0.30    0.90 
  -1   4  19    1.40    1.00 
   1  -4  19    1.00    1.00 
   0  -4 -19    0.30    1.40 
   0  -4  19    1.40    1.00 
   0   4  19    0.50    0.90 
  -4   0  19    0.00    1.00 
   4   0  19    1.50    0.90 
  -1  -4 -19   -2.60    1.20 
  -4   1 -19    0.00    1.30 
   4  -1  19    2.00    0.90 
  -1  -4  19   -1.30    0.90 
  -4   1  19   -0.40    1.00 
   0   0   0    0.00    0.00 
  
_computing_structure_solution     'SHELXT 2018/2 (Sheldrick, 2018)' 
;
_shelx_hkl_checksum              7667
loop_
_space_group_symop_operation_xyz
'x, y, z'
'-x, -y, z'
'-y+1/2, x+1/2, z'
'y+1/2, -x+1/2, z'
'-x+1/2, y+1/2, -z'
'x+1/2, -y+1/2, -z'
'y, x, -z'
'-y, -x, -z'
loop_
_atom_site_label
_atom_site_type_symbol
_atom_site_fract_x
_atom_site_fract_y
_atom_site_fract_z
_atom_site_U_iso_or_equiv
_atom_site_adp_type
_atom_site_occupancy
_atom_site_site_symmetry_order
_atom_site_calc_flag
_atom_site_refinement_flags_posn
_atom_site_refinement_flags_adp
_atom_site_refinement_flags_occupancy
_atom_site_disorder_assembly
_atom_site_disorder_group
I1 I 0.500000 0.000000 0.2377(3) 0.0450(12) Uani 1 4 d S T P A .
I2 I 0.500000 0.000000 0.7367(4) 0.0626(16) Uani 1 4 d S T P A .
I3 I 1.000000 0.000000 0.2485(3) 0.0634(12) Uani 1 2 d S T P A .
Cs1 Cs 0.7474(3) 0.0811(5) 0.2309(8) 0.067(2) Uani 0.83(3) 1 d . U P . .
Cs1' Cs 0.758(2) 0.0970(12) 0.275(3) 0.051(8) Uani 0.17(3) 1 d . U P A .
Cs2 Cs 0.500000 0.000000 0.482(3) 0.093(18) Uani 0.40(14) 4 d S TU P . .
Cs2' Cs 0.509(3) 0.034(3) 0.4914(13) 0.036(8) Uani 0.15(4) 1 d . U P A .
Cs3 Cs 1.0253(4) 0.0253(4) 0.000000 0.068(2) Uani 0.5 2 d S TU P . .
Cs4 Cs 0.7528(4) 0.4119(4) 0.2704(8) 0.076(3) Uani 0.79(3) 1 d . U P . .
Cs4' Cs 0.750(2) 0.434(2) 0.227(2) 0.079(8) Uani 0.21(3) 1 d . U P A .
Cs5 Cs 1.000000 0.000000 0.500000 0.083(2) Uani 1 4 d S T P . .
Cs6 Cs 0.500000 0.000000 0.9862(7) 0.175(6) Uani 1 4 d S TU P . .
Mn1 Mn 0.7549(6) 0.2451(6) 0.500000 0.082(3) Uani 1 2 d S T P A .
Cl1 Cl 0.7855(18) 0.117(2) 0.5852(19) 0.083(7) Uani 0.767(14) 1 d . U P A 1
I4 I 0.5960(4) 0.2415(5) 0.4188(5) 0.100(2) Uani 0.767(14) 1 d . U P A 1
Cl1' Cl 0.599(6) 0.203(7) 0.446(7) 0.100(2) Uani 0.233(14) 1 d . U P A 2
I4' I 0.7654(15) 0.1052(14) 0.6063(14) 0.064(5) Uani 0.233(14) 1 d . U P A 2
Mn2 Mn 0.7443(5) 0.2557(5) 0.000000 0.057(2) Uani 1 2 d S T P A .
Cl2 Cl 0.6281(13) 0.2536(14) 0.1140(10) 0.066(4) Uani 0.695(13) 1 d . U P A 1
I5 I 0.9101(5) 0.2531(5) 0.0814(5) 0.085(2) Uani 0.695(13) 1 d . U P A 1
Cl2' Cl 0.935(3) 0.288(3) 0.067(3) 0.055(8) Uani 0.305(13) 1 d . U P A 2
I5' I 0.5754(11) 0.2771(11) 0.0782(11) 0.095(5) Uani 0.305(13) 1 d . U P A 2
loop_
_atom_site_aniso_label
_atom_site_aniso_U_11
_atom_site_aniso_U_22
_atom_site_aniso_U_33
_atom_site_aniso_U_23
_atom_site_aniso_U_13
_atom_site_aniso_U_12
I1 0.0422(16) 0.0422(16) 0.051(2) 0.000 0.000 0.000
I2 0.069(2) 0.069(2) 0.050(3) 0.000 0.000 0.000
I3 0.040(2) 0.067(3) 0.083(3) 0.000 0.000 0.0099(17)
Cs1 0.0424(17) 0.064(3) 0.094(6) 0.013(3) -0.020(2) 0.0023(16)
Cs1' 0.043(10) 0.044(8) 0.066(14) -0.013(7) 0.021(8) -0.004(6)
Cs2 0.09(2) 0.09(2) 0.11(3) 0.000 0.000 0.000
Cs2' 0.036(9) 0.039(11) 0.033(10) 0.014(5) 0.007(7) 0.002(10)
Cs3 0.071(3) 0.071(3) 0.063(4) -0.019(3) 0.019(3) 0.007(3)
Cs4 0.064(3) 0.060(2) 0.103(6) 0.009(3) -0.017(3) -0.0044(19)
Cs4' 0.084(10) 0.075(11) 0.079(12) -0.002(9) 0.049(8) 0.007(8)
Cs5 0.105(3) 0.105(3) 0.040(2) 0.000 0.000 0.015(4)
Cs6 0.222(9) 0.222(9) 0.081(6) 0.000 0.000 0.000
Mn1 0.086(5) 0.086(5) 0.075(6) -0.001(4) -0.001(4) 0.028(7)
Cl1 0.065(11) 0.079(12) 0.105(14) 0.058(9) 0.050(9) 0.005(8)
I4 0.068(3) 0.104(5) 0.126(6) -0.008(4) -0.039(3) -0.017(3)
Cl1' 0.068(3) 0.104(5) 0.126(6) -0.008(4) -0.039(3) -0.017(3)
I4' 0.065(11) 0.049(7) 0.076(11) 0.029(7) 0.026(8) -0.009(6)
Mn2 0.060(3) 0.060(3) 0.050(4) 0.004(3) 0.004(3) -0.001(4)
Cl2 0.066(9) 0.088(10) 0.044(7) 0.006(7) 0.032(6) 0.015(8)
I5 0.075(4) 0.073(4) 0.107(5) 0.000(4) -0.026(3) 0.004(3)
Cl2' 0.072(16) 0.039(13) 0.054(13) -0.027(12) -0.004(12) -0.009(12)
I5' 0.086(9) 0.092(9) 0.107(10) 0.016(7) 0.028(8) -0.004(7)
loop_
_atom_type_symbol
_atom_type_description
_atom_type_scat_dispersion_real
_atom_type_scat_dispersion_imag
_atom_type_scat_source
Cl Cl 0.1484 0.1585 'International Tables Vol C Tables 4.2.6.8 and 6.1.1.4'
Cs Cs -0.3680 2.1192 'International Tables Vol C Tables 4.2.6.8 and 6.1.1.4'
I I -0.4742 1.8119 'International Tables Vol C Tables 4.2.6.8 and 6.1.1.4'
Mn Mn 0.3368 0.7283 'International Tables Vol C Tables 4.2.6.8 and 6.1.1.4'
loop_
_geom_angle_atom_site_label_1
_geom_angle_atom_site_label_2
_geom_angle_atom_site_label_3
_geom_angle
_geom_angle_site_symmetry_1
_geom_angle_site_symmetry_3
_geom_angle_publ_flag
Cs2 I1 Cs1 91.6(2) . 2_655 ?
Cs2 I1 Cs1 91.6(2) . 4 ?
Cs1 I1 Cs1 89.956(12) 2_655 4 ?
Cs2 I1 Cs1 91.6(2) . 3_545 ?
Cs1 I1 Cs1 89.956(12) 2_655 3_545 ?
Cs1 I1 Cs1 176.8(4) 4 3_545 ?
Cs2 I1 Cs1 91.6(2) . . ?
Cs1 I1 Cs1 176.8(4) 2_655 . ?
Cs1 I1 Cs1 89.956(11) 4 . ?
Cs1 I1 Cs1 89.955(11) 3_545 . ?
Cs2 I1 Cs6 180.0 . 1_554 ?
Cs1 I1 Cs6 88.4(2) 2_655 1_554 ?
Cs1 I1 Cs6 88.4(2) 4 1_554 ?
Cs1 I1 Cs6 88.4(2) 3_545 1_554 ?
Cs1 I1 Cs6 88.4(2) . 1_554 ?
Cs2 I1 Cs2' 7.6(6) . 4 ?
Cs1 I1 Cs2' 97.9(6) 2_655 4 ?
Cs1 I1 Cs2' 87.4(6) 4 4 ?
Cs1 I1 Cs2' 95.7(6) 3_545 4 ?
Cs1 I1 Cs2' 85.3(6) . 4 ?
Cs6 I1 Cs2' 172.4(6) 1_554 4 ?
Cs2 I1 Cs2' 7.6(6) . 3_545 ?
Cs1 I1 Cs2' 85.3(6) 2_655 3_545 ?
Cs1 I1 Cs2' 95.7(6) 4 3_545 ?
Cs1 I1 Cs2' 87.4(6) 3_545 3_545 ?
Cs1 I1 Cs2' 97.9(6) . 3_545 ?
Cs6 I1 Cs2' 172.4(6) 1_554 3_545 ?
Cs2' I1 Cs2' 15.1(11) 4 3_545 ?
Cs2 I1 Cs2' 7.6(6) . 2_655 ?
Cs1 I1 Cs2' 87.4(6) 2_655 2_655 ?
Cs1 I1 Cs2' 85.3(6) 4 2_655 ?
Cs1 I1 Cs2' 97.9(6) 3_545 2_655 ?
Cs1 I1 Cs2' 95.7(6) . 2_655 ?
Cs6 I1 Cs2' 172.4(6) 1_554 2_655 ?
Cs2' I1 Cs2' 10.7(8) 4 2_655 ?
Cs2' I1 Cs2' 10.7(8) 3_545 2_655 ?
Cs2 I1 Cs2' 7.6(6) . . ?
Cs1 I1 Cs2' 95.7(6) 2_655 . ?
Cs1 I1 Cs2' 97.9(6) 4 . ?
Cs1 I1 Cs2' 85.3(6) 3_545 . ?
Cs1 I1 Cs2' 87.4(6) . . ?
Cs6 I1 Cs2' 172.4(6) 1_554 . ?
Cs2' I1 Cs2' 10.7(8) 4 . ?
Cs2' I1 Cs2' 10.7(8) 3_545 . ?
Cs2' I1 Cs2' 15.1(11) 2_655 . ?
Cs2 I1 Cs1' 81.9(6) . 2_655 ?
Cs1 I1 Cs1' 10.0(4) 2_655 2_655 ?
Cs1 I1 Cs1' 87.8(3) 4 2_655 ?
Cs1 I1 Cs1' 92.7(3) 3_545 2_655 ?
Cs1 I1 Cs1' 173.1(6) . 2_655 ?
Cs6 I1 Cs1' 98.1(6) 1_554 2_655 ?
Cs2' I1 Cs1' 88.0(8) 4 2_655 ?
Cs2' I1 Cs1' 75.8(8) 3_545 2_655 ?
Cs2' I1 Cs1' 77.5(8) 2_655 2_655 ?
Cs2' I1 Cs1' 86.4(8) . 2_655 ?
Cs2 I1 Cs1' 81.9(6) . 3_545 ?
Cs1 I1 Cs1' 87.8(3) 2_655 3_545 ?
Cs1 I1 Cs1' 173.0(6) 4 3_545 ?
Cs1 I1 Cs1' 10.0(4) 3_545 3_545 ?
Cs1 I1 Cs1' 92.7(3) . 3_545 ?
Cs6 I1 Cs1' 98.1(6) 1_554 3_545 ?
Cs2' I1 Cs1' 86.4(8) 4 3_545 ?
Cs2' I1 Cs1' 77.5(8) 3_545 3_545 ?
Cs2' I1 Cs1' 88.0(8) 2_655 3_545 ?
Cs2' I1 Cs1' 75.8(8) . 3_545 ?
Cs1' I1 Cs1' 88.86(16) 2_655 3_545 ?
Cs4' I2 Cs4' 163.2(11) 8_666 7_546 ?
Cs4' I2 Cs4' 88.77(16) 8_666 5_646 ?
Cs4' I2 Cs4' 88.77(16) 7_546 5_646 ?
Cs4' I2 Cs4' 88.77(16) 8_666 6_456 ?
Cs4' I2 Cs4' 88.77(16) 7_546 6_456 ?
Cs4' I2 Cs4' 163.2(11) 5_646 6_456 ?
Cs4' I2 Cs2' 90.6(8) 8_666 . ?
Cs4' I2 Cs2' 106.2(8) 7_546 . ?
Cs4' I2 Cs2' 98.3(8) 5_646 . ?
Cs4' I2 Cs2' 98.4(8) 6_456 . ?
Cs4' I2 Cs2' 106.2(8) 8_666 2_655 ?
Cs4' I2 Cs2' 90.6(8) 7_546 2_655 ?
Cs4' I2 Cs2' 98.4(8) 5_646 2_655 ?
Cs4' I2 Cs2' 98.3(8) 6_456 2_655 ?
Cs2' I2 Cs2' 15.6(12) . 2_655 ?
Cs4' I2 Cs2' 98.3(8) 8_666 3_545 ?
Cs4' I2 Cs2' 98.4(8) 7_546 3_545 ?
Cs4' I2 Cs2' 106.2(8) 5_646 3_545 ?
Cs4' I2 Cs2' 90.6(8) 6_456 3_545 ?
Cs2' I2 Cs2' 11.0(9) . 3_545 ?
Cs2' I2 Cs2' 11.0(9) 2_655 3_545 ?
Cs4' I2 Cs2' 98.4(8) 8_666 4 ?
Cs4' I2 Cs2' 98.3(8) 7_546 4 ?
Cs4' I2 Cs2' 90.6(8) 5_646 4 ?
Cs4' I2 Cs2' 106.2(8) 6_456 4 ?
Cs2' I2 Cs2' 11.0(9) . 4 ?
Cs2' I2 Cs2' 11.0(9) 2_655 4 ?
Cs2' I2 Cs2' 15.6(12) 3_545 4 ?
Cs4' I2 Cs4 171.8(8) 8_666 7_546 ?
Cs4' I2 Cs4 11.1(5) 7_546 7_546 ?
Cs4' I2 Cs4 94.9(5) 5_646 7_546 ?
Cs4' I2 Cs4 85.6(5) 6_456 7_546 ?
Cs2' I2 Cs4 96.1(7) . 7_546 ?
Cs2' I2 Cs4 80.6(7) 2_655 7_546 ?
Cs2' I2 Cs4 87.8(6) 3_545 7_546 ?
Cs2' I2 Cs4 89.0(6) 4 7_546 ?
Cs4' I2 Cs4 11.1(5) 8_666 8_666 ?
Cs4' I2 Cs4 171.8(8) 7_546 8_666 ?
Cs4' I2 Cs4 85.6(5) 5_646 8_666 ?
Cs4' I2 Cs4 94.9(5) 6_456 8_666 ?
Cs2' I2 Cs4 80.6(7) . 8_666 ?
Cs2' I2 Cs4 96.1(7) 2_655 8_666 ?
Cs2' I2 Cs4 89.0(6) 3_545 8_666 ?
Cs2' I2 Cs4 87.8(6) 4 8_666 ?
Cs4 I2 Cs4 176.7(4) 7_546 8_666 ?
Cs4' I2 Cs4 85.6(5) 8_666 6_456 ?
Cs4' I2 Cs4 94.9(5) 7_546 6_456 ?
Cs4' I2 Cs4 171.8(8) 5_646 6_456 ?
Cs4' I2 Cs4 11.1(5) 6_456 6_456 ?
Cs2' I2 Cs4 87.8(6) . 6_456 ?
Cs2' I2 Cs4 89.0(6) 2_655 6_456 ?
Cs2' I2 Cs4 80.6(7) 3_545 6_456 ?
Cs2' I2 Cs4 96.1(7) 4 6_456 ?
Cs4 I2 Cs4 89.953(13) 7_546 6_456 ?
Cs4 I2 Cs4 89.953(12) 8_666 6_456 ?
Cs4' I2 Cs4 94.9(5) 8_666 5_646 ?
Cs4' I2 Cs4 85.6(5) 7_546 5_646 ?
Cs4' I2 Cs4 11.1(5) 5_646 5_646 ?
Cs4' I2 Cs4 171.8(8) 6_456 5_646 ?
Cs2' I2 Cs4 89.0(6) . 5_646 ?
Cs2' I2 Cs4 87.8(6) 2_655 5_646 ?
Cs2' I2 Cs4 96.1(7) 3_545 5_646 ?
Cs2' I2 Cs4 80.6(7) 4 5_646 ?
Cs4 I2 Cs4 89.953(12) 7_546 5_646 ?
Cs4 I2 Cs4 89.953(13) 8_666 5_646 ?
Cs4 I2 Cs4 176.7(4) 6_456 5_646 ?
Cs4' I3 Cs4' 170.0(12) 4 3_645 ?
Cs4' I3 Cs1' 83.7(5) 4 2_755 ?
Cs4' I3 Cs1' 97.4(6) 3_645 2_755 ?
Cs4' I3 Cs1' 97.4(6) 4 . ?
Cs4' I3 Cs1' 83.7(5) 3_645 . ?
Cs1' I3 Cs1' 167.9(14) 2_755 . ?
Cs4' I3 Cs3 91.7(6) 4 . ?
Cs4' I3 Cs3 78.3(6) 3_645 . ?
Cs1' I3 Cs3 93.0(7) 2_755 . ?
Cs1' I3 Cs3 99.1(7) . . ?
Cs4' I3 Cs3 78.3(6) 4 2_755 ?
Cs4' I3 Cs3 91.7(6) 3_645 2_755 ?
Cs1' I3 Cs3 99.1(7) 2_755 2_755 ?
Cs1' I3 Cs3 93.0(7) . 2_755 ?
Cs3 I3 Cs3 15.6(3) . 2_755 ?
Cs4' I3 Cs5 95.0(6) 4 . ?
Cs4' I3 Cs5 95.0(6) 3_645 . ?
Cs1' I3 Cs5 83.9(7) 2_755 . ?
Cs1' I3 Cs5 83.9(7) . . ?
Cs3 I3 Cs5 172.22(14) . . ?
Cs3 I3 Cs5 172.22(14) 2_755 . ?
Cs4' I3 Cs1 86.7(4) 4 2_755 ?
Cs4' I3 Cs1 92.6(4) 3_645 2_755 ?
Cs1' I3 Cs1 10.8(5) 2_755 2_755 ?
Cs1' I3 Cs1 175.5(6) . 2_755 ?
Cs3 I3 Cs1 82.5(2) . 2_755 ?
Cs3 I3 Cs1 89.6(2) 2_755 2_755 ?
Cs5 I3 Cs1 94.0(2) . 2_755 ?
Cs4' I3 Cs1 92.6(4) 4 . ?
Cs4' I3 Cs1 86.7(4) 3_645 . ?
Cs1' I3 Cs1 175.5(6) 2_755 . ?
Cs1' I3 Cs1 10.8(5) . . ?
Cs3 I3 Cs1 89.6(2) . . ?
Cs3 I3 Cs1 82.5(2) 2_755 . ?
Cs5 I3 Cs1 94.0(2) . . ?
Cs1 I3 Cs1 172.0(4) 2_755 . ?
Cs4' I3 Cs4 175.7(4) 4 3_645 ?
Cs4' I3 Cs4 10.8(5) 3_645 3_645 ?
Cs1' I3 Cs4 92.0(3) 2_755 3_645 ?
Cs1' I3 Cs4 86.9(4) . 3_645 ?
Cs3 I3 Cs4 87.9(2) . 3_645 ?
Cs3 I3 Cs4 101.9(2) 2_755 3_645 ?
Cs5 I3 Cs4 85.1(2) . 3_645 ?
Cs1 I3 Cs4 88.95(12) 2_755 3_645 ?
Cs1 I3 Cs4 91.74(14) . 3_645 ?
Cs4' I3 Cs4 10.8(5) 4 4 ?
Cs4' I3 Cs4 175.7(4) 3_645 4 ?
Cs1' I3 Cs4 86.9(4) 2_755 4 ?
Cs1' I3 Cs4 92.0(3) . 4 ?
Cs3 I3 Cs4 101.9(2) . 4 ?
Cs3 I3 Cs4 87.9(2) 2_755 4 ?
Cs5 I3 Cs4 85.1(2) . 4 ?
Cs1 I3 Cs4 91.74(14) 2_755 4 ?
Cs1 I3 Cs4 88.95(12) . 4 ?
Cs4 I3 Cs4 170.1(4) 3_645 4 ?
Cs1' Cs1 I5' 148(2) . 4 ?
Cs1' Cs1 Cl2 138(2) . 4 ?
Cs1' Cs1 Cl2 110(3) . . ?
Cl2 Cs1 Cl2 111.4(7) 4 . ?
Cs1' Cs1 I1 105(2) . . ?
I5' Cs1 I1 85.9(3) 4 . ?
Cl2 Cs1 I1 76.7(4) 4 . ?
Cl2 Cs1 I1 76.6(3) . . ?
Cs1' Cs1 I3 81(2) . . ?
I5' Cs1 I3 73.4(3) 4 . ?
Cl2 Cs1 I3 75.4(4) 4 . ?
Cl2 Cs1 I3 135.9(3) . . ?
I1 Cs1 I3 143.62(16) . . ?
Cs1' Cs1 I4 61.6(17) . 4 ?
Cl2 Cs1 I4 78.8(4) 4 4 ?
Cl2 Cs1 I4 147.0(3) . 4 ?
I1 Cs1 I4 75.56(16) . 4 ?
I3 Cs1 I4 76.46(14) . 4 ?
Cs1' Cs1 Cl1 23.3(17) . 8_666 ?
Cl2 Cs1 Cl1 140.5(5) 4 8_666 ?
Cl2 Cs1 Cl1 105.0(5) . 8_666 ?
I1 Cs1 Cl1 127.4(5) . 8_666 ?
I3 Cs1 Cl1 68.0(4) . 8_666 ?
I4 Cs1 Cl1 78.8(4) 4 8_666 ?
Cs1' Cs1 I4' 29.6(16) . 8_666 ?
I5' Cs1 I4' 139.8(4) 4 8_666 ?
Cl2 Cs1 I4' 142.0(5) 4 8_666 ?
Cl2 Cs1 I4' 100.7(5) . 8_666 ?
I1 Cs1 I4' 132.0(4) . 8_666 ?
I3 Cs1 I4' 67.4(3) . 8_666 ?
I4 Cs1 I4' 85.2(4) 4 8_666 ?
Cl1 Cs1 I4' 6.7(3) 8_666 8_666 ?
Cs1' Cs1 I5 101.9(16) . . ?
Cl2 Cs1 I5 103.0(5) 4 . ?
Cl2 Cs1 I5 64.6(3) . . ?
I1 Cs1 I5 138.3(2) . . ?
I3 Cs1 I5 71.34(14) . . ?
I4 Cs1 I5 145.97(18) 4 . ?
Cl1 Cs1 I5 79.3(3) 8_666 . ?
Cs1' Cs1 I4 47(3) . . ?
Cl2 Cs1 I4 144.9(4) 4 . ?
Cl2 Cs1 I4 72.9(3) . . ?
I1 Cs1 I4 70.42(17) . . ?
I3 Cs1 I4 127.1(3) . . ?
I4 Cs1 I4 81.4(3) 4 . ?
Cl1 Cs1 I4 60.8(5) 8_666 . ?
I5 Cs1 I4 109.6(2) . . ?
Cs1' Cs1 Mn2 124.9(19) . . ?
I5' Cs1 Mn2 80.0(4) 4 . ?
Cl2 Cs1 Mn2 95.1(4) 4 . ?
Cl2 Cs1 Mn2 33.9(3) . . ?
I1 Cs1 Mn2 101.19(17) . . ?
I3 Cs1 Mn2 104.2(2) . . ?
I4 Cs1 Mn2 173.6(4) 4 . ?
Cl1 Cs1 Mn2 107.5(3) 8_666 . ?
I4' Cs1 Mn2 100.9(3) 8_666 . ?
I5 Cs1 Mn2 37.18(13) . . ?
I4 Cs1 Mn2 102.90(19) . . ?
Cs1 Cs1' Cl1 151.6(19) . 8_666 ?
Cs1 Cs1' I4' 144.2(19) . 8_666 ?
Cl1 Cs1' I4' 8.0(4) 8_666 8_666 ?
Cs1 Cs1' I4 108.1(17) . 4 ?
Cl1 Cs1' I4 92.3(12) 8_666 4 ?
Cs1 Cs1' I3 88(2) . . ?
Cl1 Cs1' I3 75.4(10) 8_666 . ?
I4' Cs1' I3 74.3(9) 8_666 . ?
I4 Cs1' I3 80.6(7) 4 . ?
Cs1 Cs1' Cl1' 130(3) . . ?
I4' Cs1' Cl1' 75.2(14) 8_666 . ?
I3 Cs1' Cl1' 141.2(19) . . ?
Cs1 Cs1' I4 125(3) . . ?
Cl1 Cs1' I4 71.4(8) 8_666 . ?
I4 Cs1' I4 91.9(6) 4 . ?
I3 Cs1' I4 145.7(15) . . ?
Cs1 Cs1' Cl2 60(3) . . ?
Cl1 Cs1' Cl2 112.5(7) 8_666 . ?
I4 Cs1' Cl2 145.8(10) 4 . ?
I3 Cs1' Cl2 127.0(7) . . ?
I4 Cs1' Cl2 75.3(5) . . ?
Cs1 Cs1' I5' 26.1(19) . 4 ?
Cl1 Cs1' I5' 142.2(9) 8_666 4 ?
I4' Cs1' I5' 138.8(7) 8_666 4 ?
I4 Cs1' I5' 88.8(5) 4 4 ?
I3 Cs1' I5' 67.5(4) . 4 ?
Cl1' Cs1' I5' 145.9(16) . 4 ?
I4 Cs1' I5' 146.3(12) . 4 ?
Cl2 Cs1' I5' 85.4(11) . 4 ?
Cs1 Cs1' Cl1' 110(2) . 4 ?
Cl1 Cs1' Cl1' 93(2) 8_666 4 ?
I4' Cs1' Cl1' 101(2) 8_666 4 ?
I4 Cs1' Cl1' 8.9(14) 4 4 ?
I3 Cs1' Cl1' 89.3(15) . 4 ?
Cl1' Cs1' Cl1' 73(3) . 4 ?
I4 Cs1' Cl1' 83.7(16) . 4 ?
Cl2 Cs1' Cl1' 138.9(16) . 4 ?
I5' Cs1' Cl1' 93.7(17) 4 4 ?
Cs1 Cs1' I1 65(2) . . ?
Cl1 Cs1' I1 141.8(8) 8_666 . ?
I4' Cs1' I1 146.5(7) 8_666 . ?
I4 Cs1' I1 75.7(4) 4 . ?
I3 Cs1' I1 135.4(6) . . ?
Cl1' Cs1' I1 71.2(12) . . ?
I4 Cs1' I1 72.9(4) . . ?
Cl2 Cs1' I1 70.3(8) . . ?
I5' Cs1' I1 74.7(8) 4 . ?
Cl1' Cs1' I1 69.9(15) 4 . ?
Cs1 Cs1' Mn1 162(3) . . ?
Cl1 Cs1' Mn1 34.8(6) 8_666 . ?
I4' Cs1' Mn1 39.7(6) 8_666 . ?
I4 Cs1' Mn1 83.7(9) 4 . ?
I3 Cs1' Mn1 107.1(12) . . ?
Cl1' Cs1' Mn1 36.6(12) . . ?
I4 Cs1' Mn1 38.6(3) . . ?
Cl2 Cs1' Mn1 103.1(5) . . ?
I5' Cs1' Mn1 171.4(11) 4 . ?
Cl1' Cs1' Mn1 79.4(18) 4 . ?
I1 Cs1' Mn1 107.2(4) . . ?
Cs2' Cs2 Cs2' 86(3) 4 2_655 ?
Cs2' Cs2 Cs2' 150(10) 4 3_545 ?
Cs2' Cs2 Cs2' 86(3) 2_655 3_545 ?
Cs2' Cs2 Cs2' 86(3) 4 . ?
Cs2' Cs2 Cs2' 150(10) 2_655 . ?
Cs2' Cs2 Cs2' 86(3) 3_545 . ?
Cs2' Cs2 Cl1' 82(5) 4 . ?
Cs2' Cs2 Cl1' 168(5) 2_655 . ?
Cs2' Cs2 Cl1' 103(5) 3_545 . ?
Cs2' Cs2 Cl1' 27(6) . . ?
Cs2' Cs2 Cl1' 103(5) 4 2_655 ?
Cs2' Cs2 Cl1' 27(6) 2_655 2_655 ?
Cs2' Cs2 Cl1' 82(5) 3_545 2_655 ?
Cs2' Cs2 Cl1' 168(5) . 2_655 ?
Cl1' Cs2 Cl1' 160(4) . 2_655 ?
Cs2' Cs2 Cl1' 168(5) 4 3_545 ?
Cs2' Cs2 Cl1' 103(5) 2_655 3_545 ?
Cs2' Cs2 Cl1' 27(6) 3_545 3_545 ?
Cs2' Cs2 Cl1' 82(5) . 3_545 ?
Cl1' Cs2 Cl1' 88.4(7) . 3_545 ?
Cl1' Cs2 Cl1' 88.4(7) 2_655 3_545 ?
Cs2' Cs2 Cl1' 27(6) 4 4 ?
Cs2' Cs2 Cl1' 82(5) 2_655 4 ?
Cs2' Cs2 Cl1' 168(5) 3_545 4 ?
Cs2' Cs2 Cl1' 103(5) . 4 ?
Cl1' Cs2 Cl1' 88.4(7) . 4 ?
Cl1' Cs2 Cl1' 88.4(7) 2_655 4 ?
Cl1' Cs2 Cl1' 160(4) 3_545 4 ?
Cs2' Cs2 I1 105(6) 4 . ?
Cs2' Cs2 I1 105(6) 2_655 . ?
Cs2' Cs2 I1 105(6) 3_545 . ?
Cs2' Cs2 I1 105(6) . . ?
Cl1' Cs2 I1 80(2) . . ?
Cl1' Cs2 I1 80(2) 2_655 . ?
Cl1' Cs2 I1 80(2) 3_545 . ?
Cl1' Cs2 I1 80(2) 4 . ?
Cs2' Cs2 I2 75(6) 4 . ?
Cs2' Cs2 I2 75(6) 2_655 . ?
Cs2' Cs2 I2 75(6) 3_545 . ?
Cs2' Cs2 I2 75(6) . . ?
Cl1' Cs2 I2 100(2) . . ?
Cl1' Cs2 I2 100(2) 2_655 . ?
Cl1' Cs2 I2 100(2) 3_545 . ?
Cl1' Cs2 I2 100(2) 4 . ?
I1 Cs2 I2 180.0 . . ?
Cs2' Cs2 I4 100(4) 4 2_655 ?
Cs2' Cs2 I4 30(6) 2_655 2_655 ?
Cs2' Cs2 I4 88(4) 3_545 2_655 ?
Cs2' Cs2 I4 174(4) . 2_655 ?
Cl1' Cs2 I4 155(2) . 2_655 ?
Cl1' Cs2 I4 6.3(15) 2_655 2_655 ?
Cl1' Cs2 I4 91.7(16) 3_545 2_655 ?
Cl1' Cs2 I4 83.5(18) 4 2_655 ?
I1 Cs2 I4 75.5(8) . 2_655 ?
I2 Cs2 I4 104.5(8) . 2_655 ?
Cs2' Cs2 I4 174(4) 4 3_545 ?
Cs2' Cs2 I4 100(4) 2_655 3_545 ?
Cs2' Cs2 I4 30(6) 3_545 3_545 ?
Cs2' Cs2 I4 88(4) . 3_545 ?
Cl1' Cs2 I4 91.7(16) . 3_545 ?
Cl1' Cs2 I4 83.5(18) 2_655 3_545 ?
Cl1' Cs2 I4 6.3(15) 3_545 3_545 ?
Cl1' Cs2 I4 155(2) 4 3_545 ?
I1 Cs2 I4 75.5(8) . 3_545 ?
I2 Cs2 I4 104.5(8) . 3_545 ?
I4 Cs2 I4 86.4(4) 2_655 3_545 ?
Cs2 Cs2' Cs2' 46.9(16) . 4 ?
Cs2 Cs2' Cs2' 46.9(16) . 3_545 ?
Cs2' Cs2' Cs2' 89.998(16) 4 3_545 ?
Cs2 Cs2' Cs2' 15(6) . 2_655 ?
Cs2' Cs2' Cs2' 45.00(2) 4 2_655 ?
Cs2' Cs2' Cs2' 44.999(9) 3_545 2_655 ?
Cs2 Cs2' Cl1' 148(7) . . ?
Cs2' Cs2' Cl1' 121(5) 4 . ?
Cs2' Cs2' Cl1' 145(5) 3_545 . ?
Cs2' Cs2' Cl1' 161(4) 2_655 . ?
Cs2 Cs2' Cl1' 89(5) . 3_545 ?
Cs2' Cs2' Cl1' 135(5) 4 3_545 ?
Cs2' Cs2' Cl1' 48(5) 3_545 3_545 ?
Cs2' Cs2' Cl1' 92(5) 2_655 3_545 ?
Cl1' Cs2' Cl1' 97.4(14) . 3_545 ?
Cs2 Cs2' I4 146(6) . . ?
Cs2' Cs2' I4 125(5) 4 . ?
Cs2' Cs2' I4 139(5) 3_545 . ?
Cs2' Cs2' I4 159.8(19) 2_655 . ?
Cs2 Cs2' Cl1' 69(4) . 4 ?
Cs2' Cs2' Cl1' 28(4) 4 4 ?
Cs2' Cs2' Cl1' 115(4) 3_545 4 ?
Cs2' Cs2' Cl1' 71(4) 2_655 4 ?
Cl1' Cs2' Cl1' 93.4(14) . 4 ?
Cl1' Cs2' Cl1' 150(3) 3_545 4 ?
I4 Cs2' Cl1' 97.2(17) . 4 ?
Cs2 Cs2' I2 97(7) . . ?
Cs2' Cs2' I2 84.5(4) 4 . ?
Cs2' Cs2' I2 84.5(4) 3_545 . ?
Cs2' Cs2' I2 82.2(6) 2_655 . ?
Cl1' Cs2' I2 112(2) . . ?
Cl1' Cs2' I2 102(2) 3_545 . ?
I4 Cs2' I2 116.6(11) . . ?
Cl1' Cs2' I2 98.9(17) 4 . ?
Cs2 Cs2' Cl1' 10(5) . 2_655 ?
Cs2' Cs2' Cl1' 55(4) 4 2_655 ?
Cs2' Cs2' Cl1' 37(4) 3_545 2_655 ?
Cs2' Cs2' Cl1' 14(3) 2_655 2_655 ?
Cl1' Cs2' Cl1' 155(4) . 2_655 ?
Cl1' Cs2' Cl1' 80.5(11) 3_545 2_655 ?
I4 Cs2' Cl1' 150.6(16) . 2_655 ?
Cl1' Cs2' Cl1' 78.3(10) 4 2_655 ?
I2 Cs2' Cl1' 92.8(16) . 2_655 ?
Cs2 Cs2' I4 85(4) . 3_545 ?
Cs2' Cs2' I4 131(4) 4 3_545 ?
Cs2' Cs2' I4 46(4) 3_545 3_545 ?
Cs2' Cs2' I4 89(4) 2_655 3_545 ?
Cl1' Cs2' I4 99.0(19) . 3_545 ?
Cl1' Cs2' I4 5.2(15) 3_545 3_545 ?
I4 Cs2' I4 92.8(7) . 3_545 ?
Cl1' Cs2' I4 145(2) 4 3_545 ?
I2 Cs2' I4 106.2(8) . 3_545 ?
Cl1' Cs2' I4 76.9(17) 2_655 3_545 ?
Cs2 Cs2' I1 68(6) . . ?
Cs2' Cs2' I1 84.7(4) 4 . ?
Cs2' Cs2' I1 84.7(4) 3_545 . ?
Cs2' Cs2' I1 82.4(6) 2_655 . ?
Cl1' Cs2' I1 83(2) . . ?
Cl1' Cs2' I1 78.1(18) 3_545 . ?
I4 Cs2' I1 78.7(4) . . ?
Cl1' Cs2' I1 76.0(18) 4 . ?
I2 Cs2' I1 164.6(12) . . ?
Cl1' Cs2' I1 72.1(16) 2_655 . ?
I4 Cs2' I1 73.4(5) 3_545 . ?
Cs3 Cs3 I5' 142.8(3) 2_755 3_645 ?
Cs3 Cs3 I5' 142.8(3) 2_755 6 ?
I5' Cs3 I5' 74.4(5) 3_645 6 ?
Cs3 Cs3 I3 82.22(14) 2_755 . ?
I5' Cs3 I3 74.7(3) 3_645 . ?
I5' Cs3 I3 118.7(4) 6 . ?
Cs3 Cs3 I3 82.22(14) 2_755 7_645 ?
I5' Cs3 I3 118.7(4) 3_645 7_645 ?
I5' Cs3 I3 74.7(3) 6 7_645 ?
I3 Cs3 I3 164.4(3) . 7_645 ?
Cs3 Cs3 I5 107.19(16) 2_755 7_645 ?
I5' Cs3 I5 57.1(4) 3_645 7_645 ?
I5' Cs3 I5 94.1(4) 6 7_645 ?
I3 Cs3 I5 110.86(11) . 7_645 ?
I3 Cs3 I5 73.98(11) 7_645 7_645 ?
Cs3 Cs3 I5 107.19(16) 2_755 . ?
I3 Cs3 I5 73.98(11) . . ?
I3 Cs3 I5 110.86(11) 7_645 . ?
I5 Cs3 I5 145.6(3) 7_645 . ?
Cs3 Cs3 Cl2 147.4(2) 2_755 3_645 ?
I5' Cs3 Cl2 10.6(4) 3_645 3_645 ?
I5' Cs3 Cl2 69.0(4) 6 3_645 ?
I3 Cs3 Cl2 71.1(2) . 3_645 ?
I3 Cs3 Cl2 123.5(3) 7_645 3_645 ?
I5 Cs3 Cl2 67.4(4) 7_645 3_645 ?
I5 Cs3 Cl2 83.5(3) . 3_645 ?
Cs3 Cs3 Cl2 147.4(2) 2_755 6 ?
I5' Cs3 Cl2 69.0(4) 3_645 6 ?
I5' Cs3 Cl2 10.6(4) 6 6 ?
I3 Cs3 Cl2 123.5(3) . 6 ?
I3 Cs3 Cl2 71.1(2) 7_645 6 ?
I5 Cs3 Cl2 83.5(3) 7_645 6 ?
I5 Cs3 Cl2 67.4(4) . 6 ?
Cl2 Cs3 Cl2 65.2(4) 3_645 6 ?
Cs3 Cs3 I5' 28.33(19) 2_755 5_645 ?
I3 Cs3 I5' 99.9(3) . 5_645 ?
I3 Cs3 I5' 65.7(3) 7_645 5_645 ?
I5 Cs3 I5' 80.3(2) 7_645 5_645 ?
I5 Cs3 I5' 133.6(3) . 5_645 ?
Cl2 Cs3 I5' 139.2(4) 3_645 5_645 ?
Cl2 Cs3 I5' 136.5(3) 6 5_645 ?
Cs3 Cs3 I5' 28.33(19) 2_755 4 ?
I5' Cs3 I5' 140.1(5) 3_645 4 ?
I5' Cs3 I5' 129.4(5) 6 4 ?
I3 Cs3 I5' 65.7(3) . 4 ?
I3 Cs3 I5' 99.9(3) 7_645 4 ?
I5 Cs3 I5' 133.6(3) 7_645 4 ?
I5 Cs3 I5' 80.3(2) . 4 ?
Cl2 Cs3 I5' 136.5(3) 3_645 4 ?
Cl2 Cs3 I5' 139.2(4) 6 4 ?
I5' Cs3 I5' 56.7(4) 5_645 4 ?
Cs3 Cs3 Cl2' 115.2(6) 2_755 7_645 ?
I5' Cs3 Cl2' 48.7(7) 3_645 7_645 ?
I5' Cs3 Cl2' 88.9(7) 6 7_645 ?
I3 Cs3 Cl2' 107.6(6) . 7_645 ?
I3 Cs3 Cl2' 79.2(6) 7_645 7_645 ?
I5 Cs3 Cl2' 8.7(6) 7_645 7_645 ?
I5 Cs3 Cl2' 137.4(7) . 7_645 ?
Cl2 Cs3 Cl2' 58.8(7) 3_645 7_645 ?
Cl2 Cs3 Cl2' 78.4(7) 6 7_645 ?
I5' Cs3 Cl2' 88.8(7) 5_645 7_645 ?
I5' Cs3 Cl2' 140.5(7) 4 7_645 ?
Cs4' Cs4 I4' 98.3(19) . 5_656 ?
Cs4' Cs4 Cl1 101(2) . 5_656 ?
I4' Cs4 Cl1 4.9(6) 5_656 5_656 ?
Cs4' Cs4 Cl2 70(2) . . ?
Cl1 Cs4 Cl2 141.7(6) 5_656 . ?
Cs4' Cs4 I4' 140(3) . 8_666 ?
I4' Cs4 I4' 109.0(8) 5_656 8_666 ?
Cl1 Cs4 I4' 108.9(5) 5_656 8_666 ?
Cl2 Cs4 I4' 99.4(5) . 8_666 ?
Cs4' Cs4 I2 83(3) . 5_656 ?
I4' Cs4 I2 79.1(4) 5_656 5_656 ?
Cl1 Cs4 I2 83.7(4) 5_656 5_656 ?
Cl2 Cs4 I2 129.5(4) . 5_656 ?
I4' Cs4 I2 74.4(3) 8_666 5_656 ?
Cs4' Cs4 Cl2' 14(2) . 4_565 ?
Cl1 Cs4 Cl2' 92.3(9) 5_656 4_565 ?
Cl2 Cs4 Cl2' 84.3(7) . 4_565 ?
I2 Cs4 Cl2' 70.1(5) 5_656 4_565 ?
Cs4' Cs4 I5 16.6(19) . 4_565 ?
Cl1 Cs4 I5 85.0(5) 5_656 4_565 ?
Cl2 Cs4 I5 86.1(4) . 4_565 ?
I2 Cs4 I5 75.8(2) 5_656 4_565 ?
Cs4' Cs4 I3 75(2) . 3_545 ?
I4' Cs4 I3 72.7(4) 5_656 3_545 ?
Cl1 Cs4 I3 69.6(5) 5_656 3_545 ?
Cl2 Cs4 I3 72.2(3) . 3_545 ?
I4' Cs4 I3 140.8(4) 8_666 3_545 ?
I2 Cs4 I3 140.65(17) 5_656 3_545 ?
Cl2' Cs4 I3 82.3(6) 4_565 3_545 ?
I5 Cs4 I3 73.67(18) 4_565 3_545 ?
Cs4' Cs4 I4 138(2) . . ?
Cl1 Cs4 I4 94.0(5) 5_656 . ?
Cl2 Cs4 I4 73.5(3) . . ?
I2 Cs4 I4 138.5(3) 5_656 . ?
I5 Cs4 I4 145.55(19) 4_565 . ?
I3 Cs4 I4 73.76(19) 3_545 . ?
Cs4' Cs4 Cl1 144(3) . 8_666 ?
Cl1 Cs4 Cl1 107.8(10) 5_656 8_666 ?
Cl2 Cs4 Cl1 98.0(6) . 8_666 ?
I2 Cs4 Cl1 79.3(4) 5_656 8_666 ?
I5 Cs4 Cl1 150.5(4) 4_565 8_666 ?
I3 Cs4 Cl1 135.5(4) 3_545 8_666 ?
I4 Cs4 Cl1 61.9(4) . 8_666 ?
Cs4' Cs4 Mn1 171(2) . . ?
I4' Cs4 Mn1 90.6(5) 5_656 . ?
Cl1 Cs4 Mn1 88.0(6) 5_656 . ?
Cl2 Cs4 Mn1 100.4(3) . . ?
I4' Cs4 Mn1 37.1(3) 8_666 . ?
I2 Cs4 Mn1 101.94(19) 5_656 . ?
Cl2' Cs4 Mn1 171.9(6) 4_565 . ?
I5 Cs4 Mn1 172.8(3) 4_565 . ?
I3 Cs4 Mn1 105.3(3) 3_545 . ?
I4 Cs4 Mn1 36.58(15) . . ?
Cl1 Cs4 Mn1 32.1(4) 8_666 . ?
Cs4 Cs4' Cl2' 162(3) . 4_565 ?
Cs4 Cs4' I5 160(2) . 4_565 ?
Cs4 Cs4' I4' 69.9(17) . 5_656 ?
Cl2' Cs4' I4' 98.4(12) 4_565 5_656 ?
I5 Cs4' I4' 90.3(8) 4_565 5_656 ?
Cs4 Cs4' Cl2 98(2) . . ?
I5 Cs4' Cl2 100.7(12) 4_565 . ?
Cs4 Cs4' I3 94(2) . 3_545 ?
Cl2' Cs4' I3 94.6(14) 4_565 3_545 ?
I5 Cs4' I3 83.7(10) 4_565 3_545 ?
I4' Cs4' I3 72.4(5) 5_656 3_545 ?
Cl2 Cs4' I3 75.7(7) . 3_545 ?
Cs4 Cs4' I2 86(3) . 5_656 ?
Cl2' Cs4' I2 78.2(8) 4_565 5_656 ?
I5 Cs4' I2 84.8(5) 4_565 5_656 ?
I4' Cs4' I2 77.3(7) 5_656 5_656 ?
Cl2 Cs4' I2 136.5(7) . 5_656 ?
I3 Cs4' I2 147.4(6) 3_545 5_656 ?
Cs4 Cs4' Cl1 68.7(18) . 5_656 ?
Cl2' Cs4' Cl1 100.6(12) 4_565 5_656 ?
I5 Cs4' Cl1 91.9(8) 4_565 5_656 ?
I4' Cs4' Cl1 4.2(6) 5_656 5_656 ?
Cl2 Cs4' Cl1 140.6(7) . 5_656 ?
I3 Cs4' Cl1 68.8(5) 3_545 5_656 ?
I2 Cs4' Cl1 81.3(7) 5_656 5_656 ?
Cs4 Cs4' I5' 107(2) . . ?
Cl2' Cs4' I5' 90.5(12) 4_565 . ?
I4' Cs4' I5' 138.0(9) 5_656 . ?
I3 Cs4' I5' 66.0(6) 3_545 . ?
I2 Cs4' I5' 144.5(5) 5_656 . ?
Cs4 Cs4' I5 101(3) . . ?
I5 Cs4' I5 93.8(6) 4_565 . ?
Cl2 Cs4' I5 63.8(4) . . ?
I3 Cs4' I5 138.3(8) 3_545 . ?
I2 Cs4' I5 72.8(4) 5_656 . ?
Cl1 Cs4' I5 152.8(11) 5_656 . ?
Cs4 Cs4' Mn2 118(2) . . ?
Cl2' Cs4' Mn2 74.8(10) 4_565 . ?
I5 Cs4' Mn2 82.1(8) 4_565 . ?
I4' Cs4' Mn2 170.9(15) 5_656 . ?
Cl2 Cs4' Mn2 34.1(3) . . ?
I3 Cs4' Mn2 101.7(8) 3_545 . ?
I2 Cs4' Mn2 106.8(4) 5_656 . ?
Cl1 Cs4' Mn2 169.3(13) 5_656 . ?
I5' Cs4' Mn2 37.9(3) . . ?
I5 Cs4' Mn2 37.2(2) . . ?
Cs4 Cs4' I4' 34(2) . 8_666 ?
Cl2' Cs4' I4' 140.1(10) 4_565 8_666 ?
I5 Cs4' I4' 150.6(8) 4_565 8_666 ?
I4' Cs4' I4' 94.2(11) 5_656 8_666 ?
Cl2 Cs4' I4' 92.2(8) . 8_666 ?
I3 Cs4' I4' 125.3(8) 3_545 8_666 ?
I2 Cs4' I4' 68.0(8) 5_656 8_666 ?
Cl1 Cs4' I4' 94.7(10) 5_656 8_666 ?
I5' Cs4' I4' 104.8(7) . 8_666 ?
I5 Cs4' I4' 68.3(6) . 8_666 ?
Mn2 Cs4' I4' 94.9(7) . 8_666 ?
Cl1 Cs5 Cl1 149.2(9) . 7_646 ?
Cl1 Cs5 Cl1 139.6(9) . 2_755 ?
Cl1 Cs5 Cl1 51.7(7) 7_646 2_755 ?
Cl1 Cs5 Cl1 51.7(7) . 8_666 ?
Cl1 Cs5 Cl1 139.6(9) 7_646 8_666 ?
Cl1 Cs5 Cl1 149.2(9) 2_755 8_666 ?
Cl1 Cs5 I3 69.8(5) . 7_646 ?
Cl1 Cs5 I3 110.2(5) 7_646 7_646 ?
Cl1 Cs5 I3 69.8(5) 2_755 7_646 ?
Cl1 Cs5 I3 110.2(5) 8_666 7_646 ?
Cl1 Cs5 I3 110.2(5) . . ?
Cl1 Cs5 I3 69.8(5) 7_646 . ?
Cl1 Cs5 I3 110.2(5) 2_755 . ?
Cl1 Cs5 I3 69.8(5) 8_666 . ?
I3 Cs5 I3 180.0 7_646 . ?
I3 Cs5 I4' 66.4(3) 7_646 . ?
I3 Cs5 I4' 113.6(3) . . ?
Cl1 Cs5 I4' 145.3(4) . 7_646 ?
Cl1 Cs5 I4' 5.3(4) 7_646 7_646 ?
Cl1 Cs5 I4' 56.9(4) 2_755 7_646 ?
Cl1 Cs5 I4' 136.0(4) 8_666 7_646 ?
I3 Cs5 I4' 113.6(3) 7_646 7_646 ?
I3 Cs5 I4' 66.4(3) . 7_646 ?
I4' Cs5 I4' 141.9(6) . 7_646 ?
Cl1 Cs5 I4' 136.0(4) . 2_755 ?
Cl1 Cs5 I4' 56.9(4) 7_646 2_755 ?
Cl1 Cs5 I4' 5.3(4) 2_755 2_755 ?
Cl1 Cs5 I4' 145.3(4) 8_666 2_755 ?
I3 Cs5 I4' 66.4(3) 7_646 2_755 ?
I3 Cs5 I4' 113.6(3) . 2_755 ?
I4' Cs5 I4' 132.9(6) . 2_755 ?
I4' Cs5 I4' 62.1(5) 7_646 2_755 ?
Cl1 Cs5 I4' 56.9(4) . 8_666 ?
Cl1 Cs5 I4' 136.0(4) 7_646 8_666 ?
Cl1 Cs5 I4' 145.3(4) 2_755 8_666 ?
Cl1 Cs5 I4' 5.3(4) 8_666 8_666 ?
I3 Cs5 I4' 113.6(3) 7_646 8_666 ?
I3 Cs5 I4' 66.4(3) . 8_666 ?
I4' Cs5 I4' 62.1(5) . 8_666 ?
I4' Cs5 I4' 132.9(6) 7_646 8_666 ?
I4' Cs5 I4' 141.9(6) 2_755 8_666 ?
Cl1 Cs5 I4 60.9(5) . 4 ?
Cl1 Cs5 I4 91.4(4) 7_646 4 ?
Cl1 Cs5 I4 133.7(4) 2_755 4 ?
Cl1 Cs5 I4 76.7(5) 8_666 4 ?
I3 Cs5 I4 107.27(10) 7_646 4 ?
I3 Cs5 I4 72.73(10) . 4 ?
Cl1 Cs5 I4 76.7(5) . 6_556 ?
Cl1 Cs5 I4 133.7(4) 7_646 6_556 ?
Cl1 Cs5 I4 91.4(4) 2_755 6_556 ?
Cl1 Cs5 I4 60.9(5) 8_666 6_556 ?
I3 Cs5 I4 72.73(10) 7_646 6_556 ?
I3 Cs5 I4 107.27(10) . 6_556 ?
I4' Cs5 I4 79.8(3) . 6_556 ?
I4' Cs5 I4 138.0(3) 7_646 6_556 ?
I4' Cs5 I4 86.5(3) 2_755 6_556 ?
I4' Cs5 I4 59.7(3) 8_666 6_556 ?
I4 Cs5 I4 133.09(17) 4 6_556 ?
Cl2' Cs6 Cl2' 86.5(3) 7_546 6_456 ?
Cl2' Cs6 Cl2' 86.5(3) 8_666 6_456 ?
Cl2' Cs6 Cl2' 151.6(14) 5_646 6_456 ?
Cl2' Cs6 I2 75.8(7) 7_546 . ?
Cl2' Cs6 I2 75.8(7) 8_666 . ?
Cl2' Cs6 I2 75.8(7) 5_646 . ?
Cl2' Cs6 I2 75.8(7) 6_456 . ?
I2 Cs6 I1 180.0 . 1_556 ?
Cl2' Cs6 I5 3.1(8) 7_546 7_546 ?
Cl2' Cs6 I5 150.4(7) 8_666 7_546 ?
Cl2' Cs6 I5 83.4(8) 5_646 7_546 ?
Cl2' Cs6 I5 89.2(8) 6_456 7_546 ?
I2 Cs6 I5 74.81(18) . 7_546 ?
I1 Cs6 I5 105.19(18) 1_556 7_546 ?
Cl2' Cs6 I5 150.4(7) 7_546 8_666 ?
Cl2' Cs6 I5 3.1(8) 8_666 8_666 ?
Cl2' Cs6 I5 89.2(8) 5_646 8_666 ?
Cl2' Cs6 I5 83.4(8) 6_456 8_666 ?
I2 Cs6 I5 74.81(18) . 8_666 ?
I1 Cs6 I5 105.19(18) 1_556 8_666 ?
I5 Cs6 I5 149.6(4) 7_546 8_666 ?
I2 Cs6 I5 74.81(18) . 5_646 ?
I1 Cs6 I5 105.19(18) 1_556 5_646 ?
I5 Cs6 I5 86.07(9) 7_546 5_646 ?
I5 Cs6 I5 86.07(9) 8_666 5_646 ?
Cl2' Cs6 I5 83.4(8) 7_546 6_456 ?
Cl2' Cs6 I5 89.2(8) 8_666 6_456 ?
Cl2' Cs6 I5 150.4(7) 5_646 6_456 ?
Cl2' Cs6 I5 3.1(8) 6_456 6_456 ?
I2 Cs6 I5 74.81(18) . 6_456 ?
I1 Cs6 I5 105.19(18) 1_556 6_456 ?
I5 Cs6 I5 86.07(9) 7_546 6_456 ?
I5 Cs6 I5 86.07(9) 8_666 6_456 ?
I5 Cs6 I5 149.6(4) 5_646 6_456 ?
I2 Cs6 I5' 108.7(2) . 1_556 ?
I1 Cs6 I5' 71.3(2) 1_556 1_556 ?
I5 Cs6 I5' 127.7(2) 7_546 1_556 ?
I5 Cs6 I5' 63.7(2) 8_666 1_556 ?
I5 Cs6 I5' 146.2(2) 5_646 1_556 ?
I5 Cs6 I5' 48.5(3) 6_456 1_556 ?
I2 Cs6 I5' 108.7(2) . 4_556 ?
I1 Cs6 I5' 71.3(2) 1_556 4_556 ?
I5 Cs6 I5' 146.2(2) 7_546 4_556 ?
I5 Cs6 I5' 48.5(3) 8_666 4_556 ?
I5 Cs6 I5' 63.7(2) 5_646 4_556 ?
I5 Cs6 I5' 127.7(2) 6_456 4_556 ?
Cl1 Mn1 Cl1 90.5(12) 8_666 . ?
Cl1 Mn1 Cl1' 100(2) 8_666 8_666 ?
Cl1 Mn1 Cl1' 120(3) . 8_666 ?
Cl1' Mn1 Cl1' 124(5) 8_666 . ?
Cl1 Mn1 I4' 8.5(8) 8_666 8_666 ?
Cl1 Mn1 I4' 98.9(8) . 8_666 ?
Cl1' Mn1 I4' 94(2) 8_666 8_666 ?
Cl1' Mn1 I4' 119(3) . 8_666 ?
Cl1' Mn1 I4' 119(3) 8_666 . ?
Cl1' Mn1 I4' 94(2) . . ?
I4' Mn1 I4' 107.4(10) 8_666 . ?
Cl1 Mn1 I4 115.9(9) 8_666 . ?
Cl1 Mn1 I4 114.8(7) . . ?
Cl1 Mn1 I4 114.8(7) 8_666 8_666 ?
Cl1 Mn1 I4 115.9(9) . 8_666 ?
I4 Mn1 I4 105.1(5) . 8_666 ?
Cl1 Mn1 Cs1' 54.1(10) 8_666 . ?
Cl1 Mn1 Cs1' 92.9(10) . . ?
Cl1' Mn1 Cs1' 140(3) 8_666 . ?
Cl1' Mn1 Cs1' 66(3) . . ?
I4' Mn1 Cs1' 55.4(6) 8_666 . ?
I4' Mn1 Cs1' 96.8(7) . . ?
I4 Mn1 Cs1' 66.1(5) . . ?
I4 Mn1 Cs1' 150.2(4) 8_666 . ?
Cl1 Mn1 Cs1' 92.9(10) 8_666 8_666 ?
Cl1 Mn1 Cs1' 54.1(10) . 8_666 ?
I4 Mn1 Cs1' 150.2(4) . 8_666 ?
I4 Mn1 Cs1' 66.1(5) 8_666 8_666 ?
Cs1' Mn1 Cs1' 135.2(11) . 8_666 ?
Cl1 Mn1 Cs4 69.6(6) 8_666 . ?
Cl1 Mn1 Cs4 157.1(8) . . ?
Cl1' Mn1 Cs4 76(3) 8_666 . ?
Cl1' Mn1 Cs4 82(2) . . ?
I4' Mn1 Cs4 61.6(5) 8_666 . ?
I4' Mn1 Cs4 163.0(6) . . ?
I4 Mn1 Cs4 67.3(2) . . ?
I4 Mn1 Cs4 83.8(3) 8_666 . ?
Cs1' Mn1 Cs4 66.5(4) . . ?
Cs1' Mn1 Cs4 135.1(3) 8_666 . ?
Cl1 Mn1 Cs4 157.1(8) 8_666 8_666 ?
Cl1 Mn1 Cs4 69.6(6) . 8_666 ?
Cl1' Mn1 Cs4 82(2) 8_666 8_666 ?
Cl1' Mn1 Cs4 76(3) . 8_666 ?
I4' Mn1 Cs4 163.0(6) 8_666 8_666 ?
I4' Mn1 Cs4 61.6(5) . 8_666 ?
I4 Mn1 Cs4 83.8(3) . 8_666 ?
I4 Mn1 Cs4 67.3(2) 8_666 8_666 ?
Cs1' Mn1 Cs4 135.1(3) . 8_666 ?
Cs1' Mn1 Cs4 66.5(4) 8_666 8_666 ?
Cs4 Mn1 Cs4 132.1(4) . 8_666 ?
Mn1 Cl1 Cs1' 91.2(10) . 8_666 ?
Mn1 Cl1 Cs4 160.4(10) . 5_646 ?
Cs1' Cl1 Cs4 97.6(8) 8_666 5_646 ?
Mn1 Cl1 Cs5 108.9(7) . . ?
Cs1' Cl1 Cs5 92.7(8) 8_666 . ?
Cs4 Cl1 Cs5 88.3(6) 5_646 . ?
Mn1 Cl1 Cs1 95.4(10) . 8_666 ?
Cs1' Cl1 Cs1 5.0(4) 8_666 8_666 ?
Cs4 Cl1 Cs1 92.7(7) 5_646 8_666 ?
Cs5 Cl1 Cs1 93.8(6) . 8_666 ?
Mn1 Cl1 Cs4' 157.8(10) . 5_646 ?
Cs1' Cl1 Cs4' 88.1(10) 8_666 5_646 ?
Cs4 Cl1 Cs4' 10.5(5) 5_646 5_646 ?
Cs5 Cl1 Cs4' 93.3(7) . 5_646 ?
Cs1 Cl1 Cs4' 83.2(9) 8_666 5_646 ?
Mn1 Cl1 Cs4 78.3(8) . 8_666 ?
Cs1' Cl1 Cs4 75.7(8) 8_666 8_666 ?
Cs4 Cl1 Cs4 86.8(5) 5_646 8_666 ?
Cs5 Cl1 Cs4 166.7(10) . 8_666 ?
Cs1 Cl1 Cs4 74.1(6) 8_666 8_666 ?
Cs4' Cl1 Cs4 79.9(6) 5_646 8_666 ?
Mn1 I4 Cs2' 100.7(7) . . ?
Mn1 I4 Cs1' 169.0(5) . 3_545 ?
Cs2' I4 Cs1' 88.3(7) . 3_545 ?
Mn1 I4 Cs1' 75.3(8) . . ?
Cs2' I4 Cs1' 86.1(7) . . ?
Cs1' I4 Cs1' 99.2(15) 3_545 . ?
Mn1 I4 Cs1 160.0(4) . 3_545 ?
Cs2' I4 Cs1 91.0(6) . 3_545 ?
Cs1' I4 Cs1 10.3(5) 3_545 3_545 ?
Cs1' I4 Cs1 89.5(9) . 3_545 ?
Mn1 I4 Cs2 102.3(5) . . ?
Cs2' I4 Cs2 4.4(8) . . ?
Cs1' I4 Cs2 86.2(6) 3_545 . ?
Cs1' I4 Cs2 82.6(6) . . ?
Cs1 I4 Cs2 88.2(6) 3_545 . ?
Mn1 I4 Cs2' 94.9(6) . 4 ?
Cs2' I4 Cs2' 8.8(9) . 4 ?
Cs1' I4 Cs2' 93.3(7) 3_545 4 ?
Cs1' I4 Cs2' 78.2(5) . 4 ?
Cs1 I4 Cs2' 94.6(6) 3_545 4 ?
Cs2 I4 Cs2' 7.8(6) . 4 ?
Mn1 I4 Cs2' 107.4(5) . 3_545 ?
Cs2' I4 Cs2' 6.9(9) . 3_545 ?
Cs1' I4 Cs2' 81.8(5) 3_545 3_545 ?
Cs1' I4 Cs2' 89.3(7) . 3_545 ?
Cs1 I4 Cs2' 84.9(3) 3_545 3_545 ?
Cs2 I4 Cs2' 7.5(6) . 3_545 ?
Cs2' I4 Cs2' 14.8(11) 4 3_545 ?
Mn1 I4 Cs4 76.12(18) . . ?
Cs2' I4 Cs4 156.6(6) . . ?
Cs1' I4 Cs4 93.1(3) 3_545 . ?
Cs1' I4 Cs4 70.7(3) . . ?
Cs1 I4 Cs4 86.7(3) 3_545 . ?
Cs2 I4 Cs4 152.8(6) . . ?
Cs2' I4 Cs4 148.8(5) 4 . ?
Cs2' I4 Cs4 158.4(5) 3_545 . ?
Mn1 I4 Cs5 97.7(3) . 3_545 ?
Cs2' I4 Cs5 124.4(6) . 3_545 ?
Cs1' I4 Cs5 82.2(7) 3_545 3_545 ?
Cs1' I4 Cs5 149.5(3) . 3_545 ?
Cs1 I4 Cs5 88.86(16) 3_545 3_545 ?
Cs2 I4 Cs5 127.8(5) . 3_545 ?
Cs2' I4 Cs5 132.3(4) 4 3_545 ?
Cs2' I4 Cs5 120.8(6) 3_545 3_545 ?
Cs4 I4 Cs5 78.88(16) . 3_545 ?
Mn1 I4 Cs1 83.0(3) . . ?
Cs2' I4 Cs1 86.0(6) . . ?
Cs1' I4 Cs1 91.3(8) 3_545 . ?
Cs1' I4 Cs1 7.9(7) . . ?
Cs1 I4 Cs1 81.6(3) 3_545 . ?
Cs2 I4 Cs1 82.2(6) . . ?
Cs2' I4 Cs1 78.7(4) 4 . ?
Cs2' I4 Cs1 88.4(6) 3_545 . ?
Cs4 I4 Cs1 70.64(18) . . ?
Cs5 I4 Cs1 148.4(2) 3_545 . ?
Mn1 I4 Cs2' 101.7(5) . 2_655 ?
Cs2' I4 Cs2' 4.6(6) . 2_655 ?
Cs1' I4 Cs2' 86.8(6) 3_545 2_655 ?
Cs1' I4 Cs2' 82.0(5) . 2_655 ?
Cs1 I4 Cs2' 88.7(4) 3_545 2_655 ?
Cs2 I4 Cs2' 0.8(5) . 2_655 ?
Cs2' I4 Cs2' 7.1(7) 4 2_655 ?
Cs2' I4 Cs2' 8.2(7) 3_545 2_655 ?
Cs4 I4 Cs2' 152.3(4) . 2_655 ?
Cs5 I4 Cs2' 128.3(5) 3_545 2_655 ?
Cs1 I4 Cs2' 81.7(4) . 2_655 ?
Mn1 Cl1' Cs2' 123(4) . . ?
Mn1 Cl1' Cs2' 115(3) . 4 ?
Cs2' Cl1' Cs2' 10.9(12) . 4 ?
Mn1 Cl1' Cs2 124(3) . . ?
Cs2' Cl1' Cs2 4.8(10) . . ?
Cs2' Cl1' Cs2 9.2(7) 4 . ?
Mn1 Cl1' Cs2' 129(3) . 3_545 ?
Cs2' Cl1' Cs2' 6.9(11) . 3_545 ?
Cs2' Cl1' Cs2' 17.2(14) 4 3_545 ?
Cs2 Cl1' Cs2' 8.6(7) . 3_545 ?
Mn1 Cl1' Cs1' 77(3) . . ?
Cs2' Cl1' Cs1' 96(3) . . ?
Cs2' Cl1' Cs1' 87(2) 4 . ?
Cs2 Cl1' Cs1' 91(2) . . ?
Cs2' Cl1' Cs1' 98(2) 3_545 . ?
Mn1 Cl1' Cs2' 122(3) . 2_655 ?
Cs2' Cl1' Cs2' 5.0(11) . 2_655 ?
Cs2' Cl1' Cs2' 7.6(9) 4 2_655 ?
Cs2 Cl1' Cs2' 1.6(7) . 2_655 ?
Cs2' Cl1' Cs2' 9.9(8) 3_545 2_655 ?
Cs1' Cl1' Cs2' 91(2) . 2_655 ?
Mn1 Cl1' Cs1' 146(4) . 3_545 ?
Cs2' Cl1' Cs1' 90(2) . 3_545 ?
Cs2' Cl1' Cs1' 97(2) 4 3_545 ?
Cs2 Cl1' Cs1' 88.8(19) . 3_545 ?
Cs2' Cl1' Cs1' 84.0(17) 3_545 3_545 ?
Cs1' Cl1' Cs1' 93(3) . 3_545 ?
Cs2' Cl1' Cs1' 90.3(17) 2_655 3_545 ?
Mn1 I4' Cs1' 84.9(6) . 8_666 ?
Mn1 I4' Cs4 170.8(9) . 5_646 ?
Cs1' I4' Cs4 103.6(7) 8_666 5_646 ?
Mn1 I4' Cs4' 170.1(9) . 5_646 ?
Cs1' I4' Cs4' 93.7(10) 8_666 5_646 ?
Cs4 I4' Cs4' 11.7(6) 5_646 5_646 ?
Mn1 I4' Cs4 81.3(6) . 8_666 ?
Cs1' I4' Cs4 79.1(7) 8_666 8_666 ?
Cs4 I4' Cs4 96.8(6) 5_646 8_666 ?
Cs4' I4' Cs4 88.8(7) 5_646 8_666 ?
Mn1 I4' Cs1 90.3(5) . 8_666 ?
Cs1' I4' Cs1 6.1(4) 8_666 8_666 ?
Cs4 I4' Cs1 98.0(6) 5_646 8_666 ?
Cs4' I4' Cs1 87.9(9) 5_646 8_666 ?
Cs4 I4' Cs1 77.0(4) 8_666 8_666 ?
Mn1 I4' Cs5 95.2(5) . . ?
Cs1' I4' Cs5 86.7(7) 8_666 . ?
Cs4 I4' Cs5 88.7(5) 5_646 . ?
Cs4' I4' Cs5 94.5(6) 5_646 . ?
Cs4 I4' Cs5 165.6(6) 8_666 . ?
Cs1 I4' Cs5 89.1(4) 8_666 . ?
Mn1 I4' Cs2' 90.0(8) . 4 ?
Cs1' I4' Cs2' 162.1(10) 8_666 4 ?
Cs4 I4' Cs2' 80.9(6) 5_646 4 ?
Cs4' I4' Cs2' 88.4(10) 5_646 4 ?
Cs4 I4' Cs2' 83.1(6) 8_666 4 ?
Cs1 I4' Cs2' 159.8(7) 8_666 4 ?
Cs5 I4' Cs2' 110.9(6) . 4 ?
Mn1 I4' Cs2' 83.0(7) . . ?
Cs1' I4' Cs2' 153.0(10) 8_666 . ?
Cs4 I4' Cs2' 87.8(6) 5_646 . ?
Cs4' I4' Cs2' 94.1(9) 5_646 . ?
Cs4 I4' Cs2' 75.2(6) 8_666 . ?
Cs1 I4' Cs2' 152.1(8) 8_666 . ?
Cs5 I4' Cs2' 118.4(7) . . ?
Cs2' I4' Cs2' 9.9(9) 4 . ?
Mn1 I4' Cs4' 87.3(6) . 8_666 ?
Cs1' I4' Cs4' 78.0(8) 8_666 8_666 ?
Cs4 I4' Cs4' 91.1(5) 5_646 8_666 ?
Cs4' I4' Cs4' 82.8(7) 5_646 8_666 ?
Cs4 I4' Cs4' 6.2(3) 8_666 8_666 ?
Cs1 I4' Cs4' 75.3(5) 8_666 8_666 ?
Cs5 I4' Cs4' 164.2(7) . 8_666 ?
Cs2' I4' Cs4' 84.6(6) 4 8_666 ?
Cs2' I4' Cs4' 77.3(7) . 8_666 ?
Cl2 Mn2 Cl2 122.4(11) . 8_665 ?
Cl2 Mn2 I5 109.2(5) . 8_665 ?
Cl2 Mn2 I5 106.6(5) 8_665 8_665 ?
Cl2 Mn2 I5 106.6(5) . . ?
Cl2 Mn2 I5 109.2(5) 8_665 . ?
I5 Mn2 I5 100.8(5) 8_665 . ?
Cl2 Mn2 I5' 104.3(7) . 8_665 ?
Cl2 Mn2 I5' 21.2(5) 8_665 8_665 ?
I5 Mn2 I5' 126.4(4) 8_665 8_665 ?
I5 Mn2 I5' 108.3(4) . 8_665 ?
I5' Mn2 I5' 89.4(7) . 8_665 ?
Cl2 Mn2 Cs4' 99.4(8) . 8_665 ?
Cl2 Mn2 Cs4' 56.3(6) 8_665 8_665 ?
I5 Mn2 Cs4' 67.7(5) 8_665 8_665 ?
I5 Mn2 Cs4' 153.9(6) . 8_665 ?
I5' Mn2 Cs4' 79.7(7) . 8_665 ?
I5' Mn2 Cs4' 66.5(5) 8_665 8_665 ?
Cl2 Mn2 Cs4' 56.3(6) . . ?
Cl2 Mn2 Cs4' 99.4(8) 8_665 . ?
I5 Mn2 Cs4' 153.9(6) 8_665 . ?
I5 Mn2 Cs4' 67.7(5) . . ?
I5' Mn2 Cs4' 66.5(5) . . ?
I5' Mn2 Cs4' 79.7(7) 8_665 . ?
Cs4' Mn2 Cs4' 132.0(12) 8_665 . ?
Cl2 Mn2 Cs1 54.2(5) . . ?
Cl2 Mn2 Cs1 171.5(6) 8_665 . ?
I5 Mn2 Cs1 81.8(3) 8_665 . ?
I5 Mn2 Cs1 67.0(2) . . ?
I5' Mn2 Cs1 73.8(4) . . ?
I5' Mn2 Cs1 151.1(5) 8_665 . ?
Cs4' Mn2 Cs1 130.3(3) 8_665 . ?
Cs4' Mn2 Cs1 72.2(6) . . ?
Cl2 Mn2 Cs1 171.5(6) . 8_665 ?
Cl2 Mn2 Cs1 54.2(5) 8_665 8_665 ?
I5 Mn2 Cs1 67.0(2) 8_665 8_665 ?
I5 Mn2 Cs1 81.8(3) . 8_665 ?
I5' Mn2 Cs1 151.1(5) . 8_665 ?
I5' Mn2 Cs1 73.8(4) 8_665 8_665 ?
Cs4' Mn2 Cs1 72.2(6) 8_665 8_665 ?
Cs4' Mn2 Cs1 130.3(3) . 8_665 ?
Cs1 Mn2 Cs1 130.4(4) . 8_665 ?
Cl2 Mn2 Cs3 61.2(5) . 4_565 ?
Cl2 Mn2 Cs3 61.2(5) 8_665 4_565 ?
I5 Mn2 Cs3 129.6(2) 8_665 4_565 ?
I5 Mn2 Cs3 129.6(2) . 4_565 ?
I5' Mn2 Cs3 44.7(4) . 4_565 ?
I5' Mn2 Cs3 44.7(4) 8_665 4_565 ?
Cs4' Mn2 Cs3 66.0(6) 8_665 4_565 ?
Cs4' Mn2 Cs3 66.0(6) . 4_565 ?
Cs1 Mn2 Cs3 114.79(18) . 4_565 ?
Cs1 Mn2 Cs3 114.79(18) 8_665 4_565 ?
Mn2 Cl2 Cs1 164.5(8) . 3_545 ?
Mn2 Cl2 Cs1 91.9(6) . . ?
Cs1 Cl2 Cs1 98.5(5) 3_545 . ?
Mn2 Cl2 Cs4' 89.7(6) . . ?
Cs1 Cl2 Cs4' 101.5(5) 3_545 . ?
Cs1 Cl2 Cs4' 91.6(9) . . ?
Mn2 Cl2 Cs4 96.6(6) . . ?
Cs1 Cl2 Cs4 96.1(4) 3_545 . ?
Cs1 Cl2 Cs4 82.8(5) . . ?
Cs4' Cl2 Cs4 11.1(5) . . ?
Mn2 Cl2 Cs1' 97.4(7) . . ?
Cs1 Cl2 Cs1' 94.6(4) 3_545 . ?
Cs1 Cl2 Cs1' 10.2(3) . . ?
Cs4' Cl2 Cs1' 83.1(10) . . ?
Cs4 Cl2 Cs1' 73.7(7) . . ?
Mn2 Cl2 Cs3 86.2(5) . 4_565 ?
Cs1 Cl2 Cs3 85.4(4) 3_545 4_565 ?
Cs1 Cl2 Cs3 170.4(7) . 4_565 ?
Cs4' Cl2 Cs3 79.0(8) . 4_565 ?
Cs4 Cl2 Cs3 88.1(4) . 4_565 ?
Cs1' Cl2 Cs3 161.7(8) . 4_565 ?
Mn2 Cl2 Cs1' 170.9(9) . 3_545 ?
Cs1 Cl2 Cs1' 6.9(5) 3_545 3_545 ?
Cs1 Cl2 Cs1' 95.5(4) . 3_545 ?
Cs4' Cl2 Cs1' 95.4(8) . 3_545 ?
Cs4 Cl2 Cs1' 89.5(7) . 3_545 ?
Cs1' Cl2 Cs1' 90.7(6) . 3_545 ?
Cs3 Cl2 Cs1' 87.3(4) 4_565 3_545 ?
Mn2 I5 Cs4' 162.9(5) . 3_645 ?
Mn2 I5 Cs4 159.1(3) . 3_645 ?
Cs4' I5 Cs4 3.8(4) 3_645 3_645 ?
Mn2 I5 Cs3 104.2(3) . . ?
Cs4' I5 Cs3 84.7(6) 3_645 . ?
Cs4 I5 Cs3 87.25(15) 3_645 . ?
Mn2 I5 Cs6 99.2(2) . 5_656 ?
Cs4' I5 Cs6 87.7(5) 3_645 5_656 ?
Cs4 I5 Cs6 88.7(2) 3_645 5_656 ?
Cs3 I5 Cs6 122.8(2) . 5_656 ?
Mn2 I5 Cs1 75.9(2) . . ?
Cs4' I5 Cs1 90.7(4) 3_645 . ?
Cs4 I5 Cs1 88.1(2) 3_645 . ?
Cs3 I5 Cs1 84.9(2) . . ?
Cs6 I5 Cs1 151.9(3) 5_656 . ?
Mn2 I5 Cs4' 75.1(6) . . ?
Cs4' I5 Cs4' 91.7(11) 3_645 . ?
Cs4 I5 Cs4' 88.4(7) 3_645 . ?
Cs3 I5 Cs4' 160.8(5) . . ?
Cs6 I5 Cs4' 75.7(4) 5_656 . ?
Cs1 I5 Cs4' 76.3(5) . . ?
Mn2 I5 Cs3 94.2(3) . 2_755 ?
Cs4' I5 Cs3 92.0(6) 3_645 2_755 ?
Cs4 I5 Cs3 93.98(16) 3_645 2_755 ?
Cs3 I5 Cs3 13.3(2) . 2_755 ?
Cs6 I5 Cs3 134.4(2) 5_656 2_755 ?
Cs1 I5 Cs3 73.7(2) . 2_755 ?
Cs4' I5 Cs3 149.8(4) . 2_755 ?
Mn2 I5 Cs1' 82.4(7) . . ?
Cs4' I5 Cs1' 83.0(8) 3_645 . ?
Cs4 I5 Cs1' 80.2(7) 3_645 . ?
Cs3 I5 Cs1' 89.7(3) . . ?
Cs6 I5 Cs1' 145.2(4) 5_656 . ?
Cs1 I5 Cs1' 9.4(4) . . ?
Cs4' I5 Cs1' 71.2(5) . . ?
Cs3 I5 Cs1' 79.6(3) 2_755 . ?
Mn2 I5 Cs4 80.4(2) . . ?
Cs4' I5 Cs4 85.1(6) 3_645 . ?
Cs4 I5 Cs4 81.6(2) 3_645 . ?
Cs3 I5 Cs4 152.3(3) . . ?
Cs6 I5 Cs4 82.4(2) 5_656 . ?
Cs1 I5 Cs4 69.6(2) . . ?
Cs4' I5 Cs4 9.6(5) . . ?
Cs3 I5 Cs4 143.1(3) 2_755 . ?
Cs1' I5 Cs4 63.5(3) . . ?
Cs4' Cl2' Cs6 100.4(12) 3_645 5_656 ?
Cs4' Cl2' Cs4 3.3(6) 3_645 3_645 ?
Cs6 Cl2' Cs4 99.1(9) 5_656 3_645 ?
Cs4' Cl2' Cs3 81.0(11) 3_645 . ?
Cs6 Cl2' Cs3 134.5(13) 5_656 . ?
Cs4 Cl2' Cs3 84.1(9) 3_645 . ?
Mn2 I5' Cs3 98.1(4) . 4_565 ?
Mn2 I5' Cs1 155.8(7) . 3_545 ?
Cs3 I5' Cs1 103.1(5) 4_565 3_545 ?
Mn2 I5' Cs1' 153.6(7) . 3_545 ?
Cs3 I5' Cs1' 102.0(5) 4_565 3_545 ?
Cs1 I5' Cs1' 5.6(6) 3_545 3_545 ?
Mn2 I5' Cs3 107.0(4) . 3_545 ?
Cs3 I5' Cs3 8.90(18) 4_565 3_545 ?
Cs1 I5' Cs3 94.4(4) 3_545 3_545 ?
Cs1' I5' Cs3 93.5(5) 3_545 3_545 ?
Mn2 I5' Cs4' 75.7(4) . . ?
Cs3 I5' Cs4' 81.5(7) 4_565 . ?
Cs1 I5' Cs4' 96.0(5) 3_545 . ?
Cs1' I5' Cs4' 90.5(8) 3_545 . ?
Cs3 I5' Cs4' 84.0(7) 3_545 . ?
Mn2 I5' Cs4 79.6(4) . . ?
Cs3 I5' Cs4 89.1(4) 4_565 . ?
Cs1 I5' Cs4 89.2(4) 3_545 . ?
Cs1' I5' Cs4 83.7(7) 3_545 . ?
Cs3 I5' Cs4 90.8(3) 3_545 . ?
Cs4' I5' Cs4 9.2(4) . . ?
Mn2 I5' Cs6 88.8(4) . 1_554 ?
Cs3 I5' Cs6 130.1(5) 4_565 1_554 ?
Cs1 I5' Cs6 86.3(3) 3_545 1_554 ?
Cs1' I5' Cs6 91.2(7) 3_545 1_554 ?
Cs3 I5' Cs6 128.7(5) 3_545 1_554 ?
Cs4' I5' Cs6 147.0(8) . 1_554 ?
Cs4 I5' Cs6 140.5(4) . 1_554 ?
Mn2 I5' Cs1 69.9(4) . . ?
Cs3 I5' Cs1 154.1(5) 4_565 . ?
Cs1 I5' Cs1 86.0(4) 3_545 . ?
Cs1' I5' Cs1 84.7(4) 3_545 . ?
Cs3 I5' Cs1 157.3(5) 3_545 . ?
Cs4' I5' Cs1 73.4(7) . . ?
Cs4 I5' Cs1 66.5(3) . . ?
Cs6 I5' Cs1 74.0(3) 1_554 . ?
loop_
_geom_bond_atom_site_label_1
_geom_bond_atom_site_label_2
_geom_bond_distance
_geom_bond_site_symmetry_2
_geom_bond_publ_flag
I1 Cs2 3.72(5) . ?
I1 Cs1 3.754(4) 2_655 ?
I1 Cs1 3.754(4) 4 ?
I1 Cs1 3.754(4) 3_545 ?
I1 Cs1 3.754(4) . ?
I1 Cs6 3.826(12) 1_554 ?
I1 Cs2' 3.89(2) 4 ?
I1 Cs2' 3.89(2) 3_545 ?
I1 Cs2' 3.89(2) 2_655 ?
I1 Cs2' 3.89(2) . ?
I1 Cs1' 4.01(4) 2_655 ?
I1 Cs1' 4.01(4) 3_545 ?
I2 Cs4' 3.76(3) 8_666 ?
I2 Cs4' 3.76(3) 7_546 ?
I2 Cs4' 3.76(3) 5_646 ?
I2 Cs4' 3.76(3) 6_456 ?
I2 Cs2' 3.767(17) . ?
I2 Cs2' 3.767(17) 2_655 ?
I2 Cs2' 3.767(17) 3_545 ?
I2 Cs2' 3.767(17) 4 ?
I2 Cs4 3.784(7) 7_546 ?
I2 Cs4 3.784(7) 8_666 ?
I2 Cs4 3.784(7) 6_456 ?
I2 Cs4 3.784(7) 5_646 ?
I3 Cs4' 3.75(3) 4 ?
I3 Cs4' 3.75(3) 3_645 ?
I3 Cs1' 3.78(3) 2_755 ?
I3 Cs1' 3.78(3) . ?
I3 Cs3 3.815(5) . ?
I3 Cs3 3.815(5) 2_755 ?
I3 Cs5 3.826(5) . ?
I3 Cs1 3.833(5) 2_755 ?
I3 Cs1 3.833(5) . ?
I3 Cs4 3.872(5) 3_645 ?
I3 Cs4 3.872(5) 4 ?
Cs1 Cs1' 0.72(4) . ?
Cs1 I5' 3.266(18) 4 ?
Cs1 Cl2 3.501(19) 4 ?
Cs1 Cl2 3.51(2) . ?
Cs1 I4 3.833(9) 4 ?
Cs1 Cl1 3.92(4) 8_666 ?
Cs1 I4' 3.94(2) 8_666 ?
Cs1 I5 4.100(10) . ?
Cs1 I4 4.275(15) . ?
Cs1 Mn2 4.320(9) . ?
Cs1' Cl1 3.27(6) 8_666 ?
Cs1' I4' 3.33(5) 8_666 ?
Cs1' I4 3.55(3) 4 ?
Cs1' Cl1' 3.78(11) . ?
Cs1' I4 3.816(19) . ?
Cs1' Cl2 3.82(5) . ?
Cs1' I5' 3.90(4) 4 ?
Cs1' Cl1' 3.92(9) 4 ?
Cs1' Mn1 4.04(4) . ?
Cs2 Cs2' 0.53(4) 4 ?
Cs2 Cs2' 0.53(4) 2_655 ?
Cs2 Cs2' 0.53(4) 3_545 ?
Cs2 Cs2' 0.53(4) . ?
Cs2 Cl1' 3.31(9) . ?
Cs2 Cl1' 3.31(9) 2_655 ?
Cs2 Cl1' 3.31(9) 3_545 ?
Cs2 Cl1' 3.31(9) 4 ?
Cs2 I4 3.869(15) 2_655 ?
Cs2 I4 3.869(15) 3_545 ?
Cs2' Cs2' 0.72(6) 4 ?
Cs2' Cs2' 0.72(6) 3_545 ?
Cs2' Cs2' 1.02(8) 2_655 ?
Cs2' Cl1' 2.84(10) . ?
Cs2' Cl1' 3.28(10) 3_545 ?
Cs2' I4 3.42(4) . ?
Cs2' Cl1' 3.46(10) 4 ?
Cs2' Cl1' 3.83(10) 2_655 ?
Cs2' I4 3.88(4) 3_545 ?
Cs3 Cs3 1.033(18) 2_755 ?
Cs3 I5' 3.169(18) 3_645 ?
Cs3 I5' 3.169(18) 6 ?
Cs3 I5 3.882(8) 7_645 ?
Cs3 I5 3.882(8) . ?
Cs3 Cl2 3.92(2) 3_645 ?
Cs3 Cl2 3.92(2) 6 ?
Cs3 I5' 4.040(18) 5_645 ?
Cs3 I5' 4.040(18) 4 ?
Cs3 Cl2' 4.13(4) 7_645 ?
Cs4 Cs4' 0.73(3) . ?
Cs4 I4' 3.37(2) 5_656 ?
Cs4 Cl1 3.72(2) 5_656 ?
Cs4 Cl2 3.75(2) . ?
Cs4 I4' 3.77(2) 8_666 ?
Cs4 Cl2' 3.83(4) 4_565 ?
Cs4 I5 3.853(13) 4_565 ?
Cs4 I4 4.029(13) . ?
Cs4 Cl1 4.06(3) 8_666 ?
Cs4 Mn1 4.240(13) . ?
Cs4' Cl2' 3.13(6) 4_565 ?
Cs4' I5 3.16(4) 4_565 ?
Cs4' I4' 3.55(3) 5_656 ?
Cs4' Cl2 3.58(3) . ?
Cs4' Cl1 3.92(3) 5_656 ?
Cs4' I5' 4.07(3) . ?
Cs4' I5 4.12(2) . ?
Cs4' Mn2 4.30(2) . ?
Cs4' I4' 4.36(5) 8_666 ?
Cs5 Cl1 3.75(3) . ?
Cs5 Cl1 3.75(3) 7_646 ?
Cs5 Cl1 3.75(3) 2_755 ?
Cs5 Cl1 3.75(3) 8_666 ?
Cs5 I4' 4.04(2) . ?
Cs5 I4' 4.04(2) 7_646 ?
Cs5 I4' 4.04(2) 2_755 ?
Cs5 I4' 4.04(2) 8_666 ?
Cs5 I4 4.162(8) 4 ?
Cs5 I4 4.162(8) 6_556 ?
Cs6 Cl2' 3.30(4) 7_546 ?
Cs6 Cl2' 3.30(4) 8_666 ?
Cs6 Cl2' 3.30(4) 5_646 ?
Cs6 Cl2' 3.30(4) 6_456 ?
Cs6 I5 3.924(8) 7_546 ?
Cs6 I5 3.924(8) 8_666 ?
Cs6 I5 3.924(8) 5_646 ?
Cs6 I5 3.924(8) 6_456 ?
Cs6 I5' 4.369(17) 1_556 ?
Cs6 I5' 4.369(16) 4_556 ?
Mn1 Cl1 2.30(3) 8_666 ?
Mn1 Cl1 2.30(3) . ?
Mn1 Cl1' 2.47(8) 8_666 ?
Mn1 Cl1' 2.47(8) . ?
Mn1 I4' 2.59(2) 8_666 ?
Mn1 I4' 2.59(2) . ?
Mn1 I4 2.603(9) . ?
Mn1 I4 2.603(9) 8_666 ?
Mn2 Cl2 2.411(14) . ?
Mn2 Cl2 2.411(14) 8_665 ?
Mn2 I5 2.692(9) 8_665 ?
Mn2 I5 2.692(9) . ?
Mn2 I5' 2.726(16) . ?
Mn2 I5' 2.726(16) 8_665 ?
